
     RDKit          3D

 16 17  0  0  0  0  0  0  0  0999 V2000
    5.9060   -0.2000   -0.5190 C   0  0  0  0  0  0  0  0  0  0  0  0
    5.0940   -1.1550   -0.1040 C   0  0  0  0  0  0  0  0  0  0  0  0
    3.6840   -0.8970    0.0640 C   0  0  0  0  0  0  0  0  0  0  0  0
    3.2030    0.2770   -0.1920 N   0  0  0  0  0  0  0  0  0  0  0  0
    1.8250    0.5720   -0.0400 C   0  0  0  0  0  0  0  0  0  0  0  0
    1.3670    1.7740    0.2750 C   0  0  0  0  0  0  0  0  0  0  0  0
   -0.0890    1.6490    0.3310 C   0  0  0  0  0  0  0  0  0  0  0  0
   -0.8600    2.5820    0.6000 O   0  0  0  0  0  0  0  0  0  0  0  0
   -0.4770    0.3210    0.0370 N   0  0  0  0  0  0  0  0  0  0  0  0
   -1.7600   -0.2860   -0.0320 C   0  0  2  0  0  0  0  0  0  0  0  0
   -2.7140    0.3890   -0.9810 C   0  0  0  0  0  0  0  0  0  0  0  0
   -4.0660    0.0830   -0.3910 C   0  0  0  0  0  0  0  0  0  0  0  0
   -3.8430   -0.6740    0.8210 N   0  0  0  0  0  0  0  0  0  0  0  0
   -2.5330   -0.1900    1.2850 C   0  0  0  0  0  0  0  0  0  0  0  0
    0.7480   -0.3780   -0.2030 C   0  0  0  0  0  0  0  0  0  0  0  0
    0.8700   -1.5960   -0.5010 O   0  0  0  0  0  0  0  0  0  0  0  0
  1  2  2  0
  2  3  1  0
  3  4  2  3
  4  5  1  0
  5  6  2  0
  5 15  1  0
  6  7  1  0
  7  8  2  0
  7  9  1  0
 10  9  1  1
  9 15  1  0
 10 11  1  0
 10 14  1  0
 11 12  1  0
 12 13  1  0
 13 14  1  0
 15 16  2  0
M  CHG  1  13   1
M  END
