
     RDKit          3D

 16 17  0  0  0  0  0  0  0  0999 V2000
   -4.3150   -1.6190   -0.4010 C   0  0  0  0  0  0  0  0  0  0  0  0
   -2.9010   -1.3580   -0.0170 C   0  0  0  0  0  0  0  0  0  0  0  0
   -2.3880   -0.1420    0.0140 C   0  0  0  0  0  0  0  0  0  0  0  0
   -3.1450    1.0150   -0.3170 N   0  0  0  0  0  0  0  0  0  0  0  0
   -1.0310    0.0470    0.3880 N   0  0  0  0  0  0  0  0  0  0  0  0
   -0.7100    0.3110    1.7540 C   0  0  0  0  0  0  0  0  0  0  0  0
    0.3780    1.3040    1.9690 C   0  0  0  0  0  0  0  0  0  0  0  0
    0.9470    1.7350    0.6340 C   0  0  0  0  0  0  0  0  0  0  0  0
    1.2670    0.4200   -0.0890 C   0  0  1  0  0  0  0  0  0  0  0  0
    2.3630    0.5730   -1.0810 C   0  0  0  0  0  0  0  0  0  0  0  0
    3.2760   -0.5250   -0.7520 N   0  0  0  0  0  0  0  0  0  0  0  0
    4.6030   -0.7660   -1.2840 C   0  0  0  0  0  0  0  0  0  0  0  0
    2.6500   -1.3640    0.2100 C   0  0  0  0  0  0  0  0  0  0  0  0
    2.8740   -2.5580    0.4760 O   0  0  0  0  0  0  0  0  0  0  0  0
    1.6820   -0.5740    0.8450 O   0  0  0  0  0  0  0  0  0  0  0  0
   -0.0350   -0.0450   -0.6750 C   0  0  0  0  0  0  0  0  0  0  0  0
  1  2  1  0
  2  3  2  3
  3  4  1  0
  3  5  1  0
  5  6  1  0
  5 16  1  0
  6  7  1  0
  7  8  1  0
  9  8  1  1
  9 10  1  0
  9 15  1  0
  9 16  1  0
 10 11  1  0
 11 12  1  0
 11 13  1  0
 13 14  2  0
 13 15  1  0
M  CHG  1   4   1
M  END
