
     RDKit          3D

 26 28  0  0  0  0  0  0  0  0999 V2000
    7.2180   -2.1330    0.5340 C   0  0  0  0  0  0  0  0  0  0  0  0
    6.7410   -1.3160    1.7150 C   0  0  0  0  0  0  0  0  0  0  0  0
    5.6430   -0.4230    1.2690 C   0  0  0  0  0  0  0  0  0  0  0  0
    4.3710   -0.9020    1.3420 N   0  0  0  0  0  0  0  0  0  0  0  0
    3.3330   -0.1180    0.9440 C   0  0  0  0  0  0  0  0  0  0  0  0
    1.5770   -0.3610    0.8790 S   0  0  0  0  0  0  0  0  0  0  0  0
    1.1530    1.1980    0.2320 C   0  0  0  0  0  0  0  0  0  0  0  0
   -0.2130    1.6600   -0.0750 C   0  0  0  0  0  0  0  0  0  0  0  0
   -1.1150    0.4610   -0.1500 C   0  0  0  0  0  0  0  0  0  0  0  0
   -0.6430   -0.6800    0.0560 O   0  0  0  0  0  0  0  0  0  0  0  0
   -2.4790    0.6170   -0.4500 N   0  0  0  0  0  0  0  0  0  0  0  0
   -3.4110   -0.4450   -0.5600 C   0  0  0  0  0  0  0  0  0  0  0  0
   -3.1100   -1.7760   -0.6690 C   0  0  0  0  0  0  0  0  0  0  0  0
   -4.0930   -2.7740   -0.7660 C   0  0  0  0  0  0  0  0  0  0  0  0
   -5.4250   -2.4460   -0.7570 C   0  0  0  0  0  0  0  0  0  0  0  0
   -6.4270   -3.4180   -0.8530 O   0  0  0  0  0  0  0  0  0  0  0  0
   -5.7410   -1.1050   -0.6470 C   0  0  0  0  0  0  0  0  0  0  0  0
   -7.0990   -0.8090   -0.6400 O   0  0  0  0  0  0  0  0  0  0  0  0
   -7.6060    0.4910   -0.5290 C   0  0  0  0  0  0  0  0  0  0  0  0
   -4.7870   -0.1280   -0.5510 C   0  0  0  0  0  0  0  0  0  0  0  0
    2.3580    1.8200    0.1000 C   0  0  0  0  0  0  0  0  0  0  0  0
    2.4010    3.2470   -0.4540 C   0  0  0  0  0  0  0  0  0  0  0  0
    3.4690    1.1530    0.4610 C   0  0  0  0  0  0  0  0  0  0  0  0
    4.8260    1.5750    0.4180 C   0  0  0  0  0  0  0  0  0  0  0  0
    5.1550    2.7110    0.0050 O   0  0  0  0  0  0  0  0  0  0  0  0
    5.7750    0.7740    0.8150 O   0  0  0  0  0  0  0  0  0  0  0  0
  1  2  1  0
  2  3  1  0
  3  4  2  0
  3 26  1  0
  4  5  1  0
  5  6  1  0
  5 23  2  0
  6  7  1  0
  7  8  1  0
  7 21  2  0
  8  9  1  0
  9 10  2  0
  9 11  1  0
 11 12  1  0
 12 13  2  0
 12 20  1  0
 13 14  1  0
 14 15  2  0
 15 16  1  0
 15 17  1  0
 17 18  1  0
 17 20  2  0
 18 19  1  0
 21 22  1  0
 21 23  1  0
 23 24  1  0
 24 25  2  0
 24 26  1  0
M  END
