
     RDKit          3D

 26 28  0  0  0  0  0  0  0  0999 V2000
   -4.9160    1.1970    2.4330 C   0  0  0  0  0  0  0  0  0  0  0  0
   -3.9780    0.7550    1.4740 O   0  0  0  0  0  0  0  0  0  0  0  0
   -4.4030    0.0740    0.3550 C   0  0  0  0  0  0  0  0  0  0  0  0
   -5.7590   -0.1650    0.1910 C   0  0  0  0  0  0  0  0  0  0  0  0
   -6.2090   -0.8420   -0.9180 C   0  0  0  0  0  0  0  0  0  0  0  0
   -5.3000   -1.2720   -1.8500 C   0  0  0  0  0  0  0  0  0  0  0  0
   -3.9290   -1.0230   -1.6710 C   0  0  0  0  0  0  0  0  0  0  0  0
   -3.4500   -0.3500   -0.5770 C   0  0  0  0  0  0  0  0  0  0  0  0
   -2.1040   -0.0560   -0.3150 N   0  0  0  0  0  0  0  0  0  0  0  0
   -1.0080   -0.4020   -1.1340 C   0  0  0  0  0  0  0  0  0  0  0  0
   -1.1380   -1.0150   -2.1910 O   0  0  0  0  0  0  0  0  0  0  0  0
    0.3420   -0.0500   -0.7710 N   0  0  0  0  0  0  0  0  0  0  0  0
    1.4760   -0.3980   -1.6020 C   0  0  0  0  0  0  0  0  0  0  0  0
    2.7360    0.0790   -0.9900 C   0  0  0  0  0  0  0  0  0  0  0  0
    3.4680    0.9400   -1.6630 C   0  0  0  0  0  0  0  0  0  0  0  0
    4.6950    1.4170   -1.0880 C   0  0  0  0  0  0  0  0  0  0  0  0
    5.9080    2.5660   -1.7120 S   0  0  0  0  0  0  0  0  0  0  0  0
    7.0360    2.4950   -0.2890 C   0  0  0  0  0  0  0  0  0  0  0  0
    6.3820    1.6000    0.5310 C   0  0  0  0  0  0  0  0  0  0  0  0
    5.2250    1.0780    0.1170 C   0  0  0  0  0  0  0  0  0  0  0  0
    4.4150    0.1360    0.8420 O   0  0  0  0  0  0  0  0  0  0  0  0
    3.2370   -0.3310    0.3070 C   0  0  0  0  0  0  0  0  0  0  0  0
    2.5110   -1.2070    1.0090 C   0  0  0  0  0  0  0  0  0  0  0  0
    2.9410   -1.6720    2.3210 C   0  0  0  0  0  0  0  0  0  0  0  0
    4.0340   -1.2430    2.8270 O   0  0  0  0  0  0  0  0  0  0  0  0
    2.2310   -2.5690    3.0780 O   0  0  0  0  0  0  0  0  0  0  0  0
  1  2  1  0
  2  3  1  0
  3  4  2  0
  3  8  1  0
  4  5  1  0
  5  6  2  0
  6  7  1  0
  7  8  2  0
  8  9  1  0
  9 10  1  0
 10 11  2  0
 10 12  1  0
 12 13  1  0
 13 14  1  0
 14 15  2  0
 14 22  1  0
 15 16  1  0
 16 17  1  0
 16 20  2  0
 17 18  1  0
 18 19  2  0
 19 20  1  0
 20 21  1  0
 21 22  1  0
 22 23  2  3
 23 24  1  0
 24 25  2  0
 24 26  1  0
M  END
