
     RDKit          3D

 26 28  0  0  0  0  0  0  0  0999 V2000
    7.7240    2.1870   -0.3560 C   0  0  0  0  0  0  0  0  0  0  0  0
    6.9530    1.1450   -0.4160 C   0  0  0  0  0  0  0  0  0  0  0  0
    5.9800    0.8230    0.5980 C   0  0  0  0  0  0  0  0  0  0  0  0
    5.0780   -0.1810    0.5650 C   0  0  0  0  0  0  0  0  0  0  0  0
    4.1720   -0.3050    1.7500 C   0  0  0  0  0  0  0  0  0  0  0  0
    2.7960   -0.0480    1.5910 N   0  0  0  0  0  0  0  0  0  0  0  0
    1.7780   -0.6600    0.8620 C   0  0  0  0  0  0  0  0  0  0  0  0
    2.0250   -1.6660    0.1780 O   0  0  0  0  0  0  0  0  0  0  0  0
    0.3760   -0.1490    0.8680 C   0  0  0  0  0  0  0  0  0  0  0  0
    0.1170    0.8520    1.5440 O   0  0  0  0  0  0  0  0  0  0  0  0
   -0.6270   -0.7960    0.1170 N   0  0  0  0  0  0  0  0  0  0  0  0
   -1.9790   -0.4070    0.0450 C   0  0  0  0  0  0  0  0  0  0  0  0
   -2.8260   -1.1760   -0.7620 C   0  0  0  0  0  0  0  0  0  0  0  0
   -4.1660   -0.9040   -0.9190 C   0  0  0  0  0  0  0  0  0  0  0  0
   -4.9970   -1.6690   -1.7180 O   0  0  0  0  0  0  0  0  0  0  0  0
   -4.5710   -2.7890   -2.4460 C   0  0  0  0  0  0  0  0  0  0  0  0
   -4.7270    0.1760   -0.2570 C   0  0  0  0  0  0  0  0  0  0  0  0
   -3.9300    0.9590    0.5460 C   0  0  0  0  0  0  0  0  0  0  0  0
   -2.5770    0.6430    0.6730 C   0  0  0  0  0  0  0  0  0  0  0  0
   -4.4910    2.0350    1.2050 O   0  0  0  0  0  0  0  0  0  0  0  0
   -5.7980    2.4950    0.9770 C   0  0  0  0  0  0  0  0  0  0  0  0
   -6.7190    1.3900    0.5080 C   0  0  0  0  0  0  0  0  0  0  0  0
   -6.0650    0.5000   -0.3740 O   0  0  0  0  0  0  0  0  0  0  0  0
    5.0320   -1.1110   -0.5040 C   0  0  0  0  0  0  0  0  0  0  0  0
    5.8110   -1.1590   -1.5930 C   0  0  0  0  0  0  0  0  0  0  0  0
    7.0920    0.0530   -1.8170 S   0  0  0  0  0  0  0  0  0  0  0  0
  1  2  2  0
  2  3  1  0
  2 26  1  0
  3  4  2  0
  4  5  1  0
  4 24  1  0
  5  6  1  0
  6  7  1  0
  7  8  2  0
  7  9  1  0
  9 10  2  0
  9 11  1  0
 11 12  1  0
 12 13  2  0
 12 19  1  0
 13 14  1  0
 14 15  1  0
 14 17  2  0
 15 16  1  0
 17 18  1  0
 17 23  1  0
 18 19  2  0
 18 20  1  0
 20 21  1  0
 21 22  1  0
 22 23  1  0
 24 25  2  0
 25 26  1  0
M  END
