
     RDKit          3D

 26 28  0  0  0  0  0  0  0  0999 V2000
    2.9840    2.1090    1.9540 O   0  0  0  0  0  0  0  0  0  0  0  0
    4.2150    1.8830    1.8410 C   0  0  0  0  0  0  0  0  0  0  0  0
    4.6180    0.8080    0.9430 C   0  0  0  0  0  0  0  0  0  0  0  0
    5.9600    0.4830    0.7520 C   0  0  0  0  0  0  0  0  0  0  0  0
    6.3440   -0.5350   -0.0980 C   0  0  0  0  0  0  0  0  0  0  0  0
    5.3810   -1.2640   -0.7880 C   0  0  0  0  0  0  0  0  0  0  0  0
    4.0500   -0.9610   -0.6140 C   0  0  0  0  0  0  0  0  0  0  0  0
    3.0860   -1.7010   -1.3140 O   0  0  0  0  0  0  0  0  0  0  0  0
    1.7370   -1.4090   -1.1520 C   0  0  0  0  0  0  0  0  0  0  0  0
    1.0970   -0.4990   -1.9530 C   0  0  0  0  0  0  0  0  0  0  0  0
   -0.2360   -0.2470   -1.7530 C   0  0  0  0  0  0  0  0  0  0  0  0
   -0.9860   -0.8640   -0.7780 C   0  0  0  0  0  0  0  0  0  0  0  0
   -2.3370   -0.6050   -0.5790 O   0  0  0  0  0  0  0  0  0  0  0  0
   -2.8120    0.3670    0.2620 C   0  0  0  0  0  0  0  0  0  0  0  0
   -2.0230    1.0840    0.9030 O   0  0  0  0  0  0  0  0  0  0  0  0
   -4.2420    0.5560    0.3990 C   0  0  0  0  0  0  0  0  0  0  0  0
   -5.1430   -0.2240   -0.3010 C   0  0  0  0  0  0  0  0  0  0  0  0
   -6.4700   -0.0100   -0.1400 N   0  0  0  0  0  0  0  0  0  0  0  0
   -6.9350    0.9410    0.6820 C   0  0  0  0  0  0  0  0  0  0  0  0
   -8.5460    1.1330    0.8180 S   0  0  0  0  0  0  0  0  0  0  0  0
   -6.0740    1.7220    1.3820 N   0  0  0  0  0  0  0  0  0  0  0  0
   -4.7510    1.5360    1.2450 C   0  0  0  0  0  0  0  0  0  0  0  0
   -3.9210    2.2300    1.8680 O   0  0  0  0  0  0  0  0  0  0  0  0
   -0.3240   -1.7820    0.0230 C   0  0  0  0  0  0  0  0  0  0  0  0
    1.0140   -2.0430   -0.1690 C   0  0  0  0  0  0  0  0  0  0  0  0
    3.7080    0.0570    0.2380 C   0  0  0  0  0  0  0  0  0  0  0  0
  1  2  2  0
  2  3  1  0
  3  4  2  0
  3 26  1  0
  4  5  1  0
  5  6  2  0
  6  7  1  0
  7  8  1  0
  7 26  2  0
  8  9  1  0
  9 10  2  0
  9 25  1  0
 10 11  1  0
 11 12  2  0
 12 13  1  0
 12 24  1  0
 13 14  1  0
 14 15  2  0
 14 16  1  0
 16 17  2  0
 16 22  1  0
 17 18  1  0
 18 19  1  0
 19 20  2  0
 19 21  1  0
 21 22  1  0
 22 23  2  0
 24 25  2  0
M  END
