
     RDKit          3D

 26 28  0  0  0  0  0  0  0  0999 V2000
    3.8090   -1.5110   -1.0620 C   0  0  0  0  0  0  0  0  0  0  0  0
    4.1750   -0.2770   -0.3380 C   0  0  0  0  0  0  0  0  0  0  0  0
    3.2570    0.4810    0.3690 C   0  0  0  0  0  0  0  0  0  0  0  0
    1.8350    0.2430    0.5390 C   0  0  0  0  0  0  0  0  0  0  0  0
    1.1800    1.0650    1.2280 O   0  0  0  0  0  0  0  0  0  0  0  0
    1.1540   -0.8190    0.0010 O   0  0  0  0  0  0  0  0  0  0  0  0
   -0.2270   -1.0110    0.1910 C   0  0  0  0  0  0  0  0  0  0  0  0
   -0.7140   -1.7450    1.2570 C   0  0  0  0  0  0  0  0  0  0  0  0
   -2.0820   -1.9180    1.4210 C   0  0  0  0  0  0  0  0  0  0  0  0
   -2.9920   -1.3730    0.5390 C   0  0  0  0  0  0  0  0  0  0  0  0
   -4.4010   -1.5550    0.7130 N   0  0  0  0  0  0  0  0  0  0  0  0
   -5.3000   -0.9730   -0.2200 C   0  0  0  0  0  0  0  0  0  0  0  0
   -5.5010    0.3460   -0.2130 C   0  0  0  0  0  0  0  0  0  0  0  0
   -6.3990    1.1130   -1.1110 C   0  0  0  0  0  0  0  0  0  0  0  0
   -6.5440    2.4280   -0.4110 C   0  0  0  0  0  0  0  0  0  0  0  0
   -5.2700    2.5960    0.2010 O   0  0  0  0  0  0  0  0  0  0  0  0
   -4.8880    1.3290    0.6730 C   0  0  0  0  0  0  0  0  0  0  0  0
   -4.1580    1.1140    1.6680 O   0  0  0  0  0  0  0  0  0  0  0  0
   -2.5150   -0.6510   -0.5100 C   0  0  0  0  0  0  0  0  0  0  0  0
   -1.1600   -0.4780   -0.6740 C   0  0  0  0  0  0  0  0  0  0  0  0
    3.9770    1.5290    0.8910 C   0  0  0  0  0  0  0  0  0  0  0  0
    5.2830    1.4160    0.5170 N   0  0  0  0  0  0  0  0  0  0  0  0
    5.4260    0.2980   -0.2480 C   0  0  0  0  0  0  0  0  0  0  0  0
    6.6670   -0.2260   -0.8770 C   0  0  0  0  0  0  0  0  0  0  0  0
    8.0540    0.8440   -0.4940 S   0  0  0  0  0  0  0  0  0  0  0  0
    8.7880    1.2220   -1.7690 O   0  0  0  0  0  0  0  0  0  0  0  0
  1  2  1  0
  2  3  1  0
  2 23  2  0
  3  4  1  0
  3 21  2  0
  4  5  2  0
  4  6  1  0
  6  7  1  0
  7  8  2  0
  7 20  1  0
  8  9  1  0
  9 10  2  0
 10 11  1  0
 10 19  1  0
 11 12  1  0
 12 13  2  3
 13 14  1  0
 13 17  1  0
 14 15  1  0
 15 16  1  0
 16 17  1  0
 17 18  2  0
 19 20  2  0
 21 22  1  0
 22 23  1  0
 23 24  1  0
 24 25  1  0
 25 26  2  0
M  END
