
     RDKit          3D

 26 28  0  0  0  0  0  0  0  0999 V2000
   -5.8410    1.9000    1.7280 C   0  0  0  0  0  0  0  0  0  0  0  0
   -5.6980    0.3990    1.4790 C   0  0  0  0  0  0  0  0  0  0  0  0
   -4.4090    0.1200    1.0090 O   0  0  0  0  0  0  0  0  0  0  0  0
   -3.2890    0.4090    1.7320 C   0  0  0  0  0  0  0  0  0  0  0  0
   -3.4910    0.9530    2.8720 O   0  0  0  0  0  0  0  0  0  0  0  0
   -1.9390    0.1450    1.2680 C   0  0  0  0  0  0  0  0  0  0  0  0
   -0.8850    0.8260    1.9380 C   0  0  0  0  0  0  0  0  0  0  0  0
    0.3790    0.7550    1.4180 C   0  0  0  0  0  0  0  0  0  0  0  0
    0.7280    0.0760    0.2920 C   0  0  0  0  0  0  0  0  0  0  0  0
    2.0250   -0.0220   -0.2770 N   0  0  0  0  0  0  0  0  0  0  0  0
    3.2210    0.5220    0.2320 C   0  0  0  0  0  0  0  0  0  0  0  0
    3.1930    1.1690    1.2970 O   0  0  0  0  0  0  0  0  0  0  0  0
    4.5080    0.3440   -0.4680 C   0  0  0  0  0  0  0  0  0  0  0  0
    4.7800   -0.3150   -1.6310 C   0  0  0  0  0  0  0  0  0  0  0  0
    6.1330   -0.1970   -1.8670 C   0  0  0  0  0  0  0  0  0  0  0  0
    6.6280    0.5370   -0.8260 C   0  0  0  0  0  0  0  0  0  0  0  0
    8.0290    0.9800   -0.5470 C   0  0  0  0  0  0  0  0  0  0  0  0
    5.6340    0.8350   -0.0230 O   0  0  0  0  0  0  0  0  0  0  0  0
   -0.3220   -0.5950   -0.3550 C   0  0  0  0  0  0  0  0  0  0  0  0
   -1.6090   -0.5380    0.1560 C   0  0  0  0  0  0  0  0  0  0  0  0
   -2.6170   -1.4860   -0.4840 C   0  0  0  0  0  0  0  0  0  0  0  0
   -3.4840   -2.2250    0.3660 C   0  0  0  0  0  0  0  0  0  0  0  0
   -4.3290   -3.3000   -0.8450 S   0  0  0  0  0  0  0  0  0  0  0  0
   -3.4310   -2.6430   -2.3260 C   0  0  0  0  0  0  0  0  0  0  0  0
   -3.6140   -3.0320   -3.4760 O   0  0  0  0  0  0  0  0  0  0  0  0
   -2.6470   -1.7390   -1.7390 N   0  0  0  0  0  0  0  0  0  0  0  0
  1  2  1  0
  2  3  1  0
  3  4  1  0
  4  5  2  0
  4  6  1  0
  6  7  2  0
  6 20  1  0
  7  8  1  0
  8  9  2  0
  9 10  1  0
  9 19  1  0
 10 11  1  0
 11 12  2  0
 11 13  1  0
 13 14  2  0
 13 18  1  0
 14 15  1  0
 15 16  2  0
 16 17  1  0
 16 18  1  0
 19 20  2  0
 20 21  1  0
 21 22  2  0
 21 26  1  0
 22 23  1  0
 23 24  1  0
 24 25  2  0
 24 26  1  0
M  END
