
     RDKit          3D

 26 28  0  0  0  0  0  0  0  0999 V2000
   -2.6720   -4.4440    0.8580 C   0  0  0  0  0  0  0  0  0  0  0  0
   -3.2040   -3.4370    0.1840 C   0  0  0  0  0  0  0  0  0  0  0  0
   -4.2950   -3.6450   -0.6450 O   0  0  0  0  0  0  0  0  0  0  0  0
   -2.6510   -2.0930    0.3030 C   0  0  0  0  0  0  0  0  0  0  0  0
   -3.1770   -1.0870   -0.3630 C   0  0  0  0  0  0  0  0  0  0  0  0
   -4.2620   -1.3210   -1.1750 O   0  0  0  0  0  0  0  0  0  0  0  0
   -2.6230    0.2590   -0.2500 C   0  0  0  0  0  0  0  0  0  0  0  0
   -3.1910    1.2270   -0.9150 C   0  0  0  0  0  0  0  0  0  0  0  0
   -2.6920    2.5820   -0.8470 C   0  0  0  0  0  0  0  0  0  0  0  0
   -1.3950    3.1050   -0.8860 C   0  0  0  0  0  0  0  0  0  0  0  0
   -1.2090    4.3970   -0.7950 C   0  0  0  0  0  0  0  0  0  0  0  0
   -2.2840    5.2840   -0.6580 C   0  0  0  0  0  0  0  0  0  0  0  0
   -3.6540    4.0240   -0.6730 S   0  0  0  0  0  0  0  0  0  0  0  0
   -1.4810    0.4760    0.5890 N   0  0  0  0  0  0  0  0  0  0  0  0
   -0.2080   -0.1200    0.2820 C   0  0  0  0  0  0  0  0  0  0  0  0
   -0.1270   -0.8210   -0.7450 O   0  0  0  0  0  0  0  0  0  0  0  0
    0.9350    0.1160    1.1770 C   0  0  0  0  0  0  0  0  0  0  0  0
    0.8580    0.7760    2.3330 O   0  0  0  0  0  0  0  0  0  0  0  0
    2.0110    0.8340    2.9110 N   0  0  0  0  0  0  0  0  0  0  0  0
    2.9200    0.2070    2.1540 C   0  0  0  0  0  0  0  0  0  0  0  0
    2.2270   -0.2570    1.0320 C   0  0  0  0  0  0  0  0  0  0  0  0
    2.7980   -1.0080   -0.1140 C   0  0  0  0  0  0  0  0  0  0  0  0
    3.9280   -0.1110   -0.6490 C   0  0  0  0  0  0  0  0  0  0  0  0
    5.1300   -0.2680    0.2430 C   0  0  0  0  0  0  0  0  0  0  0  0
    5.0920    0.5490    1.3480 O   0  0  0  0  0  0  0  0  0  0  0  0
    4.3740    0.0230    2.4190 C   0  0  0  0  0  0  0  0  0  0  0  0
  1  2  2  0
  2  3  1  0
  2  4  1  0
  4  5  2  3
  5  6  1  0
  5  7  1  0
  7  8  2  3
  7 14  1  0
  8  9  1  0
  9 10  2  0
  9 13  1  0
 10 11  1  0
 11 12  2  0
 12 13  1  0
 14 15  1  0
 15 16  2  0
 15 17  1  0
 17 18  1  0
 17 21  2  0
 18 19  1  0
 19 20  2  0
 20 21  1  0
 20 26  1  0
 21 22  1  0
 22 23  1  0
 23 24  1  0
 24 25  1  0
 25 26  1  0
M  END
