
     RDKit          3D

 26 28  0  0  0  0  0  0  0  0999 V2000
    6.0140    3.7030   -0.1420 C   0  0  0  0  0  0  0  0  0  0  0  0
    5.5490    2.4940   -0.4340 C   0  0  0  0  0  0  0  0  0  0  0  0
    5.3050    1.5510    0.6770 C   0  0  0  0  0  0  0  0  0  0  0  0
    3.9770    1.1150    0.7970 N   0  0  0  0  0  0  0  0  0  0  0  0
    3.2820    0.3130   -0.2710 C   0  0  0  0  0  0  0  0  0  0  0  0
    3.9590    0.0710   -1.2210 O   0  0  0  0  0  0  0  0  0  0  0  0
    1.9880    0.0540    0.1520 N   0  0  0  0  0  0  0  0  0  0  0  0
    1.5170   -0.9490   -1.1480 C   0  0  0  0  0  0  0  0  0  0  0  0
    2.3490   -1.1090   -1.9560 O   0  0  0  0  0  0  0  0  0  0  0  0
    0.2030   -1.4710   -1.1180 C   0  0  0  0  0  0  0  0  0  0  0  0
   -0.0920   -2.3870   -2.1590 C   0  0  0  0  0  0  0  0  0  0  0  0
   -1.2800   -3.0090   -2.2300 C   0  0  0  0  0  0  0  0  0  0  0  0
   -2.2790   -2.7880   -1.2890 C   0  0  0  0  0  0  0  0  0  0  0  0
   -2.0270   -1.9100   -0.2720 C   0  0  0  0  0  0  0  0  0  0  0  0
   -0.7980   -1.2380   -0.1650 C   0  0  0  0  0  0  0  0  0  0  0  0
   -0.6530   -0.3980    0.8550 O   0  0  0  0  0  0  0  0  0  0  0  0
   -1.2640    0.1050    1.9330 C   0  0  0  0  0  0  0  0  0  0  0  0
   -2.5690    0.8020    1.5820 C   0  0  0  0  0  0  0  0  0  0  0  0
   -3.6920    0.3750    2.1090 C   0  0  0  0  0  0  0  0  0  0  0  0
   -5.0630    0.8730    1.9340 C   0  0  0  0  0  0  0  0  0  0  0  0
   -5.1550    2.2250    0.7580 S   0  0  0  0  0  0  0  0  0  0  0  0
   -3.5100    2.6110    0.2000 C   0  0  0  0  0  0  0  0  0  0  0  0
   -2.4910    1.9080    0.6430 C   0  0  0  0  0  0  0  0  0  0  0  0
   -3.3720   -3.5970   -1.6690 O   0  0  0  0  0  0  0  0  0  0  0  0
   -2.7450   -4.6870   -2.3640 C   0  0  0  0  0  0  0  0  0  0  0  0
   -1.7920   -3.9440   -3.1560 O   0  0  0  0  0  0  0  0  0  0  0  0
  1  2  2  0
  2  3  1  0
  3  4  1  0
  4  5  1  0
  5  6  2  0
  5  7  1  0
  7  8  1  0
  8  9  2  0
  8 10  1  0
 10 11  2  0
 10 15  1  0
 11 12  1  0
 12 13  2  0
 12 26  1  0
 13 14  1  0
 13 24  1  0
 14 15  2  0
 15 16  1  0
 16 17  1  0
 17 18  1  0
 18 19  2  0
 18 23  1  0
 19 20  1  0
 20 21  1  0
 21 22  1  0
 22 23  2  0
 24 25  1  0
 25 26  1  0
M  END
