
     RDKit          3D

  8  8  0  0  0  0  0  0  0  0999 V2000
    2.7750    0.3290    0.2000 O   0  0  0  0  0  0  0  0  0  0  0  0
    1.4820    0.4480    0.3500 O   0  0  0  0  0  0  0  0  0  0  0  0
    0.8540   -0.7070   -0.1340 C   0  0  0  0  0  0  0  0  0  0  0  0
   -0.6210   -0.5670   -0.1480 C   0  0  1  0  0  0  0  0  0  0  0  0
   -1.1320    0.6140    0.6720 C   0  0  0  0  0  0  0  0  0  0  0  0
   -2.4280    0.6420    0.1320 O   0  0  0  0  0  0  0  0  0  0  0  0
   -2.3650    0.1850   -1.0780 O   0  0  0  0  0  0  0  0  0  0  0  0
   -1.1470   -0.1410   -1.3790 O   0  0  0  0  0  0  0  0  0  0  0  0
  1  2  1  0
  2  3  1  0
  4  3  1  6
  4  5  1  0
  4  8  1  0
  5  6  1  0
  6  7  1  0
  7  8  1  0
M  END
