
     RDKit          3D

  8  8  0  0  0  0  0  0  0  0999 V2000
    3.2760    0.1210    0.3340 O   0  0  0  0  0  0  0  0  0  0  0  0
    2.2000   -0.4220   -0.3810 C   0  0  0  0  0  0  0  0  0  0  0  0
    1.0510    0.2000    0.0890 O   0  0  0  0  0  0  0  0  0  0  0  0
   -0.3810   -0.3520   -0.6870 P   0  0  0  0  0  0  0  0  0  0  0  0
   -1.4900   -0.8520    0.5910 O   0  0  0  0  0  0  0  0  0  0  0  0
   -2.5750   -0.0000    0.2710 C   0  0  0  0  0  0  0  0  0  0  0  0
   -2.0150    1.2260   -0.0790 O   0  0  0  0  0  0  0  0  0  0  0  0
   -1.3420    1.0330   -1.2070 O   0  0  0  0  0  0  0  0  0  0  0  0
  1  2  1  0
  2  3  1  0
  3  4  1  0
  4  5  1  0
  4  8  1  0
  5  6  1  0
  6  7  1  0
  7  8  1  0
M  END
