
     RDKit          3D

  8  7  0  0  0  0  0  0  0  0999 V2000
   -3.3310    0.4540    0.1560 O   0  0  0  0  0  0  0  0  0  0  0  0
   -2.0120    0.1090   -0.1260 C   0  0  0  0  0  0  0  0  0  0  0  0
   -1.2630    0.0200    1.0360 O   0  0  0  0  0  0  0  0  0  0  0  0
    0.0330   -0.3270    0.6670 C   0  0  0  0  0  0  0  0  0  0  0  0
    0.5300    0.6500   -0.1650 O   0  0  0  0  0  0  0  0  0  0  0  0
    2.1610    0.2540   -0.6550 P   0  0  0  0  0  0  0  0  0  0  0  0
    2.5870   -1.3250   -0.0280 O   0  0  0  0  0  0  0  0  0  0  0  0
    3.2330    1.4500   -0.0340 O   0  0  0  0  0  0  0  0  0  0  0  0
  1  2  1  0
  2  3  1  0
  3  4  1  0
  4  5  1  0
  5  6  1  0
  6  7  1  0
  6  8  1  0
M  END
