
     RDKit          3D

  8  7  0  0  0  0  0  0  0  0999 V2000
   -2.5520    0.4810    1.1290 C   0  0  0  0  0  0  0  0  0  0  0  0
   -2.1480   -0.1200   -0.0470 O   0  0  0  0  0  0  0  0  0  0  0  0
   -1.0940    0.4730   -0.5650 O   0  0  0  0  0  0  0  0  0  0  0  0
    0.0190   -0.2690   -0.1570 C   0  0  0  0  0  0  0  0  0  0  0  0
    1.5980    0.4600   -0.8220 P   0  0  0  0  0  0  0  0  0  0  0  0
    1.5000    0.5080   -2.5640 O   0  0  0  0  0  0  0  0  0  0  0  0
    2.8650   -0.6920   -0.4240 O   0  0  0  0  0  0  0  0  0  0  0  0
    3.7730   -0.0270    0.2490 O   0  0  0  0  0  0  0  0  0  0  0  0
  1  2  1  0
  2  3  1  0
  3  4  1  0
  4  5  1  0
  5  6  1  0
  5  7  1  0
  7  8  1  0
M  END
