
     RDKit          3D

  8  8  0  0  0  0  0  0  0  0999 V2000
    2.4580    0.3880   -0.1340 C   0  0  0  0  0  0  0  0  0  0  0  0
    1.8540    0.1670    1.0740 O   0  0  0  0  0  0  0  0  0  0  0  0
    0.5700    0.2050    1.0750 O   0  0  0  0  0  0  0  0  0  0  0  0
   -0.1310   -0.7110   -0.2520 P   0  0  0  0  0  0  0  0  0  0  0  0
   -1.2190    0.4380   -1.0440 O   0  0  0  0  0  0  0  0  0  0  0  0
   -2.3380    0.1510   -0.2230 C   0  0  0  0  0  0  0  0  0  0  0  0
   -2.4580   -1.2410   -0.2370 O   0  0  0  0  0  0  0  0  0  0  0  0
   -1.4180   -1.7160    0.4120 O   0  0  0  0  0  0  0  0  0  0  0  0
  1  2  1  0
  2  3  1  0
  3  4  1  0
  4  5  1  0
  4  8  1  0
  5  6  1  0
  6  7  1  0
  7  8  1  0
M  END
