
     RDKit          3D

 13 12  0  0  0  0  0  0  0  0999 V2000
    4.4330    1.1690   -0.1040 C   0  0  0  0  0  0  0  0  0  0  0  0
    3.2890    0.6180    0.6150 N   0  0  0  0  0  0  0  0  0  0  0  0
    2.1900    0.0090   -0.0280 C   0  0  0  0  0  0  0  0  0  0  0  0
    2.2020   -0.0580   -1.2730 O   0  0  0  0  0  0  0  0  0  0  0  0
    1.0580   -0.5340    0.7280 C   0  0  0  0  0  0  0  0  0  0  0  0
   -0.0090   -1.1450   -0.1830 C   0  0  2  0  0  0  0  0  0  0  0  0
    0.5280   -2.2640   -1.0050 C   0  0  0  0  0  0  0  0  0  0  0  0
   -0.6430   -0.1600   -0.8210 O   0  0  0  0  0  0  0  0  0  0  0  0
   -2.2040    0.1540   -0.4720 P   0  0  0  0  0  0  0  0  0  0  0  0
   -1.9690    1.6540   -0.3250 O   0  0  0  0  0  0  0  0  0  0  0  0
   -3.3060    0.4560   -1.6920 O   0  0  0  0  0  0  0  0  0  0  0  0
   -2.7430   -0.0330    1.0750 O   0  0  0  0  0  0  0  0  0  0  0  0
   -3.7300    0.8530    1.4190 C   0  0  0  0  0  0  0  0  0  0  0  0
  1  2  1  0
  2  3  1  0
  3  4  2  0
  3  5  1  0
  5  6  1  0
  6  7  1  6
  6  8  1  0
  8  9  1  0
  9 10  1  0
  9 11  1  0
  9 12  1  0
 12 13  1  0
M  END
