
     RDKit          3D

  8  7  0  0  0  0  0  0  0  0999 V2000
   -2.3060    0.7970    0.0350 C   0  0  0  0  0  0  0  0  0  0  0  0
   -1.7790   -0.6460   -0.0830 C   0  0  0  0  0  0  0  0  0  0  0  0
   -0.5670   -0.6740    0.5630 O   0  0  0  0  0  0  0  0  0  0  0  0
    0.2880    0.0140   -0.1200 O   0  0  0  0  0  0  0  0  0  0  0  0
    1.8660   -0.3380    0.1070 P   0  0  0  0  0  0  0  0  0  0  0  0
    2.4630   -1.1010    1.4560 O   0  0  0  0  0  0  0  0  0  0  0  0
    2.9430   -0.0180   -1.1940 O   0  0  0  0  0  0  0  0  0  0  0  0
    3.2180    1.2430   -1.3560 O   0  0  0  0  0  0  0  0  0  0  0  0
  1  2  1  0
  2  3  1  0
  3  4  1  0
  4  5  1  0
  5  6  1  0
  5  7  1  0
  7  8  1  0
M  END
