
     RDKit          3D

 10  9  0  0  0  0  0  0  0  0999 V2000
   -3.2450    1.0040    0.3480 C   0  0  0  0  0  0  0  0  0  0  0  0
   -2.2380   -0.1530    0.3920 C   0  0  0  0  0  0  0  0  0  0  0  0
   -0.8940    0.4690    0.1300 C   0  0  0  0  0  0  0  0  0  0  0  0
    0.2300   -0.5060    0.1320 C   0  0  1  0  0  0  0  0  0  0  0  0
    0.3660   -1.2320    1.4660 C   0  0  0  0  0  0  0  0  0  0  0  0
    0.0690   -1.5690   -0.9290 C   0  0  0  0  0  0  0  0  0  0  0  0
    1.4980    0.2280   -0.0810 C   0  0  0  0  0  0  0  0  0  0  0  0
    2.7560   -0.4560   -0.1260 N   0  0  0  0  0  0  0  0  0  0  0  0
    1.5140    1.5070   -0.2330 N   0  0  0  0  0  0  0  0  0  0  0  0
    2.6880    2.2290   -0.4350 N   0  0  0  0  0  0  0  0  0  0  0  0
  1  2  1  0
  2  3  1  0
  3  4  1  0
  4  5  1  1
  4  6  1  0
  4  7  1  0
  7  8  1  0
  7  9  2  3
  9 10  1  0
M  END
