
     RDKit          3D

 10  9  0  0  0  0  0  0  0  0999 V2000
   -2.9940   -0.7400    0.1400 C   0  0  0  0  0  0  0  0  0  0  0  0
   -1.7740    0.0940   -0.1210 C   0  0  0  0  0  0  0  0  0  0  0  0
   -1.9690    1.3790   -0.6940 N   0  0  0  0  0  0  0  0  0  0  0  0
   -0.5570   -0.3770    0.1830 C   0  0  0  0  0  0  0  0  0  0  0  0
   -0.4600   -1.7260    0.7760 C   0  0  0  0  0  0  0  0  0  0  0  0
    0.6300    0.4240   -0.0680 C   0  0  0  0  0  0  0  0  0  0  0  0
    0.3910    1.7280   -0.6530 N   0  0  0  0  0  0  0  0  0  0  0  0
    1.8690    0.0760    0.1840 C   0  0  0  0  0  0  0  0  0  0  0  0
    2.9890    0.9990   -0.1260 C   0  0  0  0  0  0  0  0  0  0  0  0
    2.1870   -1.1620    0.7460 N   0  0  0  0  0  0  0  0  0  0  0  0
  1  2  1  0
  2  3  1  0
  2  4  2  3
  4  5  1  0
  4  6  1  0
  6  7  1  0
  6  8  2  3
  8  9  1  0
  8 10  1  0
M  END
