
     RDKit          3D

  9  8  0  0  0  0  0  0  0  0999 V2000
   -3.5790    0.7680   -0.2030 C   0  0  0  0  0  0  0  0  0  0  0  0
   -3.0060   -0.6140   -0.4090 C   0  0  0  0  0  0  0  0  0  0  0  0
   -1.7080   -0.7860    0.3550 C   0  0  0  0  0  0  0  0  0  0  0  0
   -0.6700    0.2180   -0.1020 C   0  0  0  0  0  0  0  0  0  0  0  0
    0.5680    0.0510    0.6300 N   0  0  0  0  0  0  0  0  0  0  0  0
    1.6860    0.8280    0.4220 N   0  0  0  0  0  0  0  0  0  0  0  0
    2.8490    0.4220    0.1110 C   0  0  0  0  0  0  0  0  0  0  0  0
    3.2240   -1.0020   -0.0900 C   0  0  0  0  0  0  0  0  0  0  0  0
    3.8750    1.4110   -0.0570 N   0  0  0  0  0  0  0  0  0  0  0  0
  1  2  1  0
  2  3  1  0
  3  4  1  0
  4  5  1  0
  5  6  1  0
  6  7  2  3
  7  8  1  0
  7  9  1  0
M  END
