
     RDKit          3D

  9  8  0  0  0  0  0  0  0  0999 V2000
   -1.9840    1.3500    0.5080 C   0  0  0  0  0  0  0  0  0  0  0  0
   -0.8610    1.0770   -0.1920 C   0  0  0  0  0  0  0  0  0  0  0  0
   -0.6740    1.8970   -1.3970 C   0  0  0  0  0  0  0  0  0  0  0  0
    0.0340    0.0590    0.2540 C   0  0  0  0  0  0  0  0  0  0  0  0
   -0.3860   -0.6120    1.4840 N   0  0  0  0  0  0  0  0  0  0  0  0
   -0.9150   -1.9340    1.5110 C   0  0  0  0  0  0  0  0  0  0  0  0
    1.1320   -0.3120   -0.2960 C   0  0  0  0  0  0  0  0  0  0  0  0
    1.7480    0.2020   -1.5080 C   0  0  0  0  0  0  0  0  0  0  0  0
    1.8680   -1.3940    0.3730 N   0  0  0  0  0  0  0  0  0  0  0  0
  1  2  2  0
  2  3  1  0
  2  4  1  0
  4  5  1  0
  4  7  2  3
  5  6  1  0
  7  8  1  0
  7  9  1  0
M  END
