
     RDKit          3D

 10  9  0  0  0  0  0  0  0  0999 V2000
    2.9250   -1.0620    1.0450 C   0  0  0  0  0  0  0  0  0  0  0  0
    2.2660   -0.6300   -0.2470 C   0  0  0  0  0  0  0  0  0  0  0  0
    1.4690    0.6000   -0.0820 C   0  0  0  0  0  0  0  0  0  0  0  0
    0.1810    0.5870   -0.3360 C   0  0  0  0  0  0  0  0  0  0  0  0
   -0.6590    1.8040   -0.1820 C   0  0  0  0  0  0  0  0  0  0  0  0
   -1.3140    2.2010   -1.4850 C   0  0  0  0  0  0  0  0  0  0  0  0
   -0.4250   -0.6070   -0.7660 N   0  0  0  0  0  0  0  0  0  0  0  0
   -1.4490   -1.1410   -0.1920 C   0  0  0  0  0  0  0  0  0  0  0  0
   -2.0640   -0.5600    0.9450 N   0  0  0  0  0  0  0  0  0  0  0  0
   -2.0010   -2.3520   -0.6920 N   0  0  0  0  0  0  0  0  0  0  0  0
  1  2  1  0
  2  3  1  0
  3  4  2  3
  4  5  1  0
  4  7  1  0
  5  6  1  0
  7  8  2  3
  8  9  1  0
  8 10  1  0
M  END
