
     RDKit          3D

 28 31  0  0  0  0  0  0  0  0999 V2000
    7.0580    2.3820   -1.4630 C   0  0  0  0  0  0  0  0  0  0  0  0
    6.0350    1.5400   -0.8460 N   0  0  0  0  0  0  0  0  0  0  0  0
    6.1880    0.1570   -0.8130 C   0  0  0  0  0  0  0  0  0  0  0  0
    7.2710   -0.3070   -1.3430 O   0  0  0  0  0  0  0  0  0  0  0  0
    5.2980   -0.8230   -0.2630 C   0  0  0  0  0  0  0  0  0  0  0  0
    5.8230   -2.0790    0.1120 C   0  0  0  0  0  0  0  0  0  0  0  0
    5.0540   -3.0490    0.6800 C   0  0  0  0  0  0  0  0  0  0  0  0
    3.7240   -2.8310    0.9080 C   0  0  0  0  0  0  0  0  0  0  0  0
    3.1940   -1.6170    0.5490 C   0  0  0  0  0  0  0  0  0  0  0  0
    3.9770   -0.6090   -0.0370 C   0  0  0  0  0  0  0  0  0  0  0  0
    3.1850    0.9040   -0.4980 S   0  0  0  0  0  0  0  0  0  0  0  0
    1.4510    0.8320   -0.0990 C   0  0  0  0  0  0  0  0  0  0  0  0
    0.5520    0.3640   -1.0430 C   0  0  0  0  0  0  0  0  0  0  0  0
   -0.8120    0.2950   -0.7480 C   0  0  0  0  0  0  0  0  0  0  0  0
   -1.2460    0.6910    0.4740 C   0  0  0  0  0  0  0  0  0  0  0  0
   -2.5140    0.7320    1.0360 C   0  0  0  0  0  0  0  0  0  0  0  0
   -3.7700    0.3300    0.3880 C   0  0  0  0  0  0  0  0  0  0  0  0
   -4.9090    0.4030    1.0190 C   0  0  0  0  0  0  0  0  0  0  0  0
   -6.2130    0.0440    0.5070 C   0  0  0  0  0  0  0  0  0  0  0  0
   -6.3670   -0.4210   -0.7640 C   0  0  0  0  0  0  0  0  0  0  0  0
   -7.6010   -0.7790   -1.2930 C   0  0  0  0  0  0  0  0  0  0  0  0
   -8.7030   -0.6540   -0.4870 C   0  0  0  0  0  0  0  0  0  0  0  0
   -8.5500   -0.1870    0.7900 C   0  0  0  0  0  0  0  0  0  0  0  0
   -7.3300    0.1500    1.2630 N   0  0  0  0  0  0  0  0  0  0  0  0
   -2.3340    1.2150    2.2780 N   0  0  0  0  0  0  0  0  0  0  0  0
   -1.0440    1.4620    2.4850 N   0  0  0  0  0  0  0  0  0  0  0  0
   -0.3290    1.1570    1.4050 C   0  0  0  0  0  0  0  0  0  0  0  0
    1.0260    1.2400    1.1520 C   0  0  0  0  0  0  0  0  0  0  0  0
  1  2  1  0
  2  3  1  0
  3  4  2  0
  3  5  1  0
  5  6  2  0
  5 10  1  0
  6  7  1  0
  7  8  2  0
  8  9  1  0
  9 10  2  0
 10 11  1  0
 11 12  1  0
 12 13  1  0
 12 28  2  0
 13 14  2  0
 14 15  1  0
 15 16  2  0
 15 27  1  0
 16 17  1  0
 16 25  1  0
 17 18  2  3
 18 19  1  0
 19 20  2  0
 19 24  1  0
 20 21  1  0
 21 22  2  0
 22 23  1  0
 23 24  2  0
 25 26  1  0
 26 27  2  0
 27 28  1  0
M  END
