
     RDKit          3D

  9  8  0  0  0  0  0  0  0  0999 V2000
    3.1290    0.5270   -0.8580 C   0  0  0  0  0  0  0  0  0  0  0  0
    2.3550   -0.0200    0.0530 C   0  0  0  0  0  0  0  0  0  0  0  0
    2.9170   -0.2410    1.3380 N   0  0  0  0  0  0  0  0  0  0  0  0
    0.9480   -0.3460   -0.3050 C   0  0  0  0  0  0  0  0  0  0  0  0
    0.0110    0.3380    0.5460 N   0  0  0  0  0  0  0  0  0  0  0  0
   -1.3240    0.1280    0.0750 C   0  0  1  0  0  0  0  0  0  0  0  0
   -1.4360    0.7900   -1.2870 C   0  0  0  0  0  0  0  0  0  0  0  0
   -1.5730   -1.3760   -0.0570 C   0  0  0  0  0  0  0  0  0  0  0  0
   -2.3870    0.6900    0.9640 C   0  0  0  0  0  0  0  0  0  0  0  0
  1  2  2  0
  2  3  1  0
  2  4  1  0
  4  5  1  0
  5  6  1  0
  6  7  1  6
  6  8  1  0
  6  9  1  0
M  END
