
     RDKit          3D

  7  6  0  0  0  0  0  0  0  0999 V2000
    2.1100   -0.1620   -0.6390 N   0  0  0  0  0  0  0  0  0  0  0  0
    0.8510   -0.7820   -0.8590 C   0  0  0  0  0  0  0  0  0  0  0  0
    0.7800   -1.6520   -1.7050 O   0  0  0  0  0  0  0  0  0  0  0  0
   -0.3280   -0.3670   -0.0720 C   0  0  1  0  0  0  0  0  0  0  0  0
    0.0480    0.6370    0.8110 O   0  0  0  0  0  0  0  0  0  0  0  0
   -1.4400    0.1580   -0.9550 C   0  0  0  0  0  0  0  0  0  0  0  0
   -2.5460    0.5370   -0.1980 O   0  0  0  0  0  0  0  0  0  0  0  0
  1  2  1  0
  2  3  2  0
  2  4  1  0
  4  5  1  1
  4  6  1  0
  6  7  1  0
M  CHG  1   1   1
M  END
