
     RDKit          3D

  7  6  0  0  0  0  0  0  0  0999 V2000
   -1.9480    1.0110   -0.0130 C   0  0  0  0  0  0  0  0  0  0  0  0
   -0.9030   -0.0470   -0.3590 C   0  0  2  0  0  0  0  0  0  0  0  0
   -1.4620   -1.3230   -0.2920 O   0  0  0  0  0  0  0  0  0  0  0  0
    0.1860    0.1220    0.5520 N   0  0  0  0  0  0  0  0  0  0  0  0
    1.3540   -0.6270    0.2140 C   0  0  2  0  0  0  0  0  0  0  0  0
    2.3680   -0.4230    1.1310 O   0  0  0  0  0  0  0  0  0  0  0  0
    1.7380   -0.2080   -1.0740 O   0  0  0  0  0  0  0  0  0  0  0  0
  2  1  1  1
  2  3  1  0
  2  4  1  0
  4  5  1  0
  5  6  1  1
  5  7  1  0
M  END
