
     RDKit          3D

 19 21  0  0  0  0  0  0  0  0999 V2000
   -2.8290   -2.8390    0.6160 C   0  0  0  0  0  0  0  0  0  0  0  0
   -1.9310   -1.7600    0.7240 O   0  0  0  0  0  0  0  0  0  0  0  0
   -2.2690   -0.5240    0.2320 C   0  0  0  0  0  0  0  0  0  0  0  0
   -3.5010   -0.3640   -0.3570 C   0  0  0  0  0  0  0  0  0  0  0  0
   -3.8690    0.8760   -0.8700 C   0  0  0  0  0  0  0  0  0  0  0  0
   -2.9890    1.9470   -0.7840 C   0  0  0  0  0  0  0  0  0  0  0  0
   -1.7500    1.7490   -0.1800 C   0  0  0  0  0  0  0  0  0  0  0  0
   -1.3520    0.5320    0.3390 C   0  0  0  0  0  0  0  0  0  0  0  0
   -0.0900    0.3780    1.0170 C   0  0  0  0  0  0  0  0  0  0  0  0
    0.0760    0.1270    2.3730 N   0  0  0  0  0  0  0  0  0  0  0  0
    1.3140   -0.0020    2.6290 O   0  0  0  0  0  0  0  0  0  0  0  0
    2.0760    0.1300    1.5690 C   0  0  0  0  0  0  0  0  0  0  0  0
    3.4030    0.0640    1.3570 N   0  0  0  0  0  0  0  0  0  0  0  0
    3.8450    0.2510    0.0710 C   0  0  0  0  0  0  0  0  0  0  0  0
    5.2950    0.1530   -0.1550 C   0  0  0  0  0  0  0  0  0  0  0  0
    3.0090    0.4910   -0.9570 N   0  0  0  0  0  0  0  0  0  0  0  0
    1.6890    0.5520   -0.7320 C   0  0  0  0  0  0  0  0  0  0  0  0
    0.8850    0.7760   -1.6880 O   0  0  0  0  0  0  0  0  0  0  0  0
    1.1990    0.3730    0.5330 C   0  0  0  0  0  0  0  0  0  0  0  0
  1  2  1  0
  2  3  1  0
  3  4  2  0
  3  8  1  0
  4  5  1  0
  5  6  2  0
  6  7  1  0
  7  8  2  0
  8  9  1  0
  9 10  2  0
  9 19  1  0
 10 11  1  0
 11 12  1  0
 12 13  1  0
 12 19  2  0
 13 14  2  0
 14 15  1  0
 14 16  1  0
 16 17  1  0
 17 18  2  0
 17 19  1  0
M  END
