
     RDKit          3D

  7  6  0  0  0  0  0  0  0  0999 V2000
   -1.1290   -1.1150   -0.5160 C   0  0  0  0  0  0  0  0  0  0  0  0
   -0.7900    0.2910   -0.1480 C   0  0  1  0  0  0  0  0  0  0  0  0
   -1.5570    1.1490   -0.9380 O   0  0  0  0  0  0  0  0  0  0  0  0
   -1.1660    0.5370    1.1760 O   0  0  0  0  0  0  0  0  0  0  0  0
    0.5750    0.6590   -0.3420 N   0  0  0  0  0  0  0  0  0  0  0  0
    1.5350   -0.0500    0.4400 C   0  0  0  0  0  0  0  0  0  0  0  0
    2.8020    0.4340    0.0900 O   0  0  0  0  0  0  0  0  0  0  0  0
  2  1  1  6
  2  3  1  0
  2  4  1  0
  2  5  1  0
  5  6  1  0
  6  7  1  0
M  END
