
     RDKit          3D

  7  6  0  0  0  0  0  0  0  0999 V2000
    2.3050    0.0410   -0.6530 N   0  0  0  0  0  0  0  0  0  0  0  0
    1.1140   -0.4970   -0.0230 C   0  0  0  0  0  0  0  0  0  0  0  0
   -0.0560    0.3740   -0.3630 C   0  0  2  0  0  0  0  0  0  0  0  0
    0.1570    1.6690    0.0930 O   0  0  0  0  0  0  0  0  0  0  0  0
   -1.3190   -0.1690    0.2460 C   0  0  2  0  0  0  0  0  0  0  0  0
   -1.5220   -1.4820   -0.2260 O   0  0  0  0  0  0  0  0  0  0  0  0
   -2.4050    0.5980   -0.1790 O   0  0  0  0  0  0  0  0  0  0  0  0
  1  2  1  0
  2  3  1  0
  3  4  1  1
  3  5  1  0
  5  6  1  6
  5  7  1  0
M  END
