
     RDKit          3D

  7  6  0  0  0  0  0  0  0  0999 V2000
   -2.3710    0.8930    0.3450 N   0  0  0  0  0  0  0  0  0  0  0  0
   -1.5330    0.3640   -0.5810 O   0  0  0  0  0  0  0  0  0  0  0  0
   -0.3540    0.0640    0.0740 C   0  0  0  0  0  0  0  0  0  0  0  0
    0.6770   -0.5220   -0.7840 C   0  0  0  0  0  0  0  0  0  0  0  0
    0.4840   -0.7130   -1.9510 O   0  0  0  0  0  0  0  0  0  0  0  0
    1.9870   -0.8830   -0.1780 C   0  0  0  0  0  0  0  0  0  0  0  0
    2.0410   -0.5980    1.1730 O   0  0  0  0  0  0  0  0  0  0  0  0
  1  2  1  0
  2  3  1  0
  3  4  1  0
  4  5  2  0
  4  6  1  0
  6  7  1  0
M  CHG  1   1   1
M  END
