
     RDKit          3D

  7  6  0  0  0  0  0  0  0  0999 V2000
   -2.2390   -0.5940    0.2850 N   0  0  0  0  0  0  0  0  0  0  0  0
   -1.5540    0.3270   -0.5430 C   0  0  0  0  0  0  0  0  0  0  0  0
   -2.2250    0.9850   -1.3240 O   0  0  0  0  0  0  0  0  0  0  0  0
   -0.0990    0.5530   -0.5360 C   0  0  0  0  0  0  0  0  0  0  0  0
    0.5610   -0.2440    0.3850 O   0  0  0  0  0  0  0  0  0  0  0  0
    1.9320    0.0580    0.3010 C   0  0  0  0  0  0  0  0  0  0  0  0
    2.6580   -0.7100    1.2030 O   0  0  0  0  0  0  0  0  0  0  0  0
  1  2  1  0
  2  3  2  0
  2  4  1  0
  4  5  1  0
  5  6  1  0
  6  7  1  0
M  CHG  1   1   1
M  END
