
     RDKit          3D

  7  6  0  0  0  0  0  0  0  0999 V2000
    2.4060    0.0590   -0.0880 C   0  0  0  0  0  0  0  0  0  0  0  0
    0.9770   -0.1310   -0.4600 C   0  0  0  0  0  0  0  0  0  0  0  0
    0.0530    0.3410    0.5510 N   0  0  0  0  0  0  0  0  0  0  0  0
   -1.3050    0.1100    0.0930 C   0  0  2  0  0  0  0  0  0  0  0  0
   -1.5540   -1.2450   -0.1370 O   0  0  0  0  0  0  0  0  0  0  0  0
   -1.4480    0.8530   -1.1000 O   0  0  0  0  0  0  0  0  0  0  0  0
   -2.2480    0.5830    0.9770 O   0  0  0  0  0  0  0  0  0  0  0  0
  1  2  1  0
  2  3  1  0
  3  4  1  0
  4  5  1  6
  4  6  1  0
  4  7  1  0
M  END
