
     RDKit          3D

 23 25  0  0  0  0  0  0  0  0999 V2000
   -5.5480    1.4660    0.8220 C   0  0  0  0  0  0  0  0  0  0  0  0
   -4.1530    1.0580    0.4240 C   0  0  0  0  0  0  0  0  0  0  0  0
   -3.0720    1.6700    1.0560 C   0  0  0  0  0  0  0  0  0  0  0  0
   -1.7730    1.3450    0.7400 C   0  0  0  0  0  0  0  0  0  0  0  0
   -0.6370    2.0230    1.4290 C   0  0  0  0  0  0  0  0  0  0  0  0
   -0.3050    1.2610    2.6820 C   0  0  0  0  0  0  0  0  0  0  0  0
    0.1020   -0.1340    2.4080 C   0  0  0  0  0  0  0  0  0  0  0  0
    1.3560   -0.1750    1.5920 C   0  0  0  0  0  0  0  0  0  0  0  0
    1.9740    0.8770    1.3000 O   0  0  0  0  0  0  0  0  0  0  0  0
    1.7800   -1.4690    1.1850 N   0  0  0  0  0  0  0  0  0  0  0  0
    2.9650   -1.6400    0.3910 C   0  0  0  0  0  0  0  0  0  0  0  0
    2.9610   -1.0090   -0.9540 C   0  0  2  0  0  0  0  0  0  0  0  0
    4.2120   -1.4700   -1.6880 C   0  0  0  0  0  0  0  0  0  0  0  0
    5.4540   -0.8450   -1.0960 C   0  0  0  0  0  0  0  0  0  0  0  0
    5.1650    0.5770   -0.6730 C   0  0  0  0  0  0  0  0  0  0  0  0
    3.9310    1.0300   -1.4270 C   0  0  0  0  0  0  0  0  0  0  0  0
    2.8140    0.3410   -1.0240 O   0  0  0  0  0  0  0  0  0  0  0  0
   -1.5730    0.3920   -0.2250 C   0  0  0  0  0  0  0  0  0  0  0  0
   -2.6360   -0.2390   -0.8760 C   0  0  0  0  0  0  0  0  0  0  0  0
   -3.9240    0.1030   -0.5420 C   0  0  0  0  0  0  0  0  0  0  0  0
   -4.8570   -0.7060   -1.3720 C   0  0  0  0  0  0  0  0  0  0  0  0
   -4.0110   -0.9730   -2.5990 C   0  0  0  0  0  0  0  0  0  0  0  0
   -2.6600   -1.2960   -1.9480 C   0  0  0  0  0  0  0  0  0  0  0  0
  1  2  1  0
  2  3  2  0
  2 20  1  0
  3  4  1  0
  4  5  1  0
  4 18  2  0
  5  6  1  0
  6  7  1  0
  7  8  1  0
  8  9  2  0
  8 10  1  0
 10 11  1  0
 12 11  1  1
 12 13  1  0
 12 17  1  0
 13 14  1  0
 14 15  1  0
 15 16  1  0
 16 17  1  0
 18 19  1  0
 19 20  2  0
 19 23  1  0
 20 21  1  0
 21 22  1  0
 22 23  1  0
M  END
