
     RDKit          3D

 23 25  0  0  0  0  0  0  0  0999 V2000
   -6.9700   -0.6270   -0.2880 C   0  0  0  0  0  0  0  0  0  0  0  0
   -6.4010   -0.1360    1.0060 C   0  0  0  0  0  0  0  0  0  0  0  0
   -5.2080    0.6350    0.8720 N   0  0  0  0  0  0  0  0  0  0  0  0
   -4.0680   -0.1310    0.4250 C   0  0  0  0  0  0  0  0  0  0  0  0
   -2.8300    0.7330    0.3020 C   0  0  1  0  0  0  0  0  0  0  0  0
   -3.0290    1.8520   -0.6900 C   0  0  0  0  0  0  0  0  0  0  0  0
   -2.6020    1.3360    1.6680 C   0  0  0  0  0  0  0  0  0  0  0  0
   -1.7030   -0.1260   -0.1600 C   0  0  2  0  0  0  0  0  0  0  0  0
   -2.0580   -0.6710   -1.3950 O   0  0  0  0  0  0  0  0  0  0  0  0
   -1.4300   -1.2640    0.7870 C   0  0  0  0  0  0  0  0  0  0  0  0
    0.0610   -1.2200    1.0720 C   0  0  0  0  0  0  0  0  0  0  0  0
    0.6490   -0.4450   -0.1170 C   0  0  2  0  0  0  0  0  0  0  0  0
    1.8450    0.1020    0.3000 O   0  0  0  0  0  0  0  0  0  0  0  0
    3.0940   -0.1410   -0.2130 C   0  0  0  0  0  0  0  0  0  0  0  0
    3.2900   -1.0220   -1.2430 C   0  0  0  0  0  0  0  0  0  0  0  0
    4.5930   -1.2260   -1.7220 C   0  0  0  0  0  0  0  0  0  0  0  0
    5.6490   -0.5490   -1.1600 C   0  0  0  0  0  0  0  0  0  0  0  0
    5.4530    0.3410   -0.1190 C   0  0  0  0  0  0  0  0  0  0  0  0
    4.1880    0.5500    0.3580 C   0  0  0  0  0  0  0  0  0  0  0  0
    6.7580    0.9330    0.2920 C   0  0  0  0  0  0  0  0  0  0  0  0
    7.7250   -0.1330   -0.1720 C   0  0  0  0  0  0  0  0  0  0  0  0
    7.0990   -0.5930   -1.4810 C   0  0  0  0  0  0  0  0  0  0  0  0
   -0.4190    0.6230   -0.3850 C   0  0  0  0  0  0  0  0  0  0  0  0
  1  2  1  0
  2  3  1  0
  3  4  1  0
  4  5  1  0
  5  6  1  6
  5  7  1  0
  5  8  1  0
  8  9  1  6
  8 10  1  0
  8 23  1  0
 10 11  1  0
 11 12  1  0
 12 13  1  1
 12 23  1  0
 13 14  1  0
 14 15  2  0
 14 19  1  0
 15 16  1  0
 16 17  2  0
 17 18  1  0
 17 22  1  0
 18 19  2  0
 18 20  1  0
 20 21  1  0
 21 22  1  0
M  END
