
     RDKit          3D

 23 24  0  0  0  0  0  0  0  0999 V2000
   -3.4750    1.1450    1.5380 C   0  0  0  0  0  0  0  0  0  0  0  0
   -2.6690    1.8540    0.8550 C   0  0  0  0  0  0  0  0  0  0  0  0
   -3.0100    3.2520    0.8650 O   0  0  0  0  0  0  0  0  0  0  0  0
   -1.4710    1.4510    0.0620 C   0  0  0  0  0  0  0  0  0  0  0  0
   -0.8160    2.5330   -0.3640 C   0  0  0  0  0  0  0  0  0  0  0  0
   -1.0940    3.9290   -0.1520 C   0  0  0  0  0  0  0  0  0  0  0  0
   -0.9180    0.1370    0.2340 C   0  0  0  0  0  0  0  0  0  0  0  0
    0.4440   -0.2320    0.3720 N   0  0  0  0  0  0  0  0  0  0  0  0
    1.6040    0.5300    0.4450 C   0  0  0  0  0  0  0  0  0  0  0  0
    1.5860    1.7490    0.4260 O   0  0  0  0  0  0  0  0  0  0  0  0
    2.9560   -0.1190    0.5510 C   0  0  2  0  0  0  0  0  0  0  0  0
    4.0330    0.9090    0.6130 C   0  0  0  0  0  0  0  0  0  0  0  0
    5.3670    0.1800    0.4930 C   0  0  0  0  0  0  0  0  0  0  0  0
    5.4850   -0.2960   -0.9360 C   0  0  0  0  0  0  0  0  0  0  0  0
    4.1270   -0.4580   -1.5900 C   0  0  0  0  0  0  0  0  0  0  0  0
    3.2000   -1.0820   -0.5670 C   0  0  0  0  0  0  0  0  0  0  0  0
   -1.7740   -0.9130    0.2660 C   0  0  0  0  0  0  0  0  0  0  0  0
   -1.3660   -2.2690    0.4970 C   0  0  0  0  0  0  0  0  0  0  0  0
   -2.0820   -3.2930    0.1210 C   0  0  0  0  0  0  0  0  0  0  0  0
   -3.3710   -3.1870   -0.5710 C   0  0  0  0  0  0  0  0  0  0  0  0
   -3.7710   -1.7870   -0.8000 C   0  0  0  0  0  0  0  0  0  0  0  0
   -5.0960   -1.6150   -1.5120 C   0  0  0  0  0  0  0  0  0  0  0  0
   -3.0780   -0.7430   -0.4390 C   0  0  0  0  0  0  0  0  0  0  0  0
  1  2  2  0
  2  3  1  0
  2  4  1  0
  4  5  2  3
  4  7  1  0
  5  6  1  0
  7  8  1  0
  7 17  2  3
  8  9  1  0
  9 10  2  0
 11  9  1  6
 11 12  1  0
 11 16  1  0
 12 13  1  0
 13 14  1  0
 14 15  1  0
 15 16  1  0
 17 18  1  0
 17 23  1  0
 18 19  2  0
 19 20  1  0
 20 21  1  0
 21 22  1  0
 21 23  2  0
M  END
