
     RDKit          3D

 23 25  0  0  0  0  0  0  0  0999 V2000
    9.0000   -0.0570    0.1430 C   0  0  0  0  0  0  0  0  0  0  0  0
    7.5500    0.3140    0.1830 C   0  0  0  0  0  0  0  0  0  0  0  0
    6.7150   -0.7760   -0.1930 O   0  0  0  0  0  0  0  0  0  0  0  0
    5.3370   -0.6190   -0.2150 C   0  0  0  0  0  0  0  0  0  0  0  0
    4.5810   -1.7100   -0.5880 C   0  0  0  0  0  0  0  0  0  0  0  0
    3.2160   -1.5770   -0.6170 C   0  0  0  0  0  0  0  0  0  0  0  0
    2.5570   -0.3930   -0.2860 C   0  0  0  0  0  0  0  0  0  0  0  0
    1.1070   -0.3850   -0.3580 C   0  0  0  0  0  0  0  0  0  0  0  0
    0.3130    0.5990   -0.0950 C   0  0  0  0  0  0  0  0  0  0  0  0
   -1.1350    0.4760   -0.2070 C   0  0  0  0  0  0  0  0  0  0  0  0
   -1.7790   -0.6670   -0.5900 C   0  0  0  0  0  0  0  0  0  0  0  0
   -3.1710   -0.7740   -0.6940 C   0  0  0  0  0  0  0  0  0  0  0  0
   -3.9270    0.3270   -0.3940 C   0  0  0  0  0  0  0  0  0  0  0  0
   -5.3960    0.3240   -0.4690 C   0  0  1  0  0  0  0  0  0  0  0  0
   -5.9740   -1.0840   -0.5000 C   0  0  0  0  0  0  0  0  0  0  0  0
   -7.4530   -0.7690   -0.2340 C   0  0  0  0  0  0  0  0  0  0  0  0
   -7.2920    0.2710    0.8800 C   0  0  0  0  0  0  0  0  0  0  0  0
   -6.0460    0.9330    0.6480 N   0  0  0  0  0  0  0  0  0  0  0  0
   -3.3150    1.5130    0.0010 C   0  0  0  0  0  0  0  0  0  0  0  0
   -1.9540    1.5770    0.0900 C   0  0  0  0  0  0  0  0  0  0  0  0
    3.3090    0.6720    0.0790 C   0  0  0  0  0  0  0  0  0  0  0  0
    2.7540    1.8850    0.4230 O   0  0  0  0  0  0  0  0  0  0  0  0
    4.7080    0.5590    0.1150 C   0  0  0  0  0  0  0  0  0  0  0  0
  1  2  1  0
  2  3  1  0
  3  4  1  0
  4  5  2  0
  4 23  1  0
  5  6  1  0
  6  7  2  0
  7  8  1  0
  7 21  1  0
  8  9  2  3
  9 10  1  0
 10 11  2  0
 10 20  1  0
 11 12  1  0
 12 13  2  0
 14 13  1  1
 13 19  1  0
 14 15  1  0
 14 18  1  0
 15 16  1  0
 16 17  1  0
 17 18  1  0
 19 20  2  0
 21 22  1  0
 21 23  2  0
M  END
