
     RDKit          3D

 23 24  0  0  0  0  0  0  0  0999 V2000
   -5.8170    1.5750   -0.0650 C   0  0  0  0  0  0  0  0  0  0  0  0
   -4.7920    0.7970    0.1860 C   0  0  0  0  0  0  0  0  0  0  0  0
   -4.8180   -0.6880    0.3350 C   0  0  0  0  0  0  0  0  0  0  0  0
   -5.9010   -1.4010    0.1940 C   0  0  0  0  0  0  0  0  0  0  0  0
   -3.4570   -1.0900    0.6100 C   0  0  0  0  0  0  0  0  0  0  0  0
   -2.9540   -2.0070    1.3470 C   0  0  0  0  0  0  0  0  0  0  0  0
   -3.6130   -2.9630    2.1780 C   0  0  0  0  0  0  0  0  0  0  0  0
   -4.8320   -3.0950    2.3850 O   0  0  0  0  0  0  0  0  0  0  0  0
   -2.6170   -0.0490   -0.1260 C   0  0  2  0  0  0  0  0  0  0  0  0
   -1.2910    0.0390    0.3470 N   0  0  0  0  0  0  0  0  0  0  0  0
   -0.1270    0.0060   -0.5010 C   0  0  0  0  0  0  0  0  0  0  0  0
   -0.3040   -0.1070   -1.7350 O   0  0  0  0  0  0  0  0  0  0  0  0
    1.2510    0.1000    0.0260 C   0  0  0  0  0  0  0  0  0  0  0  0
    2.2140    0.0350   -1.1060 C   0  0  0  0  0  0  0  0  0  0  0  0
    3.6530    0.1220   -0.6870 C   0  0  1  0  0  0  0  0  0  0  0  0
    4.0510   -0.9880    0.2390 C   0  0  0  0  0  0  0  0  0  0  0  0
    5.5230   -1.2490    0.2730 C   0  0  0  0  0  0  0  0  0  0  0  0
    6.3360   -0.0970   -0.2730 C   0  0  0  0  0  0  0  0  0  0  0  0
    5.9510    0.2350   -1.6950 C   0  0  0  0  0  0  0  0  0  0  0  0
    4.4960    0.0190   -1.9470 C   0  0  0  0  0  0  0  0  0  0  0  0
   -3.3970    1.1720    0.3770 C   0  0  0  0  0  0  0  0  0  0  0  0
   -2.8580    2.2430    0.8670 C   0  0  0  0  0  0  0  0  0  0  0  0
   -3.7000    3.3610    1.3580 C   0  0  0  0  0  0  0  0  0  0  0  0
  1  2  2  0
  2  3  1  0
  2 21  1  0
  3  4  2  0
  3  5  1  0
  5  6  2  3
  5  9  1  0
  6  7  1  0
  7  8  2  0
  9 10  1  1
  9 21  1  0
 10 11  1  0
 11 12  2  0
 11 13  1  0
 13 14  1  0
 15 14  1  6
 15 16  1  0
 15 20  1  0
 16 17  1  0
 17 18  1  0
 18 19  1  0
 19 20  1  0
 21 22  2  3
 22 23  1  0
M  END
