
     RDKit          3D

 23 25  0  0  0  0  0  0  0  0999 V2000
    7.3920    1.1220    0.4180 C   0  0  0  0  0  0  0  0  0  0  0  0
    5.9360    0.7900    0.2350 C   0  0  0  0  0  0  0  0  0  0  0  0
    5.0770    1.7310   -0.2970 C   0  0  0  0  0  0  0  0  0  0  0  0
    3.7210    1.4320   -0.4680 C   0  0  0  0  0  0  0  0  0  0  0  0
    3.2090    0.2110   -0.1160 C   0  0  0  0  0  0  0  0  0  0  0  0
    1.8760   -0.0590   -0.2920 O   0  0  0  0  0  0  0  0  0  0  0  0
    1.0180    0.9100   -0.8390 C   0  0  0  0  0  0  0  0  0  0  0  0
   -0.4020    0.2490   -0.8600 C   0  0  1  0  0  0  0  0  0  0  0  0
   -0.3150   -0.8920   -1.6610 O   0  0  0  0  0  0  0  0  0  0  0  0
   -0.6230   -0.1990    0.5570 C   0  0  0  0  0  0  0  0  0  0  0  0
   -1.7480   -0.9880    0.7580 N   0  0  0  0  0  0  0  0  0  0  0  0
   -3.0160   -0.3970    0.6920 C   0  0  1  0  0  0  0  0  0  0  0  0
   -3.4640    0.2040   -0.5980 C   0  0  0  0  0  0  0  0  0  0  0  0
   -4.9630    0.1440   -0.4680 C   0  0  0  0  0  0  0  0  0  0  0  0
   -5.9340    0.8860   -1.0970 C   0  0  0  0  0  0  0  0  0  0  0  0
   -7.2870    0.6880   -0.8220 C   0  0  0  0  0  0  0  0  0  0  0  0
   -7.6600   -0.2650    0.0940 C   0  0  0  0  0  0  0  0  0  0  0  0
   -6.6610   -1.0100    0.7240 C   0  0  0  0  0  0  0  0  0  0  0  0
   -5.3130   -0.8050    0.4420 C   0  0  0  0  0  0  0  0  0  0  0  0
   -4.1090   -1.4540    0.9440 C   0  0  0  0  0  0  0  0  0  0  0  0
    4.0920   -0.7200    0.4170 C   0  0  0  0  0  0  0  0  0  0  0  0
    5.4280   -0.4310    0.5870 C   0  0  0  0  0  0  0  0  0  0  0  0
    6.3370   -1.4540    1.1610 C   0  0  0  0  0  0  0  0  0  0  0  0
  1  2  1  0
  2  3  2  0
  2 22  1  0
  3  4  1  0
  4  5  2  0
  5  6  1  0
  5 21  1  0
  6  7  1  0
  7  8  1  0
  8  9  1  6
  8 10  1  0
 10 11  1  0
 12 11  1  6
 12 13  1  0
 12 20  1  0
 13 14  1  0
 14 15  2  0
 14 19  1  0
 15 16  1  0
 16 17  2  0
 17 18  1  0
 18 19  2  0
 19 20  1  0
 21 22  2  0
 22 23  1  0
M  END
