
     RDKit          3D

 23 25  0  0  0  0  0  0  0  0999 V2000
   -3.0230   -4.4570    0.1910 C   0  0  0  0  0  0  0  0  0  0  0  0
   -2.0000   -3.5180    0.0860 O   0  0  0  0  0  0  0  0  0  0  0  0
   -2.1460   -2.8680   -1.1110 C   0  0  0  0  0  0  0  0  0  0  0  0
   -1.0760   -1.8080   -1.3430 C   0  0  0  0  0  0  0  0  0  0  0  0
   -1.1050   -0.7490   -0.2620 C   0  0  2  0  0  0  0  0  0  0  0  0
   -2.4030   -0.1390   -0.2910 N   0  0  0  0  0  0  0  0  0  0  0  0
   -2.9400    0.8420    0.5390 C   0  0  0  0  0  0  0  0  0  0  0  0
   -3.1760    2.1100    0.2560 C   0  0  0  0  0  0  0  0  0  0  0  0
   -3.7570    2.8060    1.4320 C   0  0  0  0  0  0  0  0  0  0  0  0
   -3.8290    1.7530    2.4490 C   0  0  0  0  0  0  0  0  0  0  0  0
   -3.3580    0.6460    1.9140 C   0  0  0  0  0  0  0  0  0  0  0  0
    0.0240    0.2080   -0.4900 C   0  0  1  0  0  0  0  0  0  0  0  0
    0.1110    1.2990    0.5230 C   0  0  0  0  0  0  0  0  0  0  0  0
    0.2210    2.6130   -0.2610 C   0  0  0  0  0  0  0  0  0  0  0  0
    1.5250    2.5890   -0.8740 O   0  0  0  0  0  0  0  0  0  0  0  0
    2.5880    1.7290   -0.6360 C   0  0  0  0  0  0  0  0  0  0  0  0
    3.8360    2.3560   -0.5720 C   0  0  0  0  0  0  0  0  0  0  0  0
    4.9660    1.5770   -0.3350 C   0  0  0  0  0  0  0  0  0  0  0  0
    4.9100    0.2140   -0.1610 C   0  0  0  0  0  0  0  0  0  0  0  0
    6.1520   -0.5880    0.0920 C   0  0  0  0  0  0  0  0  0  0  0  0
    3.6760   -0.3920   -0.2270 C   0  0  0  0  0  0  0  0  0  0  0  0
    2.5190    0.3690   -0.4650 C   0  0  0  0  0  0  0  0  0  0  0  0
    1.3300   -0.5330   -0.5040 C   0  0  0  0  0  0  0  0  0  0  0  0
  1  2  1  0
  2  3  1  0
  3  4  1  0
  5  4  1  6
  5  6  1  0
  5 12  1  0
  6  7  1  0
  7  8  2  0
  7 11  1  0
  8  9  1  0
  9 10  1  0
 10 11  2  0
 12 13  1  1
 12 23  1  0
 13 14  1  0
 14 15  1  0
 15 16  1  0
 16 17  2  0
 16 22  1  0
 17 18  1  0
 18 19  2  0
 19 20  1  0
 19 21  1  0
 21 22  2  0
 22 23  1  0
M  END
