
     RDKit          3D

 33 37  0  0  0  0  0  0  0  0999 V2000
   -1.1980   -1.6810   -3.3170 C   0  0  0  0  0  0  0  0  0  0  0  0
   -1.9090   -0.7760   -2.6810 C   0  0  0  0  0  0  0  0  0  0  0  0
   -1.5920    0.6980   -2.8020 C   0  0  0  0  0  0  0  0  0  0  0  0
   -2.3340    1.3860   -1.6440 C   0  0  0  0  0  0  0  0  0  0  0  0
   -2.2440    0.5590   -0.4280 C   0  0  1  0  0  0  0  0  0  0  0  0
   -2.2510    1.1570    0.8980 C   0  0  0  0  0  0  0  0  0  0  0  0
   -1.2120    2.1050    1.3250 C   0  0  2  0  0  0  0  0  0  0  0  0
   -1.0780    3.3590    0.5600 C   0  0  0  0  0  0  0  0  0  0  0  0
   -2.0590    4.3250    0.5030 C   0  0  0  0  0  0  0  0  0  0  0  0
   -1.5690    5.3150   -0.2580 N   0  0  0  0  0  0  0  0  0  0  0  0
   -0.3550    5.0410   -0.6810 N   0  0  0  0  0  0  0  0  0  0  0  0
    0.4930    5.8610   -1.5230 C   0  0  0  0  0  0  0  0  0  0  0  0
   -0.0210    3.8180   -0.1820 C   0  0  0  0  0  0  0  0  0  0  0  0
    0.0570    1.4870    1.6560 N   0  0  0  0  0  0  0  0  0  0  0  0
    0.9280    1.0150    0.7440 C   0  0  0  0  0  0  0  0  0  0  0  0
    2.0210    0.4910    1.4210 C   0  0  0  0  0  0  0  0  0  0  0  0
    3.1950   -0.1210    0.7560 C   0  0  1  0  0  0  0  0  0  0  0  0
    4.3340    0.8900    0.7780 C   0  0  0  0  0  0  0  0  0  0  0  0
    3.5850   -1.3750    1.3880 N   0  0  0  0  0  0  0  0  0  0  0  0
    4.6760   -1.8880    0.5790 C   0  0  0  0  0  0  0  0  0  0  0  0
    5.0730   -3.2990    0.9440 C   0  0  0  0  0  0  0  0  0  0  0  0
    3.8810   -4.1790    0.6190 C   0  0  0  0  0  0  0  0  0  0  0  0
    2.7530   -3.7010    1.5150 C   0  0  0  0  0  0  0  0  0  0  0  0
    2.4570   -2.2700    1.2070 C   0  0  0  0  0  0  0  0  0  0  0  0
    1.7580    0.6730    2.7550 C   0  0  0  0  0  0  0  0  0  0  0  0
    0.5430    1.2880    2.8390 N   0  0  0  0  0  0  0  0  0  0  0  0
   -3.2280   -0.5120   -0.6060 N   0  0  0  0  0  0  0  0  0  0  0  0
   -4.2670   -0.8900    0.2790 C   0  0  0  0  0  0  0  0  0  0  0  0
   -4.7000   -2.3270    0.0110 C   0  0  0  0  0  0  0  0  0  0  0  0
   -4.9990   -2.5870   -1.4480 C   0  0  0  0  0  0  0  0  0  0  0  0
   -3.8420   -2.1510   -2.2910 C   0  0  0  0  0  0  0  0  0  0  0  0
   -3.6180   -2.9240   -3.8420 Cl  0  0  0  0  0  0  0  0  0  0  0  0
   -3.0490   -1.1960   -1.8440 C   0  0  0  0  0  0  0  0  0  0  0  0
  1  2  2  0
  2  3  1  0
  2 33  1  0
  3  4  1  0
  4  5  1  0
  5  6  1  1
  5 27  1  0
  7  6  1  6
  7  8  1  0
  7 14  1  0
  8  9  1  0
  8 13  2  0
  9 10  2  0
 10 11  1  0
 11 12  1  0
 11 13  1  0
 14 15  1  0
 14 26  1  0
 15 16  2  0
 16 17  1  0
 16 25  1  0
 17 18  1  1
 17 19  1  0
 19 20  1  0
 19 24  1  0
 20 21  1  0
 21 22  1  0
 22 23  1  0
 23 24  1  0
 25 26  2  0
 27 28  1  0
 27 33  1  0
 28 29  1  0
 29 30  1  0
 30 31  1  0
 31 32  1  0
 31 33  2  0
M  END
