
     RDKit          3D

 33 37  0  0  0  0  0  0  0  0999 V2000
   -3.4160    2.3410   -0.3850 C   0  0  0  0  0  0  0  0  0  0  0  0
   -3.2760    1.6480   -1.6950 C   0  0  2  0  0  0  0  0  0  0  0  0
   -4.6100    0.9660   -1.9870 C   0  0  0  0  0  0  0  0  0  0  0  0
   -2.1850    0.6300   -1.6990 C   0  0  0  0  0  0  0  0  0  0  0  0
   -2.4070   -0.4400   -0.6760 C   0  0  0  0  0  0  0  0  0  0  0  0
   -3.2030   -1.5770   -0.8920 C   0  0  0  0  0  0  0  0  0  0  0  0
   -3.1850   -2.3710    0.2280 C   0  0  0  0  0  0  0  0  0  0  0  0
   -3.7750   -3.5840    0.5750 C   0  0  0  0  0  0  0  0  0  0  0  0
   -3.5580   -4.1440    1.8170 C   0  0  0  0  0  0  0  0  0  0  0  0
   -2.7440   -3.5000    2.7400 C   0  0  0  0  0  0  0  0  0  0  0  0
   -2.1730   -2.3050    2.3770 C   0  0  0  0  0  0  0  0  0  0  0  0
   -2.3790   -1.7320    1.1400 C   0  0  0  0  0  0  0  0  0  0  0  0
   -1.9290   -0.5750    0.5620 N   0  0  0  0  0  0  0  0  0  0  0  0
   -1.0320    0.3250    1.2540 C   0  0  0  0  0  0  0  0  0  0  0  0
    0.3850   -0.0730    0.9890 C   0  0  0  0  0  0  0  0  0  0  0  0
    1.2300    0.7480    0.4230 C   0  0  0  0  0  0  0  0  0  0  0  0
    0.9260    2.0580    0.0090 N   0  0  0  0  0  0  0  0  0  0  0  0
    1.8240    2.7810   -0.5350 C   0  0  0  0  0  0  0  0  0  0  0  0
    1.5070    4.0680   -0.9360 C   0  0  0  0  0  0  0  0  0  0  0  0
    2.4120    4.9160   -1.5310 C   0  0  0  0  0  0  0  0  0  0  0  0
    1.9630    6.5300   -2.0190 Cl  0  0  0  0  0  0  0  0  0  0  0  0
    3.6800    4.4730   -1.7350 N   0  0  0  0  0  0  0  0  0  0  0  0
    4.0320    3.2290   -1.3600 C   0  0  0  0  0  0  0  0  0  0  0  0
    3.1280    2.3690   -0.7620 C   0  0  0  0  0  0  0  0  0  0  0  0
    3.5440    1.1730   -0.4240 C   0  0  0  0  0  0  0  0  0  0  0  0
    2.6040    0.2690    0.2020 C   0  0  0  0  0  0  0  0  0  0  0  0
    2.9220   -0.9160    0.5640 N   0  0  0  0  0  0  0  0  0  0  0  0
    4.2040   -1.4730    0.3990 C   0  0  0  0  0  0  0  0  0  0  0  0
    4.3120   -2.6390   -0.3640 C   0  0  0  0  0  0  0  0  0  0  0  0
    5.5160   -3.2510   -0.5780 C   0  0  0  0  0  0  0  0  0  0  0  0
    6.6560   -2.6910   -0.0170 C   0  0  0  0  0  0  0  0  0  0  0  0
    6.4890   -1.5780    0.7000 N   0  0  0  0  0  0  0  0  0  0  0  0
    5.3330   -0.9850    0.9090 N   0  0  0  0  0  0  0  0  0  0  0  0
  2  1  1  1
  2  3  1  0
  2  4  1  0
  4  5  1  0
  5  6  2  0
  5 13  1  0
  6  7  1  0
  7  8  2  0
  7 12  1  0
  8  9  1  0
  9 10  2  0
 10 11  1  0
 11 12  2  0
 12 13  1  0
 13 14  1  0
 14 15  1  0
 15 16  2  3
 16 17  1  0
 16 26  1  0
 17 18  2  0
 18 19  1  0
 18 24  1  0
 19 20  2  0
 20 21  1  0
 20 22  1  0
 22 23  2  0
 23 24  1  0
 24 25  2  0
 25 26  1  0
 26 27  2  3
 27 28  1  0
 28 29  2  0
 28 33  1  0
 29 30  1  0
 30 31  2  0
 31 32  1  0
 32 33  2  0
M  END
