
     RDKit          3D

 33 36  0  0  0  0  0  0  0  0999 V2000
    9.6150    2.0350   -1.3100 N   0  0  0  0  0  0  0  0  0  0  0  0
    9.0390    1.0320   -0.4820 C   0  0  0  0  0  0  0  0  0  0  0  0
    9.7960    0.2090    0.0610 O   0  0  0  0  0  0  0  0  0  0  0  0
    7.5840    1.0160   -0.3090 C   0  0  0  0  0  0  0  0  0  0  0  0
    6.7870    1.9510   -0.9320 C   0  0  0  0  0  0  0  0  0  0  0  0
    5.4030    1.9520   -0.7800 C   0  0  0  0  0  0  0  0  0  0  0  0
    4.7760    1.0100    0.0070 C   0  0  0  0  0  0  0  0  0  0  0  0
    3.3180    1.0120    0.1670 C   0  0  0  0  0  0  0  0  0  0  0  0
    2.4670    1.9140   -0.4240 C   0  0  0  0  0  0  0  0  0  0  0  0
    1.2080    1.6260   -0.0650 N   0  0  0  0  0  0  0  0  0  0  0  0
    1.2680    0.5340    0.7600 C   0  0  0  0  0  0  0  0  0  0  0  0
    0.0330   -0.0300    1.3350 C   0  0  2  0  0  0  0  0  0  0  0  0
    0.1900   -1.3410    2.0140 C   0  0  0  0  0  0  0  0  0  0  0  0
    0.6750   -2.4540    1.2120 C   0  0  0  0  0  0  0  0  0  0  0  0
   -0.2040   -3.1990    0.4220 C   0  0  0  0  0  0  0  0  0  0  0  0
    0.2220   -4.2740   -0.3290 C   0  0  0  0  0  0  0  0  0  0  0  0
    1.5440   -4.6390   -0.3150 C   0  0  0  0  0  0  0  0  0  0  0  0
    2.4310   -3.9300    0.4490 C   0  0  0  0  0  0  0  0  0  0  0  0
    1.9910   -2.8380    1.2110 C   0  0  0  0  0  0  0  0  0  0  0  0
   -0.9810   -0.0610    0.2920 N   0  0  0  0  0  0  0  0  0  0  0  0
   -2.1250    0.7500    0.3840 C   0  0  0  0  0  0  0  0  0  0  0  0
   -2.2260    1.4980    1.4050 O   0  0  0  0  0  0  0  0  0  0  0  0
   -3.2010    0.7710   -0.6420 C   0  0  1  0  0  0  0  0  0  0  0  0
   -3.8100   -0.5860   -0.7820 C   0  0  0  0  0  0  0  0  0  0  0  0
   -5.1920   -0.4730   -1.3580 C   0  0  0  0  0  0  0  0  0  0  0  0
   -6.0660    0.2110   -0.3310 C   0  0  2  0  0  0  0  0  0  0  0  0
   -7.4100    0.4870   -0.9510 C   0  0  0  0  0  0  0  0  0  0  0  0
   -8.3190    1.1430   -0.0400 N   0  0  0  0  0  0  0  0  0  0  0  0
   -5.4370    1.4060    0.2930 C   0  0  0  0  0  0  0  0  0  0  0  0
   -4.1840    1.8730   -0.4260 C   0  0  0  0  0  0  0  0  0  0  0  0
    2.5550    0.1910    0.8770 N   0  0  0  0  0  0  0  0  0  0  0  0
    5.5800    0.0790    0.6270 C   0  0  0  0  0  0  0  0  0  0  0  0
    6.9540    0.0760    0.4770 C   0  0  0  0  0  0  0  0  0  0  0  0
  1  2  1  0
  2  3  2  0
  2  4  1  0
  4  5  2  0
  4 33  1  0
  5  6  1  0
  6  7  2  0
  7  8  1  0
  7 32  1  0
  8  9  2  0
  8 31  1  0
  9 10  1  0
 10 11  1  0
 11 12  1  0
 11 31  2  0
 12 13  1  6
 12 20  1  0
 13 14  1  0
 14 15  2  0
 14 19  1  0
 15 16  1  0
 16 17  2  0
 17 18  1  0
 18 19  2  0
 20 21  1  0
 21 22  2  0
 23 21  1  1
 23 24  1  0
 23 30  1  0
 24 25  1  0
 25 26  1  0
 26 27  1  6
 26 29  1  0
 27 28  1  0
 29 30  1  0
 32 33  2  0
M  CHG  1  28   1
M  END
