
     RDKit          3D

 33 37  0  0  0  0  0  0  0  0999 V2000
   -5.7390   -1.9590    3.6070 C   0  0  0  0  0  0  0  0  0  0  0  0
   -5.0770   -1.3220    2.5590 O   0  0  0  0  0  0  0  0  0  0  0  0
   -5.6340   -0.5590    1.5760 C   0  0  0  0  0  0  0  0  0  0  0  0
   -6.9780   -0.2980    1.4730 C   0  0  0  0  0  0  0  0  0  0  0  0
   -7.5020    0.4650    0.4830 C   0  0  0  0  0  0  0  0  0  0  0  0
   -6.6810    1.0250   -0.4870 C   0  0  0  0  0  0  0  0  0  0  0  0
   -5.3080    0.7530   -0.3740 C   0  0  0  0  0  0  0  0  0  0  0  0
   -4.7630   -0.0130    0.6150 C   0  0  0  0  0  0  0  0  0  0  0  0
   -3.3930   -0.2650    0.7150 N   0  0  0  0  0  0  0  0  0  0  0  0
   -2.3620    0.1410   -0.1310 C   0  0  0  0  0  0  0  0  0  0  0  0
   -2.6180    0.8250   -1.1390 O   0  0  0  0  0  0  0  0  0  0  0  0
   -0.9200   -0.2190    0.1300 C   0  0  0  0  0  0  0  0  0  0  0  0
   -0.0800    0.3250   -0.9710 C   0  0  0  0  0  0  0  0  0  0  0  0
    1.3140   -0.0220   -0.6970 N   0  0  1  0  0  0  0  0  0  0  0  0
    1.3370   -1.4540   -0.4770 C   0  0  0  0  0  0  0  0  0  0  0  0
    2.1250    0.3810   -1.7970 C   0  0  0  0  0  0  0  0  0  0  0  0
    3.5550    0.3360   -1.4440 C   0  0  0  0  0  0  0  0  0  0  0  0
    3.9550   -0.0500   -0.1920 C   0  0  0  0  0  0  0  0  0  0  0  0
    5.3170   -0.0740    0.1000 C   0  0  0  0  0  0  0  0  0  0  0  0
    5.7330   -0.4590    1.3680 C   0  0  0  0  0  0  0  0  0  0  0  0
    7.0890   -0.4650    1.6170 C   0  0  0  0  0  0  0  0  0  0  0  0
    8.0230   -0.1000    0.6440 C   0  0  0  0  0  0  0  0  0  0  0  0
    7.5570    0.2690   -0.5860 C   0  0  0  0  0  0  0  0  0  0  0  0
    6.2100    0.2860   -0.8670 C   0  0  0  0  0  0  0  0  0  0  0  0
    5.8510    0.6690   -2.1040 N   0  0  0  0  0  0  0  0  0  0  0  0
    4.5390    0.6880   -2.3730 C   0  0  0  0  0  0  0  0  0  0  0  0
    4.1450    1.0410   -3.5190 O   0  0  0  0  0  0  0  0  0  0  0  0
    8.7360    0.5770   -1.3570 N   0  0  0  0  0  0  0  0  0  0  0  0
    9.8280    0.3570   -0.6100 O   0  0  0  0  0  0  0  0  0  0  0  0
    9.4010   -0.0120    0.6020 O   0  0  0  0  0  0  0  0  0  0  0  0
   -7.4600    1.7480   -1.3670 O   0  0  0  0  0  0  0  0  0  0  0  0
   -8.6790    2.0470   -0.6700 C   0  0  0  0  0  0  0  0  0  0  0  0
   -8.7890    0.8820    0.1460 O   0  0  0  0  0  0  0  0  0  0  0  0
  1  2  1  0
  2  3  1  0
  3  4  2  0
  3  8  1  0
  4  5  1  0
  5  6  2  0
  5 33  1  0
  6  7  1  0
  6 31  1  0
  7  8  2  0
  8  9  1  0
  9 10  1  0
 10 11  2  0
 10 12  1  0
 12 13  1  0
 13 14  1  0
 14 15  1  6
 14 16  1  0
 16 17  1  0
 17 18  2  0
 17 26  1  0
 18 19  1  0
 19 20  2  0
 19 24  1  0
 20 21  1  0
 21 22  2  0
 22 23  1  0
 22 30  1  0
 23 24  2  0
 23 28  1  0
 24 25  1  0
 25 26  1  0
 26 27  2  0
 28 29  1  0
 29 30  1  0
 31 32  1  0
 32 33  1  0
M  CHG  1  14   1
M  END
