
     RDKit          3D

 33 37  0  0  0  0  0  0  0  0999 V2000
    7.6600    0.2910   -1.0730 C   0  0  0  0  0  0  0  0  0  0  0  0
    7.9490   -0.6580    0.0240 C   0  0  0  0  0  0  0  0  0  0  0  0
    7.0420   -1.9150    0.0080 C   0  0  0  0  0  0  0  0  0  0  0  0
    5.6450   -1.2930    0.0420 C   0  0  0  0  0  0  0  0  0  0  0  0
    4.9670   -1.2100   -1.1090 N   0  0  0  0  0  0  0  0  0  0  0  0
    3.7300   -0.5630   -1.1670 C   0  0  0  0  0  0  0  0  0  0  0  0
    2.8440   -0.2680   -2.0830 C   0  0  0  0  0  0  0  0  0  0  0  0
    2.6650   -1.1400   -3.4320 C   0  0  0  0  0  0  0  0  0  0  0  0
    2.5680   -1.6980   -4.2890 N   0  0  0  0  0  0  0  0  0  0  0  0
    1.7790    0.4710   -1.6610 C   0  0  0  0  0  0  0  0  0  0  0  0
    2.0400    0.6280   -0.2740 C   0  0  0  0  0  0  0  0  0  0  0  0
    3.2070    0.0030    0.0120 N   0  0  0  0  0  0  0  0  0  0  0  0
    3.9550   -0.1660    1.0210 N   0  0  0  0  0  0  0  0  0  0  0  0
    5.1370   -0.7590    1.1930 C   0  0  0  0  0  0  0  0  0  0  0  0
    5.7690   -0.8990    2.4920 C   0  0  0  0  0  0  0  0  0  0  0  0
    1.0250    1.1530    0.6750 C   0  0  0  0  0  0  0  0  0  0  0  0
   -0.2690    1.1990   -0.0480 N   0  0  0  0  0  0  0  0  0  0  0  0
   -1.0300    0.0110   -0.0010 C   0  0  0  0  0  0  0  0  0  0  0  0
   -2.3980    0.1090   -0.5490 C   0  0  0  0  0  0  0  0  0  0  0  0
   -2.7360    0.3980   -1.8210 C   0  0  0  0  0  0  0  0  0  0  0  0
   -4.0890    0.5220   -2.2500 C   0  0  0  0  0  0  0  0  0  0  0  0
   -5.0170    0.3370   -1.3120 C   0  0  0  0  0  0  0  0  0  0  0  0
   -4.7380    0.0330   -0.0150 C   0  0  0  0  0  0  0  0  0  0  0  0
   -3.4420   -0.0950    0.4290 C   0  0  0  0  0  0  0  0  0  0  0  0
   -5.9930   -0.0240    0.8190 C   0  0  0  0  0  0  0  0  0  0  0  0
   -6.0870   -0.4650    2.0000 C   0  0  0  0  0  0  0  0  0  0  0  0
   -7.1270   -0.6230    2.9720 C   0  0  0  0  0  0  0  0  0  0  0  0
   -7.3280   -2.4010    3.3620 Cl  0  0  0  0  0  0  0  0  0  0  0  0
   -7.0010    0.3440   -0.1140 N   0  0  0  0  0  0  0  0  0  0  0  0
   -8.3910    0.7590    0.1600 C   0  0  0  0  0  0  0  0  0  0  0  0
   -6.5180    0.3110   -1.4650 C   0  0  0  0  0  0  0  0  0  0  0  0
   -0.1580    1.9330   -1.2420 C   0  0  0  0  0  0  0  0  0  0  0  0
    0.6610    1.2230   -2.2840 C   0  0  0  0  0  0  0  0  0  0  0  0
  1  2  1  0
  2  3  1  0
  3  4  1  0
  4  5  2  0
  4 14  1  0
  5  6  1  0
  6  7  2  0
  6 12  1  0
  7  8  1  0
  7 10  1  0
  8  9  3  0
 10 11  2  0
 10 33  1  0
 11 12  1  0
 11 16  1  0
 12 13  1  0
 13 14  2  0
 14 15  1  0
 16 17  1  0
 17 18  1  0
 17 32  1  0
 18 19  1  0
 19 20  2  0
 19 24  1  0
 20 21  1  0
 21 22  2  0
 22 23  1  0
 22 31  1  0
 23 24  2  0
 23 25  1  0
 25 26  2  3
 25 29  1  0
 26 27  1  0
 27 28  1  0
 29 30  1  0
 29 31  1  0
 32 33  1  0
M  END
