
     RDKit          3D

 33 37  0  0  0  0  0  0  0  0999 V2000
   -2.6160    0.6200    1.4100 C   0  0  0  0  0  0  0  0  0  0  0  0
   -3.9040    0.2870    0.7830 C   0  0  0  0  0  0  0  0  0  0  0  0
   -4.9040    0.8760    1.4040 N   0  0  0  0  0  0  0  0  0  0  0  0
   -6.3130    0.9250    1.2590 C   0  0  0  0  0  0  0  0  0  0  0  0
   -6.7570    2.0300    1.9510 C   0  0  0  0  0  0  0  0  0  0  0  0
   -8.1130    2.3530    2.0010 C   0  0  0  0  0  0  0  0  0  0  0  0
   -8.9770    1.5510    1.3520 N   0  0  0  0  0  0  0  0  0  0  0  0
   -8.6040    0.4680    0.6660 C   0  0  0  0  0  0  0  0  0  0  0  0
   -7.2490    0.1440    0.6150 C   0  0  0  0  0  0  0  0  0  0  0  0
   -7.1390   -1.0670   -0.1910 C   0  0  0  0  0  0  0  0  0  0  0  0
   -8.6650   -1.8920   -0.3450 Cl  0  0  0  0  0  0  0  0  0  0  0  0
   -6.1120   -1.6390   -0.8150 C   0  0  0  0  0  0  0  0  0  0  0  0
   -4.6920   -1.3730   -0.9980 C   0  0  0  0  0  0  0  0  0  0  0  0
   -3.8050   -0.6020   -0.3610 C   0  0  0  0  0  0  0  0  0  0  0  0
   -2.4960   -0.6580   -0.9200 N   0  0  0  0  0  0  0  0  0  0  0  0
   -2.0170    0.5280   -1.5850 C   0  0  0  0  0  0  0  0  0  0  0  0
   -0.8280    0.2570   -2.4660 C   0  0  0  0  0  0  0  0  0  0  0  0
    0.2210   -0.4500   -1.7910 N   0  0  0  0  0  0  0  0  0  0  0  0
    1.2670    0.4210   -1.3210 C   0  0  0  0  0  0  0  0  0  0  0  0
    2.3680   -0.2840   -0.6230 C   0  0  0  0  0  0  0  0  0  0  0  0
    2.4590   -1.6180   -0.3990 N   0  0  0  0  0  0  0  0  0  0  0  0
    3.5970   -1.8920    0.2630 C   0  0  0  0  0  0  0  0  0  0  0  0
    4.1110   -3.2220    0.7200 C   0  0  0  0  0  0  0  0  0  0  0  0
    4.2090   -0.6580    0.4400 C   0  0  0  0  0  0  0  0  0  0  0  0
    3.4640    0.3170   -0.0970 N   0  0  0  0  0  0  0  0  0  0  0  0
    3.8990    1.6960   -0.0400 C   0  0  0  0  0  0  0  0  0  0  0  0
    5.3660    1.6940   -0.4240 C   0  0  0  0  0  0  0  0  0  0  0  0
    6.2160    0.7780    0.3820 C   0  0  2  0  0  0  0  0  0  0  0  0
    7.0570    1.6210    1.3460 C   0  0  0  0  0  0  0  0  0  0  0  0
    7.1840    0.0760   -0.5830 C   0  0  0  0  0  0  0  0  0  0  0  0
    5.4950   -0.3060    1.1070 C   0  0  0  0  0  0  0  0  0  0  0  0
   -0.2210   -1.4280   -0.8570 C   0  0  0  0  0  0  0  0  0  0  0  0
   -1.6510   -1.8060   -0.8810 C   0  0  0  0  0  0  0  0  0  0  0  0
  1  2  1  0
  2  3  2  0
  2 14  1  0
  3  4  1  0
  4  5  2  0
  4  9  1  0
  5  6  1  0
  6  7  2  0
  7  8  1  0
  8  9  2  0
  9 10  1  0
 10 11  1  0
 10 12  2  0
 12 13  1  0
 13 14  2  0
 14 15  1  0
 15 16  1  0
 15 33  1  0
 16 17  1  0
 17 18  1  0
 18 19  1  0
 18 32  1  0
 19 20  1  0
 20 21  2  0
 20 25  1  0
 21 22  1  0
 22 23  1  0
 22 24  2  0
 24 25  1  0
 24 31  1  0
 25 26  1  0
 26 27  1  0
 27 28  1  0
 28 29  1  1
 28 30  1  0
 28 31  1  0
 32 33  1  0
M  END
