
     RDKit          3D

 35 39  0  0  0  0  0  0  0  0999 V2000
    9.5570    2.8650    0.5340 N   0  0  0  0  0  0  0  0  0  0  0  0
    8.3530    3.0860   -0.2220 C   0  0  0  0  0  0  0  0  0  0  0  0
    8.1050    4.1000   -1.0700 N   0  0  0  0  0  0  0  0  0  0  0  0
    6.8920    3.9720   -1.5800 N   0  0  0  0  0  0  0  0  0  0  0  0
    6.3360    2.8550   -1.0560 C   0  0  0  0  0  0  0  0  0  0  0  0
    5.1200    2.2440   -1.2200 C   0  0  0  0  0  0  0  0  0  0  0  0
    4.7910    1.0940   -0.5600 C   0  0  0  0  0  0  0  0  0  0  0  0
    3.5030    0.4620   -0.7460 C   0  0  0  0  0  0  0  0  0  0  0  0
    2.7410   -0.0090    0.2870 N   0  0  0  0  0  0  0  0  0  0  0  0
    1.6150   -0.5370   -0.1730 C   0  0  0  0  0  0  0  0  0  0  0  0
    0.4810   -1.1680    0.5560 C   0  0  2  0  0  0  0  0  0  0  0  0
    0.6320   -2.6650    0.4160 C   0  0  0  0  0  0  0  0  0  0  0  0
   -0.4400   -3.4070    1.1000 C   0  0  0  0  0  0  0  0  0  0  0  0
   -0.3140   -3.7930    2.4170 C   0  0  0  0  0  0  0  0  0  0  0  0
   -1.3030   -4.4860    3.0740 C   0  0  0  0  0  0  0  0  0  0  0  0
   -2.4500   -4.8010    2.3910 C   0  0  0  0  0  0  0  0  0  0  0  0
   -2.6320   -4.4340    1.0530 C   0  0  0  0  0  0  0  0  0  0  0  0
   -1.6040   -3.7420    0.4530 C   0  0  0  0  0  0  0  0  0  0  0  0
   -0.7640   -0.6900    0.0430 N   0  0  0  0  0  0  0  0  0  0  0  0
   -1.6650   -0.0300    0.9380 C   0  0  0  0  0  0  0  0  0  0  0  0
   -1.3140    0.0980    2.1400 O   0  0  0  0  0  0  0  0  0  0  0  0
   -2.9750    0.4930    0.4780 C   0  0  1  0  0  0  0  0  0  0  0  0
   -2.7940    1.5280   -0.6270 C   0  0  0  0  0  0  0  0  0  0  0  0
   -4.1060    2.2910   -0.7030 C   0  0  0  0  0  0  0  0  0  0  0  0
   -5.2730    1.3600   -0.7850 C   0  0  2  0  0  0  0  0  0  0  0  0
   -6.2460    1.6100    0.3570 C   0  0  0  0  0  0  0  0  0  0  0  0
   -7.3650    0.6960    0.2530 N   0  0  0  0  0  0  0  0  0  0  0  0
   -4.9030   -0.0800   -0.9290 C   0  0  0  0  0  0  0  0  0  0  0  0
   -3.9360   -0.5890    0.0890 C   0  0  0  0  0  0  0  0  0  0  0  0
    1.6660   -0.3990   -1.5100 N   0  0  0  0  0  0  0  0  0  0  0  0
    2.8010    0.2040   -1.8780 C   0  0  0  0  0  0  0  0  0  0  0  0
    3.3130    0.5970   -3.5040 Cl  0  0  0  0  0  0  0  0  0  0  0  0
    5.7140    0.5250    0.3040 C   0  0  0  0  0  0  0  0  0  0  0  0
    6.9450    1.1060    0.4990 C   0  0  0  0  0  0  0  0  0  0  0  0
    7.2490    2.2660   -0.1810 C   0  0  0  0  0  0  0  0  0  0  0  0
  1  2  1  0
  2  3  1  0
  2 35  2  0
  3  4  1  0
  4  5  2  0
  5  6  1  0
  5 35  1  0
  6  7  2  0
  7  8  1  0
  7 33  1  0
  8  9  1  0
  8 31  2  0
  9 10  2  0
 10 11  1  0
 10 30  1  0
 11 12  1  6
 11 19  1  0
 12 13  1  0
 13 14  2  0
 13 18  1  0
 14 15  1  0
 15 16  2  0
 16 17  1  0
 17 18  2  0
 19 20  1  0
 20 21  2  0
 22 20  1  6
 22 23  1  0
 22 29  1  0
 23 24  1  0
 24 25  1  0
 25 26  1  1
 25 28  1  0
 26 27  1  0
 28 29  1  0
 30 31  1  0
 31 32  1  0
 33 34  2  0
 34 35  1  0
M  CHG  1  27   1
M  END
