
     RDKit          3D

 34 37  0  0  0  0  0  0  0  0999 V2000
    3.5410   -0.6620    3.3370 C   0  0  0  0  0  0  0  0  0  0  0  0
    3.8220   -0.7230    1.8690 C   0  0  2  0  0  0  0  0  0  0  0  0
    5.2350   -0.1580    1.6640 C   0  0  0  0  0  0  0  0  0  0  0  0
    5.1760    0.3600    0.3180 N   0  0  0  0  0  0  0  0  0  0  0  0
    6.3110    0.5740   -0.5260 C   0  0  0  0  0  0  0  0  0  0  0  0
    6.3370    1.2950   -1.6630 N   0  0  0  0  0  0  0  0  0  0  0  0
    7.5530    1.2810   -2.1900 N   0  0  0  0  0  0  0  0  0  0  0  0
    8.3420    0.5390   -1.3880 C   0  0  0  0  0  0  0  0  0  0  0  0
    9.5620    0.2600   -1.5040 O   0  0  0  0  0  0  0  0  0  0  0  0
    7.5590    0.1110   -0.3660 N   0  0  0  0  0  0  0  0  0  0  0  0
    3.8270    0.6030    0.0180 C   0  0  0  0  0  0  0  0  0  0  0  0
    3.4210    1.1730   -1.0240 O   0  0  0  0  0  0  0  0  0  0  0  0
    2.9780    0.1070    1.0690 N   0  0  0  0  0  0  0  0  0  0  0  0
    1.5950    0.4460    1.1810 C   0  0  0  0  0  0  0  0  0  0  0  0
    0.6880   -0.4580    0.4820 C   0  0  0  0  0  0  0  0  0  0  0  0
    1.0830   -1.6080   -0.1590 C   0  0  0  0  0  0  0  0  0  0  0  0
    0.2030   -2.4410   -0.8140 C   0  0  0  0  0  0  0  0  0  0  0  0
   -1.1580   -2.1100   -0.8320 C   0  0  0  0  0  0  0  0  0  0  0  0
   -1.5230   -0.9590   -0.1850 C   0  0  0  0  0  0  0  0  0  0  0  0
   -2.9280   -0.6050   -0.2140 N   0  0  0  0  0  0  0  0  0  0  0  0
   -3.2070    0.4550    0.7120 C   0  0  0  0  0  0  0  0  0  0  0  0
   -4.4150    1.2580    0.4520 C   0  0  0  0  0  0  0  0  0  0  0  0
   -4.2320    2.5320    0.2090 C   0  0  0  0  0  0  0  0  0  0  0  0
   -5.3040    3.5010   -0.0720 C   0  0  2  0  0  0  0  0  0  0  0  0
   -6.4210    3.3700    0.7190 F   0  0  0  0  0  0  0  0  0  0  0  0
   -5.6350    3.4850   -1.4260 F   0  0  0  0  0  0  0  0  0  0  0  0
   -5.8270    0.7910    0.4440 C   0  0  2  0  0  0  0  0  0  0  0  0
   -6.4990    1.2700   -0.6440 F   0  0  0  0  0  0  0  0  0  0  0  0
   -6.4470    0.9960    1.6400 F   0  0  0  0  0  0  0  0  0  0  0  0
   -5.7890   -0.7490    0.2370 C   0  0  0  0  0  0  0  0  0  0  0  0
   -5.2050   -0.9200   -1.1290 C   0  0  0  0  0  0  0  0  0  0  0  0
   -3.7650   -1.3220   -1.1060 C   0  0  1  0  0  0  0  0  0  0  0  0
   -3.2790   -1.2620   -2.5480 C   0  0  0  0  0  0  0  0  0  0  0  0
   -0.6250   -0.1770    0.4410 N   0  0  0  0  0  0  0  0  0  0  0  0
  2  1  1  1
  2  3  1  0
  2 13  1  0
  3  4  1  0
  4  5  1  0
  4 11  1  0
  5  6  2  0
  5 10  1  0
  6  7  1  0
  7  8  1  0
  8  9  2  0
  8 10  1  0
 11 12  2  0
 11 13  1  0
 13 14  1  0
 14 15  1  0
 15 16  2  0
 15 34  1  0
 16 17  1  0
 17 18  2  0
 18 19  1  0
 19 20  1  0
 19 34  2  0
 20 21  1  0
 20 32  1  0
 21 22  1  0
 22 23  2  3
 22 27  1  0
 23 24  1  0
 24 25  1  1
 24 26  1  0
 27 28  1  6
 27 29  1  0
 27 30  1  0
 30 31  1  0
 31 32  1  0
 32 33  1  6
M  END
