
     RDKit          3D

 34 37  0  0  0  0  0  0  0  0999 V2000
   -2.9600   -0.9370   -2.8200 C   0  0  0  0  0  0  0  0  0  0  0  0
   -2.6280   -0.4060   -1.4470 N   0  0  0  0  0  0  0  0  0  0  0  0
   -1.2890   -0.4900   -1.0920 C   0  0  0  0  0  0  0  0  0  0  0  0
   -0.5130   -0.9290   -2.0570 O   0  0  0  0  0  0  0  0  0  0  0  0
   -0.6350   -0.1650    0.1940 C   0  0  1  0  0  0  0  0  0  0  0  0
   -0.9450   -1.2960    1.1800 C   0  0  0  0  0  0  0  0  0  0  0  0
    0.3700   -2.0010    1.4420 C   0  0  0  0  0  0  0  0  0  0  0  0
    1.1540   -1.6180    0.1740 C   0  0  2  0  0  0  0  0  0  0  0  0
    2.5890   -1.9190    0.3360 C   0  0  0  0  0  0  0  0  0  0  0  0
    3.1050   -2.2550    1.4690 N   0  0  0  0  0  0  0  0  0  0  0  0
    4.4860   -2.5470    1.6370 C   0  0  0  0  0  0  0  0  0  0  0  0
    4.9700   -2.9260    3.0000 C   0  0  0  0  0  0  0  0  0  0  0  0
    6.3150   -3.1750    2.9960 F   0  0  0  0  0  0  0  0  0  0  0  0
    5.3520   -2.5000    0.6580 C   0  0  0  0  0  0  0  0  0  0  0  0
    6.6590   -2.7880    0.8760 F   0  0  0  0  0  0  0  0  0  0  0  0
    4.8570   -2.1250   -0.6750 C   0  0  0  0  0  0  0  0  0  0  0  0
    5.6830   -2.0610   -1.6960 C   0  0  0  0  0  0  0  0  0  0  0  0
    5.2010   -1.7150   -2.9050 F   0  0  0  0  0  0  0  0  0  0  0  0
    6.9790   -2.3320   -1.5530 F   0  0  0  0  0  0  0  0  0  0  0  0
    3.4650   -1.8440   -0.7810 N   0  0  0  0  0  0  0  0  0  0  0  0
    0.8020   -0.2450    0.0990 N   0  0  0  0  0  0  0  0  0  0  0  0
    1.6580    0.8610   -0.0250 C   0  0  0  0  0  0  0  0  0  0  0  0
    2.9200    0.6000   -0.0630 O   0  0  0  0  0  0  0  0  0  0  0  0
    1.2770    2.2420   -0.1150 C   0  0  0  0  0  0  0  0  0  0  0  0
    2.1330    3.3090   -0.2350 C   0  0  0  0  0  0  0  0  0  0  0  0
    1.3540    4.4090   -0.2860 N   0  0  0  0  0  0  0  0  0  0  0  0
    0.0800    4.0600   -0.2040 N   0  0  0  0  0  0  0  0  0  0  0  0
   -1.0110    5.0150   -0.2310 C   0  0  0  0  0  0  0  0  0  0  0  0
    0.0450    2.7420   -0.1010 N   0  0  0  0  0  0  0  0  0  0  0  0
   -3.6830    0.1620   -0.7280 C   0  0  2  0  0  0  0  0  0  0  0  0
   -3.6290    1.7120   -0.6180 C   0  0  0  0  0  0  0  0  0  0  0  0
   -5.0060    1.9090    0.0510 C   0  0  0  0  0  0  0  0  0  0  0  0
   -5.2180    0.6670    0.9220 C   0  0  0  0  0  0  0  0  0  0  0  0
   -3.9140   -0.1650    0.7030 C   0  0  0  0  0  0  0  0  0  0  0  0
  1  2  1  0
  2  3  1  0
 30  2  1  1
  3  4  2  0
  5  3  1  6
  5  6  1  0
  5 21  1  0
  6  7  1  0
  7  8  1  0
  8  9  1  1
  8 21  1  0
  9 10  2  0
  9 20  1  0
 10 11  1  0
 11 12  1  0
 11 14  2  0
 12 13  1  0
 14 15  1  0
 14 16  1  0
 16 17  2  3
 16 20  1  0
 17 18  1  0
 17 19  1  0
 21 22  1  0
 22 23  2  0
 22 24  1  0
 24 25  1  0
 24 29  2  0
 25 26  2  0
 26 27  1  0
 27 28  1  0
 27 29  1  0
 30 31  1  0
 30 34  1  0
 31 32  1  0
 32 33  1  0
 33 34  1  0
M  END
