
     RDKit          3D

 34 36  0  0  0  0  0  0  0  0999 V2000
    4.5080   -5.8300   -0.1490 C   0  0  0  0  0  0  0  0  0  0  0  0
    3.0240   -5.6000   -0.1200 C   0  0  0  0  0  0  0  0  0  0  0  0
    2.7020   -4.1650   -0.1990 C   0  0  0  0  0  0  0  0  0  0  0  0
    2.4770   -3.3680   -1.2650 N   0  0  0  0  0  0  0  0  0  0  0  0
    2.2270   -2.1550   -0.8510 O   0  0  0  0  0  0  0  0  0  0  0  0
    2.2710   -2.0840    0.4460 C   0  0  0  0  0  0  0  0  0  0  0  0
    2.0580   -0.9380    1.3610 C   0  0  1  0  0  0  0  0  0  0  0  0
    2.7170    0.2100    0.8480 N   0  0  0  0  0  0  0  0  0  0  0  0
    2.2460    1.3430    0.1230 C   0  0  0  0  0  0  0  0  0  0  0  0
    0.9850    1.4470   -0.4080 C   0  0  0  0  0  0  0  0  0  0  0  0
    0.7490    2.6800   -1.0880 C   0  0  0  0  0  0  0  0  0  0  0  0
   -0.3060    3.1610   -1.6470 C   0  0  0  0  0  0  0  0  0  0  0  0
   -1.6430    2.7350   -1.8330 N   0  0  0  0  0  0  0  0  0  0  0  0
   -2.4020    3.6960   -2.6170 C   0  0  0  0  0  0  0  0  0  0  0  0
   -1.5820    4.6730   -2.9050 C   0  0  0  0  0  0  0  0  0  0  0  0
   -0.2970    4.4340   -2.3600 N   0  0  0  0  0  0  0  0  0  0  0  0
    0.8460    5.3100   -2.4890 C   0  0  0  0  0  0  0  0  0  0  0  0
    0.0220    0.3580   -0.3810 C   0  0  0  0  0  0  0  0  0  0  0  0
   -0.5420    0.1300   -1.4810 O   0  0  0  0  0  0  0  0  0  0  0  0
   -0.3110   -0.4480    0.7680 N   0  0  0  0  0  0  0  0  0  0  0  0
   -1.6380   -0.9830    0.7080 C   0  0  0  0  0  0  0  0  0  0  0  0
   -2.7710   -0.1930    1.1010 C   0  0  0  0  0  0  0  0  0  0  0  0
   -3.1570    0.3450    2.3540 C   0  0  0  0  0  0  0  0  0  0  0  0
   -2.6780    0.3430    3.5490 C   0  0  0  0  0  0  0  0  0  0  0  0
   -1.5610   -0.2430    3.9450 F   0  0  0  0  0  0  0  0  0  0  0  0
   -3.3530    1.0050    4.5810 F   0  0  0  0  0  0  0  0  0  0  0  0
   -3.6470    0.0630    0.0770 C   0  0  0  0  0  0  0  0  0  0  0  0
   -4.8760    0.8480    0.2350 C   0  0  2  0  0  0  0  0  0  0  0  0
   -5.8500    0.2550    0.9950 F   0  0  0  0  0  0  0  0  0  0  0  0
   -5.4630    1.0890   -1.0140 F   0  0  0  0  0  0  0  0  0  0  0  0
    0.6250   -0.7740    1.7990 C   0  0  1  0  0  0  0  0  0  0  0  0
    0.2900   -2.1040    2.3990 C   0  0  0  0  0  0  0  0  0  0  0  0
    0.0500   -3.1300    2.8500 N   0  0  0  0  0  0  0  0  0  0  0  0
    2.5710   -3.3520    0.8630 N   0  0  0  0  0  0  0  0  0  0  0  0
  1  2  1  0
  2  3  1  0
  3  4  2  0
  3 34  1  0
  4  5  1  0
  5  6  1  0
  7  6  1  6
  6 34  2  0
  7  8  1  0
  7 31  1  0
  8  9  1  0
  9 10  2  0
 10 11  1  0
 10 18  1  0
 11 12  2  3
 12 13  1  0
 12 16  1  0
 13 14  1  0
 14 15  2  0
 15 16  1  0
 16 17  1  0
 18 19  2  0
 18 20  1  0
 20 21  1  0
 20 31  1  0
 21 22  1  0
 22 23  1  0
 22 27  2  3
 23 24  2  3
 24 25  1  0
 24 26  1  0
 27 28  1  0
 28 29  1  1
 28 30  1  0
 31 32  1  6
 32 33  3  0
M  END
