
     RDKit          3D

 23 24  0  0  0  0  0  0  0  0999 V2000
   -0.6810    2.6340   -1.4060 C   0  0  0  0  0  0  0  0  0  0  0  0
   -1.0670    1.2350   -1.7600 C   0  0  0  0  0  0  0  0  0  0  0  0
   -1.4880    0.4060   -0.6410 C   0  0  0  0  0  0  0  0  0  0  0  0
   -2.8030    0.1190   -0.3960 N   0  0  0  0  0  0  0  0  0  0  0  0
   -2.8690   -0.6580    0.7070 C   0  0  0  0  0  0  0  0  0  0  0  0
   -4.0570   -1.2100    1.3480 C   0  0  0  0  0  0  0  0  0  0  0  0
   -3.9520   -1.9540    2.4230 C   0  0  0  0  0  0  0  0  0  0  0  0
   -5.3410   -2.6220    3.2050 Cl  0  0  0  0  0  0  0  0  0  0  0  0
   -1.6060   -0.8500    1.1390 N   0  0  0  0  0  0  0  0  0  0  0  0
   -0.7380   -0.2090    0.3310 C   0  0  0  0  0  0  0  0  0  0  0  0
    0.7130   -0.1250    0.4150 C   0  0  0  0  0  0  0  0  0  0  0  0
    1.5650   -1.1000   -0.0760 C   0  0  0  0  0  0  0  0  0  0  0  0
    1.0350   -2.3060   -0.7210 C   0  0  0  0  0  0  0  0  0  0  0  0
    0.6150   -1.9940   -2.1170 C   0  0  0  0  0  0  0  0  0  0  0  0
    2.9020   -0.9800    0.0210 N   0  0  0  0  0  0  0  0  0  0  0  0
    3.4440    0.0980    0.6010 C   0  0  0  0  0  0  0  0  0  0  0  0
    2.6560    1.1050    1.1100 C   0  0  0  0  0  0  0  0  0  0  0  0
    3.2990    2.2840    1.7470 C   0  0  1  0  0  0  0  0  0  0  0  0
    2.9110    2.4130    3.0660 F   0  0  0  0  0  0  0  0  0  0  0  0
    4.6520    2.1740    1.5970 F   0  0  0  0  0  0  0  0  0  0  0  0
    2.8450    3.4010    1.0320 F   0  0  0  0  0  0  0  0  0  0  0  0
    1.2900    0.9790    1.0090 C   0  0  0  0  0  0  0  0  0  0  0  0
    0.6020    1.9220    1.4870 O   0  0  0  0  0  0  0  0  0  0  0  0
  1  2  1  0
  2  3  1  0
  3  4  1  0
  3 10  2  0
  4  5  1  0
  5  6  1  0
  5  9  2  0
  6  7  2  3
  7  8  1  0
  9 10  1  0
 10 11  1  0
 11 12  2  0
 11 22  1  0
 12 13  1  0
 12 15  1  0
 13 14  1  0
 15 16  1  0
 16 17  2  0
 17 18  1  0
 17 22  1  0
 18 19  1  1
 18 20  1  0
 18 21  1  0
 22 23  2  0
M  END
