
     RDKit          3D

 18 20  0  0  0  0  0  0  0  0999 V2000
   -1.4730    1.0080   -1.0010 O   0  0  0  0  0  0  0  0  0  0  0  0
   -1.1240    0.1740   -0.1300 C   0  0  0  0  0  0  0  0  0  0  0  0
   -2.1240   -0.4110    0.6260 O   0  0  0  0  0  0  0  0  0  0  0  0
   -3.4720   -0.1090    0.4520 C   0  0  0  0  0  0  0  0  0  0  0  0
   -4.3560   -0.6830   -0.3430 C   0  0  0  0  0  0  0  0  0  0  0  0
   -5.6800   -0.0410   -0.2100 C   0  0  0  0  0  0  0  0  0  0  0  0
   -5.4500    1.0160    0.7960 C   0  0  0  0  0  0  0  0  0  0  0  0
   -4.1820    0.9480    1.1500 C   0  0  0  0  0  0  0  0  0  0  0  0
   -3.3820    2.1270    2.4500 Br  0  0  0  0  0  0  0  0  0  0  0  0
    0.2940   -0.1320    0.0400 C   0  0  0  0  0  0  0  0  0  0  0  0
    0.6680   -1.0510    1.0000 C   0  0  0  0  0  0  0  0  0  0  0  0
    2.0010   -1.3390    1.1600 C   0  0  0  0  0  0  0  0  0  0  0  0
    2.9610   -0.7280    0.3820 C   0  0  0  0  0  0  0  0  0  0  0  0
    2.5790    0.1820   -0.5690 C   0  0  0  0  0  0  0  0  0  0  0  0
    1.2470    0.4690   -0.7280 C   0  0  0  0  0  0  0  0  0  0  0  0
    3.8300    0.6670   -1.2450 C   0  0  0  0  0  0  0  0  0  0  0  0
    4.8430    0.5150   -0.1310 C   0  0  0  0  0  0  0  0  0  0  0  0
    4.4520   -0.8800    0.3760 C   0  0  0  0  0  0  0  0  0  0  0  0
  1  2  2  0
  2  3  1  0
  2 10  1  0
  3  4  1  0
  4  5  2  0
  4  8  1  0
  5  6  1  0
  6  7  1  0
  7  8  2  0
  8  9  1  0
 10 11  2  0
 10 15  1  0
 11 12  1  0
 12 13  2  0
 13 14  1  0
 13 18  1  0
 14 15  2  0
 14 16  1  0
 16 17  1  0
 17 18  1  0
M  END
