
     RDKit          3D

 18 20  0  0  0  0  0  0  0  0999 V2000
   -5.4880    0.8510    0.8330 N   0  0  0  0  0  0  0  0  0  0  0  0
   -4.4150    0.3090    0.0870 C   0  0  0  0  0  0  0  0  0  0  0  0
   -4.6630   -0.4140   -1.0580 C   0  0  0  0  0  0  0  0  0  0  0  0
   -3.6210   -0.9400   -1.7830 C   0  0  0  0  0  0  0  0  0  0  0  0
   -2.3040   -0.7440   -1.3610 C   0  0  0  0  0  0  0  0  0  0  0  0
   -2.0270   -0.0250   -0.2180 C   0  0  0  0  0  0  0  0  0  0  0  0
   -0.6610    0.1920    0.2410 C   0  0  0  0  0  0  0  0  0  0  0  0
    0.4930   -0.2210   -0.2980 N   0  0  0  0  0  0  0  0  0  0  0  0
    1.5310    0.1940    0.4400 C   0  0  0  0  0  0  0  0  0  0  0  0
    2.9550   -0.0170    0.2390 C   0  0  0  0  0  0  0  0  0  0  0  0
    3.4530   -0.7330   -0.8290 C   0  0  0  0  0  0  0  0  0  0  0  0
    4.8010   -0.9430   -1.0340 C   0  0  0  0  0  0  0  0  0  0  0  0
    5.7170   -0.4090   -0.1240 C   0  0  0  0  0  0  0  0  0  0  0  0
    5.2380    0.3090    0.9490 C   0  0  0  0  0  0  0  0  0  0  0  0
    3.8830    0.4970    1.1210 C   0  0  0  0  0  0  0  0  0  0  0  0
    0.9950    0.8850    1.4660 N   0  0  0  0  0  0  0  0  0  0  0  0
   -0.3050    0.8790    1.3390 N   0  0  0  0  0  0  0  0  0  0  0  0
   -3.1060    0.4830    0.4730 C   0  0  0  0  0  0  0  0  0  0  0  0
  1  2  1  0
  2  3  2  0
  2 18  1  0
  3  4  1  0
  4  5  2  0
  5  6  1  0
  6  7  1  0
  6 18  2  0
  7  8  2  0
  7 17  1  0
  8  9  1  0
  9 10  1  0
  9 16  2  0
 10 11  2  0
 10 15  1  0
 11 12  1  0
 12 13  2  0
 13 14  1  0
 14 15  2  0
 16 17  1  0
M  END
