
     RDKit          3D

 18 20  0  0  0  0  0  0  0  0999 V2000
    4.6570   -1.9030    0.5290 C   0  0  0  0  0  0  0  0  0  0  0  0
    4.5400   -0.7530   -0.2540 O   0  0  0  0  0  0  0  0  0  0  0  0
    3.3420   -0.0910   -0.5090 C   0  0  0  0  0  0  0  0  0  0  0  0
    3.3910    1.0330   -1.3030 C   0  0  0  0  0  0  0  0  0  0  0  0
    2.2560    1.7570   -1.6120 C   0  0  0  0  0  0  0  0  0  0  0  0
    1.0370    1.3260   -1.0990 C   0  0  0  0  0  0  0  0  0  0  0  0
    0.9960    0.2120   -0.3140 C   0  0  0  0  0  0  0  0  0  0  0  0
    2.1500   -0.5090   -0.0100 C   0  0  0  0  0  0  0  0  0  0  0  0
   -0.2530   -0.2910    0.2550 C   0  0  0  0  0  0  0  0  0  0  0  0
   -0.2100   -1.8780    1.3560 Br  0  0  0  0  0  0  0  0  0  0  0  0
   -1.3740    0.3480    0.0030 C   0  0  0  0  0  0  0  0  0  0  0  0
   -2.6740   -0.0640    0.5170 C   0  0  0  0  0  0  0  0  0  0  0  0
   -3.7940    0.6240    0.2300 C   0  0  0  0  0  0  0  0  0  0  0  0
   -4.9800    0.0140    0.8620 C   0  0  0  0  0  0  0  0  0  0  0  0
   -4.4240   -1.1350    1.5690 C   0  0  0  0  0  0  0  0  0  0  0  0
   -3.1090   -1.1510    1.3520 C   0  0  0  0  0  0  0  0  0  0  0  0
   -1.3030    1.4840   -0.8030 O   0  0  0  0  0  0  0  0  0  0  0  0
   -0.2040    2.0540   -1.3930 C   0  0  0  0  0  0  0  0  0  0  0  0
  1  2  1  0
  2  3  1  0
  3  4  2  0
  3  8  1  0
  4  5  1  0
  5  6  2  0
  6  7  1  0
  6 18  1  0
  7  8  2  0
  7  9  1  0
  9 10  1  0
  9 11  2  0
 11 12  1  0
 11 17  1  0
 12 13  2  0
 12 16  1  0
 13 14  1  0
 14 15  1  0
 15 16  2  0
 17 18  1  0
M  END
