
     RDKit          3D

 18 20  0  0  0  0  0  0  0  0999 V2000
   -2.2140    3.1830   -0.4790 O   0  0  0  0  0  0  0  0  0  0  0  0
   -2.1720    1.9250   -0.4030 C   0  0  0  0  0  0  0  0  0  0  0  0
   -1.0550    1.2480   -0.2900 O   0  0  0  0  0  0  0  0  0  0  0  0
   -1.0280   -0.0560   -0.2130 C   0  0  0  0  0  0  0  0  0  0  0  0
    0.1620   -0.7650   -0.0930 C   0  0  0  0  0  0  0  0  0  0  0  0
    1.4240    0.0050   -0.0550 C   0  0  0  0  0  0  0  0  0  0  0  0
    2.4930   -0.4190   -0.8140 C   0  0  0  0  0  0  0  0  0  0  0  0
    3.6990    0.2830   -0.8030 C   0  0  0  0  0  0  0  0  0  0  0  0
    3.8030    1.4090   -0.0190 C   0  0  0  0  0  0  0  0  0  0  0  0
    2.7250    1.8160    0.7310 C   0  0  0  0  0  0  0  0  0  0  0  0
    1.5190    1.1310    0.7320 C   0  0  0  0  0  0  0  0  0  0  0  0
    0.1800   -2.1420   -0.0120 C   0  0  0  0  0  0  0  0  0  0  0  0
   -1.0160   -2.8300   -0.0500 C   0  0  0  0  0  0  0  0  0  0  0  0
   -2.1920   -2.1330   -0.1680 C   0  0  0  0  0  0  0  0  0  0  0  0
   -2.2120   -0.7650   -0.2490 C   0  0  0  0  0  0  0  0  0  0  0  0
   -3.4350   -0.0960   -0.3680 C   0  0  0  0  0  0  0  0  0  0  0  0
   -3.4010    1.2770   -0.4460 C   0  0  0  0  0  0  0  0  0  0  0  0
   -5.0370    2.2490   -0.6100 Br  0  0  0  0  0  0  0  0  0  0  0  0
  1  2  2  0
  2  3  1  0
  2 17  1  0
  3  4  1  0
  4  5  2  0
  4 15  1  0
  5  6  1  0
  5 12  1  0
  6  7  2  0
  6 11  1  0
  7  8  1  0
  8  9  2  0
  9 10  1  0
 10 11  2  0
 12 13  2  0
 13 14  1  0
 14 15  2  0
 15 16  1  0
 16 17  2  0
 17 18  1  0
M  END
