
     RDKit          3D

 18 20  0  0  0  0  0  0  0  0999 V2000
    3.7110    0.1100    1.5200 C   0  0  0  0  0  0  0  0  0  0  0  0
    2.3690   -0.0140    0.8840 C   0  0  0  0  0  0  0  0  0  0  0  0
    1.2810    0.7090    1.3240 C   0  0  0  0  0  0  0  0  0  0  0  0
    0.0250    0.5980    0.7350 C   0  0  0  0  0  0  0  0  0  0  0  0
   -1.0550    1.3250    1.1840 C   0  0  0  0  0  0  0  0  0  0  0  0
   -2.3210    1.2290    0.6090 C   0  0  0  0  0  0  0  0  0  0  0  0
   -2.5250    0.3790   -0.4530 C   0  0  0  0  0  0  0  0  0  0  0  0
   -1.4340   -0.3510   -0.9010 C   0  0  0  0  0  0  0  0  0  0  0  0
   -1.6230   -1.2750   -2.0460 C   0  0  0  0  0  0  0  0  0  0  0  0
   -0.1740   -0.2560   -0.3290 C   0  0  0  0  0  0  0  0  0  0  0  0
    0.9120   -0.9810   -0.7730 C   0  0  0  0  0  0  0  0  0  0  0  0
    2.1640   -0.8660   -0.1810 C   0  0  0  0  0  0  0  0  0  0  0  0
    3.3170   -1.6730   -0.6940 C   0  0  0  0  0  0  0  0  0  0  0  0
   -3.9210    0.4730   -0.8520 C   0  0  0  0  0  0  0  0  0  0  0  0
   -4.4910   -0.1580   -1.7930 O   0  0  0  0  0  0  0  0  0  0  0  0
   -4.5530    1.3810   -0.0290 O   0  0  0  0  0  0  0  0  0  0  0  0
   -3.6200    1.8770    0.8860 C   0  0  2  0  0  0  0  0  0  0  0  0
   -3.4290    3.7970    0.7610 Br  0  0  0  0  0  0  0  0  0  0  0  0
  1  2  1  0
  2  3  2  0
  2 12  1  0
  3  4  1  0
  4  5  2  0
  4 10  1  0
  5  6  1  0
  6  7  2  0
  6 17  1  0
  7  8  1  0
  7 14  1  0
  8  9  1  0
  8 10  2  0
 10 11  1  0
 11 12  2  0
 12 13  1  0
 14 15  2  0
 14 16  1  0
 16 17  1  0
 17 18  1  6
M  END
