
     RDKit          3D

 26 28  0  0  0  0  0  0  0  0999 V2000
   -1.9120    2.5620   -0.6970 N   0  0  0  0  0  0  0  0  0  0  0  0
   -1.5830    1.1930   -0.9230 C   0  0  0  0  0  0  0  0  0  0  0  0
   -1.3190    0.7470   -2.0630 O   0  0  0  0  0  0  0  0  0  0  0  0
   -1.5540    0.2540    0.2550 C   0  0  1  0  0  0  0  0  0  0  0  0
   -1.9000    1.0330    1.4150 N   0  0  0  0  0  0  0  0  0  0  0  0
   -2.3990   -0.9450   -0.0010 C   0  0  0  0  0  0  0  0  0  0  0  0
   -3.8040   -0.5940   -0.2510 C   0  0  0  0  0  0  0  0  0  0  0  0
   -4.5750   -0.2490   -1.2740 C   0  0  0  0  0  0  0  0  0  0  0  0
   -5.8640   -0.0470   -1.0110 N   0  0  0  0  0  0  0  0  0  0  0  0
   -6.4280   -0.1240   -0.0220 C   0  0  0  0  0  0  0  0  0  0  0  0
   -7.7230   -0.0120    0.6430 N   0  0  0  0  0  0  0  0  0  0  0  0
   -4.9670   -0.6250    1.1100 S   0  0  0  0  0  0  0  0  0  0  0  0
   -0.1190   -0.1390    0.3870 C   0  0  0  0  0  0  0  0  0  0  0  0
    0.6910    0.7810    0.7430 O   0  0  0  0  0  0  0  0  0  0  0  0
    0.3680   -1.4270    0.1440 N   0  0  0  0  0  0  0  0  0  0  0  0
    1.7450   -1.6630    0.2810 N   0  0  0  0  0  0  0  0  0  0  0  0
    2.6600   -1.1620   -0.6530 C   0  0  0  0  0  0  0  0  0  0  0  0
    2.1260   -0.4720   -1.6160 O   0  0  0  0  0  0  0  0  0  0  0  0
    4.1220   -1.3330   -0.6570 C   0  0  1  0  0  0  0  0  0  0  0  0
    4.6220   -0.8050   -1.8500 O   0  0  0  0  0  0  0  0  0  0  0  0
    5.1650    0.4200   -1.6060 C   0  0  0  0  0  0  0  0  0  0  0  0
    5.4840    0.4570   -0.1430 C   0  0  0  0  0  0  0  0  0  0  0  0
    6.1360    1.1090    0.8570 C   0  0  0  0  0  0  0  0  0  0  0  0
    5.8910    0.4770    1.9720 O   0  0  0  0  0  0  0  0  0  0  0  0
    5.1050   -0.5690    1.7660 C   0  0  0  0  0  0  0  0  0  0  0  0
    4.8290   -0.6050    0.4080 C   0  0  0  0  0  0  0  0  0  0  0  0
  1  2  1  0
  2  3  2  0
  2  4  1  0
  4  5  1  1
  4  6  1  0
  4 13  1  0
  6  7  1  0
  7  8  2  0
  7 12  1  0
  8  9  1  0
  9 10  2  0
 10 11  1  0
 10 12  1  0
 13 14  2  0
 13 15  1  0
 15 16  1  0
 16 17  1  0
 17 18  2  0
 19 17  1  1
 19 20  1  0
 19 26  1  0
 20 21  1  0
 21 22  1  0
 22 23  2  0
 22 26  1  0
 23 24  1  0
 24 25  1  0
 25 26  2  0
M  END
