
     RDKit          3D

 22 25  0  0  0  0  0  0  0  0999 V2000
   -1.3900   -4.4780   -1.4790 O   0  0  0  0  0  0  0  0  0  0  0  0
   -0.9890   -3.2700   -1.3870 C   0  0  0  0  0  0  0  0  0  0  0  0
   -1.5880   -2.0930   -1.8590 N   0  0  0  0  0  0  0  0  0  0  0  0
   -0.8360   -0.9500   -1.3970 C   0  0  1  0  0  0  0  0  0  0  0  0
   -1.6510   -0.2020   -0.3860 C   0  0  0  0  0  0  0  0  0  0  0  0
   -2.1850   -0.8060    0.7260 C   0  0  0  0  0  0  0  0  0  0  0  0
   -2.9660   -0.0940    1.6380 C   0  0  0  0  0  0  0  0  0  0  0  0
   -3.2030    1.2460    1.4150 C   0  0  0  0  0  0  0  0  0  0  0  0
   -3.9860    1.9760    2.3220 O   0  0  0  0  0  0  0  0  0  0  0  0
   -2.6690    1.8550    0.3010 C   0  0  0  0  0  0  0  0  0  0  0  0
   -1.8990    1.1260   -0.5870 C   0  0  0  0  0  0  0  0  0  0  0  0
    0.3850   -1.5050   -0.7980 C   0  0  0  0  0  0  0  0  0  0  0  0
    0.2550   -2.8630   -0.7270 C   0  0  0  0  0  0  0  0  0  0  0  0
    1.3620   -3.3370   -0.1160 N   0  0  0  0  0  0  0  0  0  0  0  0
    2.1600   -2.3570    0.1870 N   0  0  0  0  0  0  0  0  0  0  0  0
    1.6010   -1.1950   -0.2170 C   0  0  0  0  0  0  0  0  0  0  0  0
    2.2300    0.1310   -0.0360 C   0  0  0  0  0  0  0  0  0  0  0  0
    1.7020    1.2660   -0.5730 C   0  0  0  0  0  0  0  0  0  0  0  0
    2.2740    2.5150   -0.3870 C   0  0  0  0  0  0  0  0  0  0  0  0
    3.4230    2.6360    0.3660 C   0  0  0  0  0  0  0  0  0  0  0  0
    3.9770    1.5040    0.9200 C   0  0  0  0  0  0  0  0  0  0  0  0
    3.3760    0.2590    0.7140 C   0  0  0  0  0  0  0  0  0  0  0  0
  1  2  2  0
  2  3  1  0
  2 13  1  0
  3  4  1  0
  4  5  1  1
  4 12  1  0
  5  6  2  0
  5 11  1  0
  6  7  1  0
  7  8  2  0
  8  9  1  0
  8 10  1  0
 10 11  2  0
 12 13  1  0
 12 16  2  0
 13 14  2  0
 14 15  1  0
 15 16  1  0
 16 17  1  0
 17 18  2  0
 17 22  1  0
 18 19  1  0
 19 20  2  0
 20 21  1  0
 21 22  2  0
M  END
