
     RDKit          3D

 26 27  0  0  0  0  0  0  0  0999 V2000
   -6.4980    0.2790   -1.8840 C   0  0  0  0  0  0  0  0  0  0  0  0
   -5.7140   -0.6410   -1.0470 C   0  0  0  0  0  0  0  0  0  0  0  0
   -5.8320   -1.9060   -1.1890 O   0  0  0  0  0  0  0  0  0  0  0  0
   -4.7680   -0.2130   -0.0210 C   0  0  0  0  0  0  0  0  0  0  0  0
   -5.1440   -0.0050    1.2910 C   0  0  0  0  0  0  0  0  0  0  0  0
   -6.5540   -0.2180    1.6950 C   0  0  0  0  0  0  0  0  0  0  0  0
   -4.2470    0.3940    2.2320 N   0  0  0  0  0  0  0  0  0  0  0  0
   -2.9510    0.6030    1.9240 C   0  0  0  0  0  0  0  0  0  0  0  0
   -2.1360    0.9780    2.8350 O   0  0  0  0  0  0  0  0  0  0  0  0
   -2.5570    0.4050    0.6360 C   0  0  0  0  0  0  0  0  0  0  0  0
   -1.2100    0.6080    0.2520 N   0  0  0  0  0  0  0  0  0  0  0  0
   -0.3260   -0.4990    0.3370 C   0  0  0  0  0  0  0  0  0  0  0  0
   -0.6680   -1.6400    0.7310 O   0  0  0  0  0  0  0  0  0  0  0  0
    1.0870   -0.3210   -0.0560 C   0  0  0  0  0  0  0  0  0  0  0  0
    1.4760    0.8110   -0.4590 O   0  0  0  0  0  0  0  0  0  0  0  0
    2.0180   -1.3850    0.0060 N   0  0  0  0  0  0  0  0  0  0  0  0
    3.4060   -1.2620   -0.3620 C   0  0  0  0  0  0  0  0  0  0  0  0
    4.0750   -0.2670    0.5000 C   0  0  0  0  0  0  0  0  0  0  0  0
    5.5100   -0.0630    0.2170 C   0  0  0  0  0  0  0  0  0  0  0  0
    6.1510   -0.7050   -0.7190 C   0  0  0  0  0  0  0  0  0  0  0  0
    7.5480   -0.5220   -1.0120 C   0  0  0  0  0  0  0  0  0  0  0  0
    8.3270    0.2960   -0.3860 C   0  0  0  0  0  0  0  0  0  0  0  0
    8.0580    1.2180    0.7280 C   0  0  0  0  0  0  0  0  0  0  0  0
    6.3500    1.1230    1.2280 S   0  0  0  0  0  0  0  0  0  0  0  0
   -3.4450   -0.0030   -0.3520 C   0  0  0  0  0  0  0  0  0  0  0  0
   -3.0150   -0.2150   -1.7380 C   0  0  0  0  0  0  0  0  0  0  0  0
  1  2  1  0
  2  3  2  0
  2  4  1  0
  4  5  2  0
  4 25  1  0
  5  6  1  0
  5  7  1  0
  7  8  1  0
  8  9  2  0
  8 10  1  0
 10 11  1  0
 10 25  2  0
 11 12  1  0
 12 13  2  0
 12 14  1  0
 14 15  2  0
 14 16  1  0
 16 17  1  0
 17 18  1  0
 18 19  1  0
 19 20  2  0
 19 24  1  0
 20 21  1  0
 21 22  2  0
 22 23  1  0
 23 24  1  0
 25 26  1  0
M  END
