
     RDKit          3D

 26 27  0  0  0  0  0  0  0  0999 V2000
    4.0190   -1.9790   -0.9470 C   0  0  0  0  0  0  0  0  0  0  0  0
    3.5100   -1.6530    0.2390 C   0  0  0  0  0  0  0  0  0  0  0  0
    4.2010   -2.3170    1.7250 S   0  0  0  0  0  0  0  0  0  0  0  0
    3.0520   -2.0420    3.0750 C   0  0  0  0  0  0  0  0  0  0  0  0
    1.7550   -1.4700    2.6310 C   0  0  0  0  0  0  0  0  0  0  0  0
    0.7590   -1.7200    3.3950 O   0  0  0  0  0  0  0  0  0  0  0  0
    1.5870   -0.6990    1.4580 N   0  0  0  0  0  0  0  0  0  0  0  0
    2.3840   -0.7480    0.3080 C   0  0  0  0  0  0  0  0  0  0  0  0
    2.1720   -0.0040   -0.7450 N   0  0  0  0  0  0  0  0  0  0  0  0
    1.0590    0.9280   -0.7470 C   0  0  0  0  0  0  0  0  0  0  0  0
    1.2860    2.2050   -0.8050 C   0  0  0  0  0  0  0  0  0  0  0  0
    2.6970    2.6540   -0.8670 C   0  0  0  0  0  0  0  0  0  0  0  0
    2.9680    4.0460   -0.9310 N   0  0  0  0  0  0  0  0  0  0  0  0
    3.6400    1.8490   -0.8650 O   0  0  0  0  0  0  0  0  0  0  0  0
   -0.2040    0.3410   -0.6850 N   0  0  0  0  0  0  0  0  0  0  0  0
   -1.4030    1.0880   -0.6800 C   0  0  0  0  0  0  0  0  0  0  0  0
   -1.4890    2.3160   -0.7270 O   0  0  0  0  0  0  0  0  0  0  0  0
   -2.6690    0.2900   -0.6100 C   0  0  1  0  0  0  0  0  0  0  0  0
   -2.8010   -0.5670   -1.7820 C   0  0  0  0  0  0  0  0  0  0  0  0
   -1.8730   -1.5830   -2.1470 N   0  0  0  0  0  0  0  0  0  0  0  0
   -3.7920   -0.4280   -2.5500 O   0  0  0  0  0  0  0  0  0  0  0  0
   -2.8330   -0.4110    0.7100 C   0  0  0  0  0  0  0  0  0  0  0  0
   -4.3420   -0.6870    0.6940 C   0  0  0  0  0  0  0  0  0  0  0  0
   -4.8540    0.6050    0.1910 C   0  0  0  0  0  0  0  0  0  0  0  0
   -5.9810    1.0880    0.4030 O   0  0  0  0  0  0  0  0  0  0  0  0
   -3.8280    1.2010   -0.5820 N   0  0  0  0  0  0  0  0  0  0  0  0
  1  2  2  0
  2  3  1  0
  2  8  1  0
  3  4  1  0
  4  5  1  0
  5  6  2  0
  5  7  1  0
  7  8  1  0
  8  9  2  3
  9 10  1  0
 10 11  2  3
 10 15  1  0
 11 12  1  0
 12 13  1  0
 12 14  2  0
 15 16  1  0
 16 17  2  0
 18 16  1  1
 18 19  1  0
 18 22  1  0
 18 26  1  0
 19 20  1  0
 19 21  2  0
 22 23  1  0
 23 24  1  0
 24 25  2  0
 24 26  1  0
M  END
