
     RDKit          3D

 26 27  0  0  0  0  0  0  0  0999 V2000
    1.9680   -3.4270   -1.1060 C   0  0  0  0  0  0  0  0  0  0  0  0
    2.7760   -3.1000   -2.3100 C   0  0  0  0  0  0  0  0  0  0  0  0
    2.4400   -1.8940   -3.0780 C   0  0  0  0  0  0  0  0  0  0  0  0
    2.5110   -0.6160   -2.4920 N   0  0  0  0  0  0  0  0  0  0  0  0
    1.8040   -0.0550   -1.4280 C   0  0  0  0  0  0  0  0  0  0  0  0
    0.9450   -0.7380   -0.8620 O   0  0  0  0  0  0  0  0  0  0  0  0
    2.0270    1.3130   -0.9440 C   0  0  0  0  0  0  0  0  0  0  0  0
    3.1780    2.3670   -1.6250 S   0  0  0  0  0  0  0  0  0  0  0  0
    3.2150    3.9040   -0.8470 C   0  0  0  0  0  0  0  0  0  0  0  0
    2.3150    4.0390    0.1970 C   0  0  0  0  0  0  0  0  0  0  0  0
    2.3450    5.3840    0.8800 C   0  0  0  0  0  0  0  0  0  0  0  0
    1.4500    3.0740    0.6170 C   0  0  0  0  0  0  0  0  0  0  0  0
    0.6930    3.3840    1.5990 O   0  0  0  0  0  0  0  0  0  0  0  0
    1.3070    1.8160    0.1020 C   0  0  0  0  0  0  0  0  0  0  0  0
    0.3230    0.9270    0.6880 N   0  0  0  0  0  0  0  0  0  0  0  0
   -0.9880    0.9180    0.1970 C   0  0  0  0  0  0  0  0  0  0  0  0
   -1.2110    1.7310   -0.7690 O   0  0  0  0  0  0  0  0  0  0  0  0
   -2.0980    0.0920    0.6670 C   0  0  0  0  0  0  0  0  0  0  0  0
   -3.3570    0.1050    0.1360 N   0  0  0  0  0  0  0  0  0  0  0  0
   -4.1630   -0.7430    0.7580 C   0  0  0  0  0  0  0  0  0  0  0  0
   -5.6120   -0.9630    0.4120 C   0  0  0  0  0  0  0  0  0  0  0  0
   -3.4380   -1.3490    1.7370 C   0  0  0  0  0  0  0  0  0  0  0  0
   -3.9020   -2.3520    2.6730 C   0  0  0  0  0  0  0  0  0  0  0  0
   -4.4020   -2.0970    3.7970 O   0  0  0  0  0  0  0  0  0  0  0  0
   -2.1410   -0.8230    1.6770 C   0  0  0  0  0  0  0  0  0  0  0  0
   -1.0370   -1.2300    2.5900 C   0  0  0  0  0  0  0  0  0  0  0  0
  1  2  1  0
  2  3  1  0
  3  4  1  0
  4  5  1  0
  5  6  2  0
  5  7  1  0
  7  8  1  0
  7 14  2  0
  8  9  1  0
  9 10  2  0
 10 11  1  0
 10 12  1  0
 12 13  2  0
 12 14  1  0
 14 15  1  0
 15 16  1  0
 16 17  2  0
 16 18  1  0
 18 19  1  0
 18 25  2  0
 19 20  1  0
 20 21  1  0
 20 22  2  0
 22 23  1  0
 22 25  1  0
 23 24  2  0
 25 26  1  0
M  END
