
     RDKit          3D

 26 27  0  0  0  0  0  0  0  0999 V2000
    1.0670   -3.4620    0.3480 C   0  0  0  0  0  0  0  0  0  0  0  0
   -0.1780   -3.8540    0.1590 C   0  0  0  0  0  0  0  0  0  0  0  0
   -0.3740   -5.2510    0.1790 O   0  0  0  0  0  0  0  0  0  0  0  0
   -1.6100   -5.8000    0.0390 C   0  0  0  0  0  0  0  0  0  0  0  0
   -2.6500   -5.0130   -0.1180 C   0  0  0  0  0  0  0  0  0  0  0  0
   -2.5240   -3.5920   -0.1550 C   0  0  0  0  0  0  0  0  0  0  0  0
   -3.7340   -2.7220   -0.3810 C   0  0  0  0  0  0  0  0  0  0  0  0
   -1.3040   -2.9580   -0.0270 C   0  0  0  0  0  0  0  0  0  0  0  0
   -1.3120   -1.5540    0.1230 C   0  0  0  0  0  0  0  0  0  0  0  0
   -0.7440   -0.4350    0.1210 C   0  0  0  0  0  0  0  0  0  0  0  0
    0.5650    0.0600   -0.1530 C   0  0  0  0  0  0  0  0  0  0  0  0
    0.9370    1.2340    0.2800 O   0  0  0  0  0  0  0  0  0  0  0  0
    1.6070   -0.5520   -0.9130 N   0  0  0  0  0  0  0  0  0  0  0  0
    2.8680    0.0640   -1.1140 C   0  0  0  0  0  0  0  0  0  0  0  0
    3.9360   -0.2240   -1.7140 N   0  0  0  0  0  0  0  0  0  0  0  0
    4.9840    0.5380   -1.7480 C   0  0  0  0  0  0  0  0  0  0  0  0
    4.9420    1.7340   -1.0950 C   0  0  0  0  0  0  0  0  0  0  0  0
    5.9510    2.7940   -0.9540 C   0  0  0  0  0  0  0  0  0  0  0  0
    5.4400    3.8420   -0.1850 O   0  0  0  0  0  0  0  0  0  0  0  0
    3.3100    1.7210   -0.4190 S   0  0  0  0  0  0  0  0  0  0  0  0
   -1.7580    0.6820    0.4490 C   0  0  0  0  0  0  0  0  0  0  0  0
   -2.9380    0.3600    0.7180 O   0  0  0  0  0  0  0  0  0  0  0  0
   -1.4240    2.0330    0.4570 N   0  0  0  0  0  0  0  0  0  0  0  0
   -2.4080    3.0740    0.7830 C   0  0  1  0  0  0  0  0  0  0  0  0
   -1.9640    3.8050    2.0330 C   0  0  0  0  0  0  0  0  0  0  0  0
   -2.5240    4.0430   -0.3720 C   0  0  0  0  0  0  0  0  0  0  0  0
  1  2  2  0
  2  3  1  0
  2  8  1  0
  3  4  1  0
  4  5  2  0
  5  6  1  0
  6  7  1  0
  6  8  2  0
  8  9  1  0
  9 10  2  3
 10 11  1  0
 10 21  1  0
 11 12  2  0
 11 13  1  0
 13 14  1  0
 14 15  2  0
 14 20  1  0
 15 16  1  0
 16 17  2  0
 17 18  1  0
 17 20  1  0
 18 19  1  0
 21 22  2  0
 21 23  1  0
 23 24  1  0
 24 25  1  1
 24 26  1  0
M  END
