
     RDKit          3D

 39 42  0  0  0  0  0  0  0  0999 V2000
   -1.6750   -1.1410   -2.1760 C   0  0  0  0  0  0  0  0  0  0  0  0
   -2.0610   -0.2850   -1.0020 N   0  0  0  0  0  0  0  0  0  0  0  0
   -3.4670   -0.3880   -0.8270 C   0  0  0  0  0  0  0  0  0  0  0  0
   -4.1650    0.6280   -0.0270 C   0  0  0  0  0  0  0  0  0  0  0  0
   -3.6060    1.7200    0.3850 C   0  0  0  0  0  0  0  0  0  0  0  0
   -2.2670    1.9460    0.0310 O   0  0  0  0  0  0  0  0  0  0  0  0
   -4.2880    2.7050    1.1930 C   0  0  0  0  0  0  0  0  0  0  0  0
   -3.5640    3.8870    1.5610 N   0  0  0  0  0  0  0  0  0  0  0  0
   -5.4640    2.5810    1.5830 O   0  0  0  0  0  0  0  0  0  0  0  0
   -5.6130    0.3260    0.2050 C   0  0  0  0  0  0  0  0  0  0  0  0
   -6.0720   -0.7670    0.8350 N   0  0  0  0  0  0  0  0  0  0  0  0
   -7.3910   -0.7800    0.8300 N   0  0  0  0  0  0  0  0  0  0  0  0
   -8.2470   -1.8120    1.4240 C   0  0  0  0  0  0  0  0  0  0  0  0
   -7.8240    0.3210    0.1870 C   0  0  0  0  0  0  0  0  0  0  0  0
   -6.7130    1.0310   -0.2140 C   0  0  0  0  0  0  0  0  0  0  0  0
   -7.1520    2.1990   -0.9090 N   0  0  0  0  0  0  0  0  0  0  0  0
   -8.4320    2.2560   -0.9590 C   0  0  0  0  0  0  0  0  0  0  0  0
   -9.0180    1.0880   -0.2770 C   0  0  0  0  0  0  0  0  0  0  0  0
   -1.3590   -0.8840    0.1470 C   0  0  1  0  0  0  0  0  0  0  0  0
   -1.7720   -2.2820    0.4790 C   0  0  0  0  0  0  0  0  0  0  0  0
   -1.0040   -2.7850    1.6430 N   0  0  0  0  0  0  0  0  0  0  0  0
    0.1270   -0.7830   -0.0600 C   0  0  0  0  0  0  0  0  0  0  0  0
    0.8830   -1.9160   -0.3470 C   0  0  0  0  0  0  0  0  0  0  0  0
    2.2530   -1.8800   -0.5090 C   0  0  0  0  0  0  0  0  0  0  0  0
    2.9330   -0.7060   -0.3920 C   0  0  0  0  0  0  0  0  0  0  0  0
    4.4380   -0.6460   -0.5580 C   0  0  0  0  0  0  0  0  0  0  0  0
    4.8750    0.3140    0.2770 O   0  0  0  0  0  0  0  0  0  0  0  0
    6.2430    0.5920    0.3080 C   0  0  1  0  0  0  0  0  0  0  0  0
    6.3310    1.7380    1.3380 C   0  0  2  0  0  0  0  0  0  0  0  0
    7.5880    2.1830    1.5560 F   0  0  0  0  0  0  0  0  0  0  0  0
    5.8190    1.2970    2.5610 F   0  0  0  0  0  0  0  0  0  0  0  0
    5.4530    2.7480    0.9240 F   0  0  0  0  0  0  0  0  0  0  0  0
    6.9550   -0.6140    0.8140 C   0  0  0  0  0  0  0  0  0  0  0  0
    8.4630   -0.5090    0.6610 C   0  0  0  0  0  0  0  0  0  0  0  0
    8.8190   -0.1770   -0.7760 C   0  0  0  0  0  0  0  0  0  0  0  0
    8.2400    1.2030   -1.0310 C   0  0  0  0  0  0  0  0  0  0  0  0
    6.7480    1.1010   -0.9880 C   0  0  0  0  0  0  0  0  0  0  0  0
    2.2040    0.4230   -0.1100 C   0  0  0  0  0  0  0  0  0  0  0  0
    0.8190    0.4050    0.0570 C   0  0  0  0  0  0  0  0  0  0  0  0
  1  2  1  0
  2  3  1  0
  2 19  1  0
  3  4  1  0
  4  5  2  3
  4 10  1  0
  5  6  1  0
  5  7  1  0
  7  8  1  0
  7  9  2  0
 10 11  2  0
 10 15  1  0
 11 12  1  0
 12 13  1  0
 12 14  1  0
 14 15  2  0
 14 18  1  0
 15 16  1  0
 16 17  2  0
 17 18  1  0
 19 20  1  6
 19 22  1  0
 20 21  1  0
 22 23  2  0
 22 39  1  0
 23 24  1  0
 24 25  2  0
 25 26  1  0
 25 38  1  0
 26 27  1  0
 28 27  1  6
 28 29  1  0
 28 33  1  0
 28 37  1  0
 29 30  1  1
 29 31  1  0
 29 32  1  0
 33 34  1  0
 34 35  1  0
 35 36  1  0
 36 37  1  0
 38 39  2  0
M  CHG  1  21   1
M  END
