
     RDKit          3D

 39 43  0  0  0  0  0  0  0  0999 V2000
    2.8160    0.0100   -3.2340 C   0  0  0  0  0  0  0  0  0  0  0  0
    2.7340   -0.5940   -1.9040 C   0  0  0  0  0  0  0  0  0  0  0  0
    1.6400   -1.3440   -1.5390 C   0  0  0  0  0  0  0  0  0  0  0  0
    1.5370   -1.9080   -0.3020 C   0  0  0  0  0  0  0  0  0  0  0  0
    0.1470   -2.8790    0.2080 S   0  0  0  0  0  0  0  0  0  0  0  0
   -1.0480   -2.9780   -1.1370 C   0  0  0  0  0  0  0  0  0  0  0  0
   -1.6910   -1.6660   -1.4030 C   0  0  0  0  0  0  0  0  0  0  0  0
   -2.4680   -1.6440   -2.3350 O   0  0  0  0  0  0  0  0  0  0  0  0
   -1.4330   -0.4540   -0.6120 C   0  0  0  0  0  0  0  0  0  0  0  0
   -2.6410    0.1670   -0.0980 N   0  0  0  0  0  0  0  0  0  0  0  0
   -3.1670   -0.2670    1.0800 C   0  0  0  0  0  0  0  0  0  0  0  0
   -2.5770   -1.2180    1.6780 O   0  0  0  0  0  0  0  0  0  0  0  0
   -4.2930    0.2570    1.6620 C   0  0  0  0  0  0  0  0  0  0  0  0
   -4.7890   -0.2070    2.8490 C   0  0  0  0  0  0  0  0  0  0  0  0
   -5.9320    0.3270    3.4400 C   0  0  0  0  0  0  0  0  0  0  0  0
   -6.5670    1.3590    2.7820 C   0  0  0  0  0  0  0  0  0  0  0  0
   -6.0890    1.8430    1.5870 C   0  0  0  0  0  0  0  0  0  0  0  0
   -4.9630    1.3060    1.0210 C   0  0  0  0  0  0  0  0  0  0  0  0
   -4.4490    1.7480   -0.1530 C   0  0  0  0  0  0  0  0  0  0  0  0
   -5.0840    2.7820   -0.8020 C   0  0  0  0  0  0  0  0  0  0  0  0
   -4.5480    3.2250   -1.9890 C   0  0  0  0  0  0  0  0  0  0  0  0
   -3.4580    2.7080   -2.5360 N   0  0  0  0  0  0  0  0  0  0  0  0
   -2.8380    1.6820   -1.8810 C   0  0  0  0  0  0  0  0  0  0  0  0
   -1.8060    1.2120   -2.4200 O   0  0  0  0  0  0  0  0  0  0  0  0
   -3.2860    1.1700   -0.7060 C   0  0  0  0  0  0  0  0  0  0  0  0
    2.5630   -1.7240    0.6180 C   0  0  0  0  0  0  0  0  0  0  0  0
    3.6760   -0.9760    0.2830 C   0  0  0  0  0  0  0  0  0  0  0  0
    3.7470   -0.4240   -0.9680 C   0  0  0  0  0  0  0  0  0  0  0  0
    4.8880    0.3530   -1.3530 N   0  0  0  0  0  0  0  0  0  0  0  0
    5.9400    0.5440   -0.4350 C   0  0  0  0  0  0  0  0  0  0  0  0
    6.9970    1.2560   -0.7840 C   0  0  0  0  0  0  0  0  0  0  0  0
    7.0330    1.7840   -2.0260 F   0  0  0  0  0  0  0  0  0  0  0  0
    5.8170   -0.0600    0.8720 C   0  0  0  0  0  0  0  0  0  0  0  0
    6.8850    0.1540    1.7570 O   0  0  0  0  0  0  0  0  0  0  0  0
    4.7380   -0.8060    1.2630 C   0  0  0  0  0  0  0  0  0  0  0  0
    4.7710   -1.3570    2.5900 C   0  0  0  0  0  0  0  0  0  0  0  0
    4.1170   -2.0550    3.4170 C   0  0  0  0  0  0  0  0  0  0  0  0
    2.9550   -2.6740    3.4400 F   0  0  0  0  0  0  0  0  0  0  0  0
    4.7770   -2.2590    4.6880 F   0  0  0  0  0  0  0  0  0  0  0  0
  1  2  1  0
  2  3  2  0
  2 28  1  0
  3  4  1  0
  4  5  1  0
  4 26  2  0
  5  6  1  0
  6  7  1  0
  7  8  2  0
  7  9  1  0
  9 10  1  0
 10 11  1  0
 10 25  1  0
 11 12  2  0
 11 13  1  0
 13 14  2  0
 13 18  1  0
 14 15  1  0
 15 16  2  0
 16 17  1  0
 17 18  2  0
 18 19  1  0
 19 20  1  0
 19 25  2  0
 20 21  2  0
 21 22  1  0
 22 23  1  0
 23 24  2  0
 23 25  1  0
 26 27  1  0
 27 28  2  0
 27 35  1  0
 28 29  1  0
 29 30  1  0
 30 31  2  3
 30 33  1  0
 31 32  1  0
 33 34  1  0
 33 35  2  0
 35 36  1  0
 36 37  2  3
 37 38  1  0
 37 39  1  0
M  END
