
     RDKit          3D

 39 42  0  0  0  0  0  0  0  0999 V2000
    9.6300   -1.2130    3.1780 N   0  0  0  0  0  0  0  0  0  0  0  0
    9.0370   -1.7440    2.1620 C   0  0  0  0  0  0  0  0  0  0  0  0
    7.9930   -1.0650    1.4800 N   0  0  0  0  0  0  0  0  0  0  0  0
    8.2330    0.0930    0.6400 C   0  0  0  0  0  0  0  0  0  0  0  0
    7.4160    1.2620    1.0990 C   0  0  0  0  0  0  0  0  0  0  0  0
    6.4140    0.8550    2.1520 C   0  0  0  0  0  0  0  0  0  0  0  0
    5.6550   -0.3500    1.6460 C   0  0  1  0  0  0  0  0  0  0  0  0
    5.0650   -0.0160    0.3770 N   0  0  0  0  0  0  0  0  0  0  0  0
    3.6590    0.0880    0.1990 C   0  0  0  0  0  0  0  0  0  0  0  0
    2.9250   -0.1240    1.2010 O   0  0  0  0  0  0  0  0  0  0  0  0
    3.0810    0.4330   -1.1180 C   0  0  0  0  0  0  0  0  0  0  0  0
    3.8640    0.6220   -2.0510 O   0  0  0  0  0  0  0  0  0  0  0  0
    1.6880    0.5410   -1.3050 N   0  0  0  0  0  0  0  0  0  0  0  0
    1.0220    0.8670   -2.5150 C   0  0  0  0  0  0  0  0  0  0  0  0
    1.6720    1.2930   -3.6420 C   0  0  0  0  0  0  0  0  0  0  0  0
    1.0110    1.6550   -4.8250 C   0  0  0  0  0  0  0  0  0  0  0  0
   -0.3490    1.5900   -4.8850 C   0  0  0  0  0  0  0  0  0  0  0  0
   -1.0480    1.9340   -6.0160 F   0  0  0  0  0  0  0  0  0  0  0  0
   -1.0190    1.1630   -3.7590 C   0  0  0  0  0  0  0  0  0  0  0  0
   -0.3870    0.8030   -2.5900 C   0  0  0  0  0  0  0  0  0  0  0  0
   -1.0650    0.3210   -1.4510 N   0  0  0  0  0  0  0  0  0  0  0  0
   -2.4960    0.3270   -1.2690 C   0  0  0  0  0  0  0  0  0  0  0  0
   -3.2070    0.7890   -2.1670 O   0  0  0  0  0  0  0  0  0  0  0  0
   -3.0860   -0.1820   -0.0960 N   0  0  0  0  0  0  0  0  0  0  0  0
   -4.4590   -0.2370    0.2180 C   0  0  0  0  0  0  0  0  0  0  0  0
   -5.4010    0.3860   -0.5560 C   0  0  0  0  0  0  0  0  0  0  0  0
   -6.7590    0.3040   -0.2290 C   0  0  0  0  0  0  0  0  0  0  0  0
   -7.2050   -0.3960    0.8700 C   0  0  0  0  0  0  0  0  0  0  0  0
   -8.6060   -0.4890    1.2200 C   0  0  0  0  0  0  0  0  0  0  0  0
   -9.3950    0.6270    1.1890 C   0  0  0  0  0  0  0  0  0  0  0  0
  -10.7490    0.5650    1.5200 C   0  0  0  0  0  0  0  0  0  0  0  0
  -11.5480    1.6430    1.4980 F   0  0  0  0  0  0  0  0  0  0  0  0
  -11.2470   -0.6540    1.8750 C   0  0  0  0  0  0  0  0  0  0  0  0
  -10.4630   -1.7650    1.9070 C   0  0  0  0  0  0  0  0  0  0  0  0
   -9.1310   -1.7010    1.5800 C   0  0  0  0  0  0  0  0  0  0  0  0
   -8.3520   -2.8240    1.6160 F   0  0  0  0  0  0  0  0  0  0  0  0
   -6.2280   -1.0090    1.6240 C   0  0  0  0  0  0  0  0  0  0  0  0
   -4.9020   -0.9490    1.3330 C   0  0  0  0  0  0  0  0  0  0  0  0
    6.6110   -1.5050    1.5920 C   0  0  0  0  0  0  0  0  0  0  0  0
  1  2  2  0
  2  3  1  0
  3  4  1  0
  3 39  1  0
  4  5  1  0
  5  6  1  0
  6  7  1  0
  7  8  1  6
  7 39  1  0
  8  9  1  0
  9 10  2  0
  9 11  1  0
 11 12  2  0
 11 13  1  0
 13 14  1  0
 14 15  2  0
 14 20  1  0
 15 16  1  0
 16 17  2  0
 17 18  1  0
 17 19  1  0
 19 20  2  0
 20 21  1  0
 21 22  1  0
 22 23  2  0
 22 24  1  0
 24 25  1  0
 25 26  2  0
 25 38  1  0
 26 27  1  0
 27 28  2  0
 28 29  1  0
 28 37  1  0
 29 30  2  0
 29 35  1  0
 30 31  1  0
 31 32  1  0
 31 33  2  0
 33 34  1  0
 34 35  2  0
 35 36  1  0
 37 38  2  0
M  CHG  1   1   1
M  END
