
     RDKit          3D

 39 42  0  0  0  0  0  0  0  0999 V2000
    9.0660   -2.3840   -0.9600 C   0  0  0  0  0  0  0  0  0  0  0  0
    8.8710   -0.9580   -0.6010 C   0  0  0  0  0  0  0  0  0  0  0  0
   10.0050   -0.1520   -0.4720 C   0  0  0  0  0  0  0  0  0  0  0  0
    9.9410    1.1810   -0.1370 C   0  0  0  0  0  0  0  0  0  0  0  0
   11.0610    1.9590   -0.0080 F   0  0  0  0  0  0  0  0  0  0  0  0
    8.6820    1.7030    0.0700 C   0  0  0  0  0  0  0  0  0  0  0  0
    8.5300    3.0140    0.4070 F   0  0  0  0  0  0  0  0  0  0  0  0
    7.5450    0.9230   -0.0540 C   0  0  0  0  0  0  0  0  0  0  0  0
    7.6380   -0.4070   -0.3880 C   0  0  0  0  0  0  0  0  0  0  0  0
    6.4680   -1.1740   -0.4900 N   0  0  0  0  0  0  0  0  0  0  0  0
    5.1880   -0.5490   -0.2040 C   0  0  0  0  0  0  0  0  0  0  0  0
    4.0430   -1.5000   -0.2090 C   0  0  0  0  0  0  0  0  0  0  0  0
    2.8160   -0.7930    0.1190 N   0  0  0  0  0  0  0  0  0  0  0  0
    2.6580   -0.1060    1.3580 C   0  0  0  0  0  0  0  0  0  0  0  0
    3.6250   -0.1120    2.1730 O   0  0  0  0  0  0  0  0  0  0  0  0
    1.4190    0.5840    1.6830 C   0  0  0  0  0  0  0  0  0  0  0  0
    0.2440    0.5030    0.9880 C   0  0  0  0  0  0  0  0  0  0  0  0
   -0.9010    1.1430    1.3550 C   0  0  0  0  0  0  0  0  0  0  0  0
   -2.1540    1.0690    0.7170 N   0  0  0  0  0  0  0  0  0  0  0  0
   -2.4350    0.7790   -0.6310 C   0  0  0  0  0  0  0  0  0  0  0  0
   -1.4980    0.6110   -1.4160 O   0  0  0  0  0  0  0  0  0  0  0  0
   -3.8340    0.6740   -1.1100 C   0  0  0  0  0  0  0  0  0  0  0  0
   -4.4290    1.0980   -2.2440 C   0  0  0  0  0  0  0  0  0  0  0  0
   -5.8080    0.8270   -2.1930 C   0  0  0  0  0  0  0  0  0  0  0  0
   -6.7730    1.2060   -3.2720 C   0  0  0  0  0  0  0  0  0  0  0  0
   -6.0430    0.2300   -1.0100 N   0  0  0  0  0  0  0  0  0  0  0  0
   -7.3000   -0.3100   -0.5250 C   0  0  0  0  0  0  0  0  0  0  0  0
   -7.6220   -0.5600    0.7370 C   0  0  0  0  0  0  0  0  0  0  0  0
   -8.9910   -1.1200    0.8370 C   0  0  0  0  0  0  0  0  0  0  0  0
   -9.5740   -1.4610    1.9280 N   0  0  0  0  0  0  0  0  0  0  0  0
   -9.4440   -1.1760   -0.5320 C   0  0  0  0  0  0  0  0  0  0  0  0
   -8.4530   -0.7050   -1.3010 C   0  0  0  0  0  0  0  0  0  0  0  0
   -8.6290   -0.6880   -2.6390 F   0  0  0  0  0  0  0  0  0  0  0  0
   -4.8720    0.1180   -0.3280 C   0  0  0  0  0  0  0  0  0  0  0  0
   -4.6130   -0.5550    0.9520 C   0  0  0  0  0  0  0  0  0  0  0  0
   -0.8280    1.9270    2.5220 C   0  0  0  0  0  0  0  0  0  0  0  0
    0.3520    2.0140    3.2230 C   0  0  0  0  0  0  0  0  0  0  0  0
    0.3490    2.7430    4.2710 O   0  0  0  0  0  0  0  0  0  0  0  0
    1.4280    1.3570    2.8020 N   0  0  0  0  0  0  0  0  0  0  0  0
  1  2  1  0
  2  3  2  0
  2  9  1  0
  3  4  1  0
  4  5  1  0
  4  6  2  0
  6  7  1  0
  6  8  1  0
  8  9  2  0
  9 10  1  0
 10 11  1  0
 11 12  1  0
 12 13  1  0
 13 14  1  0
 14 15  2  0
 14 16  1  0
 16 17  2  0
 16 39  1  0
 17 18  1  0
 18 19  1  0
 18 36  2  0
 19 20  1  0
 20 21  2  0
 20 22  1  0
 22 23  1  0
 22 34  2  0
 23 24  2  0
 24 25  1  0
 24 26  1  0
 26 27  1  0
 26 34  1  0
 27 28  2  0
 27 32  1  0
 28 29  1  0
 29 30  2  0
 29 31  1  0
 31 32  2  0
 32 33  1  0
 34 35  1  0
 36 37  1  0
 37 38  2  0
 37 39  1  0
M  CHG  1  30   1
M  END
