
     RDKit          3D

 38 42  0  0  0  0  0  0  0  0999 V2000
   -9.6170   -1.7540    0.5000 C   0  0  0  0  0  0  0  0  0  0  0  0
   -9.7000   -0.7040    1.4250 O   0  0  0  0  0  0  0  0  0  0  0  0
   -8.9380    0.3650    0.9600 C   0  0  0  0  0  0  0  0  0  0  0  0
   -7.5040   -0.1080    0.8210 C   0  0  0  0  0  0  0  0  0  0  0  0
   -6.5230   -0.2670    1.3980 N   0  0  0  0  0  0  0  0  0  0  0  0
   -5.3510   -0.7190    1.0210 C   0  0  0  0  0  0  0  0  0  0  0  0
   -4.1260   -0.9080    1.8730 C   0  0  0  0  0  0  0  0  0  0  0  0
   -3.2570    0.2980    1.9630 C   0  0  0  0  0  0  0  0  0  0  0  0
   -2.7660    0.7330    0.6420 C   0  0  0  0  0  0  0  0  0  0  0  0
   -3.5100    0.9960   -0.3460 O   0  0  0  0  0  0  0  0  0  0  0  0
   -1.3850    0.8820    0.4070 O   0  0  0  0  0  0  0  0  0  0  0  0
   -0.9370    1.2950   -0.8540 C   0  0  2  0  0  0  0  0  0  0  0  0
   -0.1300    0.1840   -1.4420 C   0  0  0  0  0  0  0  0  0  0  0  0
   -0.5620   -0.9860   -1.6010 O   0  0  0  0  0  0  0  0  0  0  0  0
    1.1700    0.6780   -1.7780 N   0  0  0  0  0  0  0  0  0  0  0  0
    2.2060   -0.0980   -2.3920 C   0  0  0  0  0  0  0  0  0  0  0  0
    3.1040   -0.7680   -1.4480 C   0  0  0  0  0  0  0  0  0  0  0  0
    2.7280   -1.8660   -0.6880 C   0  0  0  0  0  0  0  0  0  0  0  0
    3.6150   -2.4620    0.1680 C   0  0  0  0  0  0  0  0  0  0  0  0
    4.9250   -1.9850    0.3060 C   0  0  0  0  0  0  0  0  0  0  0  0
    5.3230   -0.9030   -0.4310 C   0  0  0  0  0  0  0  0  0  0  0  0
    4.3970   -0.3240   -1.2900 C   0  0  0  0  0  0  0  0  0  0  0  0
    6.6830   -0.3950   -0.3190 C   0  0  0  0  0  0  0  0  0  0  0  0
    7.5930   -0.9280    0.4740 C   0  0  0  0  0  0  0  0  0  0  0  0
    8.9850   -0.4230    0.6010 C   0  0  0  0  0  0  0  0  0  0  0  0
    9.9230   -1.3780    0.2570 F   0  0  0  0  0  0  0  0  0  0  0  0
    7.1880   -2.0550    1.2360 N   0  0  0  0  0  0  0  0  0  0  0  0
    5.8700   -2.6290    1.2340 C   0  0  1  0  0  0  0  0  0  0  0  0
    5.3240   -2.5450    2.5140 F   0  0  0  0  0  0  0  0  0  0  0  0
    5.9350   -3.9850    0.9530 F   0  0  0  0  0  0  0  0  0  0  0  0
    1.2040    2.0470   -1.3900 C   0  0  0  0  0  0  0  0  0  0  0  0
    2.2260    2.9680   -1.4820 C   0  0  0  0  0  0  0  0  0  0  0  0
    2.0220    4.2620   -1.0160 C   0  0  0  0  0  0  0  0  0  0  0  0
    0.8270    4.6560   -0.4610 C   0  0  0  0  0  0  0  0  0  0  0  0
   -0.1740    3.7150   -0.3830 C   0  0  0  0  0  0  0  0  0  0  0  0
    0.0060    2.4220   -0.8410 C   0  0  0  0  0  0  0  0  0  0  0  0
   -5.3090   -1.0650   -0.3370 C   0  0  0  0  0  0  0  0  0  0  0  0
   -6.9730   -0.6940   -0.9050 S   0  0  0  0  0  0  0  0  0  0  0  0
  1  2  1  0
  2  3  1  0
  3  4  1  0
  4  5  2  0
  4 38  1  0
  5  6  1  0
  6  7  1  0
  6 37  2  0
  7  8  1  0
  8  9  1  0
  9 10  2  0
  9 11  1  0
 12 11  1  1
 12 13  1  0
 12 36  1  0
 13 14  2  0
 13 15  1  0
 15 16  1  0
 15 31  1  0
 16 17  1  0
 17 18  2  0
 17 22  1  0
 18 19  1  0
 19 20  2  0
 20 21  1  0
 20 28  1  0
 21 22  2  0
 21 23  1  0
 23 24  2  0
 24 25  1  0
 24 27  1  0
 25 26  1  0
 27 28  1  0
 28 29  1  1
 28 30  1  0
 31 32  2  0
 31 36  1  0
 32 33  1  0
 33 34  2  0
 34 35  1  0
 35 36  2  0
 37 38  1  0
M  END
