
     RDKit          3D

 39 42  0  0  0  0  0  0  0  0999 V2000
   -6.0890   -2.6880    1.3010 C   0  0  0  0  0  0  0  0  0  0  0  0
   -5.4260   -1.8450    0.5700 C   0  0  0  0  0  0  0  0  0  0  0  0
   -5.7230   -0.5060    0.5700 C   0  0  0  0  0  0  0  0  0  0  0  0
   -6.6750    0.0390    1.2850 C   0  0  0  0  0  0  0  0  0  0  0  0
   -6.9250    1.4940    1.2220 C   0  0  0  0  0  0  0  0  0  0  0  0
   -4.9680    0.3370   -0.2400 C   0  0  0  0  0  0  0  0  0  0  0  0
   -3.9430   -0.1160   -1.0350 C   0  0  0  0  0  0  0  0  0  0  0  0
   -3.1770    0.7620   -1.9020 C   0  0  0  0  0  0  0  0  0  0  0  0
   -1.7090    0.8610   -1.7390 C   0  0  0  0  0  0  0  0  0  0  0  0
   -1.0520    1.6090   -2.5000 O   0  0  0  0  0  0  0  0  0  0  0  0
   -1.0370    0.1240   -0.7330 N   0  0  0  0  0  0  0  0  0  0  0  0
    0.3470    0.1180   -0.4840 C   0  0  0  0  0  0  0  0  0  0  0  0
    1.2310    0.4320   -1.5210 C   0  0  0  0  0  0  0  0  0  0  0  0
    2.5890    0.2840   -1.3110 C   0  0  0  0  0  0  0  0  0  0  0  0
    3.5120    0.5840   -2.3100 C   0  0  0  0  0  0  0  0  0  0  0  0
    4.8710    0.4450   -2.1240 C   0  0  0  0  0  0  0  0  0  0  0  0
    5.3680    0.0000   -0.9300 C   0  0  0  0  0  0  0  0  0  0  0  0
    6.7240   -0.1300   -0.7680 O   0  0  0  0  0  0  0  0  0  0  0  0
    7.3390   -0.5790    0.4210 C   0  0  0  0  0  0  0  0  0  0  0  0
    8.8300   -0.5760    0.1890 C   0  0  0  0  0  0  0  0  0  0  0  0
    9.2410    0.7010   -0.1180 O   0  0  0  0  0  0  0  0  0  0  0  0
    9.0060    1.6500    0.8400 C   0  0  0  0  0  0  0  0  0  0  0  0
    4.4540   -0.3040    0.0810 C   0  0  0  0  0  0  0  0  0  0  0  0
    3.0960   -0.1630   -0.1130 C   0  0  0  0  0  0  0  0  0  0  0  0
    2.2370   -0.4740    0.9160 C   0  0  0  0  0  0  0  0  0  0  0  0
    0.8560   -0.3180    0.6940 C   0  0  0  0  0  0  0  0  0  0  0  0
   -0.0030   -0.5360    1.9060 C   0  0  0  0  0  0  0  0  0  0  0  0
    0.0860   -1.0450    2.9600 N   0  0  0  0  0  0  0  0  0  0  0  0
   -0.8160   -1.1270    3.9070 C   0  0  0  0  0  0  0  0  0  0  0  0
   -2.0080   -0.5560    3.6480 C   0  0  0  0  0  0  0  0  0  0  0  0
   -1.7570    0.0990    1.9840 S   0  0  0  0  0  0  0  0  0  0  0  0
   -3.7410    1.4850   -2.8290 C   0  0  0  0  0  0  0  0  0  0  0  0
   -2.9160    2.2830   -3.5860 F   0  0  0  0  0  0  0  0  0  0  0  0
   -5.1660    1.5480   -3.1900 C   0  0  1  0  0  0  0  0  0  0  0  0
   -5.1830    1.4210   -4.6030 F   0  0  0  0  0  0  0  0  0  0  0  0
   -5.9380    0.5450   -2.6570 F   0  0  0  0  0  0  0  0  0  0  0  0
   -3.6670   -1.4540   -1.0180 N   0  0  0  0  0  0  0  0  0  0  0  0
   -4.3920   -2.2650   -0.2400 C   0  0  0  0  0  0  0  0  0  0  0  0
   -4.1010   -3.5080   -0.2520 O   0  0  0  0  0  0  0  0  0  0  0  0
  1  2  2  0
  2  3  1  0
  2 38  1  0
  3  4  2  3
  3  6  1  0
  4  5  1  0
  6  7  2  0
  7  8  1  0
  7 37  1  0
  8  9  1  0
  8 32  2  3
  9 10  2  0
  9 11  1  0
 11 12  1  0
 12 13  2  0
 12 26  1  0
 13 14  1  0
 14 15  2  0
 14 24  1  0
 15 16  1  0
 16 17  2  0
 17 18  1  0
 17 23  1  0
 18 19  1  0
 19 20  1  0
 20 21  1  0
 21 22  1  0
 23 24  2  0
 24 25  1  0
 25 26  2  0
 26 27  1  0
 27 28  2  0
 27 31  1  0
 28 29  1  0
 29 30  2  0
 30 31  1  0
 32 33  1  0
 32 34  1  0
 34 35  1  6
 34 36  1  0
 37 38  1  0
 38 39  2  0
M  END
