
     RDKit          3D

 39 43  0  0  0  0  0  0  0  0999 V2000
   10.2460   -4.2070    0.4170 C   0  0  0  0  0  0  0  0  0  0  0  0
   10.3430   -3.1780    1.3240 O   0  0  0  0  0  0  0  0  0  0  0  0
    9.4910   -2.1430    1.0550 C   0  0  0  0  0  0  0  0  0  0  0  0
    8.0230   -2.5020    1.0560 C   0  0  0  0  0  0  0  0  0  0  0  0
    7.1190   -0.9720    0.6880 S   0  0  0  0  0  0  0  0  0  0  0  0
    5.3620   -1.2690    0.6610 C   0  0  0  0  0  0  0  0  0  0  0  0
    4.4320   -0.2830    0.4070 C   0  0  0  0  0  0  0  0  0  0  0  0
    3.1720   -0.8430    0.4610 C   0  0  0  0  0  0  0  0  0  0  0  0
    1.8890   -0.1360    0.2470 C   0  0  0  0  0  0  0  0  0  0  0  0
    0.8500   -0.8120    0.3360 O   0  0  0  0  0  0  0  0  0  0  0  0
    1.8210    1.2280   -0.0430 N   0  0  0  0  0  0  0  0  0  0  0  0
    0.6890    2.0280   -0.2690 C   0  0  0  0  0  0  0  0  0  0  0  0
   -0.5820    1.5250   -0.2280 C   0  0  0  0  0  0  0  0  0  0  0  0
   -1.6790    2.3700   -0.4610 C   0  0  0  0  0  0  0  0  0  0  0  0
   -1.5390    3.7110   -0.7360 C   0  0  0  0  0  0  0  0  0  0  0  0
   -0.2530    4.2060   -0.7750 C   0  0  0  0  0  0  0  0  0  0  0  0
    0.8280    3.3800   -0.5460 C   0  0  0  0  0  0  0  0  0  0  0  0
    2.1310    3.8810   -0.5850 O   0  0  0  0  0  0  0  0  0  0  0  0
    2.4570    5.2100   -0.8480 C   0  0  0  0  0  0  0  0  0  0  0  0
   -2.7360    4.1900   -0.8970 O   0  0  0  0  0  0  0  0  0  0  0  0
   -3.6670    3.2710   -0.7510 C   0  0  0  0  0  0  0  0  0  0  0  0
   -5.0420    3.2720   -0.8210 C   0  0  0  0  0  0  0  0  0  0  0  0
   -5.7280    2.0980   -0.6090 C   0  0  0  0  0  0  0  0  0  0  0  0
   -5.1320    0.8860   -0.3230 C   0  0  0  0  0  0  0  0  0  0  0  0
   -5.8590   -0.3430   -0.0690 C   0  0  0  0  0  0  0  0  0  0  0  0
   -5.8190   -1.3460   -1.0140 C   0  0  0  0  0  0  0  0  0  0  0  0
   -6.5230   -2.5410   -0.8250 C   0  0  0  0  0  0  0  0  0  0  0  0
   -6.5020   -3.6410   -1.8200 C   0  0  0  0  0  0  0  0  0  0  0  0
   -7.2630   -2.7130    0.3190 C   0  0  0  0  0  0  0  0  0  0  0  0
   -7.3090   -1.7180    1.2690 C   0  0  0  0  0  0  0  0  0  0  0  0
   -6.5940   -0.5240    1.0610 C   0  0  0  0  0  0  0  0  0  0  0  0
   -6.6680    0.4770    2.1170 C   0  0  1  0  0  0  0  0  0  0  0  0
   -5.4270    0.8100    2.6370 F   0  0  0  0  0  0  0  0  0  0  0  0
   -7.4290    1.5530    1.7510 F   0  0  0  0  0  0  0  0  0  0  0  0
   -7.3490   -0.0520    3.2440 F   0  0  0  0  0  0  0  0  0  0  0  0
   -3.7310    0.8990   -0.2550 C   0  0  0  0  0  0  0  0  0  0  0  0
   -3.0490    2.0710   -0.4680 C   0  0  0  0  0  0  0  0  0  0  0  0
    3.3570   -2.1390    0.7430 N   0  0  0  0  0  0  0  0  0  0  0  0
    4.6680   -2.3900    0.8620 N   0  0  0  0  0  0  0  0  0  0  0  0
  1  2  1  0
  2  3  1  0
  3  4  1  0
  4  5  1  0
  5  6  1  0
  6  7  2  0
  6 39  1  0
  7  8  1  0
  8  9  1  0
  8 38  2  0
  9 10  2  0
  9 11  1  0
 11 12  1  0
 12 13  2  0
 12 17  1  0
 13 14  1  0
 14 15  2  0
 14 37  1  0
 15 16  1  0
 15 20  1  0
 16 17  2  0
 17 18  1  0
 18 19  1  0
 20 21  1  0
 21 22  2  0
 21 37  1  0
 22 23  1  0
 23 24  2  0
 24 25  1  0
 24 36  1  0
 25 26  2  0
 25 31  1  0
 26 27  1  0
 27 28  1  0
 27 29  2  0
 29 30  1  0
 30 31  2  0
 31 32  1  0
 32 33  1  1
 32 34  1  0
 32 35  1  0
 36 37  2  0
 38 39  1  0
M  END
