
     RDKit          3D

 27 29  0  0  0  0  0  0  0  0999 V2000
   -6.6220    0.9940    2.2650 N   0  0  0  0  0  0  0  0  0  0  0  0
   -5.8930    0.3230    1.2460 C   0  0  0  0  0  0  0  0  0  0  0  0
   -6.5690   -0.4190    0.3600 N   0  0  0  0  0  0  0  0  0  0  0  0
   -5.9500   -1.0800   -0.6290 C   0  0  0  0  0  0  0  0  0  0  0  0
   -4.6130   -0.9860   -0.7210 N   0  0  0  0  0  0  0  0  0  0  0  0
   -3.8690   -0.2530    0.1420 C   0  0  0  0  0  0  0  0  0  0  0  0
   -4.5230    0.4240    1.1590 C   0  0  0  0  0  0  0  0  0  0  0  0
   -3.5910    1.0650    1.8680 N   0  0  0  0  0  0  0  0  0  0  0  0
   -2.3800    0.7920    1.3040 C   0  0  0  0  0  0  0  0  0  0  0  0
   -2.5560   -0.0140    0.2500 N   0  0  0  0  0  0  0  0  0  0  0  0
   -1.5220   -0.5210   -0.5990 C   0  0  2  0  0  0  0  0  0  0  0  0
   -0.3830   -0.9040    0.0850 O   0  0  0  0  0  0  0  0  0  0  0  0
    0.6670   -0.7460   -0.8290 C   0  0  2  0  0  0  0  0  0  0  0  0
    2.0010   -0.8510   -0.1460 C   0  0  0  0  0  0  0  0  0  0  0  0
    2.9810   -0.6800   -1.1390 O   0  0  0  0  0  0  0  0  0  0  0  0
    4.5330   -0.7780   -0.4890 P   0  0  2  0  0  0  0  0  0  0  0  0
    5.4160    0.1600   -1.2750 O   0  0  0  0  0  0  0  0  0  0  0  0
    5.0700   -2.3930   -0.6560 O   0  0  0  0  0  0  0  0  0  0  0  0
    4.5860   -0.3510    1.1230 O   0  0  0  0  0  0  0  0  0  0  0  0
    5.9740    0.5650    1.4030 P   0  0  1  0  0  0  0  0  0  0  0  0
    7.0610    0.2650    0.3780 O   0  0  0  0  0  0  0  0  0  0  0  0
    5.5740    2.2110    1.2480 O   0  0  0  0  0  0  0  0  0  0  0  0
    6.6060    0.3370    2.9350 O   0  0  0  0  0  0  0  0  0  0  0  0
    0.3820    0.6520   -1.3340 C   0  0  1  0  0  0  0  0  0  0  0  0
    1.0970    0.9550   -2.4860 O   0  0  0  0  0  0  0  0  0  0  0  0
   -1.1060    0.5330   -1.6050 C   0  0  1  0  0  0  0  0  0  0  0  0
   -1.2390    0.0380   -2.9040 O   0  0  0  0  0  0  0  0  0  0  0  0
  1  2  1  0
  2  3  2  0
  2  7  1  0
  3  4  1  0
  4  5  2  0
  5  6  1  0
  6  7  2  0
  6 10  1  0
  7  8  1  0
  8  9  2  0
  9 10  1  0
 11 10  1  1
 11 12  1  0
 11 26  1  0
 12 13  1  0
 13 14  1  1
 13 24  1  0
 14 15  1  0
 15 16  1  0
 16 17  2  0
 16 18  1  1
 16 19  1  0
 19 20  1  0
 20 21  2  0
 20 22  1  1
 20 23  1  0
 24 25  1  6
 24 26  1  0
 26 27  1  6
M  END
