
     RDKit          3D

 27 28  0  0  0  0  0  0  0  0999 V2000
   -5.2100   -2.2690   -1.0560 C   0  0  0  0  0  0  0  0  0  0  0  0
   -4.2360   -1.3010   -0.6550 O   0  0  0  0  0  0  0  0  0  0  0  0
   -2.9800   -1.6610   -0.1970 C   0  0  0  0  0  0  0  0  0  0  0  0
   -2.7260   -2.8860   -0.1470 O   0  0  0  0  0  0  0  0  0  0  0  0
   -1.9800   -0.6720    0.2130 C   0  0  0  0  0  0  0  0  0  0  0  0
   -0.7990   -1.1520    0.6270 C   0  0  0  0  0  0  0  0  0  0  0  0
    0.1850   -0.2240    1.0310 N   0  0  0  0  0  0  0  0  0  0  0  0
    1.5520   -0.3730    0.6930 C   0  0  0  0  0  0  0  0  0  0  0  0
    1.8740   -0.5970   -0.5500 N   0  0  0  0  0  0  0  0  0  0  0  0
    3.2190   -0.7510   -0.9260 C   0  0  0  0  0  0  0  0  0  0  0  0
    3.5610   -1.8110   -1.4980 O   0  0  0  0  0  0  0  0  0  0  0  0
    4.1770    0.2910   -0.6550 C   0  0  0  0  0  0  0  0  0  0  0  0
    5.4910    0.0940   -1.0150 C   0  0  0  0  0  0  0  0  0  0  0  0
    6.4360    1.0530   -0.7690 C   0  0  0  0  0  0  0  0  0  0  0  0
    6.0820    2.1850   -0.1790 O   0  0  0  0  0  0  0  0  0  0  0  0
    4.8470    2.4060    0.1760 C   0  0  0  0  0  0  0  0  0  0  0  0
    4.4870    3.4910    0.7470 O   0  0  0  0  0  0  0  0  0  0  0  0
    3.8350    1.4750   -0.0430 C   0  0  0  0  0  0  0  0  0  0  0  0
   -0.5770   -2.4990    0.6550 O   0  0  0  0  0  0  0  0  0  0  0  0
    0.0990   -3.3330   -0.2100 C   0  0  0  0  0  0  0  0  0  0  0  0
   -2.2810    0.7300    0.1630 C   0  0  0  0  0  0  0  0  0  0  0  0
   -3.4900    1.1060    0.7930 C   0  0  0  0  0  0  0  0  0  0  0  0
   -3.8440    2.4250    0.7490 C   0  0  0  0  0  0  0  0  0  0  0  0
   -3.0660    3.3660    0.1230 C   0  0  0  0  0  0  0  0  0  0  0  0
   -1.9190    3.0010   -0.4730 N   0  0  0  0  0  0  0  0  0  0  0  0
   -1.5380    1.6850   -0.4480 C   0  0  0  0  0  0  0  0  0  0  0  0
   -0.4620    1.3670   -1.0160 O   0  0  0  0  0  0  0  0  0  0  0  0
  1  2  1  0
  2  3  1  0
  3  4  2  0
  3  5  1  0
  5  6  2  3
  5 21  1  0
  6  7  1  0
  6 19  1  0
  7  8  1  0
  8  9  2  3
  9 10  1  0
 10 11  2  0
 10 12  1  0
 12 13  1  0
 12 18  2  0
 13 14  2  0
 14 15  1  0
 15 16  1  0
 16 17  2  0
 16 18  1  0
 19 20  1  0
 21 22  2  0
 21 26  1  0
 22 23  1  0
 23 24  2  0
 24 25  1  0
 25 26  1  0
 26 27  2  0
M  END
