
     RDKit          3D

 27 28  0  0  0  0  0  0  0  0999 V2000
    4.9980   -1.3410    0.3800 C   0  0  0  0  0  0  0  0  0  0  0  0
    3.8830   -0.5270    0.9420 C   0  0  1  0  0  0  0  0  0  0  0  0
    4.1370    0.9460    0.9810 C   0  0  0  0  0  0  0  0  0  0  0  0
    4.3740    1.4830   -0.3160 O   0  0  0  0  0  0  0  0  0  0  0  0
    4.6300    2.8370   -0.4870 C   0  0  0  0  0  0  0  0  0  0  0  0
    4.6420    3.5490    0.5350 O   0  0  0  0  0  0  0  0  0  0  0  0
    4.8680    3.4100   -1.7280 O   0  0  0  0  0  0  0  0  0  0  0  0
    2.6390   -0.8470    0.1510 C   0  0  0  0  0  0  0  0  0  0  0  0
    2.6840   -1.6810   -0.7900 O   0  0  0  0  0  0  0  0  0  0  0  0
    1.4380   -0.2530    0.4230 O   0  0  0  0  0  0  0  0  0  0  0  0
    0.2120   -0.4490   -0.2120 C   0  0  0  0  0  0  0  0  0  0  0  0
   -0.2360   -1.8650   -0.0520 C   0  0  0  0  0  0  0  0  0  0  0  0
   -0.3740   -2.1580    1.3160 O   0  0  0  0  0  0  0  0  0  0  0  0
   -1.2320   -1.4820    2.1410 C   0  0  0  0  0  0  0  0  0  0  0  0
   -2.4380   -1.3330    1.8280 N   0  0  0  0  0  0  0  0  0  0  0  0
   -3.1700   -1.7460    0.7130 C   0  0  0  0  0  0  0  0  0  0  0  0
   -3.6130   -3.0320    0.4010 C   0  0  0  0  0  0  0  0  0  0  0  0
   -4.2810   -2.9120   -0.7560 N   0  0  0  0  0  0  0  0  0  0  0  0
   -4.2610   -1.6280   -1.1510 C   0  0  0  0  0  0  0  0  0  0  0  0
   -4.8120   -1.1950   -2.2170 O   0  0  0  0  0  0  0  0  0  0  0  0
   -3.5810   -0.8850   -0.2620 N   0  0  0  0  0  0  0  0  0  0  0  0
   -3.3490    0.5040   -0.3370 C   0  0  0  0  0  0  0  0  0  0  0  0
   -3.7540    1.3640    0.6520 C   0  0  0  0  0  0  0  0  0  0  0  0
   -3.5200    2.7340    0.5690 C   0  0  0  0  0  0  0  0  0  0  0  0
   -2.8630    3.2120   -0.5430 C   0  0  0  0  0  0  0  0  0  0  0  0
   -2.4410    2.3780   -1.5570 C   0  0  0  0  0  0  0  0  0  0  0  0
   -2.6960    1.0190   -1.4320 C   0  0  0  0  0  0  0  0  0  0  0  0
  2  1  1  6
  2  3  1  0
  2  8  1  0
  3  4  1  0
  4  5  1  0
  5  6  2  0
  5  7  1  0
  8  9  2  0
  8 10  1  0
 10 11  1  0
 11 12  1  0
 12 13  1  0
 13 14  1  0
 14 15  2  3
 15 16  1  0
 16 17  2  0
 16 21  1  0
 17 18  1  0
 18 19  1  0
 19 20  2  0
 19 21  1  0
 21 22  1  0
 22 23  2  0
 22 27  1  0
 23 24  1  0
 24 25  2  0
 25 26  1  0
 26 27  2  0
M  END
