
     RDKit          3D

 27 29  0  0  0  0  0  0  0  0999 V2000
    4.2670    3.5490    0.4800 C   0  0  0  0  0  0  0  0  0  0  0  0
    4.5760    2.5930    1.4130 O   0  0  0  0  0  0  0  0  0  0  0  0
    3.8850    1.4260    1.2230 C   0  0  0  0  0  0  0  0  0  0  0  0
    4.1790    0.8030   -0.0960 C   0  0  0  0  0  0  0  0  0  0  0  0
    3.4640   -0.4400   -0.3070 N   0  0  0  0  0  0  0  0  0  0  0  0
    2.0220   -0.5190   -0.3130 C   0  0  0  0  0  0  0  0  0  0  0  0
    1.4380    0.5280   -0.1320 O   0  0  0  0  0  0  0  0  0  0  0  0
    1.4290   -1.8180   -0.5320 C   0  0  0  0  0  0  0  0  0  0  0  0
    0.0920   -2.0470   -0.5650 C   0  0  0  0  0  0  0  0  0  0  0  0
   -0.7690   -0.9850   -0.3810 N   0  0  0  0  0  0  0  0  0  0  0  0
   -2.1550   -0.7880   -0.3410 C   0  0  0  0  0  0  0  0  0  0  0  0
   -2.9430   -1.6920   -0.4950 O   0  0  0  0  0  0  0  0  0  0  0  0
   -2.7460    0.5480   -0.1080 C   0  0  0  0  0  0  0  0  0  0  0  0
   -2.0290    1.4890    0.5560 C   0  0  0  0  0  0  0  0  0  0  0  0
   -2.5860    2.7400    0.7610 C   0  0  0  0  0  0  0  0  0  0  0  0
   -3.8410    3.0480    0.3090 C   0  0  0  0  0  0  0  0  0  0  0  0
   -4.3500    4.3230    0.5450 O   0  0  0  0  0  0  0  0  0  0  0  0
   -5.6050    4.6760    0.3360 O   0  0  0  0  0  0  0  0  0  0  0  0
   -4.5710    2.1040   -0.3610 C   0  0  0  0  0  0  0  0  0  0  0  0
   -4.0000    0.8370   -0.5650 C   0  0  0  0  0  0  0  0  0  0  0  0
   -0.3400   -3.4460   -0.8010 C   0  0  0  0  0  0  0  0  0  0  0  0
   -1.5780   -4.0410   -0.8970 C   0  0  0  0  0  0  0  0  0  0  0  0
   -1.3720   -5.4010   -1.1300 C   0  0  0  0  0  0  0  0  0  0  0  0
   -0.0760   -5.6310   -1.1750 N   0  0  0  0  0  0  0  0  0  0  0  0
    0.5820   -4.4830   -0.9820 C   0  0  0  0  0  0  0  0  0  0  0  0
    1.9300   -4.1710   -0.9350 O   0  0  0  0  0  0  0  0  0  0  0  0
    2.2870   -2.9120   -0.7220 O   0  0  0  0  0  0  0  0  0  0  0  0
  1  2  1  0
  2  3  1  0
  3  4  1  0
  4  5  1  0
  5  6  1  0
  6  7  2  0
  6  8  1  0
  8  9  2  0
  8 27  1  0
  9 10  1  0
  9 21  1  0
 10 11  1  0
 11 12  2  0
 11 13  1  0
 13 14  2  0
 13 20  1  0
 14 15  1  0
 15 16  2  0
 16 17  1  0
 16 19  1  0
 17 18  1  0
 19 20  2  0
 21 22  1  0
 21 25  2  0
 22 23  2  0
 23 24  1  0
 24 25  1  0
 25 26  1  0
 26 27  1  0
M  END
