
     RDKit          3D

 27 28  0  0  0  0  0  0  0  0999 V2000
    7.0040    2.1820    1.1390 O   0  0  0  0  0  0  0  0  0  0  0  0
    6.3990    1.9390    0.0710 C   0  0  0  0  0  0  0  0  0  0  0  0
    5.3260    1.0870    0.0800 O   0  0  0  0  0  0  0  0  0  0  0  0
    4.8720    0.4620    1.2840 C   0  0  0  0  0  0  0  0  0  0  0  0
    3.6610   -0.4260    0.9620 C   0  0  0  0  0  0  0  0  0  0  0  0
    2.6240    0.4820    0.3980 C   0  0  0  0  0  0  0  0  0  0  0  0
    1.4010   -0.1240    0.0220 N   0  0  0  0  0  0  0  0  0  0  0  0
    1.2090   -0.6400   -1.3230 C   0  0  0  0  0  0  0  0  0  0  0  0
    2.1560   -0.5710   -2.1380 O   0  0  0  0  0  0  0  0  0  0  0  0
   -0.0480   -1.2290   -1.7520 N   0  0  0  0  0  0  0  0  0  0  0  0
   -0.7300   -2.3430   -1.1770 C   0  0  0  0  0  0  0  0  0  0  0  0
   -2.2400   -2.1950   -1.0550 C   0  0  0  0  0  0  0  0  0  0  0  0
   -2.7030   -2.3260    0.2430 O   0  0  0  0  0  0  0  0  0  0  0  0
   -3.9260   -1.7890    0.4980 C   0  0  0  0  0  0  0  0  0  0  0  0
   -3.9460   -1.3010    2.0190 C   0  0  0  0  0  0  0  0  0  0  0  0
   -2.5570   -1.6030    2.4730 C   0  0  0  0  0  0  0  0  0  0  0  0
   -1.4530   -1.0660    1.9350 C   0  0  0  0  0  0  0  0  0  0  0  0
   -0.3470   -1.5830    2.5410 O   0  0  0  0  0  0  0  0  0  0  0  0
    0.7090   -1.1690    2.0450 N   0  0  0  0  0  0  0  0  0  0  0  0
    0.3230   -0.3020    1.0220 C   0  0  0  0  0  0  0  0  0  0  0  0
   -1.0460   -0.1730    0.9360 C   0  0  0  0  0  0  0  0  0  0  0  0
   -1.8310    0.7490    0.2840 C   0  0  0  0  0  0  0  0  0  0  0  0
   -1.6890    1.7330   -0.7120 C   0  0  0  0  0  0  0  0  0  0  0  0
   -2.8340    2.3860   -1.1010 C   0  0  0  0  0  0  0  0  0  0  0  0
   -2.7130    3.3420   -2.0640 O   0  0  0  0  0  0  0  0  0  0  0  0
   -0.4730    2.2400   -1.3360 C   0  0  0  0  0  0  0  0  0  0  0  0
    0.4060    2.6980   -0.3430 O   0  0  0  0  0  0  0  0  0  0  0  0
  1  2  2  0
  2  3  1  0
  3  4  1  0
  4  5  1  0
  5  6  1  0
  6  7  1  0
  7  8  1  0
  7 20  1  0
  8  9  2  0
  8 10  1  0
 10 11  1  0
 11 12  1  0
 12 13  1  0
 13 14  1  0
 14 15  1  0
 15 16  1  0
 16 17  2  0
 17 18  1  0
 17 21  1  0
 18 19  1  0
 19 20  2  0
 20 21  1  0
 21 22  2  3
 22 23  1  0
 23 24  2  3
 23 26  1  0
 24 25  1  0
 26 27  1  0
M  END
