
     RDKit          3D

 27 28  0  0  0  0  0  0  0  0999 V2000
   -4.4790    1.8170    1.6590 C   0  0  0  0  0  0  0  0  0  0  0  0
   -3.6980    0.6710    1.0430 C   0  0  1  0  0  0  0  0  0  0  0  0
   -4.7500   -0.3790    0.6340 C   0  0  0  0  0  0  0  0  0  0  0  0
   -5.6220    0.2760   -0.3100 N   0  0  0  0  0  0  0  0  0  0  0  0
   -6.6470   -0.5450   -0.8420 C   0  0  0  0  0  0  0  0  0  0  0  0
   -7.7140   -0.9670    0.1080 C   0  0  0  0  0  0  0  0  0  0  0  0
   -7.2610   -1.7040    1.1890 O   0  0  0  0  0  0  0  0  0  0  0  0
   -8.2560   -2.0360    1.9750 O   0  0  0  0  0  0  0  0  0  0  0  0
   -3.0520    1.0320   -0.1140 O   0  0  0  0  0  0  0  0  0  0  0  0
   -1.6650    0.8220   -0.0400 C   0  0  0  0  0  0  0  0  0  0  0  0
   -1.0950    1.2580   -1.3720 C   0  0  0  0  0  0  0  0  0  0  0  0
    0.3760    1.0680   -1.3810 C   0  0  0  0  0  0  0  0  0  0  0  0
    1.0770    1.3370   -2.4070 O   0  0  0  0  0  0  0  0  0  0  0  0
    0.9820    0.5860   -0.2350 O   0  0  0  0  0  0  0  0  0  0  0  0
    2.3660    0.4090   -0.2520 C   0  0  0  0  0  0  0  0  0  0  0  0
    3.1280    1.4270    0.1160 C   0  0  0  0  0  0  0  0  0  0  0  0
    4.5070    1.2410    0.0960 O   0  0  0  0  0  0  0  0  0  0  0  0
    5.0440    0.0190   -0.3000 C   0  0  0  0  0  0  0  0  0  0  0  0
    6.4930   -0.1130   -0.2990 C   0  0  0  0  0  0  0  0  0  0  0  0
    7.3290    0.9190    0.0720 C   0  0  0  0  0  0  0  0  0  0  0  0
    8.7070    0.7600    0.0630 C   0  0  0  0  0  0  0  0  0  0  0  0
    9.2620   -0.4450   -0.3200 C   0  0  0  0  0  0  0  0  0  0  0  0
   10.6540   -0.5470   -0.3090 O   0  0  0  0  0  0  0  0  0  0  0  0
    8.4420   -1.4800   -0.6910 C   0  0  0  0  0  0  0  0  0  0  0  0
    7.0760   -1.3210   -0.6820 C   0  0  0  0  0  0  0  0  0  0  0  0
    4.3030   -0.9730   -0.6580 N   0  0  0  0  0  0  0  0  0  0  0  0
    2.9180   -0.8310   -0.6540 N   0  0  0  0  0  0  0  0  0  0  0  0
  2  1  1  6
  2  3  1  0
  2  9  1  0
  3  4  1  0
  4  5  1  0
  5  6  1  0
  6  7  1  0
  7  8  1  0
  9 10  1  0
 10 11  1  0
 11 12  1  0
 12 13  2  0
 12 14  1  0
 14 15  1  0
 15 16  2  0
 15 27  1  0
 16 17  1  0
 17 18  1  0
 18 19  1  0
 18 26  2  0
 19 20  2  0
 19 25  1  0
 20 21  1  0
 21 22  2  0
 22 23  1  0
 22 24  1  0
 24 25  2  0
 26 27  1  0
M  END
