
     RDKit          3D

 27 28  0  0  0  0  0  0  0  0999 V2000
    8.6030    1.2080    0.5040 C   0  0  0  0  0  0  0  0  0  0  0  0
    8.1250   -0.1260    0.3160 O   0  0  0  0  0  0  0  0  0  0  0  0
    6.7940   -0.3130    0.0020 C   0  0  0  0  0  0  0  0  0  0  0  0
    6.0470    0.6910   -0.1090 O   0  0  0  0  0  0  0  0  0  0  0  0
    6.2960   -1.6800   -0.1920 C   0  0  0  0  0  0  0  0  0  0  0  0
    4.9140   -1.6930   -0.5080 O   0  0  0  0  0  0  0  0  0  0  0  0
    3.9530   -1.1730    0.3440 C   0  0  0  0  0  0  0  0  0  0  0  0
    4.3250   -0.6840    1.4160 O   0  0  0  0  0  0  0  0  0  0  0  0
    2.5930   -1.2280   -0.0540 N   0  0  0  0  0  0  0  0  0  0  0  0
    1.5540   -0.7220    0.7550 C   0  0  0  0  0  0  0  0  0  0  0  0
    1.6080   -0.1370    1.9540 N   0  0  0  0  0  0  0  0  0  0  0  0
    0.3690    0.1980    2.3730 C   0  0  0  0  0  0  0  0  0  0  0  0
   -0.4550   -0.1940    1.4040 N   0  0  0  0  0  0  0  0  0  0  0  0
    0.2210   -0.7620    0.3930 C   0  0  0  0  0  0  0  0  0  0  0  0
   -0.3890   -1.3080   -0.8400 C   0  0  0  0  0  0  0  0  0  0  0  0
   -1.7920   -1.1460   -0.8130 O   0  0  0  0  0  0  0  0  0  0  0  0
   -2.3280    0.1350   -0.7250 C   0  0  0  0  0  0  0  0  0  0  0  0
   -1.5290    1.0890   -0.6750 O   0  0  0  0  0  0  0  0  0  0  0  0
   -3.7640    0.3720   -0.6920 C   0  0  0  0  0  0  0  0  0  0  0  0
   -4.5150   -0.7120   -0.7500 C   0  0  0  0  0  0  0  0  0  0  0  0
   -5.9480   -1.0070   -0.7510 C   0  0  0  0  0  0  0  0  0  0  0  0
   -6.9750   -0.3710   -0.2200 C   0  0  0  0  0  0  0  0  0  0  0  0
   -7.2030    0.8440    0.5700 C   0  0  0  0  0  0  0  0  0  0  0  0
   -6.5820    2.0480    0.0030 C   0  0  0  0  0  0  0  0  0  0  0  0
   -7.4350    2.9340   -0.2630 O   0  0  0  0  0  0  0  0  0  0  0  0
   -5.1960    2.4510   -0.3220 C   0  0  0  0  0  0  0  0  0  0  0  0
   -4.0720    1.7870   -0.6000 C   0  0  0  0  0  0  0  0  0  0  0  0
  1  2  1  0
  2  3  1  0
  3  4  2  0
  3  5  1  0
  5  6  1  0
  6  7  1  0
  7  8  2  0
  7  9  1  0
  9 10  1  0
 10 11  1  0
 10 14  2  0
 11 12  1  0
 12 13  2  0
 13 14  1  0
 14 15  1  0
 15 16  1  0
 16 17  1  0
 17 18  2  0
 17 19  1  0
 19 20  2  0
 19 27  1  0
 20 21  1  0
 21 22  2  0
 22 23  1  0
 23 24  1  0
 24 25  2  0
 24 26  1  0
 26 27  2  0
M  END
