
     RDKit          3D

  9  8  0  0  0  0  0  0  0  0999 V2000
   -3.2350   -0.3850   -1.0590 O   0  0  0  0  0  0  0  0  0  0  0  0
   -2.1060    0.2030   -0.7450 O   0  0  0  0  0  0  0  0  0  0  0  0
   -1.6480   -0.1840    0.5180 C   0  0  2  0  0  0  0  0  0  0  0  0
   -1.4550    0.9870    1.2450 O   0  0  0  0  0  0  0  0  0  0  0  0
   -0.2410   -0.7580    0.2770 C   0  0  0  0  0  0  0  0  0  0  0  0
    0.5510    0.3600   -0.3200 C   0  0  0  0  0  0  0  0  0  0  0  0
    2.2840   -0.0580   -0.7090 P   0  0  0  0  0  0  0  0  0  0  0  0
    3.3230    1.3510   -0.6680 O   0  0  0  0  0  0  0  0  0  0  0  0
    2.9310   -1.3250    0.2690 O   0  0  0  0  0  0  0  0  0  0  0  0
  1  2  1  0
  2  3  1  0
  3  4  1  1
  3  5  1  0
  5  6  1  0
  6  7  1  0
  7  8  1  0
  7  9  1  0
M  END
