
     RDKit          3D

 19 19  0  0  0  0  0  0  0  0999 V2000
    5.4500    0.2410   -0.6500 C   0  0  0  0  0  0  0  0  0  0  0  0
    4.0550   -0.1400   -0.9510 C   0  0  0  0  0  0  0  0  0  0  0  0
    3.7050   -0.7440   -1.9970 O   0  0  0  0  0  0  0  0  0  0  0  0
    3.0360    0.1750   -0.0380 N   0  0  0  0  0  0  0  0  0  0  0  0
    1.6520   -0.1320   -0.2000 C   0  0  1  0  0  0  0  0  0  0  0  0
    1.0610   -1.0190    0.8370 C   0  0  1  0  0  0  0  0  0  0  0  0
    1.3580   -0.7000    2.1290 O   0  0  0  0  0  0  0  0  0  0  0  0
   -0.3160   -1.0900    0.6160 O   0  0  0  0  0  0  0  0  0  0  0  0
   -0.9850    0.0650    0.9510 C   0  0  2  0  0  0  0  0  0  0  0  0
   -2.2440    0.1620    0.1360 C   0  0  0  0  0  0  0  0  0  0  0  0
   -3.0300   -0.9540    0.4220 O   0  0  0  0  0  0  0  0  0  0  0  0
   -4.3680   -1.0690   -0.2990 P   0  0  0  0  0  0  0  0  0  0  0  0
   -4.7570   -2.4480    0.4730 O   0  0  0  0  0  0  0  0  0  0  0  0
   -3.6270   -1.1180   -1.7810 O   0  0  0  0  0  0  0  0  0  0  0  0
   -4.8380    0.3860    0.3470 O   0  0  0  0  0  0  0  0  0  0  0  0
   -0.1550    1.3100    0.7890 C   0  0  1  0  0  0  0  0  0  0  0  0
    0.3480    1.7310    2.0180 O   0  0  0  0  0  0  0  0  0  0  0  0
    0.9010    1.1810   -0.2660 C   0  0  2  0  0  0  0  0  0  0  0  0
    0.3180    1.3200   -1.5380 O   0  0  0  0  0  0  0  0  0  0  0  0
  1  2  1  0
  2  3  2  0
  2  4  1  0
  5  4  1  1
  5  6  1  0
  5 18  1  0
  6  7  1  1
  6  8  1  0
  8  9  1  0
  9 10  1  6
  9 16  1  0
 10 11  1  0
 11 12  1  0
 12 13  1  0
 12 14  1  0
 12 15  1  0
 16 17  1  1
 16 18  1  0
 18 19  1  6
M  END
