
     RDKit          3D

 10  9  0  0  0  0  0  0  0  0999 V2000
    1.8160    0.8450    1.0520 O   0  0  0  0  0  0  0  0  0  0  0  0
    2.3740   -0.0560    0.3770 C   0  0  0  0  0  0  0  0  0  0  0  0
    3.7080   -0.4000    0.6370 O   0  0  0  0  0  0  0  0  0  0  0  0
    1.6200   -0.6670   -0.6060 O   0  0  0  0  0  0  0  0  0  0  0  0
   -0.0040   -0.3270   -1.0060 P   0  0  0  0  0  0  0  0  0  0  0  0
   -0.3480    1.1600   -1.7120 O   0  0  0  0  0  0  0  0  0  0  0  0
   -1.2760   -1.1120   -0.0510 C   0  0  0  0  0  0  0  0  0  0  0  0
   -1.3060   -2.3370    0.0620 O   0  0  0  0  0  0  0  0  0  0  0  0
   -2.3430   -0.3570    0.6440 C   0  0  0  0  0  0  0  0  0  0  0  0
   -2.1370    1.0150    0.3970 O   0  0  0  0  0  0  0  0  0  0  0  0
  1  2  2  0
  2  3  1  0
  2  4  1  0
  4  5  1  0
  5  6  1  0
  5  7  1  0
  7  8  2  0
  7  9  1  0
  9 10  1  0
M  END
