
     RDKit          3D

 10  9  0  0  0  0  0  0  0  0999 V2000
   -1.2190    0.8980    0.2380 O   0  0  0  0  0  0  0  0  0  0  0  0
   -1.5180   -0.3210    0.3070 C   0  0  0  0  0  0  0  0  0  0  0  0
   -0.6470   -1.3470   -0.3250 C   0  0  0  0  0  0  0  0  0  0  0  0
    0.5340   -0.6550   -0.9840 C   0  0  0  0  0  0  0  0  0  0  0  0
    1.5560    0.3020    0.1940 P   0  0  0  0  0  0  0  0  0  0  0  0
    1.7380   -0.4210    1.7260 O   0  0  0  0  0  0  0  0  0  0  0  0
    1.1850    1.9770    0.2410 O   0  0  0  0  0  0  0  0  0  0  0  0
    2.3130    2.6460    0.1110 O   0  0  0  0  0  0  0  0  0  0  0  0
   -2.6650   -0.6700    0.9780 O   0  0  0  0  0  0  0  0  0  0  0  0
   -3.4720    0.2420    1.5600 O   0  0  0  0  0  0  0  0  0  0  0  0
  1  2  2  0
  2  3  1  0
  2  9  1  0
  3  4  1  0
  4  5  1  0
  5  6  1  0
  5  7  1  0
  7  8  1  0
  9 10  1  0
M  END
