
     RDKit          3D

 10 10  0  0  0  0  0  0  0  0999 V2000
    2.4520   -1.2240    0.8810 O   0  0  0  0  0  0  0  0  0  0  0  0
    2.1300   -0.6980   -0.7250 P   0  0  0  0  0  0  0  0  0  0  0  0
    3.4230    0.3260   -1.2530 O   0  0  0  0  0  0  0  0  0  0  0  0
    0.5540    0.2410   -0.8790 C   0  0  0  0  0  0  0  0  0  0  0  0
   -0.4800   -0.1960    0.1430 C   0  0  0  0  0  0  0  0  0  0  0  0
   -1.7180    0.6570   -0.1000 C   0  0  2  0  0  0  0  0  0  0  0  0
   -2.6740    0.2670    0.8290 O   0  0  0  0  0  0  0  0  0  0  0  0
   -3.2610   -0.7480    0.2180 O   0  0  0  0  0  0  0  0  0  0  0  0
   -3.5120   -0.2030   -0.9730 O   0  0  0  0  0  0  0  0  0  0  0  0
   -2.3290    0.3110   -1.3030 O   0  0  0  0  0  0  0  0  0  0  0  0
  1  2  1  0
  2  3  1  0
  2  4  1  0
  4  5  1  0
  6  5  1  1
  6  7  1  0
  6 10  1  0
  7  8  1  0
  8  9  1  0
  9 10  1  0
M  END
