
     RDKit          3D

 10  9  0  0  0  0  0  0  0  0999 V2000
    0.6530    1.3910    0.8920 O   0  0  0  0  0  0  0  0  0  0  0  0
    0.5320    0.2020    0.4320 C   0  0  0  0  0  0  0  0  0  0  0  0
   -0.7670   -0.4600    0.6160 C   0  0  0  0  0  0  0  0  0  0  0  0
   -1.6650   -0.7090   -0.9670 P   0  0  0  0  0  0  0  0  0  0  0  0
   -2.0770   -2.3860   -1.0960 O   0  0  0  0  0  0  0  0  0  0  0  0
   -3.1510    0.1940   -1.0170 O   0  0  0  0  0  0  0  0  0  0  0  0
   -3.0320    1.2130   -0.1970 O   0  0  0  0  0  0  0  0  0  0  0  0
    1.6180   -0.3610   -0.2030 O   0  0  0  0  0  0  0  0  0  0  0  0
    2.8010    0.4250   -0.2950 C   0  0  0  0  0  0  0  0  0  0  0  0
    3.2980    0.7710    0.9570 O   0  0  0  0  0  0  0  0  0  0  0  0
  1  2  2  0
  2  3  1  0
  2  8  1  0
  3  4  1  0
  4  5  1  0
  4  6  1  0
  6  7  1  0
  8  9  1  0
  9 10  1  0
M  END
