
     RDKit          3D

 10 10  0  0  0  0  0  0  0  0999 V2000
    2.3720   -1.0200    0.3680 O   0  0  0  0  0  0  0  0  0  0  0  0
    2.6350   -0.1040   -0.4570 C   0  0  0  0  0  0  0  0  0  0  0  0
    1.5410    0.5460   -1.0300 O   0  0  0  0  0  0  0  0  0  0  0  0
   -0.1020    0.2140   -0.7180 P   0  0  0  0  0  0  0  0  0  0  0  0
   -0.9770   -1.2340   -0.4010 O   0  0  0  0  0  0  0  0  0  0  0  0
   -2.0170   -0.8270    0.4710 C   0  0  0  0  0  0  0  0  0  0  0  0
   -2.7910   -1.8150    0.8200 O   0  0  0  0  0  0  0  0  0  0  0  0
   -2.0420    0.3390    0.7600 O   0  0  0  0  0  0  0  0  0  0  0  0
   -1.2090    1.2910    0.3590 C   0  0  0  0  0  0  0  0  0  0  0  0
   -1.0690    2.4570    0.5250 O   0  0  0  0  0  0  0  0  0  0  0  0
  1  2  2  0
  2  3  1  0
  3  4  1  0
  4  5  1  0
  4  9  1  0
  5  6  1  0
  6  7  2  0
  6  8  1  0
  8  9  1  0
  9 10  2  0
M  END
