
     RDKit          3D

 10  9  0  0  0  0  0  0  0  0999 V2000
   -2.0860    0.3190   -1.1710 O   0  0  0  0  0  0  0  0  0  0  0  0
   -2.4510   -0.5050   -0.3090 C   0  0  0  0  0  0  0  0  0  0  0  0
   -3.7720   -0.6890    0.0170 O   0  0  0  0  0  0  0  0  0  0  0  0
   -1.4580   -1.2330    0.3110 O   0  0  0  0  0  0  0  0  0  0  0  0
   -0.1110   -1.0570   -0.0090 C   0  0  0  0  0  0  0  0  0  0  0  0
    0.3820    0.3190    0.2290 C   0  0  0  0  0  0  0  0  0  0  0  0
   -0.3860    1.1490    0.6640 O   0  0  0  0  0  0  0  0  0  0  0  0
    2.0720    0.6730   -0.1360 P   0  0  0  0  0  0  0  0  0  0  0  0
    2.5830    2.2570   -0.2270 O   0  0  0  0  0  0  0  0  0  0  0  0
    3.1850   -0.5610   -0.1700 O   0  0  0  0  0  0  0  0  0  0  0  0
  1  2  2  0
  2  3  1  0
  2  4  1  0
  4  5  1  0
  5  6  1  0
  6  7  2  0
  6  8  1  0
  8  9  1  0
  8 10  1  0
M  END
