
     RDKit          3D

 27 28  0  0  0  0  0  0  0  0999 V2000
    4.9890   -1.2500   -0.5650 O   0  0  0  0  0  0  0  0  0  0  0  0
    5.0640   -0.1290    0.0430 C   0  0  0  0  0  0  0  0  0  0  0  0
    4.1070    0.8770   -0.2300 N   0  0  0  0  0  0  0  0  0  0  0  0
    3.0580    0.6700   -1.1690 C   0  0  0  0  0  0  0  0  0  0  0  0
    2.1740   -0.4790   -0.7610 C   0  0  0  0  0  0  0  0  0  0  0  0
    1.1850   -0.5940   -1.7430 O   0  0  0  0  0  0  0  0  0  0  0  0
    0.1000   -1.9150   -1.3500 P   0  0  0  0  0  0  0  0  0  0  0  0
   -0.3920   -2.6390   -2.8470 O   0  0  0  0  0  0  0  0  0  0  0  0
   -0.6920   -1.7130   -3.7390 O   0  0  0  0  0  0  0  0  0  0  0  0
   -1.3320   -1.2100   -0.6140 O   0  0  0  0  0  0  0  0  0  0  0  0
   -1.6820    0.1100   -0.8630 C   0  0  0  0  0  0  0  0  0  0  0  0
   -0.9340    0.7660   -1.6310 O   0  0  0  0  0  0  0  0  0  0  0  0
   -2.8620    0.7840   -0.2910 C   0  0  1  0  0  0  0  0  0  0  0  0
   -3.8440    0.9740   -1.3910 C   0  0  0  0  0  0  0  0  0  0  0  0
   -4.1000    2.0350   -2.0240 O   0  0  0  0  0  0  0  0  0  0  0  0
   -4.4460   -0.3010   -1.5900 N   0  0  0  0  0  0  0  0  0  0  0  0
   -4.2920   -0.9980   -0.3570 C   0  0  0  0  0  0  0  0  0  0  0  0
   -4.6740   -2.1750   -0.0600 O   0  0  0  0  0  0  0  0  0  0  0  0
   -3.6030   -0.1470    0.5740 N   0  0  0  0  0  0  0  0  0  0  0  0
   -3.6080   -0.1660    2.0020 C   0  0  0  0  0  0  0  0  0  0  0  0
   -4.7150    0.7120    2.5830 C   0  0  0  0  0  0  0  0  0  0  0  0
   -4.5600    2.0310    2.1880 O   0  0  0  0  0  0  0  0  0  0  0  0
    6.1220    0.1190    1.0120 C   0  0  0  0  0  0  0  0  0  0  0  0
    6.2960    1.2740    1.7170 C   0  0  0  0  0  0  0  0  0  0  0  0
    7.3970    1.0620    2.4960 N   0  0  0  0  0  0  0  0  0  0  0  0
    7.8330   -0.1710    2.2410 N   0  0  0  0  0  0  0  0  0  0  0  0
    7.0490   -0.7310    1.3390 O   0  0  0  0  0  0  0  0  0  0  0  0
  1  2  2  0
  2  3  1  0
  2 23  1  0
  3  4  1  0
  4  5  1  0
  5  6  1  0
  6  7  1  0
  7  8  1  0
  7 10  1  0
  8  9  1  0
 10 11  1  0
 11 12  2  0
 13 11  1  6
 13 14  1  0
 13 19  1  0
 14 15  2  0
 14 16  1  0
 16 17  1  0
 17 18  2  0
 17 19  1  0
 19 20  1  0
 20 21  1  0
 21 22  1  0
 23 24  2  0
 23 27  1  0
 24 25  1  0
 25 26  2  0
 26 27  1  0
M  END
