
     RDKit          3D

 20 21  0  0  0  0  0  0  0  0999 V2000
   -2.2390   -3.6860   -0.4570 O   0  0  0  0  0  0  0  0  0  0  0  0
   -2.4130   -2.4880   -0.1880 C   0  0  0  0  0  0  0  0  0  0  0  0
   -3.4540   -2.0350    0.6670 N   0  0  0  0  0  0  0  0  0  0  0  0
   -4.0770   -0.7330    0.4970 C   0  0  0  0  0  0  0  0  0  0  0  0
   -3.2960    0.2220   -0.3370 C   0  0  0  0  0  0  0  0  0  0  0  0
   -1.8510   -0.1060   -0.3520 N   0  0  0  0  0  0  0  0  0  0  0  0
   -0.9070    0.8870   -0.0590 C   0  0  0  0  0  0  0  0  0  0  0  0
   -1.4530    2.0730    0.0890 O   0  0  0  0  0  0  0  0  0  0  0  0
    0.5020    0.8530    0.1060 C   0  0  0  0  0  0  0  0  0  0  0  0
    1.2330   -0.2150    0.0450 C   0  0  0  0  0  0  0  0  0  0  0  0
    2.7140   -0.0100    0.2490 C   0  0  1  0  0  0  0  0  0  0  0  0
    3.6280   -1.5030   -0.3280 P   0  0  0  0  0  0  0  0  0  0  0  0
    3.0930   -1.9660   -1.9110 O   0  0  0  0  0  0  0  0  0  0  0  0
    3.4790   -2.8220    0.7730 O   0  0  0  0  0  0  0  0  0  0  0  0
    3.1170    1.1660   -0.5850 C   0  0  0  0  0  0  0  0  0  0  0  0
    2.3440    2.2820   -0.4200 O   0  0  0  0  0  0  0  0  0  0  0  0
    1.2420    2.1340    0.3720 C   0  0  1  0  0  0  0  0  0  0  0  0
    0.3950    3.2210    0.1590 O   0  0  0  0  0  0  0  0  0  0  0  0
    0.1520    3.8920    1.2410 O   0  0  0  0  0  0  0  0  0  0  0  0
   -1.5830   -1.4260   -0.7110 N   0  0  0  0  0  0  0  0  0  0  0  0
  1  2  2  0
  2  3  1  0
  2 20  1  0
  3  4  1  0
  4  5  1  0
  5  6  1  0
  6  7  1  0
  6 20  1  0
  7  8  2  0
  7  9  1  0
  9 10  2  0
  9 17  1  0
 10 11  1  0
 11 12  1  6
 11 15  1  0
 12 13  1  0
 12 14  1  0
 15 16  1  0
 16 17  1  0
 17 18  1  6
 18 19  1  0
M  END
