
     RDKit          3D

 13 12  0  0  0  0  0  0  0  0999 V2000
   -2.3780   -2.8010   -0.1500 C   0  0  0  0  0  0  0  0  0  0  0  0
   -0.9830   -2.1210   -0.0310 C   0  0  0  0  0  0  0  0  0  0  0  0
   -1.2080   -0.6990   -0.3490 C   0  0  0  0  0  0  0  0  0  0  0  0
   -0.0820    0.2530   -0.3680 C   0  0  1  0  0  0  0  0  0  0  0  0
   -0.5400    1.6640   -0.6740 C   0  0  0  0  0  0  0  0  0  0  0  0
   -1.5170    2.2060    0.3190 C   0  0  0  0  0  0  0  0  0  0  0  0
   -1.9040    3.6180   -0.0830 C   0  0  0  0  0  0  0  0  0  0  0  0
    1.0320    0.1210    0.5760 C   0  0  2  0  0  0  0  0  0  0  0  0
    2.0030    1.2170    0.4530 N   0  0  0  0  0  0  0  0  0  0  0  0
    2.1450   -1.2920    0.1470 P   0  0  0  0  0  0  0  0  0  0  0  0
    3.7900   -0.7740    0.4080 O   0  0  0  0  0  0  0  0  0  0  0  0
    1.7830   -2.6500    1.0890 O   0  0  0  0  0  0  0  0  0  0  0  0
    1.9530   -1.6480   -1.5530 O   0  0  0  0  0  0  0  0  0  0  0  0
  1  2  1  0
  2  3  1  0
  4  3  1  1
  4  5  1  0
  4  8  1  0
  5  6  1  0
  6  7  1  0
  8  9  1  6
  8 10  1  0
 10 11  1  0
 10 12  1  0
 10 13  1  0
M  CHG  1   9   1
M  END
