
     RDKit          3D

 20 21  0  0  0  0  0  0  0  0999 V2000
   -3.0500    2.8670   -0.2470 N   0  0  0  0  0  0  0  0  0  0  0  0
   -2.7290    1.5790    0.2890 C   0  0  2  0  0  0  0  0  0  0  0  0
   -1.2830    1.2960   -0.0090 C   0  0  0  0  0  0  0  0  0  0  0  0
   -0.5420    2.2630   -0.2590 O   0  0  0  0  0  0  0  0  0  0  0  0
   -0.7900   -0.0340   -0.0040 N   0  0  0  0  0  0  0  0  0  0  0  0
    0.5120   -0.3250    0.4090 C   0  0  0  0  0  0  0  0  0  0  0  0
    0.9100   -1.5480    0.3740 O   0  0  0  0  0  0  0  0  0  0  0  0
    1.4930    0.5820    0.8830 N   0  0  0  0  0  0  0  0  0  0  0  0
    2.8270    0.1830    1.2880 C   0  0  0  0  0  0  0  0  0  0  0  0
    3.6290   -0.4630    0.1970 C   0  0  0  0  0  0  0  0  0  0  0  0
    4.8840   -0.7800    0.7620 O   0  0  0  0  0  0  0  0  0  0  0  0
    5.8430   -1.5370   -0.4960 P   0  0  0  0  0  0  0  0  0  0  0  0
    5.1510   -1.1730   -2.0650 O   0  0  0  0  0  0  0  0  0  0  0  0
    7.4620   -0.9230   -0.4090 O   0  0  0  0  0  0  0  0  0  0  0  0
   -1.6560   -1.1370   -0.4440 C   0  0  0  0  0  0  0  0  0  0  0  0
   -2.9940   -0.8420    0.2190 C   0  0  2  0  0  0  0  0  0  0  0  0
   -4.0000   -1.7030   -0.1350 O   0  0  0  0  0  0  0  0  0  0  0  0
   -5.1130   -0.9300   -0.4720 C   0  0  0  0  0  0  0  0  0  0  0  0
   -4.8190    0.3920   -0.0860 O   0  0  0  0  0  0  0  0  0  0  0  0
   -3.4840    0.4600   -0.3910 C   0  0  1  0  0  0  0  0  0  0  0  0
  2  1  1  6
  2  3  1  0
  2 20  1  0
  3  4  2  0
  3  5  1  0
  5  6  1  0
  5 15  1  0
  6  7  2  0
  6  8  1  0
  8  9  1  0
  9 10  1  0
 10 11  1  0
 11 12  1  0
 12 13  1  0
 12 14  1  0
 16 15  1  6
 16 17  1  0
 16 20  1  0
 17 18  1  0
 18 19  1  0
 20 19  1  1
M  END
