
     RDKit          3D

 20 21  0  0  0  0  0  0  0  0999 V2000
    5.4170   -1.2350    1.2110 C   0  0  0  0  0  0  0  0  0  0  0  0
    4.0880   -0.9010    0.6210 C   0  0  0  0  0  0  0  0  0  0  0  0
    3.5310   -1.3900   -0.4630 C   0  0  0  0  0  0  0  0  0  0  0  0
    4.0660   -2.3360   -1.3050 O   0  0  0  0  0  0  0  0  0  0  0  0
    2.2050   -0.7680   -0.6670 C   0  0  0  0  0  0  0  0  0  0  0  0
    1.3720   -0.5940   -1.6060 N   0  0  0  0  0  0  0  0  0  0  0  0
    0.1490    0.0720   -1.4700 O   0  0  0  0  0  0  0  0  0  0  0  0
   -0.1700    0.5770   -0.2310 N   0  0  0  0  0  0  0  0  0  0  0  0
   -1.4720    0.7780    0.2530 C   0  0  0  0  0  0  0  0  0  0  0  0
   -1.6550    1.2470    1.4060 O   0  0  0  0  0  0  0  0  0  0  0  0
   -2.6690    0.4530   -0.5520 C   0  0  1  0  0  0  0  0  0  0  0  0
   -2.3540   -0.0740   -1.8450 N   0  0  0  0  0  0  0  0  0  0  0  0
   -3.5070   -0.5830    0.1980 C   0  0  0  0  0  0  0  0  0  0  0  0
   -3.8390   -0.1200    1.4570 O   0  0  0  0  0  0  0  0  0  0  0  0
   -3.7120    1.9600   -0.7550 P   0  0  0  0  0  0  0  0  0  0  0  0
   -3.2820    3.1180    0.4650 O   0  0  0  0  0  0  0  0  0  0  0  0
   -5.3970    1.6140   -0.6070 O   0  0  0  0  0  0  0  0  0  0  0  0
    1.0020    0.9090    0.5930 C   0  0  0  0  0  0  0  0  0  0  0  0
    1.8720   -0.2890    0.7000 C   0  0  2  0  0  0  0  0  0  0  0  0
    3.1830    0.0340    1.1590 O   0  0  0  0  0  0  0  0  0  0  0  0
  1  2  1  0
  2  3  2  0
  2 20  1  0
  3  4  1  0
  3  5  1  0
  5  6  2  0
  5 19  1  0
  6  7  1  0
  7  8  1  0
  8  9  1  0
  8 18  1  0
  9 10  2  0
  9 11  1  0
 11 12  1  6
 11 13  1  0
 11 15  1  0
 13 14  1  0
 15 16  1  0
 15 17  1  0
 19 18  1  6
 19 20  1  0
M  END
