
     RDKit          3D

 27 27  0  0  0  0  0  0  0  0999 V2000
    0.0200   -3.5350   -1.6530 C   0  0  0  0  0  0  0  0  0  0  0  0
   -0.7160   -2.3170   -1.0980 N   0  0  0  0  0  0  0  0  0  0  0  0
   -0.1190   -1.0700   -1.5740 C   0  0  0  0  0  0  0  0  0  0  0  0
    0.0850   -0.0570   -0.4970 C   0  0  1  0  0  0  0  0  0  0  0  0
    0.5850    1.1690   -1.1160 O   0  0  0  0  0  0  0  0  0  0  0  0
    1.4850    1.5020   -0.1910 O   0  0  0  0  0  0  0  0  0  0  0  0
    2.6000    1.6920   -0.9630 C   0  0  0  0  0  0  0  0  0  0  0  0
    3.7560    1.0260   -0.2400 C   0  0  0  0  0  0  0  0  0  0  0  0
    3.8720    1.6190    0.9370 O   0  0  0  0  0  0  0  0  0  0  0  0
    5.6240    1.4240    1.3040 P   0  0  0  0  0  0  0  0  0  0  0  0
    6.3260    1.9280   -0.2770 O   0  0  0  0  0  0  0  0  0  0  0  0
    6.0090   -0.2070    1.6130 O   0  0  0  0  0  0  0  0  0  0  0  0
   -1.2140    0.3850    0.0890 C   0  0  0  0  0  0  0  0  0  0  0  0
   -1.3950    1.4650    0.2100 N   0  0  0  0  0  0  0  0  0  0  0  0
   -2.6320    1.9920    0.8630 C   0  0  0  0  0  0  0  0  0  0  0  0
   -3.2080    1.8090    1.9590 O   0  0  0  0  0  0  0  0  0  0  0  0
   -2.9750    2.7810   -0.1080 N   0  0  0  0  0  0  0  0  0  0  0  0
   -3.9540    3.5010   -0.3490 C   0  0  0  0  0  0  0  0  0  0  0  0
   -4.9480    3.6100    0.5240 O   0  0  0  0  0  0  0  0  0  0  0  0
   -4.3160    4.3200   -1.4790 O   0  0  0  0  0  0  0  0  0  0  0  0
   -1.7680   -0.8090    0.6490 N   0  0  0  0  0  0  0  0  0  0  0  0
   -2.1720   -1.5650    1.1560 C   0  0  0  0  0  0  0  0  0  0  0  0
   -2.7170   -2.6670    1.7630 N   0  0  0  0  0  0  0  0  0  0  0  0
   -2.8870   -2.1480    3.1970 C   0  0  0  0  0  0  0  0  0  0  0  0
   -2.5780   -0.9390    3.3190 O   0  0  0  0  0  0  0  0  0  0  0  0
   -1.7060   -2.7230   -0.1840 C   0  0  0  0  0  0  0  0  0  0  0  0
   -2.3900   -3.8170   -0.2600 O   0  0  0  0  0  0  0  0  0  0  0  0
  1  2  1  0
  2  3  1  0
  2 26  1  0
  3  4  1  0
  4  5  1  6
  4 13  1  0
  5  6  1  0
  6  7  1  0
  7  8  1  0
  8  9  1  0
  9 10  1  0
 10 11  1  0
 10 12  1  0
 13 14  2  3
 13 21  1  0
 14 15  1  0
 15 16  1  0
 15 17  2  3
 17 18  1  0
 18 19  2  0
 18 20  1  0
 21 22  2  0
 22 23  1  0
 22 26  1  0
 23 24  1  0
 24 25  2  0
 26 27  2  0
M  END
