
     RDKit          3D

 27 28  0  0  0  0  0  0  0  0999 V2000
   -1.2410    5.6950    1.4820 O   0  0  0  0  0  0  0  0  0  0  0  0
   -0.9780    4.4840    1.2880 C   0  0  0  0  0  0  0  0  0  0  0  0
    0.3440    4.0770    1.3740 O   0  0  0  0  0  0  0  0  0  0  0  0
   -2.0130    3.4860    0.9740 C   0  0  0  0  0  0  0  0  0  0  0  0
   -1.4840    2.1950    0.7980 O   0  0  0  0  0  0  0  0  0  0  0  0
   -2.2610    1.1110    0.5000 C   0  0  0  0  0  0  0  0  0  0  0  0
   -1.7970   -0.0360    0.0880 C   0  0  0  0  0  0  0  0  0  0  0  0
   -2.5460   -1.2380   -0.2510 C   0  0  0  0  0  0  0  0  0  0  0  0
   -3.8270   -1.3470   -0.1910 N   0  0  0  0  0  0  0  0  0  0  0  0
   -4.4820   -2.5600   -0.5400 C   0  0  0  0  0  0  0  0  0  0  0  0
   -5.6990   -2.7770   -1.1210 C   0  0  0  0  0  0  0  0  0  0  0  0
   -5.8320   -4.1230   -1.2290 N   0  0  0  0  0  0  0  0  0  0  0  0
   -4.7350   -4.6940   -0.7320 C   0  0  0  0  0  0  0  0  0  0  0  0
   -3.9480   -3.7400   -0.3290 O   0  0  0  0  0  0  0  0  0  0  0  0
   -1.5600   -2.1860   -0.6360 N   0  0  0  0  0  0  0  0  0  0  0  0
   -0.2930   -1.5880   -0.5350 N   0  0  0  0  0  0  0  0  0  0  0  0
   -0.3770   -0.3690   -0.1280 C   0  0  0  0  0  0  0  0  0  0  0  0
    0.7160    0.4920    0.0730 O   0  0  0  0  0  0  0  0  0  0  0  0
    2.0020    0.0260   -0.1760 C   0  0  0  0  0  0  0  0  0  0  0  0
    2.1910   -1.1680   -0.5830 O   0  0  0  0  0  0  0  0  0  0  0  0
    3.1610    0.8320    0.0020 N   0  0  0  0  0  0  0  0  0  0  0  0
    4.4780    0.3500   -0.2550 C   0  0  0  0  0  0  0  0  0  0  0  0
    4.5900   -0.8520   -0.6580 O   0  0  0  0  0  0  0  0  0  0  0  0
    5.6140    1.1390   -0.0800 O   0  0  0  0  0  0  0  0  0  0  0  0
    7.2070    0.4410   -0.4290 P   0  0  0  0  0  0  0  0  0  0  0  0
    8.3080    0.7320    0.8740 O   0  0  0  0  0  0  0  0  0  0  0  0
    7.0620   -1.2970   -0.5930 O   0  0  0  0  0  0  0  0  0  0  0  0
  1  2  2  0
  2  3  1  0
  2  4  1  0
  4  5  1  0
  5  6  1  0
  6  7  2  3
  7  8  1  0
  7 17  1  0
  8  9  2  3
  8 15  1  0
  9 10  1  0
 10 11  2  0
 10 14  1  0
 11 12  1  0
 12 13  2  0
 13 14  1  0
 15 16  1  0
 16 17  2  0
 17 18  1  0
 18 19  1  0
 19 20  2  0
 19 21  1  0
 21 22  1  0
 22 23  2  0
 22 24  1  0
 24 25  1  0
 25 26  1  0
 25 27  1  0
M  END
