
     RDKit          3D

 27 26  0  0  0  0  0  0  0  0999 V2000
    7.8400   -2.7950    0.2930 C   0  0  0  0  0  0  0  0  0  0  0  0
    6.3710   -2.7870    0.3280 N   0  0  0  0  0  0  0  0  0  0  0  0
    5.6410   -1.5950    0.0850 C   0  0  0  0  0  0  0  0  0  0  0  0
    6.2940   -0.5320   -0.1660 O   0  0  0  0  0  0  0  0  0  0  0  0
    4.1690   -1.6440    0.1330 C   0  0  0  0  0  0  0  0  0  0  0  0
    3.6140   -0.2770   -0.1530 C   0  0  0  0  0  0  0  0  0  0  0  0
    4.3970    0.6750   -0.3810 O   0  0  0  0  0  0  0  0  0  0  0  0
    2.2490   -0.0500   -0.1680 O   0  0  0  0  0  0  0  0  0  0  0  0
    1.6690    1.2120   -0.4300 C   0  0  2  0  0  0  0  0  0  0  0  0
    0.9960    1.7230    0.7990 C   0  0  0  0  0  0  0  0  0  0  0  0
   -0.0450    0.9210    1.3340 N   0  0  0  0  0  0  0  0  0  0  0  0
   -1.2340    0.5800    0.6510 C   0  0  0  0  0  0  0  0  0  0  0  0
   -1.4240    0.9870   -0.5120 O   0  0  0  0  0  0  0  0  0  0  0  0
   -2.2790   -0.2510    1.2890 C   0  0  0  0  0  0  0  0  0  0  0  0
   -3.5050   -0.1690    0.5360 C   0  0  0  0  0  0  0  0  0  0  0  0
   -3.7220   -0.0590   -0.6600 O   0  0  0  0  0  0  0  0  0  0  0  0
   -4.7100   -0.1950    1.2470 N   0  0  0  0  0  0  0  0  0  0  0  0
   -5.9370   -0.1120    0.6900 C   0  0  0  0  0  0  0  0  0  0  0  0
   -6.6270   -0.1730   -0.5260 N   0  0  0  0  0  0  0  0  0  0  0  0
   -6.7760    0.0220    1.7210 N   0  0  0  0  0  0  0  0  0  0  0  0
   -8.0730    0.1150    1.0860 C   0  0  0  0  0  0  0  0  0  0  0  0
   -8.5000    1.2520    0.9010 O   0  0  0  0  0  0  0  0  0  0  0  0
   -8.7420   -1.0130    0.7260 O   0  0  0  0  0  0  0  0  0  0  0  0
    0.9260    1.2600   -1.5820 O   0  0  0  0  0  0  0  0  0  0  0  0
    1.6000    2.3080   -2.7880 P   0  0  0  0  0  0  0  0  0  0  0  0
    0.5230    2.2560   -4.1700 O   0  0  0  0  0  0  0  0  0  0  0  0
    1.5720    3.9320   -2.1770 O   0  0  0  0  0  0  0  0  0  0  0  0
  1  2  1  0
  2  3  1  0
  3  4  2  0
  3  5  1  0
  5  6  1  0
  6  7  2  0
  6  8  1  0
  8  9  1  0
  9 10  1  1
  9 24  1  0
 10 11  1  0
 11 12  1  0
 12 13  2  0
 12 14  1  0
 14 15  1  0
 15 16  2  0
 15 17  1  0
 17 18  1  0
 18 19  1  0
 18 20  2  3
 20 21  1  0
 21 22  2  0
 21 23  1  0
 24 25  1  0
 25 26  1  0
 25 27  1  0
M  END
