
     RDKit          3D

 20 21  0  0  0  0  0  0  0  0999 V2000
   -1.5180   -2.2560    1.1250 C   0  0  0  0  0  0  0  0  0  0  0  0
   -0.7250   -1.1270    0.4540 C   0  0  2  0  0  0  0  0  0  0  0  0
    0.6170   -1.3870    0.6930 O   0  0  0  0  0  0  0  0  0  0  0  0
    1.6740   -0.6090    0.2590 C   0  0  0  0  0  0  0  0  0  0  0  0
    1.4050    0.4090   -0.4010 O   0  0  0  0  0  0  0  0  0  0  0  0
    3.0310   -0.9130    0.5260 N   0  0  0  0  0  0  0  0  0  0  0  0
    4.1090   -0.0940    0.0670 C   0  0  0  0  0  0  0  0  0  0  0  0
    3.8080    0.9220   -0.5930 O   0  0  0  0  0  0  0  0  0  0  0  0
    5.4300   -0.4180    0.3460 O   0  0  0  0  0  0  0  0  0  0  0  0
    6.7170    0.6050   -0.2310 P   0  0  0  0  0  0  0  0  0  0  0  0
    7.4500   -0.0210   -1.6720 O   0  0  0  0  0  0  0  0  0  0  0  0
    6.2160    2.2450   -0.4470 O   0  0  0  0  0  0  0  0  0  0  0  0
   -1.2140    0.1540    1.1170 C   0  0  0  0  0  0  0  0  0  0  0  0
   -2.6410    0.1940    0.8410 N   0  0  0  0  0  0  0  0  0  0  0  0
   -3.2920    1.3750    1.2920 C   0  0  0  0  0  0  0  0  0  0  0  0
   -4.3120    1.7110    0.3060 N   0  0  0  0  0  0  0  0  0  0  0  0
   -4.1240    0.7660   -0.8010 C   0  0  0  0  0  0  0  0  0  0  0  0
   -2.7070    0.3670   -0.6210 C   0  0  2  0  0  0  0  0  0  0  0  0
   -2.3050   -0.9220   -1.2310 C   0  0  0  0  0  0  0  0  0  0  0  0
   -0.9810   -1.1800   -0.8860 O   0  0  0  0  0  0  0  0  0  0  0  0
  2  1  1  1
  2  3  1  0
  2 13  1  0
  2 20  1  0
  3  4  1  0
  4  5  2  0
  4  6  1  0
  6  7  1  0
  7  8  2  0
  7  9  1  0
  9 10  1  0
 10 11  1  0
 10 12  1  0
 13 14  1  0
 14 15  1  0
 14 18  1  0
 15 16  1  0
 16 17  1  0
 18 17  1  1
 18 19  1  0
 19 20  1  0
M  END
