
     RDKit          3D

 16 18  0  0  0  0  0  0  0  0999 V2000
   -2.5180    1.5310    1.3040 C   0  0  0  0  0  0  0  0  0  0  0  0
   -2.5430    0.3740    0.3380 C   0  0  0  0  0  0  0  0  0  0  0  0
   -3.5620   -0.4490    0.1930 C   0  0  0  0  0  0  0  0  0  0  0  0
   -3.1880   -1.4320   -0.8430 C   0  0  0  0  0  0  0  0  0  0  0  0
   -1.8300   -1.0530   -1.2550 C   0  0  0  0  0  0  0  0  0  0  0  0
   -1.4550    0.0070   -0.5610 C   0  0  0  0  0  0  0  0  0  0  0  0
   -0.2240    0.7140   -0.6280 N   0  0  0  0  0  0  0  0  0  0  0  0
    1.0160    0.1290   -0.2560 C   0  0  0  0  0  0  0  0  0  0  0  0
    1.0540   -1.1400    0.1790 N   0  0  0  0  0  0  0  0  0  0  0  0
    2.1940   -1.7540    0.5460 C   0  0  0  0  0  0  0  0  0  0  0  0
    3.3960   -1.0840    0.4880 C   0  0  0  0  0  0  0  0  0  0  0  0
    3.3760    0.1890    0.0540 N   0  0  0  0  0  0  0  0  0  0  0  0
    4.3810    1.0690   -0.1040 C   0  0  0  0  0  0  0  0  0  0  0  0
    3.8120    2.1950   -0.5650 N   0  0  0  0  0  0  0  0  0  0  0  0
    2.5040    2.0580   -0.7010 N   0  0  0  0  0  0  0  0  0  0  0  0
    2.2150    0.8020   -0.3160 C   0  0  0  0  0  0  0  0  0  0  0  0
  1  2  1  0
  2  3  2  0
  2  6  1  0
  3  4  1  0
  4  5  1  0
  5  6  2  0
  6  7  1  0
  7  8  1  0
  8  9  2  0
  8 16  1  0
  9 10  1  0
 10 11  2  0
 11 12  1  0
 12 13  1  0
 12 16  1  0
 13 14  2  0
 14 15  1  0
 15 16  2  0
M  END
