
     RDKit          3D

 16 18  0  0  0  0  0  0  0  0999 V2000
    3.8760    0.3720    0.8840 C   0  0  0  0  0  0  0  0  0  0  0  0
    2.7640    1.2070    0.2510 C   0  0  0  0  0  0  0  0  0  0  0  0
    2.2960    0.4700   -0.9880 C   0  0  0  0  0  0  0  0  0  0  0  0
    1.7890   -0.8580   -0.6270 N   0  0  0  0  0  0  0  0  0  0  0  0
    2.4710   -1.9860   -0.5530 N   0  0  0  0  0  0  0  0  0  0  0  0
    1.6940   -2.9960   -0.1960 N   0  0  0  0  0  0  0  0  0  0  0  0
    0.4560   -2.5330   -0.0260 C   0  0  0  0  0  0  0  0  0  0  0  0
    0.5230   -1.1810   -0.3000 C   0  0  0  0  0  0  0  0  0  0  0  0
   -0.7660   -0.6000   -0.1410 N   0  0  0  0  0  0  0  0  0  0  0  0
   -1.2210    0.7490   -0.3060 C   0  0  0  0  0  0  0  0  0  0  0  0
   -2.6690    0.9130   -0.0340 C   0  0  0  0  0  0  0  0  0  0  0  0
   -3.2410    2.2820   -0.1770 C   0  0  0  0  0  0  0  0  0  0  0  0
   -3.4910   -0.0380    0.3210 C   0  0  0  0  0  0  0  0  0  0  0  0
   -2.9320   -1.3880    0.4640 C   0  0  0  0  0  0  0  0  0  0  0  0
   -1.6510   -1.6360    0.2430 C   0  0  0  0  0  0  0  0  0  0  0  0
   -0.9060   -2.8460    0.3200 N   0  0  0  0  0  0  0  0  0  0  0  0
  1  2  1  0
  2  3  1  0
  3  4  1  0
  4  5  1  0
  4  8  1  0
  5  6  2  0
  6  7  1  0
  7  8  2  0
  7 16  1  0
  8  9  1  0
  9 10  1  0
  9 15  1  0
 10 11  1  0
 11 12  1  0
 11 13  2  0
 13 14  1  0
 14 15  2  0
 15 16  1  0
M  END
