
     RDKit          3D

 16 18  0  0  0  0  0  0  0  0999 V2000
    4.7100    0.4560    0.4090 C   0  0  0  0  0  0  0  0  0  0  0  0
    4.6890    0.0470   -0.8960 C   0  0  0  0  0  0  0  0  0  0  0  0
    3.3580   -0.1060   -1.2320 C   0  0  0  0  0  0  0  0  0  0  0  0
    2.5790    0.1930   -0.1850 N   0  0  0  0  0  0  0  0  0  0  0  0
    1.1510    0.1520   -0.1500 C   0  0  0  0  0  0  0  0  0  0  0  0
    0.5020   -0.5700    0.8230 C   0  0  0  0  0  0  0  0  0  0  0  0
   -0.9040   -0.5830    0.8220 C   0  0  0  0  0  0  0  0  0  0  0  0
   -1.5980    0.1110   -0.1330 C   0  0  0  0  0  0  0  0  0  0  0  0
   -3.0520    0.1060   -0.1460 C   0  0  0  0  0  0  0  0  0  0  0  0
   -3.8770    0.7710   -1.0630 C   0  0  0  0  0  0  0  0  0  0  0  0
   -5.1400    0.5130   -0.7290 N   0  0  0  0  0  0  0  0  0  0  0  0
   -5.1600   -0.2810    0.3510 C   0  0  0  0  0  0  0  0  0  0  0  0
   -3.8930   -0.5190    0.6920 N   0  0  0  0  0  0  0  0  0  0  0  0
   -0.9220    0.7980   -1.0580 N   0  0  0  0  0  0  0  0  0  0  0  0
    0.4190    0.8100   -1.0560 N   0  0  0  0  0  0  0  0  0  0  0  0
    3.3970    0.5370    0.8210 C   0  0  0  0  0  0  0  0  0  0  0  0
  1  2  1  0
  1 16  2  0
  2  3  2  0
  3  4  1  0
  4  5  1  0
  4 16  1  0
  5  6  2  0
  5 15  1  0
  6  7  1  0
  7  8  2  0
  8  9  1  0
  8 14  1  0
  9 10  2  0
  9 13  1  0
 10 11  1  0
 11 12  2  0
 12 13  1  0
 14 15  2  0
M  END
