
     RDKit          3D

 16 18  0  0  0  0  0  0  0  0999 V2000
   -4.9140    0.1100   -0.5430 C   0  0  0  0  0  0  0  0  0  0  0  0
   -4.7080    1.4000   -0.0730 C   0  0  0  0  0  0  0  0  0  0  0  0
   -3.3950    1.5370    0.1510 N   0  0  0  0  0  0  0  0  0  0  0  0
   -2.7450    0.4170   -0.1450 N   0  0  0  0  0  0  0  0  0  0  0  0
   -1.3260    0.2220   -0.0210 C   0  0  0  0  0  0  0  0  0  0  0  0
   -0.4940    0.3060   -1.1160 C   0  0  0  0  0  0  0  0  0  0  0  0
    0.8690    0.1260   -1.0360 C   0  0  0  0  0  0  0  0  0  0  0  0
    1.4070   -0.1520    0.2040 C   0  0  0  0  0  0  0  0  0  0  0  0
    2.8350   -0.3450    0.3090 C   0  0  0  0  0  0  0  0  0  0  0  0
    3.7470   -0.2810   -0.7180 C   0  0  0  0  0  0  0  0  0  0  0  0
    4.9770   -0.5300   -0.1420 C   0  0  0  0  0  0  0  0  0  0  0  0
    4.7740   -0.7290    1.1680 N   0  0  0  0  0  0  0  0  0  0  0  0
    3.4820   -0.6210    1.4620 N   0  0  0  0  0  0  0  0  0  0  0  0
    0.5650   -0.2390    1.3210 C   0  0  0  0  0  0  0  0  0  0  0  0
   -0.7520   -0.0510    1.1640 N   0  0  0  0  0  0  0  0  0  0  0  0
   -3.6650   -0.4630   -0.5710 C   0  0  0  0  0  0  0  0  0  0  0  0
  1  2  1  0
  1 16  2  0
  2  3  2  0
  3  4  1  0
  4  5  1  0
  4 16  1  0
  5  6  2  0
  5 15  1  0
  6  7  1  0
  7  8  2  0
  8  9  1  0
  8 14  1  0
  9 10  2  0
  9 13  1  0
 10 11  1  0
 11 12  2  0
 12 13  1  0
 14 15  2  0
M  END
