
     RDKit          3D

 16 18  0  0  0  0  0  0  0  0999 V2000
   -4.5500   -0.6720   -1.0860 C   0  0  0  0  0  0  0  0  0  0  0  0
   -3.4190   -0.1600   -1.4920 C   0  0  0  0  0  0  0  0  0  0  0  0
   -2.4620   -0.0520   -0.3980 C   0  0  0  0  0  0  0  0  0  0  0  0
   -1.0890    0.4770   -0.4830 C   0  0  0  0  0  0  0  0  0  0  0  0
   -0.4980    0.9440   -1.5740 N   0  0  0  0  0  0  0  0  0  0  0  0
    0.7480    1.3360   -1.2640 N   0  0  0  0  0  0  0  0  0  0  0  0
    0.9560    1.1170    0.0450 C   0  0  0  0  0  0  0  0  0  0  0  0
    2.2010    1.4090    0.7970 C   0  0  0  0  0  0  0  0  0  0  0  0
    3.1150    0.3000    0.7990 N   0  0  0  0  0  0  0  0  0  0  0  0
    3.1860   -0.7020    1.6900 C   0  0  0  0  0  0  0  0  0  0  0  0
    4.2150   -1.5700    1.3230 C   0  0  0  0  0  0  0  0  0  0  0  0
    4.7330   -1.0380    0.1960 N   0  0  0  0  0  0  0  0  0  0  0  0
    4.0820    0.0900   -0.1360 C   0  0  0  0  0  0  0  0  0  0  0  0
   -0.1890    0.5860    0.5100 N   0  0  0  0  0  0  0  0  0  0  0  0
   -3.0570   -0.5190    0.6870 C   0  0  0  0  0  0  0  0  0  0  0  0
   -4.4240   -0.9510    0.3510 C   0  0  0  0  0  0  0  0  0  0  0  0
  1  2  2  0
  1 16  1  0
  2  3  1  0
  3  4  1  0
  3 15  2  0
  4  5  2  0
  4 14  1  0
  5  6  1  0
  6  7  1  0
  7  8  1  0
  7 14  2  0
  8  9  1  0
  9 10  1  0
  9 13  1  0
 10 11  2  0
 11 12  1  0
 12 13  2  0
 15 16  1  0
M  END
