
     RDKit          3D

 16 18  0  0  0  0  0  0  0  0999 V2000
   -4.4200   -1.3610    0.6700 C   0  0  0  0  0  0  0  0  0  0  0  0
   -3.2200   -1.8870    0.6270 C   0  0  0  0  0  0  0  0  0  0  0  0
   -2.2200   -0.8280    0.4330 C   0  0  0  0  0  0  0  0  0  0  0  0
   -0.7410   -1.0500    0.3350 C   0  0  0  0  0  0  0  0  0  0  0  0
   -0.0360    0.1730    0.1480 N   0  0  0  0  0  0  0  0  0  0  0  0
    1.3990    0.1080    0.0370 C   0  0  0  0  0  0  0  0  0  0  0  0
    2.0630   -1.0570    0.1050 N   0  0  0  0  0  0  0  0  0  0  0  0
    3.4010   -1.1430    0.0040 C   0  0  0  0  0  0  0  0  0  0  0  0
    4.1480    0.0010   -0.1780 C   0  0  0  0  0  0  0  0  0  0  0  0
    3.5110    1.1830   -0.2510 N   0  0  0  0  0  0  0  0  0  0  0  0
    3.9370    2.4470   -0.4190 C   0  0  0  0  0  0  0  0  0  0  0  0
    2.8700    3.2590   -0.4170 N   0  0  0  0  0  0  0  0  0  0  0  0
    1.7600    2.5370   -0.2500 N   0  0  0  0  0  0  0  0  0  0  0  0
    2.1510    1.2500   -0.1460 C   0  0  0  0  0  0  0  0  0  0  0  0
   -2.8320    0.3120    0.3630 C   0  0  0  0  0  0  0  0  0  0  0  0
   -4.3020    0.0920    0.5070 C   0  0  0  0  0  0  0  0  0  0  0  0
  1  2  2  0
  1 16  1  0
  2  3  1  0
  3  4  1  0
  3 15  2  0
  4  5  1  0
  5  6  1  0
  6  7  2  0
  6 14  1  0
  7  8  1  0
  8  9  2  0
  9 10  1  0
 10 11  1  0
 10 14  1  0
 11 12  2  0
 12 13  1  0
 13 14  2  0
 15 16  1  0
M  END
