
     RDKit          3D

 18 17  0  0  0  0  0  0  0  0999 V2000
   -3.8140    0.7680    1.4110 C   0  0  0  0  0  0  0  0  0  0  0  0
   -2.5780    1.0120    0.6410 C   0  0  0  0  0  0  0  0  0  0  0  0
   -1.4790    0.0310    0.6930 C   0  0  1  0  0  0  0  0  0  0  0  0
   -1.5810   -1.3300    0.2170 C   0  0  0  0  0  0  0  0  0  0  0  0
   -2.5620   -2.3180    0.7040 C   0  0  2  0  0  0  0  0  0  0  0  0
   -2.2720   -3.6980    0.0170 C   0  0  0  0  0  0  0  0  0  0  0  0
   -3.9720   -2.0210    0.1550 C   0  0  0  0  0  0  0  0  0  0  0  0
   -0.4240    0.6560   -0.0700 O   0  0  0  0  0  0  0  0  0  0  0  0
    0.6730    0.9570    0.6730 C   0  0  2  0  0  0  0  0  0  0  0  0
    0.8120    2.4800    0.8690 C   0  0  0  0  0  0  0  0  0  0  0  0
    0.9390    3.2230   -0.4170 C   0  0  0  0  0  0  0  0  0  0  0  0
    1.0610    4.7060   -0.0460 C   0  0  0  0  0  0  0  0  0  0  0  0
    1.1850    5.5020   -1.1630 O   0  0  0  0  0  0  0  0  0  0  0  0
    1.9960    0.4780    0.1640 C   0  0  0  0  0  0  0  0  0  0  0  0
    2.1410   -0.9910   -0.0020 C   0  0  0  0  0  0  0  0  0  0  0  0
    3.5220   -1.3840   -0.4970 C   0  0  1  0  0  0  0  0  0  0  0  0
    3.5500   -2.8920   -0.6270 C   0  0  0  0  0  0  0  0  0  0  0  0
    3.8050   -0.8040   -1.8650 C   0  0  0  0  0  0  0  0  0  0  0  0
  1  2  1  0
  3  2  1  6
  3  4  1  0
  3  8  1  0
  4  5  1  0
  5  6  1  6
  5  7  1  0
  8  9  1  0
  9 10  1  6
  9 14  1  0
 10 11  1  0
 11 12  1  0
 12 13  1  0
 14 15  1  0
 15 16  1  0
 16 17  1  6
 16 18  1  0
M  END
