
     RDKit          3D

 18 17  0  0  0  0  0  0  0  0999 V2000
    5.2520    1.0910   -1.0210 C   0  0  0  0  0  0  0  0  0  0  0  0
    3.8050    1.0820   -0.8750 C   0  0  0  0  0  0  0  0  0  0  0  0
    3.1220   -0.0260   -0.4040 C   0  0  0  0  0  0  0  0  0  0  0  0
    4.0060   -1.1420   -0.0860 C   0  0  0  0  0  0  0  0  0  0  0  0
    1.7090    0.1140   -0.3710 C   0  0  0  0  0  0  0  0  0  0  0  0
    0.7700   -0.7120    0.0400 C   0  0  0  0  0  0  0  0  0  0  0  0
    1.2180   -2.0130    0.5640 C   0  0  0  0  0  0  0  0  0  0  0  0
   -0.6250   -0.2170    0.1250 C   0  0  0  0  0  0  0  0  0  0  0  0
   -0.6690    1.2720    0.3980 C   0  0  0  0  0  0  0  0  0  0  0  0
   -1.7080    1.8900    0.5130 O   0  0  0  0  0  0  0  0  0  0  0  0
    0.5050    2.0220    0.5470 O   0  0  0  0  0  0  0  0  0  0  0  0
    0.4280    3.3970    0.8100 C   0  0  0  0  0  0  0  0  0  0  0  0
   -1.7370   -0.8180    0.3410 C   0  0  0  0  0  0  0  0  0  0  0  0
   -1.7260   -2.3190    0.5850 C   0  0  0  0  0  0  0  0  0  0  0  0
   -3.0980   -0.3460    0.0460 C   0  0  0  0  0  0  0  0  0  0  0  0
   -3.5020    0.7490   -0.8460 C   0  0  0  0  0  0  0  0  0  0  0  0
   -4.1120   -1.0910    0.4940 C   0  0  0  0  0  0  0  0  0  0  0  0
   -5.5060   -0.6380    0.2030 C   0  0  0  0  0  0  0  0  0  0  0  0
  1  2  1  0
  2  3  2  3
  3  4  1  0
  3  5  1  0
  5  6  2  3
  6  7  1  0
  6  8  1  0
  8  9  1  0
  8 13  2  3
  9 10  2  0
  9 11  1  0
 11 12  1  0
 13 14  1  0
 13 15  1  0
 15 16  1  0
 15 17  2  3
 17 18  1  0
M  END
