
     RDKit          3D

 18 18  0  0  0  0  0  0  0  0999 V2000
    0.5010    4.6880   -0.7620 C   0  0  0  0  0  0  0  0  0  0  0  0
   -0.5980    4.4890    0.2410 C   0  0  0  0  0  0  0  0  0  0  0  0
   -1.1540    3.2950    0.4040 C   0  0  0  0  0  0  0  0  0  0  0  0
   -0.7490    2.1000   -0.3660 C   0  0  0  0  0  0  0  0  0  0  0  0
   -0.2590    1.0330    0.5850 C   0  0  0  0  0  0  0  0  0  0  0  0
    0.1600   -0.2280   -0.0760 C   0  0  1  0  0  0  0  0  0  0  0  0
   -0.8600   -0.9920   -0.8360 C   0  0  0  0  0  0  0  0  0  0  0  0
   -1.9650   -1.4860    0.0060 C   0  0  1  0  0  0  0  0  0  0  0  0
   -1.4590   -2.3370    1.0360 O   0  0  0  0  0  0  0  0  0  0  0  0
   -2.9730   -0.5330    0.5400 C   0  0  0  0  0  0  0  0  0  0  0  0
   -4.3570   -1.2090    0.3660 C   0  0  0  0  0  0  0  0  0  0  0  0
   -3.9400   -2.6550    0.2240 C   0  0  0  0  0  0  0  0  0  0  0  0
   -2.8450   -2.4700   -0.8350 C   0  0  0  0  0  0  0  0  0  0  0  0
    1.3380   -0.0340   -0.8400 O   0  0  0  0  0  0  0  0  0  0  0  0
    2.3530   -0.7550   -0.2380 C   0  0  0  0  0  0  0  0  0  0  0  0
    3.6650   -0.6280   -0.9620 C   0  0  0  0  0  0  0  0  0  0  0  0
    4.7270   -1.4350   -0.2580 C   0  0  0  0  0  0  0  0  0  0  0  0
    4.9370   -0.9740    1.1600 C   0  0  0  0  0  0  0  0  0  0  0  0
  1  2  1  0
  2  3  2  3
  3  4  1  0
  4  5  1  0
  6  5  1  6
  6  7  1  0
  6 14  1  0
  7  8  1  0
  8  9  1  1
  8 10  1  0
  8 13  1  0
 10 11  1  0
 11 12  1  0
 12 13  1  0
 14 15  1  0
 15 16  1  0
 16 17  1  0
 17 18  1  0
M  END
