
     RDKit          3D

 18 18  0  0  0  0  0  0  0  0999 V2000
   -0.2080    2.9900   -1.6580 C   0  0  0  0  0  0  0  0  0  0  0  0
   -0.1190    3.5620   -0.2740 C   0  0  0  0  0  0  0  0  0  0  0  0
   -0.6020    2.5890    0.7930 C   0  0  0  0  0  0  0  0  0  0  0  0
    0.2180    1.3570    0.7420 C   0  0  0  0  0  0  0  0  0  0  0  0
   -0.2230    0.1150    0.7050 C   0  0  0  0  0  0  0  0  0  0  0  0
   -1.6620   -0.1560    0.7160 C   0  0  0  0  0  0  0  0  0  0  0  0
   -2.3150   -0.6810   -0.4920 C   0  0  2  0  0  0  0  0  0  0  0  0
   -2.2160    0.2150   -1.7100 C   0  0  0  0  0  0  0  0  0  0  0  0
   -3.8270   -0.7220   -0.1740 C   0  0  0  0  0  0  0  0  0  0  0  0
   -1.9490   -2.0980   -0.8270 C   0  0  0  0  0  0  0  0  0  0  0  0
   -2.2800   -3.0690    0.2610 C   0  0  0  0  0  0  0  0  0  0  0  0
    0.7790   -0.9530    0.6870 C   0  0  0  0  0  0  0  0  0  0  0  0
    2.0790   -0.7580    0.7020 C   0  0  0  0  0  0  0  0  0  0  0  0
    2.9820   -1.8310    0.6840 O   0  0  0  0  0  0  0  0  0  0  0  0
    4.3000   -1.8000    1.1060 C   0  0  0  0  0  0  0  0  0  0  0  0
    5.2020   -0.8480    0.3920 C   0  0  0  0  0  0  0  0  0  0  0  0
    2.5960    0.6300    0.7410 C   0  0  0  0  0  0  0  0  0  0  0  0
    1.5950    1.5860    0.7360 O   0  0  0  0  0  0  0  0  0  0  0  0
  1  2  1  0
  2  3  1  0
  3  4  1  0
  4  5  2  0
  4 18  1  0
  5  6  1  0
  5 12  1  0
  6  7  1  0
  7  8  1  6
  7  9  1  0
  7 10  1  0
 10 11  1  0
 12 13  2  0
 13 14  1  0
 13 17  1  0
 14 15  1  0
 15 16  1  0
 17 18  1  0
M  END
