
     RDKit          3D

 18 19  0  0  0  0  0  0  0  0999 V2000
   -2.5100   -3.4060    0.7120 C   0  0  0  0  0  0  0  0  0  0  0  0
   -2.6770   -1.8910    0.5360 C   0  0  0  0  0  0  0  0  0  0  0  0
   -1.3840   -1.3700    0.0130 C   0  0  0  0  0  0  0  0  0  0  0  0
   -1.3570    0.1130   -0.2240 C   0  0  1  0  0  0  0  0  0  0  0  0
    0.0470    0.4310   -0.7540 C   0  0  0  0  0  0  0  0  0  0  0  0
    1.0230    0.0490    0.2100 O   0  0  0  0  0  0  0  0  0  0  0  0
    2.3580    0.3030   -0.1880 C   0  0  0  0  0  0  0  0  0  0  0  0
    3.3770   -0.4690    0.1360 C   0  0  0  0  0  0  0  0  0  0  0  0
    3.2800   -1.7110    0.9610 C   0  0  0  0  0  0  0  0  0  0  0  0
    4.0800   -1.5260    2.0960 O   0  0  0  0  0  0  0  0  0  0  0  0
    4.6400    0.0590   -0.4310 C   0  0  0  0  0  0  0  0  0  0  0  0
    4.1860    1.0640   -1.4890 C   0  0  0  0  0  0  0  0  0  0  0  0
    2.8260    1.4420   -1.0100 C   0  0  0  0  0  0  0  0  0  0  0  0
   -2.3820    0.5900   -1.1910 C   0  0  0  0  0  0  0  0  0  0  0  0
   -3.5680    1.1390   -0.4540 C   0  0  0  0  0  0  0  0  0  0  0  0
   -3.1760    2.5020    0.0840 C   0  0  0  0  0  0  0  0  0  0  0  0
   -1.8430    2.3450    0.7700 C   0  0  0  0  0  0  0  0  0  0  0  0
   -1.5010    0.9010    1.0610 C   0  0  0  0  0  0  0  0  0  0  0  0
  1  2  1  0
  2  3  1  0
  4  3  1  1
  4  5  1  0
  4 14  1  0
  4 18  1  0
  5  6  1  0
  6  7  1  0
  7  8  2  0
  7 13  1  0
  8  9  1  0
  8 11  1  0
  9 10  1  0
 11 12  1  0
 12 13  1  0
 14 15  1  0
 15 16  1  0
 16 17  1  0
 17 18  1  0
M  END
