
     RDKit          3D

 22 25  0  0  0  0  0  0  0  0999 V2000
    5.7600    1.7940    0.2380 C   0  0  0  0  0  0  0  0  0  0  0  0
    5.6730    0.4940   -0.2220 C   0  0  0  0  0  0  0  0  0  0  0  0
    4.4860   -0.2150   -0.1950 C   0  0  0  0  0  0  0  0  0  0  0  0
    3.3310    0.3560    0.2980 C   0  0  0  0  0  0  0  0  0  0  0  0
    2.0900   -0.4090    0.3180 C   0  0  0  0  0  0  0  0  0  0  0  0
    0.8030    0.1160    0.1870 C   0  0  0  0  0  0  0  0  0  0  0  0
   -0.1110   -0.9090    0.2550 C   0  0  0  0  0  0  0  0  0  0  0  0
   -1.5090   -0.9390    0.1810 C   0  0  0  0  0  0  0  0  0  0  0  0
   -2.1740    0.2690   -0.0180 N   0  0  0  0  0  0  0  0  0  0  0  0
   -3.5670    0.4050   -0.0860 C   0  0  0  0  0  0  0  0  0  0  0  0
   -4.4270   -0.5210    0.4330 C   0  0  0  0  0  0  0  0  0  0  0  0
   -5.8220   -0.3910    0.3410 C   0  0  0  0  0  0  0  0  0  0  0  0
   -6.3310    0.6750   -0.2740 N   0  0  0  0  0  0  0  0  0  0  0  0
   -5.4900    1.5950   -0.7890 C   0  0  0  0  0  0  0  0  0  0  0  0
   -4.1380    1.5080   -0.7230 C   0  0  0  0  0  0  0  0  0  0  0  0
   -2.1390   -2.1050    0.2810 N   0  0  0  0  0  0  0  0  0  0  0  0
   -1.4360   -3.2390    0.4500 C   0  0  0  0  0  0  0  0  0  0  0  0
   -0.0980   -3.1970    0.5180 N   0  0  0  0  0  0  0  0  0  0  0  0
    0.5650   -2.0480    0.4230 N   0  0  0  0  0  0  0  0  0  0  0  0
    1.9020   -1.7650    0.4630 C   0  0  0  0  0  0  0  0  0  0  0  0
    3.4160    1.6540    0.7580 C   0  0  0  0  0  0  0  0  0  0  0  0
    4.6060    2.3660    0.7310 C   0  0  0  0  0  0  0  0  0  0  0  0
  1  2  2  0
  1 22  1  0
  2  3  1  0
  3  4  2  0
  4  5  1  0
  4 21  1  0
  5  6  1  0
  5 20  2  0
  6  7  2  0
  7  8  1  0
  7 19  1  0
  8  9  1  0
  8 16  2  0
  9 10  1  0
 10 11  2  0
 10 15  1  0
 11 12  1  0
 12 13  2  0
 13 14  1  0
 14 15  2  0
 16 17  1  0
 17 18  2  0
 18 19  1  0
 19 20  1  0
 21 22  2  0
M  END
