
     RDKit          3D

 18 18  0  0  0  0  0  0  0  0999 V2000
    6.6550   -1.0720    1.0550 C   0  0  0  0  0  0  0  0  0  0  0  0
    6.0310   -0.2830   -0.0310 C   0  0  0  0  0  0  0  0  0  0  0  0
    4.7920   -0.6070   -0.4120 C   0  0  0  0  0  0  0  0  0  0  0  0
    4.1720    0.1830   -1.4960 C   0  0  0  0  0  0  0  0  0  0  0  0
    2.9220    0.8500   -0.9740 C   0  0  0  0  0  0  0  0  0  0  0  0
    1.9540   -0.1930   -0.5300 C   0  0  0  0  0  0  0  0  0  0  0  0
    0.6440    0.3610    0.0190 C   0  0  0  0  0  0  0  0  0  0  0  0
   -0.0430    1.1430   -1.0530 C   0  0  0  0  0  0  0  0  0  0  0  0
   -1.2610    1.6800   -0.6630 O   0  0  0  0  0  0  0  0  0  0  0  0
   -2.4160    1.0840   -0.2950 C   0  0  0  0  0  0  0  0  0  0  0  0
   -2.6360   -0.2670   -0.2680 C   0  0  0  0  0  0  0  0  0  0  0  0
   -3.8670   -0.8210    0.1320 C   0  0  0  0  0  0  0  0  0  0  0  0
   -4.0360   -2.2880    0.1390 C   0  0  0  0  0  0  0  0  0  0  0  0
   -4.8970    0.0130    0.5120 C   0  0  0  0  0  0  0  0  0  0  0  0
   -6.1790   -0.6150    0.9260 C   0  0  0  0  0  0  0  0  0  0  0  0
   -4.6860    1.3580    0.4870 C   0  0  0  0  0  0  0  0  0  0  0  0
   -3.4870    1.9010    0.0980 C   0  0  0  0  0  0  0  0  0  0  0  0
   -3.3030    3.2610    0.0820 O   0  0  0  0  0  0  0  0  0  0  0  0
  1  2  1  0
  2  3  2  3
  3  4  1  0
  4  5  1  0
  5  6  1  0
  6  7  1  0
  7  8  1  0
  8  9  1  0
  9 10  1  0
 10 11  2  0
 10 17  1  0
 11 12  1  0
 12 13  1  0
 12 14  2  0
 14 15  1  0
 14 16  1  0
 16 17  2  0
 17 18  1  0
M  END
