
     RDKit          3D

 18 18  0  0  0  0  0  0  0  0999 V2000
    6.4500    2.0420    0.5720 C   0  0  0  0  0  0  0  0  0  0  0  0
    5.2910    1.1390    0.8480 C   0  0  0  0  0  0  0  0  0  0  0  0
    4.2070    1.4360   -0.1350 C   0  0  0  0  0  0  0  0  0  0  0  0
    4.4240    2.2540   -1.0160 O   0  0  0  0  0  0  0  0  0  0  0  0
    2.8770    0.7790   -0.0860 C   0  0  0  0  0  0  0  0  0  0  0  0
    3.0500   -0.6590   -0.5260 C   0  0  0  0  0  0  0  0  0  0  0  0
    1.7250   -1.3970   -0.5010 C   0  0  0  0  0  0  0  0  0  0  0  0
    0.7100   -0.8180   -1.4380 C   0  0  0  0  0  0  0  0  0  0  0  0
   -0.5840   -1.5800   -1.3260 C   0  0  0  0  0  0  0  0  0  0  0  0
   -1.2230   -1.5490    0.0340 C   0  0  2  0  0  0  0  0  0  0  0  0
   -2.4960   -2.3840   -0.0600 C   0  0  0  0  0  0  0  0  0  0  0  0
   -3.5880   -1.6750   -0.8070 C   0  0  0  0  0  0  0  0  0  0  0  0
   -3.3590   -0.3340   -1.0070 O   0  0  0  0  0  0  0  0  0  0  0  0
   -2.8550    0.3720    0.0590 C   0  0  1  0  0  0  0  0  0  0  0  0
   -2.6310    1.7920   -0.4270 C   0  0  0  0  0  0  0  0  0  0  0  0
   -3.8040    0.4590    1.2330 C   0  0  0  0  0  0  0  0  0  0  0  0
   -5.1090    1.1210    0.9150 C   0  0  0  0  0  0  0  0  0  0  0  0
   -1.5400   -0.1610    0.5340 C   0  0  0  0  0  0  0  0  0  0  0  0
  1  2  1  0
  2  3  1  0
  3  4  2  0
  3  5  1  0
  5  6  1  0
  6  7  1  0
  7  8  1  0
  8  9  1  0
 10  9  1  6
 10 11  1  0
 10 18  1  0
 11 12  1  0
 12 13  1  0
 13 14  1  0
 14 15  1  6
 14 16  1  0
 14 18  1  0
 16 17  1  0
M  END
