
     RDKit          3D

 18 18  0  0  0  0  0  0  0  0999 V2000
    5.0300   -1.8660   -1.4810 C   0  0  0  0  0  0  0  0  0  0  0  0
    4.4060   -1.5840   -0.1330 C   0  0  0  0  0  0  0  0  0  0  0  0
    2.9370   -1.5530   -0.1820 C   0  0  0  0  0  0  0  0  0  0  0  0
    2.2790   -0.4230    0.1760 C   0  0  0  0  0  0  0  0  0  0  0  0
    3.1260    0.5930    0.5560 O   0  0  0  0  0  0  0  0  0  0  0  0
    0.8570   -0.3600    0.1400 C   0  0  0  0  0  0  0  0  0  0  0  0
   -0.0090    0.5830    0.4270 C   0  0  0  0  0  0  0  0  0  0  0  0
    0.4640    1.8720    0.8870 C   0  0  0  0  0  0  0  0  0  0  0  0
   -0.1620    2.9530    1.2210 C   0  0  0  0  0  0  0  0  0  0  0  0
   -1.5880    3.2540    1.2500 C   0  0  0  0  0  0  0  0  0  0  0  0
    0.7490    4.1130    1.6580 C   0  0  0  0  0  0  0  0  0  0  0  0
   -1.4600    0.4100    0.2880 C   0  0  0  0  0  0  0  0  0  0  0  0
   -1.9710   -0.8860   -0.2580 C   0  0  1  0  0  0  0  0  0  0  0  0
   -1.6540   -2.0220    0.4070 O   0  0  0  0  0  0  0  0  0  0  0  0
   -3.5430   -0.8450   -0.1540 C   0  0  0  0  0  0  0  0  0  0  0  0
   -3.9670   -2.0150   -1.0040 C   0  0  0  0  0  0  0  0  0  0  0  0
   -2.9470   -2.0600   -2.1290 C   0  0  0  0  0  0  0  0  0  0  0  0
   -1.8580   -1.0720   -1.7330 C   0  0  0  0  0  0  0  0  0  0  0  0
  1  2  1  0
  2  3  1  0
  3  4  2  3
  4  5  1  0
  4  6  1  0
  6  7  2  3
  7  8  1  0
  7 12  1  0
  8  9  2  3
  9 10  1  0
  9 11  1  0
 12 13  1  0
 13 14  1  1
 13 15  1  0
 13 18  1  0
 15 16  1  0
 16 17  1  0
 17 18  1  0
M  END
