
     RDKit          3D

 15 16  0  0  0  0  0  0  0  0999 V2000
    3.5560    1.6910    0.4250 C   0  0  0  0  0  0  0  0  0  0  0  0
    2.9020    0.5340    0.2480 C   0  0  0  0  0  0  0  0  0  0  0  0
    1.4910    0.5290   -0.1130 C   0  0  0  0  0  0  0  0  0  0  0  0
    0.7960   -0.5720   -0.3110 C   0  0  0  0  0  0  0  0  0  0  0  0
   -0.6230   -0.5780   -0.6740 C   0  0  0  0  0  0  0  0  0  0  0  0
   -1.2340    0.7060   -0.7920 N   0  0  0  0  0  0  0  0  0  0  0  0
   -1.3700    1.4010    0.4630 C   0  0  0  0  0  0  0  0  0  0  0  0
   -2.7910    1.3190    1.0120 C   0  0  0  0  0  0  0  0  0  0  0  0
   -3.2090   -0.0070    0.9440 O   0  0  0  0  0  0  0  0  0  0  0  0
   -3.4090   -0.3470   -0.3900 C   0  0  0  0  0  0  0  0  0  0  0  0
   -2.5860    0.4900   -1.3260 C   0  0  0  0  0  0  0  0  0  0  0  0
    1.4960   -1.8380   -0.1520 C   0  0  0  0  0  0  0  0  0  0  0  0
    0.8360   -3.0710   -0.3420 O   0  0  0  0  0  0  0  0  0  0  0  0
    2.7710   -1.9030    0.1780 C   0  0  0  0  0  0  0  0  0  0  0  0
    3.6190   -0.7380    0.4180 C   0  0  0  0  0  0  0  0  0  0  0  0
  1  2  2  0
  2  3  1  0
  2 15  1  0
  3  4  2  0
  4  5  1  0
  4 12  1  0
  5  6  1  0
  6  7  1  0
  6 11  1  0
  7  8  1  0
  8  9  1  0
  9 10  1  0
 10 11  1  0
 12 13  1  0
 12 14  2  0
 14 15  1  0
M  END
