
     RDKit          3D

 15 16  0  0  0  0  0  0  0  0999 V2000
    2.3520   -2.1740   -0.1970 C   0  0  0  0  0  0  0  0  0  0  0  0
    2.5450   -0.8690   -0.2290 C   0  0  0  0  0  0  0  0  0  0  0  0
    3.6850   -0.3410   -0.8430 O   0  0  0  0  0  0  0  0  0  0  0  0
    3.9040    1.0300   -0.8870 C   0  0  0  0  0  0  0  0  0  0  0  0
    3.0050    1.8150   -0.3320 C   0  0  0  0  0  0  0  0  0  0  0  0
    1.7940    1.3000    0.3230 C   0  0  0  0  0  0  0  0  0  0  0  0
    1.5500    0.0020    0.3850 C   0  0  0  0  0  0  0  0  0  0  0  0
    0.3880   -0.4600    1.0140 N   0  0  0  0  0  0  0  0  0  0  0  0
   -0.8260   -0.8100    0.2630 C   0  0  1  0  0  0  0  0  0  0  0  0
   -1.9110   -1.2950    1.1340 C   0  0  0  0  0  0  0  0  0  0  0  0
   -3.2030   -0.5390    1.0920 C   0  0  0  0  0  0  0  0  0  0  0  0
   -3.0680    0.8820    0.8160 C   0  0  0  0  0  0  0  0  0  0  0  0
   -4.0100    1.6220    0.9300 O   0  0  0  0  0  0  0  0  0  0  0  0
   -1.7570    1.4250    0.3890 C   0  0  0  0  0  0  0  0  0  0  0  0
   -1.2120    0.3750   -0.5900 C   0  0  0  0  0  0  0  0  0  0  0  0
  1  2  2  0
  2  3  1  0
  2  7  1  0
  3  4  1  0
  4  5  2  0
  5  6  1  0
  6  7  2  0
  7  8  1  0
  9  8  1  1
  9 10  1  0
  9 15  1  0
 10 11  1  0
 11 12  1  0
 12 13  2  0
 12 14  1  0
 14 15  1  0
M  END
