
     RDKit          3D

 15 16  0  0  0  0  0  0  0  0999 V2000
   -4.7180   -0.0370    0.6330 C   0  0  0  0  0  0  0  0  0  0  0  0
   -3.4420    0.6870    0.5270 N   0  0  0  0  0  0  0  0  0  0  0  0
   -2.4070   -0.3090    0.6620 C   0  0  0  0  0  0  0  0  0  0  0  0
   -1.2800   -0.1260   -0.2500 C   0  0  0  0  0  0  0  0  0  0  0  0
   -1.4070    0.1270   -1.6000 C   0  0  0  0  0  0  0  0  0  0  0  0
   -0.2950    0.2920   -2.4310 C   0  0  0  0  0  0  0  0  0  0  0  0
    0.9920    0.2000   -1.8870 C   0  0  0  0  0  0  0  0  0  0  0  0
    1.1170   -0.0520   -0.5400 C   0  0  0  0  0  0  0  0  0  0  0  0
    2.4380   -0.1570    0.0750 C   0  0  0  0  0  0  0  0  0  0  0  0
    3.5030    0.5770   -0.3990 C   0  0  0  0  0  0  0  0  0  0  0  0
    4.7510    0.4470    0.2180 C   0  0  0  0  0  0  0  0  0  0  0  0
    4.9450   -0.4030    1.2960 C   0  0  0  0  0  0  0  0  0  0  0  0
    3.8730   -1.1010    1.7250 N   0  0  0  0  0  0  0  0  0  0  0  0
    2.6510   -0.9860    1.1360 C   0  0  0  0  0  0  0  0  0  0  0  0
   -0.0000   -0.2100    0.2540 C   0  0  0  0  0  0  0  0  0  0  0  0
  1  2  1  0
  2  3  1  0
  3  4  1  0
  4  5  2  0
  4 15  1  0
  5  6  1  0
  6  7  2  0
  7  8  1  0
  8  9  1  0
  8 15  2  0
  9 10  2  0
  9 14  1  0
 10 11  1  0
 11 12  2  0
 12 13  1  0
 13 14  2  0
M  CHG  1   2   1
M  END
