
     RDKit          3D

 22 23  0  0  0  0  0  0  0  0999 V2000
    1.0070    0.8790   -0.9840 O   0  0  0  0  0  0  0  0  0  0  0  0
    1.0770    0.2340    0.0930 C   0  0  0  0  0  0  0  0  0  0  0  0
    2.3370   -0.2130    0.5780 N   0  0  0  0  0  0  0  0  0  0  0  0
    3.5780    0.0460   -0.1290 C   0  0  1  0  0  0  0  0  0  0  0  0
    4.5940    1.1080    0.9230 S   0  0  0  0  0  0  0  0  0  0  0  0
    6.2450    0.3740    1.0640 C   0  0  0  0  0  0  0  0  0  0  0  0
    6.5510   -0.3280   -0.2370 C   0  0  0  0  0  0  0  0  0  0  0  0
    5.6420   -1.4510   -0.3420 N   0  0  0  0  0  0  0  0  0  0  0  0
    4.2540   -1.2360   -0.4520 C   0  0  0  0  0  0  0  0  0  0  0  0
    3.5020   -2.1800   -0.8500 O   0  0  0  0  0  0  0  0  0  0  0  0
   -0.1150   -0.0070    0.7580 O   0  0  0  0  0  0  0  0  0  0  0  0
   -1.3740    0.4140    0.3180 C   0  0  2  0  0  0  0  0  0  0  0  0
   -1.9690    1.3720    1.2980 C   0  0  0  0  0  0  0  0  0  0  0  0
   -2.4650    2.5280    0.7570 O   0  0  0  0  0  0  0  0  0  0  0  0
   -3.1330    2.3910   -0.4330 C   0  0  0  0  0  0  0  0  0  0  0  0
   -4.0060    1.2540   -0.3390 O   0  0  0  0  0  0  0  0  0  0  0  0
   -3.6350   -0.0820   -0.3850 C   0  0  0  0  0  0  0  0  0  0  0  0
   -4.5570   -0.9030   -0.8500 C   0  0  0  0  0  0  0  0  0  0  0  0
   -5.8690   -0.3610   -1.2710 C   0  0  0  0  0  0  0  0  0  0  0  0
   -6.8400   -0.9870   -0.4680 O   0  0  0  0  0  0  0  0  0  0  0  0
   -2.3260   -0.6940    0.0260 C   0  0  1  0  0  0  0  0  0  0  0  0
   -1.8540   -1.5820   -0.9280 O   0  0  0  0  0  0  0  0  0  0  0  0
  1  2  2  0
  2  3  1  0
  2 11  1  0
  4  3  1  1
  4  5  1  0
  4  9  1  0
  5  6  1  0
  6  7  1  0
  7  8  1  0
  8  9  1  0
  9 10  2  0
 12 11  1  1
 12 13  1  0
 12 21  1  0
 13 14  1  0
 14 15  1  0
 15 16  1  0
 16 17  1  0
 17 18  2  3
 17 21  1  0
 18 19  1  0
 19 20  1  0
 21 22  1  6
M  END
