
     RDKit          3D

 15 15  0  0  0  0  0  0  0  0999 V2000
   -4.1190    0.9300   -0.3100 C   0  0  0  0  0  0  0  0  0  0  0  0
   -2.8240    1.0670   -0.2250 C   0  0  0  0  0  0  0  0  0  0  0  0
   -2.2510    2.4370   -0.1660 C   0  0  0  0  0  0  0  0  0  0  0  0
   -1.8900   -0.0870   -0.1840 C   0  0  0  0  0  0  0  0  0  0  0  0
   -0.5860    0.1130   -0.0980 C   0  0  0  0  0  0  0  0  0  0  0  0
    0.3180   -1.0120   -0.0600 C   0  0  0  0  0  0  0  0  0  0  0  0
    1.6150   -0.8240    0.0330 C   0  0  0  0  0  0  0  0  0  0  0  0
    2.2340    0.4560    0.0950 C   0  0  0  0  0  0  0  0  0  0  0  0
    3.5300    0.4560    0.1830 O   0  0  0  0  0  0  0  0  0  0  0  0
    1.7020    1.7090    0.0770 O   0  0  0  0  0  0  0  0  0  0  0  0
    2.4500    2.8940    0.1460 C   0  0  0  0  0  0  0  0  0  0  0  0
    2.4200   -2.0530    0.1450 C   0  0  0  0  0  0  0  0  0  0  0  0
    1.9430   -3.2700    0.1640 C   0  0  0  0  0  0  0  0  0  0  0  0
    0.5070   -3.5200    0.0770 C   0  0  0  0  0  0  0  0  0  0  0  0
   -0.2250   -2.3290   -0.1930 N   0  0  0  0  0  0  0  0  0  0  0  0
  1  2  2  0
  2  3  1  0
  2  4  1  0
  4  5  2  3
  5  6  1  0
  6  7  2  0
  6 15  1  0
  7  8  1  0
  7 12  1  0
  8  9  2  0
  8 10  1  0
 10 11  1  0
 12 13  2  0
 13 14  1  0
 14 15  1  0
M  END
