
     RDKit          3D

 22 23  0  0  0  0  0  0  0  0999 V2000
    5.1580    1.0220   -0.9390 C   0  0  0  0  0  0  0  0  0  0  0  0
    4.0310    0.1900   -0.7360 O   0  0  0  0  0  0  0  0  0  0  0  0
    3.0820    0.4350    0.2490 C   0  0  0  0  0  0  0  0  0  0  0  0
    3.2690    1.4500    0.9710 O   0  0  0  0  0  0  0  0  0  0  0  0
    1.8920   -0.4690    0.4430 C   0  0  1  0  0  0  0  0  0  0  0  0
    2.3960   -1.8610    0.8440 C   0  0  0  0  0  0  0  0  0  0  0  0
    1.1430    0.0520    1.5020 O   0  0  0  0  0  0  0  0  0  0  0  0
   -0.1870   -0.2410    1.5890 C   0  0  0  0  0  0  0  0  0  0  0  0
   -0.7520   -0.2880    2.7340 O   0  0  0  0  0  0  0  0  0  0  0  0
   -1.0650   -0.5220    0.4180 C   0  0  1  0  0  0  0  0  0  0  0  0
   -1.9390   -1.6670    0.8510 C   0  0  0  0  0  0  0  0  0  0  0  0
   -2.9970   -2.3270   -0.4120 S   0  0  0  0  0  0  0  0  0  0  0  0
   -4.3860   -1.1510   -0.6490 C   0  0  0  0  0  0  0  0  0  0  0  0
   -3.8130    0.0590   -1.2710 C   0  0  0  0  0  0  0  0  0  0  0  0
   -4.5710    0.5190   -2.1930 O   0  0  0  0  0  0  0  0  0  0  0  0
   -2.6070    0.7600   -1.0180 N   0  0  0  0  0  0  0  0  0  0  0  0
   -1.8190    0.7530    0.1610 C   0  0  2  0  0  0  0  0  0  0  0  0
   -0.8490    1.7750    0.0350 O   0  0  0  0  0  0  0  0  0  0  0  0
   -0.9170    2.7050    1.0380 C   0  0  0  0  0  0  0  0  0  0  0  0
   -0.2570   -0.8800   -0.7350 N   0  0  0  0  0  0  0  0  0  0  0  0
    1.1410   -0.6390   -0.8110 C   0  0  0  0  0  0  0  0  0  0  0  0
    1.7530   -0.5680   -1.9050 O   0  0  0  0  0  0  0  0  0  0  0  0
  1  2  1  0
  2  3  1  0
  3  4  2  0
  3  5  1  0
  5  6  1  1
  5  7  1  0
  5 21  1  0
  7  8  1  0
  8  9  2  0
  8 10  1  0
 10 11  1  1
 10 17  1  0
 10 20  1  0
 11 12  1  0
 12 13  1  0
 13 14  1  0
 14 15  2  0
 14 16  1  0
 16 17  1  0
 17 18  1  6
 18 19  1  0
 20 21  1  0
 21 22  2  0
M  END
