
     RDKit          3D

 22 23  0  0  0  0  0  0  0  0999 V2000
    0.4670   -1.5920    1.2090 O   0  0  0  0  0  0  0  0  0  0  0  0
    0.5570   -0.4180    1.0540 C   0  0  0  0  0  0  0  0  0  0  0  0
    1.4590    0.4910    0.4560 N   0  0  0  0  0  0  0  0  0  0  0  0
    2.4910   -0.7070   -0.2470 C   0  0  0  0  0  0  0  0  0  0  0  0
    2.1490   -1.7980   -0.1120 O   0  0  0  0  0  0  0  0  0  0  0  0
    3.5650   -0.1890   -0.8620 O   0  0  0  0  0  0  0  0  0  0  0  0
    4.5290   -1.0470   -1.5270 C   0  0  0  0  0  0  0  0  0  0  0  0
    5.6470   -0.1130   -1.9660 C   0  0  0  0  0  0  0  0  0  0  0  0
    6.1580    0.4570   -0.7790 O   0  0  0  0  0  0  0  0  0  0  0  0
   -0.5880    0.3660    1.6290 N   0  0  0  0  0  0  0  0  0  0  0  0
   -1.6460   -0.2280    2.3090 C   0  0  1  0  0  0  0  0  0  0  0  0
   -2.5900    1.0840    3.1140 S   0  0  0  0  0  0  0  0  0  0  0  0
   -2.9980    2.1830    1.7120 C   0  0  0  0  0  0  0  0  0  0  0  0
   -3.1980    1.4560    0.4570 C   0  0  0  0  0  0  0  0  0  0  0  0
   -3.5610    2.2630   -0.6420 O   0  0  0  0  0  0  0  0  0  0  0  0
   -3.0660    0.1490    0.2760 C   0  0  0  0  0  0  0  0  0  0  0  0
   -3.3170   -0.3460   -1.0670 C   0  0  0  0  0  0  0  0  0  0  0  0
   -3.0830   -1.5990   -1.4230 C   0  0  0  0  0  0  0  0  0  0  0  0
   -2.5540   -2.4980   -0.3940 C   0  0  0  0  0  0  0  0  0  0  0  0
   -2.3050   -3.7170   -0.6970 O   0  0  0  0  0  0  0  0  0  0  0  0
   -2.3350   -2.0190    0.8540 O   0  0  0  0  0  0  0  0  0  0  0  0
   -2.7070   -0.7970    1.3200 C   0  0  1  0  0  0  0  0  0  0  0  0
  1  2  2  0
  2  3  1  0
  2 10  1  0
  3  4  1  0
  4  5  2  0
  4  6  1  0
  6  7  1  0
  7  8  1  0
  8  9  1  0
 11 10  1  6
 11 12  1  0
 11 22  1  0
 12 13  1  0
 13 14  1  0
 14 15  1  0
 14 16  2  0
 16 17  1  0
 16 22  1  0
 17 18  2  0
 18 19  1  0
 19 20  2  0
 19 21  1  0
 22 21  1  6
M  END
