
     RDKit          3D

 22 23  0  0  0  0  0  0  0  0999 V2000
   -5.6420    1.1310   -0.1010 C   0  0  0  0  0  0  0  0  0  0  0  0
   -4.5430    0.1390   -0.4560 C   0  0  1  0  0  0  0  0  0  0  0  0
   -3.3080    0.6870    0.0650 N   0  0  0  0  0  0  0  0  0  0  0  0
   -2.1350    0.0320   -0.4240 C   0  0  0  0  0  0  0  0  0  0  0  0
   -1.7760   -1.0490    0.5370 C   0  0  0  0  0  0  0  0  0  0  0  0
   -0.3720   -1.2180    0.8800 C   0  0  0  0  0  0  0  0  0  0  0  0
   -0.0680   -2.1260    1.6880 O   0  0  0  0  0  0  0  0  0  0  0  0
    0.6360   -0.4310    0.3630 O   0  0  0  0  0  0  0  0  0  0  0  0
    2.0020   -0.6270    0.7240 C   0  0  0  0  0  0  0  0  0  0  0  0
    2.8820    0.3440    0.0320 C   0  0  0  0  0  0  0  0  0  0  0  0
    2.4590    1.2080   -0.7550 O   0  0  0  0  0  0  0  0  0  0  0  0
    4.2350    0.2690    0.2890 O   0  0  0  0  0  0  0  0  0  0  0  0
    5.2040    1.0990   -0.2710 C   0  0  2  0  0  0  0  0  0  0  0  0
    6.1010    0.2030   -1.1350 C   0  0  0  0  0  0  0  0  0  0  0  0
    7.6350    1.2140   -1.0850 S   0  0  0  0  0  0  0  0  0  0  0  0
    7.2280    2.2230    0.2890 O   0  0  0  0  0  0  0  0  0  0  0  0
    6.0360    1.7000    0.7660 C   0  0  0  0  0  0  0  0  0  0  0  0
    5.7090    1.7470    2.0030 O   0  0  0  0  0  0  0  0  0  0  0  0
   -2.6470   -1.8680    1.1020 C   0  0  0  0  0  0  0  0  0  0  0  0
   -4.0970   -1.9520    0.9650 C   0  0  0  0  0  0  0  0  0  0  0  0
   -4.6950   -2.8340    1.6360 O   0  0  0  0  0  0  0  0  0  0  0  0
   -4.8920   -1.1160    0.1320 N   0  0  0  0  0  0  0  0  0  0  0  0
  2  1  1  1
  2  3  1  0
  2 22  1  0
  3  4  1  0
  4  5  1  0
  5  6  1  0
  5 19  2  0
  6  7  2  0
  6  8  1  0
  8  9  1  0
  9 10  1  0
 10 11  2  0
 10 12  1  0
 13 12  1  1
 13 14  1  0
 13 17  1  0
 14 15  1  0
 15 16  1  0
 16 17  1  0
 17 18  2  0
 19 20  1  0
 20 21  2  0
 20 22  1  0
M  END
