
     RDKit          3D

 17 18  0  0  0  0  0  0  0  0999 V2000
   -4.4270   -0.0140   -0.0750 C   0  0  0  0  0  0  0  0  0  0  0  0
   -2.9540   -0.0510   -0.3240 C   0  0  0  0  0  0  0  0  0  0  0  0
   -2.0500    0.1160    0.7050 C   0  0  0  0  0  0  0  0  0  0  0  0
   -0.6850    0.0780    0.4540 C   0  0  0  0  0  0  0  0  0  0  0  0
    0.2190    0.2450    1.4870 C   0  0  0  0  0  0  0  0  0  0  0  0
   -0.2670    0.4440    2.7300 F   0  0  0  0  0  0  0  0  0  0  0  0
    1.5760    0.2080    1.2390 C   0  0  0  0  0  0  0  0  0  0  0  0
    2.4850    0.3910    2.3650 C   0  0  0  0  0  0  0  0  0  0  0  0
    2.9150    1.5150    2.7330 O   0  0  0  0  0  0  0  0  0  0  0  0
    2.0960    0.0070   -0.0220 C   0  0  0  0  0  0  0  0  0  0  0  0
    3.5730   -0.0240   -0.2320 C   0  0  0  0  0  0  0  0  0  0  0  0
    3.7810   -0.2430   -1.5960 O   0  0  0  0  0  0  0  0  0  0  0  0
    1.1940   -0.1600   -1.0520 C   0  0  0  0  0  0  0  0  0  0  0  0
   -0.1720   -0.1240   -0.8100 C   0  0  0  0  0  0  0  0  0  0  0  0
   -1.0830   -0.2910   -1.8380 C   0  0  0  0  0  0  0  0  0  0  0  0
   -2.4380   -0.2530   -1.5870 C   0  0  0  0  0  0  0  0  0  0  0  0
   -3.3060   -0.4190   -2.6100 F   0  0  0  0  0  0  0  0  0  0  0  0
  1  2  1  0
  2  3  2  0
  2 16  1  0
  3  4  1  0
  4  5  2  0
  4 14  1  0
  5  6  1  0
  5  7  1  0
  7  8  1  0
  7 10  2  0
  8  9  2  0
 10 11  1  0
 10 13  1  0
 11 12  1  0
 13 14  2  0
 14 15  1  0
 15 16  2  0
 16 17  1  0
M  END
