
     RDKit          3D

 17 18  0  0  0  0  0  0  0  0999 V2000
   -2.3750   -1.7920   -1.4620 C   0  0  0  0  0  0  0  0  0  0  0  0
   -1.2640   -1.1870   -0.8550 O   0  0  0  0  0  0  0  0  0  0  0  0
   -1.4310   -0.0200   -0.1310 C   0  0  0  0  0  0  0  0  0  0  0  0
   -2.6340    0.6110    0.0450 C   0  0  0  0  0  0  0  0  0  0  0  0
   -2.7850    1.7810    0.7740 C   0  0  0  0  0  0  0  0  0  0  0  0
   -1.6400    2.3250    1.3480 C   0  0  0  0  0  0  0  0  0  0  0  0
   -0.4150    1.7000    1.1800 C   0  0  0  0  0  0  0  0  0  0  0  0
    0.6520    2.2940    1.7710 F   0  0  0  0  0  0  0  0  0  0  0  0
   -0.3100    0.5330    0.4440 C   0  0  0  0  0  0  0  0  0  0  0  0
    1.0020   -0.0570    0.3140 C   0  0  0  0  0  0  0  0  0  0  0  0
    1.4740   -0.9790    1.2150 C   0  0  0  0  0  0  0  0  0  0  0  0
    2.7360   -1.4910    1.0150 C   0  0  0  0  0  0  0  0  0  0  0  0
    3.1850   -2.4030    1.9190 F   0  0  0  0  0  0  0  0  0  0  0  0
    3.5330   -1.1130   -0.0470 C   0  0  0  0  0  0  0  0  0  0  0  0
    3.0610   -0.1870   -0.9520 C   0  0  0  0  0  0  0  0  0  0  0  0
    1.7960    0.3310   -0.7600 C   0  0  0  0  0  0  0  0  0  0  0  0
    1.3590    1.2600   -1.6940 O   0  0  0  0  0  0  0  0  0  0  0  0
  1  2  1  0
  2  3  1  0
  3  4  2  0
  3  9  1  0
  4  5  1  0
  5  6  2  0
  6  7  1  0
  7  8  1  0
  7  9  2  0
  9 10  1  0
 10 11  2  0
 10 16  1  0
 11 12  1  0
 12 13  1  0
 12 14  2  0
 14 15  1  0
 15 16  2  0
 16 17  1  0
M  END
