
     RDKit          3D

 23 24  0  0  0  0  0  0  0  0999 V2000
   -1.8990   -2.8410   -1.3120 N   0  0  0  0  0  0  0  0  0  0  0  0
   -2.6190   -1.6700   -1.0010 C   0  0  0  0  0  0  0  0  0  0  0  0
   -3.7560   -1.5050   -1.5090 O   0  0  0  0  0  0  0  0  0  0  0  0
   -2.0760   -0.6410   -0.1040 C   0  0  1  0  0  0  0  0  0  0  0  0
   -2.8440   -0.4340    1.1620 C   0  0  0  0  0  0  0  0  0  0  0  0
   -4.2570   -0.0160    0.9320 C   0  0  0  0  0  0  0  0  0  0  0  0
   -4.2860    1.2780    0.1700 C   0  0  0  0  0  0  0  0  0  0  0  0
   -5.7070    1.7530   -0.0880 C   0  0  0  0  0  0  0  0  0  0  0  0
   -6.4290    0.7790   -0.8560 N   0  0  0  0  0  0  0  0  0  0  0  0
   -0.7340   -1.0820    0.3080 N   0  0  0  0  0  0  0  0  0  0  0  0
   -0.1640    0.0260    1.0640 C   0  0  0  0  0  0  0  0  0  0  0  0
    1.2750    0.0750    0.7370 C   0  0  0  0  0  0  0  0  0  0  0  0
    2.1810   -0.6430    1.4800 C   0  0  0  0  0  0  0  0  0  0  0  0
    3.5210   -0.5860    1.1620 C   0  0  0  0  0  0  0  0  0  0  0  0
    4.0290    0.1640    0.1210 C   0  0  0  0  0  0  0  0  0  0  0  0
    5.4560    0.1910   -0.1750 C   0  0  0  0  0  0  0  0  0  0  0  0
    6.0660    1.3050   -0.7120 C   0  0  0  0  0  0  0  0  0  0  0  0
    7.4340    1.3230   -0.9920 C   0  0  0  0  0  0  0  0  0  0  0  0
    8.1640    0.2020   -0.7200 C   0  0  0  0  0  0  0  0  0  0  0  0
    7.5870   -0.8880   -0.1980 N   0  0  0  0  0  0  0  0  0  0  0  0
    6.2540   -0.9060    0.0750 C   0  0  0  0  0  0  0  0  0  0  0  0
    3.0920    0.8730   -0.6040 C   0  0  0  0  0  0  0  0  0  0  0  0
    1.7450    0.8350   -0.3090 C   0  0  0  0  0  0  0  0  0  0  0  0
  1  2  1  0
  2  3  2  0
  2  4  1  0
  4  5  1  1
  4 10  1  0
  5  6  1  0
  6  7  1  0
  7  8  1  0
  8  9  1  0
 10 11  1  0
 11 12  1  0
 12 13  2  0
 12 23  1  0
 13 14  1  0
 14 15  2  0
 15 16  1  0
 15 22  1  0
 16 17  2  0
 16 21  1  0
 17 18  1  0
 18 19  2  0
 19 20  1  0
 20 21  2  0
 22 23  2  0
M  CHG  2   9   1  10   1
M  END
