
     RDKit          3D

 17 18  0  0  0  0  0  0  0  0999 V2000
    3.3490    0.6850    1.6510 C   0  0  0  0  0  0  0  0  0  0  0  0
    3.3680    0.3590    0.2740 O   0  0  0  0  0  0  0  0  0  0  0  0
    2.2210    0.0900   -0.4420 C   0  0  0  0  0  0  0  0  0  0  0  0
    0.9770    0.1250    0.1590 C   0  0  0  0  0  0  0  0  0  0  0  0
   -0.1750   -0.1490   -0.5750 C   0  0  0  0  0  0  0  0  0  0  0  0
   -1.4730   -0.1160    0.0360 C   0  0  0  0  0  0  0  0  0  0  0  0
   -1.7040   -0.7030    1.2620 C   0  0  0  0  0  0  0  0  0  0  0  0
   -2.9460   -0.6860    1.8760 C   0  0  0  0  0  0  0  0  0  0  0  0
   -3.1740   -1.2600    3.0760 F   0  0  0  0  0  0  0  0  0  0  0  0
   -3.9900   -0.0670    1.2520 C   0  0  0  0  0  0  0  0  0  0  0  0
   -3.7820    0.5310    0.0170 C   0  0  0  0  0  0  0  0  0  0  0  0
   -2.5390    0.5060   -0.5820 C   0  0  0  0  0  0  0  0  0  0  0  0
   -2.4210    1.1150   -1.7910 F   0  0  0  0  0  0  0  0  0  0  0  0
   -0.0460   -0.4570   -1.9170 C   0  0  0  0  0  0  0  0  0  0  0  0
    1.2070   -0.4860   -2.4910 C   0  0  0  0  0  0  0  0  0  0  0  0
    2.3560   -0.2170   -1.7790 C   0  0  0  0  0  0  0  0  0  0  0  0
    3.6080   -0.2600   -2.4160 O   0  0  0  0  0  0  0  0  0  0  0  0
  1  2  1  0
  2  3  1  0
  3  4  2  0
  3 16  1  0
  4  5  1  0
  5  6  1  0
  5 14  2  0
  6  7  2  0
  6 12  1  0
  7  8  1  0
  8  9  1  0
  8 10  2  0
 10 11  1  0
 11 12  2  0
 12 13  1  0
 14 15  1  0
 15 16  2  0
 16 17  1  0
M  END
