
     RDKit          3D

 17 18  0  0  0  0  0  0  0  0999 V2000
    3.1670   -1.9370   -0.9290 C   0  0  0  0  0  0  0  0  0  0  0  0
    3.3510   -0.5760   -0.6840 O   0  0  0  0  0  0  0  0  0  0  0  0
    2.2760    0.2310   -0.3410 C   0  0  0  0  0  0  0  0  0  0  0  0
    0.9990   -0.2740   -0.2310 C   0  0  0  0  0  0  0  0  0  0  0  0
   -0.0840    0.5220    0.1110 C   0  0  0  0  0  0  0  0  0  0  0  0
   -1.4350   -0.0140    0.2280 C   0  0  0  0  0  0  0  0  0  0  0  0
   -2.3380    0.5380    1.1320 C   0  0  0  0  0  0  0  0  0  0  0  0
   -3.6170    0.0770    1.2860 C   0  0  0  0  0  0  0  0  0  0  0  0
   -4.4510    0.6540    2.1810 F   0  0  0  0  0  0  0  0  0  0  0  0
   -4.0180   -0.9900    0.4990 C   0  0  0  0  0  0  0  0  0  0  0  0
   -3.1620   -1.5750   -0.4140 C   0  0  0  0  0  0  0  0  0  0  0  0
   -3.6030   -2.6190   -1.1650 F   0  0  0  0  0  0  0  0  0  0  0  0
   -1.8690   -1.0740   -0.5390 C   0  0  0  0  0  0  0  0  0  0  0  0
    0.1780    1.8630    0.3410 C   0  0  0  0  0  0  0  0  0  0  0  0
    1.4420    2.3960    0.2390 C   0  0  0  0  0  0  0  0  0  0  0  0
    2.4990    1.5870   -0.1020 C   0  0  0  0  0  0  0  0  0  0  0  0
    3.7920    2.0580   -0.2210 O   0  0  0  0  0  0  0  0  0  0  0  0
  1  2  1  0
  2  3  1  0
  3  4  2  0
  3 16  1  0
  4  5  1  0
  5  6  1  0
  5 14  2  0
  6  7  2  0
  6 13  1  0
  7  8  1  0
  8  9  1  0
  8 10  2  0
 10 11  1  0
 11 12  1  0
 11 13  2  0
 14 15  1  0
 15 16  2  0
 16 17  1  0
M  END
