
     RDKit          3D

 23 23  0  0  0  0  0  0  0  0999 V2000
   -3.8540    4.0630    0.0400 C   0  0  0  0  0  0  0  0  0  0  0  0
   -2.3660    4.1200   -0.1430 C   0  0  0  0  0  0  0  0  0  0  0  0
   -1.6430    2.9860   -0.0910 C   0  0  0  0  0  0  0  0  0  0  0  0
   -2.2520    1.7140    0.1350 C   0  0  0  0  0  0  0  0  0  0  0  0
   -1.6580    0.5320    0.2070 C   0  0  0  0  0  0  0  0  0  0  0  0
   -2.5450   -0.6120    0.4510 C   0  0  0  0  0  0  0  0  0  0  0  0
   -2.1980   -1.8570    0.5470 C   0  0  0  0  0  0  0  0  0  0  0  0
   -3.1780   -2.9610    0.8000 C   0  0  0  0  0  0  0  0  0  0  0  0
   -4.5520   -2.3860    0.9130 C   0  0  0  0  0  0  0  0  0  0  0  0
   -0.1890    0.3740    0.0860 C   0  0  1  0  0  0  0  0  0  0  0  0
    0.3690   -0.0430    1.4060 C   0  0  0  0  0  0  0  0  0  0  0  0
    0.0260    1.0430    2.3490 N   0  0  0  0  0  0  0  0  0  0  0  0
    0.1130   -0.4550   -1.0290 N   0  0  0  0  0  0  0  0  0  0  0  0
    1.2120   -1.3740   -0.8480 C   0  0  1  0  0  0  0  0  0  0  0  0
    1.0830   -2.4410   -1.9170 C   0  0  0  0  0  0  0  0  0  0  0  0
    2.5330   -0.6930   -1.0920 C   0  0  0  0  0  0  0  0  0  0  0  0
    2.8110    0.1440   -2.1380 C   0  0  0  0  0  0  0  0  0  0  0  0
    4.1170    0.5490   -1.9950 C   0  0  0  0  0  0  0  0  0  0  0  0
    4.6130   -0.0500   -0.8600 C   0  0  0  0  0  0  0  0  0  0  0  0
    5.9870    0.1030   -0.3160 C   0  0  0  0  0  0  0  0  0  0  0  0
    6.3200   -0.5980    0.8760 N   0  0  0  0  0  0  0  0  0  0  0  0
    6.7980    0.8370   -0.9210 O   0  0  0  0  0  0  0  0  0  0  0  0
    3.6270   -0.7880   -0.3480 N   0  0  0  0  0  0  0  0  0  0  0  0
  1  2  1  0
  2  3  2  3
  3  4  1  0
  4  5  2  3
  5  6  1  0
  5 10  1  0
  6  7  2  3
  7  8  1  0
  8  9  1  0
 10 11  1  1
 10 13  1  0
 11 12  1  0
 13 14  1  0
 14 15  1  6
 14 16  1  0
 16 17  2  0
 16 23  1  0
 17 18  1  0
 18 19  2  0
 19 20  1  0
 19 23  1  0
 20 21  1  0
 20 22  2  0
M  CHG  2  12   1  13   1
M  END
