
     RDKit          3D

 23 23  0  0  0  0  0  0  0  0999 V2000
   -2.7700    3.7720    0.9990 C   0  0  0  0  0  0  0  0  0  0  0  0
   -3.1000    2.3420    0.5450 C   0  0  0  0  0  0  0  0  0  0  0  0
   -1.9900    1.7540   -0.2380 C   0  0  0  0  0  0  0  0  0  0  0  0
   -2.1450    0.4230   -0.7390 N   0  0  0  0  0  0  0  0  0  0  0  0
   -2.6480    0.2390   -2.0450 C   0  0  0  0  0  0  0  0  0  0  0  0
   -2.9640    1.4740   -2.8540 C   0  0  0  0  0  0  0  0  0  0  0  0
   -2.8600   -0.8370   -2.6050 O   0  0  0  0  0  0  0  0  0  0  0  0
   -1.8100   -0.7900    0.0050 C   0  0  2  0  0  0  0  0  0  0  0  0
   -1.3850   -0.5500    1.4230 C   0  0  0  0  0  0  0  0  0  0  0  0
   -0.2930    0.2350    1.7520 N   0  0  0  0  0  0  0  0  0  0  0  0
    1.0960   -0.1710    1.5190 C   0  0  0  0  0  0  0  0  0  0  0  0
    1.4020   -1.3840    1.8250 N   0  0  0  0  0  0  0  0  0  0  0  0
    2.0250    0.7770    1.0180 C   0  0  0  0  0  0  0  0  0  0  0  0
    3.2690    0.7970    0.6880 C   0  0  0  0  0  0  0  0  0  0  0  0
    4.2540   -0.2130    0.7050 C   0  0  0  0  0  0  0  0  0  0  0  0
    5.5210    0.0090    0.3170 C   0  0  0  0  0  0  0  0  0  0  0  0
    6.0660    1.2660   -0.1640 C   0  0  0  0  0  0  0  0  0  0  0  0
    6.5600    1.0310   -1.5260 N   0  0  0  0  0  0  0  0  0  0  0  0
   -0.7310   -1.5420   -0.7040 C   0  0  0  0  0  0  0  0  0  0  0  0
   -0.5620   -2.9740   -0.4200 C   0  0  0  0  0  0  0  0  0  0  0  0
   -1.7380   -3.7130    0.1240 C   0  0  0  0  0  0  0  0  0  0  0  0
   -2.9650   -3.0280   -0.4080 C   0  0  0  0  0  0  0  0  0  0  0  0
   -3.0950   -1.5920   -0.0120 C   0  0  0  0  0  0  0  0  0  0  0  0
  1  2  1  0
  2  3  1  0
  3  4  1  0
  4  5  1  0
  4  8  1  0
  5  6  1  0
  5  7  2  0
  8  9  1  1
  8 19  1  0
  8 23  1  0
  9 10  1  0
 10 11  1  0
 11 12  2  0
 11 13  1  0
 13 14  2  3
 14 15  1  0
 15 16  2  3
 16 17  1  0
 17 18  1  0
 19 20  1  0
 20 21  1  0
 21 22  1  0
 22 23  1  0
M  CHG  2  12   1  18   1
M  END
