
     RDKit          3D

 11 10  0  0  0  0  0  0  0  0999 V2000
    2.6740    1.0670    0.7630 C   0  0  0  0  0  0  0  0  0  0  0  0
    2.4260    0.2950   -0.5130 C   0  0  0  0  0  0  0  0  0  0  0  0
    0.9420    0.1540   -0.7940 C   0  0  0  0  0  0  0  0  0  0  0  0
    0.3240   -0.5830    0.3670 C   0  0  2  0  0  0  0  0  0  0  0  0
    1.0120   -1.9230    0.4320 C   0  0  0  0  0  0  0  0  0  0  0  0
   -1.1730   -0.7350    0.2390 C   0  0  2  0  0  0  0  0  0  0  0  0
   -1.4630   -1.4790   -0.9740 N   0  0  0  0  0  0  0  0  0  0  0  0
   -1.9920    0.7360    0.5630 P   0  0  0  0  0  0  0  0  0  0  0  0
   -1.4120    2.1610   -0.0720 O   0  0  0  0  0  0  0  0  0  0  0  0
   -3.4720    0.6940    1.3590 O   0  0  0  0  0  0  0  0  0  0  0  0
   -1.3240    1.0520    1.9140 O   0  0  0  0  0  0  0  0  0  0  0  0
  1  2  1  0
  2  3  1  0
  3  4  1  0
  4  5  1  6
  4  6  1  0
  6  7  1  6
  6  8  1  0
  8  9  1  0
  8 10  1  0
  8 11  1  0
M  CHG  1   7   1
M  END
