
     RDKit          3D

 16 17  0  0  0  0  0  0  0  0999 V2000
   -4.7860    1.2000    0.5590 C   0  0  0  0  0  0  0  0  0  0  0  0
   -4.4620   -0.2500    0.7920 C   0  0  0  0  0  0  0  0  0  0  0  0
   -3.6530   -0.7310   -0.2920 O   0  0  0  0  0  0  0  0  0  0  0  0
   -2.0220   -0.3800    0.1750 P   0  0  0  0  0  0  0  0  0  0  0  0
   -0.8580   -1.6740   -0.1640 O   0  0  0  0  0  0  0  0  0  0  0  0
    0.4920   -1.1420   -0.2360 C   0  0  0  0  0  0  0  0  0  0  0  0
    1.6870   -1.7780    0.0370 C   0  0  0  0  0  0  0  0  0  0  0  0
    2.7140   -0.8140   -0.1890 C   0  0  0  0  0  0  0  0  0  0  0  0
    4.1660   -1.0760   -0.0130 C   0  0  0  0  0  0  0  0  0  0  0  0
    4.9310   -0.1950   -0.7160 O   0  0  0  0  0  0  0  0  0  0  0  0
    4.8020    1.4560   -0.1980 P   0  0  0  0  0  0  0  0  0  0  0  0
    2.1240    0.2490   -0.5520 O   0  0  0  0  0  0  0  0  0  0  0  0
    0.7910    0.1180   -0.6070 C   0  0  0  0  0  0  0  0  0  0  0  0
   -0.0990    1.1470   -0.9960 O   0  0  0  0  0  0  0  0  0  0  0  0
   -1.4330    0.9530   -1.0470 C   0  0  0  0  0  0  0  0  0  0  0  0
   -2.2020    1.5640   -1.7900 O   0  0  0  0  0  0  0  0  0  0  0  0
  1  2  1  0
  2  3  1  0
  3  4  1  0
  4  5  1  0
  4 15  1  0
  5  6  1  0
  6  7  1  0
  6 13  2  0
  7  8  2  0
  8  9  1  0
  8 12  1  0
  9 10  1  0
 10 11  1  0
 12 13  1  0
 13 14  1  0
 14 15  1  0
 15 16  2  0
M  END
