
     RDKit          3D

 15 15  0  0  0  0  0  0  0  0999 V2000
    4.1570   -0.4360   -0.4780 C   0  0  0  0  0  0  0  0  0  0  0  0
    3.2070   -0.2450    0.5250 O   0  0  0  0  0  0  0  0  0  0  0  0
    1.9440   -0.0070   -0.0060 C   0  0  0  0  0  0  0  0  0  0  0  0
    1.0760    0.1680    1.0920 O   0  0  0  0  0  0  0  0  0  0  0  0
   -0.3260    0.4350    0.8300 C   0  0  0  0  0  0  0  0  0  0  0  0
   -0.8360    1.6610    0.6860 C   0  0  0  0  0  0  0  0  0  0  0  0
   -0.0290    2.8190    0.7800 O   0  0  0  0  0  0  0  0  0  0  0  0
   -2.1820    1.7880    0.4400 C   0  0  0  0  0  0  0  0  0  0  0  0
   -3.2540    3.2510    0.1880 P   0  0  0  0  0  0  0  0  0  0  0  0
   -3.6050    4.1100    1.4330 O   0  0  0  0  0  0  0  0  0  0  0  0
   -2.8260    0.0480    0.4000 P   0  0  0  0  0  0  0  0  0  0  0  0
   -4.2950   -0.5600    0.4710 O   0  0  0  0  0  0  0  0  0  0  0  0
   -1.1260   -0.6710    0.7340 C   0  0  0  0  0  0  0  0  0  0  0  0
   -0.9430   -2.0150    0.8250 O   0  0  0  0  0  0  0  0  0  0  0  0
   -0.7480   -2.7660   -0.3530 C   0  0  0  0  0  0  0  0  0  0  0  0
  1  2  1  0
  2  3  1  0
  3  4  1  0
  4  5  1  0
  5  6  1  0
  5 13  2  0
  6  7  1  0
  6  8  2  0
  8  9  1  0
  8 11  1  0
  9 10  2  0
 11 12  1  0
 11 13  1  0
 13 14  1  0
 14 15  1  0
M  END
