
     RDKit          3D

 16 16  0  0  0  0  0  0  0  0999 V2000
   -4.9470    1.3720   -0.4680 C   0  0  0  0  0  0  0  0  0  0  0  0
   -3.6020    0.7840   -0.1450 C   0  0  0  0  0  0  0  0  0  0  0  0
   -3.7270   -0.6160   -0.0650 O   0  0  0  0  0  0  0  0  0  0  0  0
   -2.2210   -1.3600    0.3030 P   0  0  0  0  0  0  0  0  0  0  0  0
   -1.6850   -2.4280   -0.9430 O   0  0  0  0  0  0  0  0  0  0  0  0
   -1.0700   -0.1450    0.6900 O   0  0  0  0  0  0  0  0  0  0  0  0
   -0.0150   -0.1990   -0.2290 C   0  0  0  0  0  0  0  0  0  0  0  0
    0.9800    0.8790    0.1360 C   0  0  0  0  0  0  0  0  0  0  0  0
    2.0380    0.8420   -0.7830 O   0  0  0  0  0  0  0  0  0  0  0  0
    2.7820   -0.3710   -0.8620 C   0  0  0  0  0  0  0  0  0  0  0  0
    2.2130   -1.6490   -1.9960 P   0  0  0  0  0  0  0  0  0  0  0  0
    3.9740   -3.0610   -1.3920 S   0  0  0  0  0  0  0  0  0  0  0  0
    4.5720   -1.9170   -0.3040 O   0  0  0  0  0  0  0  0  0  0  0  0
    3.9450   -0.7400   -0.1570 C   0  0  0  0  0  0  0  0  0  0  0  0
    4.4760    0.1630    0.7370 C   0  0  0  0  0  0  0  0  0  0  0  0
    3.9300    1.3930    0.9690 O   0  0  0  0  0  0  0  0  0  0  0  0
  1  2  1  0
  2  3  1  0
  3  4  1  0
  4  5  1  0
  4  6  1  0
  6  7  1  0
  7  8  1  0
  8  9  1  0
  9 10  1  0
 10 11  2  0
 10 14  1  0
 11 12  1  0
 12 13  1  0
 13 14  1  0
 14 15  2  3
 15 16  1  0
M  END
