
     RDKit          3D

 16 16  0  0  0  0  0  0  0  0999 V2000
    5.0890    0.5230    0.8010 C   0  0  0  0  0  0  0  0  0  0  0  0
    4.6420   -0.6990    0.2710 O   0  0  0  0  0  0  0  0  0  0  0  0
    3.3480   -0.3970   -0.7500 S   0  0  1  0  0  0  0  0  0  0  0  0
    3.5100    0.9510   -1.3840 O   0  0  0  0  0  0  0  0  0  0  0  0
    3.2970   -1.4360   -1.8040 O   0  0  0  0  0  0  0  0  0  0  0  0
    1.8510   -0.4180    0.2450 C   0  0  0  0  0  0  0  0  0  0  0  0
    0.4350   -0.0870   -0.8790 P   0  0  0  0  0  0  0  0  0  0  0  0
   -0.9860   -1.2430   -0.5800 C   0  0  0  0  0  0  0  0  0  0  0  0
   -2.1200   -0.3060   -0.6090 C   0  0  0  0  0  0  0  0  0  0  0  0
   -3.4220   -0.8950   -0.7430 O   0  0  0  0  0  0  0  0  0  0  0  0
   -3.8860   -1.5310    0.4400 C   0  0  0  0  0  0  0  0  0  0  0  0
   -3.9740   -0.6360    1.5030 O   0  0  0  0  0  0  0  0  0  0  0  0
   -1.9010    0.9520   -0.5140 C   0  0  0  0  0  0  0  0  0  0  0  0
   -3.2720    2.2110   -0.5390 P   0  0  0  0  0  0  0  0  0  0  0  0
   -0.5310    1.3860   -0.3970 C   0  0  0  0  0  0  0  0  0  0  0  0
   -0.1000    2.4850   -0.0550 O   0  0  0  0  0  0  0  0  0  0  0  0
  1  2  1  0
  2  3  1  0
  3  4  2  0
  3  5  2  0
  3  6  1  1
  6  7  1  0
  7  8  1  0
  7 15  1  0
  8  9  1  0
  9 10  1  0
  9 13  2  0
 10 11  1  0
 11 12  1  0
 13 14  1  0
 13 15  1  0
 15 16  2  0
M  END
