
     RDKit          3D

 15 15  0  0  0  0  0  0  0  0999 V2000
   -3.8970    1.0650   -0.0860 C   0  0  0  0  0  0  0  0  0  0  0  0
   -3.3910   -0.3560   -0.3510 C   0  0  0  0  0  0  0  0  0  0  0  0
   -1.9940   -0.0860   -0.2000 O   0  0  0  0  0  0  0  0  0  0  0  0
   -1.6030   -0.8890    0.7430 O   0  0  0  0  0  0  0  0  0  0  0  0
   -0.3770   -0.5220    1.1080 O   0  0  0  0  0  0  0  0  0  0  0  0
    0.4080   -0.6960   -0.0470 C   0  0  2  0  0  0  0  0  0  0  0  0
   -0.1180   -1.7960   -0.8220 N   0  0  0  0  0  0  0  0  0  0  0  0
    1.6810   -1.3660    0.6300 C   0  0  0  0  0  0  0  0  0  0  0  0
    2.6550   -0.7320   -0.1080 O   0  0  0  0  0  0  0  0  0  0  0  0
    2.1100    0.6060   -0.1240 C   0  0  1  0  0  0  0  0  0  0  0  0
    1.9670    0.8700    1.2740 O   0  0  0  0  0  0  0  0  0  0  0  0
    3.0100    1.4980   -0.8040 C   0  0  0  0  0  0  0  0  0  0  0  0
    3.0280    2.0510   -1.7820 O   0  0  0  0  0  0  0  0  0  0  0  0
    4.1930    1.7570    0.0130 O   0  0  0  0  0  0  0  0  0  0  0  0
    0.9000    0.3720   -0.6830 O   0  0  0  0  0  0  0  0  0  0  0  0
  1  2  1  0
  2  3  1  0
  3  4  1  0
  4  5  1  0
  5  6  1  0
  6  7  1  6
  6  8  1  0
  6 15  1  0
  8  9  1  0
  9 10  1  0
 10 11  1  1
 10 12  1  0
 10 15  1  0
 12 13  2  0
 12 14  1  0
M  END
