
     RDKit          3D

 14 14  0  0  0  0  0  0  0  0999 V2000
   -1.4860    1.3540    1.3250 O   0  0  0  0  0  0  0  0  0  0  0  0
   -0.3330    0.9900    0.9520 C   0  0  0  0  0  0  0  0  0  0  0  0
    0.7320    1.5270    1.6260 O   0  0  0  0  0  0  0  0  0  0  0  0
   -0.2030    0.0400   -0.1480 C   0  0  2  0  0  0  0  0  0  0  0  0
    1.0230   -0.2730   -0.6010 O   0  0  0  0  0  0  0  0  0  0  0  0
    1.7940    0.6780   -1.1710 C   0  0  0  0  0  0  0  0  0  0  0  0
    2.1380    1.7800   -0.4310 O   0  0  0  0  0  0  0  0  0  0  0  0
   -1.1660    0.4620   -1.2010 C   0  0  0  0  0  0  0  0  0  0  0  0
   -0.9070    1.0940   -2.2310 O   0  0  0  0  0  0  0  0  0  0  0  0
   -2.4050    0.0080   -0.7990 O   0  0  0  0  0  0  0  0  0  0  0  0
   -2.2980   -0.6880    0.3950 N   0  0  0  0  0  0  0  0  0  0  0  0
   -0.9620   -1.2630    0.2760 C   0  0  2  0  0  0  0  0  0  0  0  0
   -0.4740   -1.7400    1.4640 O   0  0  0  0  0  0  0  0  0  0  0  0
   -0.1210   -2.9960    1.2890 O   0  0  0  0  0  0  0  0  0  0  0  0
  1  2  2  0
  2  3  1  0
  2  4  1  0
  4  5  1  6
  4  8  1  0
  4 12  1  0
  5  6  1  0
  6  7  1  0
  8  9  2  0
  8 10  1  0
 10 11  1  0
 11 12  1  0
 12 13  1  1
 13 14  1  0
M  END
