
     RDKit          3D

 14 15  0  0  0  0  0  0  0  0999 V2000
    2.4730   -1.3940    0.1770 C   0  0  0  0  0  0  0  0  0  0  0  0
    1.5020   -0.8010   -0.6200 O   0  0  0  0  0  0  0  0  0  0  0  0
    1.0940    0.4310   -0.1120 C   0  0  1  0  0  0  0  0  0  0  0  0
    1.4440    1.4770   -0.9760 O   0  0  0  0  0  0  0  0  0  0  0  0
    1.0360    2.5890   -0.3560 O   0  0  0  0  0  0  0  0  0  0  0  0
   -0.2560    2.6680   -0.6000 O   0  0  0  0  0  0  0  0  0  0  0  0
   -0.9530    1.6960    0.0860 C   0  0  1  0  0  0  0  0  0  0  0  0
   -1.2450    2.2080    1.3730 O   0  0  0  0  0  0  0  0  0  0  0  0
   -2.1770    1.4270   -0.5060 O   0  0  0  0  0  0  0  0  0  0  0  0
   -2.1540    0.2500   -1.0150 O   0  0  0  0  0  0  0  0  0  0  0  0
   -1.1120   -0.4730   -0.4720 C   0  0  1  0  0  0  0  0  0  0  0  0
   -1.6030   -1.5070    0.5500 C   0  0  0  0  0  0  0  0  0  0  0  0
   -0.4440   -1.1070   -1.5310 O   0  0  0  0  0  0  0  0  0  0  0  0
   -0.2910    0.4540    0.2310 N   0  0  0  0  0  0  0  0  0  0  0  0
  1  2  1  0
  3  2  1  6
  3  4  1  0
  3 14  1  0
  4  5  1  0
  5  6  1  0
  6  7  1  0
  7  8  1  1
  7  9  1  0
  7 14  1  0
  9 10  1  0
 10 11  1  0
 11 12  1  1
 11 13  1  0
 11 14  1  0
M  END
