
     RDKit          3D

 16 16  0  0  0  0  0  0  0  0999 V2000
   -5.8450   -1.9010    0.5540 O   0  0  0  0  0  0  0  0  0  0  0  0
   -4.8960   -1.1090    0.3970 C   0  0  0  0  0  0  0  0  0  0  0  0
   -4.9590    0.1660   -0.2200 N   0  0  0  0  0  0  0  0  0  0  0  0
   -3.8460    0.9270    0.2630 C   0  0  0  0  0  0  0  0  0  0  0  0
   -2.8650   -0.1260    0.7000 C   0  0  2  0  0  0  0  0  0  0  0  0
   -1.8230   -0.1960   -0.2820 O   0  0  0  0  0  0  0  0  0  0  0  0
   -0.5060    0.0370    0.1300 C   0  0  0  0  0  0  0  0  0  0  0  0
   -0.2240    0.3030    1.3390 O   0  0  0  0  0  0  0  0  0  0  0  0
    0.5590   -0.0110   -0.7570 O   0  0  0  0  0  0  0  0  0  0  0  0
    1.9000    0.2230   -0.3480 C   0  0  0  0  0  0  0  0  0  0  0  0
    2.7420    0.1070   -1.4540 O   0  0  0  0  0  0  0  0  0  0  0  0
    3.9870    0.3100   -1.1520 O   0  0  0  0  0  0  0  0  0  0  0  0
    4.6280   -0.7740   -0.5950 C   0  0  0  0  0  0  0  0  0  0  0  0
    5.9540   -0.3730   -0.3360 O   0  0  0  0  0  0  0  0  0  0  0  0
    5.9300    0.6530    0.5040 O   0  0  0  0  0  0  0  0  0  0  0  0
   -3.5850   -1.3210    0.7960 O   0  0  0  0  0  0  0  0  0  0  0  0
  1  2  2  0
  2  3  1  0
  2 16  1  0
  3  4  1  0
  4  5  1  0
  5  6  1  6
  5 16  1  0
  6  7  1  0
  7  8  2  0
  7  9  1  0
  9 10  1  0
 10 11  1  0
 11 12  1  0
 12 13  1  0
 13 14  1  0
 14 15  1  0
M  END
