
     RDKit          3D

 16 15  0  0  0  0  0  0  0  0999 V2000
   -0.8510   -3.3830    0.2280 C   0  0  0  0  0  0  0  0  0  0  0  0
   -0.5910   -2.3820    1.1720 O   0  0  0  0  0  0  0  0  0  0  0  0
   -0.2250   -1.1890    0.5580 C   0  0  2  0  0  0  0  0  0  0  0  0
    1.0380   -0.7740    1.0090 O   0  0  0  0  0  0  0  0  0  0  0  0
    1.9150   -0.6030   -0.0620 C   0  0  2  0  0  0  0  0  0  0  0  0
    3.0980   -1.5380    0.2140 C   0  0  0  0  0  0  0  0  0  0  0  0
    2.4540    0.7930   -0.0460 C   0  0  0  0  0  0  0  0  0  0  0  0
    1.3820    1.8450   -0.1620 C   0  0  0  0  0  0  0  0  0  0  0  0
    2.0440    3.0940   -0.1320 O   0  0  0  0  0  0  0  0  0  0  0  0
   -1.1220   -0.2180    0.9850 O   0  0  0  0  0  0  0  0  0  0  0  0
   -1.7650    0.3790   -0.0460 N   0  0  0  0  0  0  0  0  0  0  0  0
   -2.4030    1.5550    0.5240 C   0  0  0  0  0  0  0  0  0  0  0  0
   -3.1090    2.2790   -0.4260 O   0  0  0  0  0  0  0  0  0  0  0  0
   -3.6400    3.3110    0.1960 O   0  0  0  0  0  0  0  0  0  0  0  0
   -2.7190   -0.4590   -0.5680 O   0  0  0  0  0  0  0  0  0  0  0  0
   -3.1770    0.0980   -1.6690 O   0  0  0  0  0  0  0  0  0  0  0  0
  1  2  1  0
  3  2  1  1
  3  4  1  0
  3 10  1  0
  4  5  1  0
  5  6  1  1
  5  7  1  0
  7  8  1  0
  8  9  1  0
 10 11  1  0
 11 12  1  0
 11 15  1  0
 12 13  1  0
 13 14  1  0
 15 16  1  0
M  END
