
     RDKit          3D

 13 13  0  0  0  0  0  0  0  0999 V2000
    2.6660   -0.7280    1.6730 N   0  0  0  0  0  0  0  0  0  0  0  0
    1.9490   -0.7930    0.3950 C   0  0  1  0  0  0  0  0  0  0  0  0
    0.6200   -0.1240    0.6800 C   0  0  0  0  0  0  0  0  0  0  0  0
   -0.3020   -0.0660   -0.4980 C   0  0  0  0  0  0  0  0  0  0  0  0
   -1.5780    0.6190   -0.0480 C   0  0  2  0  0  0  0  0  0  0  0  0
   -2.2730   -0.1140    1.0780 C   0  0  0  0  0  0  0  0  0  0  0  0
   -3.6270    0.6090    1.0780 C   0  0  0  0  0  0  0  0  0  0  0  0
   -3.9540    0.6280   -0.3860 C   0  0  0  0  0  0  0  0  0  0  0  0
   -2.6350    0.5940   -1.1280 C   0  0  0  0  0  0  0  0  0  0  0  0
    2.7860   -0.2920   -1.0280 P   0  0  0  0  0  0  0  0  0  0  0  0
    2.7790    1.2820   -1.5200 O   0  0  0  0  0  0  0  0  0  0  0  0
    3.4170   -1.4450   -2.1040 O   0  0  0  0  0  0  0  0  0  0  0  0
    4.1930   -0.1820   -0.4470 O   0  0  0  0  0  0  0  0  0  0  0  0
  2  1  1  1
  2  3  1  0
  2 10  1  0
  3  4  1  0
  5  4  1  6
  5  6  1  0
  5  9  1  0
  6  7  1  0
  7  8  1  0
  8  9  1  0
 10 11  1  0
 10 12  1  0
 10 13  1  0
M  CHG  1   1   1
M  END
