
     RDKit          3D

 14 14  0  0  0  0  0  0  0  0999 V2000
   -1.8220   -1.5970   -0.4720 N   0  0  0  0  0  0  0  0  0  0  0  0
   -1.1920   -0.4730    0.1960 C   0  0  1  0  0  0  0  0  0  0  0  0
    0.1430   -0.4850   -0.1360 O   0  0  0  0  0  0  0  0  0  0  0  0
    0.8790    0.5410    0.4190 C   0  0  0  0  0  0  0  0  0  0  0  0
    2.3220    0.3500   -0.0670 C   0  0  1  0  0  0  0  0  0  0  0  0
    2.2430    0.4250   -1.4740 O   0  0  0  0  0  0  0  0  0  0  0  0
    3.1670    1.2940    0.4650 O   0  0  0  0  0  0  0  0  0  0  0  0
    2.6940   -1.0480    0.3450 C   0  0  0  0  0  0  0  0  0  0  0  0
    2.8820   -1.9290   -0.4650 O   0  0  0  0  0  0  0  0  0  0  0  0
   -1.7420    0.7140   -0.2410 O   0  0  0  0  0  0  0  0  0  0  0  0
   -2.8520    1.1240    0.4430 C   0  0  0  0  0  0  0  0  0  0  0  0
   -2.9380    0.6550    1.7400 O   0  0  0  0  0  0  0  0  0  0  0  0
   -2.5940   -0.5890    1.8650 O   0  0  0  0  0  0  0  0  0  0  0  0
   -1.3090   -0.6710    1.5640 O   0  0  0  0  0  0  0  0  0  0  0  0
  2  1  1  6
  2  3  1  0
  2 10  1  0
  2 14  1  0
  3  4  1  0
  4  5  1  0
  5  6  1  6
  5  7  1  0
  5  8  1  0
  8  9  2  0
 10 11  1  0
 11 12  1  0
 12 13  1  0
 13 14  1  0
M  END
