
     RDKit          3D

 27 26  0  0  0  0  0  0  0  0999 V2000
   -0.3920    1.9980    6.3180 C   0  0  0  0  0  0  0  0  0  0  0  0
   -0.1620    1.8240    4.8970 N   0  0  0  0  0  0  0  0  0  0  0  0
   -0.7010    0.7270    4.1940 C   0  0  0  0  0  0  0  0  0  0  0  0
   -1.3920   -0.1080    4.8310 O   0  0  0  0  0  0  0  0  0  0  0  0
   -0.5010    0.4970    2.7430 C   0  0  0  0  0  0  0  0  0  0  0  0
   -1.1520   -0.7330    2.2760 C   0  0  0  0  0  0  0  0  0  0  0  0
   -1.8070   -1.5090    3.0270 O   0  0  0  0  0  0  0  0  0  0  0  0
   -1.0680   -1.1030    0.9400 O   0  0  0  0  0  0  0  0  0  0  0  0
   -1.6870   -2.2820    0.4770 C   0  0  2  0  0  0  0  0  0  0  0  0
   -0.7760   -3.2860   -0.1410 C   0  0  0  0  0  0  0  0  0  0  0  0
   -0.0630   -2.8530   -1.3040 N   0  0  0  0  0  0  0  0  0  0  0  0
    0.8500   -1.7930   -1.2900 C   0  0  0  0  0  0  0  0  0  0  0  0
    1.1470   -1.1320   -0.2790 O   0  0  0  0  0  0  0  0  0  0  0  0
    1.4960   -1.4450   -2.6080 C   0  0  0  0  0  0  0  0  0  0  0  0
    2.0860   -0.1180   -2.4500 C   0  0  0  0  0  0  0  0  0  0  0  0
    2.6000    0.4030   -1.4490 O   0  0  0  0  0  0  0  0  0  0  0  0
    2.1060    0.7850   -3.5240 N   0  0  0  0  0  0  0  0  0  0  0  0
    2.6360    2.0320   -3.4060 C   0  0  0  0  0  0  0  0  0  0  0  0
    3.4390    2.8850   -2.6390 N   0  0  0  0  0  0  0  0  0  0  0  0
    2.2690    2.6450   -4.5340 N   0  0  0  0  0  0  0  0  0  0  0  0
    2.8110    3.9930   -4.4460 C   0  0  0  0  0  0  0  0  0  0  0  0
    3.9960    4.1860   -4.7460 O   0  0  0  0  0  0  0  0  0  0  0  0
    1.9710    4.9820   -4.0250 O   0  0  0  0  0  0  0  0  0  0  0  0
   -2.6660   -1.8410   -0.4440 O   0  0  0  0  0  0  0  0  0  0  0  0
   -4.2080   -2.3250    0.1710 P   0  0  0  0  0  0  0  0  0  0  0  0
   -5.1690   -3.1450   -0.9930 O   0  0  0  0  0  0  0  0  0  0  0  0
   -4.0710   -3.1620    1.6650 O   0  0  0  0  0  0  0  0  0  0  0  0
  1  2  1  0
  2  3  1  0
  3  4  2  0
  3  5  1  0
  5  6  1  0
  6  7  2  0
  6  8  1  0
  8  9  1  0
  9 10  1  6
  9 24  1  0
 10 11  1  0
 11 12  1  0
 12 13  2  0
 12 14  1  0
 14 15  1  0
 15 16  2  0
 15 17  1  0
 17 18  1  0
 18 19  1  0
 18 20  2  3
 20 21  1  0
 21 22  2  0
 21 23  1  0
 24 25  1  0
 25 26  1  0
 25 27  1  0
M  END
