
     RDKit          3D

 27 28  0  0  0  0  0  0  0  0999 V2000
    4.8730   -0.4910   -1.0500 O   0  0  0  0  0  0  0  0  0  0  0  0
    5.5650    0.3880   -0.5110 C   0  0  0  0  0  0  0  0  0  0  0  0
    4.9380    1.6290   -0.1730 N   0  0  0  0  0  0  0  0  0  0  0  0
    3.5470    1.8900   -0.4350 C   0  0  0  0  0  0  0  0  0  0  0  0
    2.6150    0.9300    0.2650 C   0  0  0  0  0  0  0  0  0  0  0  0
    1.3050    1.2940   -0.0710 O   0  0  0  0  0  0  0  0  0  0  0  0
    0.1470    0.2480    0.6860 P   0  0  0  0  0  0  0  0  0  0  0  0
    0.9110   -1.1290    1.4080 O   0  0  0  0  0  0  0  0  0  0  0  0
    0.4290   -2.2440    0.9030 O   0  0  0  0  0  0  0  0  0  0  0  0
   -1.1050   -0.2340   -0.4230 O   0  0  0  0  0  0  0  0  0  0  0  0
   -2.4320   -0.2750   -0.0190 C   0  0  0  0  0  0  0  0  0  0  0  0
   -2.6690    0.0510    1.1720 O   0  0  0  0  0  0  0  0  0  0  0  0
   -3.5370   -0.6730   -0.9080 C   0  0  1  0  0  0  0  0  0  0  0  0
   -3.4190   -2.1300   -1.1510 C   0  0  0  0  0  0  0  0  0  0  0  0
   -2.9720   -2.6830   -2.1740 O   0  0  0  0  0  0  0  0  0  0  0  0
   -3.9200   -2.7590    0.0180 N   0  0  0  0  0  0  0  0  0  0  0  0
   -4.7880   -1.7900    0.6230 C   0  0  0  0  0  0  0  0  0  0  0  0
   -5.4500   -1.9490    1.7050 O   0  0  0  0  0  0  0  0  0  0  0  0
   -4.7970   -0.6080   -0.1760 N   0  0  0  0  0  0  0  0  0  0  0  0
   -5.8300    0.3740   -0.2080 C   0  0  0  0  0  0  0  0  0  0  0  0
   -5.5940    1.4640    0.8140 C   0  0  0  0  0  0  0  0  0  0  0  0
   -6.6490    2.3700    0.7050 O   0  0  0  0  0  0  0  0  0  0  0  0
    6.9930    0.2030   -0.2080 C   0  0  0  0  0  0  0  0  0  0  0  0
    7.6850   -0.9550   -0.4950 C   0  0  0  0  0  0  0  0  0  0  0  0
    8.9440   -0.7240   -0.0680 N   0  0  0  0  0  0  0  0  0  0  0  0
    8.9570    0.5010    0.4320 N   0  0  0  0  0  0  0  0  0  0  0  0
    7.7970    1.0540    0.3500 O   0  0  0  0  0  0  0  0  0  0  0  0
  1  2  2  0
  2  3  1  0
  2 23  1  0
  3  4  1  0
  4  5  1  0
  5  6  1  0
  6  7  1  0
  7  8  1  0
  7 10  1  0
  8  9  1  0
 10 11  1  0
 11 12  2  0
 13 11  1  1
 13 14  1  0
 13 19  1  0
 14 15  2  0
 14 16  1  0
 16 17  1  0
 17 18  2  0
 17 19  1  0
 19 20  1  0
 20 21  1  0
 21 22  1  0
 23 24  2  0
 23 27  1  0
 24 25  1  0
 25 26  2  0
 26 27  1  0
M  END
