
     RDKit          3D

 13 12  0  0  0  0  0  0  0  0999 V2000
   -2.4580   -2.1260   -1.7010 C   0  0  0  0  0  0  0  0  0  0  0  0
   -1.6280   -1.6770   -0.5470 C   0  0  0  0  0  0  0  0  0  0  0  0
   -1.1540   -0.2480   -0.6800 C   0  0  0  0  0  0  0  0  0  0  0  0
   -0.3210    0.1440    0.5080 C   0  0  2  0  0  0  0  0  0  0  0  0
    0.1630    1.5830    0.3920 C   0  0  0  0  0  0  0  0  0  0  0  0
   -1.0470    2.5210    0.3110 C   0  0  0  0  0  0  0  0  0  0  0  0
   -0.5640    3.9550    0.1980 C   0  0  0  0  0  0  0  0  0  0  0  0
    0.7980   -0.7990    0.8570 C   0  0  2  0  0  0  0  0  0  0  0  0
    1.4080   -0.1620    2.0710 N   0  0  0  0  0  0  0  0  0  0  0  0
    1.9820   -1.2440   -0.2950 P   0  0  0  0  0  0  0  0  0  0  0  0
    3.1830   -0.1970   -0.7210 O   0  0  0  0  0  0  0  0  0  0  0  0
    1.2350   -0.9990   -1.5920 O   0  0  0  0  0  0  0  0  0  0  0  0
    2.1130   -2.8830   -0.8010 O   0  0  0  0  0  0  0  0  0  0  0  0
  1  2  1  0
  2  3  1  0
  4  3  1  6
  4  5  1  0
  4  8  1  0
  5  6  1  0
  6  7  1  0
  8  9  1  1
  8 10  1  0
 10 11  1  0
 10 12  1  0
 10 13  1  0
M  CHG  1   9   1
M  END
