
     RDKit          3D

 20 21  0  0  0  0  0  0  0  0999 V2000
   -3.1280   -2.7640    1.4910 O   0  0  0  0  0  0  0  0  0  0  0  0
   -3.0190   -1.6990    0.8460 C   0  0  0  0  0  0  0  0  0  0  0  0
   -4.0040   -0.6850    0.8910 N   0  0  0  0  0  0  0  0  0  0  0  0
   -4.3350    0.1580   -0.2340 C   0  0  0  0  0  0  0  0  0  0  0  0
   -3.2160    0.2790   -1.2280 C   0  0  0  0  0  0  0  0  0  0  0  0
   -1.9360   -0.1480   -0.6470 N   0  0  0  0  0  0  0  0  0  0  0  0
   -0.8220    0.6630   -0.7870 C   0  0  0  0  0  0  0  0  0  0  0  0
   -1.0360    1.7010   -1.5480 O   0  0  0  0  0  0  0  0  0  0  0  0
    0.5070    0.6030   -0.2730 C   0  0  0  0  0  0  0  0  0  0  0  0
    1.0180   -0.2920    0.5510 C   0  0  0  0  0  0  0  0  0  0  0  0
    2.4700   -0.0810    0.9100 C   0  0  1  0  0  0  0  0  0  0  0  0
    3.0620   -1.6330    1.7540 P   0  0  0  0  0  0  0  0  0  0  0  0
    2.7610   -2.9510    0.6590 O   0  0  0  0  0  0  0  0  0  0  0  0
    4.7700   -1.4510    2.0250 O   0  0  0  0  0  0  0  0  0  0  0  0
    3.2880    0.2360   -0.2990 C   0  0  0  0  0  0  0  0  0  0  0  0
    2.5780    0.9430   -1.2650 O   0  0  0  0  0  0  0  0  0  0  0  0
    1.5510    1.6520   -0.6570 C   0  0  1  0  0  0  0  0  0  0  0  0
    0.9500    2.5080   -1.5420 O   0  0  0  0  0  0  0  0  0  0  0  0
    0.8580    3.7180   -1.0400 O   0  0  0  0  0  0  0  0  0  0  0  0
   -1.8870   -1.3960   -0.0030 N   0  0  0  0  0  0  0  0  0  0  0  0
  1  2  2  0
  2  3  1  0
  2 20  1  0
  3  4  1  0
  4  5  1  0
  5  6  1  0
  6  7  1  0
  6 20  1  0
  7  8  2  0
  7  9  1  0
  9 10  2  0
  9 17  1  0
 10 11  1  0
 11 12  1  6
 11 15  1  0
 12 13  1  0
 12 14  1  0
 15 16  1  0
 16 17  1  0
 17 18  1  6
 18 19  1  0
M  END
