
     RDKit          3D

 20 21  0  0  0  0  0  0  0  0999 V2000
   -5.6540   -0.0270   -0.4760 C   0  0  0  0  0  0  0  0  0  0  0  0
   -4.1620    0.1230   -0.4570 C   0  0  0  0  0  0  0  0  0  0  0  0
   -3.5490    0.7610    0.5040 C   0  0  0  0  0  0  0  0  0  0  0  0
   -4.0630    1.3940    1.6300 O   0  0  0  0  0  0  0  0  0  0  0  0
   -2.0930    0.7160    0.2060 C   0  0  0  0  0  0  0  0  0  0  0  0
   -1.0880    1.3740    0.5920 N   0  0  0  0  0  0  0  0  0  0  0  0
    0.1800    1.1210    0.1470 O   0  0  0  0  0  0  0  0  0  0  0  0
    0.3200    0.0910   -0.7680 N   0  0  0  0  0  0  0  0  0  0  0  0
    1.5210   -0.6170   -0.8190 C   0  0  0  0  0  0  0  0  0  0  0  0
    1.6560   -1.5540   -1.6450 O   0  0  0  0  0  0  0  0  0  0  0  0
    2.6550   -0.3070    0.0680 C   0  0  1  0  0  0  0  0  0  0  0  0
    2.2970    0.8000    0.9410 N   0  0  0  0  0  0  0  0  0  0  0  0
    2.9570   -1.5370    0.8870 C   0  0  0  0  0  0  0  0  0  0  0  0
    3.2960   -2.5820    0.0330 O   0  0  0  0  0  0  0  0  0  0  0  0
    4.0980    0.1960   -0.9820 P   0  0  0  0  0  0  0  0  0  0  0  0
    3.9280    1.8000   -1.5570 O   0  0  0  0  0  0  0  0  0  0  0  0
    5.6010   -0.1060   -0.2190 O   0  0  0  0  0  0  0  0  0  0  0  0
   -0.8230   -0.2010   -1.6490 C   0  0  0  0  0  0  0  0  0  0  0  0
   -1.9830   -0.4090   -0.7490 C   0  0  2  0  0  0  0  0  0  0  0  0
   -3.2440   -0.3480   -1.3790 O   0  0  0  0  0  0  0  0  0  0  0  0
  1  2  1  0
  2  3  2  0
  2 20  1  0
  3  4  1  0
  3  5  1  0
  5  6  2  0
  5 19  1  0
  6  7  1  0
  7  8  1  0
  8  9  1  0
  8 18  1  0
  9 10  2  0
  9 11  1  0
 11 12  1  1
 11 13  1  0
 11 15  1  0
 13 14  1  0
 15 16  1  0
 15 17  1  0
 19 18  1  6
 19 20  1  0
M  END
