
     RDKit          3D

 27 27  0  0  0  0  0  0  0  0999 V2000
   -1.2780    5.1570    0.1450 C   0  0  0  0  0  0  0  0  0  0  0  0
   -1.2680    3.7840    0.6180 N   0  0  0  0  0  0  0  0  0  0  0  0
   -0.6440    2.6780   -0.0730 C   0  0  0  0  0  0  0  0  0  0  0  0
   -1.0600    1.4780    0.6840 C   0  0  0  0  0  0  0  0  0  0  0  0
   -0.8490    0.2780    0.3310 N   0  0  0  0  0  0  0  0  0  0  0  0
   -0.1820   -0.1140   -0.8420 C   0  0  0  0  0  0  0  0  0  0  0  0
   -0.3280   -1.3210   -1.2710 N   0  0  0  0  0  0  0  0  0  0  0  0
   -1.1410   -2.2500   -0.5870 C   0  0  0  0  0  0  0  0  0  0  0  0
   -0.6530   -3.4000   -0.1880 C   0  0  0  0  0  0  0  0  0  0  0  0
    0.7190   -3.7290   -0.4420 N   0  0  0  0  0  0  0  0  0  0  0  0
    1.1620   -3.9860   -1.6870 O   0  0  0  0  0  0  0  0  0  0  0  0
   -2.5280   -1.9290   -0.3240 C   0  0  0  0  0  0  0  0  0  0  0  0
   -3.0600   -0.8470   -0.6790 O   0  0  0  0  0  0  0  0  0  0  0  0
   -3.3600   -2.8270    0.3510 O   0  0  0  0  0  0  0  0  0  0  0  0
   -4.6860   -2.5610    0.6210 C   0  0  0  0  0  0  0  0  0  0  0  0
   -5.1740   -1.4650    0.2470 O   0  0  0  0  0  0  0  0  0  0  0  0
   -5.4810   -3.4790    1.2940 O   0  0  0  0  0  0  0  0  0  0  0  0
    0.6420    0.7160   -1.5950 O   0  0  0  0  0  0  0  0  0  0  0  0
    1.7780    0.1610   -2.2310 C   0  0  0  0  0  0  0  0  0  0  0  0
    2.7260   -0.4570   -1.2180 C   0  0  0  0  0  0  0  0  0  0  0  0
    3.2090    0.4750   -0.2660 N   0  0  0  0  0  0  0  0  0  0  0  0
    4.2940   -0.0660    0.9500 P   0  0  0  0  0  0  0  0  0  0  0  0
    4.1580   -1.7240    1.3510 O   0  0  0  0  0  0  0  0  0  0  0  0
    5.9090    0.4940    0.8380 O   0  0  0  0  0  0  0  0  0  0  0  0
   -1.7140    1.8980    1.8320 O   0  0  0  0  0  0  0  0  0  0  0  0
   -1.8460    3.2710    1.8100 C   0  0  0  0  0  0  0  0  0  0  0  0
   -2.3870    4.0080    2.6830 O   0  0  0  0  0  0  0  0  0  0  0  0
  1  2  1  0
  2  3  1  0
  2 26  1  0
  3  4  1  0
  4  5  2  3
  4 25  1  0
  5  6  1  0
  6  7  2  3
  6 18  1  0
  7  8  1  0
  8  9  2  3
  8 12  1  0
  9 10  1  0
 10 11  1  0
 12 13  2  0
 12 14  1  0
 14 15  1  0
 15 16  2  0
 15 17  1  0
 18 19  1  0
 19 20  1  0
 20 21  1  0
 21 22  1  0
 22 23  1  0
 22 24  1  0
 25 26  1  0
 26 27  2  0
M  END
