
     RDKit          3D

 18 18  0  0  0  0  0  0  0  0999 V2000
    1.3050   -0.8730   -0.9910 O   0  0  0  0  0  0  0  0  0  0  0  0
    0.9060    0.3030   -1.1640 C   0  0  0  0  0  0  0  0  0  0  0  0
    1.7690    1.3170   -1.6980 N   0  0  0  0  0  0  0  0  0  0  0  0
    3.1220    1.0310   -2.0750 C   0  0  0  0  0  0  0  0  0  0  0  0
    3.9130    0.5520   -0.8860 C   0  0  0  0  0  0  0  0  0  0  0  0
    5.2200    0.2880   -1.3200 O   0  0  0  0  0  0  0  0  0  0  0  0
    6.1340   -0.2720    0.0150 P   0  0  0  0  0  0  0  0  0  0  0  0
    7.8310   -0.1120   -0.1760 O   0  0  0  0  0  0  0  0  0  0  0  0
    5.5830    0.3490    1.5350 O   0  0  0  0  0  0  0  0  0  0  0  0
   -0.7670    0.7950   -0.7630 S   0  0  0  0  0  0  0  0  0  0  0  0
   -1.6310   -0.6940   -0.1590 C   0  0  0  0  0  0  0  0  0  0  0  0
   -2.3860   -0.2990    1.0500 C   0  0  0  0  0  0  0  0  0  0  0  0
   -3.6820   -0.3930    1.1580 C   0  0  0  0  0  0  0  0  0  0  0  0
   -4.5120   -0.9000    0.0870 C   0  0  0  0  0  0  0  0  0  0  0  0
   -5.8570   -0.9820    0.2380 C   0  0  0  0  0  0  0  0  0  0  0  0
   -6.4440   -0.5570    1.4880 C   0  0  0  0  0  0  0  0  0  0  0  0
   -5.7170   -0.0890    2.4860 C   0  0  0  0  0  0  0  0  0  0  0  0
   -4.3130    0.0020    2.3390 O   0  0  0  0  0  0  0  0  0  0  0  0
  1  2  2  0
  2  3  1  0
  2 10  1  0
  3  4  1  0
  4  5  1  0
  5  6  1  0
  6  7  1  0
  7  8  1  0
  7  9  1  0
 10 11  1  0
 11 12  1  0
 12 13  2  3
 13 14  1  0
 13 18  1  0
 14 15  2  0
 15 16  1  0
 16 17  2  0
 17 18  1  0
M  END
