
     RDKit          3D

 11 10  0  0  0  0  0  0  0  0999 V2000
    3.3340   -0.5830    0.5430 C   0  0  0  0  0  0  0  0  0  0  0  0
    2.7330    0.2340   -0.5260 C   0  0  0  0  0  0  0  0  0  0  0  0
    1.3880    0.7840   -0.3870 C   0  0  0  0  0  0  0  0  0  0  0  0
    0.2340   -0.1610   -0.2240 C   0  0  1  0  0  0  0  0  0  0  0  0
    0.3790   -0.9700    0.9800 C   0  0  0  0  0  0  0  0  0  0  0  0
   -1.0590    0.5860   -0.4350 C   0  0  2  0  0  0  0  0  0  0  0  0
   -1.0970    1.6360    0.5820 N   0  0  0  0  0  0  0  0  0  0  0  0
   -2.4510   -0.4200   -0.3600 P   0  0  0  0  0  0  0  0  0  0  0  0
   -2.9800   -0.3630   -1.8010 O   0  0  0  0  0  0  0  0  0  0  0  0
   -2.3540   -2.0810   -0.4670 O   0  0  0  0  0  0  0  0  0  0  0  0
   -3.9140    0.2420    0.1440 O   0  0  0  0  0  0  0  0  0  0  0  0
  1  2  1  0
  2  3  1  0
  3  4  1  0
  4  5  1  1
  4  6  1  0
  6  7  1  1
  6  8  1  0
  8  9  1  0
  8 10  1  0
  8 11  1  0
M  CHG  1   7   1
M  END
