
     RDKit          3D

 17 18  0  0  0  0  0  0  0  0999 V2000
    4.9360    0.3850   -1.6010 O   0  0  0  0  0  0  0  0  0  0  0  0
    4.7540   -0.7630   -1.0870 O   0  0  0  0  0  0  0  0  0  0  0  0
    5.2350   -0.7840    0.1860 O   0  0  0  0  0  0  0  0  0  0  0  0
    4.3710   -0.3570    0.9890 O   0  0  0  0  0  0  0  0  0  0  0  0
    3.0920   -0.5820    1.1750 C   0  0  0  0  0  0  0  0  0  0  0  0
    2.2350    0.7190    0.8250 C   0  0  0  0  0  0  0  0  0  0  0  0
    0.8560    0.4480    1.0620 O   0  0  0  0  0  0  0  0  0  0  0  0
   -0.0830   -0.2360    0.6510 C   0  0  0  0  0  0  0  0  0  0  0  0
   -0.6270    0.3620   -0.6940 C   0  0  2  0  0  0  0  0  0  0  0  0
   -1.1540    1.5880   -0.4310 O   0  0  0  0  0  0  0  0  0  0  0  0
   -2.3560    1.6380   -0.8340 O   0  0  0  0  0  0  0  0  0  0  0  0
   -2.7880    0.3130   -0.5590 C   0  0  2  0  0  0  0  0  0  0  0  0
   -4.1190    0.0970   -1.2080 C   0  0  0  0  0  0  0  0  0  0  0  0
   -4.8910   -0.4510   -0.1480 O   0  0  0  0  0  0  0  0  0  0  0  0
   -4.5450    0.3010    0.8640 O   0  0  0  0  0  0  0  0  0  0  0  0
   -3.1130    0.0980    0.8890 C   0  0  0  0  0  0  0  0  0  0  0  0
   -1.7410   -0.4520   -1.0320 O   0  0  0  0  0  0  0  0  0  0  0  0
  1  2  1  0
  2  3  1  0
  3  4  1  0
  4  5  1  0
  5  6  1  0
  6  7  1  0
  7  8  1  0
  9  8  1  1
  9 10  1  0
  9 17  1  0
 10 11  1  0
 11 12  1  0
 12 13  1  6
 12 16  1  0
 12 17  1  0
 13 14  1  0
 14 15  1  0
 15 16  1  0
M  END
