
     RDKit          3D

 17 17  0  0  0  0  0  0  0  0999 V2000
    5.5540   -1.1350   -0.4900 C   0  0  0  0  0  0  0  0  0  0  0  0
    4.6600   -0.0600   -0.2400 O   0  0  0  0  0  0  0  0  0  0  0  0
    3.4190   -0.1080    0.0060 C   0  0  0  0  0  0  0  0  0  0  0  0
    2.6620    1.0290    0.3540 C   0  0  0  0  0  0  0  0  0  0  0  0
    1.3330    1.0520    0.6190 C   0  0  0  0  0  0  0  0  0  0  0  0
    0.6250   -0.1960    0.5890 C   0  0  0  0  0  0  0  0  0  0  0  0
   -1.0250   -0.2510    1.1810 S   0  0  0  0  0  0  0  0  0  0  0  0
   -1.7270    1.4050    1.0290 C   0  0  0  0  0  0  0  0  0  0  0  0
   -1.5870    2.2190    1.8760 O   0  0  0  0  0  0  0  0  0  0  0  0
   -2.5660    1.5510   -0.2120 C   0  0  0  0  0  0  0  0  0  0  0  0
   -3.9780    1.3730    0.0510 N   0  0  0  0  0  0  0  0  0  0  0  0
   -4.3390    0.0920   -0.6360 C   0  0  1  0  0  0  0  0  0  0  0  0
   -3.3600   -0.8790   -0.5430 O   0  0  0  0  0  0  0  0  0  0  0  0
   -5.8790   -0.5710    0.1640 P   0  0  0  0  0  0  0  0  0  0  0  0
   -5.8450   -1.7280    1.1850 O   0  0  0  0  0  0  0  0  0  0  0  0
    1.3410   -1.2620    0.2290 C   0  0  0  0  0  0  0  0  0  0  0  0
    2.5970   -1.2900   -0.0600 C   0  0  0  0  0  0  0  0  0  0  0  0
  1  2  1  0
  2  3  1  0
  3  4  2  0
  3 17  1  0
  4  5  1  0
  5  6  2  0
  6  7  1  0
  6 16  1  0
  7  8  1  0
  8  9  2  0
  8 10  1  0
 10 11  1  0
 11 12  1  0
 12 13  1  1
 12 14  1  0
 14 15  2  0
 16 17  2  0
M  END
