
     RDKit          3D

 18 18  0  0  0  0  0  0  0  0999 V2000
   -2.9480    3.0750   -0.9800 C   0  0  0  0  0  0  0  0  0  0  0  0
   -3.3900    1.8530   -0.1810 C   0  0  0  0  0  0  0  0  0  0  0  0
   -2.2560    1.0510    0.0320 O   0  0  0  0  0  0  0  0  0  0  0  0
   -2.4880   -0.5820   -0.3700 P   0  0  0  0  0  0  0  0  0  0  0  0
   -2.5380   -1.8310    0.8920 C   0  0  0  0  0  0  0  0  0  0  0  0
   -1.2280   -2.6090    1.0490 C   0  0  0  0  0  0  0  0  0  0  0  0
   -0.3560   -2.5630   -0.0370 O   0  0  0  0  0  0  0  0  0  0  0  0
   -0.1150   -1.3280   -0.5100 C   0  0  1  0  0  0  0  0  0  0  0  0
   -0.2120   -0.3280    0.7450 C   0  0  0  0  0  0  0  0  0  0  0  0
    1.3130   -1.0860   -0.7340 C   0  0  0  0  0  0  0  0  0  0  0  0
    2.3730   -1.9090    0.2330 S   0  0  0  0  0  0  0  0  0  0  0  0
    1.8910   -0.1950   -1.7070 N   0  0  0  0  0  0  0  0  0  0  0  0
    3.3350   -0.0840   -1.5360 C   0  0  0  0  0  0  0  0  0  0  0  0
    3.6010    0.4490   -0.3180 C   0  0  0  0  0  0  0  0  0  0  0  0
    4.8290    0.7480    0.2610 C   0  0  0  0  0  0  0  0  0  0  0  0
    5.9600    0.5170   -0.2860 O   0  0  0  0  0  0  0  0  0  0  0  0
    4.9450    1.3510    1.5020 O   0  0  0  0  0  0  0  0  0  0  0  0
   -1.0420   -0.9460   -1.4230 O   0  0  0  0  0  0  0  0  0  0  0  0
  1  2  1  0
  2  3  1  0
  3  4  1  0
  4  5  1  0
  4 18  1  0
  5  6  1  0
  6  7  1  0
  7  8  1  0
  8  9  1  1
  8 10  1  0
  8 18  1  0
 10 11  2  0
 10 12  1  0
 12 13  1  0
 13 14  2  3
 14 15  1  0
 15 16  2  0
 15 17  1  0
M  END
