
     RDKit          3D

 18 18  0  0  0  0  0  0  0  0999 V2000
   -4.4010    1.7550    0.7940 C   0  0  0  0  0  0  0  0  0  0  0  0
   -3.6550    1.0480   -0.3170 C   0  0  0  0  0  0  0  0  0  0  0  0
   -3.3270   -0.3540    0.0430 C   0  0  0  0  0  0  0  0  0  0  0  0
   -2.0980   -0.8290    0.1340 C   0  0  0  0  0  0  0  0  0  0  0  0
   -0.9770    0.0590   -0.1290 C   0  0  0  0  0  0  0  0  0  0  0  0
    0.3650   -0.4060    0.2210 C   0  0  0  0  0  0  0  0  0  0  0  0
    1.3030    0.5080    0.4590 C   0  0  0  0  0  0  0  0  0  0  0  0
    2.7070    0.2210    0.8220 C   0  0  0  0  0  0  0  0  0  0  0  0
    3.6790    0.8840   -0.1410 C   0  0  0  0  0  0  0  0  0  0  0  0
    3.4120    0.2890   -1.8770 P   0  0  0  0  0  0  0  0  0  0  0  0
    3.5670    1.6140   -2.9740 O   0  0  0  0  0  0  0  0  0  0  0  0
    4.6740   -0.8590   -2.2590 O   0  0  0  0  0  0  0  0  0  0  0  0
    0.7260   -2.0820    0.3370 S   0  0  1  0  0  0  0  0  0  0  0  0
    1.5450   -2.4680   -0.8850 O   0  0  0  0  0  0  0  0  0  0  0  0
    1.4840   -2.4390    1.5880 O   0  0  0  0  0  0  0  0  0  0  0  0
   -0.7560   -2.9550    0.2390 N   0  0  0  0  0  0  0  0  0  0  0  0
   -1.9530   -2.2410    0.4860 C   0  0  0  0  0  0  0  0  0  0  0  0
   -2.9160   -2.8370    1.0220 O   0  0  0  0  0  0  0  0  0  0  0  0
  1  2  1  0
  2  3  1  0
  3  4  2  3
  4  5  1  0
  4 17  1  0
  5  6  1  0
  6  7  2  3
  6 13  1  0
  7  8  1  0
  8  9  1  0
  9 10  1  0
 10 11  1  0
 10 12  1  0
 13 14  2  0
 13 15  2  0
 13 16  1  1
 16 17  1  0
 17 18  2  0
M  END
