
     RDKit          3D

 18 18  0  0  0  0  0  0  0  0999 V2000
    2.3110    0.3760   -3.3040 C   0  0  0  0  0  0  0  0  0  0  0  0
    2.7370    1.3640   -2.2820 C   0  0  0  0  0  0  0  0  0  0  0  0
    2.1400    1.3450   -1.0680 C   0  0  0  0  0  0  0  0  0  0  0  0
    1.1030    0.3790   -0.7680 C   0  0  0  0  0  0  0  0  0  0  0  0
    0.5060    0.3270    0.3830 C   0  0  0  0  0  0  0  0  0  0  0  0
    0.8110    1.2220    1.4830 C   0  0  0  0  0  0  0  0  0  0  0  0
   -0.5990    2.3330    1.9910 P   0  0  0  0  0  0  0  0  0  0  0  0
   -0.8940    3.5690    0.8310 O   0  0  0  0  0  0  0  0  0  0  0  0
   -0.3600    2.9350    3.5820 O   0  0  0  0  0  0  0  0  0  0  0  0
   -0.5310   -0.7190    0.5550 C   0  0  0  0  0  0  0  0  0  0  0  0
   -1.1470   -0.8310    1.7020 C   0  0  0  0  0  0  0  0  0  0  0  0
   -2.1290   -1.7900    1.9210 N   0  0  0  0  0  0  0  0  0  0  0  0
   -2.5680   -2.6540    1.1210 C   0  0  0  0  0  0  0  0  0  0  0  0
   -3.5770   -3.5220    1.5880 O   0  0  0  0  0  0  0  0  0  0  0  0
   -2.1660   -2.8970   -0.2750 C   0  0  0  0  0  0  0  0  0  0  0  0
   -0.9160   -1.7790   -0.7610 S   0  0  2  0  0  0  0  0  0  0  0  0
    0.3170   -2.5810   -1.1380 O   0  0  0  0  0  0  0  0  0  0  0  0
   -1.3440   -1.0010   -1.9850 O   0  0  0  0  0  0  0  0  0  0  0  0
  1  2  1  0
  2  3  2  3
  3  4  1  0
  4  5  2  3
  5  6  1  0
  5 10  1  0
  6  7  1  0
  7  8  1  0
  7  9  1  0
 10 11  2  0
 10 16  1  0
 11 12  1  0
 12 13  2  0
 13 14  1  0
 13 15  1  0
 16 15  1  1
 16 17  2  0
 16 18  2  0
M  END
