
     RDKit          3D

 18 18  0  0  0  0  0  0  0  0999 V2000
    1.2950    0.0330    2.0190 O   0  0  0  0  0  0  0  0  0  0  0  0
    1.9010   -0.2980    0.9710 C   0  0  0  0  0  0  0  0  0  0  0  0
    3.2950   -0.7170    1.0040 C   0  0  0  0  0  0  0  0  0  0  0  0
    3.9350   -1.0610   -0.0600 N   0  0  0  0  0  0  0  0  0  0  0  0
    5.2680   -1.4700   -0.0940 C   0  0  0  0  0  0  0  0  0  0  0  0
    6.2370   -0.6290   -0.3840 C   0  0  0  0  0  0  0  0  0  0  0  0
    5.9260    1.0930   -0.7560 S   0  0  0  0  0  0  0  0  0  0  0  0
    1.1680   -0.2440   -0.2180 O   0  0  0  0  0  0  0  0  0  0  0  0
   -0.1700    0.1670   -0.1850 C   0  0  0  0  0  0  0  0  0  0  0  0
   -0.5120    1.4960   -0.3260 C   0  0  0  0  0  0  0  0  0  0  0  0
   -1.8570    1.8820   -0.2900 C   0  0  0  0  0  0  0  0  0  0  0  0
   -2.8470    0.9380   -0.1130 C   0  0  0  0  0  0  0  0  0  0  0  0
   -4.1520    1.3420   -0.0810 O   0  0  0  0  0  0  0  0  0  0  0  0
   -5.5070    0.2400    0.1370 P   0  0  0  0  0  0  0  0  0  0  0  0
   -7.0150    1.0200   -0.1230 O   0  0  0  0  0  0  0  0  0  0  0  0
   -5.3940   -1.1340   -0.9130 O   0  0  0  0  0  0  0  0  0  0  0  0
   -2.5320   -0.3900    0.0300 C   0  0  0  0  0  0  0  0  0  0  0  0
   -1.1990   -0.7360   -0.0100 C   0  0  0  0  0  0  0  0  0  0  0  0
  1  2  2  0
  2  3  1  0
  2  8  1  0
  3  4  2  3
  4  5  1  0
  5  6  2  3
  6  7  1  0
  8  9  1  0
  9 10  2  0
  9 18  1  0
 10 11  1  0
 11 12  2  0
 12 13  1  0
 12 17  1  0
 13 14  1  0
 14 15  1  0
 14 16  1  0
 17 18  2  0
M  END
