
     RDKit          3D

 18 18  0  0  0  0  0  0  0  0999 V2000
    5.2050   -1.2690   -0.8480 C   0  0  0  0  0  0  0  0  0  0  0  0
    4.3740   -0.6830    0.1370 O   0  0  0  0  0  0  0  0  0  0  0  0
    3.0890   -0.2620   -0.0850 C   0  0  0  0  0  0  0  0  0  0  0  0
    2.6040   -0.4010   -1.2380 O   0  0  0  0  0  0  0  0  0  0  0  0
    2.2360    0.3510    0.9690 C   0  0  0  0  0  0  0  0  0  0  0  0
    0.8830    0.7050    0.4120 C   0  0  0  0  0  0  0  0  0  0  0  0
    0.6260    1.9190   -0.1390 C   0  0  0  0  0  0  0  0  0  0  0  0
   -0.5960    2.2310   -0.6380 C   0  0  0  0  0  0  0  0  0  0  0  0
   -0.8930    3.5050   -1.2250 N   0  0  0  0  0  0  0  0  0  0  0  0
   -1.5550    1.2830   -0.5680 C   0  0  0  0  0  0  0  0  0  0  0  0
   -1.4130   -0.0140   -0.0220 C   0  0  0  0  0  0  0  0  0  0  0  0
   -2.5810   -1.1070   -0.0340 S   0  0  0  0  0  0  0  0  0  0  0  0
   -3.6720   -2.1180   -0.0980 C   0  0  0  0  0  0  0  0  0  0  0  0
   -2.1880   -1.4110   -1.4690 O   0  0  0  0  0  0  0  0  0  0  0  0
   -1.9440   -1.9350    1.3440 O   0  0  0  0  0  0  0  0  0  0  0  0
   -3.8580    0.1890    0.5420 P   0  0  0  0  0  0  0  0  0  0  0  0
   -3.6800    0.6530    2.0080 O   0  0  0  0  0  0  0  0  0  0  0  0
   -0.1230   -0.1940    0.4490 C   0  0  0  0  0  0  0  0  0  0  0  0
  1  2  1  0
  2  3  1  0
  3  4  2  0
  3  5  1  0
  5  6  1  0
  6  7  2  0
  6 18  1  0
  7  8  1  0
  8  9  1  0
  8 10  2  0
 10 11  1  0
 11 12  1  0
 11 18  2  0
 12 13  1  0
 12 14  2  0
 12 15  1  0
 12 16  1  0
 16 17  2  0
M  END
