
     RDKit          3D

 13 13  0  0  0  0  0  0  0  0999 V2000
   -1.5420   -1.8790   -1.0060 N   0  0  0  0  0  0  0  0  0  0  0  0
   -1.7350   -0.8670    0.0440 C   0  0  1  0  0  0  0  0  0  0  0  0
   -0.5510   -0.6310    0.8860 C   0  0  0  0  0  0  0  0  0  0  0  0
    0.7360   -0.1810    0.3920 C   0  0  1  0  0  0  0  0  0  0  0  0
    1.4390   -1.0520   -0.6180 C   0  0  0  0  0  0  0  0  0  0  0  0
    2.9070   -0.6710   -0.5760 C   0  0  0  0  0  0  0  0  0  0  0  0
    3.2320    0.4700    0.3160 C   0  0  0  0  0  0  0  0  0  0  0  0
    2.3580    1.6690    0.2120 C   0  0  0  0  0  0  0  0  0  0  0  0
    0.9240    1.2390   -0.0370 C   0  0  0  0  0  0  0  0  0  0  0  0
   -2.7800    0.4690   -0.2910 P   0  0  0  0  0  0  0  0  0  0  0  0
   -2.3540    1.3770    0.8710 O   0  0  0  0  0  0  0  0  0  0  0  0
   -2.4510    1.6460   -1.3860 O   0  0  0  0  0  0  0  0  0  0  0  0
   -4.3430    0.4720    0.4060 O   0  0  0  0  0  0  0  0  0  0  0  0
  2  1  1  6
  2  3  1  0
  2 10  1  0
  4  3  1  6
  4  5  1  0
  4  9  1  0
  5  6  1  0
  6  7  1  0
  7  8  1  0
  8  9  1  0
 10 11  1  0
 10 12  1  0
 10 13  1  0
M  CHG  1   1   1
M  END
