
     RDKit          3D

 16 15  0  0  0  0  0  0  0  0999 V2000
   -2.5980   -1.0970    0.9960 N   0  0  0  0  0  0  0  0  0  0  0  0
   -2.2530    0.0650    0.2370 C   0  0  1  0  0  0  0  0  0  0  0  0
   -3.1770    0.2590   -0.9590 C   0  0  0  0  0  0  0  0  0  0  0  0
   -3.0870   -0.8480   -1.7890 O   0  0  0  0  0  0  0  0  0  0  0  0
   -2.3880    1.2760    1.0690 C   0  0  0  0  0  0  0  0  0  0  0  0
   -2.7610    1.1600    2.2570 O   0  0  0  0  0  0  0  0  0  0  0  0
   -2.1160    2.5490    0.5870 O   0  0  0  0  0  0  0  0  0  0  0  0
   -0.8830   -0.0730   -0.3260 C   0  0  0  0  0  0  0  0  0  0  0  0
   -0.4060    0.8440   -1.0200 O   0  0  0  0  0  0  0  0  0  0  0  0
   -0.1400   -1.2460   -0.0640 N   0  0  0  0  0  0  0  0  0  0  0  0
    1.1930   -1.4480   -0.5720 C   0  0  0  0  0  0  0  0  0  0  0  0
    2.1260   -0.3960   -0.0500 C   0  0  0  0  0  0  0  0  0  0  0  0
    3.4290   -0.6170   -0.5610 O   0  0  0  0  0  0  0  0  0  0  0  0
    4.4400    0.6180    0.0730 P   0  0  0  0  0  0  0  0  0  0  0  0
    6.1000    0.1890    0.1260 O   0  0  0  0  0  0  0  0  0  0  0  0
    4.1470    2.1570   -0.6250 O   0  0  0  0  0  0  0  0  0  0  0  0
  2  1  1  1
  2  3  1  0
  2  5  1  0
  2  8  1  0
  3  4  1  0
  5  6  2  0
  5  7  1  0
  8  9  2  0
  8 10  1  0
 10 11  1  0
 11 12  1  0
 12 13  1  0
 13 14  1  0
 14 15  1  0
 14 16  1  0
M  END
