
     RDKit          3D

 15 14  0  0  0  0  0  0  0  0999 V2000
   -0.2950   -2.7810   -0.3920 C   0  0  0  0  0  0  0  0  0  0  0  0
   -0.0870   -1.9920    0.9440 C   0  0  2  0  0  0  0  0  0  0  0  0
   -1.2890   -2.1550    1.6540 O   0  0  0  0  0  0  0  0  0  0  0  0
    0.0750   -0.5190    0.5260 C   0  0  2  0  0  0  0  0  0  0  0  0
   -0.9840   -0.2640   -0.3660 N   0  0  0  0  0  0  0  0  0  0  0  0
   -0.9530    1.1250   -0.8430 C   0  0  0  0  0  0  0  0  0  0  0  0
   -2.2730    2.1060   -0.0530 P   0  0  0  0  0  0  0  0  0  0  0  0
   -3.1190    3.1580   -1.0620 O   0  0  0  0  0  0  0  0  0  0  0  0
   -3.2250    1.2670    1.0540 O   0  0  0  0  0  0  0  0  0  0  0  0
    1.4400   -0.3240    0.1190 C   0  0  0  0  0  0  0  0  0  0  0  0
    2.2330   -1.2960    0.0190 O   0  0  0  0  0  0  0  0  0  0  0  0
    1.9600    0.9580   -0.1800 O   0  0  0  0  0  0  0  0  0  0  0  0
    3.2680    1.1150   -0.5660 N   0  0  0  0  0  0  0  0  0  0  0  0
    4.1110    1.8060    0.3970 C   0  0  0  0  0  0  0  0  0  0  0  0
    3.5930    2.1630    1.4850 O   0  0  0  0  0  0  0  0  0  0  0  0
  2  1  1  6
  2  3  1  0
  2  4  1  0
  4  5  1  6
  4 10  1  0
  5  6  1  0
  6  7  1  0
  7  8  1  0
  7  9  1  0
 10 11  2  0
 10 12  1  0
 12 13  1  0
 13 14  1  0
 14 15  2  0
M  END
