
     RDKit          3D

 16 15  0  0  0  0  0  0  0  0999 V2000
    2.7550    0.4370    0.6060 O   0  0  0  0  0  0  0  0  0  0  0  0
    2.4200   -0.6810    0.2650 C   0  0  0  0  0  0  0  0  0  0  0  0
    0.9790   -1.0270    0.3170 C   0  0  0  0  0  0  0  0  0  0  0  0
    0.1990    0.0940    0.7900 N   0  0  0  0  0  0  0  0  0  0  0  0
   -1.2330   -0.0400    0.9140 C   0  0  0  0  0  0  0  0  0  0  0  0
   -1.7970   -1.1200    0.6130 O   0  0  0  0  0  0  0  0  0  0  0  0
   -2.0080    1.0320    1.3700 N   0  0  0  0  0  0  0  0  0  0  0  0
   -3.4280    1.0990    1.5400 C   0  0  0  0  0  0  0  0  0  0  0  0
   -4.1920    0.9430    0.2610 C   0  0  0  0  0  0  0  0  0  0  0  0
   -3.9370   -0.2680   -0.3250 O   0  0  0  0  0  0  0  0  0  0  0  0
   -4.6040   -0.3920   -1.4290 O   0  0  0  0  0  0  0  0  0  0  0  0
    3.4330   -1.6470   -0.1840 C   0  0  0  0  0  0  0  0  0  0  0  0
    4.7290   -1.0870   -0.1640 O   0  0  0  0  0  0  0  0  0  0  0  0
    4.9890    0.0140   -0.9530 C   0  0  0  0  0  0  0  0  0  0  0  0
    4.0630    0.4740   -1.6600 O   0  0  0  0  0  0  0  0  0  0  0  0
    6.2400    0.5820   -0.9530 O   0  0  0  0  0  0  0  0  0  0  0  0
  1  2  2  0
  2  3  1  0
  2 12  1  0
  3  4  1  0
  4  5  1  0
  5  6  2  0
  5  7  1  0
  7  8  1  0
  8  9  1  0
  9 10  1  0
 10 11  1  0
 12 13  1  0
 13 14  1  0
 14 15  2  0
 14 16  1  0
M  END
