
     RDKit          3D

 16 15  0  0  0  0  0  0  0  0999 V2000
    1.9150   -0.1620   -1.4160 O   0  0  0  0  0  0  0  0  0  0  0  0
    1.7190    0.5030   -0.3770 C   0  0  0  0  0  0  0  0  0  0  0  0
    0.3800    0.6070    0.1050 N   0  0  0  0  0  0  0  0  0  0  0  0
   -0.7280   -0.0310   -0.5760 C   0  0  0  0  0  0  0  0  0  0  0  0
   -1.9950    0.2780    0.1940 C   0  0  2  0  0  0  0  0  0  0  0  0
   -1.8390   -0.2340    1.4890 O   0  0  0  0  0  0  0  0  0  0  0  0
   -3.2080   -0.3250   -0.4650 C   0  0  0  0  0  0  0  0  0  0  0  0
   -4.3400   -0.0030    0.3090 O   0  0  0  0  0  0  0  0  0  0  0  0
   -5.6240   -0.3830    0.0170 C   0  0  0  0  0  0  0  0  0  0  0  0
   -5.8240   -1.0720   -1.0190 O   0  0  0  0  0  0  0  0  0  0  0  0
   -6.7320   -0.0630    0.7840 O   0  0  0  0  0  0  0  0  0  0  0  0
    2.8160    1.1220    0.2790 N   0  0  0  0  0  0  0  0  0  0  0  0
    4.1730    1.0120   -0.2170 C   0  0  0  0  0  0  0  0  0  0  0  0
    4.6970   -0.7680   -0.2670 P   0  0  0  0  0  0  0  0  0  0  0  0
    6.3910   -0.9480   -0.4280 O   0  0  0  0  0  0  0  0  0  0  0  0
    4.0640   -1.6520    1.0830 O   0  0  0  0  0  0  0  0  0  0  0  0
  1  2  2  0
  2  3  1  0
  2 12  1  0
  3  4  1  0
  4  5  1  0
  5  6  1  1
  5  7  1  0
  7  8  1  0
  8  9  1  0
  9 10  2  0
  9 11  1  0
 12 13  1  0
 13 14  1  0
 14 15  1  0
 14 16  1  0
M  END
