
     RDKit          3D

 15 14  0  0  0  0  0  0  0  0999 V2000
   -3.9920    0.1750   -0.0950 N   0  0  0  0  0  0  0  0  0  0  0  0
   -3.5330   -1.2000   -0.0990 C   0  0  0  0  0  0  0  0  0  0  0  0
   -2.5980   -1.3860   -1.2610 C   0  0  0  0  0  0  0  0  0  0  0  0
   -1.4720   -0.4850   -1.1180 N   0  0  0  0  0  0  0  0  0  0  0  0
   -0.5910   -0.5240   -0.0100 C   0  0  0  0  0  0  0  0  0  0  0  0
   -0.7520   -1.3550    0.9090 O   0  0  0  0  0  0  0  0  0  0  0  0
    0.5310    0.4330    0.0560 C   0  0  1  0  0  0  0  0  0  0  0  0
    0.5000    1.2460   -1.0680 O   0  0  0  0  0  0  0  0  0  0  0  0
    0.3980    1.2810    1.3150 C   0  0  0  0  0  0  0  0  0  0  0  0
    0.4320    0.4460    2.4290 O   0  0  0  0  0  0  0  0  0  0  0  0
    1.8710   -0.3040    0.1530 C   0  0  0  0  0  0  0  0  0  0  0  0
    2.8490    0.6600    0.2350 O   0  0  0  0  0  0  0  0  0  0  0  0
    4.4410    0.0410    0.3530 P   0  0  0  0  0  0  0  0  0  0  0  0
    5.1690    0.1150   -1.2230 O   0  0  0  0  0  0  0  0  0  0  0  0
    4.4100   -1.6040    0.9080 O   0  0  0  0  0  0  0  0  0  0  0  0
  1  2  1  0
  2  3  1  0
  3  4  1  0
  4  5  1  0
  5  6  2  0
  5  7  1  0
  7  8  1  6
  7  9  1  0
  7 11  1  0
  9 10  1  0
 11 12  1  0
 12 13  1  0
 13 14  1  0
 13 15  1  0
M  END
