
     RDKit          3D

 25 25  0  0  0  0  0  0  0  0999 V2000
    1.0330   -5.6410   -1.6540 C   0  0  0  0  0  0  0  0  0  0  0  0
    0.1350   -4.5200   -2.1930 C   0  0  0  0  0  0  0  0  0  0  0  0
    0.1220   -3.5130   -1.2290 O   0  0  0  0  0  0  0  0  0  0  0  0
   -0.5790   -2.3260   -1.3460 C   0  0  0  0  0  0  0  0  0  0  0  0
   -1.2480   -2.1440   -2.3870 O   0  0  0  0  0  0  0  0  0  0  0  0
   -0.5320   -1.3110   -0.2650 C   0  0  2  0  0  0  0  0  0  0  0  0
   -1.3970   -0.1150   -0.5420 C   0  0  0  0  0  0  0  0  0  0  0  0
   -2.8450   -0.3850   -0.7120 C   0  0  0  0  0  0  0  0  0  0  0  0
   -3.5900    0.8830   -1.0140 C   0  0  0  0  0  0  0  0  0  0  0  0
   -3.4910    1.8900    0.0870 C   0  0  1  0  0  0  0  0  0  0  0  0
   -4.2210    3.0390   -0.2920 O   0  0  0  0  0  0  0  0  0  0  0  0
   -3.3700    4.1300   -0.2490 C   0  0  0  0  0  0  0  0  0  0  0  0
   -4.1100    1.3400    1.2280 O   0  0  0  0  0  0  0  0  0  0  0  0
   -3.1310    1.4460    2.6280 P   0  0  0  0  0  0  0  0  0  0  0  0
    0.9480   -0.8840   -0.1710 C   0  0  0  0  0  0  0  0  0  0  0  0
    1.1680    0.1530    0.8950 C   0  0  0  0  0  0  0  0  0  0  0  0
    2.6510    0.5500    0.9690 C   0  0  1  0  0  0  0  0  0  0  0  0
    3.1500    1.1180   -0.3120 C   0  0  0  0  0  0  0  0  0  0  0  0
    4.2490    2.1230   -0.1770 C   0  0  0  0  0  0  0  0  0  0  0  0
    4.4060    2.6670    1.2190 C   0  0  0  0  0  0  0  0  0  0  0  0
    3.1120    2.7570    1.7620 O   0  0  0  0  0  0  0  0  0  0  0  0
    2.7940    1.4470    2.1540 C   0  0  0  0  0  0  0  0  0  0  0  0
   -1.0420   -2.0590    1.2830 S   0  0  0  0  0  0  0  0  0  0  0  0
   -0.0520   -3.1760    1.6050 O   0  0  0  0  0  0  0  0  0  0  0  0
   -2.6110   -2.6710    1.1750 F   0  0  0  0  0  0  0  0  0  0  0  0
  1  2  1  0
  2  3  1  0
  3  4  1  0
  4  5  2  0
  4  6  1  0
  6  7  1  6
  6 15  1  0
  6 23  1  0
  7  8  1  0
  8  9  1  0
 10  9  1  6
 10 11  1  0
 10 13  1  0
 11 12  1  0
 13 14  1  0
 15 16  1  0
 17 16  1  6
 17 18  1  0
 17 22  1  0
 18 19  1  0
 19 20  1  0
 20 21  1  0
 21 22  1  0
 23 24  2  0
 23 25  1  6
M  END
