
     RDKit          3D

 25 24  0  0  0  0  0  0  0  0999 V2000
    7.0450   -0.3090    0.6440 C   0  0  0  0  0  0  0  0  0  0  0  0
    6.2110   -0.8670    1.7710 C   0  0  0  0  0  0  0  0  0  0  0  0
    6.7240   -1.0880    2.8930 O   0  0  0  0  0  0  0  0  0  0  0  0
    4.8000   -1.1600    1.5830 C   0  0  0  0  0  0  0  0  0  0  0  0
    4.0210   -1.7050    2.7130 C   0  0  0  0  0  0  0  0  0  0  0  0
    4.2580   -0.9260    0.3960 C   0  0  0  0  0  0  0  0  0  0  0  0
    2.8280   -1.2200    0.1970 C   0  0  0  0  0  0  0  0  0  0  0  0
    2.0400    0.0080   -0.2050 C   0  0  0  0  0  0  0  0  0  0  0  0
    0.6160   -0.3500   -0.3870 C   0  0  0  0  0  0  0  0  0  0  0  0
   -0.1090   -0.3970    0.6390 O   0  0  0  0  0  0  0  0  0  0  0  0
    0.0350   -0.6350   -1.6130 O   0  0  0  0  0  0  0  0  0  0  0  0
   -1.3180   -0.9520   -1.6930 C   0  0  0  0  0  0  0  0  0  0  0  0
   -2.2380    0.1720   -1.3890 C   0  0  0  0  0  0  0  0  0  0  0  0
   -1.7430    1.3510   -1.0950 C   0  0  0  0  0  0  0  0  0  0  0  0
   -2.6150    2.4980   -0.7860 C   0  0  0  0  0  0  0  0  0  0  0  0
   -1.9910    3.6390   -0.4980 C   0  0  0  0  0  0  0  0  0  0  0  0
   -0.6170    3.7670   -0.4840 O   0  0  0  0  0  0  0  0  0  0  0  0
   -3.9600   -0.1070   -1.4360 S   0  0  1  0  0  0  0  0  0  0  0  0
   -4.5970    0.3670   -3.0090 C   0  0  0  0  0  0  0  0  0  0  0  0
   -4.2650   -1.5890   -1.2850 O   0  0  0  0  0  0  0  0  0  0  0  0
   -4.7550    0.4740   -0.2090 C   0  0  0  0  0  0  0  0  0  0  0  0
   -4.1750    0.4170    1.0150 O   0  0  0  0  0  0  0  0  0  0  0  0
   -4.4470   -0.4880    2.0110 C   0  0  0  0  0  0  0  0  0  0  0  0
   -3.4940   -1.4040    2.3890 O   0  0  0  0  0  0  0  0  0  0  0  0
   -5.9150   -0.4770    2.7530 P   0  0  0  0  0  0  0  0  0  0  0  0
  1  2  1  0
  2  3  2  0
  2  4  1  0
  4  5  1  0
  4  6  2  3
  6  7  1  0
  7  8  1  0
  8  9  1  0
  9 10  2  0
  9 11  1  0
 11 12  1  0
 12 13  1  0
 13 14  2  3
 13 18  1  0
 14 15  1  0
 15 16  2  3
 16 17  1  0
 18 19  1  6
 18 20  2  0
 18 21  2  0
 21 22  1  0
 22 23  1  0
 23 24  1  0
 23 25  2  0
M  END
