
     RDKit          3D

 25 26  0  0  0  0  0  0  0  0999 V2000
    4.8920   -2.5120    0.6700 C   0  0  0  0  0  0  0  0  0  0  0  0
    5.0090   -1.4390   -0.3910 C   0  0  0  0  0  0  0  0  0  0  0  0
    4.4970   -0.1950    0.0730 O   0  0  0  0  0  0  0  0  0  0  0  0
    3.1840   -0.0520    0.4730 C   0  0  0  0  0  0  0  0  0  0  0  0
    2.9230    0.2860    1.7120 C   0  0  0  0  0  0  0  0  0  0  0  0
    4.2820    0.5610    2.8820 P   0  0  0  0  0  0  0  0  0  0  0  0
    5.5850    1.4830    2.4550 C   0  0  0  0  0  0  0  0  0  0  0  0
    5.6560    2.0510    1.2120 O   0  0  0  0  0  0  0  0  0  0  0  0
    6.7410    2.1060    0.4490 O   0  0  0  0  0  0  0  0  0  0  0  0
    2.1350   -0.2970   -0.5490 C   0  0  0  0  0  0  0  0  0  0  0  0
    0.8550   -0.1260   -0.0390 O   0  0  0  0  0  0  0  0  0  0  0  0
   -0.2420   -0.4290   -1.2860 S   0  0  1  0  0  0  0  0  0  0  0  0
   -0.4090   -2.1070   -1.4620 O   0  0  0  0  0  0  0  0  0  0  0  0
   -1.8600    0.2470   -0.9450 C   0  0  0  0  0  0  0  0  0  0  0  0
   -2.6710   -0.5470   -0.2860 C   0  0  0  0  0  0  0  0  0  0  0  0
   -4.0310   -0.1630    0.0780 C   0  0  0  0  0  0  0  0  0  0  0  0
   -4.9980   -0.8140    0.7430 C   0  0  0  0  0  0  0  0  0  0  0  0
   -4.8750   -2.1880    1.2990 C   0  0  0  0  0  0  0  0  0  0  0  0
   -6.1540    0.0790    0.8120 C   0  0  0  0  0  0  0  0  0  0  0  0
   -5.7280    1.3030    0.1120 C   0  0  0  0  0  0  0  0  0  0  0  0
   -4.4660    1.1480   -0.3210 C   0  0  0  0  0  0  0  0  0  0  0  0
   -3.5860    2.0530   -1.0760 C   0  0  0  0  0  0  0  0  0  0  0  0
   -2.2260    1.5990   -1.3620 C   0  0  2  0  0  0  0  0  0  0  0  0
   -1.9900    1.7700   -2.7460 O   0  0  0  0  0  0  0  0  0  0  0  0
   -1.0580    2.6750   -2.9100 O   0  0  0  0  0  0  0  0  0  0  0  0
  1  2  1  0
  2  3  1  0
  3  4  1  0
  4  5  2  3
  4 10  1  0
  5  6  1  0
  6  7  2  3
  7  8  1  0
  8  9  1  0
 10 11  1  0
 11 12  1  0
 12 13  1  1
 12 14  1  0
 14 15  2  0
 14 23  1  0
 15 16  1  0
 16 17  2  0
 16 21  1  0
 17 18  1  0
 17 19  1  0
 19 20  1  0
 20 21  2  0
 21 22  1  0
 22 23  1  0
 23 24  1  6
 24 25  1  0
M  END
