
     RDKit          3D

 25 25  0  0  0  0  0  0  0  0999 V2000
   -3.0040   -4.6220   -0.4410 C   0  0  0  0  0  0  0  0  0  0  0  0
   -3.1800   -3.2270   -0.8500 C   0  0  0  0  0  0  0  0  0  0  0  0
   -2.4160   -2.2660   -0.3510 C   0  0  0  0  0  0  0  0  0  0  0  0
   -1.4410   -2.6210    0.5740 O   0  0  0  0  0  0  0  0  0  0  0  0
   -2.6220   -0.9200   -0.7780 C   0  0  0  0  0  0  0  0  0  0  0  0
   -1.9740    0.1680   -0.4000 C   0  0  0  0  0  0  0  0  0  0  0  0
   -0.8590    0.3630    0.5560 C   0  0  1  0  0  0  0  0  0  0  0  0
   -1.2960   -0.0450    1.9400 C   0  0  0  0  0  0  0  0  0  0  0  0
    0.1280   -0.5710    0.1670 O   0  0  0  0  0  0  0  0  0  0  0  0
    1.1580   -0.4580    0.9770 O   0  0  0  0  0  0  0  0  0  0  0  0
    2.0560   -1.4900    0.8520 C   0  0  0  0  0  0  0  0  0  0  0  0
    2.6870   -1.5050   -0.8960 P   0  0  0  0  0  0  0  0  0  0  0  0
    3.4270   -3.1660   -1.2800 C   0  0  0  0  0  0  0  0  0  0  0  0
    3.9090   -0.1310   -1.1660 C   0  0  0  0  0  0  0  0  0  0  0  0
    4.4060    0.2230    0.0920 O   0  0  0  0  0  0  0  0  0  0  0  0
    4.9790   -0.8590    0.5960 O   0  0  0  0  0  0  0  0  0  0  0  0
    6.1330   -1.0260    0.0170 O   0  0  0  0  0  0  0  0  0  0  0  0
    6.7870    0.2180    0.0550 C   0  0  0  0  0  0  0  0  0  0  0  0
   -0.3340    1.7020    0.6070 C   0  0  0  0  0  0  0  0  0  0  0  0
   -1.2520    2.7850    0.1080 C   0  0  2  0  0  0  0  0  0  0  0  0
   -1.8230    3.5210    1.2290 C   0  0  0  0  0  0  0  0  0  0  0  0
   -2.7530    4.6480    0.8670 C   0  0  0  0  0  0  0  0  0  0  0  0
   -2.2350    1.8890   -0.9410 S   0  0  0  0  0  0  0  0  0  0  0  0
   -3.8610    2.2830   -1.0050 C   0  0  0  0  0  0  0  0  0  0  0  0
   -1.5240    2.2860   -2.6510 O   0  0  0  0  0  0  0  0  0  0  0  0
  1  2  1  0
  2  3  2  3
  3  4  1  0
  3  5  1  0
  5  6  2  3
  6  7  1  0
  6 23  1  0
  7  8  1  1
  7  9  1  0
  7 19  1  0
  9 10  1  0
 10 11  1  0
 11 12  1  0
 12 13  1  0
 12 14  1  0
 14 15  1  0
 15 16  1  0
 16 17  1  0
 17 18  1  0
 19 20  1  0
 20 21  1  1
 20 23  1  0
 21 22  1  0
 23 24  1  0
 23 25  2  0
M  END
