
     RDKit          3D

 25 25  0  0  0  0  0  0  0  0999 V2000
    0.4760   -2.0470   -2.2580 C   0  0  0  0  0  0  0  0  0  0  0  0
   -0.5370   -1.6360   -1.2560 C   0  0  0  0  0  0  0  0  0  0  0  0
   -2.1480   -1.9680   -1.4520 P   0  0  0  0  0  0  0  0  0  0  0  0
   -3.3040   -1.4120   -0.1370 C   0  0  2  0  0  0  0  0  0  0  0  0
   -4.6050   -0.8110   -0.6700 C   0  0  0  0  0  0  0  0  0  0  0  0
   -5.4260   -0.4240    0.5320 C   0  0  0  0  0  0  0  0  0  0  0  0
   -6.6690    0.1490    0.2000 O   0  0  0  0  0  0  0  0  0  0  0  0
   -6.7750    1.3020   -0.5340 C   0  0  0  0  0  0  0  0  0  0  0  0
   -5.7340    1.8780   -0.9300 O   0  0  0  0  0  0  0  0  0  0  0  0
   -8.0260    1.8650   -0.8600 O   0  0  0  0  0  0  0  0  0  0  0  0
   -8.1160    2.9980   -1.5820 F   0  0  0  0  0  0  0  0  0  0  0  0
   -2.5770   -0.5140    0.7590 C   0  0  0  0  0  0  0  0  0  0  0  0
   -1.1320   -0.3860    0.7150 C   0  0  0  0  0  0  0  0  0  0  0  0
   -0.2020   -0.8150   -0.0820 C   0  0  0  0  0  0  0  0  0  0  0  0
    1.2570   -0.5680    0.1780 C   0  0  1  0  0  0  0  0  0  0  0  0
    2.0160   -0.6200   -0.9320 O   0  0  0  0  0  0  0  0  0  0  0  0
    1.4750    0.8440    0.7810 C   0  0  0  0  0  0  0  0  0  0  0  0
    2.9270    1.1190    1.0470 C   0  0  0  0  0  0  0  0  0  0  0  0
    3.8680    1.0950   -0.0860 C   0  0  0  0  0  0  0  0  0  0  0  0
    5.2450    1.4560    0.5350 C   0  0  0  0  0  0  0  0  0  0  0  0
    6.2730    1.4520   -0.5740 C   0  0  0  0  0  0  0  0  0  0  0  0
    5.7930    2.6770   -1.8110 S   0  0  0  0  0  0  0  0  0  0  0  0
    1.6290   -1.3740    1.2710 O   0  0  0  0  0  0  0  0  0  0  0  0
    1.5700   -2.6910    1.4790 C   0  0  0  0  0  0  0  0  0  0  0  0
    1.1030   -3.4280    0.6010 O   0  0  0  0  0  0  0  0  0  0  0  0
  1  2  1  0
  2  3  2  0
  2 14  1  0
  3  4  1  0
  4  5  1  6
  4 12  1  0
  5  6  1  0
  6  7  1  0
  7  8  1  0
  8  9  2  0
  8 10  1  0
 10 11  1  0
 12 13  1  0
 13 14  2  0
 14 15  1  0
 15 16  1  6
 15 17  1  0
 15 23  1  0
 17 18  1  0
 18 19  1  0
 19 20  1  0
 20 21  1  0
 21 22  1  0
 23 24  1  0
 24 25  2  0
M  END
