
     RDKit          3D

 25 25  0  0  0  0  0  0  0  0999 V2000
    1.9070    0.9670   -1.8600 C   0  0  0  0  0  0  0  0  0  0  0  0
    1.6620    0.0140   -0.9520 C   0  0  0  0  0  0  0  0  0  0  0  0
    0.3590   -0.4680   -0.9540 O   0  0  0  0  0  0  0  0  0  0  0  0
   -0.2570   -0.9870   -2.1180 C   0  0  0  0  0  0  0  0  0  0  0  0
   -1.5660   -1.4140   -1.8920 O   0  0  0  0  0  0  0  0  0  0  0  0
   -2.5860   -0.5820   -1.4410 C   0  0  0  0  0  0  0  0  0  0  0  0
   -2.2770    0.6200   -1.2340 O   0  0  0  0  0  0  0  0  0  0  0  0
   -3.8760   -0.9880   -1.2150 O   0  0  0  0  0  0  0  0  0  0  0  0
   -4.8930   -0.0920   -0.7500 C   0  0  0  0  0  0  0  0  0  0  0  0
   -6.4920   -1.0220   -0.5710 P   0  0  0  0  0  0  0  0  0  0  0  0
   -7.5340   -0.6420   -2.0610 C   0  0  0  0  0  0  0  0  0  0  0  0
   -7.3140   -0.4300    0.9470 C   0  0  0  0  0  0  0  0  0  0  0  0
   -7.2510   -1.0820    1.9680 O   0  0  0  0  0  0  0  0  0  0  0  0
    2.6750   -0.3820   -0.1410 O   0  0  0  0  0  0  0  0  0  0  0  0
    2.4140   -0.6600    1.2450 C   0  0  1  0  0  0  0  0  0  0  0  0
    1.4350   -1.7700    1.3150 C   0  0  0  0  0  0  0  0  0  0  0  0
    1.9900   -2.7900    1.8910 C   0  0  0  0  0  0  0  0  0  0  0  0
    3.3440   -2.4440    2.2460 C   0  0  0  0  0  0  0  0  0  0  0  0
    3.6450   -1.1790    1.8860 C   0  0  0  0  0  0  0  0  0  0  0  0
    4.9430   -0.5940    2.1150 C   0  0  0  0  0  0  0  0  0  0  0  0
    5.5480    0.4980    1.9520 C   0  0  0  0  0  0  0  0  0  0  0  0
    5.2570    1.7800    1.4420 C   0  0  0  0  0  0  0  0  0  0  0  0
    6.2250    2.6840    1.4240 O   0  0  0  0  0  0  0  0  0  0  0  0
    3.7090    2.3370    0.8140 S   0  0  0  0  0  0  0  0  0  0  0  0
    3.7310    4.0390    0.2560 C   0  0  0  0  0  0  0  0  0  0  0  0
  1  2  2  0
  2  3  1  0
  2 14  1  0
  3  4  1  0
  4  5  1  0
  5  6  1  0
  6  7  2  0
  6  8  1  0
  8  9  1  0
  9 10  1  0
 10 11  1  0
 10 12  1  0
 12 13  2  0
 15 14  1  6
 15 16  1  0
 15 19  1  0
 16 17  2  0
 17 18  1  0
 18 19  2  0
 19 20  1  0
 20 21  2  3
 21 22  1  0
 22 23  2  0
 22 24  1  0
 24 25  1  0
M  END
