
     RDKit          3D

 25 25  0  0  0  0  0  0  0  0999 V2000
    4.3000   -4.7390   -1.0030 C   0  0  0  0  0  0  0  0  0  0  0  0
    3.5220   -4.4370    0.1320 O   0  0  0  0  0  0  0  0  0  0  0  0
    2.8570   -3.2320    0.2400 C   0  0  0  0  0  0  0  0  0  0  0  0
    2.0920   -2.9520    1.3710 C   0  0  0  0  0  0  0  0  0  0  0  0
    1.4290   -1.7470    1.4750 C   0  0  0  0  0  0  0  0  0  0  0  0
    1.5150   -0.8030    0.4600 C   0  0  0  0  0  0  0  0  0  0  0  0
    0.8430    0.4040    0.5810 O   0  0  0  0  0  0  0  0  0  0  0  0
    0.9200    1.3740   -0.4420 C   0  0  0  0  0  0  0  0  0  0  0  0
    0.0750    2.5490    0.0200 C   0  0  0  0  0  0  0  0  0  0  0  0
   -1.3110    2.2860    0.2580 C   0  0  0  0  0  0  0  0  0  0  0  0
   -1.7790    1.0450    0.0440 C   0  0  0  0  0  0  0  0  0  0  0  0
   -3.1180    0.8320    0.2870 O   0  0  0  0  0  0  0  0  0  0  0  0
   -3.8600   -0.1480   -0.4780 C   0  0  0  0  0  0  0  0  0  0  0  0
   -3.3300   -1.7000   -0.3790 S   0  0  0  0  0  0  0  0  0  0  0  0
   -3.1130   -1.6480    1.2610 C   0  0  0  0  0  0  0  0  0  0  0  0
   -3.8180   -2.1230   -1.6930 O   0  0  0  0  0  0  0  0  0  0  0  0
   -1.9760   -2.3050   -0.6320 O   0  0  0  0  0  0  0  0  0  0  0  0
   -1.9270   -3.5860   -0.7590 O   0  0  0  0  0  0  0  0  0  0  0  0
    0.6880    3.6780    0.1580 C   0  0  0  0  0  0  0  0  0  0  0  0
    0.2850    4.9880    0.5570 C   0  0  0  0  0  0  0  0  0  0  0  0
   -1.0630    5.4010    0.9400 C   0  0  0  0  0  0  0  0  0  0  0  0
    1.4500    6.2200    0.6040 P   0  0  0  0  0  0  0  0  0  0  0  0
    3.0730    5.8140    0.1630 O   0  0  0  0  0  0  0  0  0  0  0  0
    2.2810   -1.1160   -0.6410 C   0  0  0  0  0  0  0  0  0  0  0  0
    2.9520   -2.3200   -0.7620 C   0  0  0  0  0  0  0  0  0  0  0  0
  1  2  1  0
  2  3  1  0
  3  4  2  0
  3 25  1  0
  4  5  1  0
  5  6  2  0
  6  7  1  0
  6 24  1  0
  7  8  1  0
  8  9  1  0
  9 10  1  0
  9 19  2  3
 10 11  2  3
 11 12  1  0
 12 13  1  0
 13 14  1  0
 14 15  1  0
 14 16  2  0
 14 17  1  0
 17 18  1  0
 19 20  1  0
 20 21  1  0
 20 22  2  3
 22 23  1  0
 24 25  2  0
M  END
