
     RDKit          3D

 25 25  0  0  0  0  0  0  0  0999 V2000
    1.1410    4.9280   -0.2200 C   0  0  0  0  0  0  0  0  0  0  0  0
    0.2920    3.8730    0.4510 C   0  0  0  0  0  0  0  0  0  0  0  0
    0.2900    2.7490   -0.3710 O   0  0  0  0  0  0  0  0  0  0  0  0
   -0.6600    1.5570    0.3710 S   0  0  0  0  0  0  0  0  0  0  0  0
   -0.7710    0.0670   -0.6000 C   0  0  0  0  0  0  0  0  0  0  0  0
   -1.4580   -0.9570   -0.1910 C   0  0  0  0  0  0  0  0  0  0  0  0
   -2.2200   -1.0310    1.0960 C   0  0  0  0  0  0  0  0  0  0  0  0
   -2.8880   -2.0750    1.4560 C   0  0  0  0  0  0  0  0  0  0  0  0
   -3.6000   -2.1320    2.6700 C   0  0  0  0  0  0  0  0  0  0  0  0
   -4.3740   -3.1370    3.2470 O   0  0  0  0  0  0  0  0  0  0  0  0
   -5.3630   -3.7420    2.4430 C   0  0  0  0  0  0  0  0  0  0  0  0
   -3.3250   -0.5560    3.4190 P   0  0  0  0  0  0  0  0  0  0  0  0
   -2.2150    0.1270    1.9960 C   0  0  0  0  0  0  0  0  0  0  0  0
   -0.0390    0.0530   -1.9030 C   0  0  1  0  0  0  0  0  0  0  0  0
   -0.2520   -1.2720   -2.5670 C   0  0  0  0  0  0  0  0  0  0  0  0
   -0.6540    1.1090   -2.8300 C   0  0  0  0  0  0  0  0  0  0  0  0
    1.3120    0.3950   -1.7530 O   0  0  0  0  0  0  0  0  0  0  0  0
    2.2050   -0.2940   -0.9790 C   0  0  0  0  0  0  0  0  0  0  0  0
    1.7490   -1.3160   -0.3630 O   0  0  0  0  0  0  0  0  0  0  0  0
    3.6250    0.0560   -0.8140 C   0  0  0  0  0  0  0  0  0  0  0  0
    4.3050   -0.9000    0.0930 C   0  0  0  0  0  0  0  0  0  0  0  0
    3.6260   -1.8440    0.5850 O   0  0  0  0  0  0  0  0  0  0  0  0
    5.7040   -0.8050    0.4390 C   0  0  0  0  0  0  0  0  0  0  0  0
    6.3870    0.1300   -0.0460 O   0  0  0  0  0  0  0  0  0  0  0  0
    6.3110   -1.7100    1.2860 O   0  0  0  0  0  0  0  0  0  0  0  0
  1  2  1  0
  2  3  1  0
  3  4  1  0
  4  5  1  0
  5  6  2  3
  5 14  1  0
  6  7  1  0
  7  8  2  0
  7 13  1  0
  8  9  1  0
  9 10  1  0
  9 12  2  0
 10 11  1  0
 12 13  1  0
 14 15  1  6
 14 16  1  0
 14 17  1  0
 17 18  1  0
 18 19  2  0
 18 20  1  0
 20 21  1  0
 21 22  2  0
 21 23  1  0
 23 24  2  0
 23 25  1  0
M  END
