
     RDKit          3D

 25 24  0  0  0  0  0  0  0  0999 V2000
    5.0210   -1.5760   -1.2270 C   0  0  0  0  0  0  0  0  0  0  0  0
    4.2600   -0.7040   -0.4740 O   0  0  0  0  0  0  0  0  0  0  0  0
    5.1460    0.5740    0.1610 S   0  0  2  0  0  0  0  0  0  0  0  0
    5.9870   -0.0830    2.0350 P   0  0  0  0  0  0  0  0  0  0  0  0
    4.1770    2.0400    0.4870 C   0  0  0  0  0  0  0  0  0  0  0  0
    3.5130    2.6290   -0.7040 C   0  0  0  0  0  0  0  0  0  0  0  0
    2.5520    1.7530   -1.4280 C   0  0  0  0  0  0  0  0  0  0  0  0
    1.4200    1.3450   -0.5750 C   0  0  0  0  0  0  0  0  0  0  0  0
    1.3220    1.7770    0.5920 O   0  0  0  0  0  0  0  0  0  0  0  0
    0.4230    0.4780   -1.0050 O   0  0  0  0  0  0  0  0  0  0  0  0
   -0.6290    0.1380   -0.1210 C   0  0  0  0  0  0  0  0  0  0  0  0
   -0.6660    0.6050    1.0290 O   0  0  0  0  0  0  0  0  0  0  0  0
   -1.6940   -0.7840   -0.5750 C   0  0  2  0  0  0  0  0  0  0  0  0
   -1.4370   -1.0790   -1.9580 O   0  0  0  0  0  0  0  0  0  0  0  0
   -3.0250   -0.1350   -0.5390 C   0  0  0  0  0  0  0  0  0  0  0  0
   -3.7100   -0.0600   -1.6530 C   0  0  0  0  0  0  0  0  0  0  0  0
   -4.5330   -0.3050   -2.5640 O   0  0  0  0  0  0  0  0  0  0  0  0
   -3.6150    0.4060    0.6960 C   0  0  0  0  0  0  0  0  0  0  0  0
   -4.9160    1.1170    0.5270 C   0  0  0  0  0  0  0  0  0  0  0  0
   -4.8740    2.3370   -0.3390 C   0  0  0  0  0  0  0  0  0  0  0  0
   -3.9760    3.2660    0.2120 O   0  0  0  0  0  0  0  0  0  0  0  0
   -1.6320   -2.0880    0.1620 C   0  0  2  0  0  0  0  0  0  0  0  0
   -1.7940   -2.0460    1.6330 C   0  0  0  0  0  0  0  0  0  0  0  0
   -0.3500   -2.8450   -0.1710 C   0  0  0  0  0  0  0  0  0  0  0  0
   -2.7570   -2.9530   -0.4250 C   0  0  0  0  0  0  0  0  0  0  0  0
  1  2  1  0
  2  3  1  0
  3  4  1  1
  3  5  1  0
  5  6  1  0
  6  7  1  0
  7  8  1  0
  8  9  2  0
  8 10  1  0
 10 11  1  0
 11 12  2  0
 11 13  1  0
 13 14  1  6
 13 15  1  0
 13 22  1  0
 15 16  2  0
 15 18  1  0
 16 17  2  0
 18 19  1  0
 19 20  1  0
 20 21  1  0
 22 23  1  1
 22 24  1  0
 22 25  1  0
M  END
