
     RDKit          3D

 22 22  0  0  0  0  0  0  0  0999 V2000
   -3.3340   -1.7140   -0.5220 O   0  0  0  0  0  0  0  0  0  0  0  0
   -3.2470   -0.4700   -0.7560 C   0  0  0  0  0  0  0  0  0  0  0  0
   -2.0230    0.1470   -0.3840 N   0  0  0  0  0  0  0  0  0  0  0  0
   -0.9620   -0.5940    0.2150 C   0  0  2  0  0  0  0  0  0  0  0  0
   -0.6750   -0.0400    1.5940 C   0  0  0  0  0  0  0  0  0  0  0  0
    0.0220   -1.0840    2.3020 O   0  0  0  0  0  0  0  0  0  0  0  0
    1.0960   -1.6020    1.5440 C   0  0  0  0  0  0  0  0  0  0  0  0
    1.7290   -2.5960    1.9540 O   0  0  0  0  0  0  0  0  0  0  0  0
    1.4100   -0.9500    0.3210 N   0  0  0  0  0  0  0  0  0  0  0  0
    2.7590   -0.6940   -0.0310 C   0  0  0  0  0  0  0  0  0  0  0  0
    2.9580   -0.1530   -1.1420 O   0  0  0  0  0  0  0  0  0  0  0  0
    3.8770   -1.0000    0.7660 N   0  0  0  0  0  0  0  0  0  0  0  0
    5.2560   -0.7670    0.4890 C   0  0  0  0  0  0  0  0  0  0  0  0
    5.5600    0.6930    0.3840 C   0  0  0  0  0  0  0  0  0  0  0  0
    4.8630    1.2980   -0.6120 O   0  0  0  0  0  0  0  0  0  0  0  0
    5.1590    2.5800   -0.6720 O   0  0  0  0  0  0  0  0  0  0  0  0
    0.3180   -0.5520   -0.5940 C   0  0  0  0  0  0  0  0  0  0  0  0
   -4.3660    0.2840   -1.3810 C   0  0  2  0  0  0  0  0  0  0  0  0
   -3.9940    1.6130   -1.5160 O   0  0  0  0  0  0  0  0  0  0  0  0
   -5.6040    0.2460   -0.4890 C   0  0  0  0  0  0  0  0  0  0  0  0
   -5.2820    0.7920    0.7300 O   0  0  0  0  0  0  0  0  0  0  0  0
   -6.2970    0.7930    1.5520 O   0  0  0  0  0  0  0  0  0  0  0  0
  1  2  2  0
  2  3  1  0
  2 18  1  0
  4  3  1  6
  4  5  1  0
  4 17  1  0
  5  6  1  0
  6  7  1  0
  7  8  2  0
  7  9  1  0
  9 10  1  0
  9 17  1  0
 10 11  2  0
 10 12  1  0
 12 13  1  0
 13 14  1  0
 14 15  1  0
 15 16  1  0
 18 19  1  1
 18 20  1  0
 20 21  1  0
 21 22  1  0
M  END
