
     RDKit          3D

 22 22  0  0  0  0  0  0  0  0999 V2000
   -4.6130   -0.1560    0.3400 C   0  0  0  0  0  0  0  0  0  0  0  0
   -3.1410   -0.2710    0.2400 N   0  0  0  0  0  0  0  0  0  0  0  0
   -2.4670    0.6960   -0.5670 C   0  0  0  0  0  0  0  0  0  0  0  0
   -2.9580    0.8540   -1.7500 O   0  0  0  0  0  0  0  0  0  0  0  0
   -1.3460    1.4770   -0.2100 N   0  0  0  0  0  0  0  0  0  0  0  0
   -0.6460    1.5040    1.0160 C   0  0  0  0  0  0  0  0  0  0  0  0
   -0.4570    2.6980    1.4950 O   0  0  0  0  0  0  0  0  0  0  0  0
   -0.1380    0.4360    1.7690 N   0  0  0  0  0  0  0  0  0  0  0  0
    0.8070   -0.5570    1.3750 C   0  0  0  0  0  0  0  0  0  0  0  0
    1.0160   -1.4980    2.2410 O   0  0  0  0  0  0  0  0  0  0  0  0
    1.5340   -0.6530    0.1890 N   0  0  0  0  0  0  0  0  0  0  0  0
    2.9870   -0.9360    0.3150 C   0  0  0  0  0  0  0  0  0  0  0  0
    3.7680    0.3520    0.4100 C   0  0  0  0  0  0  0  0  0  0  0  0
    3.5520    1.1180   -0.7430 O   0  0  0  0  0  0  0  0  0  0  0  0
    4.2690    2.2280   -0.5830 O   0  0  0  0  0  0  0  0  0  0  0  0
    1.0520   -0.5160   -1.1680 C   0  0  0  0  0  0  0  0  0  0  0  0
   -0.1740   -1.3050   -1.4720 C   0  0  0  0  0  0  0  0  0  0  0  0
   -0.6220   -1.0920   -2.6560 O   0  0  0  0  0  0  0  0  0  0  0  0
   -0.6740   -2.1210   -0.5400 O   0  0  0  0  0  0  0  0  0  0  0  0
   -1.4490   -2.0990    0.4940 O   0  0  0  0  0  0  0  0  0  0  0  0
   -2.4610   -1.3200    0.9330 C   0  0  0  0  0  0  0  0  0  0  0  0
   -2.8780   -1.5370    2.1210 O   0  0  0  0  0  0  0  0  0  0  0  0
  1  2  1  0
  2  3  1  0
  2 21  1  0
  3  4  2  0
  3  5  1  0
  5  6  1  0
  6  7  2  0
  6  8  1  0
  8  9  1  0
  9 10  2  0
  9 11  1  0
 11 12  1  0
 11 16  1  0
 12 13  1  0
 13 14  1  0
 14 15  1  0
 16 17  1  0
 17 18  2  0
 17 19  1  0
 19 20  1  0
 20 21  1  0
 21 22  2  0
M  END
