
     RDKit          3D

 22 22  0  0  0  0  0  0  0  0999 V2000
   -0.8450   -4.4030   -0.0060 O   0  0  0  0  0  0  0  0  0  0  0  0
   -1.4060   -4.4150    1.1180 C   0  0  0  0  0  0  0  0  0  0  0  0
   -1.5320   -5.6450    1.7560 O   0  0  0  0  0  0  0  0  0  0  0  0
   -1.8530   -3.2280    1.6380 O   0  0  0  0  0  0  0  0  0  0  0  0
   -1.6960   -2.0120    0.9450 C   0  0  0  0  0  0  0  0  0  0  0  0
   -0.6240   -1.2680    1.1090 C   0  0  0  0  0  0  0  0  0  0  0  0
   -0.4110   -0.0110    0.4240 N   0  0  0  0  0  0  0  0  0  0  0  0
    0.7680    0.7110    0.6690 C   0  0  0  0  0  0  0  0  0  0  0  0
    1.0650    1.7920    0.1450 O   0  0  0  0  0  0  0  0  0  0  0  0
    1.7470    0.2210    1.5850 N   0  0  0  0  0  0  0  0  0  0  0  0
    2.9730    0.9790    1.8220 C   0  0  0  0  0  0  0  0  0  0  0  0
    3.7400    1.0580    0.5320 C   0  0  0  0  0  0  0  0  0  0  0  0
    4.0480   -0.2470    0.0980 O   0  0  0  0  0  0  0  0  0  0  0  0
    4.7200   -0.0870   -1.0380 O   0  0  0  0  0  0  0  0  0  0  0  0
   -1.3900    0.4390   -0.4580 N   0  0  0  0  0  0  0  0  0  0  0  0
   -1.3370    1.6410   -1.2050 C   0  0  0  0  0  0  0  0  0  0  0  0
   -0.4400    2.4760   -1.2100 O   0  0  0  0  0  0  0  0  0  0  0  0
   -2.4190    1.9660   -2.0630 O   0  0  0  0  0  0  0  0  0  0  0  0
   -2.3660    3.1850   -2.8210 C   0  0  0  0  0  0  0  0  0  0  0  0
   -2.2700    4.2180   -1.8670 O   0  0  0  0  0  0  0  0  0  0  0  0
   -2.5570   -0.4120   -0.6100 C   0  0  0  0  0  0  0  0  0  0  0  0
   -2.7000   -1.5260    0.0260 C   0  0  0  0  0  0  0  0  0  0  0  0
  1  2  2  0
  2  3  1  0
  2  4  1  0
  4  5  1  0
  5  6  2  0
  5 22  1  0
  6  7  1  0
  7  8  1  0
  7 15  1  0
  8  9  2  0
  8 10  1  0
 10 11  1  0
 11 12  1  0
 12 13  1  0
 13 14  1  0
 15 16  1  0
 15 21  1  0
 16 17  2  0
 16 18  1  0
 18 19  1  0
 19 20  1  0
 21 22  2  0
M  END
