
     RDKit          3D

 22 24  0  0  0  0  0  0  0  0999 V2000
    1.1660    3.7880    1.2780 O   0  0  0  0  0  0  0  0  0  0  0  0
    0.3460    2.9100    0.8380 C   0  0  0  0  0  0  0  0  0  0  0  0
   -0.9450    3.3690    0.5540 N   0  0  0  0  0  0  0  0  0  0  0  0
   -1.9640    2.4630    0.0490 C   0  0  0  0  0  0  0  0  0  0  0  0
   -1.4590    1.0840   -0.1060 C   0  0  0  0  0  0  0  0  0  0  0  0
   -2.3110    0.1710   -0.5630 O   0  0  0  0  0  0  0  0  0  0  0  0
   -1.9730   -1.0870   -0.7420 C   0  0  0  0  0  0  0  0  0  0  0  0
   -2.9170   -2.1040   -1.2510 C   0  0  1  0  0  0  0  0  0  0  0  0
   -4.1560   -1.9910   -0.6130 O   0  0  0  0  0  0  0  0  0  0  0  0
   -5.0330   -2.2860   -1.6760 C   0  0  0  0  0  0  0  0  0  0  0  0
   -4.4080   -1.6230   -2.7530 O   0  0  0  0  0  0  0  0  0  0  0  0
   -3.1470   -1.9010   -2.6020 O   0  0  0  0  0  0  0  0  0  0  0  0
   -0.7290   -1.4580   -0.4530 N   0  0  0  0  0  0  0  0  0  0  0  0
    0.2360   -0.6070    0.0240 C   0  0  0  0  0  0  0  0  0  0  0  0
    1.3850   -1.0800    0.2630 N   0  0  0  0  0  0  0  0  0  0  0  0
    2.4030   -0.4130    0.7160 O   0  0  0  0  0  0  0  0  0  0  0  0
    3.3500    0.2860    1.1820 C   0  0  0  0  0  0  0  0  0  0  0  0
    4.5150   -0.4790    0.8060 C   0  0  0  0  0  0  0  0  0  0  0  0
    5.6940    0.1320    1.2380 O   0  0  0  0  0  0  0  0  0  0  0  0
    6.7830   -0.5530    0.9050 O   0  0  0  0  0  0  0  0  0  0  0  0
   -0.1600    0.6880    0.1940 C   0  0  0  0  0  0  0  0  0  0  0  0
    0.7530    1.6000    0.6690 O   0  0  0  0  0  0  0  0  0  0  0  0
  1  2  2  0
  2  3  1  0
  2 22  1  0
  3  4  1  0
  4  5  1  0
  5  6  1  0
  5 21  2  0
  6  7  1  0
  8  7  1  1
  7 13  2  0
  8  9  1  0
  8 12  1  0
  9 10  1  0
 10 11  1  0
 11 12  1  0
 13 14  1  0
 14 15  2  3
 14 21  1  0
 15 16  1  0
 16 17  1  0
 17 18  1  0
 18 19  1  0
 19 20  1  0
 21 22  1  0
M  END
