
     RDKit          3D

 22 22  0  0  0  0  0  0  0  0999 V2000
    1.0750   -3.4710   -1.9500 O   0  0  0  0  0  0  0  0  0  0  0  0
    0.3010   -2.5320   -2.2880 C   0  0  0  0  0  0  0  0  0  0  0  0
   -0.7280   -2.6840   -3.1930 O   0  0  0  0  0  0  0  0  0  0  0  0
    0.5090   -1.3030   -1.7140 O   0  0  0  0  0  0  0  0  0  0  0  0
    1.5580   -1.0630   -0.7630 C   0  0  0  0  0  0  0  0  0  0  0  0
    1.4520    0.3810   -0.3810 C   0  0  1  0  0  0  0  0  0  0  0  0
    0.1930    0.5830    0.1760 O   0  0  0  0  0  0  0  0  0  0  0  0
   -0.5910    1.4300   -0.6030 C   0  0  0  0  0  0  0  0  0  0  0  0
   -1.9420    1.6390    0.0070 C   0  0  0  0  0  0  0  0  0  0  0  0
   -2.6850    0.4030    0.1590 N   0  0  0  0  0  0  0  0  0  0  0  0
   -3.5020   -0.0640   -0.8120 O   0  0  0  0  0  0  0  0  0  0  0  0
   -4.7650   -0.3010   -0.3390 C   0  0  0  0  0  0  0  0  0  0  0  0
   -4.8510   -1.2250    0.8260 C   0  0  0  0  0  0  0  0  0  0  0  0
   -3.6260   -1.3310    1.5910 N   0  0  0  0  0  0  0  0  0  0  0  0
   -2.5940   -0.3870    1.3400 C   0  0  0  0  0  0  0  0  0  0  0  0
   -1.6150   -0.2240    2.1130 O   0  0  0  0  0  0  0  0  0  0  0  0
    2.5360    0.8610    0.4790 C   0  0  0  0  0  0  0  0  0  0  0  0
    2.2120    1.3790    1.5800 O   0  0  0  0  0  0  0  0  0  0  0  0
    3.9090    0.7840    0.1680 N   0  0  0  0  0  0  0  0  0  0  0  0
    4.8910    1.2970    1.1100 C   0  0  0  0  0  0  0  0  0  0  0  0
    6.1810    1.1490    0.6580 O   0  0  0  0  0  0  0  0  0  0  0  0
    6.9840    1.6410    1.5770 O   0  0  0  0  0  0  0  0  0  0  0  0
  1  2  2  0
  2  3  1  0
  2  4  1  0
  4  5  1  0
  6  5  1  1
  6  7  1  0
  6 17  1  0
  7  8  1  0
  8  9  1  0
  9 10  1  0
 10 11  1  0
 10 15  1  0
 11 12  1  0
 12 13  1  0
 13 14  1  0
 14 15  1  0
 15 16  2  0
 17 18  2  0
 17 19  1  0
 19 20  1  0
 20 21  1  0
 21 22  1  0
M  END
