
     RDKit          3D

 12 12  0  0  0  0  0  0  0  0999 V2000
   -1.0240    0.7240   -1.7570 N   0  0  0  0  0  0  0  0  0  0  0  0
   -0.8120   -0.2960   -0.7590 C   0  0  1  0  0  0  0  0  0  0  0  0
    0.5560   -0.2640   -0.2380 C   0  0  0  0  0  0  0  0  0  0  0  0
    1.1620    0.9120    0.1390 C   0  0  0  0  0  0  0  0  0  0  0  0
    2.4540    0.9630    0.6310 C   0  0  0  0  0  0  0  0  0  0  0  0
    3.1370   -0.2290    0.7360 C   0  0  0  0  0  0  0  0  0  0  0  0
    2.5820   -1.4370    0.3750 C   0  0  0  0  0  0  0  0  0  0  0  0
    1.3070   -1.4370   -0.1040 C   0  0  0  0  0  0  0  0  0  0  0  0
   -1.9350    0.0380    0.5810 P   0  0  0  0  0  0  0  0  0  0  0  0
   -1.1510   -0.3560    2.0670 O   0  0  0  0  0  0  0  0  0  0  0  0
   -2.2650    1.7650    0.5910 O   0  0  0  0  0  0  0  0  0  0  0  0
   -3.3890   -0.8310    0.3700 O   0  0  0  0  0  0  0  0  0  0  0  0
  2  1  1  6
  2  3  1  0
  2  9  1  0
  3  4  2  0
  3  8  1  0
  4  5  1  0
  5  6  2  0
  6  7  1  0
  7  8  2  0
  9 10  1  0
  9 11  1  0
  9 12  1  0
M  CHG  1   1   1
M  END
