
     RDKit          3D

 22 22  0  0  0  0  0  0  0  0999 V2000
    5.9350    0.3200   -0.2210 O   0  0  0  0  0  0  0  0  0  0  0  0
    5.5960   -0.5180    0.6690 C   0  0  0  0  0  0  0  0  0  0  0  0
    6.5630   -1.1900    1.4040 O   0  0  0  0  0  0  0  0  0  0  0  0
    4.2250   -0.7360    0.8800 N   0  0  0  0  0  0  0  0  0  0  0  0
    3.1870   -0.0760    0.1560 C   0  0  0  0  0  0  0  0  0  0  0  0
    3.5380    0.7520   -0.7250 O   0  0  0  0  0  0  0  0  0  0  0  0
    1.8420   -0.3160    0.3890 O   0  0  0  0  0  0  0  0  0  0  0  0
    0.8520    0.3650   -0.3570 C   0  0  1  0  0  0  0  0  0  0  0  0
    0.0610   -0.5970   -1.2220 C   0  0  0  0  0  0  0  0  0  0  0  0
   -0.2390   -1.8820   -0.4850 C   0  0  0  0  0  0  0  0  0  0  0  0
   -1.0950   -1.6460    0.5850 O   0  0  0  0  0  0  0  0  0  0  0  0
   -2.3830   -2.0880    0.2990 C   0  0  0  0  0  0  0  0  0  0  0  0
   -3.3200   -0.9430    0.5890 C   0  0  0  0  0  0  0  0  0  0  0  0
   -3.4840   -0.0760   -0.5550 N   0  0  0  0  0  0  0  0  0  0  0  0
   -3.9450    1.2710   -0.4790 C   0  0  0  0  0  0  0  0  0  0  0  0
   -4.6810    1.6150   -1.4790 O   0  0  0  0  0  0  0  0  0  0  0  0
   -3.6090    2.0590    0.5640 O   0  0  0  0  0  0  0  0  0  0  0  0
   -2.5310    2.7050    0.9420 O   0  0  0  0  0  0  0  0  0  0  0  0
   -1.4720    3.2590    0.3100 C   0  0  0  0  0  0  0  0  0  0  0  0
   -1.2790    4.4840    0.0610 O   0  0  0  0  0  0  0  0  0  0  0  0
   -0.4220    2.4000   -0.1510 N   0  0  0  0  0  0  0  0  0  0  0  0
   -0.0340    1.1920    0.5250 C   0  0  0  0  0  0  0  0  0  0  0  0
  1  2  2  0
  2  3  1  0
  2  4  1  0
  4  5  1  0
  5  6  2  0
  5  7  1  0
  8  7  1  1
  8  9  1  0
  8 22  1  0
  9 10  1  0
 10 11  1  0
 11 12  1  0
 12 13  1  0
 13 14  1  0
 14 15  1  0
 15 16  2  0
 15 17  1  0
 17 18  1  0
 18 19  1  0
 19 20  2  0
 19 21  1  0
 21 22  1  0
M  END
