
     RDKit          3D

  6  5  0  0  0  0  0  0  0  0999 V2000
    2.1260   -0.0550    0.1080 C   0  0  0  0  0  0  0  0  0  0  0  0
    0.9030   -1.0880   -0.7200 S   0  0  0  0  0  0  0  0  0  0  0  0
   -0.3300   -0.2100   -1.4660 O   0  0  0  0  0  0  0  0  0  0  0  0
   -1.6230    0.2320   -0.5130 P   0  0  0  0  0  0  0  0  0  0  0  0
   -1.6030    1.7190    0.2580 O   0  0  0  0  0  0  0  0  0  0  0  0
   -2.7910   -0.8830   -0.1160 O   0  0  0  0  0  0  0  0  0  0  0  0
  1  2  1  0
  2  3  1  0
  3  4  1  0
  4  5  1  0
  4  6  1  0
M  END
