
     RDKit          3D

  6  5  0  0  0  0  0  0  0  0999 V2000
    2.5330   -0.1540   -0.0750 C   0  0  0  0  0  0  0  0  0  0  0  0
    1.4540    0.5720    0.4450 O   0  0  0  0  0  0  0  0  0  0  0  0
    0.0480   -0.3670    0.1720 S   0  0  0  0  0  0  0  0  0  0  0  0
   -1.7400    0.7240    0.6940 P   0  0  0  0  0  0  0  0  0  0  0  0
   -2.8910   -0.4870    1.2400 O   0  0  0  0  0  0  0  0  0  0  0  0
   -2.3930    1.3570   -0.8000 O   0  0  0  0  0  0  0  0  0  0  0  0
  1  2  1  0
  2  3  1  0
  3  4  1  0
  4  5  1  0
  4  6  1  0
M  END
