
     RDKit          3D

 24 23  0  0  0  0  0  0  0  0999 V2000
   -5.9760   -1.5370    1.2850 C   0  0  0  0  0  0  0  0  0  0  0  0
   -5.3140   -1.3190   -0.0080 C   0  0  0  0  0  0  0  0  0  0  0  0
   -5.3750   -2.3720   -1.0420 C   0  0  0  0  0  0  0  0  0  0  0  0
   -4.6680   -0.2000   -0.2600 C   0  0  0  0  0  0  0  0  0  0  0  0
   -4.5880    0.8670    0.7460 C   0  0  0  0  0  0  0  0  0  0  0  0
   -3.1770    1.2140    1.1610 C   0  0  0  0  0  0  0  0  0  0  0  0
   -2.3570    1.6780    0.0010 C   0  0  0  0  0  0  0  0  0  0  0  0
   -2.7370    2.8740   -0.7950 C   0  0  0  0  0  0  0  0  0  0  0  0
   -1.2480    1.0330   -0.3640 C   0  0  0  0  0  0  0  0  0  0  0  0
   -0.4000    1.4590   -1.5140 C   0  0  0  0  0  0  0  0  0  0  0  0
    0.9680    1.7690   -0.9990 C   0  0  0  0  0  0  0  0  0  0  0  0
    1.6220    0.5800   -0.3330 C   0  0  0  0  0  0  0  0  0  0  0  0
    1.8070   -0.6690   -1.1360 C   0  0  0  0  0  0  0  0  0  0  0  0
    1.9780    0.6380    0.9140 C   0  0  0  0  0  0  0  0  0  0  0  0
    2.6150   -0.3150    1.8010 C   0  0  0  0  0  0  0  0  0  0  0  0
    3.1600   -1.8920    1.2210 S   0  0  0  0  0  0  0  0  0  0  0  0
    4.8450   -1.7680   -0.0060 P   0  0  1  0  0  0  0  0  0  0  0  0
    4.5840   -2.6170   -1.2360 O   0  0  0  0  0  0  0  0  0  0  0  0
    5.1000   -0.1590   -0.4800 O   0  0  0  0  0  0  0  0  0  0  0  0
    6.2360   -2.4020    0.7300 O   0  0  0  0  0  0  0  0  0  0  0  0
    7.4130   -1.1990    0.8970 P   0  0  1  0  0  0  0  0  0  0  0  0
    7.0440   -0.3680    2.1100 O   0  0  0  0  0  0  0  0  0  0  0  0
    8.9490   -1.8190    1.1120 O   0  0  0  0  0  0  0  0  0  0  0  0
    7.3320   -0.2440   -0.5120 O   0  0  0  0  0  0  0  0  0  0  0  0
  1  2  1  0
  2  3  1  0
  2  4  2  3
  4  5  1  0
  5  6  1  0
  6  7  1  0
  7  8  1  0
  7  9  2  3
  9 10  1  0
 10 11  1  0
 11 12  1  0
 12 13  1  0
 12 14  2  3
 14 15  1  0
 15 16  1  0
 16 17  1  0
 17 18  2  0
 17 19  1  6
 17 20  1  0
 20 21  1  0
 21 22  2  0
 21 23  1  1
 21 24  1  0
M  END
