
     RDKit          3D

  6  5  0  0  0  0  0  0  0  0999 V2000
   -2.2160   -0.4710    0.7320 O   0  0  0  0  0  0  0  0  0  0  0  0
   -0.9680   -0.9400    0.3240 C   0  0  0  0  0  0  0  0  0  0  0  0
   -0.0330    0.4510   -0.4050 P   0  0  0  0  0  0  0  0  0  0  0  0
   -0.1640    1.9150    0.4870 O   0  0  0  0  0  0  0  0  0  0  0  0
    1.5410    0.0730   -0.9130 O   0  0  0  0  0  0  0  0  0  0  0  0
    2.2310   -0.6640   -0.0880 O   0  0  0  0  0  0  0  0  0  0  0  0
  1  2  1  0
  2  3  1  0
  3  4  1  0
  3  5  1  0
  5  6  1  0
M  END
