
     RDKit          3D

  6  5  0  0  0  0  0  0  0  0999 V2000
   -1.5650    0.6310   -0.1930 C   0  0  0  0  0  0  0  0  0  0  0  0
   -0.2930   -0.3700   -0.1980 S   0  0  0  0  0  0  0  0  0  0  0  0
   -0.7680   -2.1000    0.3670 O   0  0  0  0  0  0  0  0  0  0  0  0
   -0.0280   -0.3070    1.3370 O   0  0  0  0  0  0  0  0  0  0  0  0
    1.3430   -0.1810   -0.6610 P   0  0  0  0  0  0  0  0  0  0  0  0
    2.1060    1.1650    0.0750 O   0  0  0  0  0  0  0  0  0  0  0  0
  1  2  1  0
  2  3  2  0
  2  4  1  0
  2  5  1  0
  5  6  1  0
M  END
