
     RDKit          3D

  6  5  0  0  0  0  0  0  0  0999 V2000
   -1.9570   -1.2440    0.5610 O   0  0  0  0  0  0  0  0  0  0  0  0
   -1.5830   -0.0590   -0.1110 C   0  0  0  0  0  0  0  0  0  0  0  0
    0.1670    0.2940    0.2950 P   0  0  0  0  0  0  0  0  0  0  0  0
    0.4970    1.9130    0.6970 O   0  0  0  0  0  0  0  0  0  0  0  0
    1.2840   -0.4090   -0.8020 O   0  0  0  0  0  0  0  0  0  0  0  0
    2.4370   -1.3010    0.1240 S   0  0  0  0  0  0  0  0  0  0  0  0
  1  2  1  0
  2  3  1  0
  3  4  1  0
  3  5  1  0
  5  6  1  0
M  END
