
     RDKit          3D

  6  5  0  0  0  0  0  0  0  0999 V2000
   -1.2480   -0.6780   -0.8310 C   0  0  0  0  0  0  0  0  0  0  0  0
   -0.5730    0.5090    0.3230 S   0  0  1  0  0  0  0  0  0  0  0  0
   -1.3740    0.5270    1.8010 O   0  0  0  0  0  0  0  0  0  0  0  0
    1.4820    0.0450    0.6630 P   0  0  0  0  0  0  0  0  0  0  0  0
    2.4250    1.4690    0.3800 O   0  0  0  0  0  0  0  0  0  0  0  0
    2.0400   -1.2070   -0.4010 O   0  0  0  0  0  0  0  0  0  0  0  0
  2  1  1  6
  2  3  1  0
  2  4  1  0
  4  5  1  0
  4  6  1  0
M  END
