
     RDKit          3D

  6  5  0  0  0  0  0  0  0  0999 V2000
    2.0990   -0.0300    1.0600 O   0  0  0  0  0  0  0  0  0  0  0  0
    1.3420   -0.8820    0.2780 C   0  0  0  0  0  0  0  0  0  0  0  0
    0.2230   -0.1470   -0.4180 C   0  0  0  0  0  0  0  0  0  0  0  0
   -0.8650    0.6100    0.7080 S   0  0  2  0  0  0  0  0  0  0  0  0
   -1.5480   -0.3960    1.6720 O   0  0  0  0  0  0  0  0  0  0  0  0
   -2.2350    0.8940   -0.5090 O   0  0  0  0  0  0  0  0  0  0  0  0
  1  2  1  0
  2  3  1  0
  3  4  1  0
  4  5  1  1
  4  6  1  0
M  END
