
     RDKit          3D

  6  5  0  0  0  0  0  0  0  0999 V2000
   -2.4990    0.6610   -0.2410 O   0  0  0  0  0  0  0  0  0  0  0  0
   -1.2730    0.8150    0.3750 C   0  0  0  0  0  0  0  0  0  0  0  0
   -0.1600   -0.5050   -0.1040 S   0  0  1  0  0  0  0  0  0  0  0  0
    0.0620   -0.4750   -1.7890 O   0  0  0  0  0  0  0  0  0  0  0  0
    1.6980   -0.4270    0.8740 P   0  0  0  0  0  0  0  0  0  0  0  0
    3.0390   -0.1860   -0.1580 O   0  0  0  0  0  0  0  0  0  0  0  0
  1  2  1  0
  2  3  1  0
  3  4  1  6
  3  5  1  0
  5  6  1  0
M  END
