
     RDKit          3D

  6  5  0  0  0  0  0  0  0  0999 V2000
    1.5520    1.8940    0.9470 O   0  0  0  0  0  0  0  0  0  0  0  0
    1.7940    0.4110    0.8900 S   0  0  0  0  0  0  0  0  0  0  0  0
    0.6770   -0.4290   -0.2430 C   0  0  0  0  0  0  0  0  0  0  0  0
   -1.0660   -0.2270    0.2650 P   0  0  0  0  0  0  0  0  0  0  0  0
   -1.7980    1.2260   -0.2390 O   0  0  0  0  0  0  0  0  0  0  0  0
   -1.9780   -1.5810   -0.3590 O   0  0  0  0  0  0  0  0  0  0  0  0
  1  2  2  0
  2  3  1  0
  3  4  1  0
  4  5  1  0
  4  6  1  0
M  END
