
     RDKit          3D

 40 42  0  0  0  0  0  0  0  0999 V2000
    3.8840    2.9120    3.5660 C   0  0  0  0  0  0  0  0  0  0  0  0
    4.8440    1.8560    3.0720 C   0  0  0  0  0  0  0  0  0  0  0  0
    4.4760    1.4460    1.6570 C   0  0  0  0  0  0  0  0  0  0  0  0
    5.4110    0.3860    1.1200 C   0  0  0  0  0  0  0  0  0  0  0  0
    4.9800    0.0450   -0.2740 C   0  0  2  0  0  0  0  0  0  0  0  0
    4.9950    1.1900   -1.2540 C   0  0  0  0  0  0  0  0  0  0  0  0
    6.3690    1.7840   -1.4080 C   0  0  0  0  0  0  0  0  0  0  0  0
    3.7510   -0.8010   -0.3400 C   0  0  1  0  0  0  0  0  0  0  0  0
    2.5110   -0.1330   -0.6830 N   0  0  0  0  0  0  0  0  0  0  0  0
    1.2720   -0.4720   -0.0600 C   0  0  0  0  0  0  0  0  0  0  0  0
    1.3990   -1.3960    0.7850 O   0  0  0  0  0  0  0  0  0  0  0  0
    0.0330    0.2030   -0.3800 C   0  0  0  0  0  0  0  0  0  0  0  0
    0.0450    1.2260   -1.2300 C   0  0  0  0  0  0  0  0  0  0  0  0
   -1.1160    1.9370   -1.5820 N   0  0  0  0  0  0  0  0  0  0  0  0
   -2.3640    1.6000   -1.0380 C   0  0  0  0  0  0  0  0  0  0  0  0
   -2.4700    0.6070   -0.1860 C   0  0  0  0  0  0  0  0  0  0  0  0
   -3.7940    0.3620    0.2920 C   0  0  0  0  0  0  0  0  0  0  0  0
   -3.8080   -0.3150    1.3760 O   0  0  0  0  0  0  0  0  0  0  0  0
   -5.0700    0.7560   -0.2510 C   0  0  0  0  0  0  0  0  0  0  0  0
   -6.1960    0.7470    0.5430 N   0  0  0  0  0  0  0  0  0  0  0  0
   -7.2840    1.0140   -0.1770 C   0  0  0  0  0  0  0  0  0  0  0  0
   -8.7040    1.1020    0.3170 C   0  0  0  0  0  0  0  0  0  0  0  0
   -6.9370    1.2140   -1.4920 C   0  0  0  0  0  0  0  0  0  0  0  0
   -7.7840    1.5350   -2.6210 C   0  0  0  0  0  0  0  0  0  0  0  0
   -9.1870    1.5890   -2.4220 N   0  0  0  0  0  0  0  0  0  0  0  0
   -7.3600    1.7710   -3.7640 O   0  0  0  0  0  0  0  0  0  0  0  0
   -5.5330    1.0360   -1.4900 C   0  0  0  0  0  0  0  0  0  0  0  0
   -4.7960    1.0230   -2.7780 C   0  0  0  0  0  0  0  0  0  0  0  0
   -1.3090   -0.1740    0.2020 C   0  0  0  0  0  0  0  0  0  0  0  0
   -1.3220   -1.3290    0.8190 C   0  0  0  0  0  0  0  0  0  0  0  0
   -1.9050   -2.3620    1.5400 C   0  0  0  0  0  0  0  0  0  0  0  0
   -0.9150   -3.3260    1.8570 O   0  0  0  0  0  0  0  0  0  0  0  0
   -3.1330   -2.8710    2.1040 C   0  0  2  0  0  0  0  0  0  0  0  0
   -2.8740   -4.1930    2.8850 C   0  0  0  0  0  0  0  0  0  0  0  0
   -4.1330   -3.3190    1.0320 C   0  0  0  0  0  0  0  0  0  0  0  0
    4.4170   -1.5500   -1.4840 C   0  0  0  0  0  0  0  0  0  0  0  0
    5.7390   -1.1600   -0.8590 C   0  0  1  0  0  0  0  0  0  0  0  0
    6.7540   -0.8170   -1.7170 O   0  0  0  0  0  0  0  0  0  0  0  0
    7.9850   -1.3540   -1.3330 C   0  0  0  0  0  0  0  0  0  0  0  0
    7.9850   -3.1560   -1.2610 S   0  0  0  0  0  0  0  0  0  0  0  0
  1  2  1  0
  2  3  1  0
  3  4  1  0
  5  4  1  1
  5  6  1  0
  5  8  1  0
  5 37  1  0
  6  7  1  0
  8  9  1  6
  8 36  1  0
  9 10  1  0
 10 11  2  0
 10 12  1  0
 12 13  2  0
 12 29  1  0
 13 14  1  0
 14 15  1  0
 15 16  2  0
 16 17  1  0
 16 29  1  0
 17 18  2  0
 17 19  1  0
 19 20  1  0
 19 27  2  0
 20 21  1  0
 21 22  1  0
 21 23  2  0
 23 24  1  0
 23 27  1  0
 24 25  1  0
 24 26  2  0
 27 28  1  0
 29 30  2  3
 30 31  1  0
 31 32  2  0
 31 33  1  0
 33 34  1  1
 33 35  1  0
 36 37  1  0
 37 38  1  6
 38 39  1  0
 39 40  1  0
M  END
