
     RDKit          3D

 40 42  0  0  0  0  0  0  0  0999 V2000
   -1.7870    5.1340    4.1540 C   0  0  0  0  0  0  0  0  0  0  0  0
   -0.7710    4.4980    3.2880 C   0  0  0  0  0  0  0  0  0  0  0  0
   -1.1080    3.3810    2.5950 C   0  0  0  0  0  0  0  0  0  0  0  0
   -2.4300    2.8300    2.7050 C   0  0  0  0  0  0  0  0  0  0  0  0
   -2.9970    1.7830    2.1480 C   0  0  0  0  0  0  0  0  0  0  0  0
   -4.4590    1.5550    2.5700 C   0  0  0  0  0  0  0  0  0  0  0  0
   -2.4820    0.8810    1.1990 C   0  0  0  0  0  0  0  0  0  0  0  0
   -2.1800    2.0000   -0.0250 C   0  0  0  0  0  0  0  0  0  0  0  0
   -2.4180    3.3010    0.2550 N   0  0  0  0  0  0  0  0  0  0  0  0
   -1.7870    1.5490   -1.0470 O   0  0  0  0  0  0  0  0  0  0  0  0
   -2.4750   -0.1310    0.4440 C   0  0  0  0  0  0  0  0  0  0  0  0
   -1.2770   -0.4610   -0.3440 N   0  0  0  0  0  0  0  0  0  0  0  0
   -0.0340    0.1420   -0.3160 C   0  0  0  0  0  0  0  0  0  0  0  0
    0.2160    1.0580    0.4780 O   0  0  0  0  0  0  0  0  0  0  0  0
    1.0240   -0.3470   -1.2840 C   0  0  1  0  0  0  0  0  0  0  0  0
    0.5280    0.0140   -2.6750 C   0  0  0  0  0  0  0  0  0  0  0  0
    2.2230    0.3530   -1.0920 O   0  0  0  0  0  0  0  0  0  0  0  0
    3.4050   -0.3170   -0.8250 C   0  0  0  0  0  0  0  0  0  0  0  0
    3.4200   -1.5620   -0.7550 O   0  0  0  0  0  0  0  0  0  0  0  0
    4.6900    0.4050   -0.6160 C   0  0  0  0  0  0  0  0  0  0  0  0
    5.7770   -0.2900   -0.3710 C   0  0  0  0  0  0  0  0  0  0  0  0
    7.1060    0.1820   -0.1400 C   0  0  0  0  0  0  0  0  0  0  0  0
    7.5870    1.4590   -0.0840 C   0  0  0  0  0  0  0  0  0  0  0  0
    6.8270    2.7440   -0.2410 C   0  0  0  0  0  0  0  0  0  0  0  0
    8.9240    1.3970    0.1510 N   0  0  0  0  0  0  0  0  0  0  0  0
    9.3180    0.1350    0.2490 C   0  0  0  0  0  0  0  0  0  0  0  0
    8.2180   -0.6350    0.0730 C   0  0  0  0  0  0  0  0  0  0  0  0
    8.6070   -2.0790    0.1680 C   0  0  0  0  0  0  0  0  0  0  0  0
   10.0790   -2.0100   -0.2210 C   0  0  0  0  0  0  0  0  0  0  0  0
   10.5170   -0.7440    0.4800 C   0  0  0  0  0  0  0  0  0  0  0  0
   -3.7480   -1.3000    0.2040 S   0  0  0  0  0  0  0  0  0  0  0  0
   -5.4110   -0.9950    0.5280 C   0  0  1  0  0  0  0  0  0  0  0  0
   -5.9990    0.0720   -0.4260 C   0  0  0  0  0  0  0  0  0  0  0  0
   -6.2670   -2.2210    0.1820 C   0  0  0  0  0  0  0  0  0  0  0  0
   -6.9380   -2.7280    1.1100 O   0  0  0  0  0  0  0  0  0  0  0  0
   -6.3240   -2.7750   -1.0940 N   0  0  0  0  0  0  0  0  0  0  0  0
   -7.1110   -3.9260   -1.4610 C   0  0  1  0  0  0  0  0  0  0  0  0
   -7.8220   -3.8590   -2.7920 C   0  0  0  0  0  0  0  0  0  0  0  0
   -7.4590   -5.3430   -2.9560 C   0  0  0  0  0  0  0  0  0  0  0  0
   -6.2470   -5.0340   -2.0840 C   0  0  0  0  0  0  0  0  0  0  0  0
  1  2  1  0
  2  3  2  3
  3  4  1  0
  4  5  2  3
  5  6  1  0
  5  7  1  0
  7  8  1  0
  7 11  2  3
  8  9  1  0
  8 10  2  0
 11 12  1  0
 11 31  1  0
 12 13  1  0
 13 14  2  0
 13 15  1  0
 15 16  1  6
 15 17  1  0
 17 18  1  0
 18 19  2  0
 18 20  1  0
 20 21  2  3
 21 22  1  0
 22 23  2  0
 22 27  1  0
 23 24  1  0
 23 25  1  0
 25 26  1  0
 26 27  2  0
 26 30  1  0
 27 28  1  0
 28 29  1  0
 29 30  1  0
 31 32  1  0
 32 33  1  6
 32 34  1  0
 34 35  2  0
 34 36  1  0
 37 36  1  6
 37 38  1  0
 37 40  1  0
 38 39  1  0
 39 40  1  0
M  END
