
     RDKit          3D

 40 43  0  0  0  0  0  0  0  0999 V2000
   -4.5660   -0.0940   -0.4700 C   0  0  0  0  0  0  0  0  0  0  0  0
   -4.3620   -1.3310    0.3440 C   0  0  2  0  0  0  0  0  0  0  0  0
   -5.7710   -1.6930    0.8820 C   0  0  0  0  0  0  0  0  0  0  0  0
   -3.4860   -1.2220    1.5310 C   0  0  0  0  0  0  0  0  0  0  0  0
   -2.1430   -0.8240    1.3530 N   0  0  0  0  0  0  0  0  0  0  0  0
   -1.1300   -1.7680    1.7220 C   0  0  0  0  0  0  0  0  0  0  0  0
   -0.5280   -2.4320    0.5470 C   0  0  1  0  0  0  0  0  0  0  0  0
   -1.5380   -3.1060   -0.2100 O   0  0  0  0  0  0  0  0  0  0  0  0
    0.3060   -1.7110   -0.4020 C   0  0  2  0  0  0  0  0  0  0  0  0
    0.8320   -2.7480   -1.4420 C   0  0  0  0  0  0  0  0  0  0  0  0
    1.6360   -3.7970   -0.8040 C   0  0  0  0  0  0  0  0  0  0  0  0
    1.1520   -5.0070   -0.3800 C   0  0  0  0  0  0  0  0  0  0  0  0
    1.9560   -5.9350    0.2110 C   0  0  0  0  0  0  0  0  0  0  0  0
    3.2850   -5.7200    0.4150 C   0  0  0  0  0  0  0  0  0  0  0  0
    3.8140   -4.5160    0.0030 C   0  0  0  0  0  0  0  0  0  0  0  0
    3.0040   -3.5780   -0.5930 C   0  0  0  0  0  0  0  0  0  0  0  0
    1.4320   -0.9740    0.0930 N   0  0  0  0  0  0  0  0  0  0  0  0
    1.7850    0.2580   -0.5230 C   0  0  0  0  0  0  0  0  0  0  0  0
    1.0930    0.6860   -1.5080 O   0  0  0  0  0  0  0  0  0  0  0  0
    2.8590    1.0280   -0.1000 O   0  0  0  0  0  0  0  0  0  0  0  0
    3.1360    2.2250   -0.7600 C   0  0  1  0  0  0  0  0  0  0  0  0
    3.2300    3.4120    0.1430 C   0  0  0  0  0  0  0  0  0  0  0  0
    4.1990    4.2570   -0.3200 O   0  0  0  0  0  0  0  0  0  0  0  0
    4.8320    3.6950   -1.3930 C   0  0  1  0  0  0  0  0  0  0  0  0
    6.2340    3.7200   -1.2590 O   0  0  0  0  0  0  0  0  0  0  0  0
    6.4250    2.8500   -0.1740 C   0  0  0  0  0  0  0  0  0  0  0  0
    5.5590    1.6430   -0.4890 C   0  0  2  0  0  0  0  0  0  0  0  0
    5.0340    1.1520    0.6930 F   0  0  0  0  0  0  0  0  0  0  0  0
    6.3150    0.6470   -1.0780 F   0  0  0  0  0  0  0  0  0  0  0  0
    4.5270    2.2150   -1.3970 C   0  0  1  0  0  0  0  0  0  0  0  0
   -1.7280    0.7470    1.8000 S   0  0  2  0  0  0  0  0  0  0  0  0
   -0.2400    0.9210    1.8170 O   0  0  0  0  0  0  0  0  0  0  0  0
   -2.1200    0.8570    3.3060 O   0  0  0  0  0  0  0  0  0  0  0  0
   -2.5130    2.0310    0.9610 C   0  0  0  0  0  0  0  0  0  0  0  0
   -2.0090    2.4920   -0.2300 C   0  0  0  0  0  0  0  0  0  0  0  0
   -2.6640    3.5450   -0.8650 C   0  0  0  0  0  0  0  0  0  0  0  0
   -3.7910    4.1160   -0.3190 C   0  0  0  0  0  0  0  0  0  0  0  0
   -4.4180    5.1920   -1.0160 N   0  0  0  0  0  0  0  0  0  0  0  0
   -4.2750    3.6410    0.8670 C   0  0  0  0  0  0  0  0  0  0  0  0
   -3.6530    2.6050    1.5180 C   0  0  0  0  0  0  0  0  0  0  0  0
  2  1  1  1
  2  3  1  0
  2  4  1  0
  4  5  1  0
  5  6  1  0
 31  5  1  6
  6  7  1  0
  7  8  1  6
  7  9  1  0
  9 10  1  6
  9 17  1  0
 10 11  1  0
 11 12  2  0
 11 16  1  0
 12 13  1  0
 13 14  2  0
 14 15  1  0
 15 16  2  0
 17 18  1  0
 18 19  2  0
 18 20  1  0
 21 20  1  1
 21 22  1  0
 30 21  1  1
 22 23  1  0
 24 23  1  1
 24 25  1  0
 24 30  1  0
 25 26  1  0
 26 27  1  0
 27 28  1  1
 27 29  1  0
 27 30  1  0
 31 32  2  0
 31 33  2  0
 31 34  1  0
 34 35  2  0
 34 40  1  0
 35 36  1  0
 36 37  2  0
 37 38  1  0
 37 39  1  0
 39 40  2  0
M  END
