
     RDKit          3D

 40 42  0  0  0  0  0  0  0  0999 V2000
    1.1790   -2.3910    1.1010 C   0  0  0  0  0  0  0  0  0  0  0  0
    0.8360   -0.9490    1.2110 C   0  0  0  0  0  0  0  0  0  0  0  0
    1.7000    0.0450    1.5560 C   0  0  0  0  0  0  0  0  0  0  0  0
    1.3520    1.3850    1.6420 C   0  0  0  0  0  0  0  0  0  0  0  0
    2.2530    2.3620    2.0910 N   0  0  0  0  0  0  0  0  0  0  0  0
    3.6620    2.0950    2.1610 C   0  0  2  0  0  0  0  0  0  0  0  0
    4.3250    3.2280    2.9310 C   0  0  0  0  0  0  0  0  0  0  0  0
    4.2040    2.1030    0.7430 C   0  0  0  0  0  0  0  0  0  0  0  0
    3.4280    2.1560   -0.2310 O   0  0  0  0  0  0  0  0  0  0  0  0
    5.6150    2.0610    0.5230 N   0  0  0  0  0  0  0  0  0  0  0  0
    6.1370    2.0960   -0.7950 C   0  0  0  0  0  0  0  0  0  0  0  0
    5.7920    0.9890   -1.6980 C   0  0  0  0  0  0  0  0  0  0  0  0
    6.2270    1.1030   -2.9120 O   0  0  0  0  0  0  0  0  0  0  0  0
    5.0560   -0.1630   -1.3830 N   0  0  0  0  0  0  0  0  0  0  0  0
    4.8000   -1.1640   -2.4100 C   0  0  2  0  0  0  0  0  0  0  0  0
    4.0020   -2.3570   -2.1950 C   0  0  0  0  0  0  0  0  0  0  0  0
    5.4740   -2.4740   -2.1240 C   0  0  1  0  0  0  0  0  0  0  0  0
    6.2790   -3.0510   -3.2600 C   0  0  0  0  0  0  0  0  0  0  0  0
    7.0360   -4.6030   -2.8680 S   0  0  0  0  0  0  0  0  0  0  0  0
    8.3690   -4.4350   -2.2200 O   0  0  0  0  0  0  0  0  0  0  0  0
    0.0220    1.7220    1.3490 C   0  0  0  0  0  0  0  0  0  0  0  0
   -0.4070    3.0360    1.3600 C   0  0  0  0  0  0  0  0  0  0  0  0
   -1.7160    3.3650    1.0240 C   0  0  0  0  0  0  0  0  0  0  0  0
   -2.0820    4.7960    1.0560 C   0  0  2  0  0  0  0  0  0  0  0  0
   -3.0860    5.0000    2.1990 C   0  0  0  0  0  0  0  0  0  0  0  0
   -2.7520    5.2810   -0.2020 C   0  0  0  0  0  0  0  0  0  0  0  0
   -2.5660    2.3600    0.6850 C   0  0  0  0  0  0  0  0  0  0  0  0
   -2.2070    1.0020    0.6520 C   0  0  0  0  0  0  0  0  0  0  0  0
   -3.0020    0.0180    0.3320 O   0  0  0  0  0  0  0  0  0  0  0  0
   -4.2280   -0.3060   -0.1400 C   0  0  2  0  0  0  0  0  0  0  0  0
   -5.2410    0.3450    0.8760 C   0  0  0  0  0  0  0  0  0  0  0  0
   -4.5470   -1.7350   -0.1510 C   0  0  0  0  0  0  0  0  0  0  0  0
   -3.7730   -2.5170    0.4420 O   0  0  0  0  0  0  0  0  0  0  0  0
   -5.6870   -2.2620   -0.8000 N   0  0  0  0  0  0  0  0  0  0  0  0
   -6.0310   -3.6840   -0.8110 C   0  0  1  0  0  0  0  0  0  0  0  0
   -7.2560   -3.8480   -1.6900 C   0  0  0  0  0  0  0  0  0  0  0  0
   -4.8910   -4.4920   -1.3580 C   0  0  0  0  0  0  0  0  0  0  0  0
   -6.3570   -4.0620    0.6220 C   0  0  0  0  0  0  0  0  0  0  0  0
   -0.8740    0.7490    0.9980 C   0  0  0  0  0  0  0  0  0  0  0  0
   -0.4670   -0.5600    0.9340 C   0  0  0  0  0  0  0  0  0  0  0  0
  1  2  1  0
  2  3  2  0
  2 40  1  0
  3  4  1  0
  4  5  1  0
  4 21  2  0
  5  6  1  0
  6  7  1  1
  6  8  1  0
  8  9  2  0
  8 10  1  0
 10 11  1  0
 11 12  1  0
 12 13  2  0
 12 14  1  0
 15 14  1  1
 15 16  1  0
 15 17  1  0
 16 17  1  0
 17 18  1  6
 18 19  1  0
 19 20  2  0
 21 22  1  0
 21 39  1  0
 22 23  2  0
 23 24  1  0
 23 27  1  0
 24 25  1  1
 24 26  1  0
 27 28  2  0
 28 29  1  0
 28 39  1  0
 29 30  1  0
 30 31  1  1
 30 32  1  0
 32 33  2  0
 32 34  1  0
 34 35  1  0
 35 36  1  6
 35 37  1  0
 35 38  1  0
 39 40  2  0
M  END
