
     RDKit          3D

 34 36  0  0  0  0  0  0  0  0999 V2000
   -2.8530   -4.1480   -0.6090 C   0  0  0  0  0  0  0  0  0  0  0  0
   -2.9220   -2.6570   -0.5000 N   0  0  0  0  0  0  0  0  0  0  0  0
   -4.1740   -2.1080   -0.9210 C   0  0  0  0  0  0  0  0  0  0  0  0
   -1.7960   -2.0140    0.0010 C   0  0  0  0  0  0  0  0  0  0  0  0
   -0.7810   -2.7600    0.3450 O   0  0  0  0  0  0  0  0  0  0  0  0
   -1.5980   -0.5830    0.1990 C   0  0  1  0  0  0  0  0  0  0  0  0
   -0.3070   -0.4000    0.8090 N   0  0  0  0  0  0  0  0  0  0  0  0
    0.8720   -0.8730   -0.0130 C   0  0  0  0  0  0  0  0  0  0  0  0
    0.6610   -1.3110   -1.1000 O   0  0  0  0  0  0  0  0  0  0  0  0
    2.0230   -0.6760    0.7520 N   0  0  0  0  0  0  0  0  0  0  0  0
    3.1610   -1.2110   -0.4370 C   0  0  0  0  0  0  0  0  0  0  0  0
    2.6490   -1.6180   -1.4110 O   0  0  0  0  0  0  0  0  0  0  0  0
    4.5080   -1.0500   -0.0130 C   0  0  0  0  0  0  0  0  0  0  0  0
    4.8510   -0.5900    1.0920 O   0  0  0  0  0  0  0  0  0  0  0  0
    5.5900   -1.4160   -0.8760 N   0  0  0  0  0  0  0  0  0  0  0  0
    6.9530   -1.2040   -0.5140 C   0  0  0  0  0  0  0  0  0  0  0  0
    8.0780   -1.4140   -0.9760 N   0  0  0  0  0  0  0  0  0  0  0  0
    9.1770   -1.0910   -0.4570 N   0  0  0  0  0  0  0  0  0  0  0  0
    9.1620   -0.4470    0.7270 C   0  0  0  0  0  0  0  0  0  0  0  0
   10.2500    0.0570    1.5740 C   0  0  0  0  0  0  0  0  0  0  0  0
   11.3990   -0.1260    1.1650 O   0  0  0  0  0  0  0  0  0  0  0  0
   10.0530    0.7000    2.7570 O   0  0  0  0  0  0  0  0  0  0  0  0
    7.4160   -0.3540    1.0180 S   0  0  0  0  0  0  0  0  0  0  0  0
   -1.7140    0.3050   -1.0030 C   0  0  0  0  0  0  0  0  0  0  0  0
   -2.1050    1.6420   -0.3980 C   0  0  0  0  0  0  0  0  0  0  0  0
   -2.9930    1.3030    0.6680 N   0  0  1  0  0  0  0  0  0  0  0  0
   -2.6840    2.1550    1.7070 O   0  0  0  0  0  0  0  0  0  0  0  0
   -4.3700    1.4390    0.2960 C   0  0  0  0  0  0  0  0  0  0  0  0
   -4.8760    2.8210    0.2750 C   0  0  0  0  0  0  0  0  0  0  0  0
   -4.2640    3.9490    0.5210 C   0  0  0  0  0  0  0  0  0  0  0  0
   -5.2740    5.0460    0.3540 C   0  0  0  0  0  0  0  0  0  0  0  0
   -6.2470    4.4400   -0.4220 O   0  0  0  0  0  0  0  0  0  0  0  0
   -6.2140    3.1610   -0.0400 O   0  0  0  0  0  0  0  0  0  0  0  0
   -2.6380    0.0030    1.1370 C   0  0  0  0  0  0  0  0  0  0  0  0
  1  2  1  0
  2  3  1  0
  2  4  1  0
  4  5  2  0
  4  6  1  0
  6  7  1  1
  6 24  1  0
  6 34  1  0
  7  8  1  0
  8  9  2  0
  8 10  1  0
 10 11  1  0
 11 12  2  0
 11 13  1  0
 13 14  2  0
 13 15  1  0
 15 16  1  0
 16 17  2  0
 16 23  1  0
 17 18  1  0
 18 19  2  0
 19 20  1  0
 19 23  1  0
 20 21  2  0
 20 22  1  0
 24 25  1  0
 25 26  1  0
 26 27  1  1
 26 28  1  0
 26 34  1  0
 28 29  1  0
 29 30  2  0
 29 33  1  0
 30 31  1  0
 31 32  1  0
 32 33  1  0
M  CHG  2  26   1  27  -1
M  END
