
     RDKit          3D

 34 36  0  0  0  0  0  0  0  0999 V2000
    0.7180   -0.3790    1.7460 C   0  0  0  0  0  0  0  0  0  0  0  0
    1.3620   -0.8300    0.4460 N   0  0  1  0  0  0  0  0  0  0  0  0
    2.6200   -0.1930    0.4280 C   0  0  0  0  0  0  0  0  0  0  0  0
    3.7980   -1.0170    0.6280 C   0  0  0  0  0  0  0  0  0  0  0  0
    5.0630   -0.3570    0.7640 N   0  0  0  0  0  0  0  0  0  0  0  0
    5.6230    0.4660   -0.2450 C   0  0  0  0  0  0  0  0  0  0  0  0
    4.9930    0.6390   -1.3280 O   0  0  0  0  0  0  0  0  0  0  0  0
    6.8510    1.0680   -0.0310 O   0  0  0  0  0  0  0  0  0  0  0  0
    7.4520    1.8870   -0.9820 C   0  0  0  0  0  0  0  0  0  0  0  0
    8.7500    2.3690   -0.4620 C   0  0  0  0  0  0  0  0  0  0  0  0
    9.1870    1.9650    0.8220 N   0  0  0  0  0  0  0  0  0  0  0  0
    9.4940    3.1360   -1.1230 O   0  0  0  0  0  0  0  0  0  0  0  0
    3.6730   -2.3220    0.6780 C   0  0  0  0  0  0  0  0  0  0  0  0
    2.3760   -2.9440    0.5580 C   0  0  0  0  0  0  0  0  0  0  0  0
    1.2710   -2.2130    0.4290 C   0  0  0  0  0  0  0  0  0  0  0  0
    0.0080   -3.0140    0.2940 C   0  0  0  0  0  0  0  0  0  0  0  0
   -1.1950   -2.6320    0.0960 C   0  0  0  0  0  0  0  0  0  0  0  0
   -1.8470   -1.3590   -0.0880 C   0  0  0  0  0  0  0  0  0  0  0  0
   -1.4130   -0.2120   -0.1390 O   0  0  0  0  0  0  0  0  0  0  0  0
   -3.3040   -1.3430   -0.2520 N   0  0  0  0  0  0  0  0  0  0  0  0
   -3.9680   -0.1460   -0.4290 N   0  0  0  0  0  0  0  0  0  0  0  0
   -3.3970    0.8170   -1.1830 O   0  0  0  0  0  0  0  0  0  0  0  0
   -5.2340    0.0680    0.1730 C   0  0  0  0  0  0  0  0  0  0  0  0
   -5.7970   -0.8000    0.8840 O   0  0  0  0  0  0  0  0  0  0  0  0
   -5.9470    1.3110   -0.0040 N   0  0  0  0  0  0  0  0  0  0  0  0
   -7.2180    1.5330    0.5940 C   0  0  0  0  0  0  0  0  0  0  0  0
   -7.7530    2.8980    0.2570 C   0  0  0  0  0  0  0  0  0  0  0  0
   -7.1050    3.7580   -0.4950 C   0  0  0  0  0  0  0  0  0  0  0  0
   -8.2350    5.1910   -0.5400 S   0  0  0  0  0  0  0  0  0  0  0  0
   -9.6500    4.2010   -0.0390 N   0  0  0  0  0  0  0  0  0  0  0  0
   -8.9620    3.3060    0.7330 O   0  0  0  0  0  0  0  0  0  0  0  0
   -1.9870   -3.8630    0.0720 O   0  0  0  0  0  0  0  0  0  0  0  0
   -1.1250   -4.9300   -0.2020 C   0  0  0  0  0  0  0  0  0  0  0  0
    0.0660   -4.4570    0.3910 O   0  0  0  0  0  0  0  0  0  0  0  0
  2  1  1  1
  2  3  1  0
  2 15  1  0
  3  4  1  0
  4  5  1  0
  4 13  2  0
  5  6  1  0
  6  7  2  0
  6  8  1  0
  8  9  1  0
  9 10  1  0
 10 11  1  0
 10 12  2  0
 13 14  1  0
 14 15  2  0
 15 16  1  0
 16 17  2  0
 16 34  1  0
 17 18  1  0
 17 32  1  0
 18 19  2  0
 18 20  1  0
 20 21  1  0
 21 22  1  0
 21 23  1  0
 23 24  2  0
 23 25  1  0
 25 26  1  0
 26 27  1  0
 27 28  2  0
 27 31  1  0
 28 29  1  0
 29 30  1  0
 30 31  1  0
 32 33  1  0
 33 34  1  0
M  CHG  2   2   1  22  -1
M  END
