
     RDKit          3D

 34 36  0  0  0  0  0  0  0  0999 V2000
    6.2160   -0.6450    3.6290 O   0  0  0  0  0  0  0  0  0  0  0  0
    5.1090    0.1140    3.3140 C   0  0  0  0  0  0  0  0  0  0  0  0
    4.9060    0.1950    1.8320 C   0  0  1  0  0  0  0  0  0  0  0  0
    3.7790    0.9680    1.5450 O   0  0  0  0  0  0  0  0  0  0  0  0
    3.2480    0.6330    0.2960 C   0  0  2  0  0  0  0  0  0  0  0  0
    2.4450   -0.4660    0.3840 O   0  0  0  0  0  0  0  0  0  0  0  0
    1.1140   -0.2830    0.0400 C   0  0  2  0  0  0  0  0  0  0  0  0
    0.1460   -0.6110    1.1140 C   0  0  1  0  0  0  0  0  0  0  0  0
   -0.2210    0.5920    1.9950 C   0  0  0  0  0  0  0  0  0  0  0  0
    0.8840    1.1910    2.5640 O   0  0  0  0  0  0  0  0  0  0  0  0
   -1.0450   -1.0830    0.6370 O   0  0  0  0  0  0  0  0  0  0  0  0
   -1.5280   -0.4670   -0.5060 C   0  0  2  0  0  0  0  0  0  0  0  0
   -2.7920   -0.9970   -0.7520 O   0  0  0  0  0  0  0  0  0  0  0  0
   -3.7650    0.0080   -0.7190 C   0  0  2  0  0  0  0  0  0  0  0  0
   -4.6900   -0.2460    0.4400 C   0  0  1  0  0  0  0  0  0  0  0  0
   -5.3900    1.0100    0.9130 C   0  0  0  0  0  0  0  0  0  0  0  0
   -4.4760    2.0170    1.1970 O   0  0  0  0  0  0  0  0  0  0  0  0
   -5.5660   -1.2590    0.1510 O   0  0  0  0  0  0  0  0  0  0  0  0
   -6.3700   -1.0520   -0.9410 C   0  0  2  0  0  0  0  0  0  0  0  0
   -7.1230   -2.2320   -1.1240 O   0  0  0  0  0  0  0  0  0  0  0  0
   -5.6100   -0.8120   -2.2130 C   0  0  2  0  0  0  0  0  0  0  0  0
   -5.0440   -2.0340   -2.6150 O   0  0  0  0  0  0  0  0  0  0  0  0
   -4.4790    0.1650   -2.0340 C   0  0  1  0  0  0  0  0  0  0  0  0
   -4.8900    1.4930   -2.2040 O   0  0  0  0  0  0  0  0  0  0  0  0
   -0.6190   -0.6780   -1.6910 C   0  0  2  0  0  0  0  0  0  0  0  0
   -1.1350   -1.6240   -2.5800 O   0  0  0  0  0  0  0  0  0  0  0  0
    0.7530   -1.0570   -1.2130 C   0  0  1  0  0  0  0  0  0  0  0  0
    1.7460   -0.8240   -2.1630 O   0  0  0  0  0  0  0  0  0  0  0  0
    4.3630    0.4680   -0.7240 C   0  0  2  0  0  0  0  0  0  0  0  0
    4.6760   -0.8770   -0.9160 O   0  0  0  0  0  0  0  0  0  0  0  0
    5.6340    1.1490   -0.2850 C   0  0  1  0  0  0  0  0  0  0  0  0
    5.4330    2.5320   -0.4790 O   0  0  0  0  0  0  0  0  0  0  0  0
    6.0660    0.8330    1.1020 C   0  0  2  0  0  0  0  0  0  0  0  0
    7.1790   -0.0080    1.0700 O   0  0  0  0  0  0  0  0  0  0  0  0
  1  2  1  0
  3  2  1  1
  3  4  1  0
  3 33  1  0
  4  5  1  0
  5  6  1  1
  5 29  1  0
  7  6  1  1
  7  8  1  0
  7 27  1  0
  8  9  1  6
  8 11  1  0
  9 10  1  0
 11 12  1  0
 12 13  1  6
 12 25  1  0
 14 13  1  6
 14 15  1  0
 14 23  1  0
 15 16  1  6
 15 18  1  0
 16 17  1  0
 18 19  1  0
 19 20  1  6
 19 21  1  0
 21 22  1  1
 21 23  1  0
 23 24  1  1
 25 26  1  6
 25 27  1  0
 27 28  1  6
 29 30  1  1
 29 31  1  0
 31 32  1  1
 31 33  1  0
 33 34  1  6
M  END
