
     RDKit          3D

 34 36  0  0  0  0  0  0  0  0999 V2000
   -5.2800   -4.9990    0.5820 N   0  0  0  0  0  0  0  0  0  0  0  0
   -4.3560   -4.4280    1.4860 C   0  0  0  0  0  0  0  0  0  0  0  0
   -4.4480   -4.7090    2.7000 O   0  0  0  0  0  0  0  0  0  0  0  0
   -3.2750   -3.5040    1.0610 C   0  0  0  0  0  0  0  0  0  0  0  0
   -3.1590   -3.2020   -0.1590 O   0  0  0  0  0  0  0  0  0  0  0  0
   -2.3770   -2.9550    1.9800 N   0  0  0  0  0  0  0  0  0  0  0  0
   -1.3030   -2.0350    1.5630 C   0  0  1  0  0  0  0  0  0  0  0  0
   -0.4110   -2.6760    0.5690 C   0  0  0  0  0  0  0  0  0  0  0  0
    0.6950   -1.8060    0.2190 N   0  0  0  0  0  0  0  0  0  0  0  0
    1.6580   -1.4130    1.1970 C   0  0  0  0  0  0  0  0  0  0  0  0
    1.5620   -1.8210    2.3950 O   0  0  0  0  0  0  0  0  0  0  0  0
    2.7620   -0.5450    0.8530 C   0  0  0  0  0  0  0  0  0  0  0  0
    2.9630   -0.0610   -0.3520 C   0  0  0  0  0  0  0  0  0  0  0  0
    4.1100    0.8090   -0.5960 C   0  0  0  0  0  0  0  0  0  0  0  0
    4.3840    1.3300   -1.7600 N   0  0  0  0  0  0  0  0  0  0  0  0
    5.5930    2.1310   -1.6140 C   0  0  0  0  0  0  0  0  0  0  0  0
    6.6190    2.6170   -2.2340 C   0  0  0  0  0  0  0  0  0  0  0  0
    7.5160    3.3660   -1.5140 O   0  0  0  0  0  0  0  0  0  0  0  0
    7.2580    2.7840    0.1300 S   0  0  0  0  0  0  0  0  0  0  0  0
    7.9460    1.4060    0.2030 O   0  0  0  0  0  0  0  0  0  0  0  0
    5.5100    2.4610   -0.1450 C   0  0  2  0  0  0  0  0  0  0  0  0
    5.0740    1.2140    0.3550 O   0  0  0  0  0  0  0  0  0  0  0  0
   -1.9920   -0.8340    0.9500 C   0  0  0  0  0  0  0  0  0  0  0  0
   -3.2540   -0.8720    0.9330 O   0  0  0  0  0  0  0  0  0  0  0  0
   -1.3840    0.2920    0.4110 N   0  0  0  0  0  0  0  0  0  0  0  0
   -1.9610    1.4320   -0.1680 C   0  0  0  0  0  0  0  0  0  0  0  0
   -3.2960    1.6870   -0.1600 C   0  0  0  0  0  0  0  0  0  0  0  0
   -3.8310    2.8450   -0.7660 C   0  0  0  0  0  0  0  0  0  0  0  0
   -2.9960    3.7400   -1.3800 C   0  0  0  0  0  0  0  0  0  0  0  0
   -3.5300    4.9240   -2.0010 N   0  0  0  0  0  0  0  0  0  0  0  0
   -4.7580    5.1220   -1.9730 O   0  0  0  0  0  0  0  0  0  0  0  0
   -2.7170    5.8220   -2.6140 O   0  0  0  0  0  0  0  0  0  0  0  0
   -1.6810    3.4840   -1.3850 N   0  0  0  0  0  0  0  0  0  0  0  0
   -1.1670    2.3830   -0.8090 C   0  0  0  0  0  0  0  0  0  0  0  0
  1  2  1  0
  2  3  2  0
  2  4  1  0
  4  5  2  0
  4  6  1  0
  6  7  1  0
  7  8  1  6
  7 23  1  0
  8  9  1  0
  9 10  1  0
 10 11  2  0
 10 12  1  0
 12 13  2  3
 13 14  1  0
 14 15  2  0
 14 22  1  0
 15 16  1  0
 16 17  2  0
 16 21  1  0
 17 18  1  0
 19 18  1  6
 19 20  2  0
 19 21  1  0
 21 22  1  1
 23 24  2  0
 23 25  1  0
 25 26  1  0
 26 27  2  0
 26 34  1  0
 27 28  1  0
 28 29  2  0
 29 30  1  0
 29 33  1  0
 30 31  2  0
 30 32  1  0
 33 34  2  0
M  CHG  2  30   1  32  -1
M  END
