
     RDKit          3D

 34 37  0  0  0  0  0  0  0  0999 V2000
    4.0460    1.1020   -1.0650 O   0  0  0  0  0  0  0  0  0  0  0  0
    4.6250    0.3860   -0.2330 C   0  0  0  0  0  0  0  0  0  0  0  0
    3.9000   -0.5850    0.4820 N   0  0  0  0  0  0  0  0  0  0  0  0
    2.5340   -0.8870    0.3920 C   0  0  0  0  0  0  0  0  0  0  0  0
    1.6270   -0.2550   -0.3990 C   0  0  0  0  0  0  0  0  0  0  0  0
    0.2800   -0.6500   -0.4060 C   0  0  0  0  0  0  0  0  0  0  0  0
   -0.1970   -1.6740    0.3660 C   0  0  0  0  0  0  0  0  0  0  0  0
   -1.5020   -2.0960    0.3930 O   0  0  0  0  0  0  0  0  0  0  0  0
   -2.5280   -1.5540   -0.3490 C   0  0  1  0  0  0  0  0  0  0  0  0
   -3.1840   -2.5700   -1.2830 C   0  0  0  0  0  0  0  0  0  0  0  0
   -4.1220   -1.8640   -2.0990 N   0  0  0  0  0  0  0  0  0  0  0  0
   -4.2620   -0.4810   -1.7780 C   0  0  0  0  0  0  0  0  0  0  0  0
   -4.3010   -0.1870   -0.3030 C   0  0  1  0  0  0  0  0  0  0  0  0
   -5.6950   -0.0090    0.1780 C   0  0  0  0  0  0  0  0  0  0  0  0
   -6.0700   -0.6740    1.1770 O   0  0  0  0  0  0  0  0  0  0  0  0
   -6.5720    0.8460   -0.4250 O   0  0  0  0  0  0  0  0  0  0  0  0
   -7.9010    1.0580   -0.0200 C   0  0  0  0  0  0  0  0  0  0  0  0
   -8.0150    1.5760    1.3930 C   0  0  2  0  0  0  0  0  0  0  0  0
   -9.3860    1.7380    1.6520 O   0  0  0  0  0  0  0  0  0  0  0  0
   -7.2990    2.7400    1.5320 O   0  0  0  0  0  0  0  0  0  0  0  0
   -3.5990   -1.1030    0.4660 O   0  0  0  0  0  0  0  0  0  0  0  0
    0.7380   -2.2910    1.1510 N   0  0  0  0  0  0  0  0  0  0  0  0
    2.0280   -1.9260    1.1700 C   0  0  0  0  0  0  0  0  0  0  0  0
    6.0610    0.6020   -0.0420 C   0  0  0  0  0  0  0  0  0  0  0  0
    6.7080   -0.1030    0.7990 N   0  0  0  0  0  0  0  0  0  0  0  0
    8.0400   -0.0520    1.1170 N   0  0  0  0  0  0  0  0  0  0  0  0
    8.9630    0.8500    0.5220 C   0  0  0  0  0  0  0  0  0  0  0  0
    8.6250    1.7740   -0.4420 C   0  0  0  0  0  0  0  0  0  0  0  0
    9.7230    2.4290   -0.7580 N   0  0  0  0  0  0  0  0  0  0  0  0
    9.8540    3.4490   -1.6820 O   0  0  0  0  0  0  0  0  0  0  0  0
   10.7630    1.9700   -0.0400 N   0  0  0  0  0  0  0  0  0  0  0  0
   10.3340    0.9860    0.7690 C   0  0  0  0  0  0  0  0  0  0  0  0
   11.0630    0.3510    1.5670 O   0  0  0  0  0  0  0  0  0  0  0  0
    6.9360    1.8490   -0.9760 S   0  0  0  0  0  0  0  0  0  0  0  0
  1  2  2  0
  2  3  1  0
  2 24  1  0
  3  4  1  0
  4  5  2  0
  4 23  1  0
  5  6  1  0
  6  7  2  0
  7  8  1  0
  7 22  1  0
  9  8  1  1
  9 10  1  0
  9 21  1  0
 10 11  1  0
 11 12  1  0
 12 13  1  0
 13 14  1  1
 13 21  1  0
 14 15  2  0
 14 16  1  0
 16 17  1  0
 17 18  1  0
 18 19  1  6
 18 20  1  0
 22 23  2  0
 24 25  2  0
 24 34  1  0
 25 26  1  0
 26 27  1  0
 27 28  2  0
 27 32  1  0
 28 29  1  0
 28 34  1  0
 29 30  1  0
 29 31  1  0
 31 32  1  0
 32 33  2  0
M  CHG  2  11   1  30  -1
M  END
