
     RDKit          3D

 34 37  0  0  0  0  0  0  0  0999 V2000
    2.9880    4.0000    0.8150 C   0  0  0  0  0  0  0  0  0  0  0  0
    2.4680    2.7070    0.5850 O   0  0  0  0  0  0  0  0  0  0  0  0
    1.2210    2.5310   -0.0150 C   0  0  0  0  0  0  0  0  0  0  0  0
    0.4420    3.5850   -0.4090 C   0  0  0  0  0  0  0  0  0  0  0  0
   -0.7890    3.4230   -1.0030 C   0  0  0  0  0  0  0  0  0  0  0  0
   -1.2500    2.1290   -1.2050 C   0  0  0  0  0  0  0  0  0  0  0  0
   -2.5350    1.8830   -1.8280 C   0  0  0  0  0  0  0  0  0  0  0  0
   -3.3150    2.9970   -2.2360 N   0  0  0  0  0  0  0  0  0  0  0  0
   -2.9940    0.7540   -2.0270 O   0  0  0  0  0  0  0  0  0  0  0  0
   -0.4750    1.0330   -0.8110 C   0  0  0  0  0  0  0  0  0  0  0  0
   -1.0230   -0.2040   -1.0510 O   0  0  0  0  0  0  0  0  0  0  0  0
   -1.8540   -0.8700   -0.1430 C   0  0  0  0  0  0  0  0  0  0  0  0
   -2.3470   -2.0330   -0.4920 C   0  0  0  0  0  0  0  0  0  0  0  0
   -3.2380   -2.8140    0.4020 C   0  0  1  0  0  0  0  0  0  0  0  0
   -4.4690   -3.1680   -0.2450 N   0  0  0  0  0  0  0  0  0  0  0  0
   -4.5790   -4.4090   -0.3150 N   0  0  0  0  0  0  0  0  0  0  0  0
   -3.5240   -5.0840    0.2320 O   0  0  0  0  0  0  0  0  0  0  0  0
   -2.6290   -4.1490    0.7080 C   0  0  0  0  0  0  0  0  0  0  0  0
   -1.5370   -4.3680    1.2780 O   0  0  0  0  0  0  0  0  0  0  0  0
   -3.4990   -2.2080    1.6330 O   0  0  0  0  0  0  0  0  0  0  0  0
   -2.9800   -0.9890    1.9910 C   0  0  0  0  0  0  0  0  0  0  0  0
   -3.3190   -0.4860    3.2550 O   0  0  0  0  0  0  0  0  0  0  0  0
   -2.1930   -0.3290    1.1640 C   0  0  0  0  0  0  0  0  0  0  0  0
    0.7550    1.2210   -0.2210 C   0  0  0  0  0  0  0  0  0  0  0  0
    1.5860    0.1370    0.2180 C   0  0  0  0  0  0  0  0  0  0  0  0
    2.5480    0.3980    1.0320 O   0  0  0  0  0  0  0  0  0  0  0  0
    1.4770   -1.2250   -0.1500 N   0  0  0  0  0  0  0  0  0  0  0  0
    2.3790   -2.1850    0.3860 N   0  0  0  0  0  0  0  0  0  0  0  0
    3.7450   -2.0920    0.0490 C   0  0  0  0  0  0  0  0  0  0  0  0
    4.9840   -1.1140    1.0160 S   0  0  0  0  0  0  0  0  0  0  0  0
    6.3480   -1.6480   -0.2080 C   0  0  0  0  0  0  0  0  0  0  0  0
    5.7390   -2.2870   -0.9090 N   0  0  0  0  0  0  0  0  0  0  0  0
    4.4910   -2.6070   -0.9380 N   0  0  0  0  0  0  0  0  0  0  0  0
    3.9320   -3.4280   -1.9150 O   0  0  0  0  0  0  0  0  0  0  0  0
  1  2  1  0
  2  3  1  0
  3  4  2  0
  3 24  1  0
  4  5  1  0
  5  6  2  0
  6  7  1  0
  6 10  1  0
  7  8  1  0
  7  9  2  0
 10 11  1  0
 10 24  2  0
 11 12  1  0
 12 13  2  0
 12 23  1  0
 13 14  1  0
 14 15  1  0
 14 18  1  0
 14 20  1  1
 15 16  2  0
 16 17  1  0
 17 18  1  0
 18 19  2  0
 20 21  1  0
 21 22  1  0
 21 23  2  0
 24 25  1  0
 25 26  2  0
 25 27  1  0
 27 28  1  0
 28 29  1  0
 29 30  1  0
 29 33  2  0
 30 31  1  0
 31 32  2  0
 32 33  1  0
 33 34  1  0
M  CHG  2  33   1  34  -1
M  END
