
     RDKit          3D

 34 36  0  0  0  0  0  0  0  0999 V2000
   -6.1490    1.9330    2.4910 C   0  0  0  0  0  0  0  0  0  0  0  0
   -7.1150    1.0280    1.9280 O   0  0  0  0  0  0  0  0  0  0  0  0
   -7.0360    0.7780    0.5480 C   0  0  0  0  0  0  0  0  0  0  0  0
   -7.7920    1.4750   -0.2670 C   0  0  0  0  0  0  0  0  0  0  0  0
   -8.6620    2.4480    0.2200 O   0  0  0  0  0  0  0  0  0  0  0  0
   -7.7410    1.2590   -1.6210 O   0  0  0  0  0  0  0  0  0  0  0  0
   -6.9210    0.3140   -2.2320 C   0  0  0  0  0  0  0  0  0  0  0  0
   -6.0660   -0.4700   -1.3080 C   0  0  0  0  0  0  0  0  0  0  0  0
   -6.1250   -0.2510   -0.0100 C   0  0  0  0  0  0  0  0  0  0  0  0
   -5.3480   -0.9440    0.9210 N   0  0  0  0  0  0  0  0  0  0  0  0
   -4.3490   -1.9190    0.6560 C   0  0  0  0  0  0  0  0  0  0  0  0
   -4.0620   -2.2510   -0.5180 O   0  0  0  0  0  0  0  0  0  0  0  0
   -3.6570   -2.5400    1.6660 O   0  0  0  0  0  0  0  0  0  0  0  0
   -2.6600   -3.4760    1.4720 C   0  0  0  0  0  0  0  0  0  0  0  0
   -1.4670   -2.8640    0.8480 C   0  0  0  0  0  0  0  0  0  0  0  0
   -0.4800   -3.6420    0.6790 O   0  0  0  0  0  0  0  0  0  0  0  0
   -1.3240   -1.5280    0.4370 N   0  0  0  0  0  0  0  0  0  0  0  0
   -0.0670   -1.0050   -0.0360 C   0  0  0  0  0  0  0  0  0  0  0  0
    0.4300   -0.0350   -0.5330 N   0  0  0  0  0  0  0  0  0  0  0  0
    1.6520    0.2130   -0.7390 N   0  0  0  0  0  0  0  0  0  0  0  0
    2.5790   -0.6310   -0.4020 C   0  0  0  0  0  0  0  0  0  0  0  0
    3.9940   -0.7570   -0.3620 C   0  0  0  0  0  0  0  0  0  0  0  0
    4.7060   -1.5520    0.0240 O   0  0  0  0  0  0  0  0  0  0  0  0
    4.7700    0.6500   -1.0570 N   0  0  0  0  0  0  0  0  0  0  0  0
    6.0280    0.3590   -0.7290 C   0  0  0  0  0  0  0  0  0  0  0  0
    6.5870   -0.7010   -0.3540 O   0  0  0  0  0  0  0  0  0  0  0  0
    6.8760    1.5920   -0.8650 N   0  0  0  0  0  0  0  0  0  0  0  0
    8.2230    1.4060   -0.5750 C   0  0  0  0  0  0  0  0  0  0  0  0
    9.1680    1.6590   -1.4950 C   0  0  0  0  0  0  0  0  0  0  0  0
   10.4300    1.3590   -0.8510 C   0  0  0  0  0  0  0  0  0  0  0  0
   10.2540    0.9570    0.3490 N   0  0  0  0  0  0  0  0  0  0  0  0
   11.2600    0.6010    1.2030 O   0  0  0  0  0  0  0  0  0  0  0  0
    8.8580    0.9220    0.6740 C   0  0  0  0  0  0  0  0  0  0  0  0
    1.5000   -1.9840    0.3130 S   0  0  0  0  0  0  0  0  0  0  0  0
  1  2  1  0
  2  3  1  0
  3  4  2  0
  3  9  1  0
  4  5  1  0
  4  6  1  0
  6  7  1  0
  7  8  1  0
  8  9  2  0
  9 10  1  0
 10 11  1  0
 11 12  2  0
 11 13  1  0
 13 14  1  0
 14 15  1  0
 15 16  2  0
 15 17  1  0
 17 18  1  0
 18 19  2  0
 18 34  1  0
 19 20  1  0
 20 21  2  0
 21 22  1  0
 21 34  1  0
 22 23  2  0
 22 24  1  0
 24 25  1  0
 25 26  2  0
 25 27  1  0
 27 28  1  0
 28 29  2  0
 28 33  1  0
 29 30  1  0
 30 31  2  0
 31 32  1  0
 31 33  1  0
M  CHG  2  31   1  32  -1
M  END
