
     RDKit          3D

 34 36  0  0  0  0  0  0  0  0999 V2000
   -9.4080   -0.8390   -1.3540 O   0  0  0  0  0  0  0  0  0  0  0  0
   -8.7830   -1.8600   -0.9710 C   0  0  0  0  0  0  0  0  0  0  0  0
   -8.7150   -3.0080   -1.7770 O   0  0  0  0  0  0  0  0  0  0  0  0
   -8.1300   -1.8720    0.2910 N   0  0  0  0  0  0  0  0  0  0  0  0
   -8.2180   -0.6960    1.0840 C   0  0  0  0  0  0  0  0  0  0  0  0
   -7.1710   -0.0090    1.4600 C   0  0  0  0  0  0  0  0  0  0  0  0
   -5.5280   -0.4570    1.0300 S   0  0  2  0  0  0  0  0  0  0  0  0
   -5.4770   -1.8470    0.4880 O   0  0  0  0  0  0  0  0  0  0  0  0
   -4.7030   -0.3760    2.2760 O   0  0  0  0  0  0  0  0  0  0  0  0
   -4.9850    0.6520   -0.1740 N   0  0  0  0  0  0  0  0  0  0  0  0
   -5.0010    1.9620    0.4100 C   0  0  0  0  0  0  0  0  0  0  0  0
   -3.6000    2.4880    0.4680 C   0  0  0  0  0  0  0  0  0  0  0  0
   -2.7360    1.5610    1.0460 O   0  0  0  0  0  0  0  0  0  0  0  0
   -2.5820    0.4320    0.2610 C   0  0  2  0  0  0  0  0  0  0  0  0
   -1.2920    0.4850   -0.4740 C   0  0  0  0  0  0  0  0  0  0  0  0
   -0.9130   -0.4250   -1.2430 O   0  0  0  0  0  0  0  0  0  0  0  0
   -0.4490    1.6120   -0.3000 N   0  0  0  0  0  0  0  0  0  0  0  0
    0.7860    1.7850   -0.9240 N   0  0  0  0  0  0  0  0  0  0  0  0
    1.9940    1.2510   -0.3610 C   0  0  0  0  0  0  0  0  0  0  0  0
    1.8570    0.6360    0.7030 O   0  0  0  0  0  0  0  0  0  0  0  0
    3.2450    1.4060   -0.9610 N   0  0  0  0  0  0  0  0  0  0  0  0
    4.4610    0.9080   -0.4540 C   0  0  0  0  0  0  0  0  0  0  0  0
    5.5860    1.0770   -1.2720 C   0  0  0  0  0  0  0  0  0  0  0  0
    6.8390    0.6470   -0.9090 C   0  0  0  0  0  0  0  0  0  0  0  0
    6.9890    0.0250    0.3080 C   0  0  0  0  0  0  0  0  0  0  0  0
    8.2390   -0.4150    0.6930 O   0  0  0  0  0  0  0  0  0  0  0  0
    8.7120   -1.6630    0.2830 C   0  0  0  0  0  0  0  0  0  0  0  0
    8.5240   -2.8680    0.9500 C   0  0  0  0  0  0  0  0  0  0  0  0
    9.1290   -3.8340    0.2420 N   0  0  0  0  0  0  0  0  0  0  0  0
    9.6690   -3.3050   -0.8040 O   0  0  0  0  0  0  0  0  0  0  0  0
    9.4510   -1.9940   -0.8330 C   0  0  0  0  0  0  0  0  0  0  0  0
    5.8920   -0.1300    1.0840 N   0  0  0  0  0  0  0  0  0  0  0  0
    4.6670    0.2880    0.7370 C   0  0  0  0  0  0  0  0  0  0  0  0
   -3.6980    0.2670   -0.7160 C   0  0  0  0  0  0  0  0  0  0  0  0
  1  2  2  0
  2  3  1  0
  2  4  1  0
  4  5  1  0
  5  6  2  3
  6  7  1  0
  7  8  2  0
  7  9  2  0
  7 10  1  6
 10 11  1  0
 10 34  1  0
 11 12  1  0
 12 13  1  0
 13 14  1  0
 14 15  1  6
 14 34  1  0
 15 16  2  0
 15 17  1  0
 17 18  1  0
 18 19  1  0
 19 20  2  0
 19 21  1  0
 21 22  1  0
 22 23  2  0
 22 33  1  0
 23 24  1  0
 24 25  2  0
 25 26  1  0
 25 32  1  0
 26 27  1  0
 27 28  1  0
 27 31  2  0
 28 29  2  0
 29 30  1  0
 30 31  1  0
 32 33  2  0
M  CHG  2   3  -1  29   1
M  END
