
     RDKit          3D

 14 14  0  0  0  0  0  0  0  0999 V2000
   -1.2260   -0.8230   -1.7320 C   0  0  0  0  0  0  0  0  0  0  0  0
   -0.9560   -0.1970   -0.3640 C   0  0  2  0  0  0  0  0  0  0  0  0
    0.3700   -0.6720    0.1850 C   0  0  1  0  0  0  0  0  0  0  0  0
    0.4140   -2.1080    0.3650 N   0  0  0  0  0  0  0  0  0  0  0  0
    1.4280   -0.3230   -0.6340 O   0  0  0  0  0  0  0  0  0  0  0  0
    2.3080    0.4880    0.0450 C   0  0  2  0  0  0  0  0  0  0  0  0
    2.3570    1.7170   -0.6370 O   0  0  0  0  0  0  0  0  0  0  0  0
    3.7040   -0.1310    0.0540 C   0  0  0  0  0  0  0  0  0  0  0  0
    4.5760    0.7010    0.7420 O   0  0  0  0  0  0  0  0  0  0  0  0
   -2.0800   -0.6060    0.5480 C   0  0  0  0  0  0  0  0  0  0  0  0
   -3.3550    0.1260    0.2280 C   0  0  0  0  0  0  0  0  0  0  0  0
   -3.1100    1.3870   -0.3270 O   0  0  0  0  0  0  0  0  0  0  0  0
   -1.8940    1.8450    0.1800 C   0  0  0  0  0  0  0  0  0  0  0  0
   -0.8660    1.1910   -0.4880 O   0  0  0  0  0  0  0  0  0  0  0  0
  2  1  1  6
  2  3  1  0
  2 10  1  0
  2 14  1  0
  3  4  1  6
  3  5  1  0
  5  6  1  0
  6  7  1  6
  6  8  1  0
  8  9  1  0
 10 11  1  0
 11 12  1  0
 12 13  1  0
 13 14  1  0
M  END
