
     RDKit          3D

 14 14  0  0  0  0  0  0  0  0999 V2000
   -2.4550   -2.3480    0.4010 N   0  0  0  0  0  0  0  0  0  0  0  0
   -1.2380   -1.8620    1.0340 C   0  0  2  0  0  0  0  0  0  0  0  0
   -1.5930   -1.4670    2.3300 O   0  0  0  0  0  0  0  0  0  0  0  0
   -0.7370   -0.7130    0.2040 C   0  0  1  0  0  0  0  0  0  0  0  0
   -1.8450    0.3120    0.1750 C   0  0  0  0  0  0  0  0  0  0  0  0
   -1.5360    1.5420   -0.6090 C   0  0  2  0  0  0  0  0  0  0  0  0
   -2.6870    2.3620   -0.5150 O   0  0  0  0  0  0  0  0  0  0  0  0
   -1.2920    1.2290   -1.9210 O   0  0  0  0  0  0  0  0  0  0  0  0
    0.3940   -0.1180    0.6280 O   0  0  0  0  0  0  0  0  0  0  0  0
    1.4690   -0.0780   -0.1800 C   0  0  1  0  0  0  0  0  0  0  0  0
    2.0200    1.3120   -0.4300 C   0  0  0  0  0  0  0  0  0  0  0  0
    3.4300    0.9410   -0.8630 C   0  0  0  0  0  0  0  0  0  0  0  0
    3.7180   -0.2840   -0.3240 O   0  0  0  0  0  0  0  0  0  0  0  0
    2.7110   -0.6510    0.5290 C   0  0  0  0  0  0  0  0  0  0  0  0
  2  1  1  6
  2  3  1  0
  2  4  1  0
  4  5  1  1
  4  9  1  0
  5  6  1  0
  6  7  1  6
  6  8  1  0
 10  9  1  1
 10 11  1  0
 10 14  1  0
 11 12  1  0
 12 13  1  0
 13 14  1  0
M  END
