
     RDKit          3D

 15 15  0  0  0  0  0  0  0  0999 V2000
   -4.2530    1.4140    0.7140 C   0  0  0  0  0  0  0  0  0  0  0  0
   -3.1640    0.5850    0.1830 C   0  0  0  0  0  0  0  0  0  0  0  0
   -3.4570   -0.3330   -0.6340 O   0  0  0  0  0  0  0  0  0  0  0  0
   -1.7990    0.7520    0.5320 N   0  0  0  0  0  0  0  0  0  0  0  0
   -0.7750   -0.1100   -0.0380 C   0  0  1  0  0  0  0  0  0  0  0  0
    0.2010    0.6950   -0.8660 C   0  0  2  0  0  0  0  0  0  0  0  0
    0.7910   -0.0630   -1.8640 O   0  0  0  0  0  0  0  0  0  0  0  0
    1.0960    1.3080   -0.0210 O   0  0  0  0  0  0  0  0  0  0  0  0
    1.9810    0.4280    0.5790 C   0  0  2  0  0  0  0  0  0  0  0  0
    3.2520    0.3930   -0.2340 C   0  0  0  0  0  0  0  0  0  0  0  0
    4.1960   -0.4750    0.3090 O   0  0  0  0  0  0  0  0  0  0  0  0
    1.4200   -0.9260    0.8450 C   0  0  2  0  0  0  0  0  0  0  0  0
    1.6960   -1.8490   -0.1500 O   0  0  0  0  0  0  0  0  0  0  0  0
   -0.0970   -0.8800    1.0610 C   0  0  2  0  0  0  0  0  0  0  0  0
   -0.5500   -2.1940    1.1090 O   0  0  0  0  0  0  0  0  0  0  0  0
  1  2  1  0
  2  3  2  0
  2  4  1  0
  5  4  1  1
  5  6  1  0
  5 14  1  0
  6  7  1  6
  6  8  1  0
  8  9  1  0
  9 10  1  6
  9 12  1  0
 10 11  1  0
 12 13  1  6
 12 14  1  0
 14 15  1  6
M  END
