
     RDKit          3D

 15 15  0  0  0  0  0  0  0  0999 V2000
   -4.7380    1.3360    0.2030 N   0  0  0  0  0  0  0  0  0  0  0  0
   -3.4750    1.8180    0.3470 O   0  0  0  0  0  0  0  0  0  0  0  0
   -2.5850    0.9900    0.9460 C   0  0  0  0  0  0  0  0  0  0  0  0
   -2.2910   -0.2070    0.0240 C   0  0  2  0  0  0  0  0  0  0  0  0
   -2.9460   -1.3050    0.5290 O   0  0  0  0  0  0  0  0  0  0  0  0
   -0.9420   -0.2840   -0.4820 C   0  0  2  0  0  0  0  0  0  0  0  0
   -0.8570   -1.2810   -1.4600 O   0  0  0  0  0  0  0  0  0  0  0  0
    0.1480   -0.3900    0.5700 C   0  0  1  0  0  0  0  0  0  0  0  0
    0.0890   -1.6880    1.0860 O   0  0  0  0  0  0  0  0  0  0  0  0
    1.4780   -0.0810   -0.0790 C   0  0  2  0  0  0  0  0  0  0  0  0
    2.5060   -1.1040    0.0720 C   0  0  0  0  0  0  0  0  0  0  0  0
    3.6980   -0.7100    0.6190 O   0  0  0  0  0  0  0  0  0  0  0  0
    4.0850    0.5690    0.2260 C   0  0  0  0  0  0  0  0  0  0  0  0
    3.0980    1.3990   -0.4640 C   0  0  0  0  0  0  0  0  0  0  0  0
    1.8340    1.2810    0.0890 O   0  0  0  0  0  0  0  0  0  0  0  0
  1  2  1  0
  2  3  1  0
  3  4  1  0
  4  5  1  1
  4  6  1  0
  6  7  1  6
  6  8  1  0
  8  9  1  6
  8 10  1  0
 10 11  1  1
 10 15  1  0
 11 12  1  0
 12 13  1  0
 13 14  1  0
 14 15  1  0
M  END
