
     RDKit          3D

 14 14  0  0  0  0  0  0  0  0999 V2000
   -1.4730   -1.7370   -0.9500 N   0  0  0  0  0  0  0  0  0  0  0  0
   -1.3080   -1.2310    0.3360 C   0  0  0  0  0  0  0  0  0  0  0  0
   -0.4340    0.0480    0.3380 C   0  0  2  0  0  0  0  0  0  0  0  0
   -0.3680    0.4260    1.7500 C   0  0  0  0  0  0  0  0  0  0  0  0
    0.6460    0.5350    2.4330 O   0  0  0  0  0  0  0  0  0  0  0  0
   -1.5730    0.7040    2.4340 O   0  0  0  0  0  0  0  0  0  0  0  0
   -1.2850    1.0650   -0.4020 C   0  0  0  0  0  0  0  0  0  0  0  0
   -0.5250    2.1350   -1.0860 C   0  0  0  0  0  0  0  0  0  0  0  0
    0.8430    2.1260   -0.8450 O   0  0  0  0  0  0  0  0  0  0  0  0
    1.3050    0.8790   -1.2660 C   0  0  0  0  0  0  0  0  0  0  0  0
    0.8730   -0.1970   -0.2910 C   0  0  2  0  0  0  0  0  0  0  0  0
    0.8460   -1.3890   -1.0870 O   0  0  0  0  0  0  0  0  0  0  0  0
    2.0320   -0.4230    0.6390 C   0  0  0  0  0  0  0  0  0  0  0  0
    1.8590   -1.5320    1.4680 O   0  0  0  0  0  0  0  0  0  0  0  0
  1  2  1  0
  3  2  1  1
  3  4  1  0
  3  7  1  0
  3 11  1  0
  4  5  2  0
  4  6  1  0
  7  8  1  0
  8  9  1  0
  9 10  1  0
 10 11  1  0
 11 12  1  6
 11 13  1  0
 13 14  1  0
M  END
