
     RDKit          3D

 14 14  0  0  0  0  0  0  0  0999 V2000
    3.8440   -1.1950   -0.4300 C   0  0  0  0  0  0  0  0  0  0  0  0
    3.0250   -0.2080   -1.0180 O   0  0  0  0  0  0  0  0  0  0  0  0
    1.6520   -0.1920   -0.9400 C   0  0  0  0  0  0  0  0  0  0  0  0
    1.0840    0.6390   -0.0850 C   0  0  0  0  0  0  0  0  0  0  0  0
    1.9180    1.4690    0.7060 N   0  0  0  0  0  0  0  0  0  0  0  0
   -0.4180    0.6900    0.0330 C   0  0  1  0  0  0  0  0  0  0  0  0
   -0.8610    1.7240   -0.7960 O   0  0  0  0  0  0  0  0  0  0  0  0
   -1.0530   -0.6010   -0.3430 C   0  0  2  0  0  0  0  0  0  0  0  0
   -1.5890   -1.1740    0.8600 O   0  0  0  0  0  0  0  0  0  0  0  0
   -2.5460   -0.5180    1.6070 C   0  0  0  0  0  0  0  0  0  0  0  0
   -3.7550   -0.2420    1.1600 C   0  0  0  0  0  0  0  0  0  0  0  0
   -4.6760    0.4120    1.9320 O   0  0  0  0  0  0  0  0  0  0  0  0
   -0.2520   -1.5400   -0.9160 O   0  0  0  0  0  0  0  0  0  0  0  0
    0.7410   -1.0430   -1.7480 C   0  0  0  0  0  0  0  0  0  0  0  0
  1  2  1  0
  2  3  1  0
  3  4  2  0
  3 14  1  0
  4  5  1  0
  4  6  1  0
  6  7  1  6
  6  8  1  0
  8  9  1  1
  8 13  1  0
  9 10  1  0
 10 11  2  3
 11 12  1  0
 13 14  1  0
M  END
