
     RDKit          3D

 15 15  0  0  0  0  0  0  0  0999 V2000
   -3.1600    1.6280   -0.1050 N   0  0  0  0  0  0  0  0  0  0  0  0
   -3.0870    0.1940   -0.2360 C   0  0  1  0  0  0  0  0  0  0  0  0
   -3.0070   -0.2770   -1.6200 C   0  0  0  0  0  0  0  0  0  0  0  0
   -3.5750    0.2170   -2.6200 O   0  0  0  0  0  0  0  0  0  0  0  0
   -2.1790   -1.3880   -1.6400 O   0  0  0  0  0  0  0  0  0  0  0  0
   -1.8120   -1.7310   -0.3030 C   0  0  0  0  0  0  0  0  0  0  0  0
   -1.7990   -0.3660    0.3560 C   0  0  2  0  0  0  0  0  0  0  0  0
   -1.8340   -0.4310    1.7270 O   0  0  0  0  0  0  0  0  0  0  0  0
   -0.5950    0.3790   -0.1200 C   0  0  0  0  0  0  0  0  0  0  0  0
    0.6650   -0.1720    0.4790 C   0  0  0  0  0  0  0  0  0  0  0  0
    1.7940    0.5490    0.0220 O   0  0  0  0  0  0  0  0  0  0  0  0
    2.9350    0.0220    0.5880 C   0  0  2  0  0  0  0  0  0  0  0  0
    3.5650    0.9870    1.3930 O   0  0  0  0  0  0  0  0  0  0  0  0
    3.9520   -0.4320   -0.4290 C   0  0  0  0  0  0  0  0  0  0  0  0
    4.3320    0.6530   -1.2100 O   0  0  0  0  0  0  0  0  0  0  0  0
  2  1  1  6
  2  3  1  0
  2  7  1  0
  3  4  2  0
  3  5  1  0
  5  6  1  0
  6  7  1  0
  7  8  1  1
  7  9  1  0
  9 10  1  0
 10 11  1  0
 11 12  1  0
 12 13  1  1
 12 14  1  0
 14 15  1  0
M  END
