
     RDKit          3D

 15 15  0  0  0  0  0  0  0  0999 V2000
   -1.7870    0.3690    1.5060 C   0  0  0  0  0  0  0  0  0  0  0  0
   -1.3240   -0.3910    0.2880 C   0  0  2  0  0  0  0  0  0  0  0  0
   -2.3870   -1.4180    0.0260 C   0  0  0  0  0  0  0  0  0  0  0  0
   -3.7410   -1.0610   -0.1860 N   0  0  0  0  0  0  0  0  0  0  0  0
   -2.1190   -2.6460   -0.0160 O   0  0  0  0  0  0  0  0  0  0  0  0
   -0.1580   -1.0550    0.4450 O   0  0  0  0  0  0  0  0  0  0  0  0
    1.0090   -0.3460    0.3980 C   0  0  1  0  0  0  0  0  0  0  0  0
    2.0650   -1.3420   -0.0330 C   0  0  0  0  0  0  0  0  0  0  0  0
    3.3290   -0.8010   -0.1380 O   0  0  0  0  0  0  0  0  0  0  0  0
    1.0050    0.9270   -0.3380 C   0  0  1  0  0  0  0  0  0  0  0  0
    2.3150    1.3770   -0.8970 C   0  0  0  0  0  0  0  0  0  0  0  0
    2.1080    2.6820   -1.4170 O   0  0  0  0  0  0  0  0  0  0  0  0
   -0.0120    0.8930   -1.3340 O   0  0  0  0  0  0  0  0  0  0  0  0
   -1.2580    0.4480   -0.9210 C   0  0  0  0  0  0  0  0  0  0  0  0
   -2.2440    0.7960   -1.6160 O   0  0  0  0  0  0  0  0  0  0  0  0
  2  1  1  1
  2  3  1  0
  2  6  1  0
  2 14  1  0
  3  4  1  0
  3  5  2  0
  6  7  1  0
  7  8  1  6
  7 10  1  0
  8  9  1  0
 10 11  1  6
 10 13  1  0
 11 12  1  0
 13 14  1  0
 14 15  2  0
M  END
