
     RDKit          3D

 15 15  0  0  0  0  0  0  0  0999 V2000
    3.8040    1.3700    1.1790 N   0  0  0  0  0  0  0  0  0  0  0  0
    3.0830    0.8370    0.1890 O   0  0  0  0  0  0  0  0  0  0  0  0
    2.8470   -0.4910    0.4670 C   0  0  0  0  0  0  0  0  0  0  0  0
    2.0490   -1.1530   -0.5940 C   0  0  1  0  0  0  0  0  0  0  0  0
    1.8390   -2.5160   -0.3300 O   0  0  0  0  0  0  0  0  0  0  0  0
    0.6810   -0.4640   -0.7480 C   0  0  2  0  0  0  0  0  0  0  0  0
    0.9250    0.8990   -1.0010 O   0  0  0  0  0  0  0  0  0  0  0  0
   -0.1420   -0.5770    0.4800 C   0  0  0  0  0  0  0  0  0  0  0  0
   -1.4900    0.0290    0.3500 C   0  0  1  0  0  0  0  0  0  0  0  0
   -1.5780    1.4770    0.0280 C   0  0  0  0  0  0  0  0  0  0  0  0
   -2.9590    1.7940   -0.0450 O   0  0  0  0  0  0  0  0  0  0  0  0
   -2.4050   -0.7980   -0.5580 C   0  0  0  0  0  0  0  0  0  0  0  0
   -3.6560   -0.3010   -0.1250 O   0  0  0  0  0  0  0  0  0  0  0  0
   -3.5410   -0.1830    1.2510 C   0  0  0  0  0  0  0  0  0  0  0  0
   -2.2100   -0.1230    1.5800 O   0  0  0  0  0  0  0  0  0  0  0  0
  1  2  1  0
  2  3  1  0
  3  4  1  0
  4  5  1  1
  4  6  1  0
  6  7  1  1
  6  8  1  0
  9  8  1  1
  9 10  1  0
  9 12  1  0
  9 15  1  0
 10 11  1  0
 12 13  1  0
 13 14  1  0
 14 15  1  0
M  END
