
     RDKit          3D

 24 26  0  0  0  0  0  0  0  0999 V2000
    1.4070   -2.6970   -0.8660 C   0  0  0  0  0  0  0  0  0  0  0  0
    2.4710   -1.7010   -0.5760 C   0  0  0  0  0  0  0  0  0  0  0  0
    3.7370   -2.1400   -0.3430 N   0  0  0  0  0  0  0  0  0  0  0  0
    4.7420   -1.2760   -0.0740 C   0  0  0  0  0  0  0  0  0  0  0  0
    4.4970    0.0820   -0.0290 C   0  0  0  0  0  0  0  0  0  0  0  0
    3.2470    0.4970   -0.2600 N   0  0  0  0  0  0  0  0  0  0  0  0
    2.2300   -0.3430   -0.5310 C   0  0  0  0  0  0  0  0  0  0  0  0
    0.8780    0.1970   -0.7690 C   0  0  0  0  0  0  0  0  0  0  0  0
   -0.0330    0.0060    0.4240 C   0  0  0  0  0  0  0  0  0  0  0  0
   -1.3870    0.5530    0.1480 C   0  0  0  0  0  0  0  0  0  0  0  0
   -2.4380   -0.2240    0.1700 C   0  0  0  0  0  0  0  0  0  0  0  0
   -2.4490   -1.6500    0.4540 C   0  0  0  0  0  0  0  0  0  0  0  0
   -3.5910   -2.3260    0.4460 C   0  0  0  0  0  0  0  0  0  0  0  0
   -3.6530   -3.7060    0.7140 N   0  0  0  0  0  0  0  0  0  0  0  0
   -1.5170    2.2590   -0.2670 S   0  0  0  0  0  0  0  0  0  0  0  0
   -3.1040    3.0000   -0.0370 C   0  0  0  0  0  0  0  0  0  0  0  0
   -4.0780    2.5950    0.7110 C   0  0  0  0  0  0  0  0  0  0  0  0
   -5.2230    3.5620    0.5760 C   0  0  0  0  0  0  0  0  0  0  0  0
   -4.7100    4.5800   -0.3440 C   0  0  0  0  0  0  0  0  0  0  0  0
   -3.4940    4.2660   -0.7070 C   0  0  0  0  0  0  0  0  0  0  0  0
    5.5050    0.9250    0.2450 C   0  0  0  0  0  0  0  0  0  0  0  0
    6.8790    0.4740    0.5050 C   0  0  0  0  0  0  0  0  0  0  0  0
    7.0130   -0.9280    0.4240 O   0  0  0  0  0  0  0  0  0  0  0  0
    5.9540   -1.7710    0.1440 C   0  0  0  0  0  0  0  0  0  0  0  0
  1  2  1  0
  2  3  2  0
  2  7  1  0
  3  4  1  0
  4  5  1  0
  4 24  2  0
  5  6  1  0
  5 21  2  0
  6  7  2  0
  7  8  1  0
  8  9  1  0
  9 10  1  0
 10 11  2  3
 10 15  1  0
 11 12  1  0
 12 13  2  3
 13 14  1  0
 15 16  1  0
 16 17  2  0
 16 20  1  0
 17 18  1  0
 18 19  1  0
 19 20  2  0
 21 22  1  0
 22 23  1  0
 23 24  1  0
M  CHG  1  14   1
M  END
