
     RDKit          3D

 24 27  0  0  0  0  0  0  0  0999 V2000
   -6.0280    2.9450    0.2660 C   0  0  0  0  0  0  0  0  0  0  0  0
   -5.3620    1.6260    0.3040 C   0  0  0  0  0  0  0  0  0  0  0  0
   -6.0940    0.4690    0.4410 C   0  0  0  0  0  0  0  0  0  0  0  0
   -5.4870   -0.7630    0.4780 C   0  0  0  0  0  0  0  0  0  0  0  0
   -6.3330   -1.9620    0.6270 C   0  0  0  0  0  0  0  0  0  0  0  0
   -4.1210   -0.8220    0.3740 C   0  0  0  0  0  0  0  0  0  0  0  0
   -3.3450    0.3080    0.2360 C   0  0  0  0  0  0  0  0  0  0  0  0
   -1.8490    0.2020    0.1250 C   0  0  0  0  0  0  0  0  0  0  0  0
   -1.1140    1.3720   -0.0130 C   0  0  0  0  0  0  0  0  0  0  0  0
    0.5920    0.6900   -0.1010 S   0  0  0  0  0  0  0  0  0  0  0  0
    0.0210   -1.0530    0.0640 C   0  0  0  0  0  0  0  0  0  0  0  0
    1.0390   -2.1230    0.0570 C   0  0  0  0  0  0  0  0  0  0  0  0
    2.3870   -1.6310   -0.0840 N   0  0  0  0  0  0  0  0  0  0  0  0
    3.2890   -1.2560    0.9530 C   0  0  0  0  0  0  0  0  0  0  0  0
    4.4320   -0.8560    0.4580 C   0  0  0  0  0  0  0  0  0  0  0  0
    5.6760   -0.3690    1.0870 C   0  0  0  0  0  0  0  0  0  0  0  0
    5.9500    0.9900    0.4740 C   0  0  0  0  0  0  0  0  0  0  0  0
    5.7800    1.0500   -1.0030 C   0  0  0  0  0  0  0  0  0  0  0  0
    4.5800    0.4110   -1.5090 N   0  0  0  0  0  0  0  0  0  0  0  0
    4.4390   -0.9380   -1.0230 C   0  0  2  0  0  0  0  0  0  0  0  0
    3.0730   -1.4270   -1.3130 C   0  0  0  0  0  0  0  0  0  0  0  0
    2.5460   -1.6460   -2.4460 O   0  0  0  0  0  0  0  0  0  0  0  0
   -1.1620   -0.9000    0.1460 N   0  0  0  0  0  0  0  0  0  0  0  0
   -3.9900    1.5020    0.2040 C   0  0  0  0  0  0  0  0  0  0  0  0
  1  2  1  0
  2  3  2  0
  2 24  1  0
  3  4  1  0
  4  5  1  0
  4  6  2  0
  6  7  1  0
  7  8  1  0
  7 24  2  0
  8  9  2  0
  8 23  1  0
  9 10  1  0
 10 11  1  0
 11 12  1  0
 11 23  2  0
 12 13  1  0
 13 14  1  0
 13 21  1  0
 14 15  2  0
 15 16  1  0
 15 20  1  0
 16 17  1  0
 17 18  1  0
 18 19  1  0
 20 19  1  6
 20 21  1  0
 21 22  2  0
M  CHG  1  19   1
M  END
