
     RDKit          3D

 24 26  0  0  0  0  0  0  0  0999 V2000
    6.5410   -0.9170   -1.8630 C   0  0  0  0  0  0  0  0  0  0  0  0
    7.1660    0.0320   -0.8730 C   0  0  2  0  0  0  0  0  0  0  0  0
    8.6740   -0.1140   -0.8990 C   0  0  0  0  0  0  0  0  0  0  0  0
    6.5170   -0.3430    0.7680 S   0  0  0  0  0  0  0  0  0  0  0  0
    4.7710    0.0420    0.7820 C   0  0  0  0  0  0  0  0  0  0  0  0
    4.2460    1.2040    1.1050 N   0  0  0  0  0  0  0  0  0  0  0  0
    2.8970    1.0890    0.9910 C   0  0  0  0  0  0  0  0  0  0  0  0
    2.5640   -0.1690    0.5890 C   0  0  0  0  0  0  0  0  0  0  0  0
    1.3160   -0.8460    0.3120 C   0  0  0  0  0  0  0  0  0  0  0  0
    0.0820   -0.4770    0.3570 C   0  0  0  0  0  0  0  0  0  0  0  0
   -0.4390    0.7960    0.7200 C   0  0  0  0  0  0  0  0  0  0  0  0
   -1.7040    1.1610    0.7630 C   0  0  0  0  0  0  0  0  0  0  0  0
   -1.9860    2.5610    1.1790 C   0  0  0  0  0  0  0  0  0  0  0  0
   -3.2330    2.9420    1.2270 C   0  0  0  0  0  0  0  0  0  0  0  0
   -4.4170    2.1710    0.9240 C   0  0  0  0  0  0  0  0  0  0  0  0
   -4.2090    0.8130    0.5190 N   0  0  0  0  0  0  0  0  0  0  0  0
   -5.3470    0.0020    0.2110 C   0  0  2  0  0  0  0  0  0  0  0  0
   -5.5470   -1.2170    0.9630 C   0  0  0  0  0  0  0  0  0  0  0  0
   -5.3710   -2.4000    0.1100 C   0  0  0  0  0  0  0  0  0  0  0  0
   -5.6380   -1.8780   -1.2820 C   0  0  0  0  0  0  0  0  0  0  0  0
   -5.2500   -0.4210   -1.2280 C   0  0  0  0  0  0  0  0  0  0  0  0
   -2.8480    0.3390    0.4470 C   0  0  0  0  0  0  0  0  0  0  0  0
   -2.6930   -0.8320    0.0940 O   0  0  0  0  0  0  0  0  0  0  0  0
    3.7910   -0.7980    0.4690 N   0  0  0  0  0  0  0  0  0  0  0  0
  2  1  1  6
  2  3  1  0
  2  4  1  0
  4  5  1  0
  5  6  1  0
  5 24  2  0
  6  7  1  0
  7  8  2  0
  8  9  1  0
  8 24  1  0
  9 10  2  3
 10 11  1  0
 11 12  2  3
 12 13  1  0
 12 22  1  0
 13 14  2  0
 14 15  1  0
 15 16  1  0
 17 16  1  1
 16 22  1  0
 17 18  1  0
 17 21  1  0
 18 19  1  0
 19 20  1  0
 20 21  1  0
 22 23  2  0
M  CHG  1  24   1
M  END
