
     RDKit          3D

 24 26  0  0  0  0  0  0  0  0999 V2000
    5.6310    1.1340   -1.9530 C   0  0  0  0  0  0  0  0  0  0  0  0
    4.6090    2.1710   -1.7040 C   0  0  0  0  0  0  0  0  0  0  0  0
    3.6650    1.9560   -0.8200 C   0  0  0  0  0  0  0  0  0  0  0  0
    3.6320    0.7000   -0.0930 C   0  0  0  0  0  0  0  0  0  0  0  0
    2.6600    0.5140    0.7980 C   0  0  0  0  0  0  0  0  0  0  0  0
    1.5900    1.4740    1.1290 C   0  0  0  0  0  0  0  0  0  0  0  0
    0.6540    0.7240    2.0100 C   0  0  0  0  0  0  0  0  0  0  0  0
    0.9140   -0.6700    1.7910 N   0  0  0  0  0  0  0  0  0  0  0  0
    0.1880   -1.8130    1.6880 C   0  0  0  0  0  0  0  0  0  0  0  0
    1.0390   -2.8620    1.8460 O   0  0  0  0  0  0  0  0  0  0  0  0
   -1.1350   -2.2900    1.5000 C   0  0  0  0  0  0  0  0  0  0  0  0
   -1.3860   -3.5810    1.9110 C   0  0  0  0  0  0  0  0  0  0  0  0
   -2.6510   -4.2580    1.8150 C   0  0  0  0  0  0  0  0  0  0  0  0
   -3.6910   -3.6710    1.3000 C   0  0  0  0  0  0  0  0  0  0  0  0
   -3.5290   -2.3540    0.8340 N   0  0  0  0  0  0  0  0  0  0  0  0
   -2.2680   -1.6230    0.9030 C   0  0  0  0  0  0  0  0  0  0  0  0
   -2.1670   -0.5620    0.1020 C   0  0  0  0  0  0  0  0  0  0  0  0
   -1.1210    0.2780   -0.4720 C   0  0  0  0  0  0  0  0  0  0  0  0
   -1.6750    0.4910   -1.9330 C   0  0  0  0  0  0  0  0  0  0  0  0
   -2.9980    0.9000   -1.5890 N   0  0  0  0  0  0  0  0  0  0  0  0
   -3.1770    2.2720   -1.2590 C   0  0  0  0  0  0  0  0  0  0  0  0
   -2.7060    3.3830   -2.6120 S   0  0  0  0  0  0  0  0  0  0  0  0
   -3.4140    0.0630   -0.5050 C   0  0  0  0  0  0  0  0  0  0  0  0
    2.4300   -0.6780    1.6500 C   0  0  0  0  0  0  0  0  0  0  0  0
  1  2  1  0
  2  3  2  3
  3  4  1  0
  4  5  2  3
  5  6  1  0
  5 24  1  0
  6  7  1  0
  7  8  1  0
  8  9  1  0
  8 24  1  0
  9 10  2  0
  9 11  1  0
 11 12  2  0
 11 16  1  0
 12 13  1  0
 13 14  2  0
 14 15  1  0
 15 16  1  0
 16 17  2  3
 17 18  1  0
 17 23  1  0
 18 19  1  0
 19 20  1  0
 20 21  1  0
 20 23  1  0
 21 22  1  0
M  END
