
     RDKit          3D

 24 26  0  0  0  0  0  0  0  0999 V2000
   -5.7950    2.5720   -0.0510 C   0  0  0  0  0  0  0  0  0  0  0  0
   -4.3900    2.3190    0.2400 C   0  0  0  0  0  0  0  0  0  0  0  0
   -3.8980    0.9380    0.2240 N   0  0  0  0  0  0  0  0  0  0  0  0
   -2.4570    0.8270    0.2750 C   0  0  0  0  0  0  0  0  0  0  0  0
   -1.9020   -0.5280    0.1290 C   0  0  0  0  0  0  0  0  0  0  0  0
   -0.4520   -0.5530    0.0850 N   0  0  0  0  0  0  0  0  0  0  0  0
    0.3360   -1.6890   -0.1050 C   0  0  0  0  0  0  0  0  0  0  0  0
   -0.1960   -2.8140   -0.2600 O   0  0  0  0  0  0  0  0  0  0  0  0
    1.8190   -1.6330   -0.1360 C   0  0  0  0  0  0  0  0  0  0  0  0
    2.5150   -0.5490    0.0060 C   0  0  0  0  0  0  0  0  0  0  0  0
    3.9650   -0.5280   -0.0290 C   0  0  0  0  0  0  0  0  0  0  0  0
    4.6450    0.6910    0.1250 C   0  0  0  0  0  0  0  0  0  0  0  0
    6.0010    0.7460    0.0990 C   0  0  0  0  0  0  0  0  0  0  0  0
    6.7700    2.3530    0.3040 S   0  0  0  0  0  0  0  0  0  0  0  0
    8.5590    2.1260    0.2280 C   0  0  0  0  0  0  0  0  0  0  0  0
    6.7380   -0.3930   -0.0780 C   0  0  0  0  0  0  0  0  0  0  0  0
    6.0740   -1.5750   -0.2270 C   0  0  0  0  0  0  0  0  0  0  0  0
    4.7070   -1.6320   -0.2020 N   0  0  0  0  0  0  0  0  0  0  0  0
   -2.6580   -1.5810    0.0320 C   0  0  0  0  0  0  0  0  0  0  0  0
   -4.1140   -1.5020    0.0470 C   0  0  0  0  0  0  0  0  0  0  0  0
   -5.0240   -2.4770   -0.0010 C   0  0  0  0  0  0  0  0  0  0  0  0
   -6.3360   -1.8530    0.0510 C   0  0  0  0  0  0  0  0  0  0  0  0
   -6.0450   -0.3920    0.1970 C   0  0  0  0  0  0  0  0  0  0  0  0
   -4.7350   -0.1970    0.1510 C   0  0  0  0  0  0  0  0  0  0  0  0
  1  2  1  0
  2  3  1  0
  3  4  1  0
  3 24  1  0
  4  5  1  0
  5  6  1  0
  5 19  2  0
  6  7  1  0
  7  8  2  0
  7  9  1  0
  9 10  2  3
 10 11  1  0
 11 12  2  0
 11 18  1  0
 12 13  1  0
 13 14  1  0
 13 16  2  0
 14 15  1  0
 16 17  1  0
 17 18  2  0
 19 20  1  0
 20 21  2  0
 20 24  1  0
 21 22  1  0
 22 23  1  0
 23 24  2  0
M  CHG  1  18   1
M  END
