
     RDKit          3D

 10 10  0  0  0  0  0  0  0  0999 V2000
    2.9220   -0.2840    1.0130 O   0  0  0  0  0  0  0  0  0  0  0  0
    2.2560    0.2110   -0.0840 C   0  0  0  0  0  0  0  0  0  0  0  0
    0.7660    0.4000    0.2090 C   0  0  1  0  0  0  0  0  0  0  0  0
    0.0550    0.9390   -0.9920 C   0  0  0  0  0  0  0  0  0  0  0  0
   -1.2470    1.4100   -0.5850 N   0  0  0  0  0  0  0  0  0  0  0  0
   -1.7630    0.6800    0.5590 C   0  0  0  0  0  0  0  0  0  0  0  0
   -1.3640   -0.7750    0.4290 C   0  0  1  0  0  0  0  0  0  0  0  0
   -1.6720   -1.1800   -0.8640 O   0  0  0  0  0  0  0  0  0  0  0  0
    0.1370   -0.8860    0.6450 C   0  0  1  0  0  0  0  0  0  0  0  0
    0.6560   -1.9700   -0.0860 O   0  0  0  0  0  0  0  0  0  0  0  0
  1  2  1  0
  3  2  1  6
  3  4  1  0
  3  9  1  0
  4  5  1  0
  5  6  1  0
  6  7  1  0
  7  8  1  6
  7  9  1  0
  9 10  1  6
M  CHG  1   5   1
M  END
