
     RDKit          3D

 10 10  0  0  0  0  0  0  0  0999 V2000
   -1.2630    0.1570    1.1910 N   0  0  0  0  0  0  0  0  0  0  0  0
   -0.6520    0.2250   -0.1220 C   0  0  1  0  0  0  0  0  0  0  0  0
   -1.6900    0.3060   -1.2160 C   0  0  0  0  0  0  0  0  0  0  0  0
   -2.4900   -0.8220   -1.1560 O   0  0  0  0  0  0  0  0  0  0  0  0
    0.2890    1.4250   -0.2020 C   0  0  0  0  0  0  0  0  0  0  0  0
    1.4350    1.1370   -0.9230 O   0  0  0  0  0  0  0  0  0  0  0  0
    2.2800    0.2470   -0.3150 C   0  0  0  0  0  0  0  0  0  0  0  0
    1.4650   -0.6680    0.5660 C   0  0  2  0  0  0  0  0  0  0  0  0
    2.1400   -1.8000    0.9590 O   0  0  0  0  0  0  0  0  0  0  0  0
    0.2220   -1.0050   -0.2700 C   0  0  0  0  0  0  0  0  0  0  0  0
  2  1  1  1
  2  3  1  0
  2  5  1  0
  2 10  1  0
  3  4  1  0
  5  6  1  0
  6  7  1  0
  7  8  1  0
  8  9  1  6
  8 10  1  0
M  CHG  1   1   1
M  END
