
     RDKit          3D

 10 10  0  0  0  0  0  0  0  0999 V2000
    2.5470   -0.2940    1.5910 O   0  0  0  0  0  0  0  0  0  0  0  0
    2.4080    0.0240    0.2550 C   0  0  2  0  0  0  0  0  0  0  0  0
    2.4040    1.3870    0.0020 O   0  0  0  0  0  0  0  0  0  0  0  0
    1.1950   -0.6090   -0.3680 C   0  0  0  0  0  0  0  0  0  0  0  0
   -0.0940   -0.2180    0.2610 C   0  0  1  0  0  0  0  0  0  0  0  0
   -0.4080    1.1730    0.2380 N   0  0  0  0  0  0  0  0  0  0  0  0
   -1.8350    1.2990   -0.0310 C   0  0  0  0  0  0  0  0  0  0  0  0
   -2.4080   -0.1020   -0.0080 C   0  0  0  0  0  0  0  0  0  0  0  0
   -1.2110   -0.8950   -0.5410 C   0  0  2  0  0  0  0  0  0  0  0  0
   -1.3070   -2.2350   -0.2700 O   0  0  0  0  0  0  0  0  0  0  0  0
  2  1  1  1
  2  3  1  0
  2  4  1  0
  5  4  1  6
  5  6  1  0
  5  9  1  0
  6  7  1  0
  7  8  1  0
  8  9  1  0
  9 10  1  1
M  CHG  1   6   1
M  END
