
     RDKit          3D

 10 10  0  0  0  0  0  0  0  0999 V2000
    2.4540   -0.0040    0.4050 N   0  0  0  0  0  0  0  0  0  0  0  0
    1.0540   -0.2130    0.2330 C   0  0  2  0  0  0  0  0  0  0  0  0
    0.7140   -1.5170   -0.4590 C   0  0  0  0  0  0  0  0  0  0  0  0
   -0.6290   -1.3720   -0.8820 O   0  0  0  0  0  0  0  0  0  0  0  0
   -1.4030   -1.2630    0.2370 C   0  0  0  0  0  0  0  0  0  0  0  0
   -1.5820    0.0900    0.7920 C   0  0  0  0  0  0  0  0  0  0  0  0
   -0.9180    1.2050    0.0800 C   0  0  2  0  0  0  0  0  0  0  0  0
   -1.8290    1.8070   -0.8190 O   0  0  0  0  0  0  0  0  0  0  0  0
    0.3760    0.8810   -0.5730 C   0  0  2  0  0  0  0  0  0  0  0  0
    0.0860    0.4260   -1.8800 O   0  0  0  0  0  0  0  0  0  0  0  0
  2  1  1  6
  2  3  1  0
  2  9  1  0
  3  4  1  0
  4  5  1  0
  5  6  1  0
  6  7  1  0
  7  8  1  6
  7  9  1  0
  9 10  1  6
M  CHG  1   1   1
M  END
