
     RDKit          3D

 10 10  0  0  0  0  0  0  0  0999 V2000
   -2.9870    0.0840   -0.8960 N   0  0  0  0  0  0  0  0  0  0  0  0
   -2.1870    0.4330    0.2630 C   0  0  0  0  0  0  0  0  0  0  0  0
   -0.8000   -0.1060    0.0740 C   0  0  2  0  0  0  0  0  0  0  0  0
    0.0550    0.1780    1.2780 C   0  0  0  0  0  0  0  0  0  0  0  0
    1.4870   -0.1750    1.0470 C   0  0  2  0  0  0  0  0  0  0  0  0
    2.3290    0.5500    1.9190 O   0  0  0  0  0  0  0  0  0  0  0  0
    1.9670    0.1370   -0.3510 C   0  0  1  0  0  0  0  0  0  0  0  0
    3.1650   -0.5060   -0.5900 O   0  0  0  0  0  0  0  0  0  0  0  0
    0.9230   -0.3260   -1.3340 C   0  0  0  0  0  0  0  0  0  0  0  0
   -0.2280    0.4550   -1.0840 O   0  0  0  0  0  0  0  0  0  0  0  0
  1  2  1  0
  3  2  1  1
  3  4  1  0
  3 10  1  0
  4  5  1  0
  5  6  1  1
  5  7  1  0
  7  8  1  6
  7  9  1  0
  9 10  1  0
M  CHG  1   1   1
M  END
