
     RDKit          3D

 10 10  0  0  0  0  0  0  0  0999 V2000
   -1.4930   -1.3940   -0.4100 N   0  0  0  0  0  0  0  0  0  0  0  0
   -0.8640   -0.0890   -0.4510 C   0  0  1  0  0  0  0  0  0  0  0  0
   -1.8280    0.9210    0.1050 C   0  0  0  0  0  0  0  0  0  0  0  0
   -2.1950    0.6590    1.4170 O   0  0  0  0  0  0  0  0  0  0  0  0
    0.4270   -0.1650    0.3070 C   0  0  2  0  0  0  0  0  0  0  0  0
    0.2140   -0.5270    1.6290 O   0  0  0  0  0  0  0  0  0  0  0  0
    1.2880    1.0530    0.1610 C   0  0  0  0  0  0  0  0  0  0  0  0
    2.4030    0.5660   -0.7420 C   0  0  0  0  0  0  0  0  0  0  0  0
    1.8310   -0.5090   -1.4210 O   0  0  0  0  0  0  0  0  0  0  0  0
    1.2840   -1.2330   -0.3390 C   0  0  0  0  0  0  0  0  0  0  0  0
  2  1  1  1
  2  3  1  0
  2  5  1  0
  3  4  1  0
  5  6  1  1
  5  7  1  0
  5 10  1  0
  7  8  1  0
  8  9  1  0
  9 10  1  0
M  CHG  1   1   1
M  END
