
     RDKit          3D

 10 10  0  0  0  0  0  0  0  0999 V2000
   -1.2100   -0.5510   -1.7600 C   0  0  0  0  0  0  0  0  0  0  0  0
   -0.5990   -0.1360   -0.4360 C   0  0  2  0  0  0  0  0  0  0  0  0
   -0.4780    1.3500   -0.2750 C   0  0  0  0  0  0  0  0  0  0  0  0
   -1.7680    1.8990   -0.3570 O   0  0  0  0  0  0  0  0  0  0  0  0
    0.5420   -0.9770   -0.0460 C   0  0  1  0  0  0  0  0  0  0  0  0
    1.5690   -0.4050    0.8890 C   0  0  0  0  0  0  0  0  0  0  0  0
    2.4260    0.4880    0.1080 N   0  0  0  0  0  0  0  0  0  0  0  0
   -0.3120   -1.8420    0.6200 O   0  0  0  0  0  0  0  0  0  0  0  0
   -1.2430   -0.8190    0.7170 C   0  0  1  0  0  0  0  0  0  0  0  0
   -1.1410   -0.0850    1.9090 O   0  0  0  0  0  0  0  0  0  0  0  0
  2  1  1  6
  2  3  1  0
  2  5  1  0
  2  9  1  0
  3  4  1  0
  5  6  1  1
  5  8  1  0
  6  7  1  0
  8  9  1  0
  9 10  1  1
M  CHG  1   7   1
M  END
