
     RDKit          3D

 10 10  0  0  0  0  0  0  0  0999 V2000
    3.1960    0.4120   -0.2020 N   0  0  0  0  0  0  0  0  0  0  0  0
    2.1820   -0.1560    0.3810 O   0  0  0  0  0  0  0  0  0  0  0  0
    0.9540   -0.1300   -0.0870 C   0  0  1  0  0  0  0  0  0  0  0  0
    0.5600   -1.5610   -0.4990 C   0  0  0  0  0  0  0  0  0  0  0  0
   -0.5110   -1.4540   -1.3700 O   0  0  0  0  0  0  0  0  0  0  0  0
   -1.6140   -0.9980   -0.6580 C   0  0  0  0  0  0  0  0  0  0  0  0
   -1.3780    0.4330   -0.1720 C   0  0  1  0  0  0  0  0  0  0  0  0
   -2.5500    0.9330    0.4670 N   0  0  0  0  0  0  0  0  0  0  0  0
   -0.1740    0.3660    0.7540 C   0  0  2  0  0  0  0  0  0  0  0  0
   -0.0010    1.6410    1.2570 O   0  0  0  0  0  0  0  0  0  0  0  0
  1  2  1  0
  3  2  1  1
  3  4  1  0
  3  9  1  0
  4  5  1  0
  5  6  1  0
  6  7  1  0
  7  8  1  1
  7  9  1  0
  9 10  1  6
M  CHG  2   1   1   8   1
M  END
