
     RDKit          3D

  9  9  0  0  0  0  0  0  0  0999 V2000
    3.5930    0.5840   -0.1340 N   0  0  0  0  0  0  0  0  0  0  0  0
    2.3160    0.7320    0.2490 O   0  0  0  0  0  0  0  0  0  0  0  0
    1.6170   -0.4150   -0.1540 C   0  0  0  0  0  0  0  0  0  0  0  0
    0.1580    0.0050   -0.2200 C   0  0  1  0  0  0  0  0  0  0  0  0
   -0.7740   -1.1610    0.0920 C   0  0  0  0  0  0  0  0  0  0  0  0
   -2.0420   -0.3670    0.3900 C   0  0  2  0  0  0  0  0  0  0  0  0
   -2.6180    0.1020   -0.8650 N   0  0  0  0  0  0  0  0  0  0  0  0
   -1.4560    0.8110    1.1190 C   0  0  0  0  0  0  0  0  0  0  0  0
   -0.1550    0.9850    0.7030 O   0  0  0  0  0  0  0  0  0  0  0  0
  1  2  1  0
  2  3  1  0
  4  3  1  1
  4  5  1  0
  4  9  1  0
  5  6  1  0
  6  7  1  6
  6  8  1  0
  8  9  1  0
M  CHG  2   1   1   7   1
M  END
