
     RDKit          3D

 10 10  0  0  0  0  0  0  0  0999 V2000
   -2.4700   -0.4990    1.3560 N   0  0  0  0  0  0  0  0  0  0  0  0
   -1.3920   -0.8750    0.6640 O   0  0  0  0  0  0  0  0  0  0  0  0
   -1.0840    0.0250   -0.3710 C   0  0  0  0  0  0  0  0  0  0  0  0
    0.1310   -0.4570   -1.1030 C   0  0  1  0  0  0  0  0  0  0  0  0
    0.4130    0.4490   -2.1220 O   0  0  0  0  0  0  0  0  0  0  0  0
    0.9550    1.5590   -1.4730 C   0  0  0  0  0  0  0  0  0  0  0  0
    1.7680    0.9970   -0.3670 C   0  0  0  0  0  0  0  0  0  0  0  0
    2.5760    1.5530    0.3340 O   0  0  0  0  0  0  0  0  0  0  0  0
    1.3820   -0.4240   -0.2890 C   0  0  1  0  0  0  0  0  0  0  0  0
    1.2600   -0.9270    1.0350 N   0  0  0  0  0  0  0  0  0  0  0  0
  1  2  1  0
  2  3  1  0
  4  3  1  1
  4  5  1  0
  4  9  1  0
  5  6  1  0
  6  7  1  0
  7  8  2  0
  7  9  1  0
  9 10  1  1
M  CHG  2   1   1  10   1
M  END
