
     RDKit          3D

  9  9  0  0  0  0  0  0  0  0999 V2000
    2.2000   -0.4020   -0.6540 N   0  0  0  0  0  0  0  0  0  0  0  0
    1.4960    0.6120    0.1020 C   0  0  0  0  0  0  0  0  0  0  0  0
    0.2430    0.0830    0.7450 C   0  0  1  0  0  0  0  0  0  0  0  0
   -0.3490    1.1290    1.4390 O   0  0  0  0  0  0  0  0  0  0  0  0
   -1.2160    1.7580    0.5140 C   0  0  0  0  0  0  0  0  0  0  0  0
   -1.8560    0.5860   -0.1040 C   0  0  0  0  0  0  0  0  0  0  0  0
   -3.0080    0.4690   -0.4000 O   0  0  0  0  0  0  0  0  0  0  0  0
   -0.7690   -0.3920   -0.2720 C   0  0  2  0  0  0  0  0  0  0  0  0
   -1.1710   -1.7560   -0.0790 N   0  0  0  0  0  0  0  0  0  0  0  0
  1  2  1  0
  3  2  1  6
  3  4  1  0
  3  8  1  0
  4  5  1  0
  5  6  1  0
  6  7  2  0
  6  8  1  0
  8  9  1  1
M  CHG  2   1   1   9   1
M  END
