
     RDKit          3D

 10 10  0  0  0  0  0  0  0  0999 V2000
    3.0370   -0.8910    0.3150 O   0  0  0  0  0  0  0  0  0  0  0  0
    2.2000    0.2270    0.3190 C   0  0  0  0  0  0  0  0  0  0  0  0
    0.8660   -0.1480   -0.3160 C   0  0  1  0  0  0  0  0  0  0  0  0
    0.2990   -1.1970    0.4530 N   0  0  0  0  0  0  0  0  0  0  0  0
   -0.9840   -1.5490    0.1670 N   0  0  0  0  0  0  0  0  0  0  0  0
   -1.8960   -0.5470   -0.2010 C   0  0  0  0  0  0  0  0  0  0  0  0
   -1.3640    0.7330   -0.7270 C   0  0  1  0  0  0  0  0  0  0  0  0
   -2.1990    1.8120   -0.3650 O   0  0  0  0  0  0  0  0  0  0  0  0
    0.0100    1.0890   -0.2990 C   0  0  1  0  0  0  0  0  0  0  0  0
    0.0220    1.7330    0.9270 O   0  0  0  0  0  0  0  0  0  0  0  0
  1  2  1  0
  3  2  1  1
  3  4  1  0
  3  9  1  0
  4  5  1  0
  5  6  1  0
  6  7  1  0
  7  8  1  1
  7  9  1  0
  9 10  1  1
M  CHG  2   4   1   5   1
M  END
