
     RDKit          3D

 10 10  0  0  0  0  0  0  0  0999 V2000
   -0.6590    1.9340    0.4730 N   0  0  0  0  0  0  0  0  0  0  0  0
   -0.3990    0.7400   -0.2770 C   0  0  1  0  0  0  0  0  0  0  0  0
    1.0070    0.3070   -0.2430 C   0  0  0  0  0  0  0  0  0  0  0  0
    1.9660    1.1370   -0.3310 N   0  0  0  0  0  0  0  0  0  0  0  0
    3.2800    0.6920   -0.2940 O   0  0  0  0  0  0  0  0  0  0  0  0
    1.2690   -1.1350   -0.1000 C   0  0  0  0  0  0  0  0  0  0  0  0
    0.3940   -1.9180   -0.8170 O   0  0  0  0  0  0  0  0  0  0  0  0
   -0.9310   -1.5940   -0.7050 C   0  0  0  0  0  0  0  0  0  0  0  0
   -1.2040   -0.4550    0.2570 C   0  0  2  0  0  0  0  0  0  0  0  0
   -2.5400   -0.1620    0.2990 O   0  0  0  0  0  0  0  0  0  0  0  0
  2  1  1  1
  2  3  1  0
  2  9  1  0
  3  4  2  3
  3  6  1  0
  4  5  1  0
  6  7  1  0
  7  8  1  0
  8  9  1  0
  9 10  1  6
M  CHG  1   1   1
M  END
