
     RDKit          3D

 10 10  0  0  0  0  0  0  0  0999 V2000
    3.2250    0.4720    0.1050 N   0  0  0  0  0  0  0  0  0  0  0  0
    2.3060   -0.0820   -0.7090 O   0  0  0  0  0  0  0  0  0  0  0  0
    1.2320   -0.6200   -0.0020 C   0  0  2  0  0  0  0  0  0  0  0  0
    1.0970   -1.9770   -0.2630 O   0  0  0  0  0  0  0  0  0  0  0  0
    0.0090    0.1640   -0.3670 C   0  0  1  0  0  0  0  0  0  0  0  0
   -0.3000    0.1330   -1.6950 O   0  0  0  0  0  0  0  0  0  0  0  0
   -1.6410    0.3630   -1.8660 C   0  0  0  0  0  0  0  0  0  0  0  0
   -2.2510    0.5420   -0.4800 C   0  0  0  0  0  0  0  0  0  0  0  0
   -1.2380   -0.2940    0.3200 C   0  0  2  0  0  0  0  0  0  0  0  0
   -1.2790    0.0300    1.7230 N   0  0  0  0  0  0  0  0  0  0  0  0
  1  2  1  0
  2  3  1  0
  3  4  1  6
  3  5  1  0
  5  6  1  6
  5  9  1  0
  6  7  1  0
  7  8  1  0
  8  9  1  0
  9 10  1  1
M  CHG  2   1   1  10   1
M  END
