
     RDKit          3D

  9  9  0  0  0  0  0  0  0  0999 V2000
    1.9170   -1.7980   -0.1010 N   0  0  0  0  0  0  0  0  0  0  0  0
    0.9920   -1.2290   -0.9070 O   0  0  0  0  0  0  0  0  0  0  0  0
    0.4530   -0.1540   -0.2750 C   0  0  1  0  0  0  0  0  0  0  0  0
    0.7040    1.1620   -1.0190 C   0  0  0  0  0  0  0  0  0  0  0  0
    0.2520    2.2510   -0.0560 C   0  0  0  0  0  0  0  0  0  0  0  0
   -1.0490    2.1100    0.3370 O   0  0  0  0  0  0  0  0  0  0  0  0
   -1.3810    0.8940    0.8740 C   0  0  0  0  0  0  0  0  0  0  0  0
   -1.0470   -0.2130   -0.1130 C   0  0  2  0  0  0  0  0  0  0  0  0
   -1.5440   -1.4860    0.2700 N   0  0  0  0  0  0  0  0  0  0  0  0
  1  2  1  0
  3  2  1  6
  3  4  1  0
  3  8  1  0
  4  5  1  0
  5  6  1  0
  6  7  1  0
  7  8  1  0
  8  9  1  1
M  CHG  2   1   1   9   1
M  END
