
     RDKit          3D

 10 10  0  0  0  0  0  0  0  0999 V2000
    2.0240   -0.5560   -0.4060 N   0  0  0  0  0  0  0  0  0  0  0  0
    1.4550    0.4420    0.4240 C   0  0  0  0  0  0  0  0  0  0  0  0
    0.0030    0.6510    0.3540 C   0  0  1  0  0  0  0  0  0  0  0  0
   -0.3080    1.6910    1.2700 O   0  0  0  0  0  0  0  0  0  0  0  0
   -0.5390    1.0840   -0.9670 C   0  0  0  0  0  0  0  0  0  0  0  0
   -1.9420    0.9050   -0.7950 O   0  0  0  0  0  0  0  0  0  0  0  0
   -2.2030    0.1520    0.3420 C   0  0  0  0  0  0  0  0  0  0  0  0
   -3.2600   -0.0140    0.9880 O   0  0  0  0  0  0  0  0  0  0  0  0
   -0.8790   -0.4900    0.7010 C   0  0  1  0  0  0  0  0  0  0  0  0
   -0.7610   -1.6380   -0.1470 N   0  0  0  0  0  0  0  0  0  0  0  0
  1  2  1  0
  2  3  1  0
  3  4  1  1
  3  5  1  0
  3  9  1  0
  5  6  1  0
  6  7  1  0
  7  8  2  0
  7  9  1  0
  9 10  1  6
M  CHG  2   1   1  10   1
M  END
