
     RDKit          3D

  9  9  0  0  0  0  0  0  0  0999 V2000
   -2.0690   -0.7750   -0.5600 N   0  0  0  0  0  0  0  0  0  0  0  0
   -1.6600    0.5840   -0.7240 C   0  0  0  0  0  0  0  0  0  0  0  0
   -0.4430    0.9530    0.0970 C   0  0  1  0  0  0  0  0  0  0  0  0
   -0.6480    0.7820    1.5000 N   0  0  0  0  0  0  0  0  0  0  0  0
    0.7980    0.2990   -0.4280 C   0  0  2  0  0  0  0  0  0  0  0  0
    0.8940   -1.1650   -0.1460 C   0  0  0  0  0  0  0  0  0  0  0  0
    2.2860   -1.3780   -0.3030 O   0  0  0  0  0  0  0  0  0  0  0  0
    2.9050   -0.1970    0.0150 C   0  0  0  0  0  0  0  0  0  0  0  0
    1.9570    0.7850    0.1690 O   0  0  0  0  0  0  0  0  0  0  0  0
  1  2  1  0
  2  3  1  0
  3  4  1  1
  3  5  1  0
  5  6  1  1
  5  9  1  0
  6  7  1  0
  7  8  1  0
  8  9  1  0
M  CHG  2   1   1   4   1
M  END
