
     RDKit          3D

 13 13  0  0  0  0  0  0  0  0999 V2000
    3.8460   -0.9920    0.7900 C   0  0  0  0  0  0  0  0  0  0  0  0
    2.6800   -1.2690   -0.1360 C   0  0  0  0  0  0  0  0  0  0  0  0
    1.8840   -0.0100   -0.4100 C   0  0  1  0  0  0  0  0  0  0  0  0
    2.7220    0.9050   -0.9980 O   0  0  0  0  0  0  0  0  0  0  0  0
    2.9850    2.0170   -0.2290 C   0  0  0  0  0  0  0  0  0  0  0  0
    0.7100   -0.2430   -1.0670 O   0  0  0  0  0  0  0  0  0  0  0  0
   -0.3990    0.0560   -0.4120 N   0  0  0  0  0  0  0  0  0  0  0  0
   -1.4520    0.4690   -1.3030 C   0  0  0  0  0  0  0  0  0  0  0  0
   -2.5460    1.2420   -0.6450 C   0  0  0  0  0  0  0  0  0  0  0  0
   -3.7160    0.3830   -0.2270 C   0  0  0  0  0  0  0  0  0  0  0  0
   -3.2330   -0.9250    0.2100 N   0  0  0  0  0  0  0  0  0  0  0  0
   -2.1580   -0.6800    1.1390 C   0  0  0  0  0  0  0  0  0  0  0  0
   -0.8010   -0.8990    0.5720 C   0  0  0  0  0  0  0  0  0  0  0  0
  1  2  1  0
  3  2  1  6
  3  4  1  0
  3  6  1  0
  4  5  1  0
  6  7  1  0
  7  8  1  0
  7 13  1  0
  8  9  1  0
  9 10  1  0
 10 11  1  0
 11 12  1  0
 12 13  1  0
M  CHG  1  11   1
M  END
