
     RDKit          3D

  9  9  0  0  0  0  0  0  0  0999 V2000
    2.6610   -1.0130   -0.0090 C   0  0  0  0  0  0  0  0  0  0  0  0
    2.0820    0.1780    0.4840 O   0  0  0  0  0  0  0  0  0  0  0  0
    0.7520    0.4550    0.3310 C   0  0  0  0  0  0  0  0  0  0  0  0
    0.3000    1.6980    0.3360 C   0  0  0  0  0  0  0  0  0  0  0  0
   -1.1260    2.0350    0.1740 C   0  0  0  0  0  0  0  0  0  0  0  0
   -1.9500    0.8990    0.0140 O   0  0  0  0  0  0  0  0  0  0  0  0
   -1.5130   -0.4080    0.0030 C   0  0  0  0  0  0  0  0  0  0  0  0
   -2.4200   -1.5060   -0.1660 N   0  0  0  0  0  0  0  0  0  0  0  0
   -0.2150   -0.6210    0.1550 C   0  0  0  0  0  0  0  0  0  0  0  0
  1  2  1  0
  2  3  1  0
  3  4  2  0
  3  9  1  0
  4  5  1  0
  5  6  1  0
  6  7  1  0
  7  8  1  0
  7  9  2  0
M  END
