
     RDKit          3D

  9  9  0  0  0  0  0  0  0  0999 V2000
    1.9320   -1.2460   -1.2650 C   0  0  0  0  0  0  0  0  0  0  0  0
    0.6350   -0.7030   -1.4220 O   0  0  0  0  0  0  0  0  0  0  0  0
   -0.1280   -0.2600   -0.3590 C   0  0  0  0  0  0  0  0  0  0  0  0
   -0.7300   -1.1460    0.4130 C   0  0  0  0  0  0  0  0  0  0  0  0
   -1.5810   -0.7850    1.5910 C   0  0  0  0  0  0  0  0  0  0  0  0
   -1.6740    0.6000    1.7930 O   0  0  0  0  0  0  0  0  0  0  0  0
   -1.0460    1.5030    0.9860 C   0  0  0  0  0  0  0  0  0  0  0  0
   -0.3050    1.1520   -0.0410 C   0  0  0  0  0  0  0  0  0  0  0  0
    0.3330    2.1200   -0.8580 N   0  0  0  0  0  0  0  0  0  0  0  0
  1  2  1  0
  2  3  1  0
  3  4  2  0
  3  8  1  0
  4  5  1  0
  5  6  1  0
  6  7  1  0
  7  8  2  0
  8  9  1  0
M  END
