
     RDKit          3D

  9  9  0  0  0  0  0  0  0  0999 V2000
   -1.9440   -1.6210   -0.3920 N   0  0  0  0  0  0  0  0  0  0  0  0
   -0.9810   -0.5800   -0.1680 C   0  0  0  0  0  0  0  0  0  0  0  0
   -1.3680    0.6720   -0.0360 C   0  0  0  0  0  0  0  0  0  0  0  0
   -0.4330    1.7950    0.1970 C   0  0  0  0  0  0  0  0  0  0  0  0
    0.8990    1.4020    0.2630 O   0  0  0  0  0  0  0  0  0  0  0  0
    1.3460    0.0960    0.1290 C   0  0  0  0  0  0  0  0  0  0  0  0
    2.7730   -0.2350    0.2120 C   0  0  0  0  0  0  0  0  0  0  0  0
    3.5770    0.6880    0.4060 O   0  0  0  0  0  0  0  0  0  0  0  0
    0.4430   -0.8660   -0.0790 C   0  0  0  0  0  0  0  0  0  0  0  0
  1  2  1  0
  2  3  2  0
  2  9  1  0
  3  4  1  0
  4  5  1  0
  5  6  1  0
  6  7  1  0
  6  9  2  0
  7  8  2  0
M  END
