
     RDKit          3D

  9  9  0  0  0  0  0  0  0  0999 V2000
    2.9980   -0.0130   -0.1980 C   0  0  0  0  0  0  0  0  0  0  0  0
    1.7630   -0.4560   -0.2960 C   0  0  0  0  0  0  0  0  0  0  0  0
    1.2780   -1.6590   -0.7670 O   0  0  0  0  0  0  0  0  0  0  0  0
   -0.1220   -1.7330   -0.6980 C   0  0  0  0  0  0  0  0  0  0  0  0
   -0.5130   -0.4300   -0.1210 C   0  0  0  0  0  0  0  0  0  0  0  0
   -1.8990    0.0620    0.1850 C   0  0  0  0  0  0  0  0  0  0  0  0
   -1.8690    1.3930    0.7430 N   0  0  0  0  0  0  0  0  0  0  0  0
    0.5750    0.2850    0.1020 C   0  0  0  0  0  0  0  0  0  0  0  0
    0.5860    1.5850    0.6480 O   0  0  0  0  0  0  0  0  0  0  0  0
  1  2  2  0
  2  3  1  0
  2  8  1  0
  3  4  1  0
  4  5  1  0
  5  6  1  0
  5  8  2  0
  6  7  1  0
  8  9  1  0
M  END
