
     RDKit          3D

  9  9  0  0  0  0  0  0  0  0999 V2000
    0.2670    1.9890    0.2450 C   0  0  0  0  0  0  0  0  0  0  0  0
   -0.4040    0.8560    0.2860 C   0  0  0  0  0  0  0  0  0  0  0  0
   -1.7740    0.7610    0.6220 O   0  0  0  0  0  0  0  0  0  0  0  0
   -2.2620   -0.4990    0.2250 C   0  0  0  0  0  0  0  0  0  0  0  0
   -1.0900   -1.3750    0.2080 C   0  0  0  0  0  0  0  0  0  0  0  0
   -0.9900   -2.6260    0.3250 O   0  0  0  0  0  0  0  0  0  0  0  0
    0.0810   -0.4880    0.0120 C   0  0  0  0  0  0  0  0  0  0  0  0
    1.2960   -0.8890   -0.3400 C   0  0  0  0  0  0  0  0  0  0  0  0
    2.3960   -0.0170   -0.5190 N   0  0  0  0  0  0  0  0  0  0  0  0
  1  2  2  0
  2  3  1  0
  2  7  1  0
  3  4  1  0
  4  5  1  0
  5  6  2  0
  5  7  1  0
  7  8  2  3
  8  9  1  0
M  END
