
     RDKit          3D

  9  9  0  0  0  0  0  0  0  0999 V2000
    1.1840   -0.9950   -1.2240 O   0  0  0  0  0  0  0  0  0  0  0  0
    1.7820   -0.3900   -0.1430 C   0  0  0  0  0  0  0  0  0  0  0  0
    0.8050    0.4190    0.6830 C   0  0  1  0  0  0  0  0  0  0  0  0
    0.1910    1.4720   -0.0900 N   0  0  0  0  0  0  0  0  0  0  0  0
   -0.9550    0.9000   -0.7610 C   0  0  0  0  0  0  0  0  0  0  0  0
   -1.3810   -0.2800    0.0670 C   0  0  1  0  0  0  0  0  0  0  0  0
   -1.3800   -1.4710   -0.6240 O   0  0  0  0  0  0  0  0  0  0  0  0
   -0.3570   -0.3720    1.1710 C   0  0  1  0  0  0  0  0  0  0  0  0
   -0.0400   -1.6930    1.4870 O   0  0  0  0  0  0  0  0  0  0  0  0
  1  2  1  0
  3  2  1  6
  3  4  1  0
  3  8  1  0
  4  5  1  0
  5  6  1  0
  6  7  1  6
  6  8  1  0
  8  9  1  6
M  CHG  1   4   1
M  END
