
     RDKit          3D

 30 33  0  0  0  0  0  0  0  0999 V2000
   -2.8010    6.6610    0.3980 C   0  0  0  0  0  0  0  0  0  0  0  0
   -2.4760    5.2800    0.0950 C   0  0  0  0  0  0  0  0  0  0  0  0
   -2.6480    4.4570    1.1670 O   0  0  0  0  0  0  0  0  0  0  0  0
   -2.0140    4.6050   -1.0260 N   0  0  0  0  0  0  0  0  0  0  0  0
   -1.7480    3.3350   -1.0200 N   0  0  0  0  0  0  0  0  0  0  0  0
   -2.3460    2.0650   -1.0100 C   0  0  0  0  0  0  0  0  0  0  0  0
   -1.0290    1.2210   -0.7440 C   0  0  0  0  0  0  0  0  0  0  0  0
    0.3800    1.2820   -1.7740 S   0  0  0  0  0  0  0  0  0  0  0  0
    1.3500    0.1060   -0.6450 C   0  0  0  0  0  0  0  0  0  0  0  0
    2.7230   -0.1610   -1.0840 C   0  0  0  0  0  0  0  0  0  0  0  0
    3.2010    0.0560   -2.1240 O   0  0  0  0  0  0  0  0  0  0  0  0
    3.6410   -0.7770   -0.0530 N   0  0  0  0  0  0  0  0  0  0  0  0
    5.0150   -0.9680   -0.4220 C   0  0  0  0  0  0  0  0  0  0  0  0
    5.6410   -0.9770   -1.6280 C   0  0  0  0  0  0  0  0  0  0  0  0
    6.9800   -1.0920   -1.4680 N   0  0  0  0  0  0  0  0  0  0  0  0
    7.1860   -1.1590   -0.1650 N   0  0  0  0  0  0  0  0  0  0  0  0
    8.5270   -1.2930    0.4310 C   0  0  0  0  0  0  0  0  0  0  0  0
    6.0190   -1.0880    0.5150 C   0  0  0  0  0  0  0  0  0  0  0  0
    0.5000   -0.1570    0.3030 C   0  0  0  0  0  0  0  0  0  0  0  0
   -0.7480    0.4140    0.2630 C   0  0  0  0  0  0  0  0  0  0  0  0
   -1.7900    0.1470    1.3510 C   0  0  0  0  0  0  0  0  0  0  0  0
   -2.6390   -1.0100    0.9320 C   0  0  0  0  0  0  0  0  0  0  0  0
   -3.6610   -1.1070    0.1260 N   0  0  0  0  0  0  0  0  0  0  0  0
   -4.0500   -2.4050    0.0510 C   0  0  0  0  0  0  0  0  0  0  0  0
   -5.0280   -3.0760   -0.6640 C   0  0  0  0  0  0  0  0  0  0  0  0
   -5.1400   -4.4480   -0.5360 C   0  0  0  0  0  0  0  0  0  0  0  0
   -4.3270   -5.1730    0.2640 C   0  0  0  0  0  0  0  0  0  0  0  0
   -3.3600   -4.5100    0.9730 C   0  0  0  0  0  0  0  0  0  0  0  0
   -3.2170   -3.1120    0.8690 C   0  0  0  0  0  0  0  0  0  0  0  0
   -2.3610   -2.2560    1.4050 N   0  0  0  0  0  0  0  0  0  0  0  0
  1  2  1  0
  2  3  2  0
  2  4  1  0
  4  5  1  0
  5  6  1  0
  6  7  1  0
  7  8  1  0
  7 20  2  0
  8  9  1  0
  9 10  1  0
  9 19  2  0
 10 11  2  0
 10 12  1  0
 12 13  1  0
 13 14  1  0
 13 18  2  0
 14 15  2  0
 15 16  1  0
 16 17  1  0
 16 18  1  0
 19 20  1  0
 20 21  1  0
 21 22  1  0
 22 23  2  0
 22 30  1  0
 23 24  1  0
 24 25  2  0
 24 29  1  0
 25 26  1  0
 26 27  2  0
 27 28  1  0
 28 29  2  0
 29 30  1  0
M  END
