
     RDKit          3D

 30 33  0  0  0  0  0  0  0  0999 V2000
   -6.9820    1.1240   -1.1370 C   0  0  0  0  0  0  0  0  0  0  0  0
   -7.6380   -0.0500   -0.4600 C   0  0  0  0  0  0  0  0  0  0  0  0
   -7.1240   -0.2810    0.9180 C   0  0  0  0  0  0  0  0  0  0  0  0
   -7.7360    0.0950    2.0730 N   0  0  0  0  0  0  0  0  0  0  0  0
   -6.9940   -0.2500    3.1290 C   0  0  0  0  0  0  0  0  0  0  0  0
   -5.8690   -0.8660    2.6800 C   0  0  0  0  0  0  0  0  0  0  0  0
   -5.9470   -0.8880    1.2760 C   0  0  0  0  0  0  0  0  0  0  0  0
   -4.9420   -1.4560    0.5170 O   0  0  0  0  0  0  0  0  0  0  0  0
   -4.1640   -0.8620   -0.4390 C   0  0  0  0  0  0  0  0  0  0  0  0
   -4.4680   -0.9570   -1.7940 C   0  0  0  0  0  0  0  0  0  0  0  0
   -3.7070   -0.3710   -2.7780 C   0  0  0  0  0  0  0  0  0  0  0  0
   -2.5980    0.3400   -2.3890 C   0  0  0  0  0  0  0  0  0  0  0  0
   -2.2420    0.4730   -1.0580 C   0  0  0  0  0  0  0  0  0  0  0  0
   -1.0810    1.2310   -0.7650 N   0  0  0  0  0  0  0  0  0  0  0  0
    0.0100    0.6250   -0.5540 C   0  0  0  0  0  0  0  0  0  0  0  0
    0.3710   -0.6340   -0.5330 N   0  0  0  0  0  0  0  0  0  0  0  0
    1.6010   -0.9190   -0.2870 N   0  0  0  0  0  0  0  0  0  0  0  0
    2.5040   -0.2030   -0.0660 C   0  0  0  0  0  0  0  0  0  0  0  0
    3.9180   -0.1970    0.2330 N   0  0  0  0  0  0  0  0  0  0  0  0
    4.5900    1.0660    0.3980 C   0  0  0  0  0  0  0  0  0  0  0  0
    5.9660    0.9020   -0.2250 C   0  0  0  0  0  0  0  0  0  0  0  0
    6.6220   -0.1770    0.4090 N   0  0  0  0  0  0  0  0  0  0  0  0
    7.3380    0.0950    1.6050 C   0  0  0  0  0  0  0  0  0  0  0  0
    8.5460    0.9200    1.4140 C   0  0  0  0  0  0  0  0  0  0  0  0
    8.8990    1.3640    0.1230 N   0  0  0  0  0  0  0  0  0  0  0  0
    9.2610    1.2300    2.3880 O   0  0  0  0  0  0  0  0  0  0  0  0
    6.0300   -1.4520    0.3500 C   0  0  0  0  0  0  0  0  0  0  0  0
    4.5310   -1.4740    0.3430 C   0  0  0  0  0  0  0  0  0  0  0  0
    1.5890    1.4470   -0.1850 S   0  0  0  0  0  0  0  0  0  0  0  0
   -3.0280   -0.1290   -0.0940 C   0  0  0  0  0  0  0  0  0  0  0  0
  1  2  1  0
  2  3  1  0
  3  4  1  0
  3  7  2  0
  4  5  1  0
  5  6  2  0
  6  7  1  0
  7  8  1  0
  8  9  1  0
  9 10  2  0
  9 30  1  0
 10 11  1  0
 11 12  2  0
 12 13  1  0
 13 14  1  0
 13 30  2  0
 14 15  2  3
 15 16  1  0
 15 29  1  0
 16 17  1  0
 17 18  2  0
 18 19  1  0
 18 29  1  0
 19 20  1  0
 19 28  1  0
 20 21  1  0
 21 22  1  0
 22 23  1  0
 22 27  1  0
 23 24  1  0
 24 25  1  0
 24 26  2  0
 27 28  1  0
M  END
