
     RDKit          3D

 30 33  0  0  0  0  0  0  0  0999 V2000
    6.4220   -0.6170    3.1600 C   0  0  0  0  0  0  0  0  0  0  0  0
    5.1840   -0.6200    2.2930 C   0  0  0  0  0  0  0  0  0  0  0  0
    5.2150    0.2910    1.2540 O   0  0  0  0  0  0  0  0  0  0  0  0
    4.1380    0.3870    0.3480 C   0  0  0  0  0  0  0  0  0  0  0  0
    2.9610   -0.3370    0.4360 C   0  0  0  0  0  0  0  0  0  0  0  0
    1.9500   -0.2120   -0.5350 C   0  0  0  0  0  0  0  0  0  0  0  0
    0.8270   -1.1460   -0.5710 C   0  0  0  0  0  0  0  0  0  0  0  0
   -0.1890   -0.9090    0.4550 N   0  0  0  0  0  0  0  0  0  0  0  0
   -1.1940    0.0810    0.1170 C   0  0  0  0  0  0  0  0  0  0  0  0
   -1.0820    0.6350   -1.0010 O   0  0  0  0  0  0  0  0  0  0  0  0
   -2.3410    0.5020    0.9460 C   0  0  1  0  0  0  0  0  0  0  0  0
   -2.6890    1.9330    0.6610 C   0  0  0  0  0  0  0  0  0  0  0  0
   -3.5170    2.1910   -0.5650 C   0  0  0  0  0  0  0  0  0  0  0  0
   -4.0960    0.9600   -1.1400 C   0  0  0  0  0  0  0  0  0  0  0  0
   -4.3980    0.9310   -2.3410 O   0  0  0  0  0  0  0  0  0  0  0  0
   -4.3230   -0.2130   -0.3310 C   0  0  0  0  0  0  0  0  0  0  0  0
   -5.2650   -1.2240   -0.3610 C   0  0  0  0  0  0  0  0  0  0  0  0
   -6.3500   -1.3480   -1.3880 C   0  0  0  0  0  0  0  0  0  0  0  0
   -4.9840   -2.0310    0.6640 N   0  0  0  0  0  0  0  0  0  0  0  0
   -3.8930   -1.5650    1.3390 C   0  0  0  0  0  0  0  0  0  0  0  0
   -3.2700   -2.1880    2.5300 C   0  0  0  0  0  0  0  0  0  0  0  0
   -3.4760   -0.4460    0.7370 C   0  0  0  0  0  0  0  0  0  0  0  0
    2.1380    0.6460   -1.5880 C   0  0  0  0  0  0  0  0  0  0  0  0
    1.1690    0.8350   -2.5910 O   0  0  0  0  0  0  0  0  0  0  0  0
    1.2500   -0.0080   -3.7270 C   0  0  0  0  0  0  0  0  0  0  0  0
    3.3000    1.3820   -1.6830 C   0  0  0  0  0  0  0  0  0  0  0  0
    4.2730    1.2470   -0.7310 C   0  0  0  0  0  0  0  0  0  0  0  0
    5.3190    2.0960   -1.0680 O   0  0  0  0  0  0  0  0  0  0  0  0
    4.7110    3.0990   -1.9100 C   0  0  0  0  0  0  0  0  0  0  0  0
    3.7340    2.3300   -2.6220 O   0  0  0  0  0  0  0  0  0  0  0  0
  1  2  1  0
  2  3  1  0
  3  4  1  0
  4  5  2  0
  4 27  1  0
  5  6  1  0
  6  7  1  0
  6 23  2  0
  7  8  1  0
  8  9  1  0
  9 10  2  0
 11  9  1  6
 11 12  1  0
 11 22  1  0
 12 13  1  0
 13 14  1  0
 14 15  2  0
 14 16  1  0
 16 17  2  0
 16 22  1  0
 17 18  1  0
 17 19  1  0
 19 20  1  0
 20 21  1  0
 20 22  2  0
 23 24  1  0
 23 26  1  0
 24 25  1  0
 26 27  2  0
 26 30  1  0
 27 28  1  0
 28 29  1  0
 29 30  1  0
M  END
