
     RDKit          3D

 31 34  0  0  0  0  0  0  0  0999 V2000
   -3.9070    0.4780   -1.9980 C   0  0  0  0  0  0  0  0  0  0  0  0
   -2.8980    0.1100   -0.9530 C   0  0  0  0  0  0  0  0  0  0  0  0
   -2.9620   -0.9860   -0.2650 O   0  0  0  0  0  0  0  0  0  0  0  0
   -1.9500   -1.0900    0.6020 C   0  0  0  0  0  0  0  0  0  0  0  0
   -1.8880   -2.2850    1.4610 C   0  0  0  0  0  0  0  0  0  0  0  0
   -1.2630   -2.2770    2.5180 O   0  0  0  0  0  0  0  0  0  0  0  0
   -2.5990   -3.4810    1.0250 C   0  0  0  0  0  0  0  0  0  0  0  0
   -2.6020   -3.9280   -0.3110 C   0  0  0  0  0  0  0  0  0  0  0  0
   -3.3680   -5.0730   -0.3770 C   0  0  0  0  0  0  0  0  0  0  0  0
   -3.7980   -5.2660    0.9100 C   0  0  0  0  0  0  0  0  0  0  0  0
   -3.3160   -4.3040    1.6780 O   0  0  0  0  0  0  0  0  0  0  0  0
   -1.1910   -0.0040    0.4670 C   0  0  0  0  0  0  0  0  0  0  0  0
   -0.0360    0.3680    1.3320 C   0  0  0  0  0  0  0  0  0  0  0  0
    0.8990    1.7750    0.6660 S   0  0  0  0  0  0  0  0  0  0  0  0
    2.3790    1.0980   -0.1100 C   0  0  0  0  0  0  0  0  0  0  0  0
    3.2160    0.4330    0.6150 N   0  0  0  0  0  0  0  0  0  0  0  0
    4.4360   -0.1890    0.2450 C   0  0  1  0  0  0  0  0  0  0  0  0
    5.6030    0.4620    1.0140 C   0  0  0  0  0  0  0  0  0  0  0  0
    4.4330   -1.6440    0.7500 C   0  0  0  0  0  0  0  0  0  0  0  0
    4.7850   -0.1120   -1.1990 C   0  0  0  0  0  0  0  0  0  0  0  0
    3.8930    0.7950   -1.9850 C   0  0  0  0  0  0  0  0  0  0  0  0
    4.2520    1.0800   -3.1470 O   0  0  0  0  0  0  0  0  0  0  0  0
    2.6710    1.3200   -1.4560 N   0  0  0  0  0  0  0  0  0  0  0  0
   -1.7750    0.7700   -0.5120 C   0  0  0  0  0  0  0  0  0  0  0  0
   -1.4240    2.1020   -0.9870 C   0  0  0  0  0  0  0  0  0  0  0  0
   -0.5310    2.3290   -1.8020 O   0  0  0  0  0  0  0  0  0  0  0  0
   -2.1800    3.2590   -0.4570 C   0  0  0  0  0  0  0  0  0  0  0  0
   -1.8100    4.5620   -0.3670 C   0  0  0  0  0  0  0  0  0  0  0  0
   -2.9130    5.2170    0.1920 C   0  0  0  0  0  0  0  0  0  0  0  0
   -3.8510    4.3370    0.4100 O   0  0  0  0  0  0  0  0  0  0  0  0
   -3.4630    3.1460    0.0420 C   0  0  0  0  0  0  0  0  0  0  0  0
  1  2  1  0
  2  3  1  0
  2 24  2  0
  3  4  1  0
  4  5  1  0
  4 12  2  0
  5  6  2  0
  5  7  1  0
  7  8  2  0
  7 11  1  0
  8  9  1  0
  9 10  2  0
 10 11  1  0
 12 13  1  0
 12 24  1  0
 13 14  1  0
 14 15  1  0
 15 16  2  0
 15 23  1  0
 16 17  1  0
 17 18  1  1
 17 19  1  0
 17 20  1  0
 20 21  1  0
 21 22  2  0
 21 23  1  0
 24 25  1  0
 25 26  2  0
 25 27  1  0
 27 28  1  0
 27 31  2  0
 28 29  2  0
 29 30  1  0
 30 31  1  0
M  END
