
     RDKit          3D

 30 32  0  0  0  0  0  0  0  0999 V2000
   -6.2250    3.6790   -1.6340 C   0  0  0  0  0  0  0  0  0  0  0  0
   -5.4670    2.7030   -1.1030 C   0  0  0  0  0  0  0  0  0  0  0  0
   -4.0940    2.5590   -1.4390 C   0  0  0  0  0  0  0  0  0  0  0  0
   -3.2590    1.6650   -1.0000 C   0  0  0  0  0  0  0  0  0  0  0  0
   -3.5810    0.6180   -0.0610 C   0  0  0  0  0  0  0  0  0  0  0  0
   -4.8340    0.4500    0.3970 N   0  0  0  0  0  0  0  0  0  0  0  0
   -5.2360   -0.4920    1.2460 C   0  0  0  0  0  0  0  0  0  0  0  0
   -6.5910   -0.5890    1.6730 N   0  0  0  0  0  0  0  0  0  0  0  0
   -7.0440   -1.6080    2.5950 C   0  0  0  0  0  0  0  0  0  0  0  0
   -4.2610   -1.3590    1.6790 C   0  0  0  0  0  0  0  0  0  0  0  0
   -2.9380   -1.2380    1.2430 C   0  0  0  0  0  0  0  0  0  0  0  0
   -2.5460   -0.2570    0.3650 C   0  0  0  0  0  0  0  0  0  0  0  0
   -1.2250   -0.0200   -0.0490 N   0  0  0  0  0  0  0  0  0  0  0  0
   -0.1740   -0.9640   -0.0170 C   0  0  0  0  0  0  0  0  0  0  0  0
   -0.4400   -2.4890    0.4420 S   0  0  0  0  0  0  0  0  0  0  0  0
    1.1010   -0.5030   -0.4590 N   0  0  0  0  0  0  0  0  0  0  0  0
    2.3180   -1.1720   -0.5440 C   0  0  0  0  0  0  0  0  0  0  0  0
    2.5550   -2.4680   -0.1740 C   0  0  0  0  0  0  0  0  0  0  0  0
    3.8120   -3.0060   -0.3080 N   0  0  0  0  0  0  0  0  0  0  0  0
    4.8500   -2.3150   -0.7950 C   0  0  0  0  0  0  0  0  0  0  0  0
    5.9990   -2.8370   -0.9100 O   0  0  0  0  0  0  0  0  0  0  0  0
    4.6470   -1.0450   -1.1650 N   0  0  0  0  0  0  0  0  0  0  0  0
    5.7640   -0.2640   -1.6890 C   0  0  0  0  0  0  0  0  0  0  0  0
    6.4120    0.4630   -0.5380 C   0  0  0  0  0  0  0  0  0  0  0  0
    6.5100    1.7900   -0.4610 C   0  0  0  0  0  0  0  0  0  0  0  0
    7.2010    2.1320    0.8010 C   0  0  0  0  0  0  0  0  0  0  0  0
    7.4650    0.8670    1.3970 N   0  0  0  0  0  0  0  0  0  0  0  0
    7.0250   -0.0790    0.6510 C   0  0  0  0  0  0  0  0  0  0  0  0
    3.4300   -0.4810   -1.0500 C   0  0  0  0  0  0  0  0  0  0  0  0
    3.2590    0.7110   -1.4030 O   0  0  0  0  0  0  0  0  0  0  0  0
  1  2  2  0
  2  3  1  0
  3  4  2  3
  4  5  1  0
  5  6  2  0
  5 12  1  0
  6  7  1  0
  7  8  1  0
  7 10  2  0
  8  9  1  0
 10 11  1  0
 11 12  2  0
 12 13  1  0
 13 14  1  0
 14 15  2  0
 14 16  1  0
 16 17  1  0
 17 18  2  0
 17 29  1  0
 18 19  1  0
 19 20  1  0
 20 21  2  0
 20 22  1  0
 22 23  1  0
 22 29  1  0
 23 24  1  0
 24 25  2  0
 24 28  1  0
 25 26  1  0
 26 27  1  0
 27 28  2  0
 29 30  2  0
M  END
