
     RDKit          3D

 30 33  0  0  0  0  0  0  0  0999 V2000
   -4.8550   -4.6900   -0.4190 N   0  0  0  0  0  0  0  0  0  0  0  0
   -4.2390   -3.3770   -0.2030 C   0  0  0  0  0  0  0  0  0  0  0  0
   -4.8980   -2.4010   -0.5610 O   0  0  0  0  0  0  0  0  0  0  0  0
   -2.9180   -3.4280    0.4140 C   0  0  0  0  0  0  0  0  0  0  0  0
   -2.2910   -2.1100    0.7030 C   0  0  0  0  0  0  0  0  0  0  0  0
   -2.0820   -1.3200   -0.5630 C   0  0  0  0  0  0  0  0  0  0  0  0
   -1.4020   -0.0250   -0.2780 C   0  0  0  0  0  0  0  0  0  0  0  0
   -0.0640    0.1020    0.0580 C   0  0  0  0  0  0  0  0  0  0  0  0
    0.9320   -0.9980    0.2140 C   0  0  0  0  0  0  0  0  0  0  0  0
    2.3100   -0.4950   -0.0720 C   0  0  0  0  0  0  0  0  0  0  0  0
    2.5460    0.6290   -0.5170 O   0  0  0  0  0  0  0  0  0  0  0  0
    3.3750   -1.3880    0.2060 N   0  0  0  0  0  0  0  0  0  0  0  0
    4.7420   -1.1530    0.0390 C   0  0  0  0  0  0  0  0  0  0  0  0
    5.2360   -0.2020   -0.8340 C   0  0  0  0  0  0  0  0  0  0  0  0
    6.6040    0.0160   -0.9260 C   0  0  0  0  0  0  0  0  0  0  0  0
    7.4370   -0.7000   -0.1640 N   0  0  0  0  0  0  0  0  0  0  0  0
    6.9740   -1.6220    0.6840 C   0  0  0  0  0  0  0  0  0  0  0  0
    5.6530   -1.8810    0.8190 C   0  0  0  0  0  0  0  0  0  0  0  0
    0.1670    1.4170    0.2360 N   0  0  0  0  0  0  0  0  0  0  0  0
   -0.9770    2.0850    0.0220 C   0  0  0  0  0  0  0  0  0  0  0  0
   -1.2490    3.4350    0.0960 C   0  0  0  0  0  0  0  0  0  0  0  0
   -0.2680    4.3310    0.4200 C   0  0  0  0  0  0  0  0  0  0  0  0
   -0.5560    5.6810    0.4960 C   0  0  0  0  0  0  0  0  0  0  0  0
   -1.8420    6.1100    0.2400 C   0  0  0  0  0  0  0  0  0  0  0  0
   -2.7930    5.2060   -0.0790 N   0  0  0  0  0  0  0  0  0  0  0  0
   -2.5210    3.8910   -0.1540 C   0  0  0  0  0  0  0  0  0  0  0  0
   -3.4880    2.9790   -0.4730 N   0  0  0  0  0  0  0  0  0  0  0  0
   -3.2160    1.6680   -0.5440 C   0  0  0  0  0  0  0  0  0  0  0  0
   -4.4320    0.6900   -0.9500 S   0  0  0  0  0  0  0  0  0  0  0  0
   -1.9750    1.1850   -0.3030 N   0  0  0  0  0  0  0  0  0  0  0  0
  1  2  1  0
  2  3  2  0
  2  4  1  0
  4  5  1  0
  5  6  1  0
  6  7  1  0
  7  8  2  0
  7 30  1  0
  8  9  1  0
  8 19  1  0
  9 10  1  0
 10 11  2  0
 10 12  1  0
 12 13  1  0
 13 14  2  0
 13 18  1  0
 14 15  1  0
 15 16  2  0
 16 17  1  0
 17 18  2  0
 19 20  2  0
 20 21  1  0
 20 30  1  0
 21 22  2  0
 21 26  1  0
 22 23  1  0
 23 24  2  0
 24 25  1  0
 25 26  2  0
 26 27  1  0
 27 28  1  0
 28 29  2  0
 28 30  1  0
M  END
