
     RDKit          3D

 30 33  0  0  0  0  0  0  0  0999 V2000
   -5.4160   -1.8780   -0.0950 C   0  0  0  0  0  0  0  0  0  0  0  0
   -5.3860   -0.4890   -0.6800 C   0  0  2  0  0  0  0  0  0  0  0  0
   -4.0920    0.1440   -0.4190 C   0  0  0  0  0  0  0  0  0  0  0  0
   -3.8950    1.3020    0.1790 C   0  0  0  0  0  0  0  0  0  0  0  0
   -2.5560    1.8840    0.4090 C   0  0  0  0  0  0  0  0  0  0  0  0
   -1.4950    1.0360   -0.0960 N   0  0  0  0  0  0  0  0  0  0  0  0
   -0.8160    0.0690    0.4960 C   0  0  0  0  0  0  0  0  0  0  0  0
    0.0860   -0.4370   -0.4050 C   0  0  0  0  0  0  0  0  0  0  0  0
    1.0040   -1.4810   -0.1770 N   0  0  0  0  0  0  0  0  0  0  0  0
    2.6330   -1.2960   -0.7140 S   0  0  2  0  0  0  0  0  0  0  0  0
    2.6930   -0.3980   -1.9280 O   0  0  0  0  0  0  0  0  0  0  0  0
    3.1250   -2.6570   -1.1110 O   0  0  0  0  0  0  0  0  0  0  0  0
    3.5400   -0.5820    0.5270 N   0  0  0  0  0  0  0  0  0  0  0  0
    4.1530   -1.4920    1.4350 C   0  0  0  0  0  0  0  0  0  0  0  0
    4.3390    0.5330    0.1380 C   0  0  0  0  0  0  0  0  0  0  0  0
    5.7010    0.1960   -0.3010 C   0  0  0  0  0  0  0  0  0  0  0  0
    6.7930    0.1260    0.5400 C   0  0  0  0  0  0  0  0  0  0  0  0
    8.0490   -0.2000    0.0380 C   0  0  0  0  0  0  0  0  0  0  0  0
    9.1900   -0.2800    0.8740 N   0  0  0  0  0  0  0  0  0  0  0  0
    8.1850   -0.4530   -1.3100 C   0  0  0  0  0  0  0  0  0  0  0  0
    7.0890   -0.3810   -2.1410 C   0  0  0  0  0  0  0  0  0  0  0  0
    5.9050   -0.0620   -1.6010 N   0  0  0  0  0  0  0  0  0  0  0  0
   -0.0780    0.2700   -1.5730 C   0  0  0  0  0  0  0  0  0  0  0  0
   -1.0450    1.1470   -1.3320 N   0  0  0  0  0  0  0  0  0  0  0  0
   -5.0130    2.0540    0.6370 N   0  0  0  0  0  0  0  0  0  0  0  0
   -6.3700    1.5980    0.4730 C   0  0  0  0  0  0  0  0  0  0  0  0
   -7.5450    2.1210    0.8140 C   0  0  0  0  0  0  0  0  0  0  0  0
   -8.5810    1.1700    0.3720 C   0  0  0  0  0  0  0  0  0  0  0  0
   -7.8170    0.0620   -0.2530 C   0  0  0  0  0  0  0  0  0  0  0  0
   -6.5390    0.3140   -0.1930 C   0  0  0  0  0  0  0  0  0  0  0  0
  2  1  1  1
  2  3  1  0
  2 30  1  0
  3  4  2  0
  4  5  1  0
  4 25  1  0
  5  6  1  0
  6  7  1  0
  6 24  1  0
  7  8  2  0
  8  9  1  0
  8 23  1  0
 10  9  1  1
 10 11  2  0
 10 12  2  0
 10 13  1  0
 13 14  1  0
 13 15  1  0
 15 16  1  0
 16 17  2  0
 16 22  1  0
 17 18  1  0
 18 19  1  0
 18 20  2  0
 20 21  1  0
 21 22  2  0
 23 24  2  0
 25 26  1  0
 26 27  2  0
 26 30  1  0
 27 28  1  0
 28 29  1  0
 29 30  2  0
M  END
