
     RDKit          3D

 12 13  0  0  0  0  0  0  0  0999 V2000
    1.7340   -0.1670    1.4550 O   0  0  0  0  0  0  0  0  0  0  0  0
    1.9800   -0.7300    0.2350 C   0  0  0  0  0  0  0  0  0  0  0  0
    0.8850   -0.5510   -0.7760 C   0  0  2  0  0  0  0  0  0  0  0  0
    0.6230    0.9330   -1.0490 C   0  0  2  0  0  0  0  0  0  0  0  0
    1.7950    1.6770   -0.8150 O   0  0  0  0  0  0  0  0  0  0  0  0
   -0.4530    1.4930   -0.1830 C   0  0  2  0  0  0  0  0  0  0  0  0
    0.0560    1.8300    1.0830 O   0  0  0  0  0  0  0  0  0  0  0  0
   -1.5880    0.5010   -0.0650 C   0  0  2  0  0  0  0  0  0  0  0  0
   -1.4450   -0.1820    1.2760 C   0  0  0  0  0  0  0  0  0  0  0  0
   -0.7410   -1.4660    0.9120 C   0  0  0  0  0  0  0  0  0  0  0  0
   -0.3500   -1.3210   -0.5080 C   0  0  1  0  0  0  0  0  0  0  0  0
   -1.4840   -0.5610   -1.0580 N   0  0  0  0  0  0  0  0  0  0  0  0
  1  2  1  0
  3  2  1  1
  3  4  1  0
  3 11  1  0
  4  5  1  1
  4  6  1  0
  6  7  1  1
  6  8  1  0
  8  9  1  1
  8 12  1  0
  9 10  1  0
 11 10  1  1
 11 12  1  0
M  CHG  1  12   1
M  END
