
     RDKit          3D

 23 26  0  0  0  0  0  0  0  0999 V2000
   -5.6910    2.6420    0.8320 C   0  0  0  0  0  0  0  0  0  0  0  0
   -4.5760    1.7000    0.5310 C   0  0  0  0  0  0  0  0  0  0  0  0
   -3.2740    2.1520    0.6620 C   0  0  0  0  0  0  0  0  0  0  0  0
   -2.2140    1.3210    0.3960 C   0  0  0  0  0  0  0  0  0  0  0  0
   -0.8740    1.4020    0.4100 N   0  0  0  0  0  0  0  0  0  0  0  0
   -0.3350    0.2270    0.0400 C   0  0  0  0  0  0  0  0  0  0  0  0
    0.9140   -0.0570   -0.0590 N   0  0  0  0  0  0  0  0  0  0  0  0
    1.9320    0.8530    0.2160 N   0  0  0  0  0  0  0  0  0  0  0  0
    3.1330    0.5590   -0.1090 C   0  0  0  0  0  0  0  0  0  0  0  0
    4.2290    1.5050    0.1710 C   0  0  0  0  0  0  0  0  0  0  0  0
    5.5400    0.7850   -0.0560 C   0  0  0  0  0  0  0  0  0  0  0  0
    5.5150   -0.5780    0.6040 C   0  0  0  0  0  0  0  0  0  0  0  0
    4.4840   -1.4830    0.0170 C   0  0  0  0  0  0  0  0  0  0  0  0
    3.4260   -0.7300   -0.7670 C   0  0  0  0  0  0  0  0  0  0  0  0
   -1.3550   -0.6240   -0.2170 N   0  0  0  0  0  0  0  0  0  0  0  0
   -2.5100    0.0190   -0.0060 C   0  0  0  0  0  0  0  0  0  0  0  0
   -3.7760   -0.4400   -0.1380 C   0  0  0  0  0  0  0  0  0  0  0  0
   -4.8000    0.4380    0.1410 N   0  0  0  0  0  0  0  0  0  0  0  0
   -4.0970   -1.8160   -0.5450 C   0  0  0  0  0  0  0  0  0  0  0  0
   -3.0840   -2.5410   -1.3400 C   0  0  0  0  0  0  0  0  0  0  0  0
   -1.4290   -2.2700   -0.7470 S   0  0  2  0  0  0  0  0  0  0  0  0
   -1.0640   -3.2040    0.3640 O   0  0  0  0  0  0  0  0  0  0  0  0
   -0.4830   -2.4350   -1.8950 O   0  0  0  0  0  0  0  0  0  0  0  0
  1  2  1  0
  2  3  2  0
  2 18  1  0
  3  4  1  0
  4  5  1  0
  4 16  2  0
  5  6  1  0
  6  7  2  3
  6 15  1  0
  7  8  1  0
  8  9  2  3
  9 10  1  0
  9 14  1  0
 10 11  1  0
 11 12  1  0
 12 13  1  0
 13 14  1  0
 15 16  1  0
 15 21  1  0
 16 17  1  0
 17 18  2  0
 17 19  1  0
 19 20  1  0
 21 20  1  6
 21 22  2  0
 21 23  2  0
M  END
