
     RDKit          3D

 23 26  0  0  0  0  0  0  0  0999 V2000
    4.9150   -3.4640    0.0040 O   0  0  0  0  0  0  0  0  0  0  0  0
    4.2250   -2.4200   -0.0540 C   0  0  0  0  0  0  0  0  0  0  0  0
    2.8840   -2.5470    0.0750 N   0  0  0  0  0  0  0  0  0  0  0  0
    2.1230   -1.4370    0.0150 C   0  0  0  0  0  0  0  0  0  0  0  0
    0.7250   -1.5540    0.1480 O   0  0  0  0  0  0  0  0  0  0  0  0
   -0.0470   -0.3740    0.0810 C   0  0  0  0  0  0  0  0  0  0  0  0
   -1.4770   -0.6590    0.2360 C   0  0  0  0  0  0  0  0  0  0  0  0
   -1.8970   -1.9530    0.4180 C   0  0  0  0  0  0  0  0  0  0  0  0
   -3.2460   -2.1970    0.5610 C   0  0  0  0  0  0  0  0  0  0  0  0
   -4.1070   -1.1820    0.5200 N   0  0  0  0  0  0  0  0  0  0  0  0
   -3.7450    0.1020    0.3440 C   0  0  0  0  0  0  0  0  0  0  0  0
   -4.7060    1.1470    0.3080 N   0  0  0  0  0  0  0  0  0  0  0  0
   -4.5520    2.3780   -0.2100 C   0  0  0  0  0  0  0  0  0  0  0  0
   -5.7380    3.0550   -0.0250 C   0  0  0  0  0  0  0  0  0  0  0  0
   -6.6100    2.2010    0.6180 C   0  0  0  0  0  0  0  0  0  0  0  0
   -5.9350    1.0530    0.7980 N   0  0  0  0  0  0  0  0  0  0  0  0
   -2.3880    0.3660    0.1980 C   0  0  0  0  0  0  0  0  0  0  0  0
    2.6980   -0.2510   -0.1680 N   0  0  0  0  0  0  0  0  0  0  0  0
    4.0550   -0.0680   -0.3050 C   0  0  0  0  0  0  0  0  0  0  0  0
    4.8230   -1.1980   -0.2440 C   0  0  0  0  0  0  0  0  0  0  0  0
    6.5280   -0.6390   -0.4860 S   0  0  0  0  0  0  0  0  0  0  0  0
    6.0280    0.9330   -1.3340 C   0  0  0  0  0  0  0  0  0  0  0  0
    4.8010    1.1930   -0.4900 C   0  0  0  0  0  0  0  0  0  0  0  0
  1  2  2  0
  2  3  1  0
  2 20  1  0
  3  4  1  0
  4  5  1  0
  4 18  2  0
  5  6  1  0
  6  7  1  0
  7  8  2  0
  7 17  1  0
  8  9  1  0
  9 10  2  0
 10 11  1  0
 11 12  1  0
 11 17  2  0
 12 13  1  0
 12 16  1  0
 13 14  2  0
 14 15  1  0
 15 16  2  0
 18 19  1  0
 19 20  2  0
 19 23  1  0
 20 21  1  0
 21 22  1  0
 22 23  1  0
M  END
