
     RDKit          3D

 23 25  0  0  0  0  0  0  0  0999 V2000
    5.2350    2.6670   -0.9520 C   0  0  0  0  0  0  0  0  0  0  0  0
    3.8940    1.9840   -0.9490 C   0  0  0  0  0  0  0  0  0  0  0  0
    3.8410    0.8330   -0.4130 N   0  0  0  0  0  0  0  0  0  0  0  0
    2.6580    0.0920   -0.3440 C   0  0  0  0  0  0  0  0  0  0  0  0
    2.0800   -0.8960   -1.6820 S   0  0  0  0  0  0  0  0  0  0  0  0
    0.6230   -1.4840   -0.8830 C   0  0  0  0  0  0  0  0  0  0  0  0
   -0.3460   -2.4030   -1.5010 C   0  0  0  0  0  0  0  0  0  0  0  0
    0.6690   -0.8930    0.3470 C   0  0  0  0  0  0  0  0  0  0  0  0
   -0.4520   -1.1960    1.3050 C   0  0  0  0  0  0  0  0  0  0  0  0
   -0.4940   -0.7170    2.4620 O   0  0  0  0  0  0  0  0  0  0  0  0
   -1.5270   -2.0390    0.9650 N   0  0  0  0  0  0  0  0  0  0  0  0
   -2.6600   -1.6740    0.4850 C   0  0  0  0  0  0  0  0  0  0  0  0
   -3.6560   -2.5570    0.1810 N   0  0  0  0  0  0  0  0  0  0  0  0
   -4.6910   -1.9040   -0.2940 N   0  0  0  0  0  0  0  0  0  0  0  0
   -4.4050   -0.5870   -0.3150 C   0  0  0  0  0  0  0  0  0  0  0  0
   -3.1610   -0.4740    0.1650 N   0  0  0  0  0  0  0  0  0  0  0  0
   -2.6020    0.8400    0.2480 C   0  0  0  0  0  0  0  0  0  0  0  0
   -3.2880    1.9040   -0.1330 C   0  0  0  0  0  0  0  0  0  0  0  0
   -4.5590    1.7740   -0.6210 O   0  0  0  0  0  0  0  0  0  0  0  0
   -5.2470    0.5460   -0.7620 C   0  0  0  0  0  0  0  0  0  0  0  0
    1.7210   -0.0800    0.6200 C   0  0  0  0  0  0  0  0  0  0  0  0
    1.9520    0.6690    1.9320 C   0  0  0  0  0  0  0  0  0  0  0  0
    2.9990   -0.0860    2.7170 C   0  0  0  0  0  0  0  0  0  0  0  0
  1  2  1  0
  2  3  2  3
  3  4  1  0
  4  5  1  0
  4 21  2  0
  5  6  1  0
  6  7  1  0
  6  8  2  0
  8  9  1  0
  8 21  1  0
  9 10  2  0
  9 11  1  0
 11 12  2  3
 12 13  1  0
 12 16  1  0
 13 14  1  0
 14 15  2  0
 15 16  1  0
 15 20  1  0
 16 17  1  0
 17 18  2  0
 18 19  1  0
 19 20  1  0
 21 22  1  0
 22 23  1  0
M  END
