
     RDKit          3D

 23 26  0  0  0  0  0  0  0  0999 V2000
    7.7300    0.6500   -0.2380 C   0  0  0  0  0  0  0  0  0  0  0  0
    6.5730   -0.0040    0.2900 N   0  0  0  0  0  0  0  0  0  0  0  0
    6.8170   -1.0790    1.2630 C   0  0  0  0  0  0  0  0  0  0  0  0
    5.2730    0.3650   -0.1030 C   0  0  0  0  0  0  0  0  0  0  0  0
    4.9780    1.3350   -0.9850 N   0  0  0  0  0  0  0  0  0  0  0  0
    3.6890    1.4130   -1.1170 O   0  0  0  0  0  0  0  0  0  0  0  0
    3.0900    0.5290   -0.3560 C   0  0  0  0  0  0  0  0  0  0  0  0
    1.6650    0.3600   -0.2750 C   0  0  0  0  0  0  0  0  0  0  0  0
    0.8580   -0.4610    0.4200 C   0  0  0  0  0  0  0  0  0  0  0  0
   -0.4240   -0.3720    0.2770 N   0  0  0  0  0  0  0  0  0  0  0  0
   -1.0040    0.4530   -0.4880 C   0  0  0  0  0  0  0  0  0  0  0  0
   -2.3380    0.8770   -0.9350 C   0  0  1  0  0  0  0  0  0  0  0  0
   -2.9210   -0.0400   -1.9860 C   0  0  0  0  0  0  0  0  0  0  0  0
   -3.5190   -1.2920   -1.3540 C   0  0  0  0  0  0  0  0  0  0  0  0
   -4.6910   -0.8610   -0.5350 C   0  0  0  0  0  0  0  0  0  0  0  0
   -5.8250   -1.5010   -0.5070 C   0  0  0  0  0  0  0  0  0  0  0  0
   -6.8610   -1.0350    0.2800 O   0  0  0  0  0  0  0  0  0  0  0  0
   -6.8250    0.1080    1.0920 C   0  0  0  0  0  0  0  0  0  0  0  0
   -5.5040    0.7860    1.0100 C   0  0  0  0  0  0  0  0  0  0  0  0
   -4.5060    0.3470    0.2600 C   0  0  0  0  0  0  0  0  0  0  0  0
   -3.2450    0.9940    0.1810 N   0  0  0  0  0  0  0  0  0  0  0  0
    0.4380    1.3150   -1.1890 S   0  0  0  0  0  0  0  0  0  0  0  0
    4.0740   -0.1250    0.2760 N   0  0  0  0  0  0  0  0  0  0  0  0
  1  2  1  0
  2  3  1  0
  2  4  1  0
  4  5  2  0
  4 23  1  0
  5  6  1  0
  6  7  1  0
  7  8  1  0
  7 23  2  0
  8  9  2  0
  8 22  1  0
  9 10  1  0
 10 11  2  0
 12 11  1  1
 11 22  1  0
 12 13  1  0
 12 21  1  0
 13 14  1  0
 14 15  1  0
 15 16  2  0
 15 20  1  0
 16 17  1  0
 17 18  1  0
 18 19  1  0
 19 20  2  0
 20 21  1  0
M  END
