
     RDKit          3D

 23 26  0  0  0  0  0  0  0  0999 V2000
   -7.3990    1.0210    0.7530 C   0  0  0  0  0  0  0  0  0  0  0  0
   -6.2220    0.2790    0.1120 C   0  0  0  0  0  0  0  0  0  0  0  0
   -6.3310    0.0450   -1.2650 N   0  0  0  0  0  0  0  0  0  0  0  0
   -4.7260   -0.8350   -1.5130 S   0  0  0  0  0  0  0  0  0  0  0  0
   -4.1970   -0.7280    0.2900 C   0  0  0  0  0  0  0  0  0  0  0  0
   -2.9890   -1.2870    0.5910 N   0  0  0  0  0  0  0  0  0  0  0  0
   -1.8400   -0.7260    0.2800 C   0  0  0  0  0  0  0  0  0  0  0  0
   -0.5200   -1.2350    0.5540 C   0  0  0  0  0  0  0  0  0  0  0  0
    0.4550   -0.4230    0.1060 C   0  0  0  0  0  0  0  0  0  0  0  0
    1.8520   -0.7240    0.2660 N   0  0  0  0  0  0  0  0  0  0  0  0
    2.3100   -1.8550    0.8830 C   0  0  0  0  0  0  0  0  0  0  0  0
    3.6710   -1.8710    0.8870 C   0  0  0  0  0  0  0  0  0  0  0  0
    4.0810   -0.7190    0.2550 C   0  0  0  0  0  0  0  0  0  0  0  0
    5.3340   -0.1970   -0.0350 C   0  0  0  0  0  0  0  0  0  0  0  0
    5.4990    0.9990   -0.6900 C   0  0  0  0  0  0  0  0  0  0  0  0
    6.7740    1.4750   -0.9550 O   0  0  0  0  0  0  0  0  0  0  0  0
    4.3640    1.6840   -1.0600 C   0  0  0  0  0  0  0  0  0  0  0  0
    3.0980    1.1570   -0.7680 C   0  0  0  0  0  0  0  0  0  0  0  0
    2.9180   -0.0390   -0.1130 C   0  0  0  0  0  0  0  0  0  0  0  0
   -0.2020    0.6660   -0.4870 N   0  0  0  0  0  0  0  0  0  0  0  0
   -1.6420    0.5280   -0.4060 C   0  0  0  0  0  0  0  0  0  0  0  0
   -2.5100    1.3210   -0.8360 O   0  0  0  0  0  0  0  0  0  0  0  0
   -5.1940   -0.1260    0.7060 N   0  0  0  0  0  0  0  0  0  0  0  0
  1  2  1  0
  2  3  2  0
  2 23  1  0
  3  4  1  0
  4  5  1  0
  5  6  1  0
  5 23  2  0
  6  7  2  3
  7  8  1  0
  7 21  1  0
  8  9  2  0
  9 10  1  0
  9 20  1  0
 10 11  1  0
 10 19  1  0
 11 12  2  0
 12 13  1  0
 13 14  2  0
 13 19  1  0
 14 15  1  0
 15 16  1  0
 15 17  2  0
 17 18  1  0
 18 19  2  0
 20 21  1  0
 21 22  2  0
M  END
