
     RDKit          3D

 23 26  0  0  0  0  0  0  0  0999 V2000
   -2.4090   -1.6840   -1.4870 C   0  0  0  0  0  0  0  0  0  0  0  0
   -2.3690   -0.3640   -0.9440 N   0  0  0  0  0  0  0  0  0  0  0  0
   -1.2300    0.4430   -1.1460 C   0  0  0  0  0  0  0  0  0  0  0  0
   -1.1750    1.6350   -1.7670 N   0  0  0  0  0  0  0  0  0  0  0  0
    0.0480    2.1200   -1.7820 N   0  0  0  0  0  0  0  0  0  0  0  0
    0.8290    1.2340   -1.1580 C   0  0  0  0  0  0  0  0  0  0  0  0
    2.1290    1.1720   -0.8680 N   0  0  0  0  0  0  0  0  0  0  0  0
    2.6790    0.1340   -0.2090 C   0  0  0  0  0  0  0  0  0  0  0  0
    4.1590    0.2690    0.0820 C   0  0  0  0  0  0  0  0  0  0  0  0
    4.7580    1.4510    0.1860 C   0  0  0  0  0  0  0  0  0  0  0  0
    6.0910    1.6170    0.3720 C   0  0  0  0  0  0  0  0  0  0  0  0
    6.6240   -0.1670    0.4110 S   0  0  0  0  0  0  0  0  0  0  0  0
    4.9480   -0.8540    0.1670 C   0  0  0  0  0  0  0  0  0  0  0  0
    1.9470   -0.8710    0.1820 N   0  0  0  0  0  0  0  0  0  0  0  0
    2.4280   -1.9810    0.9560 C   0  0  0  0  0  0  0  0  0  0  0  0
    0.6000   -0.8940   -0.0730 C   0  0  0  0  0  0  0  0  0  0  0  0
   -0.0980   -1.8440    0.2950 O   0  0  0  0  0  0  0  0  0  0  0  0
    0.0550    0.1570   -0.7390 C   0  0  0  0  0  0  0  0  0  0  0  0
   -3.4660    0.1580   -0.1970 C   0  0  1  0  0  0  0  0  0  0  0  0
   -3.8000   -0.6440    1.0390 C   0  0  0  0  0  0  0  0  0  0  0  0
   -4.5190    0.4470    1.8480 C   0  0  0  0  0  0  0  0  0  0  0  0
   -3.7030    1.5360    1.6720 O   0  0  0  0  0  0  0  0  0  0  0  0
   -3.1640    1.5170    0.4130 C   0  0  0  0  0  0  0  0  0  0  0  0
  1  2  1  0
  2  3  1  0
 19  2  1  1
  3  4  2  0
  3 18  1  0
  4  5  1  0
  5  6  1  0
  6  7  1  0
  6 18  2  0
  7  8  2  0
  8  9  1  0
  8 14  1  0
  9 10  1  0
  9 13  2  0
 10 11  2  0
 11 12  1  0
 12 13  1  0
 14 15  1  0
 14 16  1  0
 16 17  2  0
 16 18  1  0
 19 20  1  0
 19 23  1  0
 20 21  1  0
 21 22  1  0
 22 23  1  0
M  END
