
     RDKit          3D

 11 11  0  0  0  0  0  0  0  0999 V2000
    0.3460   -1.9340   -0.1610 N   0  0  0  0  0  0  0  0  0  0  0  0
   -0.0340   -0.5500   -0.2310 C   0  0  1  0  0  0  0  0  0  0  0  0
    0.8000    0.3440    0.6210 C   0  0  0  0  0  0  0  0  0  0  0  0
    2.2340    0.2690    0.2110 C   0  0  0  0  0  0  0  0  0  0  0  0
    3.0020    1.1250    1.0380 O   0  0  0  0  0  0  0  0  0  0  0  0
   -0.0560   -0.0000   -1.6400 C   0  0  0  0  0  0  0  0  0  0  0  0
   -0.7370    1.2090   -1.4280 O   0  0  0  0  0  0  0  0  0  0  0  0
   -1.7720    0.9530   -0.5680 C   0  0  2  0  0  0  0  0  0  0  0  0
   -1.8400    1.8840    0.4790 O   0  0  0  0  0  0  0  0  0  0  0  0
   -1.5260   -0.4010    0.0790 C   0  0  2  0  0  0  0  0  0  0  0  0
   -1.7880   -0.4080    1.4230 O   0  0  0  0  0  0  0  0  0  0  0  0
  2  1  1  6
  2  3  1  0
  2  6  1  0
  2 10  1  0
  3  4  1  0
  4  5  1  0
  6  7  1  0
  7  8  1  0
  8  9  1  1
  8 10  1  0
 10 11  1  1
M  CHG  1   1   1
M  END
