
     RDKit          3D

 11 11  0  0  0  0  0  0  0  0999 V2000
   -1.0680   -0.1680    1.5920 C   0  0  0  0  0  0  0  0  0  0  0  0
   -0.5320   -0.0500    0.1780 C   0  0  1  0  0  0  0  0  0  0  0  0
    0.9430    0.0900    0.2510 C   0  0  1  0  0  0  0  0  0  0  0  0
    1.4710   -1.0730    0.9470 N   0  0  0  0  0  0  0  0  0  0  0  0
    1.6560    0.1740   -1.0560 C   0  0  0  0  0  0  0  0  0  0  0  0
    3.0210    0.3120   -0.7900 O   0  0  0  0  0  0  0  0  0  0  0  0
   -0.9190   -1.1960   -0.5060 O   0  0  0  0  0  0  0  0  0  0  0  0
   -1.8210   -0.7770   -1.4540 C   0  0  0  0  0  0  0  0  0  0  0  0
   -2.4040    0.4040   -0.9880 O   0  0  0  0  0  0  0  0  0  0  0  0
   -1.2690    1.0690   -0.4660 C   0  0  1  0  0  0  0  0  0  0  0  0
   -1.7160    2.0220    0.4170 O   0  0  0  0  0  0  0  0  0  0  0  0
  2  1  1  1
  2  3  1  0
  2  7  1  0
  2 10  1  0
  3  4  1  6
  3  5  1  0
  5  6  1  0
  7  8  1  0
  8  9  1  0
  9 10  1  0
 10 11  1  1
M  CHG  1   4   1
M  END
