
     RDKit          3D

 11 11  0  0  0  0  0  0  0  0999 V2000
   -1.8430   -0.4930   -0.6250 N   0  0  0  0  0  0  0  0  0  0  0  0
   -0.6940   -0.7460    0.1960 C   0  0  2  0  0  0  0  0  0  0  0  0
   -1.0850   -0.6480    1.6670 C   0  0  0  0  0  0  0  0  0  0  0  0
   -0.5150    0.5490    2.1250 O   0  0  0  0  0  0  0  0  0  0  0  0
    0.7720    0.4680    1.5460 C   0  0  0  0  0  0  0  0  0  0  0  0
    0.3890    0.2620    0.0850 C   0  0  2  0  0  0  0  0  0  0  0  0
   -0.0600    1.6000   -0.4330 C   0  0  0  0  0  0  0  0  0  0  0  0
   -0.6150    1.5630   -1.6860 O   0  0  0  0  0  0  0  0  0  0  0  0
    1.5540   -0.2960   -0.7040 C   0  0  2  0  0  0  0  0  0  0  0  0
    1.1240   -0.6370   -1.9700 O   0  0  0  0  0  0  0  0  0  0  0  0
    1.9930   -1.4410   -0.0610 O   0  0  0  0  0  0  0  0  0  0  0  0
  2  1  1  6
  2  3  1  0
  2  6  1  0
  3  4  1  0
  4  5  1  0
  5  6  1  0
  6  7  1  6
  6  9  1  0
  7  8  1  0
  9 10  1  6
  9 11  1  0
M  CHG  1   1   1
M  END
