
     RDKit          3D

 11 11  0  0  0  0  0  0  0  0999 V2000
   -3.1190   -0.9310   -0.2720 O   0  0  0  0  0  0  0  0  0  0  0  0
   -2.4360    0.2760   -0.1920 C   0  0  0  0  0  0  0  0  0  0  0  0
   -0.9840    0.1080   -0.6630 C   0  0  1  0  0  0  0  0  0  0  0  0
   -0.2950    1.3480   -0.5770 N   0  0  0  0  0  0  0  0  0  0  0  0
    1.0980    1.3330   -0.4100 C   0  0  0  0  0  0  0  0  0  0  0  0
    1.7660    0.0850   -0.0020 C   0  0  2  0  0  0  0  0  0  0  0  0
    3.0190   -0.0570   -0.6490 O   0  0  0  0  0  0  0  0  0  0  0  0
    1.0270   -1.1790   -0.2340 C   0  0  1  0  0  0  0  0  0  0  0  0
    1.5740   -2.1830    0.5920 O   0  0  0  0  0  0  0  0  0  0  0  0
   -0.4080   -0.9960    0.1620 C   0  0  1  0  0  0  0  0  0  0  0  0
   -0.5530   -0.7080    1.5110 O   0  0  0  0  0  0  0  0  0  0  0  0
  1  2  1  0
  3  2  1  1
  3  4  1  0
  3 10  1  0
  4  5  1  0
  5  6  1  0
  6  7  1  6
  6  8  1  0
  8  9  1  1
  8 10  1  0
 10 11  1  1
M  CHG  1   4   1
M  END
