
     RDKit          3D

 11 11  0  0  0  0  0  0  0  0999 V2000
   -0.7840   -1.8100    0.6030 N   0  0  0  0  0  0  0  0  0  0  0  0
   -0.8940   -0.4450    0.0710 C   0  0  1  0  0  0  0  0  0  0  0  0
   -2.2790   -0.0030    0.4090 C   0  0  0  0  0  0  0  0  0  0  0  0
   -2.4560    1.3350    0.5630 O   0  0  0  0  0  0  0  0  0  0  0  0
   -1.3160    1.9920    0.0990 C   0  0  0  0  0  0  0  0  0  0  0  0
   -0.2870    1.6820    0.9550 O   0  0  0  0  0  0  0  0  0  0  0  0
    0.1920    0.4070    0.6090 C   0  0  2  0  0  0  0  0  0  0  0  0
    1.3610    0.6040   -0.2930 C   0  0  2  0  0  0  0  0  0  0  0  0
    1.0930    1.2810   -1.4560 O   0  0  0  0  0  0  0  0  0  0  0  0
    2.0790   -0.6790   -0.6400 C   0  0  0  0  0  0  0  0  0  0  0  0
    2.3720   -1.4050    0.5360 O   0  0  0  0  0  0  0  0  0  0  0  0
  2  1  1  1
  2  3  1  0
  2  7  1  0
  3  4  1  0
  4  5  1  0
  5  6  1  0
  7  6  1  6
  7  8  1  0
  8  9  1  6
  8 10  1  0
 10 11  1  0
M  CHG  1   1   1
M  END
