
     RDKit          3D

 11 11  0  0  0  0  0  0  0  0999 V2000
   -0.6300    1.3050    0.8500 N   0  0  0  0  0  0  0  0  0  0  0  0
   -0.6840    0.0170    0.2150 C   0  0  2  0  0  0  0  0  0  0  0  0
   -1.8730   -0.0380   -0.7030 C   0  0  0  0  0  0  0  0  0  0  0  0
   -1.8560    0.9040   -1.7020 O   0  0  0  0  0  0  0  0  0  0  0  0
   -0.8700   -1.0840    1.2510 C   0  0  0  0  0  0  0  0  0  0  0  0
    0.4370   -1.5560    1.4520 O   0  0  0  0  0  0  0  0  0  0  0  0
    0.8460   -1.7520    0.1320 C   0  0  0  0  0  0  0  0  0  0  0  0
    0.5980   -0.3810   -0.4630 C   0  0  2  0  0  0  0  0  0  0  0  0
    1.7510    0.5200   -0.0720 C   0  0  2  0  0  0  0  0  0  0  0  0
    1.5060    1.8490   -0.4140 O   0  0  0  0  0  0  0  0  0  0  0  0
    2.9130    0.1420   -0.7420 O   0  0  0  0  0  0  0  0  0  0  0  0
  2  1  1  1
  2  3  1  0
  2  5  1  0
  2  8  1  0
  3  4  1  0
  5  6  1  0
  6  7  1  0
  8  7  1  1
  8  9  1  0
  9 10  1  6
  9 11  1  0
M  CHG  1   1   1
M  END
