
     RDKit          3D

 11 11  0  0  0  0  0  0  0  0999 V2000
    1.1830   -0.0570   -1.4730 N   0  0  0  0  0  0  0  0  0  0  0  0
    0.5550   -0.2260   -0.1510 C   0  0  2  0  0  0  0  0  0  0  0  0
    1.7410   -0.2920    0.8230 C   0  0  0  0  0  0  0  0  0  0  0  0
    2.5020    0.8640    0.7730 O   0  0  0  0  0  0  0  0  0  0  0  0
   -0.1470   -1.5370   -0.1690 C   0  0  0  0  0  0  0  0  0  0  0  0
   -1.6180   -1.4910   -0.2730 C   0  0  0  0  0  0  0  0  0  0  0  0
   -2.1600   -0.2470   -0.5150 O   0  0  0  0  0  0  0  0  0  0  0  0
   -1.7210    0.5810    0.5450 C   0  0  2  0  0  0  0  0  0  0  0  0
   -2.4850    1.7070    0.6860 O   0  0  0  0  0  0  0  0  0  0  0  0
   -0.2900    0.9540    0.1530 C   0  0  1  0  0  0  0  0  0  0  0  0
    0.1960    1.7680    1.1650 O   0  0  0  0  0  0  0  0  0  0  0  0
  2  1  1  6
  2  3  1  0
  2  5  1  0
  2 10  1  0
  3  4  1  0
  5  6  1  0
  6  7  1  0
  7  8  1  0
  8  9  1  6
  8 10  1  0
 10 11  1  1
M  CHG  1   1   1
M  END
