
     RDKit          3D

 11 11  0  0  0  0  0  0  0  0999 V2000
    2.9790    0.5220    0.2730 N   0  0  0  0  0  0  0  0  0  0  0  0
    2.0280   -0.5260   -0.0560 C   0  0  0  0  0  0  0  0  0  0  0  0
    0.7380    0.1630   -0.4480 C   0  0  2  0  0  0  0  0  0  0  0  0
    0.3130    0.9090    0.6190 O   0  0  0  0  0  0  0  0  0  0  0  0
   -0.6770    0.1720    1.2870 C   0  0  0  0  0  0  0  0  0  0  0  0
   -1.4890   -0.3330    0.0910 C   0  0  1  0  0  0  0  0  0  0  0  0
   -2.3750   -1.3190    0.4300 O   0  0  0  0  0  0  0  0  0  0  0  0
   -2.1570    0.8800   -0.5190 C   0  0  0  0  0  0  0  0  0  0  0  0
   -1.1900    1.8270   -0.8320 O   0  0  0  0  0  0  0  0  0  0  0  0
   -0.3550   -0.8210   -0.7990 C   0  0  2  0  0  0  0  0  0  0  0  0
    0.0170   -2.1050   -0.3830 O   0  0  0  0  0  0  0  0  0  0  0  0
  1  2  1  0
  3  2  1  1
  3  4  1  0
  3 10  1  0
  4  5  1  0
  5  6  1  0
  6  7  1  1
  6  8  1  0
  6 10  1  0
  8  9  1  0
 10 11  1  1
M  CHG  1   1   1
M  END
