
     RDKit          3D

 11 11  0  0  0  0  0  0  0  0999 V2000
   -1.0370    2.0700   -0.1790 N   0  0  0  0  0  0  0  0  0  0  0  0
   -0.3960    0.8590    0.2260 C   0  0  2  0  0  0  0  0  0  0  0  0
    1.0790    0.9630   -0.1780 C   0  0  0  0  0  0  0  0  0  0  0  0
    1.4060   -0.4720   -0.4670 C   0  0  1  0  0  0  0  0  0  0  0  0
    2.5010   -0.8830    0.5150 C   0  0  0  0  0  0  0  0  0  0  0  0
    3.6070   -0.0750    0.2930 O   0  0  0  0  0  0  0  0  0  0  0  0
    0.2700   -1.2220   -0.3200 O   0  0  0  0  0  0  0  0  0  0  0  0
   -0.8290   -0.3590   -0.5030 C   0  0  1  0  0  0  0  0  0  0  0  0
   -2.0150   -1.0500    0.1370 C   0  0  2  0  0  0  0  0  0  0  0  0
   -2.2150   -2.2800   -0.5020 O   0  0  0  0  0  0  0  0  0  0  0  0
   -3.1550   -0.2860   -0.1020 O   0  0  0  0  0  0  0  0  0  0  0  0
  2  1  1  6
  2  3  1  0
  2  8  1  0
  3  4  1  0
  4  5  1  1
  4  7  1  0
  5  6  1  0
  8  7  1  1
  8  9  1  0
  9 10  1  6
  9 11  1  0
M  CHG  1   1   1
M  END
