
     RDKit          3D

 23 24  0  0  0  0  0  0  0  0999 V2000
   -2.4770   -1.2960    1.2700 C   0  0  0  0  0  0  0  0  0  0  0  0
   -1.8440   -1.0690    0.1150 C   0  0  0  0  0  0  0  0  0  0  0  0
   -0.7450   -1.9350   -0.2650 C   0  0  0  0  0  0  0  0  0  0  0  0
   -0.8870   -3.2550   -0.0340 C   0  0  0  0  0  0  0  0  0  0  0  0
    0.4360   -4.2930   -0.4940 Cl  0  0  0  0  0  0  0  0  0  0  0  0
    0.5230   -1.4410   -0.8820 C   0  0  0  0  0  0  0  0  0  0  0  0
    1.3710   -1.0210    0.1370 O   0  0  0  0  0  0  0  0  0  0  0  0
    2.6910   -0.6730    0.2160 C   0  0  0  0  0  0  0  0  0  0  0  0
    3.5930   -1.4570    0.9140 C   0  0  0  0  0  0  0  0  0  0  0  0
    4.9390   -1.2100    1.0550 C   0  0  0  0  0  0  0  0  0  0  0  0
    5.4330   -0.0920    0.4540 C   0  0  0  0  0  0  0  0  0  0  0  0
    4.5640    0.7180   -0.2520 C   0  0  0  0  0  0  0  0  0  0  0  0
    3.2070    0.4920   -0.4060 C   0  0  0  0  0  0  0  0  0  0  0  0
    2.3900    1.3240   -1.1060 O   0  0  0  0  0  0  0  0  0  0  0  0
    1.6270    2.4320   -1.0030 C   0  0  0  0  0  0  0  0  0  0  0  0
    0.6390    2.5340   -0.0300 O   0  0  0  0  0  0  0  0  0  0  0  0
   -0.4250    1.7330   -0.3420 C   0  0  0  0  0  0  0  0  0  0  0  0
   -1.7600    2.3970   -0.1680 C   0  0  2  0  0  0  0  0  0  0  0  0
   -1.7880    3.2950    0.8790 O   0  0  0  0  0  0  0  0  0  0  0  0
   -2.6930    1.2160    0.2350 C   0  0  0  0  0  0  0  0  0  0  0  0
   -2.3860    0.0710   -0.6800 C   0  0  2  0  0  0  0  0  0  0  0  0
   -3.7520   -0.3650   -1.2860 C   0  0  0  0  0  0  0  0  0  0  0  0
   -4.6470   -0.6970   -0.2990 O   0  0  0  0  0  0  0  0  0  0  0  0
  1  2  2  0
  2  3  1  0
  2 21  1  0
  3  4  2  3
  3  6  1  0
  4  5  1  0
  6  7  1  0
  7  8  1  0
  8  9  2  0
  8 13  1  0
  9 10  1  0
 10 11  2  0
 11 12  1  0
 12 13  2  0
 13 14  1  0
 14 15  1  0
 15 16  1  0
 16 17  1  0
 17 18  1  0
 18 19  1  1
 18 20  1  0
 20 21  1  0
 21 22  1  1
 22 23  1  0
M  END
