
     RDKit          3D

 23 24  0  0  0  0  0  0  0  0999 V2000
    2.3370    2.5590   -2.5920 C   0  0  0  0  0  0  0  0  0  0  0  0
    1.7110    1.9180   -1.6210 C   0  0  0  0  0  0  0  0  0  0  0  0
    2.5480    1.2420   -0.6100 C   0  0  0  0  0  0  0  0  0  0  0  0
    2.3830   -0.0230   -0.2360 C   0  0  0  0  0  0  0  0  0  0  0  0
    3.2770   -0.6350    0.8020 C   0  0  0  0  0  0  0  0  0  0  0  0
    4.2980    0.3690    1.2900 C   0  0  0  0  0  0  0  0  0  0  0  0
    5.1030   -0.2460    2.2530 O   0  0  0  0  0  0  0  0  0  0  0  0
    1.3590   -0.9240   -0.8090 C   0  0  0  0  0  0  0  0  0  0  0  0
    0.2870   -1.3240    0.2180 C   0  0  0  0  0  0  0  0  0  0  0  0
   -0.8740   -1.4880   -0.5000 O   0  0  0  0  0  0  0  0  0  0  0  0
   -2.1570   -1.7890   -0.1970 C   0  0  0  0  0  0  0  0  0  0  0  0
   -2.7240   -2.8470   -0.8820 C   0  0  0  0  0  0  0  0  0  0  0  0
   -4.0360   -3.2580   -0.6590 C   0  0  0  0  0  0  0  0  0  0  0  0
   -4.7980   -2.6060    0.2630 C   0  0  0  0  0  0  0  0  0  0  0  0
   -4.2180   -1.5460    0.9430 C   0  0  0  0  0  0  0  0  0  0  0  0
   -5.3280   -0.8090    2.1360 Cl  0  0  0  0  0  0  0  0  0  0  0  0
   -2.9260   -1.0990    0.7580 C   0  0  0  0  0  0  0  0  0  0  0  0
   -2.4450   -0.0540    1.4650 O   0  0  0  0  0  0  0  0  0  0  0  0
   -1.9330    1.1950    1.1960 C   0  0  0  0  0  0  0  0  0  0  0  0
   -1.7210    1.6150   -0.2080 C   0  0  1  0  0  0  0  0  0  0  0  0
   -2.6210    2.6890   -0.4840 O   0  0  0  0  0  0  0  0  0  0  0  0
   -0.3560    2.1980   -0.3280 C   0  0  0  0  0  0  0  0  0  0  0  0
    0.3240    1.8680   -1.5320 O   0  0  0  0  0  0  0  0  0  0  0  0
  1  2  2  0
  2  3  1  0
  2 23  1  0
  3  4  2  0
  4  5  1  0
  4  8  1  0
  5  6  1  0
  6  7  1  0
  8  9  1  0
  9 10  1  0
 10 11  1  0
 11 12  2  0
 11 17  1  0
 12 13  1  0
 13 14  2  0
 14 15  1  0
 15 16  1  0
 15 17  2  0
 17 18  1  0
 18 19  1  0
 19 20  1  0
 20 21  1  1
 20 22  1  0
 22 23  1  0
M  END
