
     RDKit          3D

 23 24  0  0  0  0  0  0  0  0999 V2000
   -3.6030   -0.8300   -0.1960 C   0  0  0  0  0  0  0  0  0  0  0  0
   -2.3930   -0.6180   -1.0730 C   0  0  0  0  0  0  0  0  0  0  0  0
   -1.1580   -0.3010   -0.2180 C   0  0  1  0  0  0  0  0  0  0  0  0
   -1.4350    0.9030    0.5360 O   0  0  0  0  0  0  0  0  0  0  0  0
   -1.0710    2.1690    0.0870 C   0  0  0  0  0  0  0  0  0  0  0  0
   -2.0510    3.1360    0.0230 C   0  0  0  0  0  0  0  0  0  0  0  0
   -1.7740    4.4370   -0.4200 C   0  0  0  0  0  0  0  0  0  0  0  0
   -0.4850    4.7340   -0.7960 C   0  0  0  0  0  0  0  0  0  0  0  0
   -0.1200    6.3600   -1.3560 Cl  0  0  0  0  0  0  0  0  0  0  0  0
    0.4730    3.7480   -0.7210 C   0  0  0  0  0  0  0  0  0  0  0  0
    0.2300    2.4500   -0.2850 C   0  0  0  0  0  0  0  0  0  0  0  0
    1.2440    1.5060   -0.2310 O   0  0  0  0  0  0  0  0  0  0  0  0
    1.6340    0.7560    0.9070 C   0  0  0  0  0  0  0  0  0  0  0  0
    2.1590   -0.4650    0.7130 O   0  0  0  0  0  0  0  0  0  0  0  0
    2.7890   -1.3320   -0.0580 C   0  0  0  0  0  0  0  0  0  0  0  0
    4.2910   -1.4480   -0.2760 C   0  0  0  0  0  0  0  0  0  0  0  0
    4.9130   -1.7010    0.9690 O   0  0  0  0  0  0  0  0  0  0  0  0
    2.0900   -2.2340   -0.7470 C   0  0  0  0  0  0  0  0  0  0  0  0
    0.6420   -2.4170   -0.7740 C   0  0  1  0  0  0  0  0  0  0  0  0
    0.3640   -3.7580   -1.2100 O   0  0  0  0  0  0  0  0  0  0  0  0
   -0.0580   -2.3410    0.5070 C   0  0  0  0  0  0  0  0  0  0  0  0
   -0.8970   -1.3560    0.7670 C   0  0  0  0  0  0  0  0  0  0  0  0
   -1.5680   -1.3530    2.1140 C   0  0  0  0  0  0  0  0  0  0  0  0
  1  2  1  0
  3  2  1  1
  3  4  1  0
  3 22  1  0
  4  5  1  0
  5  6  2  0
  5 11  1  0
  6  7  1  0
  7  8  2  0
  8  9  1  0
  8 10  1  0
 10 11  2  0
 11 12  1  0
 12 13  1  0
 13 14  1  0
 14 15  1  0
 15 16  1  0
 15 18  2  0
 16 17  1  0
 18 19  1  0
 19 20  1  1
 19 21  1  0
 21 22  2  0
 22 23  1  0
M  END
