
     RDKit          3D

 24 27  0  0  0  0  0  0  0  0999 V2000
   -5.6350    1.0490   -1.8400 C   0  0  0  0  0  0  0  0  0  0  0  0
   -4.3040    0.8330   -1.6590 C   0  0  0  0  0  0  0  0  0  0  0  0
   -3.8670    0.2630   -0.3820 C   0  0  1  0  0  0  0  0  0  0  0  0
   -3.3230   -1.1310   -0.5080 C   0  0  0  0  0  0  0  0  0  0  0  0
   -1.9530   -1.2420    0.0870 N   0  0  2  0  0  0  0  0  0  0  0  0
   -2.2230   -0.9940    1.4990 C   0  0  0  0  0  0  0  0  0  0  0  0
   -2.8460    0.3500    1.7810 C   0  0  0  0  0  0  0  0  0  0  0  0
   -2.9250    1.0850    0.4310 C   0  0  1  0  0  0  0  0  0  0  0  0
   -1.4930    1.0860   -0.0630 C   0  0  0  0  0  0  0  0  0  0  0  0
   -1.1230   -0.3360   -0.5350 C   0  0  1  0  0  0  0  0  0  0  0  0
    0.3100   -0.4660   -0.8090 C   0  0  2  0  0  0  0  0  0  0  0  0
    0.3120   -1.6010   -1.7920 O   0  0  0  0  0  0  0  0  0  0  0  0
    1.2620   -0.9610    0.1460 C   0  0  0  0  0  0  0  0  0  0  0  0
    1.0460   -1.9980    1.0050 C   0  0  0  0  0  0  0  0  0  0  0  0
    2.0130   -2.5430    1.8450 C   0  0  0  0  0  0  0  0  0  0  0  0
    3.2340   -2.0310    1.8230 N   0  0  0  0  0  0  0  0  0  0  0  0
    3.5270   -1.0080    1.0040 C   0  0  0  0  0  0  0  0  0  0  0  0
    4.8250   -0.5390    1.1150 C   0  0  0  0  0  0  0  0  0  0  0  0
    5.1610    0.5510    0.3230 C   0  0  0  0  0  0  0  0  0  0  0  0
    4.2690    1.1360   -0.5210 C   0  0  0  0  0  0  0  0  0  0  0  0
    4.5950    2.2310   -1.3060 O   0  0  0  0  0  0  0  0  0  0  0  0
    5.8970    2.7980   -1.2500 C   0  0  0  0  0  0  0  0  0  0  0  0
    2.9730    0.6090   -0.5830 C   0  0  0  0  0  0  0  0  0  0  0  0
    2.5700   -0.4680    0.1710 C   0  0  0  0  0  0  0  0  0  0  0  0
  1  2  2  0
  3  2  1  6
  3  4  1  0
  3  8  1  0
  4  5  1  0
  5  6  1  1
  5 10  1  0
  6  7  1  0
  8  7  1  1
  8  9  1  0
 10  9  1  1
 10 11  1  0
 11 12  1  6
 11 13  1  0
 13 14  2  0
 13 24  1  0
 14 15  1  0
 15 16  2  0
 16 17  1  0
 17 18  2  0
 17 24  1  0
 18 19  1  0
 19 20  2  0
 20 21  1  0
 20 23  1  0
 21 22  1  0
 23 24  2  0
M  CHG  1   5   1
M  END
