
     RDKit          3D

 23 24  0  0  0  0  0  0  0  0999 V2000
    2.2270   -1.1820    1.4240 C   0  0  0  0  0  0  0  0  0  0  0  0
    2.4990    0.0170    0.6370 C   0  0  0  0  0  0  0  0  0  0  0  0
    2.1260    0.2910   -0.5950 C   0  0  0  0  0  0  0  0  0  0  0  0
    2.4910    1.5440   -1.2140 C   0  0  0  0  0  0  0  0  0  0  0  0
    1.7790    2.3600   -1.9470 C   0  0  0  0  0  0  0  0  0  0  0  0
    2.6230    3.8290   -2.5320 Cl  0  0  0  0  0  0  0  0  0  0  0  0
    0.3830    2.2550   -2.3510 C   0  0  0  0  0  0  0  0  0  0  0  0
   -0.6150    2.1710   -1.2290 C   0  0  0  0  0  0  0  0  0  0  0  0
   -0.1310    1.7510   -0.0310 O   0  0  0  0  0  0  0  0  0  0  0  0
   -0.5910    1.3120    1.1390 C   0  0  0  0  0  0  0  0  0  0  0  0
   -0.0610    1.7980    2.2070 O   0  0  0  0  0  0  0  0  0  0  0  0
   -1.6470    0.3220    1.4240 C   0  0  0  0  0  0  0  0  0  0  0  0
   -2.4350    0.5380    2.5560 C   0  0  0  0  0  0  0  0  0  0  0  0
   -3.4620   -0.2970    2.9370 C   0  0  0  0  0  0  0  0  0  0  0  0
   -3.7330   -1.3970    2.1780 C   0  0  0  0  0  0  0  0  0  0  0  0
   -2.9410   -1.6170    1.0390 C   0  0  0  0  0  0  0  0  0  0  0  0
   -3.2820   -2.7670    0.3180 O   0  0  0  0  0  0  0  0  0  0  0  0
   -1.9090   -0.7730    0.6600 C   0  0  0  0  0  0  0  0  0  0  0  0
   -1.1340   -1.1210   -0.5810 C   0  0  0  0  0  0  0  0  0  0  0  0
   -1.9810   -1.4060   -1.5280 O   0  0  0  0  0  0  0  0  0  0  0  0
    0.1960   -1.1410   -0.7020 O   0  0  0  0  0  0  0  0  0  0  0  0
    1.3260   -0.7740   -1.2960 C   0  0  2  0  0  0  0  0  0  0  0  0
    2.2520   -1.9850   -1.3900 C   0  0  0  0  0  0  0  0  0  0  0  0
  1  2  1  0
  2  3  2  3
  3  4  1  0
  3 22  1  0
  4  5  2  0
  5  6  1  0
  5  7  1  0
  7  8  1  0
  8  9  1  0
  9 10  1  0
 10 11  2  0
 10 12  1  0
 12 13  2  0
 12 18  1  0
 13 14  1  0
 14 15  2  0
 15 16  1  0
 16 17  1  0
 16 18  2  0
 18 19  1  0
 19 20  2  0
 19 21  1  0
 21 22  1  0
 22 23  1  1
M  END
