
     RDKit          3D

 23 25  0  0  0  0  0  0  0  0999 V2000
   -3.4450   -2.0090    0.3450 C   0  0  0  0  0  0  0  0  0  0  0  0
   -4.2380   -0.7270    0.2960 C   0  0  2  0  0  0  0  0  0  0  0  0
   -5.2660   -0.7820   -0.6380 O   0  0  0  0  0  0  0  0  0  0  0  0
   -5.5360    0.4140   -1.2520 C   0  0  0  0  0  0  0  0  0  0  0  0
   -5.4310    1.6080   -0.3190 C   0  0  0  0  0  0  0  0  0  0  0  0
   -4.0360    1.6910    0.0240 O   0  0  0  0  0  0  0  0  0  0  0  0
   -3.3890    0.4730    0.1520 C   0  0  0  0  0  0  0  0  0  0  0  0
   -2.0310    0.3750    0.1480 C   0  0  0  0  0  0  0  0  0  0  0  0
   -1.2410    1.5600    0.0070 C   0  0  0  0  0  0  0  0  0  0  0  0
    0.0130    1.7060   -0.0230 C   0  0  0  0  0  0  0  0  0  0  0  0
    0.5620    3.4220   -0.2200 Cl  0  0  0  0  0  0  0  0  0  0  0  0
    1.1010    0.7490    0.0710 C   0  0  0  0  0  0  0  0  0  0  0  0
    1.1220   -0.6130    0.2200 C   0  0  0  0  0  0  0  0  0  0  0  0
    2.4500   -1.0740    0.2570 C   0  0  0  0  0  0  0  0  0  0  0  0
    3.0460   -2.3080    0.3860 C   0  0  0  0  0  0  0  0  0  0  0  0
    4.4350   -2.4370    0.3860 C   0  0  0  0  0  0  0  0  0  0  0  0
    5.1320   -1.2640    0.2510 C   0  0  0  0  0  0  0  0  0  0  0  0
    6.5340   -1.3410    0.2450 O   0  0  0  0  0  0  0  0  0  0  0  0
    4.5760   -0.0230    0.1200 C   0  0  0  0  0  0  0  0  0  0  0  0
    5.3750    1.2200   -0.0240 C   0  0  0  0  0  0  0  0  0  0  0  0
    4.5280    2.3200   -0.1360 O   0  0  0  0  0  0  0  0  0  0  0  0
    3.1860    0.0710    0.1240 C   0  0  0  0  0  0  0  0  0  0  0  0
    2.3970    1.0920    0.0200 O   0  0  0  0  0  0  0  0  0  0  0  0
  2  1  1  6
  2  3  1  0
  2  7  1  0
  3  4  1  0
  4  5  1  0
  5  6  1  0
  6  7  1  0
  7  8  2  3
  8  9  1  0
  9 10  2  3
 10 11  1  0
 10 12  1  0
 12 13  2  0
 12 23  1  0
 13 14  1  0
 14 15  2  0
 14 22  1  0
 15 16  1  0
 16 17  2  0
 17 18  1  0
 17 19  1  0
 19 20  1  0
 19 22  2  0
 20 21  1  0
 22 23  1  0
M  END
