
     RDKit          3D

 23 23  0  0  0  0  0  0  0  0999 V2000
   -0.8310    3.9050    1.0190 C   0  0  0  0  0  0  0  0  0  0  0  0
   -2.0090    3.1170    0.5260 C   0  0  0  0  0  0  0  0  0  0  0  0
   -1.7940    2.0170   -0.2190 C   0  0  0  0  0  0  0  0  0  0  0  0
   -0.3550    1.7250   -0.4590 C   0  0  0  0  0  0  0  0  0  0  0  0
   -0.0790    0.7520   -1.3970 O   0  0  0  0  0  0  0  0  0  0  0  0
    1.0940    0.0260   -1.4540 C   0  0  0  0  0  0  0  0  0  0  0  0
    1.3180   -0.7310   -2.4330 O   0  0  0  0  0  0  0  0  0  0  0  0
    2.1620    0.0760   -0.3960 C   0  0  2  0  0  0  0  0  0  0  0  0
    3.4820    0.2200   -1.0930 C   0  0  0  0  0  0  0  0  0  0  0  0
    4.7000    0.3130   -0.2710 C   0  0  0  0  0  0  0  0  0  0  0  0
    5.0370   -0.7320    0.5340 O   0  0  0  0  0  0  0  0  0  0  0  0
    2.1290   -1.1750    0.4350 C   0  0  2  0  0  0  0  0  0  0  0  0
    2.0760   -2.2760   -0.4220 O   0  0  0  0  0  0  0  0  0  0  0  0
    0.9280   -1.1920    1.3940 C   0  0  0  0  0  0  0  0  0  0  0  0
   -0.2820   -1.7390    0.7340 C   0  0  0  0  0  0  0  0  0  0  0  0
   -1.5210   -0.9400    0.9030 C   0  0  0  0  0  0  0  0  0  0  0  0
   -1.5900   -0.1550    1.8130 O   0  0  0  0  0  0  0  0  0  0  0  0
   -2.6100   -1.1330   -0.0350 C   0  0  1  0  0  0  0  0  0  0  0  0
   -2.2110   -2.0480   -1.2090 C   0  0  0  0  0  0  0  0  0  0  0  0
   -3.6950   -1.9940    0.6800 C   0  0  0  0  0  0  0  0  0  0  0  0
   -3.2500    0.0340   -0.6240 C   0  0  0  0  0  0  0  0  0  0  0  0
   -2.9290    1.2850   -0.6970 C   0  0  0  0  0  0  0  0  0  0  0  0
   -4.1490    2.3160   -1.5520 Cl  0  0  0  0  0  0  0  0  0  0  0  0
  1  2  1  0
  2  3  2  3
  3  4  1  0
  3 22  1  0
  4  5  1  0
  5  6  1  0
  6  7  2  0
  6  8  1  0
  8  9  1  6
  8 12  1  0
  9 10  1  0
 10 11  1  0
 12 13  1  6
 12 14  1  0
 14 15  1  0
 15 16  1  0
 16 17  2  0
 16 18  1  0
 18 19  1  6
 18 20  1  0
 18 21  1  0
 21 22  2  0
 22 23  1  0
M  END
