
     RDKit          3D

  8  8  0  0  0  0  0  0  0  0999 V2000
    2.7250    0.1120   -0.4940 N   0  0  0  0  0  0  0  0  0  0  0  0
    1.3210    0.1450   -0.4590 C   0  0  0  0  0  0  0  0  0  0  0  0
    0.7030    1.0750   -1.1200 N   0  0  0  0  0  0  0  0  0  0  0  0
   -0.6720    1.2860   -1.2180 O   0  0  0  0  0  0  0  0  0  0  0  0
   -1.5390    1.3070   -0.0790 C   0  0  0  0  0  0  0  0  0  0  0  0
   -1.5590   -0.0100    0.6190 C   0  0  0  0  0  0  0  0  0  0  0  0
   -0.7500   -1.0230    0.0280 N   0  0  0  0  0  0  0  0  0  0  0  0
    0.6580   -0.9160    0.3520 C   0  0  0  0  0  0  0  0  0  0  0  0
  1  2  1  0
  2  3  2  0
  2  8  1  0
  3  4  1  0
  4  5  1  0
  5  6  1  0
  6  7  1  0
  7  8  1  0
M  CHG  1   7   1
M  END
