
     RDKit          3D

 25 27  0  0  0  0  0  0  0  0999 V2000
    8.0430    1.0310    0.1340 C   0  0  0  0  0  0  0  0  0  0  0  0
    7.1870   -0.1690    0.4180 C   0  0  0  0  0  0  0  0  0  0  0  0
    5.7410    0.1250    0.1010 C   0  0  0  0  0  0  0  0  0  0  0  0
    5.1940    1.2740   -0.3920 C   0  0  0  0  0  0  0  0  0  0  0  0
    3.8470    1.0350   -0.5030 C   0  0  0  0  0  0  0  0  0  0  0  0
    3.6170   -0.2490   -0.0750 C   0  0  0  0  0  0  0  0  0  0  0  0
    2.3270   -0.9620   -0.0060 C   0  0  0  0  0  0  0  0  0  0  0  0
    1.1800   -0.4100   -0.3670 N   0  0  0  0  0  0  0  0  0  0  0  0
   -0.0100   -1.0480   -0.3070 C   0  0  0  0  0  0  0  0  0  0  0  0
   -1.2690   -0.3920   -0.7130 C   0  0  2  0  0  0  0  0  0  0  0  0
   -0.9640    0.9530   -1.4090 C   0  0  0  0  0  0  0  0  0  0  0  0
   -2.3350    1.3360   -1.9680 C   0  0  0  0  0  0  0  0  0  0  0  0
   -3.2390    1.6320   -0.8310 C   0  0  0  0  0  0  0  0  0  0  0  0
   -3.2040    0.7960    0.3070 N   0  0  1  0  0  0  0  0  0  0  0  0
   -4.4360    0.0510    0.5260 C   0  0  1  0  0  0  0  0  0  0  0  0
   -4.9090   -0.7290   -0.6440 C   0  0  0  0  0  0  0  0  0  0  0  0
   -4.3000   -0.9180    1.6930 C   0  0  0  0  0  0  0  0  0  0  0  0
   -5.5640    0.9940    0.9320 C   0  0  0  0  0  0  0  0  0  0  0  0
   -2.0220    0.0200    0.5270 C   0  0  0  0  0  0  0  0  0  0  0  0
   -0.0320   -2.3410    0.1540 C   0  0  0  0  0  0  0  0  0  0  0  0
   -1.5470   -3.2590    0.2570 Cl  0  0  0  0  0  0  0  0  0  0  0  0
    1.1290   -2.9200    0.5270 N   0  0  0  0  0  0  0  0  0  0  0  0
    2.2930   -2.2600    0.4550 C   0  0  0  0  0  0  0  0  0  0  0  0
    3.4840   -2.8590    0.8390 O   0  0  0  0  0  0  0  0  0  0  0  0
    4.7920   -0.7320    0.2700 O   0  0  0  0  0  0  0  0  0  0  0  0
  1  2  1  0
  2  3  1  0
  3  4  2  0
  3 25  1  0
  4  5  1  0
  5  6  2  0
  6  7  1  0
  6 25  1  0
  7  8  2  0
  7 23  1  0
  8  9  1  0
 10  9  1  1
  9 20  2  0
 10 11  1  0
 10 19  1  0
 11 12  1  0
 12 13  1  0
 14 13  1  6
 14 15  1  0
 14 19  1  0
 15 16  1  6
 15 17  1  0
 15 18  1  0
 20 21  1  0
 20 22  1  0
 22 23  2  0
 23 24  1  0
M  CHG  1  14   1
M  END
