
     RDKit          3D

  8  8  0  0  0  0  0  0  0  0999 V2000
   -2.3230    1.2230   -0.4450 N   0  0  0  0  0  0  0  0  0  0  0  0
   -1.1980    0.6640   -0.2570 C   0  0  0  0  0  0  0  0  0  0  0  0
   -1.1060   -0.6270    0.4840 C   0  0  0  0  0  0  0  0  0  0  0  0
    0.2600   -0.6710    1.0290 N   0  0  0  0  0  0  0  0  0  0  0  0
    1.1240   -0.7370   -0.1410 C   0  0  0  0  0  0  0  0  0  0  0  0
    1.1340    0.6340   -0.7190 C   0  0  0  0  0  0  0  0  0  0  0  0
    2.2970    1.2110   -1.1980 O   0  0  0  0  0  0  0  0  0  0  0  0
   -0.0020    1.2560   -0.7490 N   0  0  0  0  0  0  0  0  0  0  0  0
  1  2  2  0
  2  3  1  0
  2  8  1  0
  3  4  1  0
  4  5  1  0
  5  6  1  0
  6  7  1  0
  6  8  2  0
M  CHG  1   4   1
M  END
