
     RDKit          3D

  8  8  0  0  0  0  0  0  0  0999 V2000
    2.5570    2.3380    0.2970 N   0  0  0  0  0  0  0  0  0  0  0  0
    1.8790    1.4250    0.0970 C   0  0  0  0  0  0  0  0  0  0  0  0
    1.0330    0.2800   -0.1740 C   0  0  1  0  0  0  0  0  0  0  0  0
    0.9660   -0.6000    0.9060 O   0  0  0  0  0  0  0  0  0  0  0  0
   -0.0220   -1.4470    0.4840 N   0  0  0  0  0  0  0  0  0  0  0  0
   -1.1320   -0.5750    0.1070 C   0  0  0  0  0  0  0  0  0  0  0  0
   -0.4030    0.6590   -0.3010 C   0  0  0  0  0  0  0  0  0  0  0  0
   -0.8930    1.7920   -0.6760 N   0  0  0  0  0  0  0  0  0  0  0  0
  1  2  3  0
  3  2  1  1
  3  4  1  0
  3  7  1  0
  4  5  1  0
  5  6  1  0
  6  7  1  0
  7  8  2  0
M  CHG  1   5   1
M  END
