
     RDKit          3D

  8  8  0  0  0  0  0  0  0  0999 V2000
    2.2720   -0.1210   -0.4710 N   0  0  0  0  0  0  0  0  0  0  0  0
    0.8840   -0.0500   -0.1830 C   0  0  0  0  0  0  0  0  0  0  0  0
    0.1210   -1.1830    0.0610 C   0  0  0  0  0  0  0  0  0  0  0  0
   -1.1920   -1.0840    0.3300 N   0  0  0  0  0  0  0  0  0  0  0  0
   -1.8240    0.1000    0.3760 C   0  0  0  0  0  0  0  0  0  0  0  0
   -3.0600    0.1890    0.6300 O   0  0  0  0  0  0  0  0  0  0  0  0
   -1.0760    1.2350    0.1350 C   0  0  0  0  0  0  0  0  0  0  0  0
    0.2370    1.1200   -0.1330 N   0  0  0  0  0  0  0  0  0  0  0  0
  1  2  1  0
  2  3  2  0
  2  8  1  0
  3  4  1  0
  4  5  1  0
  5  6  2  0
  5  7  1  0
  7  8  2  0
M  CHG  1   8   1
M  END
