
     RDKit          3D

  7  7  0  0  0  0  0  0  0  0999 V2000
    2.3780    0.2670   -0.1600 N   0  0  0  0  0  0  0  0  0  0  0  0
    0.9670    0.2050   -0.0440 C   0  0  0  0  0  0  0  0  0  0  0  0
    0.3970   -0.9320   -0.2320 N   0  0  0  0  0  0  0  0  0  0  0  0
   -0.9880   -1.2210   -0.1670 C   0  0  0  0  0  0  0  0  0  0  0  0
   -1.7890   -0.0350    0.1570 C   0  0  0  0  0  0  0  0  0  0  0  0
   -1.2280    1.1330    0.3530 C   0  0  0  0  0  0  0  0  0  0  0  0
    0.1650    1.3310    0.2680 N   0  0  0  0  0  0  0  0  0  0  0  0
  1  2  1  0
  2  3  2  0
  2  7  1  0
  3  4  1  0
  4  5  1  0
  5  6  2  0
  6  7  1  0
M  CHG  1   3   1
M  END
