
     RDKit          3D

  8  8  0  0  0  0  0  0  0  0999 V2000
    2.4700    0.4810    0.0980 C   0  0  0  0  0  0  0  0  0  0  0  0
    1.1050   -0.0320    0.0100 N   0  0  0  0  0  0  0  0  0  0  0  0
    0.6810   -1.2600   -0.1210 N   0  0  0  0  0  0  0  0  0  0  0  0
   -0.6610   -1.3290   -0.1660 C   0  0  0  0  0  0  0  0  0  0  0  0
   -1.1350   -0.0300   -0.0540 C   0  0  0  0  0  0  0  0  0  0  0  0
   -2.4710    0.4370   -0.0470 N   0  0  0  0  0  0  0  0  0  0  0  0
    0.0070    0.7460    0.0530 C   0  0  0  0  0  0  0  0  0  0  0  0
   -0.0030    2.0150    0.1760 O   0  0  0  0  0  0  0  0  0  0  0  0
  1  2  1  0
  2  3  1  0
  2  7  1  0
  3  4  1  0
  4  5  2  0
  5  6  1  0
  5  7  1  0
  7  8  2  0
M  CHG  1   6   1
M  END
