
     RDKit          3D

 19 19  0  0  0  0  0  0  0  0999 V2000
   -2.9160    0.5560   -1.6400 C   0  0  0  0  0  0  0  0  0  0  0  0
   -2.0910   -0.4410   -1.1530 O   0  0  0  0  0  0  0  0  0  0  0  0
   -2.0620   -0.5710    0.1950 C   0  0  1  0  0  0  0  0  0  0  0  0
   -2.5450   -1.8970    0.7210 C   0  0  0  0  0  0  0  0  0  0  0  0
   -3.8190   -2.1190    0.2180 O   0  0  0  0  0  0  0  0  0  0  0  0
   -0.7380   -0.3490    0.7220 N   0  0  0  0  0  0  0  0  0  0  0  0
    0.1470    0.2100   -0.2960 C   0  0  2  0  0  0  0  0  0  0  0  0
    1.5410   -0.2580   -0.0470 C   0  0  0  0  0  0  0  0  0  0  0  0
    1.8290   -1.6590   -0.2110 C   0  0  0  0  0  0  0  0  0  0  0  0
    0.9330   -2.5220   -0.6440 C   0  0  0  0  0  0  0  0  0  0  0  0
    1.2690   -3.8820   -0.7830 O   0  0  0  0  0  0  0  0  0  0  0  0
    2.4190    0.6170    0.3560 C   0  0  0  0  0  0  0  0  0  0  0  0
    3.8200    0.3250    0.6430 C   0  0  0  0  0  0  0  0  0  0  0  0
    4.0820    0.6420    1.9970 O   0  0  0  0  0  0  0  0  0  0  0  0
    0.0650    1.7040   -0.2390 C   0  0  0  0  0  0  0  0  0  0  0  0
    0.0340    2.5000   -1.3220 N   0  0  0  0  0  0  0  0  0  0  0  0
   -0.0570    3.7830   -0.9430 C   0  0  0  0  0  0  0  0  0  0  0  0
   -0.0810    3.7580    0.4000 N   0  0  0  0  0  0  0  0  0  0  0  0
   -0.0080    2.5130    0.8270 N   0  0  0  0  0  0  0  0  0  0  0  0
  1  2  1  0
  2  3  1  0
  3  4  1  6
  3  6  1  0
  4  5  1  0
  7  6  1  1
  7  8  1  0
  7 15  1  0
  8  9  1  0
  8 12  2  3
  9 10  2  3
 10 11  1  0
 12 13  1  0
 13 14  1  0
 15 16  2  0
 15 19  1  0
 16 17  1  0
 17 18  2  0
 18 19  1  0
M  CHG  1   6   1
M  END
