
     RDKit          3D

 18 18  0  0  0  0  0  0  0  0999 V2000
   -0.2860   -3.2070    1.0230 C   0  0  0  0  0  0  0  0  0  0  0  0
   -1.2990   -2.1690    0.9440 N   0  0  2  0  0  0  0  0  0  0  0  0
   -1.9490   -2.1450   -0.3040 C   0  0  0  0  0  0  0  0  0  0  0  0
   -2.4140   -3.1620   -0.9480 O   0  0  0  0  0  0  0  0  0  0  0  0
   -2.0050   -0.7970   -0.7310 N   0  0  0  0  0  0  0  0  0  0  0  0
   -0.8020   -0.1450   -0.1460 C   0  0  2  0  0  0  0  0  0  0  0  0
   -1.0900    1.2930    0.1650 C   0  0  0  0  0  0  0  0  0  0  0  0
   -1.4850    2.1050   -1.0370 C   0  0  0  0  0  0  0  0  0  0  0  0
   -1.7370    3.5290   -0.5370 C   0  0  0  0  0  0  0  0  0  0  0  0
   -2.1100    4.3770   -1.5600 O   0  0  0  0  0  0  0  0  0  0  0  0
    0.2800   -0.4010   -1.0910 C   0  0  0  0  0  0  0  0  0  0  0  0
    1.6420    0.0950   -0.8560 C   0  0  0  0  0  0  0  0  0  0  0  0
    2.3140   -0.4140    0.3080 N   0  0  0  0  0  0  0  0  0  0  0  0
    3.6390    0.0060    0.6670 C   0  0  0  0  0  0  0  0  0  0  0  0
    4.3030   -0.4900    1.8090 N   0  0  0  0  0  0  0  0  0  0  0  0
    4.1640    0.8560   -0.1220 O   0  0  0  0  0  0  0  0  0  0  0  0
   -0.7660   -0.8820    1.1310 C   0  0  0  0  0  0  0  0  0  0  0  0
   -0.3510   -0.4710    2.1980 O   0  0  0  0  0  0  0  0  0  0  0  0
  2  1  1  6
  2  3  1  0
  2 17  1  0
  3  4  2  0
  3  5  1  0
  5  6  1  0
  6  7  1  1
  6 11  1  0
  6 17  1  0
  7  8  1  0
  8  9  1  0
  9 10  1  0
 11 12  1  0
 12 13  1  0
 13 14  1  0
 14 15  1  0
 14 16  2  0
 17 18  2  0
M  CHG  1   2   1
M  END
