
     RDKit          3D

 19 19  0  0  0  0  0  0  0  0999 V2000
   -5.5670    2.1560   -0.9700 N   0  0  0  0  0  0  0  0  0  0  0  0
   -4.6160    1.8820    0.0290 C   0  0  0  0  0  0  0  0  0  0  0  0
   -4.5440    2.5900    1.0590 O   0  0  0  0  0  0  0  0  0  0  0  0
   -3.6550    0.7150   -0.1250 C   0  0  1  0  0  0  0  0  0  0  0  0
   -3.9780    0.1360   -1.3430 O   0  0  0  0  0  0  0  0  0  0  0  0
   -2.2960    1.2450   -0.2320 C   0  0  0  0  0  0  0  0  0  0  0  0
   -1.1970    0.5600   -0.2230 C   0  0  0  0  0  0  0  0  0  0  0  0
   -1.0400   -0.8650   -0.1070 C   0  0  0  0  0  0  0  0  0  0  0  0
   -1.9470   -1.8830    0.0130 C   0  0  0  0  0  0  0  0  0  0  0  0
   -1.2690   -3.0670    0.0910 N   0  0  0  0  0  0  0  0  0  0  0  0
    0.0370   -2.8000    0.0220 C   0  0  0  0  0  0  0  0  0  0  0  0
    0.9360   -3.7060    0.0690 O   0  0  0  0  0  0  0  0  0  0  0  0
    0.2010   -1.4800   -0.0980 N   0  0  0  0  0  0  0  0  0  0  0  0
    1.4440   -0.8100   -0.1990 C   0  0  0  0  0  0  0  0  0  0  0  0
    2.6180   -1.3910   -0.1900 C   0  0  0  0  0  0  0  0  0  0  0  0
    3.8160   -0.5820   -0.3020 N   0  0  0  0  0  0  0  0  0  0  0  0
    4.0680   -0.0400    1.0160 C   0  0  0  0  0  0  0  0  0  0  0  0
    4.9140    1.2170    0.8810 C   0  0  0  0  0  0  0  0  0  0  0  0
    4.2460    2.1630    0.1130 O   0  0  0  0  0  0  0  0  0  0  0  0
  1  2  1  0
  2  3  2  0
  2  4  1  0
  4  5  1  6
  4  6  1  0
  6  7  2  3
  7  8  1  0
  8  9  2  0
  8 13  1  0
  9 10  1  0
 10 11  1  0
 11 12  2  0
 11 13  1  0
 13 14  1  0
 14 15  2  3
 15 16  1  0
 16 17  1  0
 17 18  1  0
 18 19  1  0
M  CHG  1  16   1
M  END
