
     RDKit          3D

 19 20  0  0  0  0  0  0  0  0999 V2000
   -2.6320   -0.8070   -1.8310 N   0  0  0  0  0  0  0  0  0  0  0  0
   -2.7830   -0.1820   -0.5580 C   0  0  0  0  0  0  0  0  0  0  0  0
   -3.9580   -0.0280    0.0270 C   0  0  0  0  0  0  0  0  0  0  0  0
   -5.2520   -0.4240   -0.4490 N   0  0  0  0  0  0  0  0  0  0  0  0
   -3.7940    0.6560    1.3610 C   0  0  0  0  0  0  0  0  0  0  0  0
   -2.3190    0.3430    1.6730 C   0  0  0  0  0  0  0  0  0  0  0  0
   -1.7490    0.3830    0.2980 C   0  0  2  0  0  0  0  0  0  0  0  0
   -1.5030    1.7490   -0.1210 N   0  0  0  0  0  0  0  0  0  0  0  0
   -0.1080    1.9690    0.0160 C   0  0  0  0  0  0  0  0  0  0  0  0
    0.4900    3.1010   -0.0190 O   0  0  0  0  0  0  0  0  0  0  0  0
    0.5420    0.7320    0.2010 N   0  0  0  0  0  0  0  0  0  0  0  0
    1.9820    0.5580    0.3780 C   0  0  0  0  0  0  0  0  0  0  0  0
    2.5930    0.3750   -0.9890 C   0  0  0  0  0  0  0  0  0  0  0  0
    3.9550    0.2000   -0.9550 O   0  0  0  0  0  0  0  0  0  0  0  0
    4.3740   -0.8910   -0.2400 C   0  0  0  0  0  0  0  0  0  0  0  0
    5.8930   -0.9370   -0.3020 C   0  0  0  0  0  0  0  0  0  0  0  0
    6.3070   -2.0480    0.4270 O   0  0  0  0  0  0  0  0  0  0  0  0
   -0.4390   -0.2960    0.1830 C   0  0  0  0  0  0  0  0  0  0  0  0
   -0.2610   -1.5200    0.0910 O   0  0  0  0  0  0  0  0  0  0  0  0
  1  2  1  0
  2  3  2  0
  2  7  1  0
  3  4  1  0
  3  5  1  0
  5  6  1  0
  7  6  1  1
  7  8  1  0
  7 18  1  0
  8  9  1  0
  9 10  2  0
  9 11  1  0
 11 12  1  0
 11 18  1  0
 12 13  1  0
 13 14  1  0
 14 15  1  0
 15 16  1  0
 16 17  1  0
 18 19  2  0
M  CHG  1   4   1
M  END
