
     RDKit          3D

 19 19  0  0  0  0  0  0  0  0999 V2000
    2.1370    1.8180    1.1190 C   0  0  0  0  0  0  0  0  0  0  0  0
    2.2260    0.4070    1.1550 O   0  0  0  0  0  0  0  0  0  0  0  0
    2.3520   -0.2780   -0.0260 C   0  0  0  0  0  0  0  0  0  0  0  0
    1.1270   -0.5250   -0.7990 C   0  0  0  0  0  0  0  0  0  0  0  0
    1.2690   -1.2140   -2.0100 O   0  0  0  0  0  0  0  0  0  0  0  0
   -0.0670   -0.1570   -0.4510 C   0  0  0  0  0  0  0  0  0  0  0  0
   -1.2010   -0.4550   -1.2960 C   0  0  0  0  0  0  0  0  0  0  0  0
   -2.4250   -0.0960   -0.9710 C   0  0  0  0  0  0  0  0  0  0  0  0
   -2.7690    0.6070    0.2130 N   0  0  0  0  0  0  0  0  0  0  0  0
   -4.0840    0.4910    0.8110 C   0  0  2  0  0  0  0  0  0  0  0  0
   -4.0430   -0.7750    1.6770 C   0  0  0  0  0  0  0  0  0  0  0  0
   -5.1500    0.3910   -0.1170 N   0  0  0  0  0  0  0  0  0  0  0  0
   -4.8270    0.0210   -1.3980 N   0  0  0  0  0  0  0  0  0  0  0  0
   -3.5560   -0.4190   -1.8590 C   0  0  0  0  0  0  0  0  0  0  0  0
   -3.3580   -1.0320   -2.9190 O   0  0  0  0  0  0  0  0  0  0  0  0
    3.4860   -0.7230   -0.5020 C   0  0  0  0  0  0  0  0  0  0  0  0
    3.4950   -1.4230   -1.7500 O   0  0  0  0  0  0  0  0  0  0  0  0
    4.8180   -0.5970    0.1070 C   0  0  0  0  0  0  0  0  0  0  0  0
    4.8960    0.0560    1.3690 N   0  0  0  0  0  0  0  0  0  0  0  0
  1  2  1  0
  2  3  1  0
  3  4  1  0
  3 16  2  3
  4  5  1  0
  4  6  2  3
  6  7  1  0
  7  8  2  3
  8  9  1  0
  8 14  1  0
  9 10  1  0
 10 11  1  1
 10 12  1  0
 12 13  1  0
 13 14  1  0
 14 15  2  0
 16 17  1  0
 16 18  1  0
 18 19  1  0
M  CHG  1  19   1
M  END
