
     RDKit          3D

 19 20  0  0  0  0  0  0  0  0999 V2000
   -4.1300    3.6820   -0.4530 C   0  0  0  0  0  0  0  0  0  0  0  0
   -2.7550    3.2780   -0.3120 O   0  0  0  0  0  0  0  0  0  0  0  0
   -2.3790    1.9510   -0.5310 C   0  0  0  0  0  0  0  0  0  0  0  0
   -3.3370    1.2150   -0.8610 O   0  0  0  0  0  0  0  0  0  0  0  0
   -1.0350    1.4500   -0.3780 C   0  0  0  0  0  0  0  0  0  0  0  0
   -0.0170    2.2930   -0.1780 N   0  0  0  0  0  0  0  0  0  0  0  0
    1.0760    1.5690    0.0320 C   0  0  0  0  0  0  0  0  0  0  0  0
    2.4040    1.7770    0.2640 N   0  0  0  0  0  0  0  0  0  0  0  0
    2.9940    0.5900    0.3460 C   0  0  0  0  0  0  0  0  0  0  0  0
    4.4350    0.2580    0.5960 C   0  0  0  0  0  0  0  0  0  0  0  0
    5.1030    1.4610    0.7520 O   0  0  0  0  0  0  0  0  0  0  0  0
    1.9840   -0.3590    0.1540 C   0  0  0  0  0  0  0  0  0  0  0  0
    2.2590   -1.7810    0.1140 C   0  0  0  0  0  0  0  0  0  0  0  0
    0.7890    0.2590   -0.0340 N   0  0  0  0  0  0  0  0  0  0  0  0
   -0.5340    0.1380   -0.2850 C   0  0  0  0  0  0  0  0  0  0  0  0
   -1.2990   -1.1100   -0.5180 C   0  0  2  0  0  0  0  0  0  0  0  0
   -2.6830   -0.8990   -0.4350 O   0  0  0  0  0  0  0  0  0  0  0  0
   -1.0290   -2.2580    0.4220 C   0  0  0  0  0  0  0  0  0  0  0  0
   -1.9220   -3.4090    0.1130 N   0  0  0  0  0  0  0  0  0  0  0  0
  1  2  1  0
  2  3  1  0
  3  4  2  0
  3  5  1  0
  5  6  1  0
  5 15  2  0
  6  7  2  0
  7  8  1  0
  7 14  1  0
  8  9  1  0
  9 10  1  0
  9 12  2  0
 10 11  1  0
 12 13  1  0
 12 14  1  0
 14 15  1  0
 15 16  1  0
 16 17  1  1
 16 18  1  0
 18 19  1  0
M  CHG  1  19   1
M  END
