
     RDKit          3D

 19 19  0  0  0  0  0  0  0  0999 V2000
    6.2760    0.6220    0.5280 C   0  0  0  0  0  0  0  0  0  0  0  0
    5.7470    0.1700   -0.6530 O   0  0  0  0  0  0  0  0  0  0  0  0
    4.4060   -0.1160   -0.5970 C   0  0  0  0  0  0  0  0  0  0  0  0
    3.9470   -0.8970    0.5950 C   0  0  1  0  0  0  0  0  0  0  0  0
    4.0020   -0.2260    1.8000 O   0  0  0  0  0  0  0  0  0  0  0  0
    2.6210   -1.5670    0.3540 C   0  0  0  0  0  0  0  0  0  0  0  0
    1.6360   -0.5730    0.6680 O   0  0  0  0  0  0  0  0  0  0  0  0
    0.9170   -0.3860   -0.4800 N   0  0  0  0  0  0  0  0  0  0  0  0
   -0.4010    0.0880   -0.5390 C   0  0  0  0  0  0  0  0  0  0  0  0
   -0.5360    1.1000   -1.5750 N   0  0  0  0  0  0  0  0  0  0  0  0
   -1.2850   -0.3000    0.2310 N   0  0  0  0  0  0  0  0  0  0  0  0
   -2.6550    0.0990    0.2470 C   0  0  0  0  0  0  0  0  0  0  0  0
   -3.0430    1.2960   -0.2900 C   0  0  0  0  0  0  0  0  0  0  0  0
   -4.4230    1.6690   -0.3020 C   0  0  0  0  0  0  0  0  0  0  0  0
   -5.3320    0.7310    0.2460 C   0  0  0  0  0  0  0  0  0  0  0  0
   -6.7360    1.0650    0.2640 O   0  0  0  0  0  0  0  0  0  0  0  0
   -4.9600   -0.4580    0.7810 C   0  0  0  0  0  0  0  0  0  0  0  0
   -5.8580   -1.3130    1.4060 N   0  0  0  0  0  0  0  0  0  0  0  0
   -3.6030   -0.7420    0.7670 C   0  0  0  0  0  0  0  0  0  0  0  0
  1  2  1  0
  2  3  1  0
  3  4  1  0
  4  5  1  1
  4  6  1  0
  6  7  1  0
  7  8  1  0
  8  9  1  0
  9 10  1  0
  9 11  2  3
 11 12  1  0
 12 13  2  0
 12 19  1  0
 13 14  1  0
 14 15  2  0
 15 16  1  0
 15 17  1  0
 17 18  1  0
 17 19  2  0
M  CHG  1  11   1
M  END
