
     RDKit          3D

 17 18  0  0  0  0  0  0  0  0999 V2000
    5.7610   -0.9250    0.0850 C   0  0  0  0  0  0  0  0  0  0  0  0
    4.7060   -0.4330    1.0220 C   0  0  0  0  0  0  0  0  0  0  0  0
    3.8640    0.6730    0.4130 C   0  0  0  0  0  0  0  0  0  0  0  0
    3.1760    0.2200   -0.8050 C   0  0  0  0  0  0  0  0  0  0  0  0
    1.8610    0.2180   -0.9210 C   0  0  0  0  0  0  0  0  0  0  0  0
    0.9690    0.6730    0.1690 C   0  0  1  0  0  0  0  0  0  0  0  0
    0.7690    2.1280    0.0770 N   0  0  0  0  0  0  0  0  0  0  0  0
   -0.3940    0.0560    0.0480 C   0  0  0  0  0  0  0  0  0  0  0  0
   -0.6370   -1.0630   -0.6950 C   0  0  0  0  0  0  0  0  0  0  0  0
   -1.9210   -1.6120   -0.7930 C   0  0  0  0  0  0  0  0  0  0  0  0
   -2.9580   -1.0060   -0.1240 C   0  0  0  0  0  0  0  0  0  0  0  0
   -2.6910    0.1170    0.6170 C   0  0  0  0  0  0  0  0  0  0  0  0
   -1.4470    0.6210    0.6920 N   0  0  0  0  0  0  0  0  0  0  0  0
   -3.8160    0.7840    1.3500 C   0  0  0  0  0  0  0  0  0  0  0  0
   -5.0600    0.6110    0.5080 C   0  0  0  0  0  0  0  0  0  0  0  0
   -5.3800   -0.8460    0.4100 C   0  0  0  0  0  0  0  0  0  0  0  0
   -4.2880   -1.5570   -0.2130 N   0  0  0  0  0  0  0  0  0  0  0  0
  1  2  1  0
  2  3  1  0
  3  4  1  0
  4  5  2  3
  5  6  1  0
  6  7  1  6
  6  8  1  0
  8  9  2  0
  8 13  1  0
  9 10  1  0
 10 11  2  0
 11 12  1  0
 11 17  1  0
 12 13  2  0
 12 14  1  0
 14 15  1  0
 15 16  1  0
 16 17  1  0
M  CHG  1   7   1
M  END
