
     RDKit          3D

 18 19  0  0  0  0  0  0  0  0999 V2000
   -4.4950    1.3320    0.2950 C   0  0  0  0  0  0  0  0  0  0  0  0
   -3.8930    0.0530   -0.2280 C   0  0  1  0  0  0  0  0  0  0  0  0
   -5.0540   -0.7870   -0.7300 C   0  0  0  0  0  0  0  0  0  0  0  0
   -2.9910    0.3100   -1.4090 C   0  0  0  0  0  0  0  0  0  0  0  0
   -1.6190   -0.2630   -1.1050 C   0  0  0  0  0  0  0  0  0  0  0  0
   -1.1300    0.4430    0.1360 C   0  0  2  0  0  0  0  0  0  0  0  0
    0.2930    0.3850    0.2980 N   0  0  0  0  0  0  0  0  0  0  0  0
    1.0780    1.5470    0.3710 C   0  0  0  0  0  0  0  0  0  0  0  0
    2.5280    1.3510    0.5450 C   0  0  0  0  0  0  0  0  0  0  0  0
    3.0950    0.1710    0.6280 C   0  0  0  0  0  0  0  0  0  0  0  0
    4.5900    0.0820    0.8060 C   0  0  0  0  0  0  0  0  0  0  0  0
    5.1840   -0.6790   -0.3640 C   0  0  0  0  0  0  0  0  0  0  0  0
    6.6170   -0.7740   -0.2100 N   0  0  0  0  0  0  0  0  0  0  0  0
    2.3050   -0.9980    0.5510 N   0  0  0  0  0  0  0  0  0  0  0  0
    0.8940   -0.8910    0.3850 C   0  0  0  0  0  0  0  0  0  0  0  0
    0.2570   -1.9700    0.3250 O   0  0  0  0  0  0  0  0  0  0  0  0
   -1.8960   -0.1630    1.2880 C   0  0  0  0  0  0  0  0  0  0  0  0
   -3.2170   -0.7490    0.8520 C   0  0  0  0  0  0  0  0  0  0  0  0
  2  1  1  1
  2  3  1  0
  2  4  1  0
  2 18  1  0
  4  5  1  0
  5  6  1  0
  6  7  1  1
  6 17  1  0
  7  8  1  0
  7 15  1  0
  8  9  1  0
  9 10  2  0
 10 11  1  0
 10 14  1  0
 11 12  1  0
 12 13  1  0
 14 15  1  0
 15 16  2  0
 17 18  1  0
M  CHG  1  13   1
M  END
