
     RDKit          3D

 18 18  0  0  0  0  0  0  0  0999 V2000
   -4.2310   -1.6450    0.0010 C   0  0  0  0  0  0  0  0  0  0  0  0
   -3.7850   -0.5640    0.6200 C   0  0  0  0  0  0  0  0  0  0  0  0
   -3.9560   -0.2540    2.0180 N   0  0  0  0  0  0  0  0  0  0  0  0
   -3.2210    0.9410    2.2310 C   0  0  0  0  0  0  0  0  0  0  0  0
   -2.1650    0.9930    1.1650 C   0  0  1  0  0  0  0  0  0  0  0  0
   -1.1540   -0.0070    1.2870 N   0  0  0  0  0  0  0  0  0  0  0  0
    0.2460    0.3010    1.1920 C   0  0  0  0  0  0  0  0  0  0  0  0
    0.4940    1.4920    0.9980 O   0  0  0  0  0  0  0  0  0  0  0  0
    1.2240   -0.6950    1.3150 N   0  0  0  0  0  0  0  0  0  0  0  0
    2.6260   -0.4960    1.1880 C   0  0  0  0  0  0  0  0  0  0  0  0
    3.1070   -0.1430   -0.1560 C   0  0  2  0  0  0  0  0  0  0  0  0
    2.6140    1.1070   -0.7620 C   0  0  0  0  0  0  0  0  0  0  0  0
    2.6240   -1.2910   -1.0910 C   0  0  0  0  0  0  0  0  0  0  0  0
    4.6480   -0.1910   -0.1520 C   0  0  0  0  0  0  0  0  0  0  0  0
    5.2160    0.1580   -1.4890 C   0  0  0  0  0  0  0  0  0  0  0  0
   -3.0310    0.5240    0.0080 C   0  0  0  0  0  0  0  0  0  0  0  0
   -3.0820    0.9870   -1.1990 C   0  0  0  0  0  0  0  0  0  0  0  0
   -3.9760    0.4650   -2.2540 C   0  0  0  0  0  0  0  0  0  0  0  0
  1  2  2  0
  2  3  1  0
  2 16  1  0
  3  4  1  0
  4  5  1  0
  5  6  1  1
  5 16  1  0
  6  7  1  0
  7  8  2  0
  7  9  1  0
  9 10  1  0
 10 11  1  0
 11 12  1  6
 11 13  1  0
 11 14  1  0
 14 15  1  0
 16 17  2  3
 17 18  1  0
M  CHG  1   3   1
M  END
