
     RDKit          3D

 18 19  0  0  0  0  0  0  0  0999 V2000
   -3.4860    2.0550    0.1770 C   0  0  0  0  0  0  0  0  0  0  0  0
   -2.6940    1.5190    1.3790 C   0  0  0  0  0  0  0  0  0  0  0  0
   -2.6750    0.0440    1.2260 C   0  0  0  0  0  0  0  0  0  0  0  0
   -3.4160   -0.8050    1.9130 O   0  0  0  0  0  0  0  0  0  0  0  0
   -3.1750   -2.0150    1.5510 N   0  0  0  0  0  0  0  0  0  0  0  0
   -2.2460   -2.0530    0.5860 C   0  0  0  0  0  0  0  0  0  0  0  0
   -1.6800   -3.2410   -0.1120 C   0  0  0  0  0  0  0  0  0  0  0  0
   -1.9090   -0.7090    0.3630 C   0  0  0  0  0  0  0  0  0  0  0  0
   -0.9480   -0.3010   -0.5710 N   0  0  0  0  0  0  0  0  0  0  0  0
    0.4670   -0.2360   -0.3200 C   0  0  0  0  0  0  0  0  0  0  0  0
    1.2670   -1.2430   -0.6320 C   0  0  0  0  0  0  0  0  0  0  0  0
    2.6840   -1.2620   -0.4170 C   0  0  0  0  0  0  0  0  0  0  0  0
    3.5670   -2.4120   -0.7780 C   0  0  0  0  0  0  0  0  0  0  0  0
    3.2280   -0.1940    0.1320 C   0  0  0  0  0  0  0  0  0  0  0  0
    2.4730    0.9910    0.5280 C   0  0  0  0  0  0  0  0  0  0  0  0
    1.0080    0.9740    0.2910 C   0  0  1  0  0  0  0  0  0  0  0  0
    0.6840    2.2210   -0.5480 C   0  0  0  0  0  0  0  0  0  0  0  0
    1.2830    2.0160   -1.8460 N   0  0  0  0  0  0  0  0  0  0  0  0
  1  2  1  0
  2  3  1  0
  3  4  1  0
  3  8  2  0
  4  5  1  0
  5  6  2  0
  6  7  1  0
  6  8  1  0
  8  9  1  0
  9 10  1  0
 10 11  2  0
 10 16  1  0
 11 12  1  0
 12 13  1  0
 12 14  2  0
 14 15  1  0
 15 16  1  0
 16 17  1  6
 17 18  1  0
M  CHG  1  18   1
M  END
