
     RDKit          3D

 18 19  0  0  0  0  0  0  0  0999 V2000
   -0.9660   -0.1030   -3.0580 C   0  0  0  0  0  0  0  0  0  0  0  0
   -2.1920   -0.2530   -2.2770 C   0  0  0  0  0  0  0  0  0  0  0  0
   -2.3260   -0.0500   -0.9940 C   0  0  0  0  0  0  0  0  0  0  0  0
   -3.5490   -0.1950   -0.1850 C   0  0  0  0  0  0  0  0  0  0  0  0
   -4.8450   -0.1440   -0.1850 C   0  0  0  0  0  0  0  0  0  0  0  0
   -5.3670   -0.4510    1.2020 C   0  0  0  0  0  0  0  0  0  0  0  0
   -4.1510    0.0550    2.0190 C   0  0  0  0  0  0  0  0  0  0  0  0
   -3.0600   -0.5720    1.1950 C   0  0  2  0  0  0  0  0  0  0  0  0
   -1.7130    0.0620    1.2970 C   0  0  0  0  0  0  0  0  0  0  0  0
   -1.3000    0.3730   -0.1000 N   0  0  0  0  0  0  0  0  0  0  0  0
   -0.0310    1.0150   -0.3290 C   0  0  0  0  0  0  0  0  0  0  0  0
    1.1060    0.1020   -0.0100 C   0  0  0  0  0  0  0  0  0  0  0  0
    0.8820   -1.0640    0.3980 O   0  0  0  0  0  0  0  0  0  0  0  0
    2.4510    0.5010   -0.1500 N   0  0  0  0  0  0  0  0  0  0  0  0
    3.5100   -0.4160    0.1700 C   0  0  1  0  0  0  0  0  0  0  0  0
    4.3010   -0.6670   -1.0940 C   0  0  0  0  0  0  0  0  0  0  0  0
    4.4180    0.1200    1.2570 C   0  0  0  0  0  0  0  0  0  0  0  0
    5.0560    1.3540    0.9060 N   0  0  0  0  0  0  0  0  0  0  0  0
  1  2  1  0
  2  3  2  3
  3  4  1  0
  3 10  1  0
  4  5  2  0
  4  8  1  0
  5  6  1  0
  6  7  1  0
  8  7  1  1
  8  9  1  0
  9 10  1  0
 10 11  1  0
 11 12  1  0
 12 13  2  0
 12 14  1  0
 14 15  1  0
 15 16  1  6
 15 17  1  0
 17 18  1  0
M  CHG  1  18   1
M  END
