
     RDKit          3D

 17 18  0  0  0  0  0  0  0  0999 V2000
    0.2120    1.2430   -0.8540 C   0  0  0  0  0  0  0  0  0  0  0  0
   -0.3600    0.2980   -0.0040 N   0  0  0  0  0  0  0  0  0  0  0  0
    0.2240   -0.9740    0.0740 C   0  0  0  0  0  0  0  0  0  0  0  0
    1.5140   -1.2050    0.7090 C   0  0  0  0  0  0  0  0  0  0  0  0
    2.7740   -0.6990    0.1820 C   0  0  0  0  0  0  0  0  0  0  0  0
    3.1440   -0.1800   -0.9620 C   0  0  0  0  0  0  0  0  0  0  0  0
    4.6160    0.1770   -0.9310 C   0  0  0  0  0  0  0  0  0  0  0  0
    4.7270    0.3710    0.5930 C   0  0  0  0  0  0  0  0  0  0  0  0
    3.9660   -0.7670    1.0180 N   0  0  0  0  0  0  0  0  0  0  0  0
   -1.7970    0.1990   -0.0440 C   0  0  2  0  0  0  0  0  0  0  0  0
   -2.2920   -0.2640   -1.3610 C   0  0  0  0  0  0  0  0  0  0  0  0
   -3.6440   -0.5430   -1.6740 N   0  0  0  0  0  0  0  0  0  0  0  0
   -1.4560   -0.4340   -2.3060 O   0  0  0  0  0  0  0  0  0  0  0  0
   -2.4490    1.5430    0.2490 C   0  0  0  0  0  0  0  0  0  0  0  0
   -3.8470    1.1590    0.6420 C   0  0  0  0  0  0  0  0  0  0  0  0
   -3.7140   -0.1240    1.3710 C   0  0  0  0  0  0  0  0  0  0  0  0
   -2.3510   -0.6900    1.0350 C   0  0  0  0  0  0  0  0  0  0  0  0
  1  2  1  0
  2  3  1  0
 10  2  1  6
  3  4  1  0
  4  5  1  0
  5  6  2  0
  5  9  1  0
  6  7  1  0
  7  8  1  0
  8  9  1  0
 10 11  1  0
 10 14  1  0
 10 17  1  0
 11 12  1  0
 11 13  2  0
 14 15  1  0
 15 16  1  0
 16 17  1  0
M  CHG  1   9   1
M  END
