
     RDKit          3D

 18 19  0  0  0  0  0  0  0  0999 V2000
   -2.4410    4.0260   -0.6930 N   0  0  0  0  0  0  0  0  0  0  0  0
   -2.8030    3.0050   -1.1070 C   0  0  0  0  0  0  0  0  0  0  0  0
   -3.2640    1.7130   -1.6210 C   0  0  0  0  0  0  0  0  0  0  0  0
   -2.1920    0.6830   -1.3590 C   0  0  0  0  0  0  0  0  0  0  0  0
   -1.8770    0.5400    0.1060 C   0  0  1  0  0  0  0  0  0  0  0  0
   -3.0550    0.1170    0.8730 C   0  0  0  0  0  0  0  0  0  0  0  0
   -3.1740   -1.3540    1.1270 C   0  0  0  0  0  0  0  0  0  0  0  0
   -2.1070   -2.1550    0.4430 C   0  0  0  0  0  0  0  0  0  0  0  0
   -0.7160   -1.5940    0.7360 C   0  0  0  0  0  0  0  0  0  0  0  0
   -0.6670   -0.2480    0.2840 N   0  0  0  0  0  0  0  0  0  0  0  0
    0.5470    0.3990    0.0050 C   0  0  0  0  0  0  0  0  0  0  0  0
    0.4280    1.6220   -0.4410 O   0  0  0  0  0  0  0  0  0  0  0  0
    1.9270   -0.0290    0.1170 C   0  0  1  0  0  0  0  0  0  0  0  0
    2.2370   -1.2540    0.7490 N   0  0  0  0  0  0  0  0  0  0  0  0
    2.6300    0.0150   -1.2660 C   0  0  0  0  0  0  0  0  0  0  0  0
    4.0710   -0.2180   -0.8080 C   0  0  0  0  0  0  0  0  0  0  0  0
    4.1770    0.6300    0.4340 C   0  0  0  0  0  0  0  0  0  0  0  0
    2.7900    1.0530    0.8110 C   0  0  0  0  0  0  0  0  0  0  0  0
  1  2  3  0
  2  3  1  0
  3  4  1  0
  5  4  1  6
  5  6  1  0
  5 10  1  0
  6  7  1  0
  7  8  1  0
  8  9  1  0
  9 10  1  0
 10 11  1  0
 11 12  2  0
 11 13  1  0
 13 14  1  1
 13 15  1  0
 13 18  1  0
 15 16  1  0
 16 17  1  0
 17 18  1  0
M  CHG  1  14   1
M  END
