
     RDKit          3D

 18 20  0  0  0  0  0  0  0  0999 V2000
   -1.6010   -2.9190    0.4310 N   0  0  0  0  0  0  0  0  0  0  0  0
   -1.9860   -1.8830   -0.4930 C   0  0  0  0  0  0  0  0  0  0  0  0
   -1.4480   -0.5110   -0.1460 C   0  0  2  0  0  0  0  0  0  0  0  0
   -1.8630   -0.0590    1.2100 C   0  0  0  0  0  0  0  0  0  0  0  0
   -3.0860    0.7370    1.3440 C   0  0  0  0  0  0  0  0  0  0  0  0
   -3.4480    1.5960    0.1870 C   0  0  0  0  0  0  0  0  0  0  0  0
   -3.3150    0.7420   -1.0580 C   0  0  0  0  0  0  0  0  0  0  0  0
   -1.9690    0.3420   -1.1900 N   0  0  0  0  0  0  0  0  0  0  0  0
   -1.0750    1.2380   -1.7860 C   0  0  0  0  0  0  0  0  0  0  0  0
   -0.0620    1.8520   -0.8510 C   0  0  0  0  0  0  0  0  0  0  0  0
    0.7010    0.7770   -0.0980 C   0  0  2  0  0  0  0  0  0  0  0  0
    2.0810    0.7260   -0.5180 N   0  0  0  0  0  0  0  0  0  0  0  0
    2.9540    0.1270    0.4400 C   0  0  1  0  0  0  0  0  0  0  0  0
    3.8230   -0.9030   -0.2530 C   0  0  0  0  0  0  0  0  0  0  0  0
    5.1100   -0.7910    0.5500 C   0  0  0  0  0  0  0  0  0  0  0  0
    5.2120    0.5810    0.7410 O   0  0  0  0  0  0  0  0  0  0  0  0
    3.9590    1.0680    1.0190 C   0  0  0  0  0  0  0  0  0  0  0  0
    0.0520   -0.5500   -0.2320 C   0  0  0  0  0  0  0  0  0  0  0  0
  1  2  1  0
  3  2  1  6
  3  4  1  0
  3  8  1  0
  3 18  1  0
  4  5  1  0
  5  6  1  0
  6  7  1  0
  7  8  1  0
  8  9  1  0
  9 10  1  0
 10 11  1  0
 11 12  1  6
 11 18  1  0
 13 12  1  6
 13 14  1  0
 13 17  1  0
 14 15  1  0
 15 16  1  0
 16 17  1  0
M  CHG  1   1   1
M  END
