
     RDKit          3D

 18 19  0  0  0  0  0  0  0  0999 V2000
    4.9590   -0.4400   -2.9180 N   0  0  0  0  0  0  0  0  0  0  0  0
    3.9820   -0.0600   -2.3690 C   0  0  0  0  0  0  0  0  0  0  0  0
    2.7890    0.4250   -1.7110 C   0  0  1  0  0  0  0  0  0  0  0  0
    1.9470   -0.6870   -1.2650 C   0  0  0  0  0  0  0  0  0  0  0  0
    1.5020   -0.8810   -0.0430 C   0  0  0  0  0  0  0  0  0  0  0  0
    0.6600   -2.0550    0.2390 C   0  0  0  0  0  0  0  0  0  0  0  0
   -0.7070   -1.7010    0.7580 C   0  0  0  0  0  0  0  0  0  0  0  0
   -1.4800   -0.8750   -0.1980 C   0  0  0  0  0  0  0  0  0  0  0  0
   -0.8670   -0.5180   -1.2480 O   0  0  0  0  0  0  0  0  0  0  0  0
   -2.8040   -0.4730   -0.0240 N   0  0  0  0  0  0  0  0  0  0  0  0
   -3.6000    0.3280   -0.8950 C   0  0  0  0  0  0  0  0  0  0  0  0
   -4.3610    1.2200    0.0670 C   0  0  0  0  0  0  0  0  0  0  0  0
   -4.2040    0.5700    1.4310 C   0  0  0  0  0  0  0  0  0  0  0  0
   -3.6280   -0.8150    1.1020 C   0  0  0  0  0  0  0  0  0  0  0  0
    1.8900    0.0860    0.9790 C   0  0  0  0  0  0  0  0  0  0  0  0
    2.6620    1.1160    0.6820 C   0  0  0  0  0  0  0  0  0  0  0  0
    3.2040    1.4030   -0.6600 C   0  0  1  0  0  0  0  0  0  0  0  0
    4.6660    1.3980   -0.5190 N   0  0  0  0  0  0  0  0  0  0  0  0
  1  2  3  0
  3  2  1  1
  3  4  1  0
  3 17  1  0
  4  5  2  0
  5  6  1  0
  5 15  1  0
  6  7  1  0
  7  8  1  0
  8  9  2  0
  8 10  1  0
 10 11  1  0
 10 14  1  0
 11 12  1  0
 12 13  1  0
 13 14  1  0
 15 16  2  0
 16 17  1  0
 17 18  1  1
M  CHG  1  18   1
M  END
