
     RDKit          3D

 21 23  0  0  0  0  0  0  0  0999 V2000
   -0.6370    0.5090    1.6880 O   0  0  0  0  0  0  0  0  0  0  0  0
   -0.2050    0.1990    0.5590 C   0  0  0  0  0  0  0  0  0  0  0  0
   -1.1130   -0.0680   -0.4940 N   0  0  0  0  0  0  0  0  0  0  0  0
   -2.5180   -0.0200   -0.3990 C   0  0  0  0  0  0  0  0  0  0  0  0
   -3.2350    0.2940    0.7280 C   0  0  0  0  0  0  0  0  0  0  0  0
   -4.6360    0.3200    0.7370 C   0  0  0  0  0  0  0  0  0  0  0  0
   -5.4980    0.7220    2.1850 Cl  0  0  0  0  0  0  0  0  0  0  0  0
   -5.3450    0.0260   -0.4030 C   0  0  0  0  0  0  0  0  0  0  0  0
   -6.7070    0.0400   -0.4330 F   0  0  0  0  0  0  0  0  0  0  0  0
   -4.6640   -0.2910   -1.5400 C   0  0  0  0  0  0  0  0  0  0  0  0
   -3.2590   -0.3140   -1.5430 C   0  0  0  0  0  0  0  0  0  0  0  0
   -2.6740   -0.6430   -2.7300 O   0  0  0  0  0  0  0  0  0  0  0  0
    1.2540    0.1130    0.3270 C   0  0  0  0  0  0  0  0  0  0  0  0
    2.2090    0.3520    1.2760 C   0  0  0  0  0  0  0  0  0  0  0  0
    3.4510    0.1620    0.6440 C   0  0  0  0  0  0  0  0  0  0  0  0
    3.2110   -0.1740   -0.6220 N   0  0  0  0  0  0  0  0  0  0  0  0
    1.8900   -0.2000   -0.8010 N   0  0  0  0  0  0  0  0  0  0  0  0
    4.4700   -0.3620   -1.2470 C   0  0  0  0  0  0  0  0  0  0  0  0
    5.4500   -0.1630   -0.4450 N   0  0  0  0  0  0  0  0  0  0  0  0
    6.8110   -0.2740   -0.7760 O   0  0  0  0  0  0  0  0  0  0  0  0
    4.9100    0.1900    0.8390 C   0  0  0  0  0  0  0  0  0  0  0  0
  1  2  2  0
  2  3  1  0
  2 13  1  0
  3  4  1  0
  4  5  2  0
  4 11  1  0
  5  6  1  0
  6  7  1  0
  6  8  2  0
  8  9  1  0
  8 10  1  0
 10 11  2  0
 11 12  1  0
 13 14  1  0
 13 17  2  0
 14 15  2  0
 15 16  1  0
 15 21  1  0
 16 17  1  0
 16 18  1  0
 18 19  2  0
 19 20  1  0
 19 21  1  0
M  CHG  2  19   1  20  -1
M  END
