
     RDKit          3D

 20 22  0  0  0  0  0  0  0  0999 V2000
   -3.5860   -1.2510   -1.3020 C   0  0  0  0  0  0  0  0  0  0  0  0
   -3.0840   -0.2470   -0.3770 N   0  0  0  0  0  0  0  0  0  0  0  0
   -3.8540    0.3170    0.5970 C   0  0  0  0  0  0  0  0  0  0  0  0
   -3.0190    1.2050    1.2470 C   0  0  0  0  0  0  0  0  0  0  0  0
   -1.7890    1.1540    0.6580 N   0  0  0  0  0  0  0  0  0  0  0  0
   -0.6730    1.8790    1.0010 O   0  0  0  0  0  0  0  0  0  0  0  0
   -1.8540    0.2550   -0.3370 C   0  0  0  0  0  0  0  0  0  0  0  0
   -0.7860   -0.0980   -1.2000 N   0  0  0  0  0  0  0  0  0  0  0  0
    0.5130    0.5030   -1.0770 C   0  0  0  0  0  0  0  0  0  0  0  0
    0.7960    1.6550   -1.7820 C   0  0  0  0  0  0  0  0  0  0  0  0
   -0.4010    2.4040   -2.8290 Cl  0  0  0  0  0  0  0  0  0  0  0  0
    2.0510    2.2180   -1.6510 C   0  0  0  0  0  0  0  0  0  0  0  0
    2.3050    3.3460   -2.3510 F   0  0  0  0  0  0  0  0  0  0  0  0
    2.9730    1.6170   -0.8270 C   0  0  0  0  0  0  0  0  0  0  0  0
    2.7110    0.4690   -0.1150 C   0  0  0  0  0  0  0  0  0  0  0  0
    1.4550   -0.0920   -0.2490 C   0  0  0  0  0  0  0  0  0  0  0  0
    1.1980   -1.2410    0.4660 O   0  0  0  0  0  0  0  0  0  0  0  0
    2.1400   -2.0120    1.1440 C   0  0  0  0  0  0  0  0  0  0  0  0
    3.5510   -1.5470    1.0070 C   0  0  0  0  0  0  0  0  0  0  0  0
    3.6070   -0.1590    0.7170 O   0  0  0  0  0  0  0  0  0  0  0  0
  1  2  1  0
  2  3  1  0
  2  7  1  0
  3  4  2  0
  4  5  1  0
  5  6  1  0
  5  7  2  0
  7  8  1  0
  8  9  1  0
  9 10  2  0
  9 16  1  0
 10 11  1  0
 10 12  1  0
 12 13  1  0
 12 14  2  0
 14 15  1  0
 15 16  2  0
 15 20  1  0
 16 17  1  0
 17 18  1  0
 18 19  1  0
 19 20  1  0
M  CHG  2   5   1   6  -1
M  END
