
     RDKit          3D

 21 23  0  0  0  0  0  0  0  0999 V2000
    6.0060   -1.1140    1.1700 O   0  0  0  0  0  0  0  0  0  0  0  0
    4.7800   -0.8820    0.9610 C   0  0  0  0  0  0  0  0  0  0  0  0
    3.7570   -1.6730    1.1780 O   0  0  0  0  0  0  0  0  0  0  0  0
    2.6320   -1.0970    0.8410 N   0  0  0  0  0  0  0  0  0  0  0  0
    2.9760    0.1210    0.3880 C   0  0  0  0  0  0  0  0  0  0  0  0
    1.7770    0.7270    0.0320 C   0  0  0  0  0  0  0  0  0  0  0  0
    0.7300   -0.1550    0.2840 C   0  0  0  0  0  0  0  0  0  0  0  0
   -0.6950    0.1360    0.0320 C   0  0  0  0  0  0  0  0  0  0  0  0
   -1.0570    1.3720   -0.4950 C   0  0  0  0  0  0  0  0  0  0  0  0
   -2.3710    1.6840   -0.7450 C   0  0  0  0  0  0  0  0  0  0  0  0
   -3.3900    0.7930   -0.4870 C   0  0  0  0  0  0  0  0  0  0  0  0
   -3.0330   -0.4290    0.0340 C   0  0  0  0  0  0  0  0  0  0  0  0
   -4.0390   -1.3870    0.3200 N   0  0  0  0  0  0  0  0  0  0  0  0
   -5.4310   -1.0970    0.0660 C   0  0  0  0  0  0  0  0  0  0  0  0
   -5.6490   -0.8260   -1.2890 F   0  0  0  0  0  0  0  0  0  0  0  0
   -1.6970   -0.7570    0.2920 C   0  0  0  0  0  0  0  0  0  0  0  0
    1.3110   -1.2440    0.7730 N   0  0  0  0  0  0  0  0  0  0  0  0
    0.6770   -2.3870    1.1680 O   0  0  0  0  0  0  0  0  0  0  0  0
    4.3140    0.2730    0.4560 N   0  0  0  0  0  0  0  0  0  0  0  0
    5.0890    1.4330    0.0680 C   0  0  0  0  0  0  0  0  0  0  0  0
    5.5710    1.3140   -1.6490 Cl  0  0  0  0  0  0  0  0  0  0  0  0
  1  2  2  0
  2  3  1  0
  2 19  1  0
  3  4  1  0
  4  5  1  0
  4 17  1  0
  5  6  2  0
  5 19  1  0
  6  7  1  0
  7  8  1  0
  7 17  2  0
  8  9  2  0
  8 16  1  0
  9 10  1  0
 10 11  2  0
 11 12  1  0
 12 13  1  0
 12 16  2  0
 13 14  1  0
 14 15  1  0
 17 18  1  0
 19 20  1  0
 20 21  1  0
M  CHG  2  17   1  18  -1
M  END
