
     RDKit          3D

 21 23  0  0  0  0  0  0  0  0999 V2000
    2.7740    3.3220   -0.5930 O   0  0  0  0  0  0  0  0  0  0  0  0
    1.7470    2.6040   -0.5060 C   0  0  0  0  0  0  0  0  0  0  0  0
    0.4930    3.0260   -0.7370 N   0  0  0  0  0  0  0  0  0  0  0  0
   -0.5520    2.1680   -0.6160 C   0  0  0  0  0  0  0  0  0  0  0  0
   -1.7120    2.5950   -0.8390 O   0  0  0  0  0  0  0  0  0  0  0  0
   -0.3970    0.8780   -0.2670 N   0  0  0  0  0  0  0  0  0  0  0  0
   -1.5560    0.0260   -0.1580 C   0  0  0  0  0  0  0  0  0  0  0  0
   -1.6400   -1.1770   -0.8250 C   0  0  0  0  0  0  0  0  0  0  0  0
   -2.7840   -1.9300   -0.6640 C   0  0  0  0  0  0  0  0  0  0  0  0
   -2.8760   -3.4560   -1.5180 Cl  0  0  0  0  0  0  0  0  0  0  0  0
   -3.8360   -1.5320    0.1280 C   0  0  0  0  0  0  0  0  0  0  0  0
   -3.7260   -0.3440    0.7720 N   0  0  0  0  0  0  0  0  0  0  0  0
   -4.7820    0.0570    1.5690 O   0  0  0  0  0  0  0  0  0  0  0  0
   -2.6170    0.4150    0.6340 C   0  0  0  0  0  0  0  0  0  0  0  0
    0.8390    0.4140   -0.0270 C   0  0  0  0  0  0  0  0  0  0  0  0
    1.2600   -0.7950    0.3270 N   0  0  0  0  0  0  0  0  0  0  0  0
    2.5900   -0.7680    0.4490 C   0  0  0  0  0  0  0  0  0  0  0  0
    3.5250   -1.8530    0.8210 C   0  0  0  0  0  0  0  0  0  0  0  0
    3.9090   -2.4870   -0.3670 F   0  0  0  0  0  0  0  0  0  0  0  0
    3.0370    0.5220    0.1580 C   0  0  0  0  0  0  0  0  0  0  0  0
    1.9280    1.2860   -0.1470 C   0  0  0  0  0  0  0  0  0  0  0  0
  1  2  2  0
  2  3  1  0
  2 21  1  0
  3  4  1  0
  4  5  2  0
  4  6  1  0
  6  7  1  0
  6 15  1  0
  7  8  2  0
  7 14  1  0
  8  9  1  0
  9 10  1  0
  9 11  2  0
 11 12  1  0
 12 13  1  0
 12 14  2  0
 15 16  1  0
 15 21  2  0
 16 17  1  0
 17 18  1  0
 17 20  2  0
 18 19  1  0
 20 21  1  0
M  CHG  2  12   1  13  -1
M  END
