
     RDKit          3D

 21 22  0  0  0  0  0  0  0  0999 V2000
   -3.7600    1.3650   -1.0970 C   0  0  0  0  0  0  0  0  0  0  0  0
   -2.3960    0.8790   -1.2990 C   0  0  0  0  0  0  0  0  0  0  0  0
   -1.7040    0.1300   -0.4680 C   0  0  0  0  0  0  0  0  0  0  0  0
   -2.3170   -0.2650    0.7610 C   0  0  0  0  0  0  0  0  0  0  0  0
   -3.5890    0.2480    1.0040 F   0  0  0  0  0  0  0  0  0  0  0  0
   -1.8560   -1.0400    1.7040 C   0  0  0  0  0  0  0  0  0  0  0  0
   -2.7860   -1.3870    3.1410 Cl  0  0  0  0  0  0  0  0  0  0  0  0
   -0.3840   -0.3900   -0.8520 C   0  0  0  0  0  0  0  0  0  0  0  0
   -0.2750   -1.0540   -2.0480 N   0  0  0  0  0  0  0  0  0  0  0  0
    0.8330   -1.5170   -2.5490 N   0  0  0  0  0  0  0  0  0  0  0  0
    1.9690   -1.3490   -1.8750 C   0  0  0  0  0  0  0  0  0  0  0  0
    3.0830   -1.7720   -2.2940 O   0  0  0  0  0  0  0  0  0  0  0  0
    1.9630   -0.6880   -0.6630 C   0  0  0  0  0  0  0  0  0  0  0  0
    3.1230   -0.4670   -0.0040 N   0  0  0  0  0  0  0  0  0  0  0  0
    3.1390    0.2240    1.1420 C   0  0  0  0  0  0  0  0  0  0  0  0
    4.3520    0.4490    1.8220 N   0  0  0  0  0  0  0  0  0  0  0  0
    5.4040   -0.0020    1.3440 O   0  0  0  0  0  0  0  0  0  0  0  0
    4.4170    1.1510    2.9990 O   0  0  0  0  0  0  0  0  0  0  0  0
    1.9580    0.7350    1.6860 C   0  0  0  0  0  0  0  0  0  0  0  0
    0.7790    0.5120    1.0240 C   0  0  0  0  0  0  0  0  0  0  0  0
    0.7820   -0.2080   -0.1550 C   0  0  0  0  0  0  0  0  0  0  0  0
  1  2  1  0
  2  3  2  3
  3  4  1  0
  3  8  1  0
  4  5  1  0
  4  6  2  3
  6  7  1  0
  8  9  2  0
  8 21  1  0
  9 10  1  0
 10 11  1  0
 11 12  2  0
 11 13  1  0
 13 14  2  0
 13 21  1  0
 14 15  1  0
 15 16  1  0
 15 19  2  0
 16 17  2  0
 16 18  1  0
 19 20  1  0
 20 21  2  0
M  CHG  2  16   1  18  -1
M  END
