
     RDKit          3D

 25 26  0  0  0  0  0  0  0  0999 V2000
    3.5710    0.9020    1.9650 C   0  0  0  0  0  0  0  0  0  0  0  0
    3.8260    0.9600    0.6890 C   0  0  0  0  0  0  0  0  0  0  0  0
    4.5440    2.0420    0.1380 O   0  0  0  0  0  0  0  0  0  0  0  0
    4.5710    2.4240   -1.2570 C   0  0  0  0  0  0  0  0  0  0  0  0
    3.2350    2.4400   -1.8940 C   0  0  0  0  0  0  0  0  0  0  0  0
    2.5760    1.1510   -2.1500 C   0  0  0  0  0  0  0  0  0  0  0  0
    2.5880    0.0210   -1.4180 C   0  0  0  0  0  0  0  0  0  0  0  0
    1.8930   -1.0620   -1.8490 O   0  0  0  0  0  0  0  0  0  0  0  0
    0.7800   -1.5680   -1.2050 C   0  0  0  0  0  0  0  0  0  0  0  0
   -0.2970   -0.5480   -1.1360 C   0  0  0  0  0  0  0  0  0  0  0  0
   -0.1870    0.6040   -1.6130 O   0  0  0  0  0  0  0  0  0  0  0  0
   -1.5140   -0.8880   -0.4990 N   0  0  0  0  0  0  0  0  0  0  0  0
   -1.6810   -2.1830    0.0610 C   0  0  0  0  0  0  0  0  0  0  0  0
   -3.0720   -2.7370   -0.0500 C   0  0  0  0  0  0  0  0  0  0  0  0
   -4.1450   -1.6730   -0.1320 C   0  0  0  0  0  0  0  0  0  0  0  0
   -3.6060   -0.4490    0.5140 C   0  0  2  0  0  0  0  0  0  0  0  0
   -4.5840    0.6060    0.7750 C   0  0  0  0  0  0  0  0  0  0  0  0
   -5.7850    0.4910    0.4780 O   0  0  0  0  0  0  0  0  0  0  0  0
   -4.1470    1.8090    1.3910 N   0  0  0  0  0  0  0  0  0  0  0  0
   -5.0320    2.9160    1.6930 C   0  0  0  0  0  0  0  0  0  0  0  0
   -2.5520    0.1190   -0.4470 C   0  0  0  0  0  0  0  0  0  0  0  0
    3.3360   -0.1400   -0.1310 C   0  0  0  0  0  0  0  0  0  0  0  0
    3.6180   -1.3630    0.2530 C   0  0  0  0  0  0  0  0  0  0  0  0
    4.3810   -1.7980    1.4160 C   0  0  0  0  0  0  0  0  0  0  0  0
    3.2740   -2.8890    2.5790 Br  0  0  0  0  0  0  0  0  0  0  0  0
  1  2  2  0
  2  3  1  0
  2 22  1  0
  3  4  1  0
  4  5  1  0
  5  6  1  0
  6  7  2  0
  7  8  1  0
  7 22  1  0
  8  9  1  0
  9 10  1  0
 10 11  2  0
 10 12  1  0
 12 13  1  0
 12 21  1  0
 13 14  1  0
 14 15  1  0
 15 16  1  0
 16 17  1  6
 16 21  1  0
 17 18  2  0
 17 19  1  0
 19 20  1  0
 22 23  2  3
 23 24  1  0
 24 25  1  0
M  END
