
     RDKit          3D

 25 26  0  0  0  0  0  0  0  0999 V2000
   -5.3720    3.4480   -2.0110 C   0  0  0  0  0  0  0  0  0  0  0  0
   -4.1840    2.9850   -1.2880 C   0  0  0  0  0  0  0  0  0  0  0  0
   -3.7810    1.7170   -1.3710 C   0  0  0  0  0  0  0  0  0  0  0  0
   -4.5390    0.7810   -2.1920 C   0  0  0  0  0  0  0  0  0  0  0  0
   -4.2030   -0.4910   -2.2960 C   0  0  0  0  0  0  0  0  0  0  0  0
   -5.3100   -1.6020   -3.4290 Br  0  0  0  0  0  0  0  0  0  0  0  0
   -2.5270    1.3460   -0.6660 C   0  0  2  0  0  0  0  0  0  0  0  0
   -2.2020    2.3940    0.1910 O   0  0  0  0  0  0  0  0  0  0  0  0
   -1.4020    1.0840   -1.6130 C   0  0  0  0  0  0  0  0  0  0  0  0
   -0.1770    0.7390   -1.0050 O   0  0  0  0  0  0  0  0  0  0  0  0
   -0.0060   -0.3630   -0.1600 C   0  0  0  0  0  0  0  0  0  0  0  0
   -1.0170   -1.0430    0.0410 O   0  0  0  0  0  0  0  0  0  0  0  0
    1.2750   -0.6830    0.4400 C   0  0  0  0  0  0  0  0  0  0  0  0
    1.3320   -1.7390    1.2310 C   0  0  0  0  0  0  0  0  0  0  0  0
    0.1180   -2.5240    1.4620 C   0  0  0  0  0  0  0  0  0  0  0  0
    2.5160   -2.2080    1.9130 N   0  0  0  0  0  0  0  0  0  0  0  0
    3.8310   -1.6820    1.9550 C   0  0  0  0  0  0  0  0  0  0  0  0
    4.5210   -2.3010    3.0000 C   0  0  0  0  0  0  0  0  0  0  0  0
    5.8250   -1.9150    3.1980 C   0  0  0  0  0  0  0  0  0  0  0  0
    6.3860   -0.9520    2.3710 C   0  0  0  0  0  0  0  0  0  0  0  0
    5.6900   -0.3830    1.3800 N   0  0  0  0  0  0  0  0  0  0  0  0
    4.4040   -0.7300    1.1460 C   0  0  0  0  0  0  0  0  0  0  0  0
    3.8420    0.0290   -0.0000 C   0  0  0  0  0  0  0  0  0  0  0  0
    2.4020    0.2110    0.0890 C   0  0  0  0  0  0  0  0  0  0  0  0
    1.9970    1.3820   -0.1890 O   0  0  0  0  0  0  0  0  0  0  0  0
  1  2  1  0
  2  3  2  3
  3  4  1  0
  3  7  1  0
  4  5  2  3
  5  6  1  0
  7  8  1  1
  7  9  1  0
  9 10  1  0
 10 11  1  0
 11 12  2  0
 11 13  1  0
 13 14  2  0
 13 24  1  0
 14 15  1  0
 14 16  1  0
 16 17  1  0
 17 18  2  0
 17 22  1  0
 18 19  1  0
 19 20  2  0
 20 21  1  0
 21 22  2  0
 22 23  1  0
 23 24  1  0
 24 25  2  0
M  END
