
     RDKit          3D

 20 22  0  0  0  0  0  0  0  0999 V2000
   -1.9610   -0.1860    2.8130 O   0  0  0  0  0  0  0  0  0  0  0  0
   -2.7910   -0.1470    1.7190 C   0  0  0  0  0  0  0  0  0  0  0  0
   -4.1480   -0.1290    1.7190 N   0  0  0  0  0  0  0  0  0  0  0  0
   -4.5930   -0.0910    0.4780 N   0  0  0  0  0  0  0  0  0  0  0  0
   -3.5460   -0.0830   -0.3600 C   0  0  0  0  0  0  0  0  0  0  0  0
   -3.6350   -0.0430   -1.8430 C   0  0  0  0  0  0  0  0  0  0  0  0
   -3.6520    1.6170   -2.4560 Cl  0  0  0  0  0  0  0  0  0  0  0  0
   -2.4370   -0.1180    0.4270 N   0  0  0  0  0  0  0  0  0  0  0  0
   -1.1120   -0.1220   -0.0500 C   0  0  0  0  0  0  0  0  0  0  0  0
   -0.2730   -1.2230    0.0530 C   0  0  0  0  0  0  0  0  0  0  0  0
    1.0250   -1.2150   -0.4180 C   0  0  0  0  0  0  0  0  0  0  0  0
    1.5290   -0.0860   -1.0140 C   0  0  0  0  0  0  0  0  0  0  0  0
    2.8330   -0.0930   -1.4810 O   0  0  0  0  0  0  0  0  0  0  0  0
    3.8950    0.2880   -0.6930 C   0  0  0  0  0  0  0  0  0  0  0  0
    4.6100   -0.4870    0.2200 C   0  0  0  0  0  0  0  0  0  0  0  0
    5.5870    0.3190    0.7760 C   0  0  0  0  0  0  0  0  0  0  0  0
    5.4570    1.5030    0.2240 O   0  0  0  0  0  0  0  0  0  0  0  0
    4.4730    1.5000   -0.6360 N   0  0  0  0  0  0  0  0  0  0  0  0
    0.7050    1.0080   -1.1190 C   0  0  0  0  0  0  0  0  0  0  0  0
   -0.5890    1.0060   -0.6520 C   0  0  0  0  0  0  0  0  0  0  0  0
  1  2  1  0
  2  3  2  0
  2  8  1  0
  3  4  1  0
  4  5  2  0
  5  6  1  0
  5  8  1  0
  6  7  1  0
  8  9  1  0
  9 10  2  0
  9 20  1  0
 10 11  1  0
 11 12  2  0
 12 13  1  0
 12 19  1  0
 13 14  1  0
 14 15  1  0
 14 18  2  0
 15 16  2  0
 16 17  1  0
 17 18  1  0
 19 20  2  0
M  CHG  2   1  -1   4   1
M  END
