
     RDKit          3D

 21 22  0  0  0  0  0  0  0  0999 V2000
    5.7750    0.6940    0.7010 C   0  0  0  0  0  0  0  0  0  0  0  0
    5.4760   -0.0860   -0.5230 C   0  0  0  0  0  0  0  0  0  0  0  0
    4.2520   -0.4270   -0.8560 C   0  0  0  0  0  0  0  0  0  0  0  0
    4.0310   -1.1340   -1.9730 F   0  0  0  0  0  0  0  0  0  0  0  0
    3.1490   -0.0320   -0.0060 C   0  0  0  0  0  0  0  0  0  0  0  0
    3.1930    0.6710    1.1380 N   0  0  0  0  0  0  0  0  0  0  0  0
    1.9820    0.8580    1.6670 C   0  0  0  0  0  0  0  0  0  0  0  0
    1.5420    1.7090    3.1410 Cl  0  0  0  0  0  0  0  0  0  0  0  0
    1.0920    0.2270    0.7960 C   0  0  0  0  0  0  0  0  0  0  0  0
   -0.3650    0.1780    0.9940 C   0  0  0  0  0  0  0  0  0  0  0  0
   -1.0370   -0.5170   -0.0390 N   0  0  0  0  0  0  0  0  0  0  0  0
   -0.9360   -0.0100   -1.3540 C   0  0  0  0  0  0  0  0  0  0  0  0
   -2.2450    0.5510   -1.8480 C   0  0  0  0  0  0  0  0  0  0  0  0
   -3.3410   -0.2130   -1.5720 O   0  0  0  0  0  0  0  0  0  0  0  0
   -3.4760   -0.5980   -0.2660 C   0  0  2  0  0  0  0  0  0  0  0  0
   -4.0150    0.5240    0.6160 C   0  0  0  0  0  0  0  0  0  0  0  0
   -5.3220    0.8940    0.0780 N   0  0  0  0  0  0  0  0  0  0  0  0
   -5.5630    2.0550   -0.3330 O   0  0  0  0  0  0  0  0  0  0  0  0
   -6.2930   -0.0940    0.0390 O   0  0  0  0  0  0  0  0  0  0  0  0
   -2.2300   -1.2050    0.3060 C   0  0  0  0  0  0  0  0  0  0  0  0
    1.8250   -0.2980   -0.1970 N   0  0  0  0  0  0  0  0  0  0  0  0
  1  2  1  0
  2  3  2  3
  3  4  1  0
  3  5  1  0
  5  6  2  0
  5 21  1  0
  6  7  1  0
  7  8  1  0
  7  9  2  0
  9 10  1  0
  9 21  1  0
 10 11  1  0
 11 12  1  0
 11 20  1  0
 12 13  1  0
 13 14  1  0
 14 15  1  0
 15 16  1  1
 15 20  1  0
 16 17  1  0
 17 18  2  0
 17 19  1  0
M  CHG  2  17   1  19  -1
M  END
