
     RDKit          3D

 10  9  0  0  0  0  0  0  0  0999 V2000
   -1.7100   -1.4850   -0.3790 C   0  0  0  0  0  0  0  0  0  0  0  0
   -1.0610   -0.1810    0.0130 C   0  0  1  0  0  0  0  0  0  0  0  0
   -1.1900   -0.0130    1.3910 O   0  0  0  0  0  0  0  0  0  0  0  0
    0.4040   -0.2450   -0.3050 C   0  0  0  0  0  0  0  0  0  0  0  0
    1.0100    0.9980   -0.2050 O   0  0  0  0  0  0  0  0  0  0  0  0
    2.6920    0.9210   -0.5340 P   0  0  0  0  0  0  0  0  0  0  0  0
    3.4630   -0.4900    0.0570 O   0  0  0  0  0  0  0  0  0  0  0  0
    3.4700    2.3180    0.1420 O   0  0  0  0  0  0  0  0  0  0  0  0
   -1.7310    0.8470   -0.6200 O   0  0  0  0  0  0  0  0  0  0  0  0
   -2.9930    0.7720   -0.2200 O   0  0  0  0  0  0  0  0  0  0  0  0
  2  1  1  6
  2  3  1  0
  2  4  1  0
  2  9  1  0
  4  5  1  0
  5  6  1  0
  6  7  1  0
  6  8  1  0
  9 10  1  0
M  END
