
     RDKit          3D

 28 29  0  0  0  0  0  0  0  0999 V2000
   -1.5990   -3.5000   -0.0790 C   0  0  0  0  0  0  0  0  0  0  0  0
   -1.6500   -2.7880   -1.2290 O   0  0  0  0  0  0  0  0  0  0  0  0
   -2.4610   -1.7220   -1.3060 C   0  0  0  0  0  0  0  0  0  0  0  0
   -2.2450   -0.5660   -0.3740 C   0  0  2  0  0  0  0  0  0  0  0  0
   -2.5050   -0.8940    1.0700 C   0  0  0  0  0  0  0  0  0  0  0  0
   -3.1670    0.4570   -0.7730 O   0  0  0  0  0  0  0  0  0  0  0  0
   -0.9910   -0.0550   -0.5290 O   0  0  0  0  0  0  0  0  0  0  0  0
   -0.7150    0.9880    0.2720 N   0  0  0  0  0  0  0  0  0  0  0  0
   -1.6560    2.3890   -0.2970 P   0  0  0  0  0  0  0  0  0  0  0  0
   -0.8270    4.2190   -0.3480 P   0  0  0  0  0  0  0  0  0  0  0  0
   -1.7090    5.5990   -0.8950 O   0  0  0  0  0  0  0  0  0  0  0  0
   -2.9170    5.6890   -0.3020 N   0  0  0  0  0  0  0  0  0  0  0  0
    0.7190    1.2570    0.2500 C   0  0  2  0  0  0  0  0  0  0  0  0
    0.9270    2.3510    1.1050 O   0  0  0  0  0  0  0  0  0  0  0  0
    1.0420    1.6080   -1.0470 O   0  0  0  0  0  0  0  0  0  0  0  0
    2.3160    1.4220   -1.3740 N   0  0  0  0  0  0  0  0  0  0  0  0
    3.1210    2.4300   -1.0100 O   0  0  0  0  0  0  0  0  0  0  0  0
    3.8410    2.1510    0.0610 O   0  0  0  0  0  0  0  0  0  0  0  0
    3.1550    1.4650    0.9480 O   0  0  0  0  0  0  0  0  0  0  0  0
    2.7220    0.2430    0.4380 C   0  0  2  0  0  0  0  0  0  0  0  0
    3.4480   -0.8000    0.9960 O   0  0  0  0  0  0  0  0  0  0  0  0
    3.0790   -2.0370    0.5420 C   0  0  2  0  0  0  0  0  0  0  0  0
    3.2270   -2.1920   -0.8330 O   0  0  0  0  0  0  0  0  0  0  0  0
    1.7500   -2.3160    0.8740 O   0  0  0  0  0  0  0  0  0  0  0  0
    4.1490   -3.3200    1.3550 P   0  0  0  0  0  0  0  0  0  0  0  0
    5.7100   -3.2050    1.3040 O   0  0  0  0  0  0  0  0  0  0  0  0
    2.8150    0.2350   -0.9690 O   0  0  0  0  0  0  0  0  0  0  0  0
    1.3600    0.1410    0.7170 O   0  0  0  0  0  0  0  0  0  0  0  0
  1  2  1  0
  2  3  1  0
  3  4  1  0
  4  5  1  1
  4  6  1  0
  4  7  1  0
  7  8  1  0
  8  9  1  0
  8 13  1  0
  9 10  2  3
 10 11  1  0
 11 12  1  0
 13 14  1  1
 13 15  1  0
 13 28  1  0
 15 16  1  0
 16 17  1  0
 16 27  1  0
 17 18  1  0
 18 19  1  0
 19 20  1  0
 20 21  1  1
 20 27  1  0
 20 28  1  0
 21 22  1  0
 22 23  1  6
 22 24  1  0
 22 25  1  0
 25 26  2  0
M  END
