
     RDKit          3D

 10  9  0  0  0  0  0  0  0  0999 V2000
   -3.0920    0.0560    0.3090 C   0  0  0  0  0  0  0  0  0  0  0  0
   -2.9090   -1.1260   -0.4050 O   0  0  0  0  0  0  0  0  0  0  0  0
   -1.2280   -1.3110   -0.8630 P   0  0  0  0  0  0  0  0  0  0  0  0
   -0.7760    0.1260   -1.7030 O   0  0  0  0  0  0  0  0  0  0  0  0
   -0.3390   -1.5780    0.5690 O   0  0  0  0  0  0  0  0  0  0  0  0
    0.9820   -1.4200    0.4230 O   0  0  0  0  0  0  0  0  0  0  0  0
    1.5140   -0.1400    0.3230 C   0  0  0  0  0  0  0  0  0  0  0  0
    0.6960    0.8140    0.3790 O   0  0  0  0  0  0  0  0  0  0  0  0
    2.9620    0.1210    0.1590 C   0  0  0  0  0  0  0  0  0  0  0  0
    3.1590    1.4980    0.0920 O   0  0  0  0  0  0  0  0  0  0  0  0
  1  2  1  0
  2  3  1  0
  3  4  1  0
  3  5  1  0
  5  6  1  0
  6  7  1  0
  7  8  2  0
  7  9  1  0
  9 10  1  0
M  END
