
     RDKit          3D

 28 29  0  0  0  0  0  0  0  0999 V2000
    0.2720    0.8650    1.7830 C   0  0  0  0  0  0  0  0  0  0  0  0
    0.6680    1.0100    0.3360 C   0  0  2  0  0  0  0  0  0  0  0  0
    0.9350    2.4220    0.1180 N   0  0  0  0  0  0  0  0  0  0  0  0
   -0.3530    0.6630   -0.5420 O   0  0  0  0  0  0  0  0  0  0  0  0
   -1.0650   -0.3450   -0.1550 O   0  0  0  0  0  0  0  0  0  0  0  0
   -2.4200   -0.0390   -0.0490 C   0  0  2  0  0  0  0  0  0  0  0  0
   -3.0520    0.1470   -1.4090 C   0  0  0  0  0  0  0  0  0  0  0  0
   -2.6020    1.1780    0.6410 O   0  0  0  0  0  0  0  0  0  0  0  0
   -3.8750    1.4690    0.7430 O   0  0  0  0  0  0  0  0  0  0  0  0
   -4.6020    0.3950    0.5490 O   0  0  0  0  0  0  0  0  0  0  0  0
   -5.7720    0.7670    0.1280 O   0  0  0  0  0  0  0  0  0  0  0  0
   -3.0030   -1.0820    0.6700 O   0  0  0  0  0  0  0  0  0  0  0  0
   -2.5830   -2.3060    0.2160 C   0  0  1  0  0  0  0  0  0  0  0  0
   -2.9980   -2.5470   -1.0980 O   0  0  0  0  0  0  0  0  0  0  0  0
   -1.1630   -2.5080    0.2600 N   0  0  0  0  0  0  0  0  0  0  0  0
   -0.6920   -2.6160    1.5220 O   0  0  0  0  0  0  0  0  0  0  0  0
    0.6050   -2.4560    1.4960 O   0  0  0  0  0  0  0  0  0  0  0  0
    1.3030   -2.5680   -0.0550 P   0  0  0  0  0  0  0  0  0  0  0  0
    1.6610   -0.9620   -0.8510 C   0  0  0  0  0  0  0  0  0  0  0  0
    1.9110    0.1620    0.1040 C   0  0  1  0  0  0  0  0  0  0  0  0
    2.8680    1.0060   -0.4550 O   0  0  0  0  0  0  0  0  0  0  0  0
    3.9900    1.0930    0.2550 N   0  0  0  0  0  0  0  0  0  0  0  0
    5.1460   -0.1310   -0.4100 P   0  0  0  0  0  0  0  0  0  0  0  0
    5.6900   -1.3240    0.5160 N   0  0  0  0  0  0  0  0  0  0  0  0
    4.7810    2.7080    0.0040 P   0  0  0  0  0  0  0  0  0  0  0  0
    3.8170    3.9830    0.6410 O   0  0  0  0  0  0  0  0  0  0  0  0
    0.2710   -3.5320   -1.0640 O   0  0  0  0  0  0  0  0  0  0  0  0
   -0.8880   -3.6290   -0.4520 O   0  0  0  0  0  0  0  0  0  0  0  0
  2  1  1  1
  2  3  1  0
  2  4  1  0
  2 20  1  0
  4  5  1  0
  5  6  1  0
  6  7  1  6
  6  8  1  0
  6 12  1  0
  8  9  1  0
  9 10  1  0
 10 11  1  0
 12 13  1  0
 13 14  1  6
 13 15  1  0
 15 16  1  0
 15 28  1  0
 16 17  1  0
 17 18  1  0
 18 19  1  0
 18 27  1  0
 19 20  1  0
 20 21  1  6
 21 22  1  0
 22 23  1  0
 22 25  1  0
 23 24  2  0
 25 26  1  0
 27 28  1  0
M  END
