
     RDKit          3D

 10  9  0  0  0  0  0  0  0  0999 V2000
    1.4220   -0.4620   -1.5570 O   0  0  0  0  0  0  0  0  0  0  0  0
    2.1320   -0.6220   -0.5610 C   0  0  0  0  0  0  0  0  0  0  0  0
    3.2940   -1.4120   -0.6190 O   0  0  0  0  0  0  0  0  0  0  0  0
    1.7900   -0.0290    0.6050 O   0  0  0  0  0  0  0  0  0  0  0  0
    0.7370    0.7730    0.9620 C   0  0  0  0  0  0  0  0  0  0  0  0
   -0.6410    0.2240    0.9200 C   0  0  1  0  0  0  0  0  0  0  0  0
   -1.4930    1.2670    1.3770 O   0  0  0  0  0  0  0  0  0  0  0  0
   -1.2860   -0.2840   -0.7110 P   0  0  0  0  0  0  0  0  0  0  0  0
   -1.6140   -1.9660   -0.8230 O   0  0  0  0  0  0  0  0  0  0  0  0
   -2.6770    0.5960   -1.2180 O   0  0  0  0  0  0  0  0  0  0  0  0
  1  2  2  0
  2  3  1  0
  2  4  1  0
  4  5  1  0
  5  6  1  0
  6  7  1  6
  6  8  1  0
  8  9  1  0
  8 10  1  0
M  END
