
     RDKit          3D

 28 28  0  0  0  0  0  0  0  0999 V2000
   -1.9620    3.0860    0.2660 C   0  0  0  0  0  0  0  0  0  0  0  0
   -0.6240    2.3850    0.1550 C   0  0  2  0  0  0  0  0  0  0  0  0
    0.3680    3.3270    0.4900 O   0  0  0  0  0  0  0  0  0  0  0  0
   -0.4320    2.0630   -1.1830 O   0  0  0  0  0  0  0  0  0  0  0  0
    0.6620    1.4200   -1.4390 O   0  0  0  0  0  0  0  0  0  0  0  0
    0.5880    0.1760   -0.7610 C   0  0  2  0  0  0  0  0  0  0  0  0
    1.7530    0.1590    0.0960 N   0  0  0  0  0  0  0  0  0  0  0  0
    1.9640   -1.3050    1.0520 P   0  0  0  0  0  0  0  0  0  0  0  0
    0.6020   -0.8070   -1.7140 O   0  0  0  0  0  0  0  0  0  0  0  0
    1.6980   -0.7300   -2.4040 O   0  0  0  0  0  0  0  0  0  0  0  0
    2.5750    0.1530   -1.9500 O   0  0  0  0  0  0  0  0  0  0  0  0
    3.9390   -0.1070   -1.8440 C   0  0  0  0  0  0  0  0  0  0  0  0
    4.3700   -1.1820   -2.3900 N   0  0  0  0  0  0  0  0  0  0  0  0
    4.8570    0.7740   -1.1560 C   0  0  0  0  0  0  0  0  0  0  0  0
    4.5040    1.8430   -0.5990 O   0  0  0  0  0  0  0  0  0  0  0  0
    6.2280    0.4210   -1.1030 N   0  0  0  0  0  0  0  0  0  0  0  0
    6.6830   -0.4940   -0.4130 O   0  0  0  0  0  0  0  0  0  0  0  0
   -0.6260    0.1450    0.1300 C   0  0  1  0  0  0  0  0  0  0  0  0
   -1.8140    0.2970   -0.5740 O   0  0  0  0  0  0  0  0  0  0  0  0
   -2.8050    0.2500    0.2830 O   0  0  0  0  0  0  0  0  0  0  0  0
   -2.3670    0.0860    1.4890 O   0  0  0  0  0  0  0  0  0  0  0  0
   -3.3300   -0.3260    2.3880 C   0  0  0  0  0  0  0  0  0  0  0  0
   -4.0370   -1.9530    1.8460 P   0  0  0  0  0  0  0  0  0  0  0  0
   -0.6910   -1.0650    0.7660 O   0  0  0  0  0  0  0  0  0  0  0  0
   -0.8250   -2.3980   -0.3210 P   0  0  0  0  0  0  0  0  0  0  0  0
   -1.4100   -3.8210    0.4340 O   0  0  0  0  0  0  0  0  0  0  0  0
   -1.8150   -2.0450   -1.6850 O   0  0  0  0  0  0  0  0  0  0  0  0
   -0.5400    1.2500    0.9730 O   0  0  0  0  0  0  0  0  0  0  0  0
  2  1  1  6
  2  3  1  0
  2  4  1  0
  2 28  1  0
  4  5  1  0
  5  6  1  0
  6  7  1  1
  6  9  1  0
  6 18  1  0
  7  8  1  0
  9 10  1  0
 10 11  1  0
 11 12  1  0
 12 13  2  0
 12 14  1  0
 14 15  2  0
 14 16  1  0
 16 17  2  0
 18 19  1  6
 18 24  1  0
 18 28  1  0
 19 20  1  0
 20 21  1  0
 21 22  1  0
 22 23  1  0
 24 25  1  0
 25 26  1  0
 25 27  1  0
M  END
