
     RDKit          3D

  9  8  0  0  0  0  0  0  0  0999 V2000
   -3.2350   -0.8760    0.3610 O   0  0  0  0  0  0  0  0  0  0  0  0
   -2.6850    0.2620    0.3630 C   0  0  0  0  0  0  0  0  0  0  0  0
   -3.4110    1.3690    0.7970 O   0  0  0  0  0  0  0  0  0  0  0  0
   -1.3790    0.3270   -0.0720 O   0  0  0  0  0  0  0  0  0  0  0  0
   -0.7090   -0.8280   -0.4940 C   0  0  0  0  0  0  0  0  0  0  0  0
    0.7170   -0.4680   -0.9210 C   0  0  0  0  0  0  0  0  0  0  0  0
    1.6790    0.2810    0.4580 P   0  0  0  0  0  0  0  0  0  0  0  0
    3.2790   -0.4360    0.5130 O   0  0  0  0  0  0  0  0  0  0  0  0
    4.0740    0.1410   -0.3790 O   0  0  0  0  0  0  0  0  0  0  0  0
  1  2  2  0
  2  3  1  0
  2  4  1  0
  4  5  1  0
  5  6  1  0
  6  7  1  0
  7  8  1  0
  8  9  1  0
M  END
