
     RDKit          3D

 25 26  0  0  0  0  0  0  0  0999 V2000
   -2.1340   -2.3110   -0.3400 C   0  0  0  0  0  0  0  0  0  0  0  0
   -1.9470   -1.4810    0.7340 O   0  0  0  0  0  0  0  0  0  0  0  0
   -1.7860   -0.1490    0.4530 C   0  0  2  0  0  0  0  0  0  0  0  0
   -1.6150    0.4950    1.7030 O   0  0  0  0  0  0  0  0  0  0  0  0
   -2.6550    0.3160    2.4790 O   0  0  0  0  0  0  0  0  0  0  0  0
   -3.0270   -0.9600    2.5860 N   0  0  0  0  0  0  0  0  0  0  0  0
   -2.9900    0.4570   -0.1810 C   0  0  0  0  0  0  0  0  0  0  0  0
   -2.7680    1.8440   -0.3500 O   0  0  0  0  0  0  0  0  0  0  0  0
   -1.7650    1.9570   -1.7880 P   0  0  0  0  0  0  0  0  0  0  0  0
   -0.8310    3.3930   -1.8080 O   0  0  0  0  0  0  0  0  0  0  0  0
   -1.5340    4.3380   -1.2030 O   0  0  0  0  0  0  0  0  0  0  0  0
   -0.6940    0.4180   -1.7460 C   0  0  0  0  0  0  0  0  0  0  0  0
   -0.5080    0.0460   -0.3110 C   0  0  1  0  0  0  0  0  0  0  0  0
    0.3400    1.1660    0.3170 C   0  0  0  0  0  0  0  0  0  0  0  0
    1.5910    0.8090   -0.2410 O   0  0  0  0  0  0  0  0  0  0  0  0
    1.6270   -0.5440    0.0840 C   0  0  2  0  0  0  0  0  0  0  0  0
    2.0080   -0.6360    1.4200 O   0  0  0  0  0  0  0  0  0  0  0  0
    3.1660   -0.1220    1.6640 O   0  0  0  0  0  0  0  0  0  0  0  0
    3.9610    0.5590    0.2850 P   0  0  0  0  0  0  0  0  0  0  0  0
    3.9470    2.2840    0.3630 O   0  0  0  0  0  0  0  0  0  0  0  0
    5.5740   -0.0770    0.2280 O   0  0  0  0  0  0  0  0  0  0  0  0
    2.7730   -1.5040   -1.0330 P   0  0  0  0  0  0  0  0  0  0  0  0
    1.8580   -2.2020   -2.3340 O   0  0  0  0  0  0  0  0  0  0  0  0
    3.5260   -2.8180   -0.1790 O   0  0  0  0  0  0  0  0  0  0  0  0
    0.3440   -1.0360   -0.1240 O   0  0  0  0  0  0  0  0  0  0  0  0
  1  2  1  0
  3  2  1  1
  3  4  1  0
  3  7  1  0
  3 13  1  0
  4  5  1  0
  5  6  1  0
  7  8  1  0
  8  9  1  0
  9 10  1  0
  9 12  1  0
 10 11  1  0
 13 12  1  6
 13 14  1  0
 13 25  1  0
 14 15  1  0
 15 16  1  0
 16 17  1  1
 16 22  1  0
 16 25  1  0
 17 18  1  0
 18 19  1  0
 19 20  1  0
 19 21  1  0
 22 23  1  0
 22 24  1  0
M  END
