
     RDKit          3D

 27 27  0  0  0  0  0  0  0  0999 V2000
    4.4190    2.9550   -0.0980 O   0  0  0  0  0  0  0  0  0  0  0  0
    5.3790    2.5880   -0.7870 C   0  0  0  0  0  0  0  0  0  0  0  0
    6.2720    3.5520   -1.2420 O   0  0  0  0  0  0  0  0  0  0  0  0
    5.6020    1.2900   -1.1180 O   0  0  0  0  0  0  0  0  0  0  0  0
    4.7670    0.2520   -0.7150 C   0  0  0  0  0  0  0  0  0  0  0  0
    3.3810    0.4580   -1.2670 C   0  0  0  0  0  0  0  0  0  0  0  0
    2.5180   -0.5800   -0.8720 O   0  0  0  0  0  0  0  0  0  0  0  0
    2.6960   -1.8980   -1.1930 C   0  0  0  0  0  0  0  0  0  0  0  0
    3.6740   -2.2540   -1.8820 O   0  0  0  0  0  0  0  0  0  0  0  0
    1.7090   -2.9050   -0.7090 C   0  0  0  0  0  0  0  0  0  0  0  0
    0.7160   -2.2670    0.0340 O   0  0  0  0  0  0  0  0  0  0  0  0
    0.9500   -1.5360    1.1840 C   0  0  0  0  0  0  0  0  0  0  0  0
    2.1360   -1.4310    1.5990 O   0  0  0  0  0  0  0  0  0  0  0  0
   -0.1810   -0.8770    1.9280 C   0  0  2  0  0  0  0  0  0  0  0  0
    0.2810   -0.2040    3.0430 O   0  0  0  0  0  0  0  0  0  0  0  0
   -1.1110   -2.0040    2.3410 C   0  0  0  0  0  0  0  0  0  0  0  0
   -2.2170   -1.9450    1.4940 O   0  0  0  0  0  0  0  0  0  0  0  0
   -1.8930   -1.9610    0.2350 O   0  0  0  0  0  0  0  0  0  0  0  0
   -1.5210   -0.6780   -0.1790 C   0  0  1  0  0  0  0  0  0  0  0  0
   -2.6870    0.0510   -0.7810 C   0  0  0  0  0  0  0  0  0  0  0  0
   -3.8380    0.2180    0.1760 C   0  0  0  0  0  0  0  0  0  0  0  0
   -4.9320    0.9620   -0.5620 C   0  0  0  0  0  0  0  0  0  0  0  0
   -4.4340    2.2120   -0.9700 O   0  0  0  0  0  0  0  0  0  0  0  0
   -5.4070    2.8460   -1.6140 O   0  0  0  0  0  0  0  0  0  0  0  0
   -6.5380    2.5150   -1.0470 O   0  0  0  0  0  0  0  0  0  0  0  0
   -0.9740    0.0030    1.0230 C   0  0  0  0  0  0  0  0  0  0  0  0
   -1.1140    1.1550    1.3140 O   0  0  0  0  0  0  0  0  0  0  0  0
  1  2  2  0
  2  3  1  0
  2  4  1  0
  4  5  1  0
  5  6  1  0
  6  7  1  0
  7  8  1  0
  8  9  2  0
  8 10  1  0
 10 11  1  0
 11 12  1  0
 12 13  2  0
 12 14  1  0
 14 15  1  1
 14 16  1  0
 14 26  1  0
 16 17  1  0
 17 18  1  0
 18 19  1  0
 19 20  1  1
 19 26  1  0
 20 21  1  0
 21 22  1  0
 22 23  1  0
 23 24  1  0
 24 25  1  0
 26 27  2  0
M  END
