
     RDKit          3D

 27 28  0  0  0  0  0  0  0  0999 V2000
   -1.0700   -1.3460   -0.3300 O   0  0  0  0  0  0  0  0  0  0  0  0
   -1.1290   -0.1530    0.0630 C   0  0  0  0  0  0  0  0  0  0  0  0
    0.1480    0.5910    0.2880 C   0  0  0  0  0  0  0  0  0  0  0  0
    1.2680   -0.1980    0.0110 O   0  0  0  0  0  0  0  0  0  0  0  0
    2.5200    0.3770    0.1810 C   0  0  0  0  0  0  0  0  0  0  0  0
    2.6430    1.5520    0.5650 O   0  0  0  0  0  0  0  0  0  0  0  0
    3.7300   -0.4250   -0.1020 C   0  0  0  0  0  0  0  0  0  0  0  0
    3.7390   -1.7350   -0.5330 C   0  0  0  0  0  0  0  0  0  0  0  0
    5.0640   -2.0900   -0.6700 C   0  0  0  0  0  0  0  0  0  0  0  0
    5.8180   -0.9920   -0.3200 C   0  0  0  0  0  0  0  0  0  0  0  0
    7.2950   -0.9140   -0.3170 C   0  0  0  0  0  0  0  0  0  0  0  0
    7.9900   -1.8820   -0.6460 O   0  0  0  0  0  0  0  0  0  0  0  0
    7.9190    0.2650    0.0610 O   0  0  0  0  0  0  0  0  0  0  0  0
    9.2410    0.3610    0.0730 O   0  0  0  0  0  0  0  0  0  0  0  0
    9.5220    1.6630    0.0380 O   0  0  0  0  0  0  0  0  0  0  0  0
    4.9720   -0.0530    0.0020 O   0  0  0  0  0  0  0  0  0  0  0  0
   -2.3570    0.4100    0.2670 O   0  0  0  0  0  0  0  0  0  0  0  0
   -3.5630   -0.2310    0.0750 C   0  0  0  0  0  0  0  0  0  0  0  0
   -3.5550   -1.4200   -0.3150 O   0  0  0  0  0  0  0  0  0  0  0  0
   -4.8650    0.4390    0.3160 C   0  0  1  0  0  0  0  0  0  0  0  0
   -4.7060    1.7480    0.7420 O   0  0  0  0  0  0  0  0  0  0  0  0
   -5.6830    0.3900   -0.9660 C   0  0  0  0  0  0  0  0  0  0  0  0
   -6.9390    0.9000   -0.8050 O   0  0  0  0  0  0  0  0  0  0  0  0
   -7.5430    0.7210    0.4050 C   0  0  0  0  0  0  0  0  0  0  0  0
   -7.0030   -0.3540    1.1780 O   0  0  0  0  0  0  0  0  0  0  0  0
   -5.6250   -0.3570    1.3100 C   0  0  0  0  0  0  0  0  0  0  0  0
   -5.1110   -1.0170    2.2400 O   0  0  0  0  0  0  0  0  0  0  0  0
  1  2  2  0
  2  3  1  0
  2 17  1  0
  3  4  1  0
  4  5  1  0
  5  6  2  0
  5  7  1  0
  7  8  2  0
  7 16  1  0
  8  9  1  0
  9 10  2  0
 10 11  1  0
 10 16  1  0
 11 12  2  0
 11 13  1  0
 13 14  1  0
 14 15  1  0
 17 18  1  0
 18 19  2  0
 18 20  1  0
 20 21  1  1
 20 22  1  0
 20 26  1  0
 22 23  1  0
 23 24  1  0
 24 25  1  0
 25 26  1  0
 26 27  2  0
M  END
