
     RDKit          3D

 10  9  0  0  0  0  0  0  0  0999 V2000
   -1.2310    1.5360   -0.2530 C   0  0  0  0  0  0  0  0  0  0  0  0
   -0.6880    0.1600   -0.0310 C   0  0  1  0  0  0  0  0  0  0  0  0
    0.4890    0.1410    0.6900 O   0  0  0  0  0  0  0  0  0  0  0  0
    1.7750   -0.4020    0.0630 P   0  0  0  0  0  0  0  0  0  0  0  0
    2.7330   -0.1930    1.3230 O   0  0  0  0  0  0  0  0  0  0  0  0
    1.5940    0.8360   -1.1120 O   0  0  0  0  0  0  0  0  0  0  0  0
    1.0800   -1.8470   -0.2760 O   0  0  0  0  0  0  0  0  0  0  0  0
   -1.7070   -0.7590    0.5610 C   0  0  0  0  0  0  0  0  0  0  0  0
   -1.4800   -1.4430    1.5840 O   0  0  0  0  0  0  0  0  0  0  0  0
   -2.9620   -0.8860   -0.0170 O   0  0  0  0  0  0  0  0  0  0  0  0
  2  1  1  1
  2  3  1  0
  2  8  1  0
  3  4  1  0
  4  5  1  0
  4  6  1  0
  4  7  1  0
  8  9  2  0
  8 10  1  0
M  END
