
     RDKit          3D

 27 28  0  0  0  0  0  0  0  0999 V2000
   -4.3200    2.9510    1.5700 C   0  0  0  0  0  0  0  0  0  0  0  0
   -3.5170    1.8420    1.1660 O   0  0  0  0  0  0  0  0  0  0  0  0
   -4.0140    0.8970    0.2930 C   0  0  0  0  0  0  0  0  0  0  0  0
   -5.1880    1.0310   -0.1410 O   0  0  0  0  0  0  0  0  0  0  0  0
   -3.2500   -0.2830   -0.1780 C   0  0  0  0  0  0  0  0  0  0  0  0
   -1.9780   -0.3420    0.3520 O   0  0  0  0  0  0  0  0  0  0  0  0
   -1.3410   -1.4550   -0.1300 C   0  0  2  0  0  0  0  0  0  0  0  0
   -1.2080   -1.4760   -1.6380 C   0  0  0  0  0  0  0  0  0  0  0  0
   -2.3030   -2.2430   -2.1060 O   0  0  0  0  0  0  0  0  0  0  0  0
   -2.7390   -3.1060   -1.1130 C   0  0  0  0  0  0  0  0  0  0  0  0
   -3.5660   -4.0330   -1.2780 O   0  0  0  0  0  0  0  0  0  0  0  0
   -2.0730   -2.7500    0.1580 C   0  0  1  0  0  0  0  0  0  0  0  0
   -1.0530   -3.7290    0.3680 O   0  0  0  0  0  0  0  0  0  0  0  0
    0.1990   -3.1690    0.1610 C   0  0  0  0  0  0  0  0  0  0  0  0
    1.2510   -3.7590   -0.2010 O   0  0  0  0  0  0  0  0  0  0  0  0
    0.0090   -1.7100    0.4660 C   0  0  1  0  0  0  0  0  0  0  0  0
    0.9660   -0.9070   -0.1560 O   0  0  0  0  0  0  0  0  0  0  0  0
    1.8470   -0.0940    0.5440 C   0  0  0  0  0  0  0  0  0  0  0  0
    1.7920   -0.0720    1.7800 O   0  0  0  0  0  0  0  0  0  0  0  0
    2.8140    0.7090   -0.2320 C   0  0  1  0  0  0  0  0  0  0  0  0
    1.9900    1.6580   -1.1090 C   0  0  0  0  0  0  0  0  0  0  0  0
    3.6470    1.4870    0.5920 O   0  0  0  0  0  0  0  0  0  0  0  0
    5.0130    1.3090    0.5110 C   0  0  0  0  0  0  0  0  0  0  0  0
    5.5280    0.4820   -0.2680 O   0  0  0  0  0  0  0  0  0  0  0  0
    5.8760    2.0650    1.3150 O   0  0  0  0  0  0  0  0  0  0  0  0
    7.2140    1.9100    1.2560 O   0  0  0  0  0  0  0  0  0  0  0  0
    7.6560    2.5600    0.2090 O   0  0  0  0  0  0  0  0  0  0  0  0
  1  2  1  0
  2  3  1  0
  3  4  2  0
  3  5  1  0
  5  6  1  0
  7  6  1  1
  7  8  1  0
  7 12  1  0
  7 16  1  0
  8  9  1  0
  9 10  1  0
 10 11  2  0
 10 12  1  0
 12 13  1  6
 13 14  1  0
 14 15  2  0
 14 16  1  0
 16 17  1  6
 17 18  1  0
 18 19  2  0
 18 20  1  0
 20 21  1  6
 20 22  1  0
 22 23  1  0
 23 24  2  0
 23 25  1  0
 25 26  1  0
 26 27  1  0
M  END
