
     RDKit          3D

 27 27  0  0  0  0  0  0  0  0999 V2000
    1.8000   -1.2100   -0.8540 O   0  0  0  0  0  0  0  0  0  0  0  0
    2.8180   -0.7970   -0.2480 C   0  0  0  0  0  0  0  0  0  0  0  0
    2.6480   -0.1250    1.0440 C   0  0  0  0  0  0  0  0  0  0  0  0
    1.3350   -0.0160    1.4790 O   0  0  0  0  0  0  0  0  0  0  0  0
    0.3080    0.6270    0.8320 C   0  0  0  0  0  0  0  0  0  0  0  0
    0.6150    1.1700   -0.2810 O   0  0  0  0  0  0  0  0  0  0  0  0
   -1.0750    0.7030    1.3650 C   0  0  1  0  0  0  0  0  0  0  0  0
   -1.9410    1.4060    0.5220 O   0  0  0  0  0  0  0  0  0  0  0  0
   -2.6440    2.5520    0.9050 C   0  0  0  0  0  0  0  0  0  0  0  0
   -2.4560    2.9390    2.0890 O   0  0  0  0  0  0  0  0  0  0  0  0
   -3.5450    3.2490   -0.0380 C   0  0  0  0  0  0  0  0  0  0  0  0
   -3.5240    2.5690   -1.2520 O   0  0  0  0  0  0  0  0  0  0  0  0
   -4.2910    3.1110   -2.1500 O   0  0  0  0  0  0  0  0  0  0  0  0
   -1.5710   -0.6840    1.6940 C   0  0  1  0  0  0  0  0  0  0  0  0
   -2.9870   -0.5890    2.2380 C   0  0  0  0  0  0  0  0  0  0  0  0
   -3.8670   -0.0990    1.2770 O   0  0  0  0  0  0  0  0  0  0  0  0
   -4.3220   -1.1560    0.5060 C   0  0  0  0  0  0  0  0  0  0  0  0
   -3.5540   -1.1880   -0.7750 C   0  0  0  0  0  0  0  0  0  0  0  0
   -2.2510   -1.7100   -0.5920 O   0  0  0  0  0  0  0  0  0  0  0  0
   -1.4830   -1.6280    0.5650 C   0  0  0  0  0  0  0  0  0  0  0  0
   -0.5840   -2.5040    0.6310 O   0  0  0  0  0  0  0  0  0  0  0  0
    4.0400   -1.0140   -0.8590 O   0  0  0  0  0  0  0  0  0  0  0  0
    4.1640   -1.6730   -2.1200 C   0  0  0  0  0  0  0  0  0  0  0  0
    5.6600   -1.7010   -2.4220 C   0  0  0  0  0  0  0  0  0  0  0  0
    6.0880   -0.3780   -2.4690 O   0  0  0  0  0  0  0  0  0  0  0  0
    7.3610   -0.2720   -2.7220 O   0  0  0  0  0  0  0  0  0  0  0  0
    7.9090    0.6640   -1.9830 O   0  0  0  0  0  0  0  0  0  0  0  0
  1  2  2  0
  2  3  1  0
  2 22  1  0
  3  4  1  0
  4  5  1  0
  5  6  2  0
  5  7  1  0
  7  8  1  6
  7 14  1  0
  8  9  1  0
  9 10  2  0
  9 11  1  0
 11 12  1  0
 12 13  1  0
 14 15  1  6
 14 20  1  0
 15 16  1  0
 16 17  1  0
 17 18  1  0
 18 19  1  0
 19 20  1  0
 20 21  2  0
 22 23  1  0
 23 24  1  0
 24 25  1  0
 25 26  1  0
 26 27  1  0
M  END
