
     RDKit          3D

 27 28  0  0  0  0  0  0  0  0999 V2000
    5.5960    1.1450    0.3970 O   0  0  0  0  0  0  0  0  0  0  0  0
    4.6120    1.8750    0.1170 C   0  0  0  0  0  0  0  0  0  0  0  0
    4.8570    3.2180   -0.1190 O   0  0  0  0  0  0  0  0  0  0  0  0
    3.2760    1.2900    0.0510 C   0  0  0  0  0  0  0  0  0  0  0  0
    3.0670    0.0070    0.2790 C   0  0  0  0  0  0  0  0  0  0  0  0
    4.1180   -0.8760    0.6000 O   0  0  0  0  0  0  0  0  0  0  0  0
    3.6000   -2.1530    0.7850 C   0  0  0  0  0  0  0  0  0  0  0  0
    2.1500   -1.9830    0.5520 C   0  0  0  0  0  0  0  0  0  0  0  0
    1.8410   -0.7340    0.2600 C   0  0  0  0  0  0  0  0  0  0  0  0
    0.4860   -0.2030   -0.0310 C   0  0  0  0  0  0  0  0  0  0  0  0
    0.4180    1.0140   -0.2850 O   0  0  0  0  0  0  0  0  0  0  0  0
   -0.6100   -0.9760   -0.0250 O   0  0  0  0  0  0  0  0  0  0  0  0
   -1.9310   -0.8070   -0.2370 C   0  0  0  0  0  0  0  0  0  0  0  0
   -2.4830    0.3380   -0.5160 C   0  0  0  0  0  0  0  0  0  0  0  0
   -1.7880    1.5550   -0.6270 O   0  0  0  0  0  0  0  0  0  0  0  0
   -2.3110    2.5780    0.1380 O   0  0  0  0  0  0  0  0  0  0  0  0
   -2.4990    3.8460   -0.3990 C   0  0  0  0  0  0  0  0  0  0  0  0
   -2.1920    4.0790   -1.5960 O   0  0  0  0  0  0  0  0  0  0  0  0
   -3.0230    4.8920    0.3490 O   0  0  0  0  0  0  0  0  0  0  0  0
   -3.9470    0.4120   -0.7470 C   0  0  0  0  0  0  0  0  0  0  0  0
   -4.5080    1.4830   -1.0080 O   0  0  0  0  0  0  0  0  0  0  0  0
   -4.6020   -0.8340   -0.6400 O   0  0  0  0  0  0  0  0  0  0  0  0
   -3.8300   -1.9030   -1.0810 O   0  0  0  0  0  0  0  0  0  0  0  0
   -2.8320   -2.0140   -0.1420 C   0  0  1  0  0  0  0  0  0  0  0  0
   -2.1040   -3.2790   -0.1990 C   0  0  0  0  0  0  0  0  0  0  0  0
   -1.1710   -3.6090    0.5670 O   0  0  0  0  0  0  0  0  0  0  0  0
   -2.4620   -4.2130   -1.1810 O   0  0  0  0  0  0  0  0  0  0  0  0
  1  2  2  0
  2  3  1  0
  2  4  1  0
  4  5  2  3
  5  6  1  0
  5  9  1  0
  6  7  1  0
  7  8  1  0
  8  9  2  0
  9 10  1  0
 10 11  2  0
 10 12  1  0
 12 13  1  0
 13 14  2  0
 13 24  1  0
 14 15  1  0
 14 20  1  0
 15 16  1  0
 16 17  1  0
 17 18  2  0
 17 19  1  0
 20 21  2  0
 20 22  1  0
 22 23  1  0
 23 24  1  0
 24 25  1  6
 25 26  2  0
 25 27  1  0
M  END
