
     RDKit          3D

 27 28  0  0  0  0  0  0  0  0999 V2000
   -3.9430   -0.3590    3.5100 O   0  0  0  0  0  0  0  0  0  0  0  0
   -3.2790   -1.2170    2.8770 C   0  0  0  0  0  0  0  0  0  0  0  0
   -2.6870   -0.8750    1.6820 O   0  0  0  0  0  0  0  0  0  0  0  0
   -2.8070    0.4190    1.1490 C   0  0  0  0  0  0  0  0  0  0  0  0
   -2.0940    0.5990   -0.1570 C   0  0  1  0  0  0  0  0  0  0  0  0
   -0.5650    0.5460   -0.0120 C   0  0  1  0  0  0  0  0  0  0  0  0
   -0.1540   -0.7880    0.5050 C   0  0  0  0  0  0  0  0  0  0  0  0
   -0.8200   -1.8760   -0.0620 O   0  0  0  0  0  0  0  0  0  0  0  0
   -0.1880   -3.0940   -0.1540 C   0  0  0  0  0  0  0  0  0  0  0  0
   -0.7940   -4.1950   -0.1850 O   0  0  0  0  0  0  0  0  0  0  0  0
    1.2930   -3.1210   -0.2210 C   0  0  0  0  0  0  0  0  0  0  0  0
    1.7790   -2.2760   -1.2180 O   0  0  0  0  0  0  0  0  0  0  0  0
    3.1400   -2.0200   -1.0490 C   0  0  0  0  0  0  0  0  0  0  0  0
    3.3740   -0.6430   -0.8230 O   0  0  0  0  0  0  0  0  0  0  0  0
    2.5550   -0.0020   -1.5890 O   0  0  0  0  0  0  0  0  0  0  0  0
    2.3540    1.3210   -1.3070 C   0  0  2  0  0  0  0  0  0  0  0  0
    2.7230    1.7190    0.1030 C   0  0  0  0  0  0  0  0  0  0  0  0
    4.0350    1.4980    0.4090 O   0  0  0  0  0  0  0  0  0  0  0  0
    4.2370    1.8790    1.6530 O   0  0  0  0  0  0  0  0  0  0  0  0
    5.3440    2.5390    1.8190 O   0  0  0  0  0  0  0  0  0  0  0  0
    0.9610    1.6970   -1.6500 C   0  0  0  0  0  0  0  0  0  0  0  0
    0.8140    2.7500   -2.3230 O   0  0  0  0  0  0  0  0  0  0  0  0
   -0.0490    0.9090   -1.2340 O   0  0  0  0  0  0  0  0  0  0  0  0
   -2.5600   -0.2580   -1.1270 O   0  0  0  0  0  0  0  0  0  0  0  0
   -3.7850    0.2680   -1.5140 C   0  0  0  0  0  0  0  0  0  0  0  0
   -3.7400    1.7270   -1.1130 C   0  0  0  0  0  0  0  0  0  0  0  0
   -2.4670    1.8840   -0.6240 O   0  0  0  0  0  0  0  0  0  0  0  0
  1  2  2  0
  2  3  1  0
  3  4  1  0
  5  4  1  1
  5  6  1  0
  5 24  1  0
  5 27  1  0
  6  7  1  6
  6 23  1  0
  7  8  1  0
  8  9  1  0
  9 10  2  0
  9 11  1  0
 11 12  1  0
 12 13  1  0
 13 14  1  0
 14 15  1  0
 15 16  1  0
 16 17  1  1
 16 21  1  0
 17 18  1  0
 18 19  1  0
 19 20  1  0
 21 22  2  0
 21 23  1  0
 24 25  1  0
 25 26  1  0
 26 27  1  0
M  END
