
     RDKit          3D

 19 18  0  0  0  0  0  0  0  0999 V2000
    4.6600   -1.3040    0.9800 O   0  0  0  0  0  0  0  0  0  0  0  0
    4.7620   -0.3590    0.1640 C   0  0  0  0  0  0  0  0  0  0  0  0
    6.0390    0.0620   -0.1780 O   0  0  0  0  0  0  0  0  0  0  0  0
    7.1700   -0.5960    0.4120 C   0  0  0  0  0  0  0  0  0  0  0  0
    8.3090    0.0220   -0.1020 O   0  0  0  0  0  0  0  0  0  0  0  0
    3.6070    0.2180   -0.3560 O   0  0  0  0  0  0  0  0  0  0  0  0
    2.3900   -0.2500    0.0270 O   0  0  0  0  0  0  0  0  0  0  0  0
    1.5820    0.3790    0.9450 C   0  0  0  0  0  0  0  0  0  0  0  0
    1.9860    1.4500    1.4630 O   0  0  0  0  0  0  0  0  0  0  0  0
    0.2740   -0.2480    1.2690 C   0  0  1  0  0  0  0  0  0  0  0  0
   -0.3990    0.5300    2.2130 O   0  0  0  0  0  0  0  0  0  0  0  0
   -0.5180   -0.3980    0.0310 C   0  0  0  0  0  0  0  0  0  0  0  0
   -0.0580   -1.0510   -0.8830 O   0  0  0  0  0  0  0  0  0  0  0  0
   -1.8880    0.2370   -0.1360 C   0  0  0  0  0  0  0  0  0  0  0  0
   -2.3650   -0.0590   -1.3360 O   0  0  0  0  0  0  0  0  0  0  0  0
   -3.4910    0.3120   -1.8970 C   0  0  0  0  0  0  0  0  0  0  0  0
   -4.8320   -0.0860   -1.4020 C   0  0  0  0  0  0  0  0  0  0  0  0
   -5.1970    0.3310   -0.0290 C   0  0  0  0  0  0  0  0  0  0  0  0
   -6.5270   -0.0500    0.2840 O   0  0  0  0  0  0  0  0  0  0  0  0
  1  2  2  0
  2  3  1  0
  2  6  1  0
  3  4  1  0
  4  5  1  0
  6  7  1  0
  7  8  1  0
  8  9  2  0
  8 10  1  0
 10 11  1  1
 10 12  1  0
 12 13  2  0
 12 14  1  0
 14 15  1  0
 15 16  1  0
 16 17  1  0
 17 18  1  0
 18 19  1  0
M  END
