
     RDKit          3D

 19 19  0  0  0  0  0  0  0  0999 V2000
    1.7690    1.2330    0.4150 C   0  0  0  0  0  0  0  0  0  0  0  0
    1.6080   -0.0720   -0.3060 C   0  0  2  0  0  0  0  0  0  0  0  0
    2.7720   -0.8210   -0.1710 O   0  0  0  0  0  0  0  0  0  0  0  0
    2.9890   -1.2830    1.0970 C   0  0  0  0  0  0  0  0  0  0  0  0
    3.0950   -0.2280    2.0110 O   0  0  0  0  0  0  0  0  0  0  0  0
    3.3020   -0.6360    3.2220 O   0  0  0  0  0  0  0  0  0  0  0  0
    1.4660    0.2120   -1.8040 C   0  0  0  0  0  0  0  0  0  0  0  0
   -0.0160    0.4390   -1.9040 C   0  0  1  0  0  0  0  0  0  0  0  0
   -0.3880    1.7580   -1.7210 O   0  0  0  0  0  0  0  0  0  0  0  0
   -0.5220    0.0610   -3.1690 O   0  0  0  0  0  0  0  0  0  0  0  0
    0.0280    0.7320   -4.1280 O   0  0  0  0  0  0  0  0  0  0  0  0
   -0.5400   -0.4750   -0.8240 C   0  0  2  0  0  0  0  0  0  0  0  0
   -1.0660   -1.7120   -1.5230 C   0  0  0  0  0  0  0  0  0  0  0  0
   -1.5350    0.1680   -0.0940 O   0  0  0  0  0  0  0  0  0  0  0  0
   -2.0340   -0.5980    0.9300 C   0  0  0  0  0  0  0  0  0  0  0  0
   -3.1050    0.1830    1.6630 C   0  0  0  0  0  0  0  0  0  0  0  0
   -3.6050   -0.6190    2.7100 O   0  0  0  0  0  0  0  0  0  0  0  0
   -4.5350    0.0260    3.3660 O   0  0  0  0  0  0  0  0  0  0  0  0
    0.4870   -0.7770    0.0190 O   0  0  0  0  0  0  0  0  0  0  0  0
  2  1  1  1
  2  3  1  0
  2  7  1  0
  2 19  1  0
  3  4  1  0
  4  5  1  0
  5  6  1  0
  7  8  1  0
  8  9  1  1
  8 10  1  0
  8 12  1  0
 10 11  1  0
 12 13  1  6
 12 14  1  0
 12 19  1  0
 14 15  1  0
 15 16  1  0
 16 17  1  0
 17 18  1  0
M  END
