
     RDKit          3D

 19 19  0  0  0  0  0  0  0  0999 V2000
    3.8870   -1.9190    0.3240 C   0  0  0  0  0  0  0  0  0  0  0  0
    3.5920   -0.9280   -0.7620 C   0  0  0  0  0  0  0  0  0  0  0  0
    2.2090   -0.7490   -0.9860 O   0  0  0  0  0  0  0  0  0  0  0  0
    1.3550   -0.2940    0.0160 C   0  0  0  0  0  0  0  0  0  0  0  0
    1.8710   -0.0480    1.1320 O   0  0  0  0  0  0  0  0  0  0  0  0
   -0.1180   -0.1060   -0.2320 C   0  0  1  0  0  0  0  0  0  0  0  0
   -0.4760    1.7070   -0.0150 P   0  0  0  0  0  0  0  0  0  0  0  0
    0.9500    2.5770   -0.4860 O   0  0  0  0  0  0  0  0  0  0  0  0
   -1.7410    2.1780   -1.1330 O   0  0  0  0  0  0  0  0  0  0  0  0
   -2.0440    3.8670   -0.8860 P   0  0  0  0  0  0  0  0  0  0  0  0
   -0.7430    4.8430   -1.4910 O   0  0  0  0  0  0  0  0  0  0  0  0
   -2.1440    4.1450    0.8320 O   0  0  0  0  0  0  0  0  0  0  0  0
   -0.4370   -0.4380   -1.5200 O   0  0  0  0  0  0  0  0  0  0  0  0
   -1.4490   -1.3450   -1.6620 C   0  0  0  0  0  0  0  0  0  0  0  0
   -2.4820   -1.2240   -0.7760 O   0  0  0  0  0  0  0  0  0  0  0  0
   -2.1220   -0.8070    0.4830 C   0  0  1  0  0  0  0  0  0  0  0  0
   -2.8600   -1.6990    1.4870 C   0  0  0  0  0  0  0  0  0  0  0  0
   -2.4970   -3.0420    1.2970 O   0  0  0  0  0  0  0  0  0  0  0  0
   -0.7680   -0.8760    0.7270 O   0  0  0  0  0  0  0  0  0  0  0  0
  1  2  1  0
  2  3  1  0
  3  4  1  0
  4  5  2  0
  4  6  1  0
  6  7  1  1
  6 13  1  0
  6 19  1  0
  7  8  1  0
  7  9  1  0
  9 10  1  0
 10 11  1  0
 10 12  1  0
 13 14  1  0
 14 15  1  0
 15 16  1  0
 16 17  1  1
 16 19  1  0
 17 18  1  0
M  END
