
     RDKit          3D

 19 18  0  0  0  0  0  0  0  0999 V2000
    3.0340   -1.6370    0.1380 C   0  0  0  0  0  0  0  0  0  0  0  0
    2.5800   -0.2400   -0.2540 C   0  0  1  0  0  0  0  0  0  0  0  0
    3.1580    0.1100   -1.5810 C   0  0  0  0  0  0  0  0  0  0  0  0
    4.3750    0.1620   -1.6510 O   0  0  0  0  0  0  0  0  0  0  0  0
    1.1650   -0.2690   -0.2940 O   0  0  0  0  0  0  0  0  0  0  0  0
    0.4200    0.4930    0.6000 C   0  0  0  0  0  0  0  0  0  0  0  0
    1.0710    1.1920    1.4230 O   0  0  0  0  0  0  0  0  0  0  0  0
   -1.0750    0.4850    0.5840 C   0  0  1  0  0  0  0  0  0  0  0  0
   -1.5320    1.8960    0.4280 C   0  0  0  0  0  0  0  0  0  0  0  0
   -1.0780    2.5020   -0.7590 O   0  0  0  0  0  0  0  0  0  0  0  0
   -1.4260    3.8070   -1.0320 C   0  0  0  0  0  0  0  0  0  0  0  0
   -2.1470    4.4160   -0.1970 O   0  0  0  0  0  0  0  0  0  0  0  0
   -1.0170    4.4840   -2.1870 O   0  0  0  0  0  0  0  0  0  0  0  0
   -1.4820   -0.3620   -0.4120 O   0  0  0  0  0  0  0  0  0  0  0  0
   -2.4420   -1.6740    0.1140 P   0  0  0  0  0  0  0  0  0  0  0  0
   -2.4410   -1.8890    1.8200 O   0  0  0  0  0  0  0  0  0  0  0  0
   -2.0320   -3.2190   -0.7680 C   0  0  0  0  0  0  0  0  0  0  0  0
   -2.1260   -3.2310   -2.0210 O   0  0  0  0  0  0  0  0  0  0  0  0
   -1.6210   -4.3810   -0.1400 O   0  0  0  0  0  0  0  0  0  0  0  0
  2  1  1  6
  2  3  1  0
  2  5  1  0
  3  4  2  0
  5  6  1  0
  6  7  2  0
  6  8  1  0
  8  9  1  6
  8 14  1  0
  9 10  1  0
 10 11  1  0
 11 12  2  0
 11 13  1  0
 14 15  1  0
 15 16  1  0
 15 17  1  0
 17 18  2  0
 17 19  1  0
M  END
