
     RDKit          3D

 10  9  0  0  0  0  0  0  0  0999 V2000
    1.5210   -0.4960   -1.6000 C   0  0  0  0  0  0  0  0  0  0  0  0
    0.8000   -0.2350   -0.2770 C   0  0  2  0  0  0  0  0  0  0  0  0
   -0.1360    0.7390   -0.3560 O   0  0  0  0  0  0  0  0  0  0  0  0
   -1.6930    0.3540   -0.1470 P   0  0  0  0  0  0  0  0  0  0  0  0
   -1.4600   -0.7050    0.9470 O   0  0  0  0  0  0  0  0  0  0  0  0
   -2.2100    1.3370   -1.2050 O   0  0  0  0  0  0  0  0  0  0  0  0
   -2.5710    1.2390    0.9770 O   0  0  0  0  0  0  0  0  0  0  0  0
    1.7930   -0.0450    0.7990 C   0  0  0  0  0  0  0  0  0  0  0  0
    1.6950    0.9690    1.5300 O   0  0  0  0  0  0  0  0  0  0  0  0
    2.8300   -0.9240    1.0480 O   0  0  0  0  0  0  0  0  0  0  0  0
  2  1  1  6
  2  3  1  0
  2  8  1  0
  3  4  1  0
  4  5  1  0
  4  6  1  0
  4  7  1  0
  8  9  2  0
  8 10  1  0
M  END
