
     RDKit          3D

 19 18  0  0  0  0  0  0  0  0999 V2000
    1.0210   -2.2800    3.0440 O   0  0  0  0  0  0  0  0  0  0  0  0
    0.9590   -2.9560    1.9890 C   0  0  0  0  0  0  0  0  0  0  0  0
    1.1000   -4.3380    2.0670 O   0  0  0  0  0  0  0  0  0  0  0  0
    0.7530   -2.2780    0.8120 O   0  0  0  0  0  0  0  0  0  0  0  0
    0.6050   -0.9000    0.6730 C   0  0  1  0  0  0  0  0  0  0  0  0
    1.8210   -0.3860   -0.0930 C   0  0  0  0  0  0  0  0  0  0  0  0
    2.9650   -0.6960    0.6460 O   0  0  0  0  0  0  0  0  0  0  0  0
    4.3920   -0.1580   -0.1320 P   0  0  0  0  0  0  0  0  0  0  0  0
    4.9520   -1.2060   -1.3660 O   0  0  0  0  0  0  0  0  0  0  0  0
    4.3620    1.5840   -0.6030 C   0  0  0  0  0  0  0  0  0  0  0  0
    5.1580    2.0020   -1.4770 O   0  0  0  0  0  0  0  0  0  0  0  0
    3.4850    2.4890   -0.0320 O   0  0  0  0  0  0  0  0  0  0  0  0
   -0.6530   -0.4960    0.0270 C   0  0  0  0  0  0  0  0  0  0  0  0
   -1.4510   -1.3940   -0.3270 O   0  0  0  0  0  0  0  0  0  0  0  0
   -0.9980    0.8160   -0.2070 O   0  0  0  0  0  0  0  0  0  0  0  0
   -2.2090    1.1800   -0.8240 C   0  0  0  0  0  0  0  0  0  0  0  0
   -3.4260    0.7380   -0.0560 C   0  0  0  0  0  0  0  0  0  0  0  0
   -4.7060    1.1540   -0.7540 C   0  0  0  0  0  0  0  0  0  0  0  0
   -4.8040    2.5220   -0.9050 O   0  0  0  0  0  0  0  0  0  0  0  0
  1  2  2  0
  2  3  1  0
  2  4  1  0
  4  5  1  0
  5  6  1  6
  5 13  1  0
  6  7  1  0
  7  8  1  0
  8  9  1  0
  8 10  1  0
 10 11  2  0
 10 12  1  0
 13 14  2  0
 13 15  1  0
 15 16  1  0
 16 17  1  0
 17 18  1  0
 18 19  1  0
M  END
