
     RDKit          3D

 28 29  0  0  0  0  0  0  0  0999 V2000
   -0.5750    0.7380   -4.4560 C   0  0  0  0  0  0  0  0  0  0  0  0
    0.4880    0.6080   -3.5410 O   0  0  0  0  0  0  0  0  0  0  0  0
    0.2690    0.4220   -2.1900 C   0  0  0  0  0  0  0  0  0  0  0  0
    1.3510    0.3000   -1.3410 C   0  0  0  0  0  0  0  0  0  0  0  0
    1.1630    0.1150    0.0060 C   0  0  0  0  0  0  0  0  0  0  0  0
    2.2510   -0.0210    0.9550 C   0  0  0  0  0  0  0  0  0  0  0  0
    2.1320   -0.8170    1.9210 O   0  0  0  0  0  0  0  0  0  0  0  0
    3.4710    0.7090    0.8560 N   0  0  0  0  0  0  0  0  0  0  0  0
    4.5510    0.5870    1.7820 C   0  0  0  0  0  0  0  0  0  0  0  0
    5.1220   -0.8080    1.8730 C   0  0  0  0  0  0  0  0  0  0  0  0
    5.6610   -1.2840    0.5430 C   0  0  0  0  0  0  0  0  0  0  0  0
    7.0140   -0.1800   -0.0800 P   0  0  0  0  0  0  0  0  0  0  0  0
    7.9310    0.5050    1.2060 O   0  0  0  0  0  0  0  0  0  0  0  0
    6.3810    1.1190   -1.0400 O   0  0  0  0  0  0  0  0  0  0  0  0
   -0.1310    0.0550    0.4770 C   0  0  0  0  0  0  0  0  0  0  0  0
   -0.4120   -0.1120    1.6930 O   0  0  0  0  0  0  0  0  0  0  0  0
   -1.1910    0.1760   -0.3630 N   0  0  0  0  0  0  0  0  0  0  0  0
   -2.5300    0.1190    0.0900 C   0  0  0  0  0  0  0  0  0  0  0  0
   -2.9310    0.8930    1.1720 C   0  0  0  0  0  0  0  0  0  0  0  0
   -4.2260    0.8740    1.6540 C   0  0  0  0  0  0  0  0  0  0  0  0
   -5.1700    0.0590    1.0460 C   0  0  0  0  0  0  0  0  0  0  0  0
   -6.4790    0.0060    1.4930 O   0  0  0  0  0  0  0  0  0  0  0  0
   -6.9100    0.7730    2.5790 C   0  0  0  0  0  0  0  0  0  0  0  0
   -4.7860   -0.7260   -0.0410 C   0  0  0  0  0  0  0  0  0  0  0  0
   -5.7640   -1.5280   -0.6200 O   0  0  0  0  0  0  0  0  0  0  0  0
   -5.3770   -2.3250   -1.7240 C   0  0  0  0  0  0  0  0  0  0  0  0
   -3.4860   -0.6860   -0.5000 C   0  0  0  0  0  0  0  0  0  0  0  0
   -0.9670    0.3520   -1.6500 N   0  0  0  0  0  0  0  0  0  0  0  0
  1  2  1  0
  2  3  1  0
  3  4  1  0
  3 28  2  0
  4  5  2  0
  5  6  1  0
  5 15  1  0
  6  7  2  0
  6  8  1  0
  8  9  1  0
  9 10  1  0
 10 11  1  0
 11 12  1  0
 12 13  1  0
 12 14  1  0
 15 16  2  0
 15 17  1  0
 17 18  1  0
 17 28  1  0
 18 19  2  0
 18 27  1  0
 19 20  1  0
 20 21  2  0
 21 22  1  0
 21 24  1  0
 22 23  1  0
 24 25  1  0
 24 27  2  0
 25 26  1  0
M  END
