
     RDKit          3D

 28 31  0  0  0  0  0  0  0  0999 V2000
    6.7370    1.1240    0.2950 C   0  0  0  0  0  0  0  0  0  0  0  0
    5.6170    0.1350    0.0220 C   0  0  0  0  0  0  0  0  0  0  0  0
    4.4580    0.5460   -0.4200 C   0  0  0  0  0  0  0  0  0  0  0  0
    3.3710   -0.3320   -0.6940 N   0  0  0  0  0  0  0  0  0  0  0  0
    2.1800    0.1750   -1.1560 N   0  0  0  0  0  0  0  0  0  0  0  0
    1.0450    0.0590   -0.5840 C   0  0  0  0  0  0  0  0  0  0  0  0
   -0.1010    0.6020   -1.1220 C   0  0  0  0  0  0  0  0  0  0  0  0
   -1.3360    0.4620   -0.4760 C   0  0  0  0  0  0  0  0  0  0  0  0
   -2.5180    1.0510   -1.0800 C   0  0  0  0  0  0  0  0  0  0  0  0
   -3.2440    0.2760   -1.9600 C   0  0  0  0  0  0  0  0  0  0  0  0
   -4.3900    0.7870   -2.5720 C   0  0  0  0  0  0  0  0  0  0  0  0
   -4.8010    2.0770   -2.2960 C   0  0  0  0  0  0  0  0  0  0  0  0
   -5.9190    2.5390   -2.9100 F   0  0  0  0  0  0  0  0  0  0  0  0
   -4.0870    2.8540   -1.4240 C   0  0  0  0  0  0  0  0  0  0  0  0
   -2.9530    2.3340   -0.8240 C   0  0  0  0  0  0  0  0  0  0  0  0
   -1.4130   -0.2100    0.6850 N   0  0  0  0  0  0  0  0  0  0  0  0
   -2.6740   -0.3560    1.3490 C   0  0  0  0  0  0  0  0  0  0  0  0
   -3.2320    0.4930    2.1370 N   0  0  0  0  0  0  0  0  0  0  0  0
   -4.4590    0.0150    2.6010 N   0  0  0  0  0  0  0  0  0  0  0  0
   -4.5350   -1.4230    2.3430 C   0  0  0  0  0  0  0  0  0  0  0  0
   -3.5350   -1.5580    1.2060 C   0  0  0  0  0  0  0  0  0  0  0  0
   -0.2800   -0.7340    1.1950 C   0  0  0  0  0  0  0  0  0  0  0  0
   -0.4050   -1.3580    2.2900 O   0  0  0  0  0  0  0  0  0  0  0  0
    0.9210   -0.6050    0.5780 N   0  0  0  0  0  0  0  0  0  0  0  0
    3.6310   -1.7070   -0.4540 C   0  0  0  0  0  0  0  0  0  0  0  0
    4.7750   -2.1540   -0.0130 C   0  0  0  0  0  0  0  0  0  0  0  0
    5.9080   -1.2790    0.2770 C   0  0  1  0  0  0  0  0  0  0  0  0
    6.9910   -1.6610   -0.5400 F   0  0  0  0  0  0  0  0  0  0  0  0
  1  2  1  0
  2  3  2  0
  2 27  1  0
  3  4  1  0
  4  5  1  0
  4 25  1  0
  5  6  2  3
  6  7  1  0
  6 24  1  0
  7  8  2  0
  8  9  1  0
  8 16  1  0
  9 10  2  0
  9 15  1  0
 10 11  1  0
 11 12  2  0
 12 13  1  0
 12 14  1  0
 14 15  2  0
 16 17  1  0
 16 22  1  0
 17 18  2  0
 17 21  1  0
 18 19  1  0
 19 20  1  0
 20 21  1  0
 22 23  2  0
 22 24  1  0
 25 26  2  0
 26 27  1  0
 27 28  1  6
M  END
