
     RDKit          3D

 28 32  0  0  0  0  0  0  0  0999 V2000
    1.0300    3.2220    1.6550 C   0  0  0  0  0  0  0  0  0  0  0  0
    1.0230    2.9140    0.2590 N   0  0  0  0  0  0  0  0  0  0  0  0
    1.3830    3.7010   -0.7420 N   0  0  0  0  0  0  0  0  0  0  0  0
    1.2380    3.0600   -1.9130 C   0  0  0  0  0  0  0  0  0  0  0  0
    0.7730    1.8420   -1.5970 N   0  0  0  0  0  0  0  0  0  0  0  0
    0.6370    1.7410   -0.2680 C   0  0  0  0  0  0  0  0  0  0  0  0
    0.1430    0.5210    0.4200 C   0  0  1  0  0  0  0  0  0  0  0  0
   -1.3410    0.6440    0.5030 C   0  0  0  0  0  0  0  0  0  0  0  0
   -1.9360    1.8180    0.7870 N   0  0  0  0  0  0  0  0  0  0  0  0
   -3.2380    1.9820    0.8710 N   0  0  0  0  0  0  0  0  0  0  0  0
   -4.1140    0.9680    0.6780 C   0  0  0  0  0  0  0  0  0  0  0  0
   -5.3490    1.1750    0.7690 O   0  0  0  0  0  0  0  0  0  0  0  0
   -3.5630   -0.2630    0.3840 C   0  0  0  0  0  0  0  0  0  0  0  0
   -4.4020   -1.3400    0.1750 C   0  0  0  0  0  0  0  0  0  0  0  0
   -3.9240   -2.5990   -0.1230 C   0  0  0  0  0  0  0  0  0  0  0  0
   -4.7890   -3.6460   -0.3240 F   0  0  0  0  0  0  0  0  0  0  0  0
   -2.5590   -2.7700   -0.2110 C   0  0  0  0  0  0  0  0  0  0  0  0
   -1.7040   -1.6950   -0.0030 C   0  0  0  0  0  0  0  0  0  0  0  0
   -2.1800   -0.4350    0.2940 C   0  0  0  0  0  0  0  0  0  0  0  0
   -0.2890   -1.8400   -0.0870 N   0  0  0  0  0  0  0  0  0  0  0  0
    0.4870   -0.6700   -0.4120 C   0  0  2  0  0  0  0  0  0  0  0  0
    1.9010   -1.0360   -0.4170 C   0  0  0  0  0  0  0  0  0  0  0  0
    2.2520   -2.2080   -1.0550 C   0  0  0  0  0  0  0  0  0  0  0  0
    3.5820   -2.6190   -1.0980 C   0  0  0  0  0  0  0  0  0  0  0  0
    4.5630   -1.8790   -0.5150 C   0  0  0  0  0  0  0  0  0  0  0  0
    5.8430   -2.3190   -0.5840 F   0  0  0  0  0  0  0  0  0  0  0  0
    4.2330   -0.7000    0.1300 C   0  0  0  0  0  0  0  0  0  0  0  0
    2.9080   -0.3020    0.1660 C   0  0  0  0  0  0  0  0  0  0  0  0
  1  2  1  0
  2  3  1  0
  2  6  1  0
  3  4  2  0
  4  5  1  0
  5  6  2  0
  7  6  1  6
  7  8  1  0
  7 21  1  0
  8  9  2  0
  8 19  1  0
  9 10  1  0
 10 11  1  0
 11 12  2  0
 11 13  1  0
 13 14  2  0
 13 19  1  0
 14 15  1  0
 15 16  1  0
 15 17  2  0
 17 18  1  0
 18 19  2  0
 18 20  1  0
 20 21  1  0
 21 22  1  1
 22 23  2  0
 22 28  1  0
 23 24  1  0
 24 25  2  0
 25 26  1  0
 25 27  1  0
 27 28  2  0
M  END
