
     RDKit          3D

 28 31  0  0  0  0  0  0  0  0999 V2000
   -0.2360    4.8730   -0.9930 C   0  0  0  0  0  0  0  0  0  0  0  0
   -0.3780    3.4000   -1.1520 C   0  0  0  0  0  0  0  0  0  0  0  0
   -1.3800    2.7410   -0.6460 C   0  0  0  0  0  0  0  0  0  0  0  0
   -2.4600    3.4170    0.1270 C   0  0  0  0  0  0  0  0  0  0  0  0
   -2.7170    4.7510    0.1310 F   0  0  0  0  0  0  0  0  0  0  0  0
   -3.1110    2.5290    0.7910 N   0  0  0  0  0  0  0  0  0  0  0  0
   -2.6000    1.2590    0.5720 N   0  0  0  0  0  0  0  0  0  0  0  0
   -2.7600    0.0220    1.3110 C   0  0  0  0  0  0  0  0  0  0  0  0
   -2.3790   -1.0720    0.5030 N   0  0  0  0  0  0  0  0  0  0  0  0
   -3.0840   -2.2740    0.6320 C   0  0  0  0  0  0  0  0  0  0  0  0
   -4.5140   -2.2460    0.1520 C   0  0  0  0  0  0  0  0  0  0  0  0
   -5.1430   -3.6120    0.3580 C   0  0  0  0  0  0  0  0  0  0  0  0
   -1.1590   -1.0420   -0.1850 C   0  0  0  0  0  0  0  0  0  0  0  0
   -0.7290    0.3110   -0.6880 C   0  0  2  0  0  0  0  0  0  0  0  0
    0.5390    0.6610   -0.0040 C   0  0  0  0  0  0  0  0  0  0  0  0
    0.4840    0.8730    1.2310 O   0  0  0  0  0  0  0  0  0  0  0  0
    1.7900    0.7720   -0.6390 N   0  0  0  0  0  0  0  0  0  0  0  0
    2.8750    0.1650   -0.3110 C   0  0  0  0  0  0  0  0  0  0  0  0
    4.0580    0.3280   -0.9860 N   0  0  0  0  0  0  0  0  0  0  0  0
    4.9970   -0.4330   -0.4080 C   0  0  0  0  0  0  0  0  0  0  0  0
    6.3370   -0.5840   -0.7510 C   0  0  0  0  0  0  0  0  0  0  0  0
    7.1030   -1.4410    0.0140 C   0  0  0  0  0  0  0  0  0  0  0  0
    8.4100   -1.5910   -0.3240 F   0  0  0  0  0  0  0  0  0  0  0  0
    6.5200   -2.1040    1.0740 C   0  0  0  0  0  0  0  0  0  0  0  0
    5.2020   -1.9250    1.3740 N   0  0  0  0  0  0  0  0  0  0  0  0
    4.4210   -1.0970    0.6500 C   0  0  0  0  0  0  0  0  0  0  0  0
    3.1280   -0.7100    0.6810 N   0  0  0  0  0  0  0  0  0  0  0  0
   -1.7950    1.3360   -0.6290 C   0  0  2  0  0  0  0  0  0  0  0  0
  1  2  1  0
  2  3  2  3
  3  4  1  0
 28  3  1  1
  4  5  1  0
  4  6  2  0
  6  7  1  0
  7  8  1  0
  7 28  1  0
  8  9  1  0
  9 10  1  0
  9 13  1  0
 10 11  1  0
 11 12  1  0
 13 14  1  0
 14 15  1  1
 14 28  1  0
 15 16  2  0
 15 17  1  0
 17 18  2  3
 18 19  1  0
 18 27  1  0
 19 20  1  0
 20 21  2  0
 20 26  1  0
 21 22  1  0
 22 23  1  0
 22 24  2  0
 24 25  1  0
 25 26  2  0
 26 27  1  0
M  END
