
     RDKit          3D

 28 31  0  0  0  0  0  0  0  0999 V2000
   -5.2750    0.2470    1.5020 C   0  0  0  0  0  0  0  0  0  0  0  0
   -4.5780    0.3070    0.3920 C   0  0  0  0  0  0  0  0  0  0  0  0
   -5.1980   -0.0760   -0.8430 N   0  0  0  0  0  0  0  0  0  0  0  0
   -4.3510   -0.8320   -1.7980 C   0  0  0  0  0  0  0  0  0  0  0  0
   -3.0860   -1.2140   -1.1030 C   0  0  1  0  0  0  0  0  0  0  0  0
   -2.1790   -2.0260   -1.9390 C   0  0  0  0  0  0  0  0  0  0  0  0
   -1.1160   -2.6630   -1.0280 C   0  0  0  0  0  0  0  0  0  0  0  0
   -0.9750   -1.8100    0.2530 C   0  0  0  0  0  0  0  0  0  0  0  0
   -1.0320   -0.4280   -0.2550 N   0  0  0  0  0  0  0  0  0  0  0  0
    0.1560    0.3140   -0.3830 C   0  0  0  0  0  0  0  0  0  0  0  0
    0.1650    1.5060   -0.8540 O   0  0  0  0  0  0  0  0  0  0  0  0
    1.4310   -0.1770   -0.0110 N   0  0  0  0  0  0  0  0  0  0  0  0
    2.6190    0.6780   -0.1830 C   0  0  0  0  0  0  0  0  0  0  0  0
    3.8370   -0.0280    0.2670 C   0  0  0  0  0  0  0  0  0  0  0  0
    3.8820   -1.2790    0.7680 N   0  0  0  0  0  0  0  0  0  0  0  0
    5.1490   -1.5790    1.0640 N   0  0  0  0  0  0  0  0  0  0  0  0
    5.9020   -0.5100    0.7450 C   0  0  0  0  0  0  0  0  0  0  0  0
    7.2730   -0.3670    0.8800 C   0  0  0  0  0  0  0  0  0  0  0  0
    7.8280    0.8320    0.4820 C   0  0  0  0  0  0  0  0  0  0  0  0
    6.9940    1.7890   -0.0130 C   0  0  0  0  0  0  0  0  0  0  0  0
    5.6250    1.6150   -0.1350 C   0  0  0  0  0  0  0  0  0  0  0  0
    5.0970    0.4330    0.2600 N   0  0  0  0  0  0  0  0  0  0  0  0
   -2.3310    0.0300   -0.6270 C   0  0  2  0  0  0  0  0  0  0  0  0
   -3.1660    0.7550    0.3360 C   0  0  0  0  0  0  0  0  0  0  0  0
   -2.7570    1.7680    1.0270 C   0  0  0  0  0  0  0  0  0  0  0  0
   -3.4720    2.6510    1.9320 C   0  0  2  0  0  0  0  0  0  0  0  0
   -3.3020    2.2860    3.2470 F   0  0  0  0  0  0  0  0  0  0  0  0
   -4.7890    2.8840    1.6550 F   0  0  0  0  0  0  0  0  0  0  0  0
  1  2  2  0
  2  3  1  0
  2 24  1  0
  3  4  1  0
  5  4  1  6
  5  6  1  0
  5 23  1  0
  6  7  1  0
  7  8  1  0
  8  9  1  0
  9 10  1  0
 23  9  1  1
 10 11  2  0
 10 12  1  0
 12 13  1  0
 13 14  1  0
 14 15  2  0
 14 22  1  0
 15 16  1  0
 16 17  2  0
 17 18  1  0
 17 22  1  0
 18 19  2  0
 19 20  1  0
 20 21  2  0
 21 22  1  0
 23 24  1  0
 24 25  2  3
 25 26  1  0
 26 27  1  1
 26 28  1  0
M  END
