
     RDKit          3D

 20 21  0  0  0  0  0  0  0  0999 V2000
   -6.2200    0.6130   -0.1700 C   0  0  0  0  0  0  0  0  0  0  0  0
   -5.7230    0.2550    1.2130 C   0  0  1  0  0  0  0  0  0  0  0  0
   -6.2520   -0.9520    1.6600 O   0  0  0  0  0  0  0  0  0  0  0  0
   -4.2050    0.2060    1.1380 C   0  0  1  0  0  0  0  0  0  0  0  0
   -3.8120   -0.8640    0.1380 C   0  0  0  0  0  0  0  0  0  0  0  0
   -3.4050   -0.3070   -1.0510 O   0  0  0  0  0  0  0  0  0  0  0  0
   -2.2710    0.4620   -0.8910 C   0  0  2  0  0  0  0  0  0  0  0  0
   -1.0790   -0.4550   -0.8000 C   0  0  0  0  0  0  0  0  0  0  0  0
    0.1370    0.3450   -0.6300 C   0  0  0  0  0  0  0  0  0  0  0  0
    0.0350    1.6060   -0.5860 O   0  0  0  0  0  0  0  0  0  0  0  0
    1.4330   -0.2420   -0.5120 N   0  0  0  0  0  0  0  0  0  0  0  0
    2.5540    0.6440   -0.3490 C   0  0  0  0  0  0  0  0  0  0  0  0
    3.8640   -0.1010   -0.2360 C   0  0  1  0  0  0  0  0  0  0  0  0
    4.1610   -0.9310   -1.4400 C   0  0  0  0  0  0  0  0  0  0  0  0
    4.9480    0.9160    0.0340 C   0  0  0  0  0  0  0  0  0  0  0  0
    5.6170    0.4200    1.2970 C   0  0  0  0  0  0  0  0  0  0  0  0
    5.2170   -1.0290    1.3400 C   0  0  0  0  0  0  0  0  0  0  0  0
    3.8170   -0.9650    0.9180 N   0  0  0  0  0  0  0  0  0  0  0  0
   -2.4240    1.3420    0.3050 C   0  0  0  0  0  0  0  0  0  0  0  0
   -3.7810    1.4410    0.6880 O   0  0  0  0  0  0  0  0  0  0  0  0
  2  1  1  6
  2  3  1  0
  2  4  1  0
  4  5  1  6
  4 20  1  0
  5  6  1  0
  6  7  1  0
  7  8  1  1
  7 19  1  0
  8  9  1  0
  9 10  2  0
  9 11  1  0
 11 12  1  0
 12 13  1  0
 13 14  1  6
 13 15  1  0
 13 18  1  0
 15 16  1  0
 16 17  1  0
 17 18  1  0
 19 20  1  0
M  CHG  1  18   1
M  END
