
     RDKit          3D

 19 20  0  0  0  0  0  0  0  0999 V2000
   -5.3010    2.3880    0.2480 C   0  0  0  0  0  0  0  0  0  0  0  0
   -4.7910    1.1810    0.3780 C   0  0  0  0  0  0  0  0  0  0  0  0
   -5.4970   -0.0090   -0.1520 C   0  0  0  0  0  0  0  0  0  0  0  0
   -4.5210   -1.0210   -0.6860 C   0  0  2  0  0  0  0  0  0  0  0  0
   -4.4630   -2.1530    0.1250 O   0  0  0  0  0  0  0  0  0  0  0  0
   -3.1730   -0.4440   -0.9930 C   0  0  0  0  0  0  0  0  0  0  0  0
   -2.5420    0.3320    0.0910 C   0  0  2  0  0  0  0  0  0  0  0  0
   -1.5860   -0.3990    0.8840 N   0  0  0  0  0  0  0  0  0  0  0  0
   -0.2910   -0.5150    0.2410 C   0  0  0  0  0  0  0  0  0  0  0  0
    0.7050   -0.7700    1.3440 C   0  0  0  0  0  0  0  0  0  0  0  0
    2.0000   -0.9160    0.9640 O   0  0  0  0  0  0  0  0  0  0  0  0
    2.4970    0.2280    0.3690 C   0  0  1  0  0  0  0  0  0  0  0  0
    3.7090    0.7260    1.1130 C   0  0  0  0  0  0  0  0  0  0  0  0
    4.8690    1.0430    0.2360 C   0  0  0  0  0  0  0  0  0  0  0  0
    5.1050    0.0710   -0.8700 C   0  0  1  0  0  0  0  0  0  0  0  0
    6.3810   -0.6050   -0.7730 N   0  0  0  0  0  0  0  0  0  0  0  0
    3.9500   -0.9090   -0.8950 C   0  0  0  0  0  0  0  0  0  0  0  0
    2.7880   -0.1060   -0.9540 O   0  0  0  0  0  0  0  0  0  0  0  0
   -3.5080    0.9790    1.0510 C   0  0  0  0  0  0  0  0  0  0  0  0
  1  2  2  0
  2  3  1  0
  2 19  1  0
  3  4  1  0
  4  5  1  1
  4  6  1  0
  6  7  1  0
  7  8  1  1
  7 19  1  0
  8  9  1  0
  9 10  1  0
 10 11  1  0
 12 11  1  1
 12 13  1  0
 12 18  1  0
 13 14  1  0
 14 15  1  0
 15 16  1  1
 15 17  1  0
 17 18  1  0
M  CHG  2   8   1  16   1
M  END
