
     RDKit          3D

 19 20  0  0  0  0  0  0  0  0999 V2000
   -3.6980    2.6720   -1.1060 N   0  0  0  0  0  0  0  0  0  0  0  0
   -2.7900    1.7330   -0.5900 C   0  0  0  0  0  0  0  0  0  0  0  0
   -1.5560    1.9450   -0.8270 O   0  0  0  0  0  0  0  0  0  0  0  0
   -3.1410    0.5470    0.1870 C   0  0  1  0  0  0  0  0  0  0  0  0
   -4.0040   -0.4510   -0.5210 C   0  0  0  0  0  0  0  0  0  0  0  0
   -3.9540   -1.6210    0.4700 C   0  0  0  0  0  0  0  0  0  0  0  0
   -2.6860   -1.3780    1.2520 C   0  0  0  0  0  0  0  0  0  0  0  0
   -2.0180   -0.2470    0.5890 N   0  0  1  0  0  0  0  0  0  0  0  0
   -1.2620   -0.7930   -0.5100 C   0  0  0  0  0  0  0  0  0  0  0  0
    0.1740   -0.6640   -0.1560 C   0  0  0  0  0  0  0  0  0  0  0  0
    1.0610    0.0200   -0.8550 C   0  0  0  0  0  0  0  0  0  0  0  0
    2.3740   -0.0600   -0.2310 C   0  0  0  0  0  0  0  0  0  0  0  0
    3.5190    0.4120   -0.6530 C   0  0  0  0  0  0  0  0  0  0  0  0
    4.7530    0.2500    0.0890 C   0  0  0  0  0  0  0  0  0  0  0  0
    5.8990    0.7370   -0.3570 C   0  0  0  0  0  0  0  0  0  0  0  0
    7.1130    0.5430    0.4330 C   0  0  0  0  0  0  0  0  0  0  0  0
    8.2100    1.0010    0.0190 O   0  0  0  0  0  0  0  0  0  0  0  0
    2.1630   -0.8100    1.0280 C   0  0  0  0  0  0  0  0  0  0  0  0
    0.8270   -1.2130    0.9260 O   0  0  0  0  0  0  0  0  0  0  0  0
  1  2  1  0
  2  3  2  0
  4  2  1  6
  4  5  1  0
  4  8  1  0
  5  6  1  0
  6  7  1  0
  7  8  1  0
  8  9  1  6
  9 10  1  0
 10 11  2  0
 10 19  1  0
 11 12  1  0
 12 13  2  3
 12 18  1  0
 13 14  1  0
 14 15  2  3
 15 16  1  0
 16 17  2  0
 18 19  1  0
M  CHG  1   8   1
M  END
