
     RDKit          3D

 20 21  0  0  0  0  0  0  0  0999 V2000
   -6.0840    0.3290    2.1500 N   0  0  0  0  0  0  0  0  0  0  0  0
   -5.3630    0.8950    1.0120 C   0  0  0  0  0  0  0  0  0  0  0  0
   -3.9570    0.5100    1.0500 C   0  0  0  0  0  0  0  0  0  0  0  0
   -3.2600   -0.1580    0.1950 C   0  0  0  0  0  0  0  0  0  0  0  0
   -3.7280   -0.7150   -1.0710 C   0  0  0  0  0  0  0  0  0  0  0  0
   -5.0290   -0.5270   -1.4110 O   0  0  0  0  0  0  0  0  0  0  0  0
   -1.7950   -0.4050    0.5200 C   0  0  0  0  0  0  0  0  0  0  0  0
   -0.9280    0.1690   -0.4880 N   0  0  1  0  0  0  0  0  0  0  0  0
   -0.0230    1.1500    0.0730 C   0  0  0  0  0  0  0  0  0  0  0  0
    1.1980    0.5280    0.7050 C   0  0  0  0  0  0  0  0  0  0  0  0
    1.8640   -0.4740   -0.2030 C   0  0  2  0  0  0  0  0  0  0  0  0
    1.7000   -1.7640    0.2980 O   0  0  0  0  0  0  0  0  0  0  0  0
    3.3340   -0.2280   -0.3830 C   0  0  2  0  0  0  0  0  0  0  0  0
    4.0830   -0.4130    0.8990 C   0  0  0  0  0  0  0  0  0  0  0  0
    5.4200   -0.5190    0.6050 O   0  0  0  0  0  0  0  0  0  0  0  0
    5.8720    0.4170   -0.2940 C   0  0  0  0  0  0  0  0  0  0  0  0
    4.8770    1.4690   -0.6540 C   0  0  0  0  0  0  0  0  0  0  0  0
    3.6070    1.0320   -0.8790 O   0  0  0  0  0  0  0  0  0  0  0  0
    1.1430   -0.4050   -1.5350 C   0  0  0  0  0  0  0  0  0  0  0  0
   -0.2850   -0.8360   -1.2760 C   0  0  0  0  0  0  0  0  0  0  0  0
  1  2  1  0
  2  3  1  0
  3  4  2  3
  4  5  1  0
  4  7  1  0
  5  6  1  0
  8  7  1  1
  8  9  1  0
  8 20  1  0
  9 10  1  0
 10 11  1  0
 11 12  1  1
 11 13  1  0
 11 19  1  0
 13 14  1  1
 13 18  1  0
 14 15  1  0
 15 16  1  0
 16 17  1  0
 17 18  1  0
 19 20  1  0
M  CHG  1   8   1
M  END
