
     RDKit          3D

 15 16  0  0  0  0  0  0  0  0999 V2000
    3.2840    0.8170    0.6770 C   0  0  0  0  0  0  0  0  0  0  0  0
    3.3260   -0.6330    0.2400 C   0  0  0  0  0  0  0  0  0  0  0  0
    2.4530   -0.7880   -0.9850 C   0  0  0  0  0  0  0  0  0  0  0  0
    1.0630   -0.3940   -0.6340 C   0  0  0  0  0  0  0  0  0  0  0  0
    0.1730   -1.3350   -0.1560 C   0  0  0  0  0  0  0  0  0  0  0  0
   -1.1320   -1.0280    0.1880 C   0  0  0  0  0  0  0  0  0  0  0  0
   -1.9960   -1.9430    0.6520 N   0  0  0  0  0  0  0  0  0  0  0  0
   -3.2650   -1.6640    0.9900 C   0  0  0  0  0  0  0  0  0  0  0  0
   -4.0710   -2.5260    1.4250 O   0  0  0  0  0  0  0  0  0  0  0  0
   -3.7150   -0.3690    0.8570 C   0  0  0  0  0  0  0  0  0  0  0  0
   -2.8670    0.6180    0.3820 C   0  0  0  0  0  0  0  0  0  0  0  0
   -1.5690    0.2680    0.0500 C   0  0  0  0  0  0  0  0  0  0  0  0
   -0.6630    1.1940   -0.4300 C   0  0  0  0  0  0  0  0  0  0  0  0
   -1.1530    2.5980   -0.5740 C   0  0  0  0  0  0  0  0  0  0  0  0
    0.6070    0.8630   -0.7570 N   0  0  0  0  0  0  0  0  0  0  0  0
  1  2  1  0
  2  3  1  0
  3  4  1  0
  4  5  2  0
  4 15  1  0
  5  6  1  0
  6  7  1  0
  6 12  2  0
  7  8  1  0
  8  9  2  0
  8 10  1  0
 10 11  2  0
 11 12  1  0
 12 13  1  0
 13 14  1  0
 13 15  2  0
M  END
