
     RDKit          3D

 20 21  0  0  0  0  0  0  0  0999 V2000
    6.5870    2.0750    0.8180 C   0  0  0  0  0  0  0  0  0  0  0  0
    5.5500    1.2710    0.0760 C   0  0  0  0  0  0  0  0  0  0  0  0
    5.7820    0.4370   -0.9960 C   0  0  0  0  0  0  0  0  0  0  0  0
    4.5490   -0.0800   -1.3440 C   0  0  0  0  0  0  0  0  0  0  0  0
    3.6230    0.4610   -0.4720 C   0  0  0  0  0  0  0  0  0  0  0  0
    2.1460    0.1630   -0.4980 C   0  0  1  0  0  0  0  0  0  0  0  0
    1.7350    0.2250   -1.8260 O   0  0  0  0  0  0  0  0  0  0  0  0
    1.9030   -1.2260   -0.0070 C   0  0  0  0  0  0  0  0  0  0  0  0
    0.4950   -1.5400   -0.1080 N   0  0  0  0  0  0  0  0  0  0  0  0
   -0.5200   -0.8180    0.5610 C   0  0  0  0  0  0  0  0  0  0  0  0
   -0.2150    0.1520    1.2870 O   0  0  0  0  0  0  0  0  0  0  0  0
   -1.9250   -1.2030    0.4040 C   0  0  2  0  0  0  0  0  0  0  0  0
   -2.4040   -1.0380   -1.0430 C   0  0  0  0  0  0  0  0  0  0  0  0
   -3.9020   -0.9790   -0.8210 C   0  0  0  0  0  0  0  0  0  0  0  0
   -3.9770   -0.1190    0.4270 C   0  0  2  0  0  0  0  0  0  0  0  0
   -5.1480   -0.4750    1.2900 C   0  0  0  0  0  0  0  0  0  0  0  0
   -4.0930    1.3170   -0.0400 C   0  0  0  0  0  0  0  0  0  0  0  0
   -4.1020    2.2260    0.9930 O   0  0  0  0  0  0  0  0  0  0  0  0
   -2.7700   -0.3380    1.1660 N   0  0  0  0  0  0  0  0  0  0  0  0
    4.2860    1.2400    0.3270 O   0  0  0  0  0  0  0  0  0  0  0  0
  1  2  1  0
  2  3  2  0
  2 20  1  0
  3  4  1  0
  4  5  2  0
  5  6  1  0
  5 20  1  0
  6  7  1  6
  6  8  1  0
  8  9  1  0
  9 10  1  0
 10 11  2  0
 12 10  1  6
 12 13  1  0
 12 19  1  0
 13 14  1  0
 14 15  1  0
 15 16  1  1
 15 17  1  0
 15 19  1  0
 17 18  1  0
M  CHG  1  19   1
M  END
