
     RDKit          3D

 13 14  0  0  0  0  0  0  0  0999 V2000
   -2.0270    2.2890    1.6810 Cl  0  0  0  0  0  0  0  0  0  0  0  0
   -2.1980    0.7550    0.7870 C   0  0  0  0  0  0  0  0  0  0  0  0
   -2.8930    0.7640   -0.3260 C   0  0  0  0  0  0  0  0  0  0  0  0
   -3.1380   -0.3030   -1.1540 O   0  0  0  0  0  0  0  0  0  0  0  0
   -1.7510   -1.2880   -1.6510 P   0  0  0  0  0  0  0  0  0  0  0  0
   -0.5490   -1.4360    0.2170 P   0  0  0  0  0  0  0  0  0  0  0  0
    1.1210   -0.6650   -0.0630 C   0  0  0  0  0  0  0  0  0  0  0  0
    2.1310   -1.5380   -0.4160 C   0  0  0  0  0  0  0  0  0  0  0  0
    3.6680   -0.7710   -0.6650 P   0  0  0  0  0  0  0  0  0  0  0  0
    3.6020    0.9480   -0.4130 C   0  0  0  0  0  0  0  0  0  0  0  0
    2.3430    1.3930   -0.0610 C   0  0  0  0  0  0  0  0  0  0  0  0
    1.2730    0.6410    0.0820 N   0  0  0  0  0  0  0  0  0  0  0  0
   -1.5250   -0.3990    1.4210 C   0  0  0  0  0  0  0  0  0  0  0  0
  1  2  1  0
  2  3  2  0
  2 13  1  0
  3  4  1  0
  4  5  1  0
  5  6  1  0
  6  7  1  0
  6 13  1  0
  7  8  2  0
  7 12  1  0
  8  9  1  0
  9 10  2  0
 10 11  1  0
 11 12  2  0
M  END
