
     RDKit          3D

 27 29  0  0  0  0  0  0  0  0999 V2000
   -1.6200    3.9740    0.7300 O   0  0  0  0  0  0  0  0  0  0  0  0
   -1.1620    3.7870   -0.4290 C   0  0  0  0  0  0  0  0  0  0  0  0
   -1.1850    4.8660   -1.3040 O   0  0  0  0  0  0  0  0  0  0  0  0
   -0.6630    2.5380   -0.7810 O   0  0  0  0  0  0  0  0  0  0  0  0
   -0.6910    1.5270    0.1840 C   0  0  0  0  0  0  0  0  0  0  0  0
   -0.1330    0.2270   -0.2920 C   0  0  1  0  0  0  0  0  0  0  0  0
    1.3330    0.2280   -0.5520 C   0  0  0  0  0  0  0  0  0  0  0  0
    2.1680    0.3860    0.6900 C   0  0  2  0  0  0  0  0  0  0  0  0
    3.5680    0.0240    0.3190 C   0  0  0  0  0  0  0  0  0  0  0  0
    3.8110   -0.3310   -0.8860 N   0  0  0  0  0  0  0  0  0  0  0  0
    5.0170   -0.6960   -1.4090 O   0  0  0  0  0  0  0  0  0  0  0  0
    5.9720   -1.5800   -0.8690 C   0  0  0  0  0  0  0  0  0  0  0  0
    6.2740   -1.2860    0.5130 N   0  0  0  0  0  0  0  0  0  0  0  0
    5.6440   -0.4470    1.4570 C   0  0  0  0  0  0  0  0  0  0  0  0
    4.4890    0.1220    1.3930 N   0  0  0  0  0  0  0  0  0  0  0  0
    1.8050   -0.3780    1.7590 O   0  0  0  0  0  0  0  0  0  0  0  0
    0.5020   -0.6250    1.8880 O   0  0  0  0  0  0  0  0  0  0  0  0
   -0.3490   -0.7860    0.8060 C   0  0  0  0  0  0  0  0  0  0  0  0
   -1.2940   -1.5280    0.3990 N   0  0  0  0  0  0  0  0  0  0  0  0
   -1.7510   -1.1360   -0.8620 N   0  0  0  0  0  0  0  0  0  0  0  0
   -2.9890   -1.5530   -1.4780 C   0  0  0  0  0  0  0  0  0  0  0  0
   -4.1200   -1.0990   -0.5560 C   0  0  0  0  0  0  0  0  0  0  0  0
   -5.3630   -1.4760   -1.1010 O   0  0  0  0  0  0  0  0  0  0  0  0
   -6.5770   -0.9190    0.0100 P   0  0  0  0  0  0  0  0  0  0  0  0
   -6.4010   -1.8530    1.4720 O   0  0  0  0  0  0  0  0  0  0  0  0
   -6.3170    0.7650    0.4230 O   0  0  0  0  0  0  0  0  0  0  0  0
   -0.8170   -0.2940   -1.3890 O   0  0  0  0  0  0  0  0  0  0  0  0
  1  2  2  0
  2  3  1  0
  2  4  1  0
  4  5  1  0
  6  5  1  1
  6  7  1  0
  6 18  1  0
  6 27  1  0
  7  8  1  0
  8  9  1  6
  8 16  1  0
  9 10  2  0
  9 15  1  0
 10 11  1  0
 11 12  1  0
 12 13  1  0
 13 14  1  0
 14 15  2  0
 16 17  1  0
 17 18  1  0
 18 19  2  0
 19 20  1  0
 20 21  1  0
 20 27  1  0
 21 22  1  0
 22 23  1  0
 23 24  1  0
 24 25  1  0
 24 26  1  0
M  END
