
     RDKit          3D

 13 13  0  0  0  0  0  0  0  0999 V2000
   -3.3920   -0.7020    0.3580 C   0  0  0  0  0  0  0  0  0  0  0  0
   -2.1730   -0.0670    0.9550 C   0  0  0  0  0  0  0  0  0  0  0  0
   -0.9940   -0.0840    0.0350 C   0  0  2  0  0  0  0  0  0  0  0  0
   -1.2480    0.6460   -1.2470 C   0  0  0  0  0  0  0  0  0  0  0  0
   -0.7020   -1.4050   -0.3160 O   0  0  0  0  0  0  0  0  0  0  0  0
    0.5310   -1.2970   -0.8650 N   0  0  0  0  0  0  0  0  0  0  0  0
    1.0270   -1.9080   -2.0930 C   0  0  0  0  0  0  0  0  0  0  0  0
    0.9020   -3.6600   -1.9140 Cl  0  0  0  0  0  0  0  0  0  0  0  0
    1.2930   -0.4530   -0.0100 C   0  0  0  0  0  0  0  0  0  0  0  0
    2.9330   -0.3910    0.0890 P   0  0  0  0  0  0  0  0  0  0  0  0
    3.8050    0.7640    1.2550 C   0  0  0  0  0  0  0  0  0  0  0  0
    0.2550    0.3340    0.7470 C   0  0  1  0  0  0  0  0  0  0  0  0
    0.5330    1.7790    0.7670 C   0  0  0  0  0  0  0  0  0  0  0  0
  1  2  1  0
  2  3  1  0
  3  4  1  6
  3  5  1  0
  3 12  1  0
  5  6  1  0
  6  7  1  0
  6  9  1  0
  7  8  1  0
  9 10  2  3
  9 12  1  0
 10 11  1  0
 12 13  1  6
M  END
