
     RDKit          3D

 13 14  0  0  0  0  0  0  0  0999 V2000
    2.5760    1.5420    0.9590 O   0  0  0  0  0  0  0  0  0  0  0  0
    3.1210    0.4030    1.1230 C   0  0  0  0  0  0  0  0  0  0  0  0
    2.3830   -0.7420    0.6380 C   0  0  0  0  0  0  0  0  0  0  0  0
    3.0860   -2.3290    0.8380 Cl  0  0  0  0  0  0  0  0  0  0  0  0
    1.1860   -0.6660    0.0410 C   0  0  0  0  0  0  0  0  0  0  0  0
    0.2860   -1.6850   -0.5120 C   0  0  0  0  0  0  0  0  0  0  0  0
   -1.0020   -0.4420   -0.0710 P   0  0  0  0  0  0  0  0  0  0  0  0
    0.4050    0.5260   -0.2370 C   0  0  0  0  0  0  0  0  0  0  0  0
   -0.0720    2.1600   -0.5860 P   0  0  0  0  0  0  0  0  0  0  0  0
   -1.7790    2.5620   -0.7070 C   0  0  0  0  0  0  0  0  0  0  0  0
   -2.7230    1.6550   -0.5410 N   0  0  0  0  0  0  0  0  0  0  0  0
   -2.5680    0.3500   -0.2690 C   0  0  0  0  0  0  0  0  0  0  0  0
   -3.8330   -0.6930   -0.0830 P   0  0  0  0  0  0  0  0  0  0  0  0
  1  2  2  0
  2  3  1  0
  3  4  1  0
  3  5  2  3
  5  6  1  0
  5  8  1  0
  6  7  1  0
  7  8  1  0
  7 12  1  0
  8  9  2  0
  9 10  1  0
 10 11  2  0
 11 12  1  0
 12 13  2  0
M  END
