
     RDKit          3D

 27 28  0  0  0  0  0  0  0  0999 V2000
   -3.7080   -0.0570   -3.7730 N   0  0  0  0  0  0  0  0  0  0  0  0
   -3.2030   -0.9580   -2.8000 C   0  0  0  0  0  0  0  0  0  0  0  0
   -2.8550   -2.0990   -3.1770 O   0  0  0  0  0  0  0  0  0  0  0  0
   -3.0730   -0.6160   -1.3880 C   0  0  0  0  0  0  0  0  0  0  0  0
   -2.6160   -1.4200   -0.4790 N   0  0  0  0  0  0  0  0  0  0  0  0
   -2.6350   -0.7490    0.7730 C   0  0  0  0  0  0  0  0  0  0  0  0
   -2.6150   -1.1930    1.9730 N   0  0  0  0  0  0  0  0  0  0  0  0
   -2.6410   -0.3310    3.0380 O   0  0  0  0  0  0  0  0  0  0  0  0
   -4.2310   -0.0180    3.7580 P   0  0  0  0  0  0  0  0  0  0  0  0
   -5.3280    0.2870    2.4440 O   0  0  0  0  0  0  0  0  0  0  0  0
   -4.7570   -1.5120    4.5140 O   0  0  0  0  0  0  0  0  0  0  0  0
   -2.6860    0.6950    0.3880 C   0  0  1  0  0  0  0  0  0  0  0  0
   -1.2750    1.1010    0.0480 C   0  0  0  0  0  0  0  0  0  0  0  0
   -0.3970    1.2440    0.9360 O   0  0  0  0  0  0  0  0  0  0  0  0
   -0.8860    1.3330   -1.2600 O   0  0  0  0  0  0  0  0  0  0  0  0
    0.4220    1.7050   -1.5400 C   0  0  0  0  0  0  0  0  0  0  0  0
    1.3830    0.6410   -1.0740 C   0  0  0  0  0  0  0  0  0  0  0  0
    1.0780   -0.5200   -0.4690 N   0  0  0  0  0  0  0  0  0  0  0  0
    2.2110   -1.1960   -0.2100 C   0  0  0  0  0  0  0  0  0  0  0  0
    3.2380   -0.4040   -0.6800 C   0  0  0  0  0  0  0  0  0  0  0  0
    4.7000   -0.7570   -0.6060 C   0  0  0  0  0  0  0  0  0  0  0  0
    5.2210   -0.2450    0.6450 N   0  0  0  0  0  0  0  0  0  0  0  0
    6.5840   -0.4220    1.0030 C   0  0  0  0  0  0  0  0  0  0  0  0
    7.3380   -1.0270    0.2280 O   0  0  0  0  0  0  0  0  0  0  0  0
    7.0630    0.0700    2.1930 O   0  0  0  0  0  0  0  0  0  0  0  0
    2.6880    0.6600   -1.1750 O   0  0  0  0  0  0  0  0  0  0  0  0
   -3.4190    0.6200   -0.8010 O   0  0  0  0  0  0  0  0  0  0  0  0
  1  2  1  0
  2  3  2  0
  2  4  1  0
  4  5  2  0
  4 27  1  0
  5  6  1  0
  6  7  2  3
  6 12  1  0
  7  8  1  0
  8  9  1  0
  9 10  1  0
  9 11  1  0
 12 13  1  6
 12 27  1  0
 13 14  2  0
 13 15  1  0
 15 16  1  0
 16 17  1  0
 17 18  2  0
 17 26  1  0
 18 19  1  0
 19 20  2  0
 20 21  1  0
 20 26  1  0
 21 22  1  0
 22 23  1  0
 23 24  2  0
 23 25  1  0
M  END
