
     RDKit          3D

 26 28  0  0  0  0  0  0  0  0999 V2000
   -7.4630    0.4250    2.1310 N   0  0  0  0  0  0  0  0  0  0  0  0
   -6.3010   -0.1910    1.6200 C   0  0  0  0  0  0  0  0  0  0  0  0
   -6.0950   -1.5350    1.7210 N   0  0  0  0  0  0  0  0  0  0  0  0
   -4.9910   -2.1260    1.2360 C   0  0  0  0  0  0  0  0  0  0  0  0
   -4.0660   -1.3750    0.6360 N   0  0  0  0  0  0  0  0  0  0  0  0
   -4.1710   -0.0400    0.4830 C   0  0  0  0  0  0  0  0  0  0  0  0
   -5.3240    0.5530    0.9930 C   0  0  0  0  0  0  0  0  0  0  0  0
   -5.2100    1.8620    0.7300 N   0  0  0  0  0  0  0  0  0  0  0  0
   -4.0390    2.0910    0.0830 C   0  0  0  0  0  0  0  0  0  0  0  0
   -3.4080    0.9170   -0.0640 N   0  0  0  0  0  0  0  0  0  0  0  0
   -2.1300    0.7420   -0.7050 C   0  0  1  0  0  0  0  0  0  0  0  0
   -1.4390    2.0930   -0.8840 C   0  0  0  0  0  0  0  0  0  0  0  0
   -0.0170    1.6350   -1.1470 C   0  0  2  0  0  0  0  0  0  0  0  0
    0.2640    1.6470   -2.5170 O   0  0  0  0  0  0  0  0  0  0  0  0
   -0.0480    0.2190   -0.6400 C   0  0  1  0  0  0  0  0  0  0  0  0
    1.1340   -0.1750    0.1540 C   0  0  0  0  0  0  0  0  0  0  0  0
    2.3350   -0.0410   -0.5350 O   0  0  0  0  0  0  0  0  0  0  0  0
    3.6540   -0.4300    0.2100 P   0  0  0  0  0  0  0  0  0  0  0  0
    3.0270   -1.9490    0.4230 O   0  0  0  0  0  0  0  0  0  0  0  0
    3.3050    0.6740    1.3990 O   0  0  0  0  0  0  0  0  0  0  0  0
    4.9240   -0.8450    0.9030 O   0  0  0  0  0  0  0  0  0  0  0  0
    6.4100   -0.9830    0.2950 P   0  0  0  0  0  0  0  0  0  0  0  0
    6.9960   -1.0540    1.7190 O   0  0  0  0  0  0  0  0  0  0  0  0
    5.8720   -1.1620   -1.1230 O   0  0  0  0  0  0  0  0  0  0  0  0
    7.1650   -2.4920    0.0600 O   0  0  0  0  0  0  0  0  0  0  0  0
   -1.2270    0.0690    0.0880 O   0  0  0  0  0  0  0  0  0  0  0  0
  1  2  1  0
  2  3  2  0
  2  7  1  0
  3  4  1  0
  4  5  2  0
  5  6  1  0
  6  7  2  0
  6 10  1  0
  7  8  1  0
  8  9  2  0
  9 10  1  0
 11 10  1  1
 11 12  1  0
 11 26  1  0
 12 13  1  0
 13 14  1  6
 13 15  1  0
 15 16  1  1
 15 26  1  0
 16 17  1  0
 17 18  1  0
 18 19  1  0
 18 20  1  0
 18 21  1  0
 21 22  1  0
 22 23  1  0
 22 24  1  0
 22 25  1  0
M  END
