
     RDKit          3D

 27 29  0  0  0  0  0  0  0  0999 V2000
   -6.2660   -0.7160   -0.5840 N   0  0  0  0  0  0  0  0  0  0  0  0
   -6.1680    0.2260    0.4640 C   0  0  0  0  0  0  0  0  0  0  0  0
   -7.1550    0.4920    1.1940 O   0  0  0  0  0  0  0  0  0  0  0  0
   -4.9490    0.9000    0.7240 N   0  0  0  0  0  0  0  0  0  0  0  0
   -4.6740    1.8660    1.7280 C   0  0  0  0  0  0  0  0  0  0  0  0
   -5.5660    2.2460    2.5500 O   0  0  0  0  0  0  0  0  0  0  0  0
   -3.3520    2.2810    1.6450 O   0  0  0  0  0  0  0  0  0  0  0  0
   -2.7610    1.5960    0.5960 C   0  0  0  0  0  0  0  0  0  0  0  0
   -1.5410    1.7240    0.2230 N   0  0  0  0  0  0  0  0  0  0  0  0
   -1.0300    0.9700   -0.8710 C   0  0  0  0  0  0  0  0  0  0  0  0
   -1.0800    1.2670   -2.1010 N   0  0  0  0  0  0  0  0  0  0  0  0
   -0.5010    0.3380   -2.9030 O   0  0  0  0  0  0  0  0  0  0  0  0
   -0.0130   -0.6890   -2.1190 C   0  0  0  0  0  0  0  0  0  0  0  0
    0.5900   -1.7350   -2.5270 O   0  0  0  0  0  0  0  0  0  0  0  0
   -0.3350   -0.3230   -0.7200 C   0  0  1  0  0  0  0  0  0  0  0  0
    0.8710   -0.1000   -0.0370 N   0  0  0  0  0  0  0  0  0  0  0  0
    0.8740    0.3900    1.2730 C   0  0  0  0  0  0  0  0  0  0  0  0
    2.2890    0.2460    1.7530 C   0  0  0  0  0  0  0  0  0  0  0  0
    2.9480   -0.7130    0.8290 C   0  0  2  0  0  0  0  0  0  0  0  0
    4.1040   -0.1370    0.3020 O   0  0  0  0  0  0  0  0  0  0  0  0
    5.1220   -0.9170    0.5340 O   0  0  0  0  0  0  0  0  0  0  0  0
    6.3080   -0.7890   -0.7430 P   0  0  0  0  0  0  0  0  0  0  0  0
    7.4780   -2.0470   -0.6410 O   0  0  0  0  0  0  0  0  0  0  0  0
    7.1110    0.7410   -0.6330 O   0  0  0  0  0  0  0  0  0  0  0  0
    1.9610   -0.9680   -0.2540 C   0  0  0  0  0  0  0  0  0  0  0  0
   -3.7330    0.7150   -0.0100 C   0  0  0  0  0  0  0  0  0  0  0  0
   -3.5510   -0.0660   -0.9940 O   0  0  0  0  0  0  0  0  0  0  0  0
  1  2  1  0
  2  3  2  0
  2  4  1  0
  4  5  1  0
  4 26  1  0
  5  6  2  0
  5  7  1  0
  7  8  1  0
  8  9  2  3
  8 26  1  0
  9 10  1  0
 10 11  2  0
 10 15  1  0
 11 12  1  0
 12 13  1  0
 13 14  2  0
 13 15  1  0
 15 16  1  1
 16 17  1  0
 16 25  1  0
 17 18  1  0
 18 19  1  0
 19 20  1  6
 19 25  1  0
 20 21  1  0
 21 22  1  0
 22 23  1  0
 22 24  1  0
 26 27  2  0
M  END
