
     RDKit          3D

 20 21  0  0  0  0  0  0  0  0999 V2000
    6.5340    0.4120   -0.6610 O   0  0  0  0  0  0  0  0  0  0  0  0
    5.3990    0.3360   -0.1030 C   0  0  0  0  0  0  0  0  0  0  0  0
    4.7760    1.3960    0.6010 N   0  0  0  0  0  0  0  0  0  0  0  0
    3.3640    1.0750    0.7140 C   0  0  0  0  0  0  0  0  0  0  0  0
    3.3470   -0.4470    0.6040 C   0  0  1  0  0  0  0  0  0  0  0  0
    2.2120   -0.8170   -0.2560 C   0  0  0  0  0  0  0  0  0  0  0  0
    2.4500   -1.3250   -1.3830 O   0  0  0  0  0  0  0  0  0  0  0  0
    0.8850   -0.6360    0.1040 O   0  0  0  0  0  0  0  0  0  0  0  0
   -0.1090   -1.0200   -0.7840 C   0  0  1  0  0  0  0  0  0  0  0  0
   -0.9560   -2.0450   -0.0750 C   0  0  0  0  0  0  0  0  0  0  0  0
   -0.7080   -3.2160    0.0290 O   0  0  0  0  0  0  0  0  0  0  0  0
   -2.1220   -1.2740    0.4380 C   0  0  0  0  0  0  0  0  0  0  0  0
   -2.3620   -0.3620   -0.6640 N   0  0  0  0  0  0  0  0  0  0  0  0
   -3.6680    0.0260   -1.1580 C   0  0  0  0  0  0  0  0  0  0  0  0
   -4.3500    1.5100   -0.3330 P   0  0  0  0  0  0  0  0  0  0  0  0
   -3.3480    2.1070    0.9250 O   0  0  0  0  0  0  0  0  0  0  0  0
   -5.9820    1.2240    0.1930 O   0  0  0  0  0  0  0  0  0  0  0  0
   -1.0750    0.0360   -1.1120 C   0  0  0  0  0  0  0  0  0  0  0  0
   -0.8300    1.1280   -1.6960 O   0  0  0  0  0  0  0  0  0  0  0  0
    4.5510   -0.7610   -0.0610 O   0  0  0  0  0  0  0  0  0  0  0  0
  1  2  2  0
  2  3  1  0
  2 20  1  0
  3  4  1  0
  4  5  1  0
  5  6  1  6
  5 20  1  0
  6  7  2  0
  6  8  1  0
  9  8  1  1
  9 10  1  0
  9 18  1  0
 10 11  2  0
 10 12  1  0
 12 13  1  0
 13 14  1  0
 13 18  1  0
 14 15  1  0
 15 16  1  0
 15 17  1  0
 18 19  2  0
M  END
