
     RDKit          3D

 20 21  0  0  0  0  0  0  0  0999 V2000
   -1.9650   -2.1950    0.7650 O   0  0  0  0  0  0  0  0  0  0  0  0
   -2.6280   -1.2060    0.3970 C   0  0  0  0  0  0  0  0  0  0  0  0
   -3.8200   -1.3910   -0.4090 N   0  0  0  0  0  0  0  0  0  0  0  0
   -4.8920   -0.4340   -0.2380 C   0  0  0  0  0  0  0  0  0  0  0  0
   -4.4210    0.9590    0.0710 C   0  0  2  0  0  0  0  0  0  0  0  0
   -3.7940    1.5250   -1.0430 O   0  0  0  0  0  0  0  0  0  0  0  0
   -3.4270    0.9410    1.1850 C   0  0  0  0  0  0  0  0  0  0  0  0
   -2.2660    0.1170    0.7410 N   0  0  0  0  0  0  0  0  0  0  0  0
   -0.9840    0.6410    0.7650 C   0  0  0  0  0  0  0  0  0  0  0  0
   -0.8950    1.8160    1.3480 O   0  0  0  0  0  0  0  0  0  0  0  0
    0.2510    0.1030    0.2520 C   0  0  0  0  0  0  0  0  0  0  0  0
    0.5180   -0.9880   -0.4290 C   0  0  0  0  0  0  0  0  0  0  0  0
    1.9160   -1.0390   -0.6790 O   0  0  0  0  0  0  0  0  0  0  0  0
    2.4780   -0.2860    0.3580 C   0  0  1  0  0  0  0  0  0  0  0  0
    3.7680    0.3080   -0.1100 C   0  0  0  0  0  0  0  0  0  0  0  0
    4.6980   -0.6530   -0.4940 O   0  0  0  0  0  0  0  0  0  0  0  0
    6.1750   -0.0220   -1.0320 P   0  0  0  0  0  0  0  0  0  0  0  0
    6.4730    1.6000   -0.5330 O   0  0  0  0  0  0  0  0  0  0  0  0
    7.5250   -1.0580   -0.7630 O   0  0  0  0  0  0  0  0  0  0  0  0
    1.5130    0.7710    0.4390 O   0  0  0  0  0  0  0  0  0  0  0  0
  1  2  2  0
  2  3  1  0
  2  8  1  0
  3  4  1  0
  4  5  1  0
  5  6  1  6
  5  7  1  0
  7  8  1  0
  8  9  1  0
  9 10  2  0
  9 11  1  0
 11 12  2  0
 11 20  1  0
 12 13  1  0
 13 14  1  0
 14 15  1  6
 14 20  1  0
 15 16  1  0
 16 17  1  0
 17 18  1  0
 17 19  1  0
M  END
