
     RDKit          3D

 27 29  0  0  0  0  0  0  0  0999 V2000
    7.3410    0.3580    1.9770 N   0  0  0  0  0  0  0  0  0  0  0  0
    6.4330    0.8870    1.0380 C   0  0  0  0  0  0  0  0  0  0  0  0
    6.6620    2.0020    0.3190 N   0  0  0  0  0  0  0  0  0  0  0  0
    5.7720    2.4870   -0.5750 C   0  0  0  0  0  0  0  0  0  0  0  0
    4.6010    1.8580   -0.7810 N   0  0  0  0  0  0  0  0  0  0  0  0
    4.3110    0.7450   -0.0980 C   0  0  0  0  0  0  0  0  0  0  0  0
    5.2190    0.2450    0.8180 C   0  0  0  0  0  0  0  0  0  0  0  0
    4.6680   -0.8480    1.3320 N   0  0  0  0  0  0  0  0  0  0  0  0
    3.4620   -1.0330    0.7670 C   0  0  0  0  0  0  0  0  0  0  0  0
    3.2080   -0.0590   -0.1290 N   0  0  0  0  0  0  0  0  0  0  0  0
    2.0350    0.1370   -0.9660 C   0  0  2  0  0  0  0  0  0  0  0  0
    1.0030    0.7630   -0.3250 O   0  0  0  0  0  0  0  0  0  0  0  0
   -0.1800    0.1310   -0.6760 C   0  0  2  0  0  0  0  0  0  0  0  0
   -1.2770    0.3630    0.3380 C   0  0  0  0  0  0  0  0  0  0  0  0
   -2.3970   -0.2830   -0.0720 O   0  0  0  0  0  0  0  0  0  0  0  0
   -3.7410   -0.2240    0.8010 P   0  0  0  0  0  0  0  0  0  0  0  0
   -4.5690   -1.6160    1.2290 O   0  0  0  0  0  0  0  0  0  0  0  0
   -4.2700    1.1940    1.5230 O   0  0  0  0  0  0  0  0  0  0  0  0
   -4.7220    0.0080   -0.3340 O   0  0  0  0  0  0  0  0  0  0  0  0
   -6.2070    0.3360   -0.1960 P   0  0  0  0  0  0  0  0  0  0  0  0
   -5.8670    1.9320   -0.5210 O   0  0  0  0  0  0  0  0  0  0  0  0
   -6.3600   -0.1700    1.3300 O   0  0  0  0  0  0  0  0  0  0  0  0
   -6.5160   -0.6690   -1.4890 O   0  0  0  0  0  0  0  0  0  0  0  0
    0.2380   -1.3270   -0.6690 C   0  0  1  0  0  0  0  0  0  0  0  0
   -0.6830   -2.1350   -1.3230 O   0  0  0  0  0  0  0  0  0  0  0  0
    1.5450   -1.2180   -1.4310 C   0  0  1  0  0  0  0  0  0  0  0  0
    1.2210   -1.2100   -2.7890 O   0  0  0  0  0  0  0  0  0  0  0  0
  1  2  1  0
  2  3  2  0
  2  7  1  0
  3  4  1  0
  4  5  2  0
  5  6  1  0
  6  7  2  0
  6 10  1  0
  7  8  1  0
  8  9  2  0
  9 10  1  0
 11 10  1  1
 11 12  1  0
 11 26  1  0
 12 13  1  0
 13 14  1  1
 13 24  1  0
 14 15  1  0
 15 16  1  0
 16 17  1  0
 16 18  1  0
 16 19  1  0
 19 20  1  0
 20 21  1  0
 20 22  1  0
 20 23  1  0
 24 25  1  6
 24 26  1  0
 26 27  1  6
M  END
