
     RDKit          3D

 20 21  0  0  0  0  0  0  0  0999 V2000
   -1.9060   -0.3750    1.6950 N   0  0  0  0  0  0  0  0  0  0  0  0
   -2.5060   -0.2240    0.4190 C   0  0  2  0  0  0  0  0  0  0  0  0
   -1.6520   -0.4270   -0.7610 C   0  0  0  0  0  0  0  0  0  0  0  0
   -0.3670   -0.3360   -0.8850 C   0  0  0  0  0  0  0  0  0  0  0  0
    0.6380    0.0030    0.1180 C   0  0  0  0  0  0  0  0  0  0  0  0
    0.3910    0.2790    1.2990 O   0  0  0  0  0  0  0  0  0  0  0  0
    2.0350    0.0370   -0.2280 N   0  0  0  0  0  0  0  0  0  0  0  0
    3.0520    0.3700    0.7440 C   0  0  0  0  0  0  0  0  0  0  0  0
    4.2720    0.3210    0.1300 O   0  0  0  0  0  0  0  0  0  0  0  0
    5.6040    0.6900    1.1390 P   0  0  0  0  0  0  0  0  0  0  0  0
    6.8200   -0.5100    1.1630 O   0  0  0  0  0  0  0  0  0  0  0  0
    6.1850    2.2860    0.9920 O   0  0  0  0  0  0  0  0  0  0  0  0
   -0.0080   -0.6650   -2.3290 C   0  0  0  0  0  0  0  0  0  0  0  0
   -1.2100   -0.8190   -3.0050 O   0  0  0  0  0  0  0  0  0  0  0  0
   -2.2400   -0.7370   -2.0990 C   0  0  0  0  0  0  0  0  0  0  0  0
   -3.4600   -0.8960   -2.3580 O   0  0  0  0  0  0  0  0  0  0  0  0
   -3.3530    1.0030    0.3360 C   0  0  0  0  0  0  0  0  0  0  0  0
   -4.4220    0.6120   -0.4500 O   0  0  0  0  0  0  0  0  0  0  0  0
   -4.6990   -0.6400    0.1130 C   0  0  0  0  0  0  0  0  0  0  0  0
   -3.4990   -1.2540    0.3270 O   0  0  0  0  0  0  0  0  0  0  0  0
  2  1  1  1
  2  3  1  0
  2 17  1  0
  2 20  1  0
  3  4  2  0
  3 15  1  0
  4  5  1  0
  4 13  1  0
  5  6  2  0
  5  7  1  0
  7  8  1  0
  8  9  1  0
  9 10  1  0
 10 11  1  0
 10 12  1  0
 13 14  1  0
 14 15  1  0
 15 16  2  0
 17 18  1  0
 18 19  1  0
 19 20  1  0
M  END
