
     RDKit          3D

 20 21  0  0  0  0  0  0  0  0999 V2000
   -2.1370    2.0000   -2.4550 N   0  0  0  0  0  0  0  0  0  0  0  0
   -2.2130    1.2650   -1.3840 C   0  0  0  0  0  0  0  0  0  0  0  0
   -1.0170    0.6810   -0.8780 N   0  0  0  0  0  0  0  0  0  0  0  0
   -0.8330    0.2650    0.3380 C   0  0  0  0  0  0  0  0  0  0  0  0
    0.4750   -0.2980    0.6270 C   0  0  0  0  0  0  0  0  0  0  0  0
    0.8480   -0.7700    1.7960 C   0  0  0  0  0  0  0  0  0  0  0  0
    2.1760   -1.2320    1.7100 O   0  0  0  0  0  0  0  0  0  0  0  0
    2.4120   -1.3700    0.3100 C   0  0  2  0  0  0  0  0  0  0  0  0
    3.8640   -0.9530    0.0840 C   0  0  0  0  0  0  0  0  0  0  0  0
    4.1530   -1.0650   -1.2560 O   0  0  0  0  0  0  0  0  0  0  0  0
    5.7790   -0.6080   -1.5800 P   0  0  0  0  0  0  0  0  0  0  0  0
    6.8700   -1.5180   -0.5920 O   0  0  0  0  0  0  0  0  0  0  0  0
    5.9910    1.0690   -1.2090 O   0  0  0  0  0  0  0  0  0  0  0  0
    1.5360   -0.4370   -0.2450 O   0  0  0  0  0  0  0  0  0  0  0  0
   -1.7610    0.3020    1.3970 O   0  0  0  0  0  0  0  0  0  0  0  0
   -3.0150    0.9590    1.3880 C   0  0  0  0  0  0  0  0  0  0  0  0
   -3.8850    0.4570    0.2680 C   0  0  1  0  0  0  0  0  0  0  0  0
   -5.3570    0.5950    0.5630 C   0  0  0  0  0  0  0  0  0  0  0  0
   -6.0530    0.0870   -0.5330 O   0  0  0  0  0  0  0  0  0  0  0  0
   -3.5220    1.1770   -0.8990 O   0  0  0  0  0  0  0  0  0  0  0  0
  1  2  2  0
  2  3  1  0
  2 20  1  0
  3  4  2  0
  4  5  1  0
  4 15  1  0
  5  6  2  0
  5 14  1  0
  6  7  1  0
  7  8  1  0
  8  9  1  1
  8 14  1  0
  9 10  1  0
 10 11  1  0
 11 12  1  0
 11 13  1  0
 15 16  1  0
 16 17  1  0
 17 18  1  1
 17 20  1  0
 18 19  1  0
M  END
