
     RDKit          3D

 21 21  0  0  0  0  0  0  0  0999 V2000
   -1.0900   -0.7660   -1.5080 O   0  0  0  0  0  0  0  0  0  0  0  0
   -1.1210   -1.2430   -0.3500 C   0  0  0  0  0  0  0  0  0  0  0  0
   -2.2400   -1.9630    0.1410 N   0  0  0  0  0  0  0  0  0  0  0  0
   -3.4130   -2.1490   -0.6240 C   0  0  0  0  0  0  0  0  0  0  0  0
   -4.5110   -1.2410    0.0580 C   0  0  0  0  0  0  0  0  0  0  0  0
   -3.8240   -0.0280   -0.0320 O   0  0  0  0  0  0  0  0  0  0  0  0
   -4.8160    1.1420   -0.7050 P   0  0  0  0  0  0  0  0  0  0  0  0
   -4.5330    2.7410   -0.3270 O   0  0  0  0  0  0  0  0  0  0  0  0
   -6.4320    0.6980   -0.9910 O   0  0  0  0  0  0  0  0  0  0  0  0
    0.0400   -1.0130    0.4620 N   0  0  0  0  0  0  0  0  0  0  0  0
    1.2460   -0.4130   -0.0810 C   0  0  2  0  0  0  0  0  0  0  0  0
    2.3840   -1.2890    0.3420 C   0  0  0  0  0  0  0  0  0  0  0  0
    3.5110   -1.2730   -0.4030 O   0  0  0  0  0  0  0  0  0  0  0  0
    3.8740   -0.0150   -0.9400 C   0  0  0  0  0  0  0  0  0  0  0  0
    3.9370    1.0520    0.0690 C   0  0  1  0  0  0  0  0  0  0  0  0
    5.0740    0.7840    0.9340 O   0  0  0  0  0  0  0  0  0  0  0  0
    4.1430    2.3250   -0.4060 O   0  0  0  0  0  0  0  0  0  0  0  0
    5.3270    2.6770   -0.8020 O   0  0  0  0  0  0  0  0  0  0  0  0
    2.7100    1.2200    0.9030 C   0  0  0  0  0  0  0  0  0  0  0  0
    2.9050    1.5350    2.0460 O   0  0  0  0  0  0  0  0  0  0  0  0
    1.3340    1.0060    0.3600 C   0  0  0  0  0  0  0  0  0  0  0  0
  1  2  2  0
  2  3  1  0
  2 10  1  0
  3  4  1  0
  4  5  1  0
  5  6  1  0
  6  7  1  0
  7  8  1  0
  7  9  1  0
 11 10  1  1
 11 12  1  0
 11 21  1  0
 12 13  1  0
 13 14  1  0
 14 15  1  0
 15 16  1  1
 15 17  1  0
 15 19  1  0
 17 18  1  0
 19 20  2  0
 19 21  1  0
M  END
