
     RDKit          3D

 20 21  0  0  0  0  0  0  0  0999 V2000
   -5.6780   -1.8490   -0.2580 O   0  0  0  0  0  0  0  0  0  0  0  0
   -5.0060   -0.7880   -0.4510 C   0  0  0  0  0  0  0  0  0  0  0  0
   -4.5010    0.1510    0.5730 C   0  0  0  0  0  0  0  0  0  0  0  0
   -3.1040    0.4620    0.0730 C   0  0  2  0  0  0  0  0  0  0  0  0
   -3.2530    0.2430   -1.4390 C   0  0  0  0  0  0  0  0  0  0  0  0
   -4.5320   -0.2760   -1.6500 O   0  0  0  0  0  0  0  0  0  0  0  0
   -2.0690   -0.2930    0.5120 O   0  0  0  0  0  0  0  0  0  0  0  0
   -0.9750    0.4860    0.6480 C   0  0  1  0  0  0  0  0  0  0  0  0
    0.2210    0.1750   -0.1970 C   0  0  0  0  0  0  0  0  0  0  0  0
    0.3080    0.7860   -1.3170 O   0  0  0  0  0  0  0  0  0  0  0  0
    1.1870   -0.7390    0.2310 N   0  0  0  0  0  0  0  0  0  0  0  0
    2.3840   -1.1770   -0.3830 C   0  0  0  0  0  0  0  0  0  0  0  0
    3.5120   -0.1500   -0.4900 C   0  0  0  0  0  0  0  0  0  0  0  0
    4.6120   -0.9030   -1.0450 O   0  0  0  0  0  0  0  0  0  0  0  0
    5.9320   -0.7190    0.1080 P   0  0  0  0  0  0  0  0  0  0  0  0
    5.7170   -2.1600    1.2050 O   0  0  0  0  0  0  0  0  0  0  0  0
    5.6490    0.6860    1.1330 O   0  0  0  0  0  0  0  0  0  0  0  0
   -1.3810    1.8810    0.3960 N   0  0  0  0  0  0  0  0  0  0  0  0
   -2.7870    1.8670    0.4060 C   0  0  0  0  0  0  0  0  0  0  0  0
   -3.5210    2.8560    0.6580 O   0  0  0  0  0  0  0  0  0  0  0  0
  1  2  2  0
  2  3  1  0
  2  6  1  0
  4  3  1  1
  4  5  1  0
  4  7  1  0
  4 19  1  0
  5  6  1  0
  7  8  1  0
  8  9  1  6
  8 18  1  0
  9 10  2  0
  9 11  1  0
 11 12  1  0
 12 13  1  0
 13 14  1  0
 14 15  1  0
 15 16  1  0
 15 17  1  0
 18 19  1  0
 19 20  2  0
M  END
