
     RDKit          3D

 21 22  0  0  0  0  0  0  0  0999 V2000
    6.3100   -0.0710    3.1040 O   0  0  0  0  0  0  0  0  0  0  0  0
    4.9500    0.6110    2.9060 P   0  0  0  0  0  0  0  0  0  0  0  0
    4.3010    1.0150    1.3460 O   0  0  0  0  0  0  0  0  0  0  0  0
    3.1470    0.2700    1.0450 C   0  0  0  0  0  0  0  0  0  0  0  0
    2.6950    0.7200   -0.3040 C   0  0  0  0  0  0  0  0  0  0  0  0
    1.5020    0.0430   -0.7780 N   0  0  0  0  0  0  0  0  0  0  0  0
    1.5590   -1.1350   -1.5580 C   0  0  0  0  0  0  0  0  0  0  0  0
    2.6800   -1.5990   -1.8520 O   0  0  0  0  0  0  0  0  0  0  0  0
    0.3520   -1.6930   -1.9400 O   0  0  0  0  0  0  0  0  0  0  0  0
   -0.8750   -1.1900   -1.6190 C   0  0  0  0  0  0  0  0  0  0  0  0
   -1.9410   -1.6630   -2.1300 O   0  0  0  0  0  0  0  0  0  0  0  0
   -1.0150   -0.0830   -0.6700 C   0  0  2  0  0  0  0  0  0  0  0  0
   -1.5050   -0.5670    0.6840 C   0  0  0  0  0  0  0  0  0  0  0  0
   -2.2160    0.5400    1.1090 O   0  0  0  0  0  0  0  0  0  0  0  0
   -2.9570    0.8960    0.0090 C   0  0  2  0  0  0  0  0  0  0  0  0
   -4.1050   -0.0270   -0.1400 C   0  0  0  0  0  0  0  0  0  0  0  0
   -4.5390   -0.4250   -1.2780 O   0  0  0  0  0  0  0  0  0  0  0  0
   -4.8240   -0.5560    0.9400 O   0  0  0  0  0  0  0  0  0  0  0  0
   -2.0410    0.8700   -1.0960 N   0  0  0  0  0  0  0  0  0  0  0  0
    0.2590    0.5950   -0.4260 C   0  0  0  0  0  0  0  0  0  0  0  0
    0.2410    1.7430    0.1300 O   0  0  0  0  0  0  0  0  0  0  0  0
  1  2  2  0
  2  3  1  0
  3  4  1  0
  4  5  1  0
  5  6  1  0
  6  7  1  0
  6 20  1  0
  7  8  2  0
  7  9  1  0
  9 10  1  0
 10 11  2  0
 10 12  1  0
 12 13  1  1
 12 19  1  0
 12 20  1  0
 13 14  1  0
 14 15  1  0
 15 16  1  6
 15 19  1  0
 16 17  2  0
 16 18  1  0
 20 21  2  0
M  END
