
     RDKit          3D

 21 24  0  0  0  0  0  0  0  0999 V2000
   -2.0460    3.5180    0.5630 C   0  0  0  0  0  0  0  0  0  0  0  0
   -2.5130    2.3840    0.3400 C   0  0  0  0  0  0  0  0  0  0  0  0
   -2.4440    0.9790    0.0940 C   0  0  0  0  0  0  0  0  0  0  0  0
   -3.6150    0.2780    0.0190 C   0  0  0  0  0  0  0  0  0  0  0  0
   -3.7240   -1.1640   -0.2340 C   0  0  0  0  0  0  0  0  0  0  0  0
   -2.6470   -1.9680    0.3710 C   0  0  0  0  0  0  0  0  0  0  0  0
   -1.3480   -1.2610    0.1920 C   0  0  0  0  0  0  0  0  0  0  0  0
   -1.2630    0.1410    0.1530 C   0  0  0  0  0  0  0  0  0  0  0  0
   -0.0130    0.7040    0.0370 C   0  0  0  0  0  0  0  0  0  0  0  0
    0.1040    2.1130   -0.3720 C   0  0  0  0  0  0  0  0  0  0  0  0
    1.0950   -0.1270   -0.0140 C   0  0  0  0  0  0  0  0  0  0  0  0
    1.0220   -1.5000    0.0290 C   0  0  0  0  0  0  0  0  0  0  0  0
    2.2390   -1.9680   -0.0380 O   0  0  0  0  0  0  0  0  0  0  0  0
    3.1170   -1.0040   -0.1160 C   0  0  0  0  0  0  0  0  0  0  0  0
    4.5090   -0.9990   -0.2010 C   0  0  0  0  0  0  0  0  0  0  0  0
    5.2170    0.1790   -0.2670 C   0  0  0  0  0  0  0  0  0  0  0  0
    4.5460    1.3760   -0.2490 C   0  0  0  0  0  0  0  0  0  0  0  0
    3.1410    1.3820   -0.1660 C   0  0  0  0  0  0  0  0  0  0  0  0
    2.4300    0.2160   -0.1020 C   0  0  0  0  0  0  0  0  0  0  0  0
   -0.2220   -2.0510    0.1290 C   0  0  0  0  0  0  0  0  0  0  0  0
   -0.3350   -3.5420    0.1680 C   0  0  0  0  0  0  0  0  0  0  0  0
  1  2  2  0
  2  3  1  0
  3  4  2  0
  3  8  1  0
  4  5  1  0
  5  6  1  0
  6  7  1  0
  7  8  2  0
  7 20  1  0
  8  9  1  0
  9 10  1  0
  9 11  2  0
 11 12  1  0
 11 19  1  0
 12 13  1  0
 12 20  2  0
 13 14  1  0
 14 15  2  0
 14 19  1  0
 15 16  1  0
 16 17  2  0
 17 18  1  0
 18 19  2  0
 20 21  1  0
M  END
