
     RDKit          3D

 12 13  0  0  0  0  0  0  0  0999 V2000
   -3.5280   -0.5070    0.0040 N   0  0  0  0  0  0  0  0  0  0  0  0
   -2.1690   -0.1270    0.0500 C   0  0  0  0  0  0  0  0  0  0  0  0
   -1.8800    1.2320    0.0430 C   0  0  0  0  0  0  0  0  0  0  0  0
   -0.5520    1.5970    0.0880 C   0  0  0  0  0  0  0  0  0  0  0  0
    0.4650    0.6650    0.1400 C   0  0  0  0  0  0  0  0  0  0  0  0
    0.1900   -0.6820    0.1470 C   0  0  0  0  0  0  0  0  0  0  0  0
   -1.1370   -1.0580    0.1020 C   0  0  0  0  0  0  0  0  0  0  0  0
    1.2270   -1.5980    0.1990 O   0  0  0  0  0  0  0  0  0  0  0  0
    2.5770   -1.2920   -0.0130 C   0  0  0  0  0  0  0  0  0  0  0  0
    2.8860    0.1380    0.2390 C   0  0  0  0  0  0  0  0  0  0  0  0
    4.4300    0.5980    0.5700 S   0  0  0  0  0  0  0  0  0  0  0  0
    1.8240    1.0850    0.1860 N   0  0  0  0  0  0  0  0  0  0  0  0
  1  2  1  0
  2  3  2  0
  2  7  1  0
  3  4  1  0
  4  5  2  0
  5  6  1  0
  5 12  1  0
  6  7  2  0
  6  8  1  0
  8  9  1  0
  9 10  1  0
 10 11  2  0
 10 12  1  0
M  END
