
     RDKit          3D

 21 24  0  0  0  0  0  0  0  0999 V2000
   -3.0510   -0.3740   -1.7270 C   0  0  0  0  0  0  0  0  0  0  0  0
   -3.1100    0.6250   -0.6290 C   0  0  2  0  0  0  0  0  0  0  0  0
   -3.6930    1.9730   -1.0730 C   0  0  0  0  0  0  0  0  0  0  0  0
   -1.8920    0.6540    0.2810 C   0  0  2  0  0  0  0  0  0  0  0  0
   -0.8040   -0.3360    0.0810 C   0  0  0  0  0  0  0  0  0  0  0  0
   -0.8580   -1.6710   -0.1420 C   0  0  0  0  0  0  0  0  0  0  0  0
    0.4260   -2.1290   -0.2580 C   0  0  0  0  0  0  0  0  0  0  0  0
    1.2460   -1.0350   -0.0990 C   0  0  0  0  0  0  0  0  0  0  0  0
    2.6980   -1.0300   -0.1420 C   0  0  0  0  0  0  0  0  0  0  0  0
    3.3660   -2.2060   -0.3600 C   0  0  0  0  0  0  0  0  0  0  0  0
    4.7490   -2.2790   -0.4150 C   0  0  0  0  0  0  0  0  0  0  0  0
    5.4430   -1.1000   -0.2380 C   0  0  0  0  0  0  0  0  0  0  0  0
    4.7760    0.0860   -0.0190 C   0  0  0  0  0  0  0  0  0  0  0  0
    3.3820    0.1440    0.0340 C   0  0  0  0  0  0  0  0  0  0  0  0
    2.9800    1.3750    0.2530 C   0  0  0  0  0  0  0  0  0  0  0  0
    4.1800    2.2520    0.3630 C   0  0  0  0  0  0  0  0  0  0  0  0
    5.2830    1.2940    0.1680 C   0  0  0  0  0  0  0  0  0  0  0  0
    0.4670   -0.0100    0.0970 O   0  0  0  0  0  0  0  0  0  0  0  0
   -3.2140    0.2710    0.8060 C   0  0  1  0  0  0  0  0  0  0  0  0
   -3.8640    1.3570    1.6820 C   0  0  0  0  0  0  0  0  0  0  0  0
   -3.5780   -1.0970    1.2520 C   0  0  0  0  0  0  0  0  0  0  0  0
  2  1  1  6
  2  3  1  0
  2  4  1  0
  2 19  1  0
  4  5  1  6
  4 19  1  0
  5  6  2  0
  5 18  1  0
  6  7  1  0
  7  8  2  0
  8  9  1  0
  8 18  1  0
  9 10  2  0
  9 14  1  0
 10 11  1  0
 11 12  2  0
 12 13  1  0
 13 14  1  0
 13 17  2  0
 14 15  2  0
 15 16  1  0
 16 17  1  0
 19 20  1  1
 19 21  1  0
M  END
