
     RDKit          3D

 12 13  0  0  0  0  0  0  0  0999 V2000
   -3.3350   -1.1500   -0.0930 C   0  0  0  0  0  0  0  0  0  0  0  0
   -2.7160    0.0920    0.0480 O   0  0  0  0  0  0  0  0  0  0  0  0
   -1.3560    0.3170    0.0550 C   0  0  0  0  0  0  0  0  0  0  0  0
   -0.9070    1.6100    0.2040 C   0  0  0  0  0  0  0  0  0  0  0  0
    0.4390    1.9040    0.2200 C   0  0  0  0  0  0  0  0  0  0  0  0
    1.3940    0.9180    0.0880 C   0  0  0  0  0  0  0  0  0  0  0  0
    2.7420    0.8980    0.0660 N   0  0  0  0  0  0  0  0  0  0  0  0
    3.1690   -0.3670   -0.0920 C   0  0  0  0  0  0  0  0  0  0  0  0
    4.7410   -0.8420   -0.1720 S   0  0  0  0  0  0  0  0  0  0  0  0
    2.0680   -1.1310   -0.1680 N   0  0  0  0  0  0  0  0  0  0  0  0
    0.9490   -0.3800   -0.0620 C   0  0  0  0  0  0  0  0  0  0  0  0
   -0.4150   -0.6830   -0.0790 C   0  0  0  0  0  0  0  0  0  0  0  0
  1  2  1  0
  2  3  1  0
  3  4  2  0
  3 12  1  0
  4  5  1  0
  5  6  2  0
  6  7  1  0
  6 11  1  0
  7  8  1  0
  8  9  2  0
  8 10  1  0
 10 11  1  0
 11 12  2  0
M  END
