
     RDKit          3D

 12 13  0  0  0  0  0  0  0  0999 V2000
    3.2420   -1.6300   -0.7750 O   0  0  0  0  0  0  0  0  0  0  0  0
    2.2210   -0.8990   -0.5810 C   0  0  0  0  0  0  0  0  0  0  0  0
    2.2670    0.4030   -0.8980 N   0  0  0  0  0  0  0  0  0  0  0  0
    1.1840    1.1750   -0.6920 C   0  0  0  0  0  0  0  0  0  0  0  0
    1.2310    2.7720   -1.0780 S   0  0  0  0  0  0  0  0  0  0  0  0
    0.0200    0.6530   -0.1580 C   0  0  0  0  0  0  0  0  0  0  0  0
   -1.1080    1.4060    0.0690 C   0  0  0  0  0  0  0  0  0  0  0  0
   -2.2650    0.8450    0.6090 C   0  0  0  0  0  0  0  0  0  0  0  0
   -2.3090   -0.4950    0.9350 C   0  0  0  0  0  0  0  0  0  0  0  0
   -1.1700   -1.2390    0.7020 C   0  0  0  0  0  0  0  0  0  0  0  0
   -0.0140   -0.6880    0.1640 C   0  0  0  0  0  0  0  0  0  0  0  0
    1.0910   -1.4080   -0.0620 N   0  0  0  0  0  0  0  0  0  0  0  0
  1  2  2  0
  2  3  1  0
  2 12  1  0
  3  4  1  0
  4  5  2  0
  4  6  1  0
  6  7  2  0
  6 11  1  0
  7  8  1  0
  8  9  2  0
  9 10  1  0
 10 11  2  0
 11 12  1  0
M  END
