
     RDKit          3D

 21 24  0  0  0  0  0  0  0  0999 V2000
    6.3850    0.3730    0.0430 C   0  0  0  0  0  0  0  0  0  0  0  0
    5.1200   -0.0120    0.0620 C   0  0  0  0  0  0  0  0  0  0  0  0
    4.2940   -0.2630   -1.1430 C   0  0  0  0  0  0  0  0  0  0  0  0
    2.8950   -0.1960   -0.5870 C   0  0  0  0  0  0  0  0  0  0  0  0
    1.6550   -0.1390   -0.9660 O   0  0  0  0  0  0  0  0  0  0  0  0
    0.8240   -0.0970    0.0660 C   0  0  0  0  0  0  0  0  0  0  0  0
   -0.6160   -0.0300   -0.0490 C   0  0  0  0  0  0  0  0  0  0  0  0
   -1.1520   -0.0300   -1.3360 C   0  0  0  0  0  0  0  0  0  0  0  0
   -2.5090    0.0350   -1.5580 C   0  0  0  0  0  0  0  0  0  0  0  0
   -3.0350    0.0330   -2.9380 C   0  0  0  0  0  0  0  0  0  0  0  0
   -3.3660    0.1010   -0.4850 C   0  0  0  0  0  0  0  0  0  0  0  0
   -4.7410    0.1680   -0.6480 C   0  0  0  0  0  0  0  0  0  0  0  0
   -5.6070    0.2350    0.4490 C   0  0  0  0  0  0  0  0  0  0  0  0
   -5.1100    0.2370    1.7350 C   0  0  0  0  0  0  0  0  0  0  0  0
   -3.7320    0.1700    1.8860 C   0  0  0  0  0  0  0  0  0  0  0  0
   -2.8900    0.1040    0.8040 C   0  0  0  0  0  0  0  0  0  0  0  0
   -1.4950    0.0370    0.9790 C   0  0  0  0  0  0  0  0  0  0  0  0
    1.5720   -0.1290    1.2080 C   0  0  0  0  0  0  0  0  0  0  0  0
    1.1620   -0.1080    2.6530 C   0  0  0  0  0  0  0  0  0  0  0  0
    2.9110   -0.1930    0.7780 C   0  0  0  0  0  0  0  0  0  0  0  0
    4.3140   -0.2560    1.2910 C   0  0  0  0  0  0  0  0  0  0  0  0
  1  2  2  0
  2  3  1  0
  2 21  1  0
  3  4  1  0
  4  5  1  0
  4 20  2  0
  5  6  1  0
  6  7  1  0
  6 18  2  0
  7  8  2  0
  7 17  1  0
  8  9  1  0
  9 10  1  0
  9 11  2  0
 11 12  1  0
 11 16  1  0
 12 13  2  0
 13 14  1  0
 14 15  2  0
 15 16  1  0
 16 17  2  0
 18 19  1  0
 18 20  1  0
 20 21  1  0
M  END
