
     RDKit          3D

 12 13  0  0  0  0  0  0  0  0999 V2000
    3.7550    0.8240   -0.0800 C   0  0  0  0  0  0  0  0  0  0  0  0
    2.9990   -0.5100    0.0360 C   0  0  0  0  0  0  0  0  0  0  0  0
    1.5390   -0.2630    0.0260 C   0  0  0  0  0  0  0  0  0  0  0  0
    0.4720   -1.0880    0.1020 C   0  0  0  0  0  0  0  0  0  0  0  0
   -0.7650   -0.5780    0.0680 C   0  0  0  0  0  0  0  0  0  0  0  0
   -0.8850    0.8080   -0.0470 C   0  0  0  0  0  0  0  0  0  0  0  0
    0.7930    1.3560   -0.1040 S   0  0  0  0  0  0  0  0  0  0  0  0
   -2.1540    1.5080   -0.1080 C   0  0  0  0  0  0  0  0  0  0  0  0
   -2.1450    2.7550   -0.2100 O   0  0  0  0  0  0  0  0  0  0  0  0
   -3.3960    0.7780   -0.0530 N   0  0  0  0  0  0  0  0  0  0  0  0
   -3.2610   -0.6320   -0.3370 C   0  0  0  0  0  0  0  0  0  0  0  0
   -2.0600   -1.2340    0.1410 N   0  0  0  0  0  0  0  0  0  0  0  0
  1  2  1  0
  2  3  1  0
  3  4  2  0
  3  7  1  0
  4  5  1  0
  5  6  2  0
  5 12  1  0
  6  7  1  0
  6  8  1  0
  8  9  2  0
  8 10  1  0
 10 11  1  0
 11 12  1  0
M  END
