
     RDKit          3D

 12 13  0  0  0  0  0  0  0  0999 V2000
   -3.2010   -0.8500    1.3950 O   0  0  0  0  0  0  0  0  0  0  0  0
   -2.3000   -0.6320    0.3430 C   0  0  0  0  0  0  0  0  0  0  0  0
   -2.1540    0.8490    0.0500 C   0  0  0  0  0  0  0  0  0  0  0  0
   -1.1710    0.9870   -1.0900 C   0  0  0  0  0  0  0  0  0  0  0  0
    0.1490    0.4100   -0.7210 C   0  0  0  0  0  0  0  0  0  0  0  0
    0.5530   -0.8450   -0.9010 N   0  0  0  0  0  0  0  0  0  0  0  0
    1.8530   -0.9920   -0.4230 C   0  0  0  0  0  0  0  0  0  0  0  0
    2.6720   -2.1010   -0.3980 C   0  0  0  0  0  0  0  0  0  0  0  0
    4.1740   -1.3670    0.4000 S   0  0  0  0  0  0  0  0  0  0  0  0
    3.5050    0.2790    0.5810 C   0  0  0  0  0  0  0  0  0  0  0  0
    2.2190    0.1680    0.0380 C   0  0  0  0  0  0  0  0  0  0  0  0
    1.1820    1.0420   -0.1380 N   0  0  0  0  0  0  0  0  0  0  0  0
  1  2  1  0
  2  3  1  0
  3  4  1  0
  4  5  1  0
  5  6  2  0
  5 12  1  0
  6  7  1  0
  7  8  2  0
  7 11  1  0
  8  9  1  0
  9 10  1  0
 10 11  2  0
 11 12  1  0
M  END
