
     RDKit          3D

 23 23  0  0  0  0  0  0  0  0999 V2000
    5.8130    0.6840    1.2420 O   0  0  0  0  0  0  0  0  0  0  0  0
    5.2080    1.2890    0.1670 C   0  0  0  0  0  0  0  0  0  0  0  0
    3.7010    1.3480    0.3070 C   0  0  0  0  0  0  0  0  0  0  0  0
    3.1210    0.1130    0.4170 O   0  0  0  0  0  0  0  0  0  0  0  0
    3.3110   -0.7480   -0.6250 C   0  0  0  0  0  0  0  0  0  0  0  0
    2.6120   -2.0540   -0.3540 C   0  0  1  0  0  0  0  0  0  0  0  0
    3.0520   -2.6720    0.8160 O   0  0  0  0  0  0  0  0  0  0  0  0
    1.1230   -1.9630   -0.3240 C   0  0  1  0  0  0  0  0  0  0  0  0
    0.6380   -3.2940   -0.2500 O   0  0  0  0  0  0  0  0  0  0  0  0
    0.5520   -1.1650    0.7980 C   0  0  2  0  0  0  0  0  0  0  0  0
    0.8990   -1.6430    2.0510 O   0  0  0  0  0  0  0  0  0  0  0  0
   -0.8330   -1.1420    0.6180 O   0  0  0  0  0  0  0  0  0  0  0  0
   -1.3070    0.1460    0.4050 C   0  0  0  0  0  0  0  0  0  0  0  0
   -2.7790    0.2120    0.2080 C   0  0  1  0  0  0  0  0  0  0  0  0
   -3.2580   -0.4980   -0.8540 O   0  0  0  0  0  0  0  0  0  0  0  0
   -2.7810   -0.1470   -2.0810 C   0  0  0  0  0  0  0  0  0  0  0  0
   -3.3950   -0.9940   -3.0290 O   0  0  0  0  0  0  0  0  0  0  0  0
   -3.4390   -0.3690    1.4690 C   0  0  0  0  0  0  0  0  0  0  0  0
   -4.6710    0.2190    1.6580 O   0  0  0  0  0  0  0  0  0  0  0  0
   -5.2390    0.7020    0.4900 C   0  0  0  0  0  0  0  0  0  0  0  0
   -4.5380    1.7510   -0.0750 O   0  0  0  0  0  0  0  0  0  0  0  0
   -3.1890    1.6770    0.1790 C   0  0  2  0  0  0  0  0  0  0  0  0
   -2.4220    2.4060   -0.7210 O   0  0  0  0  0  0  0  0  0  0  0  0
  1  2  1  0
  2  3  1  0
  3  4  1  0
  4  5  1  0
  5  6  1  0
  6  7  1  1
  6  8  1  0
  8  9  1  1
  8 10  1  0
 10 11  1  1
 10 12  1  0
 12 13  1  0
 14 13  1  1
 14 15  1  0
 14 18  1  0
 14 22  1  0
 15 16  1  0
 16 17  1  0
 18 19  1  0
 19 20  1  0
 20 21  1  0
 21 22  1  0
 22 23  1  6
M  END
