
     RDKit          3D

 23 24  0  0  0  0  0  0  0  0999 V2000
    1.1740    0.8120   -0.0000 O   0  0  0  0  0  0  0  0  0  0  0  0
    0.9880   -0.4260    0.0850 C   0  0  0  0  0  0  0  0  0  0  0  0
   -0.2470   -0.9910    0.7370 C   0  0  0  0  0  0  0  0  0  0  0  0
   -1.4450   -0.9530   -0.1460 C   0  0  1  0  0  0  0  0  0  0  0  0
   -1.0570   -1.7330   -1.2720 O   0  0  0  0  0  0  0  0  0  0  0  0
   -2.5120   -1.8620    0.5040 C   0  0  0  0  0  0  0  0  0  0  0  0
   -3.5000   -2.2020   -0.4730 O   0  0  0  0  0  0  0  0  0  0  0  0
   -3.9350   -1.1160   -1.2180 C   0  0  0  0  0  0  0  0  0  0  0  0
   -4.6270   -1.2720   -2.2450 O   0  0  0  0  0  0  0  0  0  0  0  0
   -3.5170    0.2130   -0.7020 C   0  0  1  0  0  0  0  0  0  0  0  0
   -4.1110    0.3750    0.5480 O   0  0  0  0  0  0  0  0  0  0  0  0
   -3.6030    1.4520    1.2440 C   0  0  2  0  0  0  0  0  0  0  0  0
   -4.5540    2.1650    1.9470 O   0  0  0  0  0  0  0  0  0  0  0  0
   -2.9190    2.2440    0.3280 O   0  0  0  0  0  0  0  0  0  0  0  0
   -1.6910    1.5650    0.1070 C   0  0  0  0  0  0  0  0  0  0  0  0
   -1.9810    0.3130   -0.6180 C   0  0  1  0  0  0  0  0  0  0  0  0
   -1.6120    0.5360   -1.9730 O   0  0  0  0  0  0  0  0  0  0  0  0
    1.9670   -1.2490   -0.4460 O   0  0  0  0  0  0  0  0  0  0  0  0
    3.1510   -0.8400   -1.0700 C   0  0  0  0  0  0  0  0  0  0  0  0
    4.0290   -0.0520   -0.1400 C   0  0  0  0  0  0  0  0  0  0  0  0
    5.1990    0.3410   -0.7900 O   0  0  0  0  0  0  0  0  0  0  0  0
    6.0280    1.0770    0.0550 C   0  0  0  0  0  0  0  0  0  0  0  0
    7.1530    1.4140   -0.6910 O   0  0  0  0  0  0  0  0  0  0  0  0
  1  2  2  0
  2  3  1  0
  2 18  1  0
  3  4  1  0
  4  5  1  6
  4  6  1  0
  4 16  1  0
  6  7  1  0
  7  8  1  0
  8  9  2  0
  8 10  1  0
 10 11  1  1
 10 16  1  0
 11 12  1  0
 12 13  1  6
 12 14  1  0
 14 15  1  0
 15 16  1  0
 16 17  1  6
 18 19  1  0
 19 20  1  0
 20 21  1  0
 21 22  1  0
 22 23  1  0
M  END
