
     RDKit          3D

 23 23  0  0  0  0  0  0  0  0999 V2000
    2.1360    0.2190    0.2700 O   0  0  0  0  0  0  0  0  0  0  0  0
    1.5510   -0.1620   -0.7630 C   0  0  0  0  0  0  0  0  0  0  0  0
    0.6190   -1.2870   -0.7960 C   0  0  0  0  0  0  0  0  0  0  0  0
   -0.3950   -1.4380    0.2690 C   0  0  1  0  0  0  0  0  0  0  0  0
   -1.1420   -2.7640   -0.1330 C   0  0  0  0  0  0  0  0  0  0  0  0
   -0.1910   -3.8000   -0.1320 O   0  0  0  0  0  0  0  0  0  0  0  0
    0.1600   -1.7560    1.6250 C   0  0  1  0  0  0  0  0  0  0  0  0
    0.8850   -2.9460    1.6510 O   0  0  0  0  0  0  0  0  0  0  0  0
    0.8650   -0.7860    2.2600 O   0  0  0  0  0  0  0  0  0  0  0  0
   -1.4220   -0.3560    0.3860 C   0  0  2  0  0  0  0  0  0  0  0  0
   -2.3220   -0.6710    1.4350 O   0  0  0  0  0  0  0  0  0  0  0  0
   -2.3150   -0.2720   -0.8590 C   0  0  0  0  0  0  0  0  0  0  0  0
   -1.6500    0.3930   -1.8800 O   0  0  0  0  0  0  0  0  0  0  0  0
   -1.5510    1.7310   -1.4450 C   0  0  0  0  0  0  0  0  0  0  0  0
   -0.6190    1.7620   -0.4370 O   0  0  0  0  0  0  0  0  0  0  0  0
   -0.9370    1.0150    0.6780 C   0  0  1  0  0  0  0  0  0  0  0  0
   -2.0550    1.7940    1.4080 C   0  0  2  0  0  0  0  0  0  0  0  0
   -1.5440    3.0430    1.7530 O   0  0  0  0  0  0  0  0  0  0  0  0
   -2.4180    1.1520    2.5880 O   0  0  0  0  0  0  0  0  0  0  0  0
    1.8140    0.5370   -1.9270 O   0  0  0  0  0  0  0  0  0  0  0  0
    2.7030    1.6140   -1.9200 C   0  0  0  0  0  0  0  0  0  0  0  0
    4.1230    1.2500   -1.5370 C   0  0  0  0  0  0  0  0  0  0  0  0
    4.8690    2.4260   -1.5800 O   0  0  0  0  0  0  0  0  0  0  0  0
  1  2  2  0
  2  3  1  0
  2 20  1  0
  4  3  1  6
  4  5  1  0
  4  7  1  0
  4 10  1  0
  5  6  1  0
  7  8  1  6
  7  9  1  0
 10 11  1  1
 10 12  1  0
 10 16  1  0
 12 13  1  0
 13 14  1  0
 14 15  1  0
 16 15  1  6
 16 17  1  0
 17 18  1  1
 17 19  1  0
 20 21  1  0
 21 22  1  0
 22 23  1  0
M  END
