
     RDKit          3D

 23 23  0  0  0  0  0  0  0  0999 V2000
   -3.1190    0.4160   -2.5280 O   0  0  0  0  0  0  0  0  0  0  0  0
   -2.9760    1.6260   -2.2910 C   0  0  0  0  0  0  0  0  0  0  0  0
   -3.0770    2.4680   -3.4110 O   0  0  0  0  0  0  0  0  0  0  0  0
   -2.7230    2.1290   -0.9530 C   0  0  0  0  0  0  0  0  0  0  0  0
   -2.6620    1.1940    0.0410 O   0  0  0  0  0  0  0  0  0  0  0  0
   -1.6930    0.2710   -0.1560 C   0  0  1  0  0  0  0  0  0  0  0  0
   -0.6260    0.6150    0.7760 O   0  0  0  0  0  0  0  0  0  0  0  0
    0.5560    0.0500    0.3020 C   0  0  1  0  0  0  0  0  0  0  0  0
    1.5260    0.2830    1.2570 O   0  0  0  0  0  0  0  0  0  0  0  0
    2.5640    1.0810    0.8320 C   0  0  1  0  0  0  0  0  0  0  0  0
    2.6820    2.3730    1.5980 C   0  0  0  0  0  0  0  0  0  0  0  0
    1.5210    3.1310    1.4750 O   0  0  0  0  0  0  0  0  0  0  0  0
    3.7910    0.4400    0.8830 O   0  0  0  0  0  0  0  0  0  0  0  0
    4.3060    0.3770   -0.4050 C   0  0  0  0  0  0  0  0  0  0  0  0
    5.5320   -0.2450   -0.4720 O   0  0  0  0  0  0  0  0  0  0  0  0
    0.4990   -1.4180    0.0560 C   0  0  1  0  0  0  0  0  0  0  0  0
    0.9250   -2.1730    1.3100 C   0  0  0  0  0  0  0  0  0  0  0  0
    0.8700   -3.5470    1.0740 O   0  0  0  0  0  0  0  0  0  0  0  0
   -0.8390   -1.9590   -0.3630 C   0  0  0  0  0  0  0  0  0  0  0  0
   -1.9800   -1.1470    0.2180 C   0  0  1  0  0  0  0  0  0  0  0  0
   -1.8890   -1.2680    1.6280 O   0  0  0  0  0  0  0  0  0  0  0  0
   -3.2850   -1.7160   -0.1850 C   0  0  0  0  0  0  0  0  0  0  0  0
   -4.3560   -1.0250    0.3850 O   0  0  0  0  0  0  0  0  0  0  0  0
  1  2  2  0
  2  3  1  0
  2  4  1  0
  4  5  1  0
  6  5  1  1
  6  7  1  0
  6 20  1  0
  7  8  1  0
  8  9  1  1
  8 16  1  0
  9 10  1  0
 10 11  1  1
 10 13  1  0
 11 12  1  0
 13 14  1  0
 14 15  1  0
 16 17  1  1
 16 19  1  0
 17 18  1  0
 19 20  1  0
 20 21  1  1
 20 22  1  0
 22 23  1  0
M  END
