
     RDKit          3D

 16 16  0  0  0  0  0  0  0  0999 V2000
    3.2040    1.7630   -1.0010 C   0  0  0  0  0  0  0  0  0  0  0  0
    3.4720    0.8790    0.2160 C   0  0  0  0  0  0  0  0  0  0  0  0
    2.1870    1.2060    1.4260 S   0  0  0  0  0  0  0  0  0  0  0  0
    0.6000    0.6420    0.7650 C   0  0  0  0  0  0  0  0  0  0  0  0
    0.2780   -0.6130    0.7750 C   0  0  0  0  0  0  0  0  0  0  0  0
    1.2280   -1.4370    1.3170 N   0  0  0  0  0  0  0  0  0  0  0  0
    1.0570   -2.7590    1.3980 C   0  0  0  0  0  0  0  0  0  0  0  0
    1.9310   -3.5260    1.8980 O   0  0  0  0  0  0  0  0  0  0  0  0
   -0.1100   -3.2670    0.9170 C   0  0  0  0  0  0  0  0  0  0  0  0
   -0.2830   -4.5260    0.9900 O   0  0  0  0  0  0  0  0  0  0  0  0
   -1.0360   -2.4750    0.3910 N   0  0  0  0  0  0  0  0  0  0  0  0
   -0.9100   -1.1060    0.2830 C   0  0  0  0  0  0  0  0  0  0  0  0
   -1.8780   -0.4230   -0.2360 C   0  0  0  0  0  0  0  0  0  0  0  0
   -2.0980    0.9820   -0.4890 C   0  0  0  0  0  0  0  0  0  0  0  0
   -3.5220    1.1950   -1.1070 C   0  0  0  0  0  0  0  0  0  0  0  0
   -3.6570    2.5640   -1.3180 O   0  0  0  0  0  0  0  0  0  0  0  0
  1  2  1  0
  2  3  1  0
  3  4  1  0
  4  5  2  3
  5  6  1  0
  5 12  1  0
  6  7  1  0
  7  8  2  0
  7  9  1  0
  9 10  2  0
  9 11  1  0
 11 12  1  0
 12 13  2  3
 13 14  1  0
 14 15  1  0
 15 16  1  0
M  END
