
     RDKit          3D

 16 17  0  0  0  0  0  0  0  0999 V2000
    2.7800   -2.1950   -1.3710 C   0  0  0  0  0  0  0  0  0  0  0  0
    1.9260   -1.2160   -0.8130 O   0  0  0  0  0  0  0  0  0  0  0  0
    2.3230    0.0540   -0.5180 C   0  0  0  0  0  0  0  0  0  0  0  0
    3.5600    0.2890   -0.7940 O   0  0  0  0  0  0  0  0  0  0  0  0
    1.5650    1.1440    0.0540 C   0  0  0  0  0  0  0  0  0  0  0  0
    2.1020    2.3840    0.3600 N   0  0  0  0  0  0  0  0  0  0  0  0
    1.1490    3.1390    0.9150 C   0  0  0  0  0  0  0  0  0  0  0  0
    1.3850    4.6810    1.4220 S   0  0  0  0  0  0  0  0  0  0  0  0
    0.0230    2.4210    0.9710 N   0  0  0  0  0  0  0  0  0  0  0  0
    0.2500    1.1720    0.4390 C   0  0  0  0  0  0  0  0  0  0  0  0
   -0.8180    0.2020    0.2600 C   0  0  0  0  0  0  0  0  0  0  0  0
   -1.9170    0.3540    1.0190 C   0  0  0  0  0  0  0  0  0  0  0  0
   -3.0890   -0.5430    0.9620 C   0  0  0  0  0  0  0  0  0  0  0  0
   -2.9320   -1.5830   -0.1260 C   0  0  0  0  0  0  0  0  0  0  0  0
   -2.2150   -1.0300   -1.1970 O   0  0  0  0  0  0  0  0  0  0  0  0
   -0.8630   -0.8840   -0.7300 C   0  0  0  0  0  0  0  0  0  0  0  0
  1  2  1  0
  2  3  1  0
  3  4  2  0
  3  5  1  0
  5  6  1  0
  5 10  2  0
  6  7  1  0
  7  8  2  0
  7  9  1  0
  9 10  1  0
 10 11  1  0
 11 12  2  0
 11 16  1  0
 12 13  1  0
 13 14  1  0
 14 15  1  0
 15 16  1  0
M  END
