
     RDKit          3D

 16 16  0  0  0  0  0  0  0  0999 V2000
    4.9110    1.0460   -1.1940 N   0  0  0  0  0  0  0  0  0  0  0  0
    4.3380    0.1390   -0.2910 C   0  0  0  0  0  0  0  0  0  0  0  0
    5.0190   -0.4450    0.5680 O   0  0  0  0  0  0  0  0  0  0  0  0
    2.9370   -0.1350   -0.3430 N   0  0  0  0  0  0  0  0  0  0  0  0
    2.3810   -1.0770    0.6050 C   0  0  0  0  0  0  0  0  0  0  0  0
    0.8960   -1.1950    0.3490 C   0  0  0  0  0  0  0  0  0  0  0  0
    0.2680    0.1340    0.5220 C   0  0  0  0  0  0  0  0  0  0  0  0
    0.9570    1.1380    0.8350 O   0  0  0  0  0  0  0  0  0  0  0  0
   -1.1710    0.3180    0.3340 C   0  0  0  0  0  0  0  0  0  0  0  0
   -1.7350    1.5010    0.4880 C   0  0  0  0  0  0  0  0  0  0  0  0
   -3.1560    1.7250    0.3110 C   0  0  0  0  0  0  0  0  0  0  0  0
   -3.5930    2.9140    0.4870 O   0  0  0  0  0  0  0  0  0  0  0  0
   -4.0640    0.6310   -0.0550 C   0  0  0  0  0  0  0  0  0  0  0  0
   -3.3450   -0.6360   -0.2010 C   0  0  0  0  0  0  0  0  0  0  0  0
   -4.3130   -2.0950   -0.6520 S   0  0  0  0  0  0  0  0  0  0  0  0
   -2.0540   -0.7840   -0.0300 C   0  0  0  0  0  0  0  0  0  0  0  0
  1  2  1  0
  2  3  2  0
  2  4  1  0
  4  5  1  0
  5  6  1  0
  6  7  1  0
  7  8  2  0
  7  9  1  0
  9 10  2  0
  9 16  1  0
 10 11  1  0
 11 12  2  0
 11 13  1  0
 13 14  1  0
 14 15  1  0
 14 16  2  0
M  END
