
     RDKit          3D

 16 17  0  0  0  0  0  0  0  0999 V2000
    3.5360   -0.6250    0.8940 N   0  0  0  0  0  0  0  0  0  0  0  0
    3.5420    0.7760    0.8220 C   0  0  0  0  0  0  0  0  0  0  0  0
    4.5600    1.4000    1.2570 O   0  0  0  0  0  0  0  0  0  0  0  0
    2.3920    1.5230    0.2510 C   0  0  0  0  0  0  0  0  0  0  0  0
    1.3900    0.5780   -0.1580 N   0  0  0  0  0  0  0  0  0  0  0  0
    0.7510   -0.3360    0.7190 C   0  0  0  0  0  0  0  0  0  0  0  0
    1.0870   -0.3100    1.9250 O   0  0  0  0  0  0  0  0  0  0  0  0
   -0.2750   -1.3030    0.2930 C   0  0  2  0  0  0  0  0  0  0  0  0
    0.2390   -2.2580   -0.7590 C   0  0  0  0  0  0  0  0  0  0  0  0
   -1.4300   -3.0110   -1.0950 S   0  0  0  0  0  0  0  0  0  0  0  0
   -2.2780   -1.4440   -0.8860 C   0  0  0  0  0  0  0  0  0  0  0  0
   -1.5230   -0.6870   -0.1390 C   0  0  0  0  0  0  0  0  0  0  0  0
   -2.2200    0.6650    0.0420 C   0  0  0  0  0  0  0  0  0  0  0  0
   -3.6490    0.3470   -0.2280 C   0  0  0  0  0  0  0  0  0  0  0  0
   -3.5180   -0.7430   -1.2620 C   0  0  0  0  0  0  0  0  0  0  0  0
   -4.2550   -1.0200   -2.2180 O   0  0  0  0  0  0  0  0  0  0  0  0
  1  2  1  0
  2  3  2  0
  2  4  1  0
  4  5  1  0
  5  6  1  0
  6  7  2  0
  8  6  1  6
  8  9  1  0
  8 12  1  0
  9 10  1  0
 10 11  1  0
 11 12  2  0
 11 15  1  0
 12 13  1  0
 13 14  1  0
 14 15  1  0
 15 16  2  0
M  END
