
     RDKit          3D

 16 17  0  0  0  0  0  0  0  0999 V2000
   -1.3990   -2.1110   -0.5000 O   0  0  0  0  0  0  0  0  0  0  0  0
   -1.1780   -0.9370   -0.1830 C   0  0  0  0  0  0  0  0  0  0  0  0
   -2.2640   -0.0480   -0.0140 N   0  0  0  0  0  0  0  0  0  0  0  0
   -3.6270   -0.5720   -0.2060 C   0  0  0  0  0  0  0  0  0  0  0  0
   -4.5580    0.5910   -0.0250 C   0  0  0  0  0  0  0  0  0  0  0  0
   -4.4910    1.2050    1.1980 O   0  0  0  0  0  0  0  0  0  0  0  0
    0.2170   -0.5170    0.0010 C   0  0  0  0  0  0  0  0  0  0  0  0
    1.2410   -1.0210   -0.7750 C   0  0  0  0  0  0  0  0  0  0  0  0
    2.5670   -0.5650   -0.6450 C   0  0  0  0  0  0  0  0  0  0  0  0
    2.8150    0.3750    0.2570 C   0  0  0  0  0  0  0  0  0  0  0  0
    1.7870    0.8650    1.0250 N   0  0  0  0  0  0  0  0  0  0  0  0
    0.5260    0.4520    0.9210 C   0  0  0  0  0  0  0  0  0  0  0  0
   -0.3600    0.9400    1.6520 O   0  0  0  0  0  0  0  0  0  0  0  0
    4.2090    0.8550    0.3970 C   0  0  0  0  0  0  0  0  0  0  0  0
    5.0150    0.1060   -1.0330 S   0  0  0  0  0  0  0  0  0  0  0  0
    3.6950   -1.0520   -1.4690 C   0  0  0  0  0  0  0  0  0  0  0  0
  1  2  2  0
  2  3  1  0
  2  7  1  0
  3  4  1  0
  4  5  1  0
  5  6  1  0
  7  8  2  0
  7 12  1  0
  8  9  1  0
  9 10  2  0
  9 16  1  0
 10 11  1  0
 10 14  1  0
 11 12  1  0
 12 13  2  0
 14 15  1  0
 15 16  1  0
M  END
