
     RDKit          3D

 16 16  0  0  0  0  0  0  0  0999 V2000
   -2.4110   -1.1230   -1.1960 C   0  0  0  0  0  0  0  0  0  0  0  0
   -1.2860   -0.1150   -1.0690 C   0  0  1  0  0  0  0  0  0  0  0  0
   -1.9590    1.2630   -1.3830 C   0  0  0  0  0  0  0  0  0  0  0  0
   -0.8100   -0.1000    0.3140 C   0  0  0  0  0  0  0  0  0  0  0  0
   -1.6890   -0.5490    1.2540 N   0  0  0  0  0  0  0  0  0  0  0  0
   -1.4420   -0.5120    2.5750 C   0  0  0  0  0  0  0  0  0  0  0  0
   -2.2510   -0.9250    3.4480 O   0  0  0  0  0  0  0  0  0  0  0  0
   -0.2680   -0.0070    2.9830 N   0  0  0  0  0  0  0  0  0  0  0  0
    0.6400    0.4500    2.1040 C   0  0  0  0  0  0  0  0  0  0  0  0
    1.7570    0.9300    2.5020 O   0  0  0  0  0  0  0  0  0  0  0  0
    0.3680    0.4010    0.7540 C   0  0  0  0  0  0  0  0  0  0  0  0
    1.4040    0.8100   -0.2280 C   0  0  0  0  0  0  0  0  0  0  0  0
    2.2840   -0.2950   -0.6550 C   0  0  0  0  0  0  0  0  0  0  0  0
    1.6930   -1.8130   -1.3380 S   0  0  0  0  0  0  0  0  0  0  0  0
    3.5940   -0.1570   -0.5020 C   0  0  0  0  0  0  0  0  0  0  0  0
    4.2050    0.9640    0.0370 O   0  0  0  0  0  0  0  0  0  0  0  0
  2  1  1  1
  2  3  1  0
  2  4  1  0
  4  5  1  0
  4 11  2  0
  5  6  1  0
  6  7  2  0
  6  8  1  0
  8  9  1  0
  9 10  2  0
  9 11  1  0
 11 12  1  0
 12 13  1  0
 13 14  1  0
 13 15  2  3
 15 16  1  0
M  END
