
     RDKit          3D

 16 16  0  0  0  0  0  0  0  0999 V2000
    5.2210   -1.0550   -0.5270 C   0  0  0  0  0  0  0  0  0  0  0  0
    4.7400   -0.2320    0.6470 C   0  0  0  0  0  0  0  0  0  0  0  0
    4.0170    0.9100    0.2560 O   0  0  0  0  0  0  0  0  0  0  0  0
    2.8550    0.8620   -0.4830 C   0  0  0  0  0  0  0  0  0  0  0  0
    2.4030   -0.2550   -0.8360 O   0  0  0  0  0  0  0  0  0  0  0  0
    2.1670    2.1240   -0.8440 C   0  0  0  0  0  0  0  0  0  0  0  0
    0.6690    1.8120   -1.8040 S   0  0  0  0  0  0  0  0  0  0  0  0
   -0.5310    0.9500   -0.7560 C   0  0  0  0  0  0  0  0  0  0  0  0
   -1.6980    0.5840   -1.1010 N   0  0  0  0  0  0  0  0  0  0  0  0
   -2.4010   -0.0750   -0.0450 C   0  0  0  0  0  0  0  0  0  0  0  0
   -3.7010   -0.3080   -0.0590 C   0  0  0  0  0  0  0  0  0  0  0  0
   -4.5540    0.1190   -1.2250 C   0  0  0  0  0  0  0  0  0  0  0  0
   -4.4200   -0.9900    1.0320 C   0  0  0  0  0  0  0  0  0  0  0  0
   -3.6430   -1.3800    2.0910 O   0  0  0  0  0  0  0  0  0  0  0  0
   -1.3760   -0.3820    0.9570 C   0  0  0  0  0  0  0  0  0  0  0  0
   -0.3230    0.5720    0.5970 N   0  0  0  0  0  0  0  0  0  0  0  0
  1  2  1  0
  2  3  1  0
  3  4  1  0
  4  5  2  0
  4  6  1  0
  6  7  1  0
  7  8  1  0
  8  9  2  0
  8 16  1  0
  9 10  1  0
 10 11  2  3
 10 15  1  0
 11 12  1  0
 11 13  1  0
 13 14  1  0
 15 16  1  0
M  END
