
     RDKit          3D

 18 19  0  0  0  0  0  0  0  0999 V2000
    4.9000    0.6790   -0.0080 O   0  0  0  0  0  0  0  0  0  0  0  0
    4.1240    0.6760    0.9750 C   0  0  0  0  0  0  0  0  0  0  0  0
    4.6590    1.0050    2.2120 O   0  0  0  0  0  0  0  0  0  0  0  0
    2.7920    0.3530    0.8160 O   0  0  0  0  0  0  0  0  0  0  0  0
    2.2930    0.0240   -0.4640 C   0  0  1  0  0  0  0  0  0  0  0  0
    1.8560   -1.3990   -0.4270 C   0  0  0  0  0  0  0  0  0  0  0  0
    0.8880   -1.6330    0.6080 N   0  0  0  0  0  0  0  0  0  0  0  0
   -0.3080   -0.8950    0.7830 C   0  0  0  0  0  0  0  0  0  0  0  0
   -0.8830   -1.1200    1.8880 O   0  0  0  0  0  0  0  0  0  0  0  0
   -0.9590    0.0560   -0.0850 C   0  0  1  0  0  0  0  0  0  0  0  0
   -1.8940   -0.6220   -1.0940 C   0  0  0  0  0  0  0  0  0  0  0  0
   -3.1550    0.2260   -1.0870 C   0  0  0  0  0  0  0  0  0  0  0  0
   -3.2880    0.5350    0.3980 C   0  0  1  0  0  0  0  0  0  0  0  0
   -3.7050   -0.5860    1.1100 O   0  0  0  0  0  0  0  0  0  0  0  0
   -1.8710    0.9360    0.7460 C   0  0  0  0  0  0  0  0  0  0  0  0
   -0.0970    0.9180   -0.8400 N   0  0  0  0  0  0  0  0  0  0  0  0
    1.2960    0.9980   -0.8560 C   0  0  0  0  0  0  0  0  0  0  0  0
    1.7620    2.0850   -1.2760 O   0  0  0  0  0  0  0  0  0  0  0  0
  1  2  2  0
  2  3  1  0
  2  4  1  0
  5  4  1  1
  5  6  1  0
  5 17  1  0
  6  7  1  0
  7  8  1  0
  8  9  2  0
  8 10  1  0
 10 11  1  6
 10 15  1  0
 10 16  1  0
 11 12  1  0
 12 13  1  0
 13 14  1  1
 13 15  1  0
 16 17  1  0
 17 18  2  0
M  END
