
     RDKit          3D

 18 18  0  0  0  0  0  0  0  0999 V2000
   -2.9130    2.0200   -1.0050 C   0  0  0  0  0  0  0  0  0  0  0  0
   -2.5860    1.1440   -0.0690 C   0  0  0  0  0  0  0  0  0  0  0  0
   -1.4580    1.3990    0.8440 C   0  0  2  0  0  0  0  0  0  0  0  0
   -0.6030    2.3920    0.3650 O   0  0  0  0  0  0  0  0  0  0  0  0
   -0.7600    0.0750    1.0510 C   0  0  2  0  0  0  0  0  0  0  0  0
    0.6270    0.4300    1.1330 O   0  0  0  0  0  0  0  0  0  0  0  0
    1.5450   -0.5260    1.2940 C   0  0  0  0  0  0  0  0  0  0  0  0
    1.2390   -1.3430    2.3100 N   0  0  0  0  0  0  0  0  0  0  0  0
    2.7310   -1.0790    0.8530 N   0  0  0  0  0  0  0  0  0  0  0  0
    3.5390   -0.4590   -0.0940 C   0  0  0  0  0  0  0  0  0  0  0  0
    3.1130    0.6230   -0.4900 O   0  0  0  0  0  0  0  0  0  0  0  0
    4.6930   -1.0480   -0.5050 O   0  0  0  0  0  0  0  0  0  0  0  0
    5.5150   -0.4260   -1.4510 C   0  0  0  0  0  0  0  0  0  0  0  0
   -0.9610   -0.8770   -0.0710 C   0  0  2  0  0  0  0  0  0  0  0  0
   -0.3530   -0.4260   -1.2560 O   0  0  0  0  0  0  0  0  0  0  0  0
   -2.4090   -1.2400   -0.3050 C   0  0  0  0  0  0  0  0  0  0  0  0
   -3.3430   -0.1190    0.0890 C   0  0  1  0  0  0  0  0  0  0  0  0
   -3.8110   -0.2890    1.3950 O   0  0  0  0  0  0  0  0  0  0  0  0
  1  2  2  0
  2  3  1  0
  2 17  1  0
  3  4  1  6
  3  5  1  0
  5  6  1  6
  5 14  1  0
  6  7  1  0
  7  8  2  0
  7  9  1  0
  9 10  1  0
 10 11  2  0
 10 12  1  0
 12 13  1  0
 14 15  1  6
 14 16  1  0
 16 17  1  0
 17 18  1  1
M  END
