
     RDKit          3D

 18 18  0  0  0  0  0  0  0  0999 V2000
   -3.3400   -1.5340    0.1410 C   0  0  0  0  0  0  0  0  0  0  0  0
   -2.4010   -0.5000   -0.4960 C   0  0  1  0  0  0  0  0  0  0  0  0
   -2.5160   -0.6610   -1.8770 O   0  0  0  0  0  0  0  0  0  0  0  0
   -2.8460    0.8080   -0.0350 C   0  0  0  0  0  0  0  0  0  0  0  0
   -3.3320    1.7550   -0.9680 N   0  0  0  0  0  0  0  0  0  0  0  0
   -2.8160    1.1290    1.1720 O   0  0  0  0  0  0  0  0  0  0  0  0
   -1.0470   -0.8660   -0.0870 C   0  0  0  0  0  0  0  0  0  0  0  0
   -0.2270   -1.2460   -0.9580 O   0  0  0  0  0  0  0  0  0  0  0  0
   -0.5810   -0.8260    1.2190 O   0  0  0  0  0  0  0  0  0  0  0  0
    0.7460   -1.1980    1.5220 C   0  0  0  0  0  0  0  0  0  0  0  0
    1.7460   -0.3470    0.8150 C   0  0  0  0  0  0  0  0  0  0  0  0
    2.5930   -0.9280   -0.0090 C   0  0  0  0  0  0  0  0  0  0  0  0
    3.6250   -0.1630   -0.7590 C   0  0  2  0  0  0  0  0  0  0  0  0
    4.8820   -0.7240   -0.4850 O   0  0  0  0  0  0  0  0  0  0  0  0
    3.5930    1.2090   -0.4940 O   0  0  0  0  0  0  0  0  0  0  0  0
    2.6910    1.7860    0.3750 C   0  0  0  0  0  0  0  0  0  0  0  0
    1.7830    1.0750    1.0270 C   0  0  0  0  0  0  0  0  0  0  0  0
    0.8930    1.7410    1.9020 N   0  0  0  0  0  0  0  0  0  0  0  0
  2  1  1  1
  2  3  1  0
  2  4  1  0
  2  7  1  0
  4  5  1  0
  4  6  2  0
  7  8  2  0
  7  9  1  0
  9 10  1  0
 10 11  1  0
 11 12  2  0
 11 17  1  0
 12 13  1  0
 13 14  1  1
 13 15  1  0
 15 16  1  0
 16 17  2  0
 17 18  1  0
M  END
