
     RDKit          3D

 17 17  0  0  0  0  0  0  0  0999 V2000
    3.8350    1.5900   -0.3510 C   0  0  0  0  0  0  0  0  0  0  0  0
    2.9920    0.5170   -0.0370 O   0  0  0  0  0  0  0  0  0  0  0  0
    1.8310    0.5370   -0.8070 C   0  0  2  0  0  0  0  0  0  0  0  0
    0.6270    0.6530    0.0330 C   0  0  0  0  0  0  0  0  0  0  0  0
   -0.0360   -0.6350    0.4140 C   0  0  1  0  0  0  0  0  0  0  0  0
    0.3800   -1.0280    1.8420 C   0  0  0  0  0  0  0  0  0  0  0  0
   -1.5330   -0.3450    0.5080 C   0  0  1  0  0  0  0  0  0  0  0  0
   -2.2210   -1.5090    0.8610 O   0  0  0  0  0  0  0  0  0  0  0  0
   -1.6810    0.6480    1.6700 C   0  0  0  0  0  0  0  0  0  0  0  0
   -3.0520    0.9110    1.8590 O   0  0  0  0  0  0  0  0  0  0  0  0
   -2.0800    0.2590   -0.7180 C   0  0  0  0  0  0  0  0  0  0  0  0
   -2.0250   -0.4090   -1.9590 N   0  0  0  0  0  0  0  0  0  0  0  0
   -2.6200    1.4170   -0.6720 N   0  0  0  0  0  0  0  0  0  0  0  0
   -3.1560    2.0720   -1.7330 O   0  0  0  0  0  0  0  0  0  0  0  0
    0.2890   -1.7990   -0.4540 C   0  0  0  0  0  0  0  0  0  0  0  0
    1.7750   -1.7040   -0.8200 C   0  0  0  0  0  0  0  0  0  0  0  0
    1.8660   -0.5710   -1.6400 O   0  0  0  0  0  0  0  0  0  0  0  0
  1  2  1  0
  3  2  1  1
  3  4  1  0
  3 17  1  0
  4  5  1  0
  5  6  1  1
  5  7  1  0
  5 15  1  0
  7  8  1  1
  7  9  1  0
  7 11  1  0
  9 10  1  0
 11 12  1  0
 11 13  2  3
 13 14  1  0
 15 16  1  0
 16 17  1  0
M  END
