
     RDKit          3D

 17 18  0  0  0  0  0  0  0  0999 V2000
    2.1250   -2.1260    0.8110 O   0  0  0  0  0  0  0  0  0  0  0  0
    1.7650   -1.0200    0.3350 C   0  0  0  0  0  0  0  0  0  0  0  0
    2.7090   -0.1350   -0.1850 O   0  0  0  0  0  0  0  0  0  0  0  0
    4.0580   -0.5550   -0.1410 C   0  0  0  0  0  0  0  0  0  0  0  0
    4.9950    0.4700   -0.7250 C   0  0  0  0  0  0  0  0  0  0  0  0
    4.7330    0.7600   -2.0410 O   0  0  0  0  0  0  0  0  0  0  0  0
    0.3390   -0.6680    0.3320 C   0  0  0  0  0  0  0  0  0  0  0  0
   -0.2200    0.4930   -0.1470 C   0  0  0  0  0  0  0  0  0  0  0  0
   -1.5760    0.4230    0.0390 C   0  0  0  0  0  0  0  0  0  0  0  0
   -1.8360   -0.7880    0.6340 C   0  0  0  0  0  0  0  0  0  0  0  0
   -0.6480   -1.4320    0.8000 N   0  0  0  0  0  0  0  0  0  0  0  0
   -3.0570   -1.1580    0.9440 C   0  0  0  0  0  0  0  0  0  0  0  0
   -4.2350   -0.3300    0.6910 C   0  0  1  0  0  0  0  0  0  0  0  0
   -4.9090   -0.1260    1.9080 O   0  0  0  0  0  0  0  0  0  0  0  0
   -3.8880    0.9090    0.0730 N   0  0  0  0  0  0  0  0  0  0  0  0
   -2.5680    1.2820   -0.2500 C   0  0  0  0  0  0  0  0  0  0  0  0
   -2.2240    2.4850   -0.8500 O   0  0  0  0  0  0  0  0  0  0  0  0
  1  2  2  0
  2  3  1  0
  2  7  1  0
  3  4  1  0
  4  5  1  0
  5  6  1  0
  7  8  2  0
  7 11  1  0
  8  9  1  0
  9 10  1  0
  9 16  2  0
 10 11  1  0
 10 12  2  0
 12 13  1  0
 13 14  1  1
 13 15  1  0
 15 16  1  0
 16 17  1  0
M  END
