
     RDKit          3D

 18 18  0  0  0  0  0  0  0  0999 V2000
    2.7930   -2.0740   -0.1210 C   0  0  0  0  0  0  0  0  0  0  0  0
    2.5340   -0.5850    0.0890 C   0  0  2  0  0  0  0  0  0  0  0  0
    1.6610   -0.1630   -0.8810 O   0  0  0  0  0  0  0  0  0  0  0  0
    0.4510    0.2780   -0.3480 C   0  0  1  0  0  0  0  0  0  0  0  0
    0.2140    1.7480   -0.6610 C   0  0  0  0  0  0  0  0  0  0  0  0
    1.2320    2.5110   -0.1220 O   0  0  0  0  0  0  0  0  0  0  0  0
   -0.6200   -0.4790   -0.8600 O   0  0  0  0  0  0  0  0  0  0  0  0
   -1.9060   -0.1610   -0.4240 C   0  0  0  0  0  0  0  0  0  0  0  0
   -2.7050    0.4690   -1.2570 C   0  0  0  0  0  0  0  0  0  0  0  0
   -4.0720    0.8370   -0.8700 C   0  0  1  0  0  0  0  0  0  0  0  0
   -4.9260    0.1340   -1.7500 O   0  0  0  0  0  0  0  0  0  0  0  0
   -4.3870    0.4570    0.4130 O   0  0  0  0  0  0  0  0  0  0  0  0
   -3.5620   -0.1910    1.2680 C   0  0  0  0  0  0  0  0  0  0  0  0
   -2.3220   -0.5290    0.9270 C   0  0  0  0  0  0  0  0  0  0  0  0
   -1.4340   -1.2040    1.7910 N   0  0  0  0  0  0  0  0  0  0  0  0
    3.7720    0.1940    0.0370 C   0  0  0  0  0  0  0  0  0  0  0  0
    4.8040   -0.0910    0.9620 N   0  0  0  0  0  0  0  0  0  0  0  0
    3.9020    1.1020   -0.8250 O   0  0  0  0  0  0  0  0  0  0  0  0
  2  1  1  6
  2  3  1  0
  2 16  1  0
  3  4  1  0
  4  5  1  6
  4  7  1  0
  5  6  1  0
  7  8  1  0
  8  9  2  0
  8 14  1  0
  9 10  1  0
 10 11  1  6
 10 12  1  0
 12 13  1  0
 13 14  2  0
 14 15  1  0
 16 17  1  0
 16 18  2  0
M  END
