
     RDKit          3D

 17 18  0  0  0  0  0  0  0  0999 V2000
    4.9850   -0.7810   -1.0020 N   0  0  0  0  0  0  0  0  0  0  0  0
    3.7820   -0.4290   -0.3470 C   0  0  0  0  0  0  0  0  0  0  0  0
    3.0520   -1.3630    0.3900 C   0  0  0  0  0  0  0  0  0  0  0  0
    1.8780   -1.0380    1.0320 C   0  0  0  0  0  0  0  0  0  0  0  0
    1.4080    0.2550    0.9440 C   0  0  0  0  0  0  0  0  0  0  0  0
   -0.0600    0.7820    1.7110 S   0  0  1  0  0  0  0  0  0  0  0  0
   -0.2030    0.1030    3.0430 O   0  0  0  0  0  0  0  0  0  0  0  0
    0.1060    2.2630    2.0220 O   0  0  0  0  0  0  0  0  0  0  0  0
   -1.4430    0.5380    0.7340 N   0  0  0  0  0  0  0  0  0  0  0  0
   -2.6710    0.0740    1.3520 C   0  0  0  0  0  0  0  0  0  0  0  0
   -3.7960   -0.1160    0.3770 C   0  0  0  0  0  0  0  0  0  0  0  0
   -3.2730   -0.8290   -0.8390 C   0  0  0  0  0  0  0  0  0  0  0  0
   -2.4200    0.2020   -1.5920 C   0  0  0  0  0  0  0  0  0  0  0  0
   -1.4020    0.7810   -0.6640 C   0  0  0  0  0  0  0  0  0  0  0  0
   -0.5100    1.4920   -1.1780 O   0  0  0  0  0  0  0  0  0  0  0  0
    2.1320    1.1730    0.2150 C   0  0  0  0  0  0  0  0  0  0  0  0
    3.3090    0.8770   -0.4380 C   0  0  0  0  0  0  0  0  0  0  0  0
  1  2  1  0
  2  3  2  0
  2 17  1  0
  3  4  1  0
  4  5  2  0
  5  6  1  0
  5 16  1  0
  6  7  2  0
  6  8  2  0
  6  9  1  6
  9 10  1  0
  9 14  1  0
 10 11  1  0
 11 12  1  0
 12 13  1  0
 13 14  1  0
 14 15  2  0
 16 17  2  0
M  END
