
     RDKit          3D

 30 33  0  0  0  0  0  0  0  0999 V2000
   -1.9920    1.7060    2.4000 C   0  0  0  0  0  0  0  0  0  0  0  0
   -2.5470    1.7400    0.9800 C   0  0  1  0  0  0  0  0  0  0  0  0
   -1.6440    2.4230    0.1770 O   0  0  0  0  0  0  0  0  0  0  0  0
   -0.3840    2.0470   -0.2830 C   0  0  0  0  0  0  0  0  0  0  0  0
    0.5720    1.3520    0.4510 C   0  0  0  0  0  0  0  0  0  0  0  0
    1.7050    1.0490   -0.2530 C   0  0  0  0  0  0  0  0  0  0  0  0
    1.8960    1.4400   -1.5920 C   0  0  0  0  0  0  0  0  0  0  0  0
    0.9660    2.1220   -2.2670 N   0  0  0  0  0  0  0  0  0  0  0  0
   -0.1670    2.4150   -1.6030 C   0  0  0  0  0  0  0  0  0  0  0  0
   -1.1300    3.1600   -2.3890 N   0  0  0  0  0  0  0  0  0  0  0  0
    2.7080   -0.0120    0.0970 C   0  0  0  0  0  0  0  0  0  0  0  0
    2.2940   -1.2430    0.6610 C   0  0  0  0  0  0  0  0  0  0  0  0
    3.3710   -1.9850    0.8210 N   0  0  0  0  0  0  0  0  0  0  0  0
    4.4480   -1.3310    0.4030 N   0  0  0  0  0  0  0  0  0  0  0  0
    5.7680   -1.9280    0.4720 C   0  0  0  0  0  0  0  0  0  0  0  0
    4.0560   -0.1470   -0.0330 C   0  0  0  0  0  0  0  0  0  0  0  0
    4.9710    0.8460   -0.5870 C   0  0  0  0  0  0  0  0  0  0  0  0
    5.6750    1.6330   -1.0080 N   0  0  0  0  0  0  0  0  0  0  0  0
    0.8430   -1.4880    0.9420 C   0  0  0  0  0  0  0  0  0  0  0  0
    0.0300   -1.4190   -0.2390 N   0  0  0  0  0  0  0  0  0  0  0  0
    0.8760   -2.1100   -1.3280 C   0  0  0  0  0  0  0  0  0  0  0  0
   -1.2390   -0.9950   -0.6090 C   0  0  0  0  0  0  0  0  0  0  0  0
   -1.3100   -0.8440   -1.9550 O   0  0  0  0  0  0  0  0  0  0  0  0
   -2.5660   -0.6490   -0.0840 C   0  0  0  0  0  0  0  0  0  0  0  0
   -3.5180   -1.7240   -0.3250 C   0  0  0  0  0  0  0  0  0  0  0  0
   -4.8090   -1.7590    0.0440 C   0  0  0  0  0  0  0  0  0  0  0  0
   -5.3020   -0.6740    0.7200 C   0  0  0  0  0  0  0  0  0  0  0  0
   -6.5940   -0.7070    1.0970 F   0  0  0  0  0  0  0  0  0  0  0  0
   -4.4540    0.3550    0.9650 C   0  0  0  0  0  0  0  0  0  0  0  0
   -3.0710    0.4140    0.5770 C   0  0  0  0  0  0  0  0  0  0  0  0
  2  1  1  1
  2  3  1  0
  2 30  1  0
  3  4  1  0
  4  5  1  0
  4  9  2  0
  5  6  2  0
  6  7  1  0
  6 11  1  0
  7  8  2  0
  8  9  1  0
  9 10  1  0
 11 12  1  0
 11 16  2  0
 12 13  2  0
 12 19  1  0
 13 14  1  0
 14 15  1  0
 14 16  1  0
 16 17  1  0
 17 18  3  0
 19 20  1  0
 20 21  1  0
 20 22  1  0
 22 23  2  0
 22 24  1  0
 24 25  2  0
 24 30  1  0
 25 26  1  0
 26 27  2  0
 27 28  1  0
 27 29  1  0
 29 30  2  0
M  END
