
     RDKit          3D

 29 31  0  0  0  0  0  0  0  0999 V2000
    3.7340    2.5900   -0.4560 C   0  0  0  0  0  0  0  0  0  0  0  0
    2.6610    3.3400   -0.4380 C   0  0  0  0  0  0  0  0  0  0  0  0
    1.3230    2.9030   -0.2940 C   0  0  0  0  0  0  0  0  0  0  0  0
    0.3850    3.8850   -0.3090 C   0  0  0  0  0  0  0  0  0  0  0  0
    0.7210    5.3080   -0.4620 C   0  0  0  0  0  0  0  0  0  0  0  0
    0.8560    1.5200   -0.1340 C   0  0  0  0  0  0  0  0  0  0  0  0
   -0.4800    1.3530   -0.0130 N   0  0  0  0  0  0  0  0  0  0  0  0
   -1.1130    0.1830    0.1410 C   0  0  0  0  0  0  0  0  0  0  0  0
   -2.5850    0.1850    0.2680 C   0  0  0  0  0  0  0  0  0  0  0  0
   -3.1060    0.9510    1.2050 C   0  0  0  0  0  0  0  0  0  0  0  0
   -4.5500    1.0420    1.4350 C   0  0  0  0  0  0  0  0  0  0  0  0
   -5.3360    0.4890    0.4090 O   0  0  0  0  0  0  0  0  0  0  0  0
   -4.7730   -0.2970   -0.5650 C   0  0  0  0  0  0  0  0  0  0  0  0
   -5.7030   -0.9680   -1.5270 C   0  0  0  0  0  0  0  0  0  0  0  0
   -3.4750   -0.4720   -0.6720 C   0  0  0  0  0  0  0  0  0  0  0  0
   -2.9670   -1.2010   -1.7360 F   0  0  0  0  0  0  0  0  0  0  0  0
   -0.3780   -0.9620    0.1950 C   0  0  0  0  0  0  0  0  0  0  0  0
   -0.9760   -2.1820    0.4230 C   0  0  0  0  0  0  0  0  0  0  0  0
   -2.2100   -2.3620    0.5650 O   0  0  0  0  0  0  0  0  0  0  0  0
   -0.1780   -3.2790    0.5160 N   0  0  0  0  0  0  0  0  0  0  0  0
    1.1450   -3.1730    0.3920 C   0  0  0  0  0  0  0  0  0  0  0  0
    1.9760   -4.3320    0.4870 N   0  0  0  0  0  0  0  0  0  0  0  0
    1.7850   -1.9550    0.1670 C   0  0  0  0  0  0  0  0  0  0  0  0
    3.2230   -1.9190    0.0420 C   0  0  0  0  0  0  0  0  0  0  0  0
    3.9160   -0.9350   -0.1560 O   0  0  0  0  0  0  0  0  0  0  0  0
    3.9220   -3.1420    0.1560 O   0  0  0  0  0  0  0  0  0  0  0  0
    5.3180   -3.2020    0.0470 C   0  0  0  0  0  0  0  0  0  0  0  0
    1.0170   -0.8170    0.0690 C   0  0  0  0  0  0  0  0  0  0  0  0
    1.5870    0.4190   -0.0920 N   0  0  0  0  0  0  0  0  0  0  0  0
  1  2  2  0
  2  3  1  0
  3  4  2  3
  3  6  1  0
  4  5  1  0
  6  7  2  0
  6 29  1  0
  7  8  1  0
  8  9  1  0
  8 17  2  0
  9 10  2  0
  9 15  1  0
 10 11  1  0
 11 12  1  0
 12 13  1  0
 13 14  1  0
 13 15  2  0
 15 16  1  0
 17 18  1  0
 17 28  1  0
 18 19  2  0
 18 20  1  0
 20 21  1  0
 21 22  1  0
 21 23  2  0
 23 24  1  0
 23 28  1  0
 24 25  2  0
 24 26  1  0
 26 27  1  0
 28 29  2  0
M  END
