
     RDKit          3D

 31 34  0  0  0  0  0  0  0  0999 V2000
   -4.7000   -1.4920    1.1460 C   0  0  0  0  0  0  0  0  0  0  0  0
   -3.5790   -2.3840    0.8540 C   0  0  0  0  0  0  0  0  0  0  0  0
   -2.4440   -2.2120    0.2810 C   0  0  0  0  0  0  0  0  0  0  0  0
   -1.5160   -3.3960    0.1520 C   0  0  0  0  0  0  0  0  0  0  0  0
   -2.0250   -4.6030    0.7000 N   0  0  0  0  0  0  0  0  0  0  0  0
   -1.9380   -0.9790   -0.2650 C   0  0  0  0  0  0  0  0  0  0  0  0
   -2.5300    0.2380   -0.2790 C   0  0  0  0  0  0  0  0  0  0  0  0
   -1.9350    1.3700   -0.8460 C   0  0  0  0  0  0  0  0  0  0  0  0
   -2.5860    2.6740   -0.8530 C   0  0  0  0  0  0  0  0  0  0  0  0
   -3.8080    2.9220   -0.3230 C   0  0  0  0  0  0  0  0  0  0  0  0
   -4.3170    4.2160   -0.3960 C   0  0  0  0  0  0  0  0  0  0  0  0
   -3.6160    5.2220   -0.9840 C   0  0  0  0  0  0  0  0  0  0  0  0
   -2.3780    4.9850   -1.5240 C   0  0  0  0  0  0  0  0  0  0  0  0
   -1.8730    3.7090   -1.4540 C   0  0  0  0  0  0  0  0  0  0  0  0
   -0.7200    1.1850   -1.3890 N   0  0  0  0  0  0  0  0  0  0  0  0
   -0.0990    0.0170   -1.4010 C   0  0  0  0  0  0  0  0  0  0  0  0
    1.2520   -0.1980   -2.0010 C   0  0  0  0  0  0  0  0  0  0  0  0
    2.3120    0.0040   -1.0680 N   0  0  0  0  0  0  0  0  0  0  0  0
    2.8420    1.2320   -0.9440 C   0  0  0  0  0  0  0  0  0  0  0  0
    2.4120    2.1960   -1.6400 O   0  0  0  0  0  0  0  0  0  0  0  0
    3.8480    1.4190   -0.0580 N   0  0  0  0  0  0  0  0  0  0  0  0
    4.3050    0.3960    0.6810 C   0  0  0  0  0  0  0  0  0  0  0  0
    3.7810   -0.8700    0.5730 C   0  0  0  0  0  0  0  0  0  0  0  0
    2.7530   -1.0420   -0.3380 C   0  0  0  0  0  0  0  0  0  0  0  0
    2.2590   -2.1960   -0.4510 O   0  0  0  0  0  0  0  0  0  0  0  0
    4.3350   -1.9500    1.4200 C   0  0  1  0  0  0  0  0  0  0  0  0
    3.7010   -3.5400    0.8810 Cl  0  0  0  0  0  0  0  0  0  0  0  0
    6.1530   -1.9070    1.1860 S   0  0  0  0  0  0  0  0  0  0  0  0
    6.6140   -0.1380    1.1170 C   0  0  0  0  0  0  0  0  0  0  0  0
    5.4170    0.6420    1.6490 C   0  0  0  0  0  0  0  0  0  0  0  0
   -0.7000   -1.0350   -0.8500 N   0  0  0  0  0  0  0  0  0  0  0  0
  1  2  1  0
  2  3  2  3
  3  4  1  0
  3  6  1  0
  4  5  1  0
  6  7  2  0
  6 31  1  0
  7  8  1  0
  8  9  1  0
  8 15  2  0
  9 10  2  0
  9 14  1  0
 10 11  1  0
 11 12  2  0
 12 13  1  0
 13 14  2  0
 15 16  1  0
 16 17  1  0
 16 31  2  0
 17 18  1  0
 18 19  1  0
 18 24  1  0
 19 20  2  0
 19 21  1  0
 21 22  1  0
 22 23  2  0
 22 30  1  0
 23 24  1  0
 23 26  1  0
 24 25  2  0
 26 27  1  6
 26 28  1  0
 28 29  1  0
 29 30  1  0
M  CHG  1   5   1
M  END
