
     RDKit          3D

 29 31  0  0  0  0  0  0  0  0999 V2000
    9.1040   -0.2740    1.4630 C   0  0  0  0  0  0  0  0  0  0  0  0
    7.7130   -0.4770    1.7480 N   0  0  0  0  0  0  0  0  0  0  0  0
    6.7910   -0.3670    0.6410 C   0  0  0  0  0  0  0  0  0  0  0  0
    7.2600   -0.1040   -0.4950 O   0  0  0  0  0  0  0  0  0  0  0  0
    5.4130   -0.5470    0.8310 N   0  0  0  0  0  0  0  0  0  0  0  0
    4.4250   -0.4640   -0.1990 C   0  0  0  0  0  0  0  0  0  0  0  0
    4.6690   -0.4360   -1.5400 C   0  0  0  0  0  0  0  0  0  0  0  0
    3.6490   -0.3280   -2.4880 C   0  0  0  0  0  0  0  0  0  0  0  0
    2.3330   -0.2450   -2.0940 C   0  0  0  0  0  0  0  0  0  0  0  0
    1.1370   -0.1280   -2.7810 C   0  0  0  0  0  0  0  0  0  0  0  0
    0.1670   -0.0880   -1.8230 C   0  0  0  0  0  0  0  0  0  0  0  0
    0.7210   -0.1750   -0.5870 N   0  0  0  0  0  0  0  0  0  0  0  0
    0.0290   -0.1660    0.6580 C   0  0  0  0  0  0  0  0  0  0  0  0
    0.6650   -0.2640    1.7170 O   0  0  0  0  0  0  0  0  0  0  0  0
   -1.4300   -0.0370    0.6300 C   0  0  0  0  0  0  0  0  0  0  0  0
   -2.0530    1.1840    0.5420 C   0  0  0  0  0  0  0  0  0  0  0  0
   -3.4530    1.2860    0.5050 C   0  0  0  0  0  0  0  0  0  0  0  0
   -4.2660    0.1890    0.5530 C   0  0  0  0  0  0  0  0  0  0  0  0
   -5.7140    0.1750    0.4650 C   0  0  0  0  0  0  0  0  0  0  0  0
   -6.5180    1.1280    0.1650 C   0  0  0  0  0  0  0  0  0  0  0  0
   -6.4470    2.5270   -0.2010 C   0  0  0  0  0  0  0  0  0  0  0  0
   -7.0770    3.3510    0.7460 F   0  0  0  0  0  0  0  0  0  0  0  0
   -6.3030   -1.1060    0.7640 O   0  0  0  0  0  0  0  0  0  0  0  0
   -7.7030   -1.2250    0.8410 C   0  0  0  0  0  0  0  0  0  0  0  0
   -3.5920   -1.0140    0.6420 N   0  0  0  0  0  0  0  0  0  0  0  0
   -2.2690   -1.1270    0.6790 C   0  0  0  0  0  0  0  0  0  0  0  0
   -1.7220   -2.2570    0.7620 O   0  0  0  0  0  0  0  0  0  0  0  0
    2.0770   -0.2730   -0.7440 C   0  0  0  0  0  0  0  0  0  0  0  0
    3.0740   -0.3790    0.1960 C   0  0  0  0  0  0  0  0  0  0  0  0
  1  2  1  0
  2  3  1  0
  3  4  2  0
  3  5  1  0
  5  6  1  0
  6  7  2  0
  6 29  1  0
  7  8  1  0
  8  9  2  0
  9 10  1  0
  9 28  1  0
 10 11  2  0
 11 12  1  0
 12 13  1  0
 12 28  1  0
 13 14  2  0
 13 15  1  0
 15 16  2  0
 15 26  1  0
 16 17  1  0
 17 18  2  0
 18 19  1  0
 18 25  1  0
 19 20  2  3
 19 23  1  0
 20 21  1  0
 21 22  1  0
 23 24  1  0
 25 26  1  0
 26 27  2  0
 28 29  2  0
M  END
