
     RDKit          3D

 29 31  0  0  0  0  0  0  0  0999 V2000
    5.8890   -0.4630    1.1970 C   0  0  0  0  0  0  0  0  0  0  0  0
    5.1530   -0.7170   -0.0930 C   0  0  0  0  0  0  0  0  0  0  0  0
    4.6660    0.5950   -0.7130 C   0  0  0  0  0  0  0  0  0  0  0  0
    3.3970    0.7450   -0.8920 C   0  0  0  0  0  0  0  0  0  0  0  0
    2.7600    1.8990   -1.4540 C   0  0  0  0  0  0  0  0  0  0  0  0
    1.4850    2.0680   -1.6580 C   0  0  0  0  0  0  0  0  0  0  0  0
    0.4650    1.1040   -1.3460 C   0  0  0  0  0  0  0  0  0  0  0  0
    0.6130   -0.0420   -0.7130 N   0  0  0  0  0  0  0  0  0  0  0  0
   -0.3370   -0.9520   -0.4580 C   0  0  0  0  0  0  0  0  0  0  0  0
   -0.0320   -2.1870    0.2530 C   0  0  0  0  0  0  0  0  0  0  0  0
    1.3240   -2.2080    0.5710 O   0  0  0  0  0  0  0  0  0  0  0  0
   -1.6330   -0.6900   -0.8970 C   0  0  0  0  0  0  0  0  0  0  0  0
   -2.7150   -1.5890   -0.7850 C   0  0  0  0  0  0  0  0  0  0  0  0
   -3.8220   -1.6540   -0.1260 C   0  0  0  0  0  0  0  0  0  0  0  0
   -4.7970   -2.7700   -0.2400 C   0  0  0  0  0  0  0  0  0  0  0  0
   -4.7310   -3.7730   -1.0330 O   0  0  0  0  0  0  0  0  0  0  0  0
   -5.8150   -2.5200    0.6970 N   0  0  0  0  0  0  0  0  0  0  0  0
   -5.5340   -1.3210    1.3840 C   0  0  0  0  0  0  0  0  0  0  0  0
   -5.9910   -0.5200    2.3300 O   0  0  0  0  0  0  0  0  0  0  0  0
   -5.2000    0.4570    2.4880 N   0  0  0  0  0  0  0  0  0  0  0  0
   -4.1490    0.3780    1.6490 C   0  0  0  0  0  0  0  0  0  0  0  0
   -3.0790    1.3730    1.5700 C   0  0  0  0  0  0  0  0  0  0  0  0
   -3.3090    2.5120    0.6150 C   0  0  0  0  0  0  0  0  0  0  0  0
   -4.3430   -0.7760    0.9110 C   0  0  0  0  0  0  0  0  0  0  0  0
   -1.7920    0.5040   -1.5580 C   0  0  0  0  0  0  0  0  0  0  0  0
   -2.9450    0.7910   -1.9850 O   0  0  0  0  0  0  0  0  0  0  0  0
   -0.8080    1.3700   -1.7810 N   0  0  0  0  0  0  0  0  0  0  0  0
    5.7290    1.5340   -1.0610 C   0  0  0  0  0  0  0  0  0  0  0  0
    5.4120    2.6920   -1.6400 F   0  0  0  0  0  0  0  0  0  0  0  0
  1  2  1  0
  2  3  1  0
  3  4  2  3
  3 28  1  0
  4  5  1  0
  5  6  2  3
  6  7  1  0
  7  8  2  0
  7 27  1  0
  8  9  1  0
  9 10  1  0
  9 12  2  0
 10 11  1  0
 12 13  1  0
 12 25  1  0
 13 14  2  3
 14 15  1  0
 14 24  1  0
 15 16  2  0
 15 17  1  0
 17 18  1  0
 18 19  1  0
 18 24  2  0
 19 20  1  0
 20 21  2  0
 21 22  1  0
 21 24  1  0
 22 23  1  0
 25 26  2  0
 25 27  1  0
 28 29  1  0
M  END
