
     RDKit          3D

 29 31  0  0  0  0  0  0  0  0999 V2000
    6.8630    1.9340   -1.7000 C   0  0  0  0  0  0  0  0  0  0  0  0
    7.4740    0.9960   -0.6790 C   0  0  0  0  0  0  0  0  0  0  0  0
    6.8110    1.1920    0.5930 N   0  0  0  0  0  0  0  0  0  0  0  0
    5.4520    0.7970    0.7170 C   0  0  0  0  0  0  0  0  0  0  0  0
    5.0530    0.0080    1.6960 C   0  0  0  0  0  0  0  0  0  0  0  0
    5.8150   -0.5950    2.7800 C   0  0  0  0  0  0  0  0  0  0  0  0
    7.0540   -0.4380    2.9510 O   0  0  0  0  0  0  0  0  0  0  0  0
    4.9170   -1.3380    3.5360 O   0  0  0  0  0  0  0  0  0  0  0  0
    3.6270   -1.2520    3.0080 C   0  0  0  0  0  0  0  0  0  0  0  0
    2.4350   -1.8090    3.4100 C   0  0  0  0  0  0  0  0  0  0  0  0
    1.2800   -1.5360    2.6630 C   0  0  0  0  0  0  0  0  0  0  0  0
    1.2710   -0.7410    1.5500 C   0  0  0  0  0  0  0  0  0  0  0  0
    0.1690   -0.4070    0.7420 N   0  0  0  0  0  0  0  0  0  0  0  0
   -1.1820   -0.7760    0.9350 C   0  0  0  0  0  0  0  0  0  0  0  0
   -1.4840   -1.4770    1.9190 O   0  0  0  0  0  0  0  0  0  0  0  0
   -2.2320   -0.3340   -0.0250 C   0  0  0  0  0  0  0  0  0  0  0  0
   -1.9480    0.3650   -1.0160 O   0  0  0  0  0  0  0  0  0  0  0  0
   -3.5760   -0.7220    0.2060 N   0  0  0  0  0  0  0  0  0  0  0  0
   -4.6520   -0.3730   -0.6210 C   0  0  0  0  0  0  0  0  0  0  0  0
   -5.9260   -0.7900   -0.3210 C   0  0  0  0  0  0  0  0  0  0  0  0
   -7.0290   -0.4820   -1.0930 C   0  0  0  0  0  0  0  0  0  0  0  0
   -8.3470   -0.9810   -0.6770 C   0  0  0  0  0  0  0  0  0  0  0  0
   -6.8100    0.2840   -2.2130 C   0  0  0  0  0  0  0  0  0  0  0  0
   -5.5320    0.7090   -2.5240 C   0  0  0  0  0  0  0  0  0  0  0  0
   -5.3420    1.5280   -3.7310 C   0  0  0  0  0  0  0  0  0  0  0  0
   -5.4580    2.8820   -3.4490 F   0  0  0  0  0  0  0  0  0  0  0  0
   -4.5090    0.3760   -1.7360 N   0  0  0  0  0  0  0  0  0  0  0  0
    2.5060   -0.2090    1.1950 C   0  0  0  0  0  0  0  0  0  0  0  0
    3.6720   -0.4440    1.8920 C   0  0  0  0  0  0  0  0  0  0  0  0
  1  2  1  0
  2  3  1  0
  3  4  1  0
  4  5  2  3
  5  6  1  0
  5 29  1  0
  6  7  2  0
  6  8  1  0
  8  9  1  0
  9 10  2  0
  9 29  1  0
 10 11  1  0
 11 12  2  0
 12 13  1  0
 12 28  1  0
 13 14  1  0
 14 15  2  0
 14 16  1  0
 16 17  2  0
 16 18  1  0
 18 19  1  0
 19 20  2  0
 19 27  1  0
 20 21  1  0
 21 22  1  0
 21 23  2  0
 23 24  1  0
 24 25  1  0
 24 27  2  0
 25 26  1  0
 28 29  2  0
M  END
