
     RDKit          3D

 28 30  0  0  0  0  0  0  0  0999 V2000
   -8.3120   -0.6180   -0.0720 C   0  0  0  0  0  0  0  0  0  0  0  0
   -7.8140   -1.7960    0.4830 O   0  0  0  0  0  0  0  0  0  0  0  0
   -7.0490   -1.5490    1.6190 C   0  0  0  0  0  0  0  0  0  0  0  0
   -5.8820   -0.6740    1.3270 C   0  0  0  0  0  0  0  0  0  0  0  0
   -4.6670   -1.0540    0.7970 C   0  0  0  0  0  0  0  0  0  0  0  0
   -3.8620    0.0890    0.6900 C   0  0  0  0  0  0  0  0  0  0  0  0
   -2.5140    0.0520    0.1510 C   0  0  0  0  0  0  0  0  0  0  0  0
   -1.9550   -1.0760   -0.1070 O   0  0  0  0  0  0  0  0  0  0  0  0
   -1.7130    1.1700   -0.1360 N   0  0  0  0  0  0  0  0  0  0  0  0
   -0.4000    1.0400   -0.6620 N   0  0  0  0  0  0  0  0  0  0  0  0
    0.6880    0.6390    0.1260 C   0  0  0  0  0  0  0  0  0  0  0  0
    0.5050    0.3870    1.3370 O   0  0  0  0  0  0  0  0  0  0  0  0
    2.0200    0.5150   -0.4600 C   0  0  0  0  0  0  0  0  0  0  0  0
    3.1740    0.1080    0.2070 C   0  0  0  0  0  0  0  0  0  0  0  0
    4.2220    0.1160   -0.6910 C   0  0  0  0  0  0  0  0  0  0  0  0
    5.5860   -0.2580   -0.3760 C   0  0  0  0  0  0  0  0  0  0  0  0
    5.9690   -0.6200    0.8860 C   0  0  0  0  0  0  0  0  0  0  0  0
    7.2490   -0.9900    1.2190 C   0  0  0  0  0  0  0  0  0  0  0  0
    8.1800   -0.9830    0.1810 C   0  0  0  0  0  0  0  0  0  0  0  0
    9.4650   -1.3450    0.4730 F   0  0  0  0  0  0  0  0  0  0  0  0
    7.8260   -0.6210   -1.1080 C   0  0  0  0  0  0  0  0  0  0  0  0
    6.5230   -0.2580   -1.3820 C   0  0  0  0  0  0  0  0  0  0  0  0
    6.1310    0.1290   -2.7690 C   0  0  0  0  0  0  0  0  0  0  0  0
    3.6950    0.5170   -1.8530 N   0  0  0  0  0  0  0  0  0  0  0  0
    2.3990    0.7560   -1.7310 N   0  0  0  0  0  0  0  0  0  0  0  0
   -4.6480    1.0960    1.1680 C   0  0  0  0  0  0  0  0  0  0  0  0
   -4.2650    2.5110    1.2730 C   0  0  0  0  0  0  0  0  0  0  0  0
   -5.8290    0.6190    1.5340 O   0  0  0  0  0  0  0  0  0  0  0  0
  1  2  1  0
  2  3  1  0
  3  4  1  0
  4  5  2  0
  4 28  1  0
  5  6  1  0
  6  7  1  0
  6 26  2  0
  7  8  2  0
  7  9  1  0
  9 10  1  0
 10 11  1  0
 11 12  2  0
 11 13  1  0
 13 14  2  0
 13 25  1  0
 14 15  1  0
 15 16  1  0
 15 24  2  0
 16 17  2  0
 16 22  1  0
 17 18  1  0
 18 19  2  0
 19 20  1  0
 19 21  1  0
 21 22  2  0
 22 23  1  0
 24 25  1  0
 26 27  1  0
 26 28  1  0
M  END
