
     RDKit          3D

 31 34  0  0  0  0  0  0  0  0999 V2000
   -5.4910   -0.6150    1.5190 C   0  0  0  0  0  0  0  0  0  0  0  0
   -6.1520    0.7080    1.2210 C   0  0  0  0  0  0  0  0  0  0  0  0
   -5.2270    1.6440    0.6060 N   0  0  0  0  0  0  0  0  0  0  0  0
   -4.1130    1.0080    0.0420 C   0  0  0  0  0  0  0  0  0  0  0  0
   -2.9440    0.6410    0.7340 C   0  0  0  0  0  0  0  0  0  0  0  0
   -2.1390    0.0560   -0.2040 C   0  0  0  0  0  0  0  0  0  0  0  0
   -0.8610   -0.5190   -0.0240 N   0  0  0  0  0  0  0  0  0  0  0  0
   -0.1550   -0.7870    1.1360 C   0  0  0  0  0  0  0  0  0  0  0  0
   -0.7840   -1.0270    2.3380 C   0  0  0  0  0  0  0  0  0  0  0  0
   -0.0820   -1.4010    3.4920 C   0  0  0  0  0  0  0  0  0  0  0  0
    1.2750   -1.5300    3.4080 C   0  0  0  0  0  0  0  0  0  0  0  0
    1.9460   -1.2940    2.2050 C   0  0  0  0  0  0  0  0  0  0  0  0
    1.2390   -0.9280    1.0880 C   0  0  0  0  0  0  0  0  0  0  0  0
    1.8780   -0.6210   -0.1280 N   0  0  0  0  0  0  0  0  0  0  0  0
    3.2390   -0.8220   -0.4600 C   0  0  0  0  0  0  0  0  0  0  0  0
    4.0210   -1.3260    0.3610 O   0  0  0  0  0  0  0  0  0  0  0  0
    3.7980   -0.4470   -1.7910 C   0  0  1  0  0  0  0  0  0  0  0  0
    3.4830    0.9790   -2.1650 C   0  0  0  0  0  0  0  0  0  0  0  0
    4.4900    2.0870   -1.1410 S   0  0  0  0  0  0  0  0  0  0  0  0
    5.8930    1.1360   -0.5770 C   0  0  0  0  0  0  0  0  0  0  0  0
    6.7840    1.7220    0.2680 C   0  0  0  0  0  0  0  0  0  0  0  0
    7.9000    1.0580    0.7540 C   0  0  0  0  0  0  0  0  0  0  0  0
    8.0830   -0.2460    0.3460 C   0  0  0  0  0  0  0  0  0  0  0  0
    9.4810   -1.1460    0.9270 Cl  0  0  0  0  0  0  0  0  0  0  0  0
    7.1740   -0.8490   -0.5180 C   0  0  0  0  0  0  0  0  0  0  0  0
    6.0860   -0.1620   -0.9770 C   0  0  0  0  0  0  0  0  0  0  0  0
    5.1540   -0.7540   -1.8510 O   0  0  0  0  0  0  0  0  0  0  0  0
   -2.8190    0.0910   -1.3800 N   0  0  0  0  0  0  0  0  0  0  0  0
   -3.9900    0.6540   -1.2370 N   0  0  0  0  0  0  0  0  0  0  0  0
   -4.9800    0.8630   -2.2630 C   0  0  0  0  0  0  0  0  0  0  0  0
   -5.9470   -0.2570   -2.4150 C   0  0  0  0  0  0  0  0  0  0  0  0
  1  2  1  0
  2  3  1  0
  3  4  1  0
  4  5  2  0
  4 29  1  0
  5  6  1  0
  6  7  1  0
  6 28  2  0
  7  8  1  0
  8  9  2  0
  8 13  1  0
  9 10  1  0
 10 11  2  0
 11 12  1  0
 12 13  2  0
 13 14  1  0
 14 15  1  0
 15 16  2  0
 17 15  1  1
 17 18  1  0
 17 27  1  0
 18 19  1  0
 19 20  1  0
 20 21  2  0
 20 26  1  0
 21 22  1  0
 22 23  2  0
 23 24  1  0
 23 25  1  0
 25 26  2  0
 26 27  1  0
 28 29  1  0
 29 30  1  0
 30 31  1  0
M  CHG  1   3   1
M  END
