
     RDKit          3D

 31 34  0  0  0  0  0  0  0  0999 V2000
   -3.3560    2.4610   -1.3850 C   0  0  0  0  0  0  0  0  0  0  0  0
   -4.1770    1.3580   -0.7680 C   0  0  0  0  0  0  0  0  0  0  0  0
   -3.7910    0.7230    0.3050 C   0  0  0  0  0  0  0  0  0  0  0  0
   -2.5090    1.0830    0.9510 C   0  0  0  0  0  0  0  0  0  0  0  0
   -1.7840    1.9770    0.4980 O   0  0  0  0  0  0  0  0  0  0  0  0
   -2.0280    0.1890    2.4110 S   0  0  0  0  0  0  0  0  0  0  0  0
   -0.4370    0.8370    2.9800 C   0  0  0  0  0  0  0  0  0  0  0  0
    0.5840    0.4970    1.9530 C   0  0  0  0  0  0  0  0  0  0  0  0
    0.2860   -0.1310    0.9220 O   0  0  0  0  0  0  0  0  0  0  0  0
    1.9040    0.9110    2.1880 N   0  0  0  0  0  0  0  0  0  0  0  0
    2.9370    0.6290    1.2650 C   0  0  0  0  0  0  0  0  0  0  0  0
    2.9210   -0.0290    0.0750 C   0  0  0  0  0  0  0  0  0  0  0  0
    4.2170   -0.0360   -0.4530 C   0  0  0  0  0  0  0  0  0  0  0  0
    4.9670    0.6410    0.4780 C   0  0  0  0  0  0  0  0  0  0  0  0
    4.1940    1.0110    1.4590 O   0  0  0  0  0  0  0  0  0  0  0  0
    6.4010    0.6910   -0.0030 C   0  0  0  0  0  0  0  0  0  0  0  0
    6.4430   -0.4780   -0.9400 C   0  0  2  0  0  0  0  0  0  0  0  0
    6.6220   -1.7400   -0.1540 C   0  0  0  0  0  0  0  0  0  0  0  0
    7.5600   -0.2460   -1.9300 C   0  0  0  0  0  0  0  0  0  0  0  0
    5.0900   -0.4640   -1.5780 C   0  0  0  0  0  0  0  0  0  0  0  0
   -4.5680   -0.3500    0.9250 C   0  0  2  0  0  0  0  0  0  0  0  0
   -3.7260   -1.4870    0.9770 O   0  0  0  0  0  0  0  0  0  0  0  0
   -5.8190   -0.6610    0.2470 C   0  0  0  0  0  0  0  0  0  0  0  0
   -6.6090   -1.6820    0.7940 C   0  0  0  0  0  0  0  0  0  0  0  0
   -7.8020   -2.0170    0.1940 C   0  0  0  0  0  0  0  0  0  0  0  0
   -8.8800   -3.4080    0.9380 Br  0  0  0  0  0  0  0  0  0  0  0  0
   -8.1900   -1.3310   -0.9420 C   0  0  0  0  0  0  0  0  0  0  0  0
   -7.4030   -0.3240   -1.4740 C   0  0  0  0  0  0  0  0  0  0  0  0
   -7.9320    0.5190   -2.9130 Cl  0  0  0  0  0  0  0  0  0  0  0  0
   -6.2030    0.0170   -0.8750 C   0  0  0  0  0  0  0  0  0  0  0  0
   -5.3830    1.0160   -1.3720 O   0  0  0  0  0  0  0  0  0  0  0  0
  1  2  1  0
  2  3  2  0
  2 31  1  0
  3  4  1  0
  3 21  1  0
  4  5  2  0
  4  6  1  0
  6  7  1  0
  7  8  1  0
  8  9  2  0
  8 10  1  0
 10 11  1  0
 11 12  2  0
 11 15  1  0
 12 13  1  0
 13 14  2  0
 13 20  1  0
 14 15  1  0
 14 16  1  0
 16 17  1  0
 17 18  1  1
 17 19  1  0
 17 20  1  0
 21 22  1  6
 21 23  1  0
 23 24  2  0
 23 30  1  0
 24 25  1  0
 25 26  1  0
 25 27  2  0
 27 28  1  0
 28 29  1  0
 28 30  2  0
 30 31  1  0
M  END
