
     RDKit          3D

 29 32  0  0  0  0  0  0  0  0999 V2000
    7.9820    2.1600    0.6760 N   0  0  0  0  0  0  0  0  0  0  0  0
    6.7950    1.7000    0.6060 C   0  0  0  0  0  0  0  0  0  0  0  0
    6.4690    0.4330    0.0340 N   0  0  0  0  0  0  0  0  0  0  0  0
    5.0640    0.2240    0.1140 C   0  0  0  0  0  0  0  0  0  0  0  0
    4.4030   -1.0170   -0.3990 C   0  0  0  0  0  0  0  0  0  0  0  0
    2.9110   -0.8750   -0.1240 C   0  0  0  0  0  0  0  0  0  0  0  0
    2.2460   -2.0300   -0.5960 O   0  0  0  0  0  0  0  0  0  0  0  0
    0.8690   -2.1000   -0.4370 C   0  0  0  0  0  0  0  0  0  0  0  0
    0.1380   -1.1250    0.1420 N   0  0  0  0  0  0  0  0  0  0  0  0
   -1.1980   -1.2200    0.2840 C   0  0  0  0  0  0  0  0  0  0  0  0
   -2.1940    0.0510    1.0450 S   0  0  0  0  0  0  0  0  0  0  0  0
   -2.7760    1.2680   -0.1770 C   0  0  1  0  0  0  0  0  0  0  0  0
   -3.7240    0.5630   -1.1010 C   0  0  0  0  0  0  0  0  0  0  0  0
   -5.1350    0.4960   -0.5560 C   0  0  0  0  0  0  0  0  0  0  0  0
   -5.5810    1.9440   -0.4500 C   0  0  0  0  0  0  0  0  0  0  0  0
   -4.7750    2.5730    0.6500 C   0  0  1  0  0  0  0  0  0  0  0  0
   -5.2150    1.9720    1.9030 N   0  0  0  0  0  0  0  0  0  0  0  0
   -3.3000    2.4870    0.4680 C   0  0  0  0  0  0  0  0  0  0  0  0
   -1.8290   -2.3190   -0.1640 N   0  0  0  0  0  0  0  0  0  0  0  0
   -1.1830   -3.3540   -0.7610 C   0  0  0  0  0  0  0  0  0  0  0  0
   -1.8440   -4.4380   -1.1990 N   0  0  0  0  0  0  0  0  0  0  0  0
   -1.2030   -5.4570   -1.7880 C   0  0  0  0  0  0  0  0  0  0  0  0
    0.1630   -5.3690   -1.9370 C   0  0  0  0  0  0  0  0  0  0  0  0
    0.8510   -4.2640   -1.4930 C   0  0  0  0  0  0  0  0  0  0  0  0
    0.1820   -3.2140   -0.8850 C   0  0  0  0  0  0  0  0  0  0  0  0
    4.5220    1.2720    0.6920 C   0  0  0  0  0  0  0  0  0  0  0  0
    5.5410    2.2740    1.0460 C   0  0  0  0  0  0  0  0  0  0  0  0
    5.3060    3.4310    1.6370 C   0  0  0  0  0  0  0  0  0  0  0  0
    6.5950    4.5340    2.0050 Cl  0  0  0  0  0  0  0  0  0  0  0  0
  1  2  2  0
  2  3  1  0
  2 27  1  0
  3  4  1  0
  4  5  1  0
  4 26  2  0
  5  6  1  0
  6  7  1  0
  7  8  1  0
  8  9  2  0
  8 25  1  0
  9 10  1  0
 10 11  1  0
 10 19  2  0
 12 11  1  1
 12 13  1  0
 12 18  1  0
 13 14  1  0
 14 15  1  0
 15 16  1  0
 16 17  1  1
 16 18  1  0
 19 20  1  0
 20 21  2  0
 20 25  1  0
 21 22  1  0
 22 23  2  0
 23 24  1  0
 24 25  2  0
 26 27  1  0
 27 28  2  3
 28 29  1  0
M  CHG  1  17   1
M  END
