
     RDKit          3D

 29 32  0  0  0  0  0  0  0  0999 V2000
    6.0920   -2.4250   -0.4530 C   0  0  0  0  0  0  0  0  0  0  0  0
    5.1270   -1.2790   -0.5380 C   0  0  0  0  0  0  0  0  0  0  0  0
    4.2850   -1.0010    0.5130 C   0  0  0  0  0  0  0  0  0  0  0  0
    3.4020    0.0450    0.4340 C   0  0  0  0  0  0  0  0  0  0  0  0
    3.3080    0.8770   -0.7040 C   0  0  0  0  0  0  0  0  0  0  0  0
    2.2680    1.9070   -0.7490 C   0  0  2  0  0  0  0  0  0  0  0  0
    2.6730    3.1240   -0.1160 N   0  0  0  0  0  0  0  0  0  0  0  0
    1.0240    1.4120   -0.0170 C   0  0  0  0  0  0  0  0  0  0  0  0
    0.6130    2.1030    0.9300 O   0  0  0  0  0  0  0  0  0  0  0  0
    0.3590    0.2220   -0.3890 N   0  0  0  0  0  0  0  0  0  0  0  0
   -0.8270   -0.2750    0.2870 C   0  0  0  0  0  0  0  0  0  0  0  0
   -1.9070    0.7480    0.1740 C   0  0  0  0  0  0  0  0  0  0  0  0
   -1.7460    2.0060   -0.3260 N   0  0  0  0  0  0  0  0  0  0  0  0
   -2.9060    2.6290   -0.2780 N   0  0  0  0  0  0  0  0  0  0  0  0
   -3.8170    1.7790    0.2500 C   0  0  0  0  0  0  0  0  0  0  0  0
   -3.2000    0.6190    0.5290 N   0  0  0  0  0  0  0  0  0  0  0  0
   -4.1860   -0.2980    1.0980 C   0  0  0  0  0  0  0  0  0  0  0  0
   -5.3300    0.2380    1.1720 C   0  0  0  0  0  0  0  0  0  0  0  0
   -6.4650   -0.5380    1.7240 C   0  0  0  0  0  0  0  0  0  0  0  0
   -5.5350   -1.8250    2.6290 S   0  0  0  0  0  0  0  0  0  0  0  0
   -4.0550   -1.7200    1.5830 C   0  0  2  0  0  0  0  0  0  0  0  0
   -2.8080   -1.9320    2.3830 C   0  0  0  0  0  0  0  0  0  0  0  0
   -4.1540   -2.6920    0.4290 C   0  0  0  0  0  0  0  0  0  0  0  0
   -5.2140    1.6490    0.6300 C   0  0  0  0  0  0  0  0  0  0  0  0
    4.1470    0.6000   -1.7410 C   0  0  0  0  0  0  0  0  0  0  0  0
    4.2460    1.4340   -2.9220 C   0  0  0  0  0  0  0  0  0  0  0  0
    4.9920    1.0800   -3.8970 N   0  0  0  0  0  0  0  0  0  0  0  0
    3.4600    2.9860   -3.1020 Cl  0  0  0  0  0  0  0  0  0  0  0  0
    5.0550   -0.4840   -1.6510 C   0  0  0  0  0  0  0  0  0  0  0  0
  1  2  1  0
  2  3  2  0
  2 29  1  0
  3  4  1  0
  4  5  2  0
  5  6  1  0
  5 25  1  0
  6  7  1  1
  6  8  1  0
  8  9  2  0
  8 10  1  0
 10 11  1  0
 11 12  1  0
 12 13  2  0
 12 16  1  0
 13 14  1  0
 14 15  2  0
 15 16  1  0
 15 24  1  0
 16 17  1  0
 17 18  2  0
 17 21  1  0
 18 19  1  0
 18 24  1  0
 19 20  1  0
 20 21  1  0
 21 22  1  1
 21 23  1  0
 25 26  1  0
 25 29  2  0
 26 27  2  0
 26 28  1  0
M  CHG  1   7   1
M  END
