
     RDKit          3D

 29 32  0  0  0  0  0  0  0  0999 V2000
    5.7380   -0.0960   -2.1400 C   0  0  0  0  0  0  0  0  0  0  0  0
    4.9690   -0.6260   -1.3280 O   0  0  0  0  0  0  0  0  0  0  0  0
    4.3580   -1.4810   -0.3230 C   0  0  0  0  0  0  0  0  0  0  0  0
    5.2210   -2.4560    0.0570 C   0  0  0  0  0  0  0  0  0  0  0  0
    4.7490   -3.3230    0.9880 C   0  0  0  0  0  0  0  0  0  0  0  0
    3.4590   -3.0460    1.3770 C   0  0  0  0  0  0  0  0  0  0  0  0
    2.7490   -2.0960    0.9470 C   0  0  0  0  0  0  0  0  0  0  0  0
    3.2200   -0.9190   -0.2340 C   0  0  0  0  0  0  0  0  0  0  0  0
    1.9890   -0.3130   -0.1380 C   0  0  0  0  0  0  0  0  0  0  0  0
    2.1750    0.9990   -0.6820 O   0  0  0  0  0  0  0  0  0  0  0  0
    0.6960   -0.3860    0.2390 N   0  0  0  0  0  0  0  0  0  0  0  0
   -0.2410    0.6830    0.1710 C   0  0  0  0  0  0  0  0  0  0  0  0
    0.1130    2.0040    0.2080 C   0  0  0  0  0  0  0  0  0  0  0  0
   -0.8600    3.0190    0.2400 C   0  0  0  0  0  0  0  0  0  0  0  0
   -2.2220    2.6340    0.2330 C   0  0  0  0  0  0  0  0  0  0  0  0
   -2.5660    1.3030    0.2010 C   0  0  0  0  0  0  0  0  0  0  0  0
   -1.5490    0.3320    0.1700 C   0  0  0  0  0  0  0  0  0  0  0  0
   -1.9310   -1.0250    0.1200 N   0  0  0  0  0  0  0  0  0  0  0  0
   -2.0240   -1.6830   -1.1860 C   0  0  0  0  0  0  0  0  0  0  0  0
   -3.2870   -2.5270   -1.1390 C   0  0  0  0  0  0  0  0  0  0  0  0
   -3.0250   -3.6980   -0.2220 C   0  0  0  0  0  0  0  0  0  0  0  0
   -1.9960   -3.3030    0.8240 C   0  0  0  0  0  0  0  0  0  0  0  0
   -2.2130   -1.8450    1.2610 C   0  0  0  0  0  0  0  0  0  0  0  0
   -2.8960    3.7770    0.2720 N   0  0  0  0  0  0  0  0  0  0  0  0
   -4.3530    3.8310    0.2820 C   0  0  0  0  0  0  0  0  0  0  0  0
   -2.0810    4.8420    0.2980 C   0  0  0  0  0  0  0  0  0  0  0  0
   -2.4290    6.0480    0.3280 O   0  0  0  0  0  0  0  0  0  0  0  0
   -0.8490    4.3410    0.2760 N   0  0  0  0  0  0  0  0  0  0  0  0
    0.4090    5.1030    0.2750 C   0  0  0  0  0  0  0  0  0  0  0  0
  1  2  1  0
  2  3  1  0
  3  4  2  0
  3  8  1  0
  4  5  1  0
  5  6  2  0
  6  7  1  0
  7  8  2  0
  8  9  1  0
  9 10  2  0
  9 11  1  0
 11 12  1  0
 12 13  2  0
 12 17  1  0
 13 14  1  0
 14 15  2  0
 14 28  1  0
 15 16  1  0
 15 24  1  0
 16 17  2  0
 17 18  1  0
 18 19  1  0
 18 23  1  0
 19 20  1  0
 20 21  1  0
 21 22  1  0
 22 23  1  0
 24 25  1  0
 24 26  1  0
 26 27  2  0
 26 28  1  0
 28 29  1  0
M  END
