
     RDKit          3D

 29 32  0  0  0  0  0  0  0  0999 V2000
   -6.6100    0.9630    1.9970 C   0  0  0  0  0  0  0  0  0  0  0  0
   -5.8850    2.0350    1.1940 C   0  0  0  0  0  0  0  0  0  0  0  0
   -4.5000    1.5020    0.8670 C   0  0  0  0  0  0  0  0  0  0  0  0
   -4.6250    0.2760    0.0860 N   0  0  0  0  0  0  0  0  0  0  0  0
   -3.5070   -0.4450   -0.3620 C   0  0  0  0  0  0  0  0  0  0  0  0
   -2.2430    0.0460   -0.0400 C   0  0  0  0  0  0  0  0  0  0  0  0
   -1.1400   -0.6480   -0.4710 C   0  0  0  0  0  0  0  0  0  0  0  0
   -1.2700   -1.7970   -1.2030 C   0  0  0  0  0  0  0  0  0  0  0  0
   -2.5490   -2.2870   -1.5250 C   0  0  0  0  0  0  0  0  0  0  0  0
   -3.6660   -1.6000   -1.0980 C   0  0  0  0  0  0  0  0  0  0  0  0
   -5.0430   -2.0680   -1.4080 C   0  0  0  0  0  0  0  0  0  0  0  0
   -0.1660   -2.5430   -1.6590 N   0  0  0  0  0  0  0  0  0  0  0  0
    1.1220   -2.0980   -1.3930 C   0  0  0  0  0  0  0  0  0  0  0  0
    1.2650   -0.8700   -0.6090 C   0  0  0  0  0  0  0  0  0  0  0  0
    2.6690   -0.4180   -0.3170 C   0  0  0  0  0  0  0  0  0  0  0  0
    3.5410   -1.1760   -0.7990 O   0  0  0  0  0  0  0  0  0  0  0  0
    2.9810    0.7210    0.4110 N   0  0  0  0  0  0  0  0  0  0  0  0
    4.2720    1.1400    0.6810 N   0  0  0  0  0  0  0  0  0  0  0  0
    4.5920    2.2680    1.4020 C   0  0  0  0  0  0  0  0  0  0  0  0
    3.4490    3.2660    2.0370 S   0  0  0  0  0  0  0  0  0  0  0  0
    5.9090    2.4060    1.4930 N   0  0  0  0  0  0  0  0  0  0  0  0
    6.4780    1.3830    0.8420 C   0  0  0  0  0  0  0  0  0  0  0  0
    7.8060    1.0550    0.6360 C   0  0  0  0  0  0  0  0  0  0  0  0
    8.1030   -0.0610   -0.0760 C   0  0  0  0  0  0  0  0  0  0  0  0
    9.7610   -0.5120   -0.3610 Cl  0  0  0  0  0  0  0  0  0  0  0  0
    7.0750   -0.8450   -0.5790 C   0  0  0  0  0  0  0  0  0  0  0  0
    5.8170   -0.4870   -0.3540 N   0  0  0  0  0  0  0  0  0  0  0  0
    5.4330    0.5960    0.3370 C   0  0  0  0  0  0  0  0  0  0  0  0
    0.2210   -0.2030   -0.1860 C   0  0  0  0  0  0  0  0  0  0  0  0
  1  2  1  0
  2  3  1  0
  3  4  1  0
  4  5  1  0
  5  6  2  0
  5 10  1  0
  6  7  1  0
  7  8  2  0
  7 29  1  0
  8  9  1  0
  8 12  1  0
  9 10  2  0
 10 11  1  0
 12 13  1  0
 13 14  1  0
 14 15  1  0
 14 29  2  0
 15 16  2  0
 15 17  1  0
 17 18  1  0
 18 19  1  0
 18 28  1  0
 19 20  2  0
 19 21  1  0
 21 22  1  0
 22 23  2  0
 22 28  1  0
 23 24  1  0
 24 25  1  0
 24 26  2  0
 26 27  1  0
 27 28  2  0
M  CHG  1  12   1
M  END
