
     RDKit          3D

 31 34  0  0  0  0  0  0  0  0999 V2000
   -3.5510   -3.1340    0.5230 C   0  0  0  0  0  0  0  0  0  0  0  0
   -4.4690   -2.8930   -0.6330 C   0  0  2  0  0  0  0  0  0  0  0  0
   -4.9600   -4.1380   -1.0980 O   0  0  0  0  0  0  0  0  0  0  0  0
   -3.8690   -2.1470   -1.7800 C   0  0  0  0  0  0  0  0  0  0  0  0
   -3.2770   -0.5120   -1.4330 S   0  0  0  0  0  0  0  0  0  0  0  0
   -1.8290   -0.4900   -0.3830 C   0  0  0  0  0  0  0  0  0  0  0  0
   -1.3790    0.9140   -0.1720 C   0  0  0  0  0  0  0  0  0  0  0  0
   -2.0810    1.9390   -0.7490 C   0  0  0  0  0  0  0  0  0  0  0  0
   -1.6590    3.2510   -0.5390 C   0  0  0  0  0  0  0  0  0  0  0  0
   -0.5680    3.5370    0.2270 C   0  0  0  0  0  0  0  0  0  0  0  0
    0.1350    2.4870    0.8080 C   0  0  0  0  0  0  0  0  0  0  0  0
    1.4890    2.9070    1.8250 Cl  0  0  0  0  0  0  0  0  0  0  0  0
   -0.2650    1.1600    0.6120 C   0  0  0  0  0  0  0  0  0  0  0  0
    0.4320    0.0780    1.2430 C   0  0  0  0  0  0  0  0  0  0  0  0
    1.6310   -0.2940    0.8560 C   0  0  0  0  0  0  0  0  0  0  0  0
    2.3550    0.3350   -0.2360 C   0  0  0  0  0  0  0  0  0  0  0  0
    1.8480    1.2670   -0.9110 O   0  0  0  0  0  0  0  0  0  0  0  0
    3.6860   -0.1250   -0.5560 N   0  0  0  0  0  0  0  0  0  0  0  0
    4.3170   -1.1750    0.1570 C   0  0  0  0  0  0  0  0  0  0  0  0
    5.5940   -1.5830   -0.1860 C   0  0  0  0  0  0  0  0  0  0  0  0
    6.2030   -2.5940    0.4980 C   0  0  0  0  0  0  0  0  0  0  0  0
    5.5670   -3.2300    1.5420 C   0  0  0  0  0  0  0  0  0  0  0  0
    6.4570   -4.6420    2.4740 Br  0  0  0  0  0  0  0  0  0  0  0  0
    4.2840   -2.8350    1.9020 C   0  0  0  0  0  0  0  0  0  0  0  0
    3.6840   -1.8130    1.2020 C   0  0  0  0  0  0  0  0  0  0  0  0
    2.3370   -1.3860    1.5670 C   0  0  0  0  0  0  0  0  0  0  0  0
    1.7330   -1.9420    2.5100 O   0  0  0  0  0  0  0  0  0  0  0  0
   -0.2000    4.8560    0.3990 O   0  0  0  0  0  0  0  0  0  0  0  0
   -0.7210    5.9100   -0.3380 C   0  0  0  0  0  0  0  0  0  0  0  0
   -1.8940    5.6060   -1.2000 C   0  0  0  0  0  0  0  0  0  0  0  0
   -2.3580    4.2730   -1.1150 O   0  0  0  0  0  0  0  0  0  0  0  0
  2  1  1  1
  2  3  1  0
  2  4  1  0
  4  5  1  0
  5  6  1  0
  6  7  1  0
  7  8  2  0
  7 13  1  0
  8  9  1  0
  9 10  2  0
  9 31  1  0
 10 11  1  0
 10 28  1  0
 11 12  1  0
 11 13  2  0
 13 14  1  0
 14 15  2  3
 15 16  1  0
 15 26  1  0
 16 17  2  0
 16 18  1  0
 18 19  1  0
 19 20  2  0
 19 25  1  0
 20 21  1  0
 21 22  2  0
 22 23  1  0
 22 24  1  0
 24 25  2  0
 25 26  1  0
 26 27  2  0
 28 29  1  0
 29 30  1  0
 30 31  1  0
M  END
