
     RDKit          3D

 31 34  0  0  0  0  0  0  0  0999 V2000
   -0.8590   -3.3750   -2.2840 C   0  0  0  0  0  0  0  0  0  0  0  0
   -0.7750   -2.0470   -1.7860 O   0  0  0  0  0  0  0  0  0  0  0  0
    0.3780   -1.6310   -1.0880 C   0  0  0  0  0  0  0  0  0  0  0  0
    1.2430   -2.5460   -0.9860 O   0  0  0  0  0  0  0  0  0  0  0  0
    0.4520   -0.2950   -0.5910 C   0  0  0  0  0  0  0  0  0  0  0  0
   -0.6830    0.5060   -0.9310 O   0  0  0  0  0  0  0  0  0  0  0  0
   -1.9020    0.3010   -0.3750 C   0  0  0  0  0  0  0  0  0  0  0  0
   -2.1020   -0.6930    0.5450 C   0  0  0  0  0  0  0  0  0  0  0  0
   -3.3670   -0.8540    1.0780 C   0  0  0  0  0  0  0  0  0  0  0  0
   -4.4160   -0.0570    0.7150 C   0  0  0  0  0  0  0  0  0  0  0  0
   -4.2170    0.9430   -0.2100 C   0  0  0  0  0  0  0  0  0  0  0  0
   -2.9560    1.0960   -0.7350 C   0  0  0  0  0  0  0  0  0  0  0  0
   -5.3040    1.8010   -0.6140 N   0  0  0  0  0  0  0  0  0  0  0  0
   -6.6320    1.3860   -0.2280 C   0  0  0  0  0  0  0  0  0  0  0  0
   -6.5280    0.9380    1.2360 C   0  0  0  0  0  0  0  0  0  0  0  0
   -5.7010   -0.2120    1.2480 O   0  0  0  0  0  0  0  0  0  0  0  0
    1.3500    0.3200    0.1150 C   0  0  0  0  0  0  0  0  0  0  0  0
    1.1740    1.7920    0.4940 C   0  0  0  0  0  0  0  0  0  0  0  0
    2.6910    2.6710   -0.0130 S   0  0  0  0  0  0  0  0  0  0  0  0
    3.9640    1.4080   -0.1950 C   0  0  0  0  0  0  0  0  0  0  0  0
    5.0130    1.6920   -0.9080 C   0  0  0  0  0  0  0  0  0  0  0  0
    5.2380    2.9910   -1.5870 C   0  0  2  0  0  0  0  0  0  0  0  0
    4.4540    4.3370   -0.6890 Cl  0  0  0  0  0  0  0  0  0  0  0  0
    4.4770    2.9970   -3.3670 Br  0  0  0  0  0  0  0  0  0  0  0  0
    3.8050    0.1200    0.4550 C   0  0  0  0  0  0  0  0  0  0  0  0
    4.9230   -0.5330    0.9100 C   0  0  0  0  0  0  0  0  0  0  0  0
    4.7830   -1.7490    1.5420 C   0  0  0  0  0  0  0  0  0  0  0  0
    5.9130   -2.4470    2.0220 O   0  0  0  0  0  0  0  0  0  0  0  0
    3.5190   -2.2720    1.6980 C   0  0  0  0  0  0  0  0  0  0  0  0
    2.4050   -1.6150    1.2400 C   0  0  0  0  0  0  0  0  0  0  0  0
    2.5160   -0.3980    0.6000 C   0  0  0  0  0  0  0  0  0  0  0  0
  1  2  1  0
  2  3  1  0
  3  4  2  0
  3  5  1  0
  5  6  1  0
  5 17  2  3
  6  7  1  0
  7  8  2  0
  7 12  1  0
  8  9  1  0
  9 10  2  0
 10 11  1  0
 10 16  1  0
 11 12  2  0
 11 13  1  0
 13 14  1  0
 14 15  1  0
 15 16  1  0
 17 18  1  0
 17 31  1  0
 18 19  1  0
 19 20  1  0
 20 21  2  3
 20 25  1  0
 21 22  1  0
 22 23  1  1
 22 24  1  0
 25 26  2  0
 25 31  1  0
 26 27  1  0
 27 28  1  0
 27 29  2  0
 29 30  1  0
 30 31  2  0
M  END
