
     RDKit          3D

 31 34  0  0  0  0  0  0  0  0999 V2000
    5.6390   -0.4710    0.1220 C   0  0  0  0  0  0  0  0  0  0  0  0
    4.8450    0.6250   -0.3950 C   0  0  0  0  0  0  0  0  0  0  0  0
    5.3760    1.6160   -1.2550 C   0  0  0  0  0  0  0  0  0  0  0  0
    4.6070    2.5610   -1.8850 C   0  0  0  0  0  0  0  0  0  0  0  0
    5.3440    3.7510   -2.9280 Cl  0  0  0  0  0  0  0  0  0  0  0  0
    3.2460    2.5610   -1.6850 C   0  0  0  0  0  0  0  0  0  0  0  0
    2.6840    1.6450   -0.8780 C   0  0  0  0  0  0  0  0  0  0  0  0
    3.4920    0.6890   -0.2330 C   0  0  0  0  0  0  0  0  0  0  0  0
    3.0410   -0.2880    0.7590 C   0  0  0  0  0  0  0  0  0  0  0  0
    3.9910   -0.4660    1.7160 C   0  0  0  0  0  0  0  0  0  0  0  0
    3.7240   -1.4290    2.6730 C   0  0  0  0  0  0  0  0  0  0  0  0
    2.5350   -2.1710    2.6500 C   0  0  0  0  0  0  0  0  0  0  0  0
    2.1810   -3.4980    3.9720 Br  0  0  0  0  0  0  0  0  0  0  0  0
    1.6020   -1.9250    1.6370 C   0  0  0  0  0  0  0  0  0  0  0  0
    1.8410   -0.9930    0.6970 C   0  0  0  0  0  0  0  0  0  0  0  0
    0.8370   -0.7810   -0.2900 O   0  0  0  0  0  0  0  0  0  0  0  0
    0.4440    0.5570   -0.6070 C   0  0  0  0  0  0  0  0  0  0  0  0
   -0.9820    0.8100   -0.6690 C   0  0  0  0  0  0  0  0  0  0  0  0
   -1.4360    1.9610   -0.9380 O   0  0  0  0  0  0  0  0  0  0  0  0
   -1.9400   -0.2210   -0.4320 N   0  0  0  0  0  0  0  0  0  0  0  0
   -3.3690    0.0030   -0.4870 C   0  0  2  0  0  0  0  0  0  0  0  0
   -3.8050    1.0330    0.5280 C   0  0  0  0  0  0  0  0  0  0  0  0
   -3.4380    0.5990    2.2250 S   0  0  0  0  0  0  0  0  0  0  0  0
   -4.3430   -0.7420    2.7500 O   0  0  0  0  0  0  0  0  0  0  0  0
   -4.0500   -1.3280   -0.2520 C   0  0  0  0  0  0  0  0  0  0  0  0
   -5.5330   -1.2980   -0.3920 C   0  0  0  0  0  0  0  0  0  0  0  0
   -6.0720   -0.4560   -1.4930 C   0  0  0  0  0  0  0  0  0  0  0  0
   -5.1670    0.4100   -2.1060 O   0  0  0  0  0  0  0  0  0  0  0  0
   -3.8160    0.4540   -1.8280 C   0  0  0  0  0  0  0  0  0  0  0  0
   -3.0290    0.8650   -2.6980 O   0  0  0  0  0  0  0  0  0  0  0  0
    1.2190    1.6280   -0.8640 C   0  0  0  0  0  0  0  0  0  0  0  0
  1  2  1  0
  2  3  2  0
  2  8  1  0
  3  4  1  0
  4  5  1  0
  4  6  2  0
  6  7  1  0
  7  8  2  0
  7 31  1  0
  8  9  1  0
  9 10  2  0
  9 15  1  0
 10 11  1  0
 11 12  2  0
 12 13  1  0
 12 14  1  0
 14 15  2  0
 15 16  1  0
 16 17  1  0
 17 18  1  0
 17 31  2  0
 18 19  2  0
 18 20  1  0
 20 21  1  0
 21 22  1  1
 21 25  1  0
 21 29  1  0
 22 23  1  0
 23 24  1  0
 25 26  1  0
 26 27  1  0
 27 28  1  0
 28 29  1  0
 29 30  2  0
M  END
