
     RDKit          3D

 29 32  0  0  0  0  0  0  0  0999 V2000
    9.5050    1.3740   -0.3560 N   0  0  0  0  0  0  0  0  0  0  0  0
    8.1750    0.8910   -0.5380 C   0  0  0  0  0  0  0  0  0  0  0  0
    7.9390   -0.3340   -1.1250 C   0  0  0  0  0  0  0  0  0  0  0  0
    6.6520   -0.8010   -1.3010 C   0  0  0  0  0  0  0  0  0  0  0  0
    5.5460   -0.0780   -0.9050 C   0  0  0  0  0  0  0  0  0  0  0  0
    4.2160   -0.5700   -1.0910 N   0  0  0  0  0  0  0  0  0  0  0  0
    3.8250   -1.4050   -2.0230 N   0  0  0  0  0  0  0  0  0  0  0  0
    2.5090   -1.6760   -1.9340 C   0  0  0  0  0  0  0  0  0  0  0  0
    2.0380   -0.9560   -0.8640 C   0  0  0  0  0  0  0  0  0  0  0  0
    0.7710   -0.8150   -0.2670 C   0  0  0  0  0  0  0  0  0  0  0  0
    0.5650   -0.0150    0.8180 C   0  0  0  0  0  0  0  0  0  0  0  0
   -0.6590    0.1990    1.4900 N   0  0  0  0  0  0  0  0  0  0  0  0
   -1.9190   -0.3530    1.1530 C   0  0  0  0  0  0  0  0  0  0  0  0
   -1.9860   -1.1070    0.1670 O   0  0  0  0  0  0  0  0  0  0  0  0
   -3.0980   -0.0840    1.8870 N   0  0  0  0  0  0  0  0  0  0  0  0
   -4.4090   -0.5510    1.6300 C   0  0  0  0  0  0  0  0  0  0  0  0
   -5.1780   -0.1150    0.4680 C   0  0  2  0  0  0  0  0  0  0  0  0
   -6.5390   -0.8110    0.4450 C   0  0  0  0  0  0  0  0  0  0  0  0
   -7.3700   -0.5480    1.6600 C   0  0  0  0  0  0  0  0  0  0  0  0
   -8.9090   -1.4660    1.4260 Cl  0  0  0  0  0  0  0  0  0  0  0  0
   -4.5350   -0.2810   -0.8470 C   0  0  0  0  0  0  0  0  0  0  0  0
   -5.5760    0.1760   -1.8980 C   0  0  0  0  0  0  0  0  0  0  0  0
   -6.3410    1.5750   -1.0260 S   0  0  0  0  0  0  0  0  0  0  0  0
   -5.4340    1.4130    0.5780 C   0  0  0  0  0  0  0  0  0  0  0  0
    1.7040    0.6530    1.2910 C   0  0  0  0  0  0  0  0  0  0  0  0
    2.9010    0.5030    0.7060 N   0  0  0  0  0  0  0  0  0  0  0  0
    3.1200   -0.2790   -0.3600 C   0  0  0  0  0  0  0  0  0  0  0  0
    5.7850    1.1470   -0.3170 C   0  0  0  0  0  0  0  0  0  0  0  0
    7.0710    1.6150   -0.1410 C   0  0  0  0  0  0  0  0  0  0  0  0
  1  2  1  0
  2  3  2  0
  2 29  1  0
  3  4  1  0
  4  5  2  0
  5  6  1  0
  5 28  1  0
  6  7  1  0
  6 27  1  0
  7  8  2  0
  8  9  1  0
  9 10  2  0
  9 27  1  0
 10 11  1  0
 11 12  1  0
 11 25  2  0
 12 13  1  0
 13 14  2  0
 13 15  1  0
 15 16  1  0
 17 16  1  1
 17 18  1  0
 17 21  1  0
 17 24  1  0
 18 19  1  0
 19 20  1  0
 21 22  1  0
 22 23  1  0
 23 24  1  0
 25 26  1  0
 26 27  2  0
 28 29  2  0
M  CHG  1   1   1
M  END
