
     RDKit          3D

 31 32  0  0  0  0  0  0  0  0999 V2000
    2.4510    2.5850    1.9290 C   0  0  0  0  0  0  0  0  0  0  0  0
    3.6460    2.2690    1.6020 C   0  0  0  0  0  0  0  0  0  0  0  0
    3.8480    1.0180    0.7210 C   0  0  0  0  0  0  0  0  0  0  0  0
    5.1030    0.8420    0.4910 C   0  0  0  0  0  0  0  0  0  0  0  0
    5.9390   -0.0920   -0.2290 C   0  0  0  0  0  0  0  0  0  0  0  0
    2.6430    0.3350    0.3750 C   0  0  0  0  0  0  0  0  0  0  0  0
    2.4560   -0.8980   -0.3840 C   0  0  2  0  0  0  0  0  0  0  0  0
    2.9420   -1.0180   -1.7810 C   0  0  0  0  0  0  0  0  0  0  0  0
    0.9470   -1.2480   -0.4210 C   0  0  0  0  0  0  0  0  0  0  0  0
    0.0350   -0.2260   -0.9310 C   0  0  0  0  0  0  0  0  0  0  0  0
    0.2870    0.5820   -2.1280 C   0  0  0  0  0  0  0  0  0  0  0  0
   -1.1230    0.0630   -0.2690 C   0  0  0  0  0  0  0  0  0  0  0  0
   -1.3320   -0.7410    0.9660 C   0  0  0  0  0  0  0  0  0  0  0  0
   -2.0710    1.0460   -0.7570 C   0  0  2  0  0  0  0  0  0  0  0  0
   -2.0420    2.3470    0.0050 C   0  0  0  0  0  0  0  0  0  0  0  0
   -2.3500    2.3070    1.4260 C   0  0  0  0  0  0  0  0  0  0  0  0
   -1.4830    2.6650    2.3850 C   0  0  0  0  0  0  0  0  0  0  0  0
   -2.0600    2.5260    3.7240 C   0  0  0  0  0  0  0  0  0  0  0  0
   -3.4290    2.0410    3.4290 C   0  0  0  0  0  0  0  0  0  0  0  0
   -3.5790    1.9190    2.1030 C   0  0  0  0  0  0  0  0  0  0  0  0
   -3.4650    0.6180   -1.0440 C   0  0  1  0  0  0  0  0  0  0  0  0
   -4.2480    1.8520   -1.5250 C   0  0  0  0  0  0  0  0  0  0  0  0
   -3.6880   -0.4530   -2.0510 C   0  0  2  0  0  0  0  0  0  0  0  0
   -3.0660   -1.7690   -1.6890 C   0  0  0  0  0  0  0  0  0  0  0  0
   -3.2790   -0.0300   -3.4510 C   0  0  0  0  0  0  0  0  0  0  0  0
   -5.2030   -0.7110   -2.1210 C   0  0  0  0  0  0  0  0  0  0  0  0
    3.1030   -2.0270    0.4050 C   0  0  1  0  0  0  0  0  0  0  0  0
    2.5490   -2.2500    1.7880 C   0  0  0  0  0  0  0  0  0  0  0  0
    3.4250   -3.5020    2.1270 C   0  0  0  0  0  0  0  0  0  0  0  0
    3.4470   -4.1530    0.7630 C   0  0  0  0  0  0  0  0  0  0  0  0
    2.8380   -3.2900   -0.1480 O   0  0  0  0  0  0  0  0  0  0  0  0
  1  2  2  0
  2  3  1  0
  3  4  2  3
  3  6  1  0
  4  5  1  0
  6  7  1  0
  7  8  1  6
  7  9  1  0
  7 27  1  0
  9 10  1  0
 10 11  1  0
 10 12  2  3
 12 13  1  0
 12 14  1  0
 14 15  1  1
 14 21  1  0
 15 16  1  0
 16 17  2  0
 16 20  1  0
 17 18  1  0
 18 19  1  0
 19 20  2  0
 21 22  1  6
 21 23  1  0
 23 24  1  1
 23 25  1  0
 23 26  1  0
 27 28  1  1
 27 31  1  0
 28 29  1  0
 29 30  1  0
 30 31  1  0
M  END
