
     RDKit          3D

 31 32  0  0  0  0  0  0  0  0999 V2000
    5.3930    1.8710   -1.8010 C   0  0  0  0  0  0  0  0  0  0  0  0
    4.5110    0.9400   -2.1150 C   0  0  0  0  0  0  0  0  0  0  0  0
    3.0710    1.1920   -1.7790 C   0  0  0  0  0  0  0  0  0  0  0  0
    2.5230    0.1780   -0.7640 C   0  0  2  0  0  0  0  0  0  0  0  0
    2.6460   -1.1490   -1.3790 C   0  0  0  0  0  0  0  0  0  0  0  0
    2.3410   -2.4200   -0.7430 C   0  0  1  0  0  0  0  0  0  0  0  0
    0.9680   -2.7050   -0.2510 C   0  0  0  0  0  0  0  0  0  0  0  0
    2.6340   -3.5880   -1.7420 C   0  0  0  0  0  0  0  0  0  0  0  0
    3.2700   -2.7840    0.4210 C   0  0  0  0  0  0  0  0  0  0  0  0
    1.5470    0.6300    0.1660 C   0  0  0  0  0  0  0  0  0  0  0  0
    0.2260    1.1970    0.2720 C   0  0  2  0  0  0  0  0  0  0  0  0
    0.0550    2.5670   -0.4460 C   0  0  1  0  0  0  0  0  0  0  0  0
    0.2340    2.4160   -1.9310 C   0  0  0  0  0  0  0  0  0  0  0  0
   -1.2990    3.1760   -0.2740 C   0  0  0  0  0  0  0  0  0  0  0  0
    1.0690    3.2960    0.0450 O   0  0  0  0  0  0  0  0  0  0  0  0
    1.3380    4.5640   -0.1230 C   0  0  0  0  0  0  0  0  0  0  0  0
    1.6080    5.1520   -1.4810 C   0  0  0  0  0  0  0  0  0  0  0  0
    0.0930    1.7080    1.7360 C   0  0  0  0  0  0  0  0  0  0  0  0
   -0.3350    0.6680    2.7060 C   0  0  0  0  0  0  0  0  0  0  0  0
   -1.7590    0.3370    2.2990 C   0  0  0  0  0  0  0  0  0  0  0  0
   -1.5730   -0.4560    0.9790 C   0  0  1  0  0  0  0  0  0  0  0  0
   -2.9020   -1.0720    0.7500 C   0  0  0  0  0  0  0  0  0  0  0  0
   -3.7400   -0.8400   -0.2140 C   0  0  0  0  0  0  0  0  0  0  0  0
   -3.7160    0.0540   -1.4020 C   0  0  0  0  0  0  0  0  0  0  0  0
   -5.0180   -1.5820    0.1070 C   0  0  0  0  0  0  0  0  0  0  0  0
   -4.5890   -2.6860    0.9800 C   0  0  0  0  0  0  0  0  0  0  0  0
   -5.2460   -3.8350    1.1180 C   0  0  0  0  0  0  0  0  0  0  0  0
   -3.3690   -2.2540    1.5840 C   0  0  0  0  0  0  0  0  0  0  0  0
   -2.6920   -2.7570    2.5780 C   0  0  0  0  0  0  0  0  0  0  0  0
   -3.1520   -3.8940    3.3870 C   0  0  0  0  0  0  0  0  0  0  0  0
   -0.9980    0.4000   -0.0480 C   0  0  0  0  0  0  0  0  0  0  0  0
  1  2  2  0
  2  3  1  0
  4  3  1  6
  4  5  1  0
  4 10  1  0
  5  6  1  0
  6  7  1  1
  6  8  1  0
  6  9  1  0
 11 10  1  1
 11 12  1  0
 11 18  1  0
 11 31  1  0
 12 13  1  6
 12 14  1  0
 12 15  1  0
 15 16  1  0
 16 17  1  0
 18 19  1  0
 19 20  1  0
 20 21  1  0
 21 22  1  6
 21 31  1  0
 22 23  2  0
 22 28  1  0
 23 24  1  0
 23 25  1  0
 25 26  1  0
 26 27  2  0
 26 28  1  0
 28 29  2  3
 29 30  1  0
M  END
