
     RDKit          3D

 31 32  0  0  0  0  0  0  0  0999 V2000
   -1.3120   -2.6980    1.6700 C   0  0  0  0  0  0  0  0  0  0  0  0
   -2.5500   -2.6000    1.3220 C   0  0  0  0  0  0  0  0  0  0  0  0
   -3.4400   -1.4870    1.1310 C   0  0  0  0  0  0  0  0  0  0  0  0
   -4.7120   -1.8660    0.7580 C   0  0  0  0  0  0  0  0  0  0  0  0
   -5.0460   -3.2620    0.5940 C   0  0  0  0  0  0  0  0  0  0  0  0
   -3.2060   -0.0390    1.2470 C   0  0  2  0  0  0  0  0  0  0  0  0
   -2.4470    0.6130    0.0640 C   0  0  1  0  0  0  0  0  0  0  0  0
   -3.3650    0.2760   -1.1350 C   0  0  0  0  0  0  0  0  0  0  0  0
   -2.7190    2.0870    0.2980 C   0  0  0  0  0  0  0  0  0  0  0  0
   -1.1160    0.2080   -0.0320 C   0  0  0  0  0  0  0  0  0  0  0  0
   -0.0820    0.6130   -1.0640 C   0  0  2  0  0  0  0  0  0  0  0  0
    1.0920   -0.2830   -0.6430 C   0  0  0  0  0  0  0  0  0  0  0  0
    2.2900   -0.3310   -1.4500 C   0  0  0  0  0  0  0  0  0  0  0  0
    2.5710    0.1960   -2.6190 C   0  0  0  0  0  0  0  0  0  0  0  0
    3.9660   -0.1790   -2.9670 C   0  0  2  0  0  0  0  0  0  0  0  0
    4.0300   -0.9970   -4.2310 C   0  0  0  0  0  0  0  0  0  0  0  0
    4.4060   -0.9800   -1.8390 C   0  0  0  0  0  0  0  0  0  0  0  0
    5.7790   -1.6150   -1.7030 C   0  0  0  0  0  0  0  0  0  0  0  0
    3.4680   -1.0940   -0.9360 C   0  0  0  0  0  0  0  0  0  0  0  0
    3.5720   -1.8480    0.3480 C   0  0  1  0  0  0  0  0  0  0  0  0
    3.5280   -0.9960    1.5650 C   0  0  0  0  0  0  0  0  0  0  0  0
    2.5380   -2.9460    0.4660 C   0  0  0  0  0  0  0  0  0  0  0  0
    0.2810    2.0050   -1.2130 C   0  0  0  0  0  0  0  0  0  0  0  0
    0.8890    2.9260   -0.2930 C   0  0  1  0  0  0  0  0  0  0  0  0
    2.3000    2.5230    0.1890 C   0  0  0  0  0  0  0  0  0  0  0  0
    1.2320    4.1930   -1.1710 C   0  0  0  0  0  0  0  0  0  0  0  0
    0.1640    3.5500    0.8390 C   0  0  0  0  0  0  0  0  0  0  0  0
   -2.6230    0.2260    2.5780 C   0  0  0  0  0  0  0  0  0  0  0  0
   -3.8800    0.3620    3.4670 C   0  0  0  0  0  0  0  0  0  0  0  0
   -4.9340    0.7250    2.4970 C   0  0  0  0  0  0  0  0  0  0  0  0
   -4.4820    0.5720    1.2340 O   0  0  0  0  0  0  0  0  0  0  0  0
  1  2  2  0
  2  3  1  0
  3  4  2  3
  6  3  1  6
  4  5  1  0
  6  7  1  0
  6 28  1  0
  6 31  1  0
  7  8  1  6
  7  9  1  0
  7 10  1  0
 11 10  1  1
 11 12  1  0
 11 23  1  0
 12 13  1  0
 13 14  2  0
 13 19  1  0
 14 15  1  0
 15 16  1  6
 15 17  1  0
 17 18  1  0
 17 19  2  0
 19 20  1  0
 20 21  1  1
 20 22  1  0
 23 24  1  0
 24 25  1  1
 24 26  1  0
 24 27  1  0
 28 29  1  0
 29 30  1  0
 30 31  1  0
M  END
