
     RDKit          3D

 31 34  0  0  0  0  0  0  0  0999 V2000
   -0.3550    4.6900   -0.5880 C   0  0  0  0  0  0  0  0  0  0  0  0
   -1.3550    4.1220    0.3380 C   0  0  0  0  0  0  0  0  0  0  0  0
   -2.2650    4.9230    0.6950 O   0  0  0  0  0  0  0  0  0  0  0  0
   -1.3280    2.8170    0.7890 N   0  0  0  0  0  0  0  0  0  0  0  0
   -0.1630    1.9470    0.6540 C   0  0  0  0  0  0  0  0  0  0  0  0
    1.0960    2.5290    0.7250 C   0  0  0  0  0  0  0  0  0  0  0  0
    2.2090    1.7120    0.5760 C   0  0  0  0  0  0  0  0  0  0  0  0
    2.0870    0.3630    0.3650 C   0  0  0  0  0  0  0  0  0  0  0  0
    3.3180   -0.4210    0.2170 C   0  0  0  0  0  0  0  0  0  0  0  0
    3.3980   -1.7380    0.6210 C   0  0  0  0  0  0  0  0  0  0  0  0
    4.5660   -2.4560    0.4700 C   0  0  0  0  0  0  0  0  0  0  0  0
    5.7000   -1.9020   -0.0860 C   0  0  0  0  0  0  0  0  0  0  0  0
    6.9320   -2.6900   -0.2350 C   0  0  0  0  0  0  0  0  0  0  0  0
    7.9410   -2.1650   -0.7400 O   0  0  0  0  0  0  0  0  0  0  0  0
    7.0100   -4.0090    0.1710 O   0  0  0  0  0  0  0  0  0  0  0  0
    5.6320   -0.5870   -0.4930 C   0  0  0  0  0  0  0  0  0  0  0  0
    4.4550    0.1300   -0.3380 C   0  0  0  0  0  0  0  0  0  0  0  0
    0.8460   -0.1940    0.3010 C   0  0  0  0  0  0  0  0  0  0  0  0
   -0.3120    0.6080    0.4490 C   0  0  0  0  0  0  0  0  0  0  0  0
   -1.6290   -0.0440    0.4230 C   0  0  2  0  0  0  0  0  0  0  0  0
   -1.7160   -1.0060   -0.6640 N   0  0  0  0  0  0  0  0  0  0  0  0
   -2.7730   -1.9320   -0.8490 C   0  0  0  0  0  0  0  0  0  0  0  0
   -2.9150   -2.5790   -2.0870 C   0  0  0  0  0  0  0  0  0  0  0  0
   -3.9230   -3.4900   -2.2710 C   0  0  0  0  0  0  0  0  0  0  0  0
   -4.8210   -3.8000   -1.2650 C   0  0  0  0  0  0  0  0  0  0  0  0
   -6.0970   -4.9760   -1.5540 Cl  0  0  0  0  0  0  0  0  0  0  0  0
   -4.7030   -3.1840   -0.0560 C   0  0  0  0  0  0  0  0  0  0  0  0
   -3.6790   -2.2570    0.1360 C   0  0  0  0  0  0  0  0  0  0  0  0
   -2.7460    0.9290    0.4100 C   0  0  0  0  0  0  0  0  0  0  0  0
   -2.4700    2.1060    1.3590 C   0  0  2  0  0  0  0  0  0  0  0  0
   -3.7050    2.9550    1.3310 C   0  0  0  0  0  0  0  0  0  0  0  0
  1  2  1  0
  2  3  2  0
  2  4  1  0
  4  5  1  0
  4 30  1  0
  5  6  2  0
  5 19  1  0
  6  7  1  0
  7  8  2  0
  8  9  1  0
  8 18  1  0
  9 10  2  0
  9 17  1  0
 10 11  1  0
 11 12  2  0
 12 13  1  0
 12 16  1  0
 13 14  2  0
 13 15  1  0
 16 17  2  0
 18 19  2  0
 19 20  1  0
 20 21  1  6
 20 29  1  0
 21 22  1  0
 22 23  2  0
 22 28  1  0
 23 24  1  0
 24 25  2  0
 25 26  1  0
 25 27  1  0
 27 28  2  0
 29 30  1  0
 30 31  1  6
M  END
