
     RDKit          3D

 28 29  0  0  0  0  0  0  0  0999 V2000
   -3.6790    2.7220    0.3770 C   0  0  0  0  0  0  0  0  0  0  0  0
   -3.2800    1.5400    0.7780 C   0  0  0  0  0  0  0  0  0  0  0  0
   -4.1070    0.4810    1.9680 S   0  0  0  0  0  0  0  0  0  0  0  0
   -3.0080   -0.9440    1.6830 C   0  0  1  0  0  0  0  0  0  0  0  0
   -2.5220   -1.4000    2.9070 O   0  0  0  0  0  0  0  0  0  0  0  0
   -3.8460   -1.9980    0.9910 C   0  0  2  0  0  0  0  0  0  0  0  0
   -4.5120   -1.4790   -0.1150 O   0  0  0  0  0  0  0  0  0  0  0  0
   -4.8050   -2.4250    1.8970 O   0  0  0  0  0  0  0  0  0  0  0  0
   -3.0240   -3.1730    0.5400 C   0  0  0  0  0  0  0  0  0  0  0  0
   -2.3170   -3.7690    1.5620 O   0  0  0  0  0  0  0  0  0  0  0  0
   -2.0170   -0.3860    0.8440 N   0  0  0  0  0  0  0  0  0  0  0  0
   -2.1110    0.7650    0.4060 C   0  0  0  0  0  0  0  0  0  0  0  0
   -1.0610    1.3790   -0.4940 C   0  0  1  0  0  0  0  0  0  0  0  0
   -1.6570    1.7680   -1.8290 C   0  0  0  0  0  0  0  0  0  0  0  0
   -0.5430    2.5560    0.0970 O   0  0  0  0  0  0  0  0  0  0  0  0
    0.7910    2.6370   -0.2610 C   0  0  0  0  0  0  0  0  0  0  0  0
    1.6470    3.7300   -0.2180 O   0  0  0  0  0  0  0  0  0  0  0  0
    2.7880    3.8060   -1.0870 C   0  0  0  0  0  0  0  0  0  0  0  0
    1.1860    1.4780   -0.6770 N   0  0  0  0  0  0  0  0  0  0  0  0
    0.1060    0.5610   -0.6100 N   0  0  0  0  0  0  0  0  0  0  0  0
    0.2260   -0.7700   -0.6510 O   0  0  0  0  0  0  0  0  0  0  0  0
    1.7190   -1.2870   -1.2900 S   0  0  0  0  0  0  0  0  0  0  0  0
    3.0880   -0.4540   -0.6040 N   0  0  0  0  0  0  0  0  0  0  0  0
    3.7670    0.2800   -1.4900 F   0  0  0  0  0  0  0  0  0  0  0  0
    3.9380   -1.3110    0.1860 C   0  0  2  0  0  0  0  0  0  0  0  0
    5.0830   -0.4870    0.7260 C   0  0  0  0  0  0  0  0  0  0  0  0
    4.5270   -2.4500   -0.6170 C   0  0  0  0  0  0  0  0  0  0  0  0
    3.2060   -1.8700    1.2080 F   0  0  0  0  0  0  0  0  0  0  0  0
  1  2  2  0
  2  3  1  0
  2 12  1  0
  3  4  1  0
  4  5  1  1
  4  6  1  0
  4 11  1  0
  6  7  1  6
  6  8  1  0
  6  9  1  0
  9 10  1  0
 11 12  2  0
 12 13  1  0
 13 14  1  6
 13 15  1  0
 13 20  1  0
 15 16  1  0
 16 17  1  0
 16 19  2  0
 17 18  1  0
 19 20  1  0
 20 21  1  0
 21 22  1  0
 22 23  1  0
 23 24  1  0
 23 25  1  0
 25 26  1  1
 25 27  1  0
 25 28  1  0
M  CHG  1   5  -1
M  END
