
     RDKit          3D

 29 29  0  0  0  0  0  0  0  0999 V2000
   -1.1320    0.9750   -2.2930 C   0  0  0  0  0  0  0  0  0  0  0  0
   -1.4870    0.6500   -0.8590 C   0  0  1  0  0  0  0  0  0  0  0  0
   -1.5290    2.0200   -0.1760 C   0  0  0  0  0  0  0  0  0  0  0  0
   -2.9770    0.2660   -0.9360 C   0  0  0  0  0  0  0  0  0  0  0  0
   -0.6870   -0.3580   -0.1630 C   0  0  2  0  0  0  0  0  0  0  0  0
   -0.7500   -1.7290   -0.8720 C   0  0  1  0  0  0  0  0  0  0  0  0
   -0.2940   -1.6930   -2.1480 F   0  0  0  0  0  0  0  0  0  0  0  0
    0.0700   -2.6790   -0.1540 N   0  0  0  0  0  0  0  0  0  0  0  0
   -0.2710   -2.9010    1.1080 O   0  0  0  0  0  0  0  0  0  0  0  0
    0.0390   -4.2090   -1.0200 S   0  0  0  0  0  0  0  0  0  0  0  0
    0.0350   -3.9990   -2.7100 O   0  0  0  0  0  0  0  0  0  0  0  0
    1.2930   -3.9000   -3.1240 F   0  0  0  0  0  0  0  0  0  0  0  0
   -1.4310   -0.6720    1.1230 C   0  0  0  0  0  0  0  0  0  0  0  0
   -2.4860   -1.4350    0.9820 N   0  0  0  0  0  0  0  0  0  0  0  0
   -3.4550   -1.8970    2.3230 S   0  0  0  0  0  0  0  0  0  0  0  0
   -4.7570   -1.0950    2.2730 O   0  0  0  0  0  0  0  0  0  0  0  0
   -1.1890   -0.2850    2.4670 N   0  0  0  0  0  0  0  0  0  0  0  0
   -0.3080    0.7330    2.9400 C   0  0  0  0  0  0  0  0  0  0  0  0
   -0.2780    1.0120    4.1620 O   0  0  0  0  0  0  0  0  0  0  0  0
    0.6120    1.5260    2.0940 C   0  0  0  0  0  0  0  0  0  0  0  0
    1.0640    2.7730    2.5780 N   0  0  0  0  0  0  0  0  0  0  0  0
    1.0480    1.1300    0.8900 C   0  0  0  0  0  0  0  0  0  0  0  0
    0.7150   -0.1430    0.1800 C   0  0  2  0  0  0  0  0  0  0  0  0
    1.7440   -0.3640   -0.8710 C   0  0  0  0  0  0  0  0  0  0  0  0
    3.0790   -0.0970   -0.2640 C   0  0  0  0  0  0  0  0  0  0  0  0
    3.2420    0.2170    0.9400 O   0  0  0  0  0  0  0  0  0  0  0  0
    4.2230   -0.1910   -1.0480 O   0  0  0  0  0  0  0  0  0  0  0  0
    5.4280    0.0480   -0.5090 O   0  0  0  0  0  0  0  0  0  0  0  0
    5.7450    1.3750   -0.6080 N   0  0  0  0  0  0  0  0  0  0  0  0
  2  1  1  6
  2  3  1  0
  2  4  1  0
  2  5  1  0
  5  6  1  0
  5 13  1  1
  5 23  1  0
  6  7  1  6
  6  8  1  0
  8  9  1  0
  8 10  1  0
 10 11  1  0
 11 12  1  0
 13 14  2  3
 13 17  1  0
 14 15  1  0
 15 16  2  0
 17 18  1  0
 18 19  2  0
 18 20  1  0
 20 21  1  0
 20 22  2  0
 22 23  1  0
 23 24  1  6
 24 25  1  0
 25 26  2  0
 25 27  1  0
 27 28  1  0
 28 29  1  0
M  CHG  1   9  -1
M  END
