
     RDKit          3D

 31 32  0  0  0  0  0  0  0  0999 V2000
   10.8300    1.9690   -0.9320 C   0  0  0  0  0  0  0  0  0  0  0  0
   10.1660    0.6700   -1.3350 C   0  0  0  0  0  0  0  0  0  0  0  0
    8.6550    0.8280   -1.3360 C   0  0  0  0  0  0  0  0  0  0  0  0
    8.0130   -0.4790   -1.7410 C   0  0  0  0  0  0  0  0  0  0  0  0
    6.5050   -0.3800   -1.7600 C   0  0  1  0  0  0  0  0  0  0  0  0
    5.9850   -1.7020   -2.1650 C   0  0  0  0  0  0  0  0  0  0  0  0
    5.5700   -1.8690   -3.2840 O   0  0  0  0  0  0  0  0  0  0  0  0
    5.9800   -0.1160   -0.3580 C   0  0  0  0  0  0  0  0  0  0  0  0
    4.4850   -0.0100   -0.3350 C   0  0  0  0  0  0  0  0  0  0  0  0
    4.0630    0.2520    1.1010 C   0  0  0  0  0  0  0  0  0  0  0  0
    2.5810    0.3580    1.1260 C   0  0  0  0  0  0  0  0  0  0  0  0
    1.7990   -0.7450    1.3240 C   0  0  0  0  0  0  0  0  0  0  0  0
    0.4190   -0.6550    1.3480 C   0  0  0  0  0  0  0  0  0  0  0  0
   -0.1520    0.5840    1.1660 C   0  0  0  0  0  0  0  0  0  0  0  0
   -1.6090    0.7220    1.1840 C   0  0  0  0  0  0  0  0  0  0  0  0
   -2.4340   -0.2740    1.3660 C   0  0  0  0  0  0  0  0  0  0  0  0
   -3.9240    0.0300    1.3590 C   0  0  0  0  0  0  0  0  0  0  0  0
   -4.4540   -0.3670    2.6770 C   0  0  2  0  0  0  0  0  0  0  0  0
   -4.2140   -1.8750    2.8360 C   0  0  0  0  0  0  0  0  0  0  0  0
   -5.8180    0.0370    3.0790 C   0  0  0  0  0  0  0  0  0  0  0  0
   -7.0010   -0.3780    2.3370 C   0  0  0  0  0  0  0  0  0  0  0  0
   -7.2090   -0.0390    0.9530 C   0  0  0  0  0  0  0  0  0  0  0  0
   -7.7070    1.1700    0.4980 C   0  0  0  0  0  0  0  0  0  0  0  0
   -7.9200    1.3770   -0.8340 C   0  0  0  0  0  0  0  0  0  0  0  0
   -7.6610    0.4160   -1.7990 C   0  0  0  0  0  0  0  0  0  0  0  0
   -7.9310    0.7500   -3.2200 C   0  0  0  0  0  0  0  0  0  0  0  0
   -7.1670   -0.7860   -1.3580 C   0  0  0  0  0  0  0  0  0  0  0  0
   -6.8870   -1.8220   -2.3990 C   0  0  0  0  0  0  0  0  0  0  0  0
   -6.9460   -1.0120   -0.0230 C   0  0  0  0  0  0  0  0  0  0  0  0
    0.6320    1.7130    0.9630 C   0  0  0  0  0  0  0  0  0  0  0  0
    1.9930    1.5910    0.9440 C   0  0  0  0  0  0  0  0  0  0  0  0
  1  2  1  0
  2  3  1  0
  3  4  1  0
  5  4  1  1
  5  6  1  0
  5  8  1  0
  6  7  2  0
  8  9  1  0
  9 10  1  0
 10 11  1  0
 11 12  2  0
 11 31  1  0
 12 13  1  0
 13 14  2  0
 14 15  1  0
 14 30  1  0
 15 16  2  3
 16 17  1  0
 17 18  1  0
 18 19  1  6
 18 20  1  0
 20 21  1  0
 21 22  1  0
 22 23  2  0
 22 29  1  0
 23 24  1  0
 24 25  2  0
 25 26  1  0
 25 27  1  0
 27 28  1  0
 27 29  2  0
 30 31  2  0
M  END
