
     RDKit          3D

 31 32  0  0  0  0  0  0  0  0999 V2000
   -2.1850   -2.4130   -3.3330 C   0  0  0  0  0  0  0  0  0  0  0  0
   -3.3450   -2.0360   -3.1680 C   0  0  0  0  0  0  0  0  0  0  0  0
   -3.8840   -0.7480   -2.6810 C   0  0  0  0  0  0  0  0  0  0  0  0
   -5.2130   -0.7010   -2.6530 C   0  0  0  0  0  0  0  0  0  0  0  0
   -6.1110   -1.7850   -3.0400 C   0  0  0  0  0  0  0  0  0  0  0  0
   -3.1550    0.4210   -2.4040 C   0  0  0  0  0  0  0  0  0  0  0  0
   -2.2980    0.6630   -1.1510 C   0  0  2  0  0  0  0  0  0  0  0  0
   -1.7320    2.0810   -1.3750 C   0  0  0  0  0  0  0  0  0  0  0  0
   -1.2600   -0.3520   -1.0950 C   0  0  0  0  0  0  0  0  0  0  0  0
   -0.2430   -0.3280   -0.0180 C   0  0  0  0  0  0  0  0  0  0  0  0
   -0.5650   -0.8320    1.3340 C   0  0  0  0  0  0  0  0  0  0  0  0
    1.0100    0.0780   -0.2340 C   0  0  0  0  0  0  0  0  0  0  0  0
    1.4320    0.5190   -1.5570 C   0  0  0  0  0  0  0  0  0  0  0  0
    1.9870    0.1380    0.9140 C   0  0  2  0  0  0  0  0  0  0  0  0
    2.3780    1.6330    0.8250 C   0  0  0  0  0  0  0  0  0  0  0  0
    3.2770    2.1840    1.7810 C   0  0  0  0  0  0  0  0  0  0  0  0
    4.4670    2.7060    1.5300 C   0  0  0  0  0  0  0  0  0  0  0  0
    5.1070    3.1760    2.7640 C   0  0  0  0  0  0  0  0  0  0  0  0
    4.1120    2.9020    3.7930 C   0  0  0  0  0  0  0  0  0  0  0  0
    3.0420    2.3140    3.2320 C   0  0  0  0  0  0  0  0  0  0  0  0
    3.1930   -0.6790    0.7450 C   0  0  1  0  0  0  0  0  0  0  0  0
    4.0410   -0.5980    2.0260 C   0  0  0  0  0  0  0  0  0  0  0  0
    3.1140   -2.1210    0.4240 C   0  0  1  0  0  0  0  0  0  0  0  0
    2.4130   -2.5000   -0.8420 C   0  0  0  0  0  0  0  0  0  0  0  0
    4.5820   -2.5580    0.1590 C   0  0  0  0  0  0  0  0  0  0  0  0
    2.6670   -3.0020    1.5760 C   0  0  0  0  0  0  0  0  0  0  0  0
   -3.3360    0.7710   -0.0620 C   0  0  1  0  0  0  0  0  0  0  0  0
   -2.9670    1.1390    1.2970 C   0  0  0  0  0  0  0  0  0  0  0  0
   -4.0680    2.1450    1.6910 C   0  0  0  0  0  0  0  0  0  0  0  0
   -4.9440    2.2180    0.4880 C   0  0  0  0  0  0  0  0  0  0  0  0
   -4.3210    1.6220   -0.5540 O   0  0  0  0  0  0  0  0  0  0  0  0
  1  2  2  0
  2  3  1  0
  3  4  2  3
  3  6  1  0
  4  5  1  0
  6  7  1  0
  7  8  1  6
  7  9  1  0
  7 27  1  0
  9 10  1  0
 10 11  1  0
 10 12  2  3
 12 13  1  0
 12 14  1  0
 14 15  1  6
 14 21  1  0
 15 16  1  0
 16 17  2  0
 16 20  1  0
 17 18  1  0
 18 19  1  0
 19 20  2  0
 21 22  1  1
 21 23  1  0
 23 24  1  6
 23 25  1  0
 23 26  1  0
 27 28  1  1
 27 31  1  0
 28 29  1  0
 29 30  1  0
 30 31  1  0
M  END
