
     RDKit          3D

 29 29  0  0  0  0  0  0  0  0999 V2000
   -0.7980    2.4430   -1.0170 C   0  0  0  0  0  0  0  0  0  0  0  0
   -0.9590    1.6770    0.2750 C   0  0  1  0  0  0  0  0  0  0  0  0
   -0.0230    2.3530    1.2440 C   0  0  0  0  0  0  0  0  0  0  0  0
   -2.3210    2.0070    0.8240 C   0  0  0  0  0  0  0  0  0  0  0  0
   -0.7200    0.2080    0.1170 C   0  0  2  0  0  0  0  0  0  0  0  0
   -1.6530   -0.5020   -0.8040 C   0  0  1  0  0  0  0  0  0  0  0  0
   -2.9900   -0.4050   -0.3860 F   0  0  0  0  0  0  0  0  0  0  0  0
   -1.6690   -0.1720   -2.1870 N   0  0  0  0  0  0  0  0  0  0  0  0
   -2.0580   -1.3100   -2.9240 O   0  0  0  0  0  0  0  0  0  0  0  0
   -3.1290    0.8630   -2.5440 S   0  0  0  0  0  0  0  0  0  0  0  0
   -4.4910    0.2310   -1.7660 O   0  0  0  0  0  0  0  0  0  0  0  0
   -5.2360    1.2590   -1.3390 F   0  0  0  0  0  0  0  0  0  0  0  0
   -0.7930   -0.5480    1.3890 C   0  0  0  0  0  0  0  0  0  0  0  0
   -1.2650    0.0440    2.4110 N   0  0  0  0  0  0  0  0  0  0  0  0
   -1.4430   -0.6360    3.9830 S   0  0  0  0  0  0  0  0  0  0  0  0
   -2.4560   -1.7880    3.9670 O   0  0  0  0  0  0  0  0  0  0  0  0
   -0.4060   -1.8960    1.6350 N   0  0  0  0  0  0  0  0  0  0  0  0
    0.2170   -2.8480    0.7370 C   0  0  0  0  0  0  0  0  0  0  0  0
    0.4270   -3.9980    1.1850 O   0  0  0  0  0  0  0  0  0  0  0  0
    0.6110   -2.5440   -0.6540 C   0  0  0  0  0  0  0  0  0  0  0  0
    0.7740   -3.6870   -1.4740 N   0  0  0  0  0  0  0  0  0  0  0  0
    0.8100   -1.3330   -1.1440 C   0  0  0  0  0  0  0  0  0  0  0  0
    0.6840   -0.0360   -0.4130 C   0  0  2  0  0  0  0  0  0  0  0  0
    1.7760   -0.0940    0.6110 C   0  0  0  0  0  0  0  0  0  0  0  0
    3.0830   -0.3370   -0.1160 C   0  0  0  0  0  0  0  0  0  0  0  0
    3.0940   -0.4470   -1.3640 O   0  0  0  0  0  0  0  0  0  0  0  0
    4.2790   -0.4430    0.5620 O   0  0  0  0  0  0  0  0  0  0  0  0
    5.4030   -0.6590   -0.1320 O   0  0  0  0  0  0  0  0  0  0  0  0
    5.8390    0.5640   -0.5720 N   0  0  0  0  0  0  0  0  0  0  0  0
  2  1  1  6
  2  3  1  0
  2  4  1  0
  2  5  1  0
  5  6  1  0
  5 13  1  1
  5 23  1  0
  6  7  1  1
  6  8  1  0
  8  9  1  0
  8 10  1  0
 10 11  1  0
 11 12  1  0
 13 14  2  3
 13 17  1  0
 14 15  1  0
 15 16  2  0
 17 18  1  0
 18 19  2  0
 18 20  1  0
 20 21  1  0
 20 22  2  0
 22 23  1  0
 23 24  1  1
 24 25  1  0
 25 26  2  0
 25 27  1  0
 27 28  1  0
 28 29  1  0
M  CHG  1   9  -1
M  END
