
     RDKit          3D

 31 32  0  0  0  0  0  0  0  0999 V2000
    5.5710    1.6710    1.9360 C   0  0  0  0  0  0  0  0  0  0  0  0
    7.0350    1.8070    1.5810 C   0  0  0  0  0  0  0  0  0  0  0  0
    7.4140    0.8120    0.4910 C   0  0  0  0  0  0  0  0  0  0  0  0
    6.5660    1.1150   -0.7070 C   0  0  0  0  0  0  0  0  0  0  0  0
    6.8670    0.2000   -1.8560 C   0  0  1  0  0  0  0  0  0  0  0  0
    8.2890    0.3120   -2.2940 C   0  0  0  0  0  0  0  0  0  0  0  0
    8.7640   -0.5230   -3.0260 O   0  0  0  0  0  0  0  0  0  0  0  0
    6.6590   -1.2310   -1.4360 C   0  0  0  0  0  0  0  0  0  0  0  0
    5.2580   -1.4780   -0.9920 C   0  0  0  0  0  0  0  0  0  0  0  0
    4.2130   -1.1950   -2.0550 C   0  0  0  0  0  0  0  0  0  0  0  0
    2.8960   -1.5040   -1.4250 C   0  0  0  0  0  0  0  0  0  0  0  0
    2.3600   -2.7700   -1.5060 C   0  0  0  0  0  0  0  0  0  0  0  0
    1.1550   -3.0820   -0.9400 C   0  0  0  0  0  0  0  0  0  0  0  0
    0.3920   -2.1380   -0.2430 C   0  0  0  0  0  0  0  0  0  0  0  0
   -0.8140   -2.6000    0.3880 C   0  0  0  0  0  0  0  0  0  0  0  0
   -1.8270   -1.8640    0.7290 C   0  0  0  0  0  0  0  0  0  0  0  0
   -1.9670   -0.4370    0.5330 C   0  0  0  0  0  0  0  0  0  0  0  0
   -3.4270   -0.1140    0.0400 C   0  0  2  0  0  0  0  0  0  0  0  0
   -3.6150   -0.8600   -1.2640 C   0  0  0  0  0  0  0  0  0  0  0  0
   -3.4230    1.3720   -0.1670 C   0  0  0  0  0  0  0  0  0  0  0  0
   -4.7240    1.9270   -0.6430 C   0  0  0  0  0  0  0  0  0  0  0  0
   -5.8540    1.6890    0.2690 C   0  0  0  0  0  0  0  0  0  0  0  0
   -6.2060    2.5590    1.2740 C   0  0  0  0  0  0  0  0  0  0  0  0
   -7.2710    2.3120    2.1150 C   0  0  0  0  0  0  0  0  0  0  0  0
   -8.0140    1.1560    1.9520 C   0  0  0  0  0  0  0  0  0  0  0  0
   -9.1770    0.8550    2.8470 C   0  0  0  0  0  0  0  0  0  0  0  0
   -7.6640    0.2930    0.9540 C   0  0  0  0  0  0  0  0  0  0  0  0
   -8.4450   -0.9600    0.7530 C   0  0  0  0  0  0  0  0  0  0  0  0
   -6.5970    0.5330    0.1050 C   0  0  0  0  0  0  0  0  0  0  0  0
    0.9290   -0.8820   -0.1620 C   0  0  0  0  0  0  0  0  0  0  0  0
    2.1500   -0.5800   -0.7410 C   0  0  0  0  0  0  0  0  0  0  0  0
  1  2  1  0
  2  3  1  0
  3  4  1  0
  5  4  1  1
  5  6  1  0
  5  8  1  0
  6  7  2  0
  8  9  1  0
  9 10  1  0
 10 11  1  0
 11 12  2  0
 11 31  1  0
 12 13  1  0
 13 14  2  0
 14 15  1  0
 14 30  1  0
 15 16  2  3
 16 17  1  0
 17 18  1  0
 18 19  1  6
 18 20  1  0
 20 21  1  0
 21 22  1  0
 22 23  2  0
 22 29  1  0
 23 24  1  0
 24 25  2  0
 25 26  1  0
 25 27  1  0
 27 28  1  0
 27 29  2  0
 30 31  2  0
M  END
