
     RDKit          3D

 31 32  0  0  0  0  0  0  0  0999 V2000
   -1.6220    0.0890    3.8640 C   0  0  0  0  0  0  0  0  0  0  0  0
   -1.1650   -0.2890    2.6590 C   0  0  0  0  0  0  0  0  0  0  0  0
   -1.9960   -0.9980    1.6560 C   0  0  0  0  0  0  0  0  0  0  0  0
   -2.2270   -0.3500    0.3610 C   0  0  2  0  0  0  0  0  0  0  0  0
   -3.1420   -1.2980   -0.4650 C   0  0  0  0  0  0  0  0  0  0  0  0
   -4.4630   -1.5950    0.0920 C   0  0  2  0  0  0  0  0  0  0  0  0
   -5.3110   -0.3530    0.3380 C   0  0  0  0  0  0  0  0  0  0  0  0
   -4.6050   -2.5660    1.1930 C   0  0  0  0  0  0  0  0  0  0  0  0
   -5.2190   -2.2630   -1.1260 C   0  0  0  0  0  0  0  0  0  0  0  0
   -1.1650   -0.0420   -0.5820 C   0  0  0  0  0  0  0  0  0  0  0  0
    0.0040    0.7680   -0.5430 C   0  0  2  0  0  0  0  0  0  0  0  0
   -0.1560    2.2480   -0.2810 C   0  0  2  0  0  0  0  0  0  0  0  0
    1.1930    2.9450   -0.2720 C   0  0  0  0  0  0  0  0  0  0  0  0
   -0.7550    2.6310    1.0430 C   0  0  0  0  0  0  0  0  0  0  0  0
   -0.9780    2.7580   -1.2520 O   0  0  0  0  0  0  0  0  0  0  0  0
   -1.2800    4.0680   -1.2420 C   0  0  0  0  0  0  0  0  0  0  0  0
   -2.2080    4.3290   -2.4390 C   0  0  0  0  0  0  0  0  0  0  0  0
    0.3740    0.8790   -2.0900 C   0  0  0  0  0  0  0  0  0  0  0  0
    0.3930   -0.4710   -2.7300 C   0  0  0  0  0  0  0  0  0  0  0  0
    1.3370   -1.4250   -2.0390 C   0  0  0  0  0  0  0  0  0  0  0  0
    1.8620   -0.9760   -0.7680 C   0  0  1  0  0  0  0  0  0  0  0  0
    3.3470   -0.9750   -0.6160 C   0  0  0  0  0  0  0  0  0  0  0  0
    4.2550   -0.7430   -1.5370 C   0  0  0  0  0  0  0  0  0  0  0  0
    4.0790   -0.4100   -2.9750 C   0  0  0  0  0  0  0  0  0  0  0  0
    5.6490   -0.8630   -0.9800 C   0  0  0  0  0  0  0  0  0  0  0  0
    5.4980   -1.1840    0.4660 C   0  0  0  0  0  0  0  0  0  0  0  0
    6.5280   -1.3270    1.2430 C   0  0  0  0  0  0  0  0  0  0  0  0
    4.0690   -1.2670    0.6760 C   0  0  0  0  0  0  0  0  0  0  0  0
    3.4430   -1.5930    1.7660 C   0  0  0  0  0  0  0  0  0  0  0  0
    4.1490   -1.8770    3.0360 C   0  0  0  0  0  0  0  0  0  0  0  0
    1.3220    0.2250   -0.0690 C   0  0  0  0  0  0  0  0  0  0  0  0
  1  2  2  0
  2  3  1  0
  4  3  1  1
  4  5  1  0
  4 10  1  0
  5  6  1  0
  6  7  1  1
  6  8  1  0
  6  9  1  0
 11 10  1  6
 11 12  1  0
 11 18  1  0
 11 31  1  0
 12 13  1  6
 12 14  1  0
 12 15  1  0
 15 16  1  0
 16 17  1  0
 18 19  1  0
 19 20  1  0
 20 21  1  0
 21 22  1  6
 21 31  1  0
 22 23  2  0
 22 28  1  0
 23 24  1  0
 23 25  1  0
 25 26  1  0
 26 27  2  0
 26 28  1  0
 28 29  2  3
 29 30  1  0
M  END
