
     RDKit          3D

 39 43  0  0  0  0  0  0  0  0999 V2000
    1.4340    0.7830    1.4710 C   0  0  0  0  0  0  0  0  0  0  0  0
    1.1470   -0.6300    1.0190 C   0  0  0  0  0  0  0  0  0  0  0  0
    0.5910   -0.7230   -0.3080 N   0  0  0  0  0  0  0  0  0  0  0  0
    1.4030   -0.7800   -1.4410 C   0  0  0  0  0  0  0  0  0  0  0  0
    0.6600   -0.9350   -2.5430 O   0  0  0  0  0  0  0  0  0  0  0  0
    2.7980   -0.7160   -1.7360 C   0  0  0  0  0  0  0  0  0  0  0  0
    3.7970   -0.5140   -0.7780 N   0  0  0  0  0  0  0  0  0  0  0  0
    5.1650   -0.4990   -1.2730 C   0  0  0  0  0  0  0  0  0  0  0  0
    5.3870   -0.6610   -2.4940 O   0  0  0  0  0  0  0  0  0  0  0  0
    6.2540   -0.3040   -0.4000 N   0  0  0  0  0  0  0  0  0  0  0  0
    7.6250   -0.2630   -0.7430 C   0  0  0  0  0  0  0  0  0  0  0  0
    8.1650   -0.3630   -1.9830 C   0  0  0  0  0  0  0  0  0  0  0  0
    9.5530   -0.3070   -2.1690 C   0  0  0  0  0  0  0  0  0  0  0  0
   10.4320   -0.1500   -1.1280 C   0  0  0  0  0  0  0  0  0  0  0  0
    9.8980   -0.0470    0.1340 C   0  0  0  0  0  0  0  0  0  0  0  0
    8.5270   -0.1040    0.3080 C   0  0  0  0  0  0  0  0  0  0  0  0
   11.0510    0.1150    1.0620 C   0  0  0  0  0  0  0  0  0  0  0  0
   12.2380   -0.3340    0.2520 C   0  0  0  0  0  0  0  0  0  0  0  0
   11.8170   -0.0700   -1.0780 O   0  0  0  0  0  0  0  0  0  0  0  0
   -0.9040   -0.7670   -0.4410 C   0  0  1  0  0  0  0  0  0  0  0  0
   -1.4780   -2.0150    0.1070 C   0  0  0  0  0  0  0  0  0  0  0  0
   -2.7760   -1.9720    0.7930 C   0  0  0  0  0  0  0  0  0  0  0  0
   -3.2180   -0.6550    1.3490 C   0  0  0  0  0  0  0  0  0  0  0  0
   -2.9170    0.4680    0.4360 C   0  0  2  0  0  0  0  0  0  0  0  0
   -3.9260    0.5260   -0.6500 C   0  0  0  0  0  0  0  0  0  0  0  0
   -3.4310    0.3080   -1.8140 O   0  0  0  0  0  0  0  0  0  0  0  0
   -5.3180    0.7930   -0.4590 C   0  0  0  0  0  0  0  0  0  0  0  0
   -6.1180    1.0480    0.6100 C   0  0  0  0  0  0  0  0  0  0  0  0
   -6.5670    2.3990    0.7400 N   0  0  0  0  0  0  0  0  0  0  0  0
   -6.7770    3.1980   -0.5060 C   0  0  0  0  0  0  0  0  0  0  0  0
   -6.9440    2.2520   -1.7440 C   0  0  0  0  0  0  0  0  0  0  0  0
   -6.4960    0.8900   -1.4130 C   0  0  0  0  0  0  0  0  0  0  0  0
   -7.3770    0.0030   -1.8260 C   0  0  0  0  0  0  0  0  0  0  0  0
   -8.0390   -1.1780   -1.1350 C   0  0  0  0  0  0  0  0  0  0  0  0
   -8.0330   -1.5790    0.1520 C   0  0  0  0  0  0  0  0  0  0  0  0
   -7.5980   -0.9210    1.4190 C   0  0  0  0  0  0  0  0  0  0  0  0
   -6.9190    0.2780    1.5430 C   0  0  0  0  0  0  0  0  0  0  0  0
   -7.0440    0.9990    2.7920 C   0  0  0  0  0  0  0  0  0  0  0  0
   -1.5400    0.5170   -0.0650 C   0  0  0  0  0  0  0  0  0  0  0  0
  1  2  1  0
  2  3  1  0
  3  4  1  0
 20  3  1  1
  4  5  2  0
  4  6  1  0
  6  7  1  0
  7  8  1  0
  8  9  2  0
  8 10  1  0
 10 11  1  0
 11 12  2  0
 11 16  1  0
 12 13  1  0
 13 14  2  0
 14 15  1  0
 14 19  1  0
 15 16  2  0
 15 17  1  0
 17 18  1  0
 18 19  1  0
 20 21  1  0
 20 39  1  0
 21 22  1  0
 22 23  1  0
 23 24  1  0
 24 25  1  6
 24 39  1  0
 25 26  2  0
 25 27  1  0
 27 28  2  0
 27 32  1  0
 28 29  1  0
 28 37  1  0
 29 30  1  0
 30 31  1  0
 31 32  1  0
 32 33  2  0
 33 34  1  0
 34 35  2  0
 35 36  1  0
 36 37  2  0
 37 38  1  0
M  END
