
     RDKit          3D

 39 43  0  0  0  0  0  0  0  0999 V2000
   -6.1800   -0.2100   -3.2290 C   0  0  0  0  0  0  0  0  0  0  0  0
   -4.9540   -0.3660   -2.4380 C   0  0  0  0  0  0  0  0  0  0  0  0
   -3.7450   -0.5340   -3.2550 C   0  0  0  0  0  0  0  0  0  0  0  0
   -2.6060   -0.6380   -2.5260 C   0  0  0  0  0  0  0  0  0  0  0  0
   -2.4300   -0.6180   -1.1490 C   0  0  0  0  0  0  0  0  0  0  0  0
   -1.0990   -0.6380   -0.6700 C   0  0  0  0  0  0  0  0  0  0  0  0
   -0.2980    0.2690   -1.2540 O   0  0  0  0  0  0  0  0  0  0  0  0
   -0.3990   -1.4040    0.2710 N   0  0  0  0  0  0  0  0  0  0  0  0
    1.0360   -1.0630    0.4060 C   0  0  0  0  0  0  0  0  0  0  0  0
    1.9980   -2.0040    0.2700 C   0  0  0  0  0  0  0  0  0  0  0  0
    3.3350   -1.5500    0.2090 C   0  0  0  0  0  0  0  0  0  0  0  0
    3.7030   -0.2510    0.2600 C   0  0  0  0  0  0  0  0  0  0  0  0
    5.0380    0.2930    0.1280 C   0  0  0  0  0  0  0  0  0  0  0  0
    6.1650   -0.5470   -0.1190 N   0  0  2  0  0  0  0  0  0  0  0  0
    7.0000   -0.7190    1.0310 C   0  0  0  0  0  0  0  0  0  0  0  0
    8.1760    0.2280    1.0890 C   0  0  0  0  0  0  0  0  0  0  0  0
    8.0760    1.2590    0.1130 N   0  0  1  0  0  0  0  0  0  0  0  0
    8.9660    2.3250    0.2730 C   0  0  0  0  0  0  0  0  0  0  0  0
    8.1290    0.5620   -1.1930 C   0  0  0  0  0  0  0  0  0  0  0  0
    6.8260   -0.1360   -1.3300 C   0  0  0  0  0  0  0  0  0  0  0  0
    2.6470    0.6690    0.3880 C   0  0  0  0  0  0  0  0  0  0  0  0
    2.9520    2.1220    0.3500 C   0  0  1  0  0  0  0  0  0  0  0  0
    3.8060    2.5580    1.3410 F   0  0  0  0  0  0  0  0  0  0  0  0
    3.3360    2.5630   -0.9190 F   0  0  0  0  0  0  0  0  0  0  0  0
    1.7570    2.8330    0.5770 F   0  0  0  0  0  0  0  0  0  0  0  0
    1.3190    0.2560    0.4700 C   0  0  0  0  0  0  0  0  0  0  0  0
   -3.6540   -0.4580   -0.4040 C   0  0  0  0  0  0  0  0  0  0  0  0
   -4.7870   -0.3430   -1.1800 C   0  0  0  0  0  0  0  0  0  0  0  0
   -5.9430    0.0300   -0.3860 C   0  0  0  0  0  0  0  0  0  0  0  0
   -7.0260    0.3890    0.3840 C   0  0  0  0  0  0  0  0  0  0  0  0
   -8.1320    0.7590    1.1980 C   0  0  0  0  0  0  0  0  0  0  0  0
   -8.4650    1.5730    1.8650 C   0  0  0  0  0  0  0  0  0  0  0  0
   -9.6720    1.5320    2.5220 N   0  0  0  0  0  0  0  0  0  0  0  0
  -10.1350    0.2790    2.0390 C   0  0  0  0  0  0  0  0  0  0  0  0
  -11.2530   -0.4920    2.3320 C   0  0  0  0  0  0  0  0  0  0  0  0
  -11.3370   -1.8170    1.7300 C   0  0  0  0  0  0  0  0  0  0  0  0
  -10.3460   -2.1670    0.9570 C   0  0  0  0  0  0  0  0  0  0  0  0
   -9.2890   -1.4310    0.6650 N   0  0  0  0  0  0  0  0  0  0  0  0
   -9.1670   -0.3050    1.1450 N   0  0  0  0  0  0  0  0  0  0  0  0
  1  2  1  0
  2  3  2  0
  2 28  1  0
  3  4  1  0
  4  5  2  0
  5  6  1  0
  5 27  1  0
  6  7  2  0
  6  8  1  0
  8  9  1  0
  9 10  2  0
  9 26  1  0
 10 11  1  0
 11 12  2  0
 12 13  1  0
 12 21  1  0
 14 13  1  1
 14 15  1  0
 14 20  1  0
 15 16  1  0
 16 17  1  0
 17 18  1  6
 17 19  1  0
 19 20  1  0
 21 22  1  0
 21 26  2  0
 22 23  1  1
 22 24  1  0
 22 25  1  0
 27 28  2  0
 28 29  1  0
 29 30  3  0
 30 31  1  0
 31 32  2  0
 31 39  1  0
 32 33  1  0
 33 34  2  0
 34 35  1  0
 34 39  1  0
 35 36  2  0
 36 37  1  0
 37 38  2  0
 38 39  1  0
M  CHG  2  14   1  17   1
M  END
