
     RDKit          3D

 39 43  0  0  0  0  0  0  0  0999 V2000
    9.4450   -1.4640    0.9700 C   0  0  0  0  0  0  0  0  0  0  0  0
    8.2490   -0.6280    0.7200 C   0  0  0  0  0  0  0  0  0  0  0  0
    8.2390    0.5490    1.0120 O   0  0  0  0  0  0  0  0  0  0  0  0
    7.0460   -1.2410    0.1040 C   0  0  0  0  0  0  0  0  0  0  0  0
    5.9480   -0.2130   -0.0600 C   0  0  0  0  0  0  0  0  0  0  0  0
    4.7380   -0.8650   -0.6890 C   0  0  0  0  0  0  0  0  0  0  0  0
    3.6520    0.0450   -0.8760 N   0  0  0  0  0  0  0  0  0  0  0  0
    3.0100    0.7500    0.1720 C   0  0  0  0  0  0  0  0  0  0  0  0
    3.4500    0.5420    1.3630 O   0  0  0  0  0  0  0  0  0  0  0  0
    1.9060    1.6730   -0.0930 C   0  0  2  0  0  0  0  0  0  0  0  0
    0.5300    1.2060   -0.0330 C   0  0  0  0  0  0  0  0  0  0  0  0
    0.0170    0.1310   -0.9100 C   0  0  1  0  0  0  0  0  0  0  0  0
    0.7580   -1.1500   -0.6770 C   0  0  0  0  0  0  0  0  0  0  0  0
   -0.1040   -2.3710   -0.4550 C   0  0  1  0  0  0  0  0  0  0  0  0
    0.8290   -3.4860   -0.0120 C   0  0  0  0  0  0  0  0  0  0  0  0
   -1.0980   -2.0320    0.6370 C   0  0  0  0  0  0  0  0  0  0  0  0
   -2.0140   -1.0430   -0.0030 C   0  0  0  0  0  0  0  0  0  0  0  0
   -1.4740   -0.0270   -0.7420 C   0  0  0  0  0  0  0  0  0  0  0  0
   -2.5440    0.6990   -1.2040 C   0  0  0  0  0  0  0  0  0  0  0  0
   -3.7220    0.1300   -0.7500 C   0  0  0  0  0  0  0  0  0  0  0  0
   -3.3430   -0.9390   -0.0140 N   0  0  0  0  0  0  0  0  0  0  0  0
   -4.3190   -1.7780    0.6210 C   0  0  0  0  0  0  0  0  0  0  0  0
   -5.1720   -2.5700   -0.1180 C   0  0  0  0  0  0  0  0  0  0  0  0
   -6.0810   -3.3480    0.5430 C   0  0  0  0  0  0  0  0  0  0  0  0
   -6.1210   -3.3190    1.9280 C   0  0  0  0  0  0  0  0  0  0  0  0
   -5.2760   -2.5330    2.6820 C   0  0  0  0  0  0  0  0  0  0  0  0
   -4.3600   -1.7500    2.0000 C   0  0  0  0  0  0  0  0  0  0  0  0
   -4.9970    0.7640   -1.1410 C   0  0  0  0  0  0  0  0  0  0  0  0
   -4.8960    2.2690   -1.0090 C   0  0  1  0  0  0  0  0  0  0  0  0
   -6.2080    2.8480   -1.4950 C   0  0  0  0  0  0  0  0  0  0  0  0
   -4.6550    2.5670    0.4570 C   0  0  0  0  0  0  0  0  0  0  0  0
   -3.7980    2.8300   -1.8830 C   0  0  0  0  0  0  0  0  0  0  0  0
   -2.6710    1.8970   -2.0400 C   0  0  0  0  0  0  0  0  0  0  0  0
   -1.7670    2.0850   -2.8950 O   0  0  0  0  0  0  0  0  0  0  0  0
    2.2310    2.5130   -1.3360 C   0  0  0  0  0  0  0  0  0  0  0  0
    3.5410    3.0360   -0.9090 N   0  0  0  0  0  0  0  0  0  0  0  0
    3.3340    3.3560    0.4630 C   0  0  0  0  0  0  0  0  0  0  0  0
    4.1300    4.0710    1.1600 O   0  0  0  0  0  0  0  0  0  0  0  0
    2.1220    2.7630    0.9180 N   0  0  0  0  0  0  0  0  0  0  0  0
  1  2  1  0
  2  3  2  0
  2  4  1  0
  4  5  1  0
  5  6  1  0
  6  7  1  0
  7  8  1  0
  8  9  2  0
  8 10  1  0
 10 11  1  6
 10 35  1  0
 10 39  1  0
 12 11  1  1
 12 13  1  0
 12 18  1  0
 13 14  1  0
 14 15  1  1
 14 16  1  0
 16 17  1  0
 17 18  2  0
 17 21  1  0
 18 19  1  0
 19 20  2  0
 19 33  1  0
 20 21  1  0
 20 28  1  0
 21 22  1  0
 22 23  2  0
 22 27  1  0
 23 24  1  0
 24 25  2  0
 25 26  1  0
 26 27  2  0
 28 29  1  0
 29 30  1  6
 29 31  1  0
 29 32  1  0
 32 33  1  0
 33 34  2  0
 35 36  1  0
 36 37  1  0
 37 38  2  0
 37 39  1  0
M  END
