
     RDKit          3D

 39 43  0  0  0  0  0  0  0  0999 V2000
    7.6500    4.2900   -2.6790 C   0  0  0  0  0  0  0  0  0  0  0  0
    8.1630    4.0050   -1.3060 C   0  0  0  0  0  0  0  0  0  0  0  0
    7.9350    2.6370   -0.8260 C   0  0  0  0  0  0  0  0  0  0  0  0
    8.8980    1.6560   -1.0680 C   0  0  0  0  0  0  0  0  0  0  0  0
    8.6710    0.3710   -0.6020 C   0  0  0  0  0  0  0  0  0  0  0  0
    7.5420    0.0210    0.0890 C   0  0  0  0  0  0  0  0  0  0  0  0
    6.5900    0.9870    0.3300 C   0  0  0  0  0  0  0  0  0  0  0  0
    6.8030    2.2660   -0.1290 C   0  0  0  0  0  0  0  0  0  0  0  0
    5.4740    0.3830    1.0880 C   0  0  0  0  0  0  0  0  0  0  0  0
    5.6150   -1.0870    0.7860 C   0  0  1  0  0  0  0  0  0  0  0  0
    4.9710   -1.3550   -0.5470 C   0  0  0  0  0  0  0  0  0  0  0  0
    3.5570   -1.0210   -0.5640 N   0  0  0  0  0  0  0  0  0  0  0  0
    2.6270   -1.6630    0.3000 C   0  0  0  0  0  0  0  0  0  0  0  0
    3.1020   -2.5440    1.0770 O   0  0  0  0  0  0  0  0  0  0  0  0
    1.2030   -1.3690    0.3340 C   0  0  0  0  0  0  0  0  0  0  0  0
    0.3900   -2.1590    1.1220 C   0  0  0  0  0  0  0  0  0  0  0  0
   -0.9800   -1.9360    1.2060 C   0  0  0  0  0  0  0  0  0  0  0  0
   -1.5560   -0.9150    0.5020 C   0  0  0  0  0  0  0  0  0  0  0  0
   -3.0460   -0.7230    0.6170 C   0  0  0  0  0  0  0  0  0  0  0  0
   -3.7810   -1.3370   -0.5260 C   0  0  1  0  0  0  0  0  0  0  0  0
   -3.4850   -2.8440   -0.6340 C   0  0  0  0  0  0  0  0  0  0  0  0
   -4.4800   -3.5490    0.2080 C   0  0  0  0  0  0  0  0  0  0  0  0
   -4.1640   -4.2110    1.1350 O   0  0  0  0  0  0  0  0  0  0  0  0
   -5.9490   -3.4090   -0.1410 C   0  0  0  0  0  0  0  0  0  0  0  0
   -6.0220   -2.2190   -1.1130 C   0  0  0  0  0  0  0  0  0  0  0  0
   -5.2070   -1.1900   -0.5120 N   0  0  0  0  0  0  0  0  0  0  0  0
   -5.8330   -0.0750    0.0850 C   0  0  0  0  0  0  0  0  0  0  0  0
   -5.1560    0.8500    0.5810 O   0  0  0  0  0  0  0  0  0  0  0  0
   -7.2490    0.0820    0.1690 N   0  0  0  0  0  0  0  0  0  0  0  0
   -7.9580    1.1670    0.7410 C   0  0  0  0  0  0  0  0  0  0  0  0
   -7.4210    2.2920    1.2840 C   0  0  0  0  0  0  0  0  0  0  0  0
   -8.2590    3.2690    1.7950 C   0  0  0  0  0  0  0  0  0  0  0  0
   -9.6250    3.1120    1.7590 C   0  0  0  0  0  0  0  0  0  0  0  0
  -10.1340    1.9930    1.2180 N   0  0  0  0  0  0  0  0  0  0  0  0
   -9.3580    1.0260    0.7130 C   0  0  0  0  0  0  0  0  0  0  0  0
   -9.9090   -0.0090    0.2160 O   0  0  0  0  0  0  0  0  0  0  0  0
   -0.7500   -0.1380   -0.2730 C   0  0  0  0  0  0  0  0  0  0  0  0
    0.6300   -0.3540   -0.3660 C   0  0  0  0  0  0  0  0  0  0  0  0
    7.1040   -1.2730    0.6700 C   0  0  0  0  0  0  0  0  0  0  0  0
  1  2  1  0
  2  3  1  0
  3  4  2  0
  3  8  1  0
  4  5  1  0
  5  6  2  0
  6  7  1  0
  6 39  1  0
  7  8  2  0
  7  9  1  0
  9 10  1  0
 10 11  1  6
 10 39  1  0
 11 12  1  0
 12 13  1  0
 13 14  2  0
 13 15  1  0
 15 16  2  0
 15 38  1  0
 16 17  1  0
 17 18  2  0
 18 19  1  0
 18 37  1  0
 20 19  1  1
 20 21  1  0
 20 26  1  0
 21 22  1  0
 22 23  2  0
 22 24  1  0
 24 25  1  0
 25 26  1  0
 26 27  1  0
 27 28  2  0
 27 29  1  0
 29 30  1  0
 30 31  2  0
 30 35  1  0
 31 32  1  0
 32 33  2  0
 33 34  1  0
 34 35  1  0
 35 36  2  0
 37 38  2  0
M  END
