
     RDKit          3D

 32 34  0  0  0  0  0  0  0  0999 V2000
    2.0380    3.6520    0.9590 C   0  0  0  0  0  0  0  0  0  0  0  0
    2.5710    2.2470    1.0480 C   0  0  1  0  0  0  0  0  0  0  0  0
    1.5740    1.2760    0.4610 C   0  0  0  0  0  0  0  0  0  0  0  0
    0.3960    1.0750    1.2740 N   0  0  0  0  0  0  0  0  0  0  0  0
   -0.1190   -0.2200    0.9520 C   0  0  1  0  0  0  0  0  0  0  0  0
   -0.2500   -0.3400   -0.5320 C   0  0  0  0  0  0  0  0  0  0  0  0
   -1.1620    0.6800   -1.0090 N   0  0  0  0  0  0  0  0  0  0  0  0
   -2.4700    0.2360   -1.3090 C   0  0  1  0  0  0  0  0  0  0  0  0
   -2.5300   -1.2310   -1.7020 C   0  0  0  0  0  0  0  0  0  0  0  0
   -3.8920   -1.4260   -2.3850 C   0  0  2  0  0  0  0  0  0  0  0  0
   -4.1410   -0.3700   -3.4410 C   0  0  0  0  0  0  0  0  0  0  0  0
   -4.8830   -1.2500   -1.3780 O   0  0  0  0  0  0  0  0  0  0  0  0
   -4.6930   -0.2430   -0.4170 C   0  0  0  0  0  0  0  0  0  0  0  0
   -5.7640   -0.0720    0.4430 C   0  0  0  0  0  0  0  0  0  0  0  0
   -5.6910    0.8750    1.4120 C   0  0  0  0  0  0  0  0  0  0  0  0
   -4.5460    1.6300    1.4990 C   0  0  0  0  0  0  0  0  0  0  0  0
   -4.4470    2.5980    2.4740 F   0  0  0  0  0  0  0  0  0  0  0  0
   -3.4680    1.4670    0.6430 C   0  0  0  0  0  0  0  0  0  0  0  0
   -3.5330    0.5120   -0.3380 C   0  0  0  0  0  0  0  0  0  0  0  0
    0.5260   -1.3780    1.6130 C   0  0  0  0  0  0  0  0  0  0  0  0
    0.1890   -1.4150    3.1020 C   0  0  2  0  0  0  0  0  0  0  0  0
    0.7260   -2.4440    3.7700 F   0  0  0  0  0  0  0  0  0  0  0  0
   -1.1910   -1.4750    3.1930 F   0  0  0  0  0  0  0  0  0  0  0  0
    1.3190   -2.3250    1.1770 C   0  0  0  0  0  0  0  0  0  0  0  0
    1.9370   -2.7090   -0.0580 C   0  0  0  0  0  0  0  0  0  0  0  0
    3.1620   -2.7580   -0.5150 N   0  0  0  0  0  0  0  0  0  0  0  0
    4.4480   -2.4830   -0.0790 C   0  0  0  0  0  0  0  0  0  0  0  0
    5.4100   -1.6270   -0.3180 C   0  0  0  0  0  0  0  0  0  0  0  0
    5.6170   -0.5030   -1.1910 C   0  0  0  0  0  0  0  0  0  0  0  0
    4.9750    0.6460   -1.2710 C   0  0  0  0  0  0  0  0  0  0  0  0
    3.8420    0.9270   -0.3610 C   0  0  0  0  0  0  0  0  0  0  0  0
    3.8160    2.2180    0.2440 N   0  0  0  0  0  0  0  0  0  0  0  0
  2  1  1  6
  2  3  1  0
  2 32  1  0
  3  4  1  0
  4  5  1  0
  5  6  1  6
  5 20  1  0
  6  7  1  0
  8  7  1  1
  8  9  1  0
  8 19  1  0
  9 10  1  0
 10 11  1  6
 10 12  1  0
 12 13  1  0
 13 14  2  0
 13 19  1  0
 14 15  1  0
 15 16  2  0
 16 17  1  0
 16 18  1  0
 18 19  2  0
 20 21  1  0
 20 24  2  0
 21 22  1  6
 21 23  1  0
 24 25  1  0
 25 26  2  0
 26 27  1  0
 27 28  2  0
 28 29  1  0
 29 30  2  0
 30 31  1  0
 31 32  1  0
M  CHG  2   7   1  26   1
M  END
