
     RDKit          3D

 32 35  0  0  0  0  0  0  0  0999 V2000
   -2.3680   -1.4520    3.2590 C   0  0  0  0  0  0  0  0  0  0  0  0
   -1.1540   -1.4870    2.4380 C   0  0  0  0  0  0  0  0  0  0  0  0
   -0.0500   -0.7810    2.8690 C   0  0  0  0  0  0  0  0  0  0  0  0
    1.1430   -0.7820    2.1670 C   0  0  0  0  0  0  0  0  0  0  0  0
    1.1890   -1.5200    1.0150 C   0  0  0  0  0  0  0  0  0  0  0  0
    2.4140   -1.5480    0.2630 N   0  0  0  0  0  0  0  0  0  0  0  0
    3.5100   -0.6380    0.5520 C   0  0  1  0  0  0  0  0  0  0  0  0
    4.7030   -1.0520   -0.2730 C   0  0  0  0  0  0  0  0  0  0  0  0
    5.7690   -0.1750   -0.2100 O   0  0  0  0  0  0  0  0  0  0  0  0
    5.4170    1.0420    0.3690 C   0  0  0  0  0  0  0  0  0  0  0  0
    4.1360    1.5770   -0.1980 C   0  0  1  0  0  0  0  0  0  0  0  0
    4.2230    1.9150   -1.6640 C   0  0  0  0  0  0  0  0  0  0  0  0
    5.2620    2.9610   -1.9370 C   0  0  1  0  0  0  0  0  0  0  0  0
    5.2460    3.1900   -3.3150 F   0  0  0  0  0  0  0  0  0  0  0  0
    4.9220    4.1080   -1.2380 F   0  0  0  0  0  0  0  0  0  0  0  0
    3.0360    0.6600    0.0270 N   0  0  0  0  0  0  0  0  0  0  0  0
    0.0880   -2.2260    0.5790 C   0  0  0  0  0  0  0  0  0  0  0  0
   -1.1260   -2.2290    1.2860 C   0  0  0  0  0  0  0  0  0  0  0  0
   -2.2310   -2.9660    0.7660 C   0  0  0  0  0  0  0  0  0  0  0  0
   -3.3570   -2.6250    0.2170 C   0  0  0  0  0  0  0  0  0  0  0  0
   -4.3670   -3.5770   -0.2450 C   0  0  0  0  0  0  0  0  0  0  0  0
   -5.3480   -2.8790   -0.7660 C   0  0  0  0  0  0  0  0  0  0  0  0
   -5.0460   -1.4970   -0.6780 N   0  0  0  0  0  0  0  0  0  0  0  0
   -3.9020   -1.3170   -0.1170 C   0  0  0  0  0  0  0  0  0  0  0  0
   -3.3010   -0.0540    0.1010 N   0  0  0  0  0  0  0  0  0  0  0  0
   -3.5310    1.0920   -0.7630 C   0  0  0  0  0  0  0  0  0  0  0  0
   -3.9520    0.9840   -2.0480 C   0  0  0  0  0  0  0  0  0  0  0  0
   -4.1880    2.1450   -2.7780 C   0  0  0  0  0  0  0  0  0  0  0  0
   -3.9940    3.3970   -2.2010 C   0  0  0  0  0  0  0  0  0  0  0  0
   -4.2230    4.5390   -2.9050 F   0  0  0  0  0  0  0  0  0  0  0  0
   -3.5680    3.4890   -0.9060 C   0  0  0  0  0  0  0  0  0  0  0  0
   -3.3410    2.3410   -0.2030 C   0  0  0  0  0  0  0  0  0  0  0  0
  1  2  1  0
  2  3  2  0
  2 18  1  0
  3  4  1  0
  4  5  2  0
  5  6  1  0
  5 17  1  0
  7  6  1  6
  7  8  1  0
  7 16  1  0
  8  9  1  0
  9 10  1  0
 10 11  1  0
 11 12  1  6
 11 16  1  0
 12 13  1  0
 13 14  1  6
 13 15  1  0
 17 18  2  0
 18 19  1  0
 19 20  2  3
 20 21  1  0
 20 24  1  0
 21 22  2  0
 22 23  1  0
 23 24  2  0
 24 25  1  0
 25 26  1  0
 26 27  2  0
 26 32  1  0
 27 28  1  0
 28 29  2  0
 29 30  1  0
 29 31  1  0
 31 32  2  0
M  CHG  2  16   1  23   1
M  END
