
     RDKit          3D

 33 36  0  0  0  0  0  0  0  0999 V2000
    3.0350   -0.4580   -1.9230 N   0  0  0  0  0  0  0  0  0  0  0  0
    3.8620    0.5840   -1.4050 C   0  0  0  0  0  0  0  0  0  0  0  0
    4.0570    0.6100    0.0470 C   0  0  0  0  0  0  0  0  0  0  0  0
    5.1600    0.3870    0.7210 C   0  0  0  0  0  0  0  0  0  0  0  0
    6.4700    0.0480    0.1980 C   0  0  0  0  0  0  0  0  0  0  0  0
    7.5570   -0.1250    0.9770 C   0  0  0  0  0  0  0  0  0  0  0  0
    8.7390   -0.4590    0.1470 C   0  0  0  0  0  0  0  0  0  0  0  0
    8.1360   -1.0120   -1.0230 N   0  0  0  0  0  0  0  0  0  0  0  0
    6.8960   -0.2460   -1.1730 C   0  0  0  0  0  0  0  0  0  0  0  0
    2.8730    1.0170    0.9290 C   0  0  0  0  0  0  0  0  0  0  0  0
    1.8300    0.2740    0.9190 O   0  0  0  0  0  0  0  0  0  0  0  0
    0.7600   -0.4270    0.7290 C   0  0  0  0  0  0  0  0  0  0  0  0
    0.3090   -0.3050   -0.4820 O   0  0  0  0  0  0  0  0  0  0  0  0
   -0.0110   -1.3240    1.6600 C   0  0  0  0  0  0  0  0  0  0  0  0
   -0.9280   -0.5420    2.4860 C   0  0  0  0  0  0  0  0  0  0  0  0
   -1.9300    0.2370    1.9030 N   0  0  0  0  0  0  0  0  0  0  0  0
   -1.7600    1.5020    1.5580 C   0  0  0  0  0  0  0  0  0  0  0  0
   -0.6570    2.0150    1.7580 O   0  0  0  0  0  0  0  0  0  0  0  0
   -2.7330    2.2580    0.9970 N   0  0  0  0  0  0  0  0  0  0  0  0
   -3.9480    1.7170    0.7680 C   0  0  0  0  0  0  0  0  0  0  0  0
   -4.2000    0.4050    1.0990 C   0  0  0  0  0  0  0  0  0  0  0  0
   -3.1430   -0.3180    1.6770 C   0  0  0  0  0  0  0  0  0  0  0  0
   -3.3350   -1.5190    1.9970 O   0  0  0  0  0  0  0  0  0  0  0  0
   -5.4900   -0.2380    0.8730 C   0  0  2  0  0  0  0  0  0  0  0  0
   -5.6300   -0.6710   -0.5380 C   0  0  0  0  0  0  0  0  0  0  0  0
   -6.4180    0.0280   -1.4510 C   0  0  0  0  0  0  0  0  0  0  0  0
   -6.4930   -0.4320   -2.7270 C   0  0  0  0  0  0  0  0  0  0  0  0
   -5.8370   -1.5530   -3.1810 C   0  0  0  0  0  0  0  0  0  0  0  0
   -5.0690   -2.2320   -2.2860 C   0  0  0  0  0  0  0  0  0  0  0  0
   -4.9630   -1.8030   -0.9810 C   0  0  0  0  0  0  0  0  0  0  0  0
   -6.6700    0.5540    1.3500 C   0  0  0  0  0  0  0  0  0  0  0  0
   -6.5730    2.3060    0.9820 S   0  0  0  0  0  0  0  0  0  0  0  0
   -4.9830    2.6010    0.1660 C   0  0  0  0  0  0  0  0  0  0  0  0
  1  2  1  0
  2  3  1  0
  3  4  2  3
  3 10  1  0
  4  5  1  0
  5  6  2  0
  5  9  1  0
  6  7  1  0
  7  8  1  0
  8  9  1  0
 10 11  1  0
 11 12  1  0
 12 13  2  0
 12 14  1  0
 14 15  1  0
 15 16  1  0
 16 17  1  0
 16 22  1  0
 17 18  2  0
 17 19  1  0
 19 20  1  0
 20 21  2  0
 20 33  1  0
 21 22  1  0
 21 24  1  0
 22 23  2  0
 24 25  1  6
 24 31  1  0
 25 26  2  0
 25 30  1  0
 26 27  1  0
 27 28  2  0
 28 29  1  0
 29 30  2  0
 31 32  1  0
 32 33  1  0
M  CHG  2   1   1   8   1
M  END
