
     RDKit          3D

 31 34  0  0  0  0  0  0  0  0999 V2000
    1.9030    0.1880   -2.1220 C   0  0  0  0  0  0  0  0  0  0  0  0
    2.0400   -0.5600   -0.8390 C   0  0  1  0  0  0  0  0  0  0  0  0
    2.7720    0.1850    0.2260 C   0  0  0  0  0  0  0  0  0  0  0  0
    4.1790    0.5690   -0.1180 C   0  0  1  0  0  0  0  0  0  0  0  0
    4.8390    1.3280    1.0420 C   0  0  0  0  0  0  0  0  0  0  0  0
    6.1330    1.7640    0.6360 N   0  0  0  0  0  0  0  0  0  0  0  0
    6.2100    3.0960    0.1270 C   0  0  0  0  0  0  0  0  0  0  0  0
    6.9490    0.8010   -0.0220 C   0  0  0  0  0  0  0  0  0  0  0  0
    6.2290   -0.0480   -1.0180 C   0  0  0  0  0  0  0  0  0  0  0  0
    5.0290   -0.5810   -0.3570 N   0  0  0  0  0  0  0  0  0  0  0  0
    0.7540   -0.9370   -0.2730 N   0  0  0  0  0  0  0  0  0  0  0  0
   -0.0900   -1.6440   -1.1760 C   0  0  1  0  0  0  0  0  0  0  0  0
   -0.0640   -3.1420   -0.9720 C   0  0  0  0  0  0  0  0  0  0  0  0
   -0.1980   -3.5510    0.4570 C   0  0  0  0  0  0  0  0  0  0  0  0
   -1.3320   -2.8360    1.0690 C   0  0  0  0  0  0  0  0  0  0  0  0
   -1.9890   -3.0010    2.2290 N   0  0  0  0  0  0  0  0  0  0  0  0
   -2.9310   -2.1150    2.3390 O   0  0  0  0  0  0  0  0  0  0  0  0
   -2.9610   -1.3210    1.2800 C   0  0  0  0  0  0  0  0  0  0  0  0
   -3.9230   -0.1950    1.0850 C   0  0  2  0  0  0  0  0  0  0  0  0
   -4.8080   -0.0270    2.3020 C   0  0  0  0  0  0  0  0  0  0  0  0
   -4.7620   -0.4050   -0.1550 C   0  0  0  0  0  0  0  0  0  0  0  0
   -5.6810    0.7450   -0.2740 C   0  0  0  0  0  0  0  0  0  0  0  0
   -6.9280    0.7470    0.3020 C   0  0  0  0  0  0  0  0  0  0  0  0
   -7.8020    1.8200    0.1980 C   0  0  0  0  0  0  0  0  0  0  0  0
   -7.3610    2.9220   -0.5280 C   0  0  0  0  0  0  0  0  0  0  0  0
   -8.1730    4.0190   -0.6730 F   0  0  0  0  0  0  0  0  0  0  0  0
   -6.1240    2.9590   -1.1180 C   0  0  0  0  0  0  0  0  0  0  0  0
   -5.7470    4.0450   -1.8070 F   0  0  0  0  0  0  0  0  0  0  0  0
   -5.2990    1.8690   -0.9830 C   0  0  0  0  0  0  0  0  0  0  0  0
   -1.9440   -1.7710    0.4610 C   0  0  0  0  0  0  0  0  0  0  0  0
   -1.5380   -1.2240   -0.8720 C   0  0  0  0  0  0  0  0  0  0  0  0
  2  1  1  6
  2  3  1  0
  2 11  1  0
  4  3  1  1
  4  5  1  0
  4 10  1  0
  5  6  1  0
  6  7  1  0
  6  8  1  0
  8  9  1  0
  9 10  1  0
 12 11  1  1
 12 13  1  0
 12 31  1  0
 13 14  1  0
 14 15  1  0
 15 16  2  0
 15 30  1  0
 16 17  1  0
 17 18  1  0
 18 19  1  0
 18 30  2  0
 19 20  1  1
 19 21  1  0
 21 22  1  0
 22 23  2  0
 22 29  1  0
 23 24  1  0
 24 25  2  0
 25 26  1  0
 25 27  1  0
 27 28  1  0
 27 29  2  0
 30 31  1  0
M  CHG  2  10   1  11   1
M  END
