
     RDKit          3D

 33 36  0  0  0  0  0  0  0  0999 V2000
   -2.9410    6.5170   -2.1850 C   0  0  0  0  0  0  0  0  0  0  0  0
   -2.2520    5.2870   -1.6720 C   0  0  0  0  0  0  0  0  0  0  0  0
   -1.3060    5.4420   -0.6940 C   0  0  0  0  0  0  0  0  0  0  0  0
   -0.6420    4.3300   -0.1890 C   0  0  0  0  0  0  0  0  0  0  0  0
   -0.9070    3.0570   -0.6450 C   0  0  0  0  0  0  0  0  0  0  0  0
   -0.1560    1.9090   -0.1580 C   0  0  0  0  0  0  0  0  0  0  0  0
    1.0870    2.1380    0.0300 O   0  0  0  0  0  0  0  0  0  0  0  0
   -0.7470    0.6060    0.1000 C   0  0  0  0  0  0  0  0  0  0  0  0
   -2.1220    0.4830    0.1170 C   0  0  0  0  0  0  0  0  0  0  0  0
   -2.7220   -0.7340    0.4450 C   0  0  0  0  0  0  0  0  0  0  0  0
   -4.1850   -0.8350    0.4590 C   0  0  0  0  0  0  0  0  0  0  0  0
   -4.8810    0.2120    0.3760 O   0  0  0  0  0  0  0  0  0  0  0  0
   -4.8310   -2.0800    0.5610 N   0  0  0  0  0  0  0  0  0  0  0  0
   -6.3030   -2.1850    0.5760 C   0  0  0  0  0  0  0  0  0  0  0  0
   -6.6640   -3.6290    0.6910 C   0  0  0  0  0  0  0  0  0  0  0  0
   -8.0860   -3.8450    0.7160 N   0  0  0  0  0  0  0  0  0  0  0  0
   -1.8930   -1.7690    0.7430 C   0  0  0  0  0  0  0  0  0  0  0  0
   -0.5810   -1.6380    0.7240 N   0  0  0  0  0  0  0  0  0  0  0  0
    0.0470   -0.4720    0.4090 C   0  0  0  0  0  0  0  0  0  0  0  0
    1.4660   -0.4750    0.3900 N   0  0  0  0  0  0  0  0  0  0  0  0
    2.1580   -1.6630    0.7590 C   0  0  0  0  0  0  0  0  0  0  0  0
    1.5230   -2.6650    1.1020 O   0  0  0  0  0  0  0  0  0  0  0  0
    3.6180   -1.7140    0.7370 C   0  0  0  0  0  0  0  0  0  0  0  0
    4.5830   -0.8020    0.4100 C   0  0  0  0  0  0  0  0  0  0  0  0
    5.8640   -1.1250    0.4820 C   0  0  0  0  0  0  0  0  0  0  0  0
    6.1360   -2.4780    0.9200 C   0  0  0  0  0  0  0  0  0  0  0  0
    4.5910   -3.1280    1.1770 S   0  0  0  0  0  0  0  0  0  0  0  0
    7.5840   -2.8060    0.9890 C   0  0  0  0  0  0  0  0  0  0  0  0
    8.2360   -1.7620    1.8680 C   0  0  0  0  0  0  0  0  0  0  0  0
    7.9050   -0.4260    1.4350 N   0  0  0  0  0  0  0  0  0  0  0  0
    7.1320   -0.3990    0.2070 C   0  0  0  0  0  0  0  0  0  0  0  0
   -1.8490    2.9120   -1.6190 C   0  0  0  0  0  0  0  0  0  0  0  0
   -2.5260    4.0350   -2.1350 C   0  0  0  0  0  0  0  0  0  0  0  0
  1  2  1  0
  2  3  2  0
  2 33  1  0
  3  4  1  0
  4  5  2  0
  5  6  1  0
  5 32  1  0
  6  7  2  0
  6  8  1  0
  8  9  2  0
  8 19  1  0
  9 10  1  0
 10 11  1  0
 10 17  2  0
 11 12  2  0
 11 13  1  0
 13 14  1  0
 14 15  1  0
 15 16  1  0
 17 18  1  0
 18 19  2  0
 19 20  1  0
 20 21  1  0
 21 22  2  0
 21 23  1  0
 23 24  2  0
 23 27  1  0
 24 25  1  0
 25 26  2  0
 25 31  1  0
 26 27  1  0
 26 28  1  0
 28 29  1  0
 29 30  1  0
 30 31  1  0
 32 33  2  0
M  CHG  2  16   1  30   1
M  END
