
     RDKit          3D

 32 35  0  0  0  0  0  0  0  0999 V2000
   -3.2100   -1.4830   -2.3640 C   0  0  0  0  0  0  0  0  0  0  0  0
   -3.0740   -0.1280   -1.8680 C   0  0  0  0  0  0  0  0  0  0  0  0
   -3.2850    0.3110   -0.4830 C   0  0  1  0  0  0  0  0  0  0  0  0
   -4.6340    0.0420    0.0320 C   0  0  0  0  0  0  0  0  0  0  0  0
   -5.5630    1.0530    0.3460 C   0  0  0  0  0  0  0  0  0  0  0  0
   -5.3340    2.4800   -0.0000 C   0  0  0  0  0  0  0  0  0  0  0  0
   -6.6210    0.5150    0.9160 N   0  0  0  0  0  0  0  0  0  0  0  0
   -6.4110   -0.7430    0.9710 O   0  0  0  0  0  0  0  0  0  0  0  0
   -5.2470   -1.1070    0.4690 C   0  0  0  0  0  0  0  0  0  0  0  0
   -4.7860   -2.4910    0.4410 C   0  0  0  0  0  0  0  0  0  0  0  0
   -2.2840   -0.2210    0.4670 N   0  0  2  0  0  0  0  0  0  0  0  0
   -2.7320    0.2590    1.7550 C   0  0  0  0  0  0  0  0  0  0  0  0
   -2.1600    1.6070    2.1400 C   0  0  0  0  0  0  0  0  0  0  0  0
   -0.6980    1.3210    2.5120 C   0  0  0  0  0  0  0  0  0  0  0  0
   -0.2920    0.1880    1.6200 C   0  0  0  0  0  0  0  0  0  0  0  0
   -0.9690    0.3890    0.2270 C   0  0  1  0  0  0  0  0  0  0  0  0
   -0.1400   -0.4050   -0.7320 C   0  0  0  0  0  0  0  0  0  0  0  0
    1.0850    0.1060   -1.1890 N   0  0  0  0  0  0  0  0  0  0  0  0
    2.2670    0.2510   -0.5030 C   0  0  2  0  0  0  0  0  0  0  0  0
    3.2370    1.0150   -1.4650 C   0  0  0  0  0  0  0  0  0  0  0  0
    4.4030    1.3870   -0.5350 C   0  0  0  0  0  0  0  0  0  0  0  0
    5.1580    0.1000   -0.4060 C   0  0  0  0  0  0  0  0  0  0  0  0
    4.3870   -1.0440   -0.3120 C   0  0  0  0  0  0  0  0  0  0  0  0
    5.0480   -2.2750   -0.2240 C   0  0  0  0  0  0  0  0  0  0  0  0
    6.4090   -2.3470   -0.2290 C   0  0  0  0  0  0  0  0  0  0  0  0
    7.1220   -1.2040   -0.3200 N   0  0  0  0  0  0  0  0  0  0  0  0
    6.5130    0.0100   -0.4080 C   0  0  0  0  0  0  0  0  0  0  0  0
    7.2870    1.2810   -0.4940 C   0  0  2  0  0  0  0  0  0  0  0  0
    6.9780    2.0980    0.6020 F   0  0  0  0  0  0  0  0  0  0  0  0
    7.1410    1.9370   -1.6800 F   0  0  0  0  0  0  0  0  0  0  0  0
    8.6210    0.9530   -0.3360 F   0  0  0  0  0  0  0  0  0  0  0  0
    2.9190   -1.0880   -0.2800 C   0  0  0  0  0  0  0  0  0  0  0  0
  1  2  1  0
  3  2  1  6
  3  4  1  0
  3 11  1  0
  4  5  1  0
  4  9  2  0
  5  6  1  0
  5  7  2  0
  7  8  1  0
  8  9  1  0
  9 10  1  0
 11 12  1  1
 11 16  1  0
 12 13  1  0
 13 14  1  0
 14 15  1  0
 15 16  1  0
 16 17  1  6
 17 18  1  0
 19 18  1  6
 19 20  1  0
 19 32  1  0
 20 21  1  0
 21 22  1  0
 22 23  2  0
 22 27  1  0
 23 24  1  0
 23 32  1  0
 24 25  2  0
 25 26  1  0
 26 27  2  0
 27 28  1  0
 28 29  1  1
 28 30  1  0
 28 31  1  0
M  CHG  2  11   1  26   1
M  END
