
     RDKit          3D

 31 34  0  0  0  0  0  0  0  0999 V2000
   -7.1340   -1.8810   -0.0700 C   0  0  0  0  0  0  0  0  0  0  0  0
   -5.8450   -1.4450   -0.8080 C   0  0  2  0  0  0  0  0  0  0  0  0
   -4.8440   -2.4360   -0.6710 N   0  0  0  0  0  0  0  0  0  0  0  0
   -5.5320   -0.0670   -0.5490 C   0  0  0  0  0  0  0  0  0  0  0  0
   -6.6540    0.6890   -0.6830 O   0  0  0  0  0  0  0  0  0  0  0  0
   -4.4450    0.7150   -0.2090 N   0  0  0  0  0  0  0  0  0  0  0  0
   -4.7600    2.1770   -0.0650 C   0  0  0  0  0  0  0  0  0  0  0  0
   -5.2850    2.4510    1.3320 C   0  0  2  0  0  0  0  0  0  0  0  0
   -5.5380    3.8080    1.3880 F   0  0  0  0  0  0  0  0  0  0  0  0
   -4.3490    2.1320    2.2560 F   0  0  0  0  0  0  0  0  0  0  0  0
   -3.0810    0.3930    0.0520 C   0  0  1  0  0  0  0  0  0  0  0  0
   -2.8580   -0.3490    1.3670 C   0  0  0  0  0  0  0  0  0  0  0  0
   -2.4590   -0.4340   -1.0770 C   0  0  0  0  0  0  0  0  0  0  0  0
   -1.0950    0.1980   -1.3500 C   0  0  0  0  0  0  0  0  0  0  0  0
   -0.7950    0.9510   -0.1370 N   0  0  1  0  0  0  0  0  0  0  0  0
    0.1200    2.0130   -0.4060 C   0  0  0  0  0  0  0  0  0  0  0  0
    1.5320    1.6280   -0.3100 C   0  0  0  0  0  0  0  0  0  0  0  0
    2.4970    2.5790   -0.5630 C   0  0  0  0  0  0  0  0  0  0  0  0
    3.8420    2.2790   -0.4900 C   0  0  0  0  0  0  0  0  0  0  0  0
    4.2450    0.9930   -0.1550 C   0  0  0  0  0  0  0  0  0  0  0  0
    3.2960    0.0260    0.1020 C   0  0  0  0  0  0  0  0  0  0  0  0
    1.9550    0.3600    0.0200 C   0  0  0  0  0  0  0  0  0  0  0  0
    3.5410   -1.3790    0.4700 C   0  0  0  0  0  0  0  0  0  0  0  0
    4.6740   -1.5440    1.4590 C   0  0  0  0  0  0  0  0  0  0  0  0
    6.0030   -1.3340    0.8390 C   0  0  0  0  0  0  0  0  0  0  0  0
    6.4270   -0.2840    0.1580 C   0  0  0  0  0  0  0  0  0  0  0  0
    7.8200   -0.4600   -0.2970 C   0  0  0  0  0  0  0  0  0  0  0  0
    8.3670   -1.5000    0.6410 C   0  0  0  0  0  0  0  0  0  0  0  0
    7.1110   -2.3330    0.9040 C   0  0  0  0  0  0  0  0  0  0  0  0
    5.6810    0.9140   -0.1400 N   0  0  0  0  0  0  0  0  0  0  0  0
   -2.1370    1.5750    0.0380 C   0  0  0  0  0  0  0  0  0  0  0  0
  2  1  1  1
  2  3  1  0
  2  4  1  0
  4  5  2  0
  4  6  1  0
  6  7  1  0
  6 11  1  0
  7  8  1  0
  8  9  1  6
  8 10  1  0
 11 12  1  1
 11 13  1  0
 11 31  1  0
 13 14  1  0
 14 15  1  0
 15 16  1  6
 15 31  1  0
 16 17  1  0
 17 18  2  0
 17 22  1  0
 18 19  1  0
 19 20  2  0
 20 21  1  0
 20 30  1  0
 21 22  2  0
 21 23  1  0
 23 24  1  0
 24 25  1  0
 25 26  2  0
 25 29  1  0
 26 27  1  0
 26 30  1  0
 27 28  1  0
 28 29  1  0
M  CHG  2   3   1  15   1
M  END
