
     RDKit          3D

 24 27  0  0  0  0  0  0  0  0999 V2000
   -6.3630   -0.3760    0.5240 N   0  0  0  0  0  0  0  0  0  0  0  0
   -5.0150   -0.7730    0.3990 C   0  0  0  0  0  0  0  0  0  0  0  0
   -4.6090   -2.0840    0.4010 C   0  0  0  0  0  0  0  0  0  0  0  0
   -3.2670   -2.3860    0.2740 C   0  0  0  0  0  0  0  0  0  0  0  0
   -2.3070   -1.3910    0.1440 C   0  0  0  0  0  0  0  0  0  0  0  0
   -2.7350   -0.0830    0.1450 C   0  0  0  0  0  0  0  0  0  0  0  0
   -1.7830    0.9200    0.0160 C   0  0  0  0  0  0  0  0  0  0  0  0
   -0.3990    0.6240   -0.1150 N   0  0  0  0  0  0  0  0  0  0  0  0
    0.1270    0.2060   -1.2790 C   0  0  0  0  0  0  0  0  0  0  0  0
   -0.7640    0.0750   -2.3670 N   0  0  0  0  0  0  0  0  0  0  0  0
    1.4440   -0.0780   -1.4100 N   0  0  0  0  0  0  0  0  0  0  0  0
    2.2860    0.0470   -0.3790 C   0  0  0  0  0  0  0  0  0  0  0  0
    3.7180   -0.2670   -0.5410 C   0  0  1  0  0  0  0  0  0  0  0  0
    4.6040    0.9020   -0.1420 C   0  0  0  0  0  0  0  0  0  0  0  0
    5.4910    0.4220    0.9640 C   0  0  0  0  0  0  0  0  0  0  0  0
    5.5260   -1.0870    0.7100 C   0  0  0  0  0  0  0  0  0  0  0  0
    4.0500   -1.3630    0.4720 C   0  0  0  0  0  0  0  0  0  0  0  0
    1.7940    0.4710    0.8300 C   0  0  0  0  0  0  0  0  0  0  0  0
    0.4490    0.7480    0.9180 C   0  0  0  0  0  0  0  0  0  0  0  0
   -0.0070    1.1390    2.0330 O   0  0  0  0  0  0  0  0  0  0  0  0
   -2.2170    2.2250    0.0180 C   0  0  0  0  0  0  0  0  0  0  0  0
   -3.5430    2.5690    0.1410 C   0  0  0  0  0  0  0  0  0  0  0  0
   -4.4710    1.5590    0.2680 C   0  0  0  0  0  0  0  0  0  0  0  0
   -4.0610    0.2400    0.2700 C   0  0  0  0  0  0  0  0  0  0  0  0
  1  2  1  0
  2  3  2  0
  2 24  1  0
  3  4  1  0
  4  5  2  0
  5  6  1  0
  6  7  2  0
  6 24  1  0
  7  8  1  0
  7 21  1  0
  8  9  1  0
  8 19  1  0
  9 10  1  0
  9 11  2  0
 11 12  1  0
 13 12  1  1
 12 18  2  0
 13 14  1  0
 13 17  1  0
 14 15  1  0
 15 16  1  0
 16 17  1  0
 18 19  1  0
 19 20  2  0
 21 22  2  0
 22 23  1  0
 23 24  2  0
M  CHG  1  11   1
M  END
