
     RDKit          3D

 25 27  0  0  0  0  0  0  0  0999 V2000
   -3.7670    3.1020   -0.5470 C   0  0  0  0  0  0  0  0  0  0  0  0
   -4.5770    2.2350   -0.0150 C   0  0  0  0  0  0  0  0  0  0  0  0
   -5.8910    2.5200    0.0760 F   0  0  0  0  0  0  0  0  0  0  0  0
   -4.1030    0.9600    0.4650 C   0  0  0  0  0  0  0  0  0  0  0  0
   -4.9780    0.1170    1.0180 C   0  0  0  0  0  0  0  0  0  0  0  0
   -4.6440   -1.2090    1.5520 C   0  0  0  0  0  0  0  0  0  0  0  0
   -2.7410    0.6230    0.3260 N   0  0  0  0  0  0  0  0  0  0  0  0
   -2.0920    0.2150   -0.8810 C   0  0  2  0  0  0  0  0  0  0  0  0
   -2.6340   -1.0790   -1.4390 C   0  0  0  0  0  0  0  0  0  0  0  0
   -2.0130   -2.3090   -0.8840 C   0  0  0  0  0  0  0  0  0  0  0  0
   -0.5200   -2.3050   -0.8350 C   0  0  0  0  0  0  0  0  0  0  0  0
    0.0160   -1.0400   -1.4390 C   0  0  2  0  0  0  0  0  0  0  0  0
   -0.4360   -0.9240   -2.7890 O   0  0  0  0  0  0  0  0  0  0  0  0
    1.4880   -0.9710   -1.5290 C   0  0  0  0  0  0  0  0  0  0  0  0
    2.2650   -1.0180   -0.2610 C   0  0  0  0  0  0  0  0  0  0  0  0
    2.3710    0.3820    0.2710 C   0  0  0  0  0  0  0  0  0  0  0  0
    3.6670    0.8200    0.7110 C   0  0  0  0  0  0  0  0  0  0  0  0
    4.8260    0.0950    0.7030 C   0  0  0  0  0  0  0  0  0  0  0  0
    5.8630    0.8900    1.2170 C   0  0  0  0  0  0  0  0  0  0  0  0
    7.2150    0.5170    1.3790 N   0  0  0  0  0  0  0  0  0  0  0  0
    5.2880    2.0610    1.5140 N   0  0  0  0  0  0  0  0  0  0  0  0
    3.9940    2.0340    1.2210 N   0  0  0  0  0  0  0  0  0  0  0  0
    1.3370    1.2390    0.3630 C   0  0  0  0  0  0  0  0  0  0  0  0
   -0.0570    1.0170   -0.0110 C   0  0  0  0  0  0  0  0  0  0  0  0
   -0.6180    0.0930   -0.7360 C   0  0  0  0  0  0  0  0  0  0  0  0
  1  2  2  0
  2  3  1  0
  2  4  1  0
  4  5  2  3
  4  7  1  0
  5  6  1  0
  8  7  1  1
  8  9  1  0
  8 25  1  0
  9 10  1  0
 10 11  1  0
 11 12  1  0
 12 13  1  6
 12 14  1  0
 12 25  1  0
 14 15  1  0
 15 16  1  0
 16 17  1  0
 16 23  2  0
 17 18  1  0
 17 22  2  0
 18 19  2  0
 19 20  1  0
 19 21  1  0
 21 22  1  0
 23 24  1  0
 24 25  2  0
M  CHG  1  20   1
M  END
