
     RDKit          3D

 27 30  0  0  0  0  0  0  0  0999 V2000
   -6.4850    0.1300    1.2760 C   0  0  0  0  0  0  0  0  0  0  0  0
   -5.3920   -0.8680    1.5490 C   0  0  0  0  0  0  0  0  0  0  0  0
   -4.2980   -0.7620    0.6100 N   0  0  1  0  0  0  0  0  0  0  0  0
   -4.7600   -0.6820   -0.7600 C   0  0  0  0  0  0  0  0  0  0  0  0
   -3.5340   -0.7110   -1.6410 C   0  0  0  0  0  0  0  0  0  0  0  0
   -2.2470   -0.8740   -0.9040 C   0  0  0  0  0  0  0  0  0  0  0  0
   -2.0590    0.1140    0.2340 C   0  0  1  0  0  0  0  0  0  0  0  0
   -1.2970   -0.5320    1.3240 C   0  0  0  0  0  0  0  0  0  0  0  0
   -1.5270    1.4180   -0.2230 C   0  0  0  0  0  0  0  0  0  0  0  0
   -0.2970    1.3990   -0.9090 N   0  0  0  0  0  0  0  0  0  0  0  0
    0.9850    1.0740   -0.4280 C   0  0  0  0  0  0  0  0  0  0  0  0
    1.1980    0.7600    0.7610 O   0  0  0  0  0  0  0  0  0  0  0  0
    2.1100    1.0930   -1.3060 N   0  0  0  0  0  0  0  0  0  0  0  0
    3.4190    0.7740   -0.8650 C   0  0  0  0  0  0  0  0  0  0  0  0
    3.8560    0.4100    0.3790 C   0  0  0  0  0  0  0  0  0  0  0  0
    5.1960    0.2040    0.3130 N   0  0  0  0  0  0  0  0  0  0  0  0
    6.0770   -0.1610    1.2490 N   0  0  0  0  0  0  0  0  0  0  0  0
    7.3780   -0.3140    0.9810 C   0  0  0  0  0  0  0  0  0  0  0  0
    7.7820   -0.0740   -0.3270 C   0  0  0  0  0  0  0  0  0  0  0  0
    6.8870    0.2920   -1.2560 N   0  0  0  0  0  0  0  0  0  0  0  0
    5.5700    0.4380   -0.9510 C   0  0  0  0  0  0  0  0  0  0  0  0
    4.5160    0.7830   -1.6810 N   0  0  0  0  0  0  0  0  0  0  0  0
    9.2330   -0.3110   -0.3410 C   0  0  0  0  0  0  0  0  0  0  0  0
   10.2200   -0.3390   -1.7620 Cl  0  0  0  0  0  0  0  0  0  0  0  0
    9.5670   -0.4850    0.9230 C   0  0  0  0  0  0  0  0  0  0  0  0
    8.5610   -0.6880    1.7410 C   0  0  0  0  0  0  0  0  0  0  0  0
   -3.4690    0.3690    0.8650 C   0  0  0  0  0  0  0  0  0  0  0  0
  1  2  1  0
  3  2  1  1
  3  4  1  0
  3 27  1  0
  4  5  1  0
  5  6  1  0
  6  7  1  0
  7  8  1  1
  7  9  1  0
  7 27  1  0
  9 10  1  0
 10 11  1  0
 11 12  2  0
 11 13  1  0
 13 14  1  0
 14 15  2  0
 14 22  1  0
 15 16  1  0
 16 17  1  0
 16 21  1  0
 17 18  2  0
 18 19  1  0
 18 26  1  0
 19 20  2  0
 19 23  1  0
 20 21  1  0
 21 22  2  0
 23 24  1  0
 23 25  2  0
 25 26  2  0
M  CHG  1   3   1
M  END
