
     RDKit          3D

 26 29  0  0  0  0  0  0  0  0999 V2000
    6.4640    1.4320    1.6400 C   0  0  0  0  0  0  0  0  0  0  0  0
    6.1710    0.5470    0.5180 N   0  0  0  0  0  0  0  0  0  0  0  0
    6.8720    0.7760   -0.7360 C   0  0  0  0  0  0  0  0  0  0  0  0
    5.2330   -0.4900    0.6710 C   0  0  0  0  0  0  0  0  0  0  0  0
    3.9020   -0.2260    0.3830 C   0  0  0  0  0  0  0  0  0  0  0  0
    2.9470   -1.2380    0.5260 C   0  0  0  0  0  0  0  0  0  0  0  0
    1.5690   -1.2900    0.3230 C   0  0  0  0  0  0  0  0  0  0  0  0
    0.7830   -0.1660   -0.1340 C   0  0  0  0  0  0  0  0  0  0  0  0
    1.4000    0.9340   -0.3400 O   0  0  0  0  0  0  0  0  0  0  0  0
   -0.6270   -0.1760   -0.3740 N   0  0  0  0  0  0  0  0  0  0  0  0
   -1.3060    1.0610   -0.8300 C   0  0  0  0  0  0  0  0  0  0  0  0
   -2.7300    0.8110   -0.2980 C   0  0  1  0  0  0  0  0  0  0  0  0
   -2.6860    1.0520    1.1650 C   0  0  0  0  0  0  0  0  0  0  0  0
   -3.1530    2.4770    1.3600 C   0  0  0  0  0  0  0  0  0  0  0  0
   -3.7720    2.9260    0.0770 C   0  0  0  0  0  0  0  0  0  0  0  0
   -3.7210    1.7510   -0.8840 C   0  0  0  0  0  0  0  0  0  0  0  0
   -2.8860   -0.6090   -0.7010 C   0  0  2  0  0  0  0  0  0  0  0  0
   -2.9930   -0.7060   -2.2060 C   0  0  0  0  0  0  0  0  0  0  0  0
   -4.1000   -1.2810   -0.1240 C   0  0  0  0  0  0  0  0  0  0  0  0
   -4.1570   -2.6420   -0.5720 N   0  0  0  0  0  0  0  0  0  0  0  0
   -1.5970   -1.2340   -0.2570 C   0  0  0  0  0  0  0  0  0  0  0  0
    1.1790   -2.5410    0.6250 N   0  0  0  0  0  0  0  0  0  0  0  0
    2.2710   -3.2270    0.9970 N   0  0  0  0  0  0  0  0  0  0  0  0
    3.3530   -2.4670    0.9480 C   0  0  0  0  0  0  0  0  0  0  0  0
    4.6550   -2.6860    1.2180 N   0  0  0  0  0  0  0  0  0  0  0  0
    5.5500   -1.7220    1.0800 N   0  0  0  0  0  0  0  0  0  0  0  0
  1  2  1  0
  2  3  1  0
  2  4  1  0
  4  5  2  0
  4 26  1  0
  5  6  1  0
  6  7  2  0
  6 24  1  0
  7  8  1  0
  7 22  1  0
  8  9  2  0
  8 10  1  0
 10 11  1  0
 10 21  1  0
 12 11  1  6
 12 13  1  0
 12 16  1  0
 12 17  1  0
 13 14  1  0
 14 15  1  0
 15 16  1  0
 17 18  1  6
 17 19  1  0
 17 21  1  0
 19 20  1  0
 22 23  1  0
 23 24  2  0
 24 25  1  0
 25 26  2  0
M  CHG  1  20   1
M  END
