
     RDKit          3D

 24 27  0  0  0  0  0  0  0  0999 V2000
   -3.4480    3.1700   -0.5720 N   0  0  0  0  0  0  0  0  0  0  0  0
   -3.0240    1.9410    0.0640 C   0  0  1  0  0  0  0  0  0  0  0  0
   -4.2490    1.2350    0.6620 C   0  0  0  0  0  0  0  0  0  0  0  0
   -4.2050   -0.1930    0.1590 C   0  0  0  0  0  0  0  0  0  0  0  0
   -2.7600   -0.3030   -0.1980 N   0  0  0  0  0  0  0  0  0  0  0  0
   -2.0130   -1.4110    0.1800 C   0  0  0  0  0  0  0  0  0  0  0  0
   -2.6700   -2.6440    0.3550 C   0  0  0  0  0  0  0  0  0  0  0  0
   -1.9970   -3.8050    0.6650 C   0  0  0  0  0  0  0  0  0  0  0  0
   -0.6480   -3.7800    0.8110 C   0  0  0  0  0  0  0  0  0  0  0  0
    0.0270   -2.6110    0.6520 C   0  0  0  0  0  0  0  0  0  0  0  0
   -0.6460   -1.4160    0.3360 C   0  0  0  0  0  0  0  0  0  0  0  0
    0.0620   -0.2000    0.2760 N   0  0  0  0  0  0  0  0  0  0  0  0
    1.4500   -0.1320    0.0940 C   0  0  0  0  0  0  0  0  0  0  0  0
    2.0690   -1.0170   -0.7480 C   0  0  0  0  0  0  0  0  0  0  0  0
    3.4310   -0.9770   -0.9210 C   0  0  0  0  0  0  0  0  0  0  0  0
    4.2380   -0.0690   -0.2780 C   0  0  0  0  0  0  0  0  0  0  0  0
    5.5770   -0.0410   -0.4580 N   0  0  0  0  0  0  0  0  0  0  0  0
    6.3720    0.8420    0.1660 C   0  0  0  0  0  0  0  0  0  0  0  0
    7.6170    0.8360   -0.0280 O   0  0  0  0  0  0  0  0  0  0  0  0
    5.7930    1.7520    1.0220 C   0  0  0  0  0  0  0  0  0  0  0  0
    4.4310    1.7410    1.2200 C   0  0  0  0  0  0  0  0  0  0  0  0
    3.6190    0.8260    0.5720 C   0  0  0  0  0  0  0  0  0  0  0  0
    2.2510    0.7950    0.7540 C   0  0  0  0  0  0  0  0  0  0  0  0
   -2.5920    0.9010   -0.9460 C   0  0  0  0  0  0  0  0  0  0  0  0
  2  1  1  6
  2  3  1  0
  2 24  1  0
  3  4  1  0
  4  5  1  0
  5  6  1  0
  5 24  1  0
  6  7  2  0
  6 11  1  0
  7  8  1  0
  8  9  2  0
  9 10  1  0
 10 11  2  0
 11 12  1  0
 12 13  1  0
 13 14  2  0
 13 23  1  0
 14 15  1  0
 15 16  2  0
 16 17  1  0
 16 22  1  0
 17 18  1  0
 18 19  2  0
 18 20  1  0
 20 21  2  0
 21 22  1  0
 22 23  2  0
M  CHG  1   1   1
M  END
