
     RDKit          3D

 25 28  0  0  0  0  0  0  0  0999 V2000
   -2.1750   -2.8420    1.0930 N   0  0  0  0  0  0  0  0  0  0  0  0
   -0.8530   -2.3260    0.8990 C   0  0  0  0  0  0  0  0  0  0  0  0
   -0.7210   -1.0120    0.4210 C   0  0  0  0  0  0  0  0  0  0  0  0
   -1.8800   -0.3200    0.1760 O   0  0  0  0  0  0  0  0  0  0  0  0
   -2.0770    0.9620   -0.2880 C   0  0  1  0  0  0  0  0  0  0  0  0
   -2.9480    0.9180   -1.5310 C   0  0  0  0  0  0  0  0  0  0  0  0
   -4.2170    1.7100   -1.3720 C   0  0  0  0  0  0  0  0  0  0  0  0
   -5.0040    1.2940   -0.1520 C   0  0  0  0  0  0  0  0  0  0  0  0
   -4.1200    1.1710    1.0700 C   0  0  0  0  0  0  0  0  0  0  0  0
   -2.7480    1.7570    0.8190 C   0  0  0  0  0  0  0  0  0  0  0  0
    0.5260   -0.5500    0.2480 N   0  0  0  0  0  0  0  0  0  0  0  0
    1.6500   -1.2360    0.4910 C   0  0  0  0  0  0  0  0  0  0  0  0
    2.9930   -0.6860    0.2850 C   0  0  0  0  0  0  0  0  0  0  0  0
    4.1130   -1.4330    0.5500 C   0  0  0  0  0  0  0  0  0  0  0  0
    5.4130   -0.9410    0.3650 C   0  0  0  0  0  0  0  0  0  0  0  0
    6.4930   -1.7070    0.6370 F   0  0  0  0  0  0  0  0  0  0  0  0
    5.6120    0.3310   -0.0980 C   0  0  0  0  0  0  0  0  0  0  0  0
    4.4880    1.0900   -0.3680 C   0  0  0  0  0  0  0  0  0  0  0  0
    3.1880    0.6040   -0.1850 C   0  0  0  0  0  0  0  0  0  0  0  0
    2.2410    1.6420   -0.5570 C   0  0  0  0  0  0  0  0  0  0  0  0
    2.9240    2.7060   -0.9460 C   0  0  0  0  0  0  0  0  0  0  0  0
    4.3700    2.4690   -0.8680 C   0  0  0  0  0  0  0  0  0  0  0  0
    1.4780   -2.4910    0.9480 N   0  0  0  0  0  0  0  0  0  0  0  0
    0.2580   -3.0530    1.1580 C   0  0  0  0  0  0  0  0  0  0  0  0
    0.1480   -4.2560    1.5950 N   0  0  0  0  0  0  0  0  0  0  0  0
  1  2  1  0
  2  3  2  0
  2 24  1  0
  3  4  1  0
  3 11  1  0
  5  4  1  1
  5  6  1  0
  5 10  1  0
  6  7  1  0
  7  8  1  0
  8  9  1  0
  9 10  1  0
 11 12  2  0
 12 13  1  0
 12 23  1  0
 13 14  2  0
 13 19  1  0
 14 15  1  0
 15 16  1  0
 15 17  2  0
 17 18  1  0
 18 19  2  0
 18 22  1  0
 19 20  1  0
 20 21  2  0
 21 22  1  0
 23 24  1  0
 24 25  2  0
M  CHG  1  25   1
M  END
