
     RDKit          3D

 22 23  0  0  0  0  0  0  0  0999 V2000
   -4.5430    1.2610    0.3060 C   0  0  0  0  0  0  0  0  0  0  0  0
   -3.7720    0.6550   -0.8650 C   0  0  0  0  0  0  0  0  0  0  0  0
   -3.0980   -0.4990   -0.4300 N   0  0  0  0  0  0  0  0  0  0  0  0
   -3.8670   -1.6380   -0.0790 C   0  0  0  0  0  0  0  0  0  0  0  0
   -4.5020   -2.1870   -1.3380 C   0  0  0  0  0  0  0  0  0  0  0  0
   -1.8770   -0.7270   -1.1290 C   0  0  0  0  0  0  0  0  0  0  0  0
   -0.8660    0.3140   -0.7160 C   0  0  0  0  0  0  0  0  0  0  0  0
   -0.6820    0.1530    0.7820 C   0  0  0  0  0  0  0  0  0  0  0  0
    0.2900    1.1270    1.3560 C   0  0  1  0  0  0  0  0  0  0  0  0
    0.3960    0.8700    2.8400 C   0  0  0  0  0  0  0  0  0  0  0  0
    1.5420    1.2390    0.6870 N   0  0  0  0  0  0  0  0  0  0  0  0
    2.5080    0.2240    0.6320 C   0  0  0  0  0  0  0  0  0  0  0  0
    2.3780   -0.9450    1.3340 C   0  0  0  0  0  0  0  0  0  0  0  0
    3.3460   -1.9260    1.2930 C   0  0  0  0  0  0  0  0  0  0  0  0
    4.4460   -1.7660    0.5620 N   0  0  0  0  0  0  0  0  0  0  0  0
    4.5810   -0.6330   -0.1240 C   0  0  0  0  0  0  0  0  0  0  0  0
    5.7410   -0.5030   -0.8750 C   0  0  0  0  0  0  0  0  0  0  0  0
    5.9670    0.6230   -1.6110 C   0  0  0  0  0  0  0  0  0  0  0  0
    7.4560    0.7280   -2.5400 Cl  0  0  0  0  0  0  0  0  0  0  0  0
    5.0330    1.6380   -1.6080 C   0  0  0  0  0  0  0  0  0  0  0  0
    3.8780    1.5310   -0.8730 C   0  0  0  0  0  0  0  0  0  0  0  0
    3.6600    0.4010   -0.1390 C   0  0  0  0  0  0  0  0  0  0  0  0
  1  2  1  0
  2  3  1  0
  3  4  1  0
  3  6  1  0
  4  5  1  0
  6  7  1  0
  7  8  1  0
  8  9  1  0
  9 10  1  1
  9 11  1  0
 11 12  1  0
 12 13  2  0
 12 22  1  0
 13 14  1  0
 14 15  2  0
 15 16  1  0
 16 17  2  0
 16 22  1  0
 17 18  1  0
 18 19  1  0
 18 20  2  0
 20 21  1  0
 21 22  2  0
M  END
