
     RDKit          3D

 12 12  0  0  0  0  0  0  0  0999 V2000
    4.0800    1.0520    0.5400 O   0  0  0  0  0  0  0  0  0  0  0  0
    3.2760    0.0140    0.0940 C   0  0  0  0  0  0  0  0  0  0  0  0
    1.7980    0.4050    0.1840 C   0  0  0  0  0  0  0  0  0  0  0  0
    0.9800   -0.6550   -0.2710 O   0  0  0  0  0  0  0  0  0  0  0  0
   -0.3920   -0.4770   -0.2600 C   0  0  0  0  0  0  0  0  0  0  0  0
   -0.9680    0.6920    0.1780 C   0  0  0  0  0  0  0  0  0  0  0  0
   -2.3240    0.8730    0.1910 C   0  0  0  0  0  0  0  0  0  0  0  0
   -2.9700    2.0100    0.6130 O   0  0  0  0  0  0  0  0  0  0  0  0
   -3.1040   -0.1870   -0.2620 C   0  0  0  0  0  0  0  0  0  0  0  0
   -2.5400   -1.3670   -0.7050 C   0  0  0  0  0  0  0  0  0  0  0  0
   -1.1790   -1.5130   -0.7040 C   0  0  0  0  0  0  0  0  0  0  0  0
   -0.6300   -2.7250   -1.1610 O   0  0  0  0  0  0  0  0  0  0  0  0
  1  2  1  0
  2  3  1  0
  3  4  1  0
  4  5  1  0
  5  6  2  0
  5 11  1  0
  6  7  1  0
  7  8  1  0
  7  9  2  0
  9 10  1  0
 10 11  2  0
 11 12  1  0
M  END
