
     RDKit          3D

 11 11  0  0  0  0  0  0  0  0999 V2000
    3.7600    1.1910   -0.3200 O   0  0  0  0  0  0  0  0  0  0  0  0
    2.3600    1.0310   -0.5260 C   0  0  0  0  0  0  0  0  0  0  0  0
    2.1200   -0.4430   -0.4380 C   0  0  0  0  0  0  0  0  0  0  0  0
    0.7270   -0.8780   -0.6540 C   0  0  0  0  0  0  0  0  0  0  0  0
   -0.3220   -0.3700    0.2790 C   0  0  1  0  0  0  0  0  0  0  0  0
    0.0240   -0.7490    1.5850 O   0  0  0  0  0  0  0  0  0  0  0  0
   -0.6330    1.0680    0.2380 C   0  0  0  0  0  0  0  0  0  0  0  0
   -2.1270    1.3540    0.0840 C   0  0  0  0  0  0  0  0  0  0  0  0
   -2.7130    0.6780   -0.9410 O   0  0  0  0  0  0  0  0  0  0  0  0
   -2.3410   -0.6110   -1.1470 C   0  0  0  0  0  0  0  0  0  0  0  0
   -1.5880   -1.2140   -0.0080 C   0  0  0  0  0  0  0  0  0  0  0  0
  1  2  1  0
  2  3  1  0
  3  4  1  0
  4  5  1  0
  5  6  1  1
  5  7  1  0
  5 11  1  0
  7  8  1  0
  8  9  1  0
  9 10  1  0
 10 11  1  0
M  END
