
     RDKit          3D

 12 12  0  0  0  0  0  0  0  0999 V2000
   -3.2340    2.0220   -0.7000 O   0  0  0  0  0  0  0  0  0  0  0  0
   -2.0630    1.5520   -0.7260 C   0  0  0  0  0  0  0  0  0  0  0  0
   -1.0630    2.3460   -1.2230 O   0  0  0  0  0  0  0  0  0  0  0  0
   -1.7960    0.1890   -0.2330 C   0  0  0  0  0  0  0  0  0  0  0  0
   -2.6900   -0.6400    0.2580 C   0  0  0  0  0  0  0  0  0  0  0  0
   -2.0150   -1.8890    0.6310 C   0  0  0  0  0  0  0  0  0  0  0  0
   -0.6020   -1.6560    0.2820 C   0  0  0  0  0  0  0  0  0  0  0  0
   -0.4980   -0.4480   -0.2170 C   0  0  0  0  0  0  0  0  0  0  0  0
    0.7290    0.0730   -0.6470 O   0  0  0  0  0  0  0  0  0  0  0  0
    1.8110   -0.0650    0.2570 C   0  0  0  0  0  0  0  0  0  0  0  0
    3.0180    0.5660   -0.4230 C   0  0  0  0  0  0  0  0  0  0  0  0
    4.1190    0.4600    0.4240 O   0  0  0  0  0  0  0  0  0  0  0  0
  1  2  2  0
  2  3  1  0
  2  4  1  0
  4  5  2  0
  4  8  1  0
  5  6  1  0
  6  7  1  0
  7  8  2  0
  8  9  1  0
  9 10  1  0
 10 11  1  0
 11 12  1  0
M  END
