
     RDKit          3D

 18 18  0  0  0  0  0  0  0  0999 V2000
    6.5280   -0.6450   -0.2030 C   0  0  0  0  0  0  0  0  0  0  0  0
    5.2080    0.1210   -0.1920 C   0  0  2  0  0  0  0  0  0  0  0  0
    5.4820    1.4330    0.1920 O   0  0  0  0  0  0  0  0  0  0  0  0
    4.2890   -0.4900    0.6390 O   0  0  0  0  0  0  0  0  0  0  0  0
    3.2370   -0.9490   -0.0360 N   0  0  0  0  0  0  0  0  0  0  0  0
    1.8760   -0.6680    0.2550 C   0  0  0  0  0  0  0  0  0  0  0  0
    1.6220    0.0700    1.2230 O   0  0  0  0  0  0  0  0  0  0  0  0
    0.8090   -1.2000   -0.5200 N   0  0  0  0  0  0  0  0  0  0  0  0
   -0.5040   -0.8820   -0.1780 N   0  0  0  0  0  0  0  0  0  0  0  0
   -1.2610    0.1130   -0.8450 C   0  0  0  0  0  0  0  0  0  0  0  0
   -0.7230    0.7380   -1.7870 O   0  0  0  0  0  0  0  0  0  0  0  0
   -2.6620    0.4520   -0.4810 C   0  0  2  0  0  0  0  0  0  0  0  0
   -3.1490    1.4540   -1.2930 O   0  0  0  0  0  0  0  0  0  0  0  0
   -2.7450    0.9550    0.9660 C   0  0  0  0  0  0  0  0  0  0  0  0
   -4.2000    1.4200    1.1260 C   0  0  0  0  0  0  0  0  0  0  0  0
   -5.1160    0.2720    0.7330 C   0  0  0  0  0  0  0  0  0  0  0  0
   -4.4240   -0.8940    0.4840 O   0  0  0  0  0  0  0  0  0  0  0  0
   -3.4940   -0.8010   -0.5290 C   0  0  0  0  0  0  0  0  0  0  0  0
  2  1  1  1
  2  3  1  0
  2  4  1  0
  4  5  1  0
  5  6  1  0
  6  7  2  0
  6  8  1  0
  8  9  1  0
  9 10  1  0
 10 11  2  0
 10 12  1  0
 12 13  1  6
 12 14  1  0
 12 18  1  0
 14 15  1  0
 15 16  1  0
 16 17  1  0
 17 18  1  0
M  END
