
     RDKit          3D

 17 17  0  0  0  0  0  0  0  0999 V2000
    1.7010    1.3990   -0.5140 O   0  0  0  0  0  0  0  0  0  0  0  0
    1.6690    0.2190   -0.0210 C   0  0  0  0  0  0  0  0  0  0  0  0
    2.8450   -0.5120    0.3540 C   0  0  0  0  0  0  0  0  0  0  0  0
    4.0570   -0.0700    0.2500 C   0  0  0  0  0  0  0  0  0  0  0  0
    4.4960    1.2240   -0.2540 C   0  0  0  0  0  0  0  0  0  0  0  0
    5.3370    0.9500   -1.3730 O   0  0  0  0  0  0  0  0  0  0  0  0
    0.3600   -0.3150    0.1250 N   0  0  0  0  0  0  0  0  0  0  0  0
   -0.7960    0.4080   -0.2820 N   0  0  0  0  0  0  0  0  0  0  0  0
   -1.9290   -0.3710    0.0860 C   0  0  1  0  0  0  0  0  0  0  0  0
   -3.2000    0.2780   -0.4220 C   0  0  1  0  0  0  0  0  0  0  0  0
   -4.2680   -0.5260   -0.0330 O   0  0  0  0  0  0  0  0  0  0  0  0
   -3.3830    1.6650    0.1460 C   0  0  0  0  0  0  0  0  0  0  0  0
   -4.5830    2.1640   -0.3610 O   0  0  0  0  0  0  0  0  0  0  0  0
   -1.9120   -1.6660   -0.4040 O   0  0  0  0  0  0  0  0  0  0  0  0
   -0.8880   -2.4410    0.0500 C   0  0  0  0  0  0  0  0  0  0  0  0
    0.1280   -1.5750    0.7060 C   0  0  0  0  0  0  0  0  0  0  0  0
    0.7640   -1.9480    1.7520 O   0  0  0  0  0  0  0  0  0  0  0  0
  1  2  2  0
  2  3  1  0
  2  7  1  0
  3  4  2  3
  4  5  1  0
  5  6  1  0
  7  8  1  0
  7 16  1  0
  9  8  1  6
  9 10  1  0
  9 14  1  0
 10 11  1  1
 10 12  1  0
 12 13  1  0
 14 15  1  0
 15 16  1  0
 16 17  2  0
M  END
