
     RDKit          3D

 12 12  0  0  0  0  0  0  0  0999 V2000
    4.9010    0.6510    0.7110 O   0  0  0  0  0  0  0  0  0  0  0  0
    3.6120    0.3630    1.1540 C   0  0  0  0  0  0  0  0  0  0  0  0
    2.6760    0.4700   -0.0330 C   0  0  0  0  0  0  0  0  0  0  0  0
    1.3560    0.1830    0.3820 O   0  0  0  0  0  0  0  0  0  0  0  0
    0.5630    0.2990   -0.7450 C   0  0  0  0  0  0  0  0  0  0  0  0
   -0.8870    0.0260   -0.4910 C   0  0  2  0  0  0  0  0  0  0  0  0
   -1.5590    0.1800   -1.7120 O   0  0  0  0  0  0  0  0  0  0  0  0
   -1.4860    0.9730    0.5290 C   0  0  0  0  0  0  0  0  0  0  0  0
   -3.0000    0.7400    0.4560 C   0  0  0  0  0  0  0  0  0  0  0  0
   -3.3250   -0.5590    0.7280 O   0  0  0  0  0  0  0  0  0  0  0  0
   -2.6940   -1.5010   -0.0320 C   0  0  0  0  0  0  0  0  0  0  0  0
   -1.1650   -1.3590    0.0030 C   0  0  0  0  0  0  0  0  0  0  0  0
  1  2  1  0
  2  3  1  0
  3  4  1  0
  4  5  1  0
  5  6  1  0
  6  7  1  6
  6  8  1  0
  6 12  1  0
  8  9  1  0
  9 10  1  0
 10 11  1  0
 11 12  1  0
M  END
