
     RDKit          3D

 30 32  0  0  0  0  0  0  0  0999 V2000
    6.7260    1.2360   -0.4570 C   0  0  0  0  0  0  0  0  0  0  0  0
    5.4850    0.4070   -0.2030 C   0  0  0  0  0  0  0  0  0  0  0  0
    5.4770   -0.6570   -1.0710 O   0  0  0  0  0  0  0  0  0  0  0  0
    4.1370   -1.7000   -0.9170 P   0  0  0  0  0  0  0  0  0  0  0  0
    4.4280   -3.1100    0.0010 O   0  0  0  0  0  0  0  0  0  0  0  0
    5.6360   -3.0910    0.6780 C   0  0  0  0  0  0  0  0  0  0  0  0
    6.7030   -2.9680   -0.2220 O   0  0  0  0  0  0  0  0  0  0  0  0
    2.5980   -0.7880   -0.3290 C   0  0  1  0  0  0  0  0  0  0  0  0
    1.5060   -1.7930   -0.2760 C   0  0  0  0  0  0  0  0  0  0  0  0
    0.2620   -1.3720    0.1300 O   0  0  0  0  0  0  0  0  0  0  0  0
   -0.4080   -0.3860   -0.5860 C   0  0  0  0  0  0  0  0  0  0  0  0
    0.1910    0.0510   -1.5700 O   0  0  0  0  0  0  0  0  0  0  0  0
   -1.7170    0.0920   -0.2010 C   0  0  0  0  0  0  0  0  0  0  0  0
   -2.1090   -0.2560    1.1090 C   0  0  0  0  0  0  0  0  0  0  0  0
   -3.2400    0.2760    1.6680 C   0  0  0  0  0  0  0  0  0  0  0  0
   -3.9760    1.1550    0.9120 C   0  0  0  0  0  0  0  0  0  0  0  0
   -3.6370    1.5270   -0.3790 C   0  0  0  0  0  0  0  0  0  0  0  0
   -4.4180    2.3980   -1.0560 O   0  0  0  0  0  0  0  0  0  0  0  0
   -2.4650    0.9600   -0.9330 C   0  0  0  0  0  0  0  0  0  0  0  0
   -2.1940    1.1730   -2.3510 C   0  0  0  0  0  0  0  0  0  0  0  0
   -1.7120    0.3510   -3.3360 C   0  0  0  0  0  0  0  0  0  0  0  0
   -1.6630    1.0690   -4.5280 C   0  0  0  0  0  0  0  0  0  0  0  0
   -2.1250    2.3130   -4.2070 C   0  0  0  0  0  0  0  0  0  0  0  0
   -2.4230    2.3340   -2.9370 O   0  0  0  0  0  0  0  0  0  0  0  0
   -5.1960    1.7140    1.5560 C   0  0  0  0  0  0  0  0  0  0  0  0
   -5.9980    0.5410    2.0880 C   0  0  0  0  0  0  0  0  0  0  0  0
   -5.1930   -0.4230    2.8890 C   0  0  0  0  0  0  0  0  0  0  0  0
   -3.7290   -0.0310    3.0340 C   0  0  0  0  0  0  0  0  0  0  0  0
    2.9000   -0.1100    1.3750 P   0  0  0  0  0  0  0  0  0  0  0  0
    2.4520   -0.8290    2.6630 O   0  0  0  0  0  0  0  0  0  0  0  0
  1  2  1  0
  2  3  1  0
  3  4  1  0
  4  5  1  0
  4  8  1  0
  5  6  1  0
  6  7  1  0
  8  9  1  1
  8 29  1  0
  9 10  1  0
 10 11  1  0
 11 12  2  0
 11 13  1  0
 13 14  2  0
 13 19  1  0
 14 15  1  0
 15 16  2  0
 15 28  1  0
 16 17  1  0
 16 25  1  0
 17 18  1  0
 17 19  2  0
 19 20  1  0
 20 21  2  0
 20 24  1  0
 21 22  1  0
 22 23  2  0
 23 24  1  0
 25 26  1  0
 26 27  1  0
 27 28  1  0
 29 30  2  0
M  END
