
     RDKit          3D

 29 31  0  0  0  0  0  0  0  0999 V2000
    7.2460    1.6390    2.5980 O   0  0  0  0  0  0  0  0  0  0  0  0
    6.4030    2.2840    1.4580 P   0  0  0  0  0  0  0  0  0  0  0  0
    4.6470    1.7300    1.1160 C   0  0  0  0  0  0  0  0  0  0  0  0
    4.7160    0.5810    0.3340 O   0  0  0  0  0  0  0  0  0  0  0  0
    3.6660   -0.1550   -0.1450 C   0  0  0  0  0  0  0  0  0  0  0  0
    3.9790   -1.2500   -0.8950 N   0  0  0  0  0  0  0  0  0  0  0  0
    3.0260   -2.0430   -1.4130 C   0  0  0  0  0  0  0  0  0  0  0  0
    3.3690   -3.1490   -2.1730 O   0  0  0  0  0  0  0  0  0  0  0  0
    1.7250   -1.6870   -1.1430 C   0  0  0  0  0  0  0  0  0  0  0  0
    1.3890   -0.5820   -0.3860 C   0  0  0  0  0  0  0  0  0  0  0  0
    2.3900    0.1860    0.1130 N   0  0  0  0  0  0  0  0  0  0  0  0
    0.0400   -0.2220   -0.1120 N   0  0  0  0  0  0  0  0  0  0  0  0
   -0.2940    1.1500    0.1500 C   0  0  0  0  0  0  0  0  0  0  0  0
    0.6130    2.0060    0.3190 O   0  0  0  0  0  0  0  0  0  0  0  0
   -1.6500    1.5150    0.2130 N   0  0  0  0  0  0  0  0  0  0  0  0
   -2.0010    2.6510    0.8210 O   0  0  0  0  0  0  0  0  0  0  0  0
   -2.3150    3.9380   -0.2860 P   0  0  0  0  0  0  0  0  0  0  0  0
   -3.4560    5.0130    0.4620 O   0  0  0  0  0  0  0  0  0  0  0  0
   -3.0110    3.3260   -1.7630 O   0  0  0  0  0  0  0  0  0  0  0  0
   -2.6020    0.5960   -0.4060 C   0  0  0  0  0  0  0  0  0  0  0  0
   -2.3530   -0.8350    0.0270 C   0  0  2  0  0  0  0  0  0  0  0  0
   -3.2200   -1.6330   -0.7240 O   0  0  0  0  0  0  0  0  0  0  0  0
   -2.8460   -1.0470    1.8260 P   0  0  0  0  0  0  0  0  0  0  0  0
   -1.3790   -0.9830    2.7870 O   0  0  0  0  0  0  0  0  0  0  0  0
   -3.5310   -2.6250    2.0800 O   0  0  0  0  0  0  0  0  0  0  0  0
   -0.9420   -1.2810   -0.1140 C   0  0  1  0  0  0  0  0  0  0  0  0
   -0.7030   -2.0850   -1.3500 C   0  0  0  0  0  0  0  0  0  0  0  0
   -1.6260   -2.4300   -2.1280 O   0  0  0  0  0  0  0  0  0  0  0  0
    0.6540   -2.4740   -1.6490 N   0  0  0  0  0  0  0  0  0  0  0  0
  1  2  2  0
  2  3  1  0
  3  4  1  0
  4  5  1  0
  5  6  2  0
  5 11  1  0
  6  7  1  0
  7  8  1  0
  7  9  2  0
  9 10  1  0
  9 29  1  0
 10 11  2  0
 10 12  1  0
 12 13  1  0
 12 26  1  0
 13 14  2  0
 13 15  1  0
 15 16  1  0
 15 20  1  0
 16 17  1  0
 17 18  1  0
 17 19  1  0
 20 21  1  0
 21 22  1  6
 21 23  1  0
 21 26  1  0
 23 24  1  0
 23 25  1  0
 26 27  1  6
 27 28  2  0
 27 29  1  0
M  END
