
     RDKit          3D

 29 31  0  0  0  0  0  0  0  0999 V2000
   -6.9740    0.6530   -2.4060 C   0  0  0  0  0  0  0  0  0  0  0  0
   -6.1670    0.1470   -1.3640 O   0  0  0  0  0  0  0  0  0  0  0  0
   -4.8030    0.3460   -1.2730 C   0  0  0  0  0  0  0  0  0  0  0  0
   -4.2530    1.0210   -2.1760 O   0  0  0  0  0  0  0  0  0  0  0  0
   -4.0210   -0.2130   -0.1550 C   0  0  0  0  0  0  0  0  0  0  0  0
   -4.6230   -0.9540    0.8380 C   0  0  0  0  0  0  0  0  0  0  0  0
   -3.8350   -1.4520    1.8590 C   0  0  0  0  0  0  0  0  0  0  0  0
   -2.4810   -1.2390    1.9270 C   0  0  0  0  0  0  0  0  0  0  0  0
   -1.8740   -0.4900    0.9230 C   0  0  0  0  0  0  0  0  0  0  0  0
   -2.6620    0.0130   -0.1070 C   0  0  0  0  0  0  0  0  0  0  0  0
   -1.8380    0.7260   -0.9890 O   0  0  0  0  0  0  0  0  0  0  0  0
   -0.6830    1.1390   -0.2420 C   0  0  0  0  0  0  0  0  0  0  0  0
   -0.4960   -0.0630    0.6580 C   0  0  2  0  0  0  0  0  0  0  0  0
    0.2980   -1.0810   -0.1080 C   0  0  0  0  0  0  0  0  0  0  0  0
    1.6070   -0.5820   -0.3130 O   0  0  0  0  0  0  0  0  0  0  0  0
    2.5850   -1.2850   -0.9890 C   0  0  0  0  0  0  0  0  0  0  0  0
    2.3040   -2.4190   -1.4440 O   0  0  0  0  0  0  0  0  0  0  0  0
    3.9240   -0.6960   -1.1620 C   0  0  0  0  0  0  0  0  0  0  0  0
    4.2150    0.5480   -0.6570 C   0  0  0  0  0  0  0  0  0  0  0  0
    5.4660    1.1060   -0.8140 C   0  0  0  0  0  0  0  0  0  0  0  0
    6.4680    0.4360   -1.4820 C   0  0  0  0  0  0  0  0  0  0  0  0
    8.1250    1.1910   -1.6820 P   0  0  0  0  0  0  0  0  0  0  0  0
    9.1900    0.8360   -0.5870 O   0  0  0  0  0  0  0  0  0  0  0  0
    6.1890   -0.8110   -1.9920 C   0  0  0  0  0  0  0  0  0  0  0  0
    4.9190   -1.3740   -1.8310 C   0  0  0  0  0  0  0  0  0  0  0  0
    0.1690    0.3050    1.9350 C   0  0  0  0  0  0  0  0  0  0  0  0
    1.1970   -0.2990    2.3170 O   0  0  0  0  0  0  0  0  0  0  0  0
   -0.3110    1.3200    2.7490 O   0  0  0  0  0  0  0  0  0  0  0  0
    0.3410    1.6610    3.9720 C   0  0  0  0  0  0  0  0  0  0  0  0
  1  2  1  0
  2  3  1  0
  3  4  2  0
  3  5  1  0
  5  6  2  0
  5 10  1  0
  6  7  1  0
  7  8  2  0
  8  9  1  0
  9 10  2  0
  9 13  1  0
 10 11  1  0
 11 12  1  0
 12 13  1  0
 13 14  1  6
 13 26  1  0
 14 15  1  0
 15 16  1  0
 16 17  2  0
 16 18  1  0
 18 19  2  0
 18 25  1  0
 19 20  1  0
 20 21  2  0
 21 22  1  0
 21 24  1  0
 22 23  2  0
 24 25  2  0
 26 27  2  0
 26 28  1  0
 28 29  1  0
M  END
