
     RDKit          3D

 30 31  0  0  0  0  0  0  0  0999 V2000
   -2.5990    4.9610    1.6910 C   0  0  0  0  0  0  0  0  0  0  0  0
   -2.1470    3.9840    2.5800 O   0  0  0  0  0  0  0  0  0  0  0  0
   -0.9870    2.9310    1.8620 P   0  0  0  0  0  0  0  0  0  0  0  0
    0.5810    3.6900    1.7470 O   0  0  0  0  0  0  0  0  0  0  0  0
    0.5970    4.5960    0.7900 O   0  0  0  0  0  0  0  0  0  0  0  0
   -1.5510    2.2720    0.2410 C   0  0  2  0  0  0  0  0  0  0  0  0
   -2.4960    3.0920   -0.3700 O   0  0  0  0  0  0  0  0  0  0  0  0
   -2.1590    0.9160    0.3540 C   0  0  0  0  0  0  0  0  0  0  0  0
   -3.4740    0.8250    0.8040 C   0  0  0  0  0  0  0  0  0  0  0  0
   -4.0970   -0.3960    0.9320 C   0  0  0  0  0  0  0  0  0  0  0  0
   -3.3910   -1.5320    0.6030 C   0  0  0  0  0  0  0  0  0  0  0  0
   -3.9940   -2.8540    0.7210 C   0  0  0  0  0  0  0  0  0  0  0  0
   -5.1860   -2.9140    1.1560 O   0  0  0  0  0  0  0  0  0  0  0  0
   -3.2810   -4.0970    0.3600 C   0  0  1  0  0  0  0  0  0  0  0  0
   -4.2000   -5.2720    0.6390 C   0  0  0  0  0  0  0  0  0  0  0  0
   -2.9550   -4.1110   -1.1280 C   0  0  0  0  0  0  0  0  0  0  0  0
   -2.0910   -1.4310    0.1580 C   0  0  0  0  0  0  0  0  0  0  0  0
   -1.4350   -0.2140    0.0190 C   0  0  0  0  0  0  0  0  0  0  0  0
   -0.1600   -0.0550   -0.4130 O   0  0  0  0  0  0  0  0  0  0  0  0
    0.9770   -0.0330    0.3370 C   0  0  0  0  0  0  0  0  0  0  0  0
    0.7870   -0.1780    1.5700 O   0  0  0  0  0  0  0  0  0  0  0  0
    2.3310    0.1450   -0.2060 C   0  0  0  0  0  0  0  0  0  0  0  0
    3.3960    0.1480    0.6710 C   0  0  0  0  0  0  0  0  0  0  0  0
    4.7130    0.3100    0.2340 C   0  0  0  0  0  0  0  0  0  0  0  0
    4.9610    0.4720   -1.1040 C   0  0  0  0  0  0  0  0  0  0  0  0
    6.6340    0.6940   -1.8050 P   0  0  0  0  0  0  0  0  0  0  0  0
    7.9330    0.7330   -0.5090 C   0  0  0  0  0  0  0  0  0  0  0  0
    6.9780   -0.4150   -3.0670 O   0  0  0  0  0  0  0  0  0  0  0  0
    3.8870    0.4670   -1.9700 C   0  0  0  0  0  0  0  0  0  0  0  0
    2.5820    0.3050   -1.5320 C   0  0  0  0  0  0  0  0  0  0  0  0
  1  2  1  0
  2  3  1  0
  3  4  1  0
  3  6  1  0
  4  5  1  0
  6  7  1  1
  6  8  1  0
  8  9  2  0
  8 18  1  0
  9 10  1  0
 10 11  2  0
 11 12  1  0
 11 17  1  0
 12 13  2  0
 12 14  1  0
 14 15  1  6
 14 16  1  0
 17 18  2  0
 18 19  1  0
 19 20  1  0
 20 21  2  0
 20 22  1  0
 22 23  2  0
 22 30  1  0
 23 24  1  0
 24 25  2  0
 25 26  1  0
 25 29  1  0
 26 27  1  0
 26 28  1  0
 29 30  2  0
M  END
