
     RDKit          3D

 29 31  0  0  0  0  0  0  0  0999 V2000
    1.5940   -4.9870    0.4090 C   0  0  0  0  0  0  0  0  0  0  0  0
    1.1450   -3.7890    1.2740 C   0  0  0  0  0  0  0  0  0  0  0  0
    0.2060   -3.1750    0.4250 O   0  0  0  0  0  0  0  0  0  0  0  0
    0.6170   -1.7490   -0.2340 P   0  0  0  0  0  0  0  0  0  0  0  0
    2.1980   -0.9550   -0.1250 C   0  0  0  0  0  0  0  0  0  0  0  0
    2.3130    0.3550   -0.6110 C   0  0  0  0  0  0  0  0  0  0  0  0
    3.4380    1.0960   -0.5040 C   0  0  0  0  0  0  0  0  0  0  0  0
    4.5620    0.5750    0.1120 C   0  0  0  0  0  0  0  0  0  0  0  0
    5.7520    1.4040    0.2360 C   0  0  0  0  0  0  0  0  0  0  0  0
    6.7840    0.9620    0.7720 O   0  0  0  0  0  0  0  0  0  0  0  0
    5.7210    2.7130   -0.2540 O   0  0  0  0  0  0  0  0  0  0  0  0
    6.8420    3.5680   -0.1690 C   0  0  0  0  0  0  0  0  0  0  0  0
    4.5070   -0.6890    0.6020 C   0  0  0  0  0  0  0  0  0  0  0  0
    3.3260   -1.4360    0.4730 C   0  0  0  0  0  0  0  0  0  0  0  0
   -0.7400   -0.5870   -0.5110 C   0  0  1  0  0  0  0  0  0  0  0  0
   -2.0370   -1.2690   -0.9280 C   0  0  0  0  0  0  0  0  0  0  0  0
   -3.0130   -0.1590   -0.9350 C   0  0  0  0  0  0  0  0  0  0  0  0
   -2.7390    1.0460   -1.5390 C   0  0  0  0  0  0  0  0  0  0  0  0
   -3.6510    2.1090   -1.5360 C   0  0  0  0  0  0  0  0  0  0  0  0
   -4.8550    1.8990   -0.8960 C   0  0  0  0  0  0  0  0  0  0  0  0
   -5.1590    0.7020   -0.2890 C   0  0  0  0  0  0  0  0  0  0  0  0
   -4.2410   -0.3170   -0.3070 C   0  0  0  0  0  0  0  0  0  0  0  0
   -6.4600    0.5500    0.3330 C   0  0  0  0  0  0  0  0  0  0  0  0
   -6.7750   -0.5300    0.9030 O   0  0  0  0  0  0  0  0  0  0  0  0
   -7.3490    1.6230    0.2850 O   0  0  0  0  0  0  0  0  0  0  0  0
   -6.9080    2.9200   -0.0170 C   0  0  0  0  0  0  0  0  0  0  0  0
   -5.7590    2.9570   -0.8660 O   0  0  0  0  0  0  0  0  0  0  0  0
   -0.9780    0.7220    0.7150 P   0  0  0  0  0  0  0  0  0  0  0  0
   -1.9630    0.6010    1.8850 O   0  0  0  0  0  0  0  0  0  0  0  0
  1  2  1  0
  2  3  1  0
  3  4  1  0
  4  5  1  0
  4 15  1  0
  5  6  2  0
  5 14  1  0
  6  7  1  0
  7  8  2  0
  8  9  1  0
  8 13  1  0
  9 10  2  0
  9 11  1  0
 11 12  1  0
 13 14  2  0
 15 16  1  1
 15 28  1  0
 16 17  1  0
 17 18  2  0
 17 22  1  0
 18 19  1  0
 19 20  2  0
 20 21  1  0
 20 27  1  0
 21 22  2  0
 21 23  1  0
 23 24  2  0
 23 25  1  0
 25 26  1  0
 26 27  1  0
 28 29  2  0
M  END
