
     RDKit          3D

 30 32  0  0  0  0  0  0  0  0999 V2000
    5.3860   -4.1670    0.2540 C   0  0  0  0  0  0  0  0  0  0  0  0
    5.3430   -2.7540    0.4630 O   0  0  0  0  0  0  0  0  0  0  0  0
    4.6590   -1.9400   -0.3780 C   0  0  0  0  0  0  0  0  0  0  0  0
    4.0710   -2.3950   -1.3840 O   0  0  0  0  0  0  0  0  0  0  0  0
    4.5530   -0.4510   -0.1340 C   0  0  0  0  0  0  0  0  0  0  0  0
    3.2180   -0.1670   -0.5040 O   0  0  0  0  0  0  0  0  0  0  0  0
    2.5220    0.3230    0.6150 C   0  0  0  0  0  0  0  0  0  0  0  0
    1.1140    0.4730    0.1580 C   0  0  0  0  0  0  0  0  0  0  0  0
    0.4120   -0.6900   -0.2070 C   0  0  0  0  0  0  0  0  0  0  0  0
   -0.9080   -0.5160   -0.4970 C   0  0  0  0  0  0  0  0  0  0  0  0
   -1.7100   -1.6930   -0.9740 C   0  0  0  0  0  0  0  0  0  0  0  0
   -1.1850   -2.5600   -1.6480 O   0  0  0  0  0  0  0  0  0  0  0  0
   -3.0990   -1.6100   -0.5420 C   0  0  0  0  0  0  0  0  0  0  0  0
   -4.0180   -1.1920   -1.4650 C   0  0  0  0  0  0  0  0  0  0  0  0
   -5.3150   -0.9340   -1.0340 C   0  0  0  0  0  0  0  0  0  0  0  0
   -5.5960   -1.0950    0.2830 C   0  0  0  0  0  0  0  0  0  0  0  0
   -6.9270   -0.7020    0.7980 C   0  0  0  0  0  0  0  0  0  0  0  0
   -7.8900   -2.1760    1.3050 P   0  0  0  0  0  0  0  0  0  0  0  0
   -9.2830   -1.8930    1.9970 O   0  0  0  0  0  0  0  0  0  0  0  0
   -4.6760   -1.5010    1.2480 C   0  0  0  0  0  0  0  0  0  0  0  0
   -3.3980   -1.7620    0.7740 C   0  0  0  0  0  0  0  0  0  0  0  0
   -1.5350    0.6880   -0.4350 C   0  0  0  0  0  0  0  0  0  0  0  0
   -0.8090    1.8210   -0.0550 C   0  0  0  0  0  0  0  0  0  0  0  0
    0.5050    1.6770    0.2250 C   0  0  0  0  0  0  0  0  0  0  0  0
    1.3000    2.8500    0.6510 C   0  0  0  0  0  0  0  0  0  0  0  0
    2.9080    3.0590   -0.2680 P   0  0  0  0  0  0  0  0  0  0  0  0
    2.9350    4.5430   -1.1540 O   0  0  0  0  0  0  0  0  0  0  0  0
    3.5250    5.3510   -0.1520 C   0  0  0  0  0  0  0  0  0  0  0  0
    4.5550    4.6220    0.4120 O   0  0  0  0  0  0  0  0  0  0  0  0
    4.0580    3.5600    0.9940 O   0  0  0  0  0  0  0  0  0  0  0  0
  1  2  1  0
  2  3  1  0
  3  4  2  0
  3  5  1  0
  5  6  1  0
  6  7  1  0
  7  8  1  0
  8  9  2  0
  8 24  1  0
  9 10  1  0
 10 11  1  0
 10 22  2  0
 11 12  2  0
 11 13  1  0
 13 14  2  0
 13 21  1  0
 14 15  1  0
 15 16  2  0
 16 17  1  0
 16 20  1  0
 17 18  1  0
 18 19  2  0
 20 21  2  0
 22 23  1  0
 23 24  2  0
 24 25  1  0
 25 26  1  0
 26 27  1  0
 26 30  1  0
 27 28  1  0
 28 29  1  0
 29 30  1  0
M  END
