
     RDKit          3D

 29 31  0  0  0  0  0  0  0  0999 V2000
   -2.0270    3.4610    0.3390 C   0  0  0  0  0  0  0  0  0  0  0  0
   -2.7240    3.0010   -0.9140 C   0  0  0  0  0  0  0  0  0  0  0  0
   -1.8090    2.2740   -1.7130 O   0  0  0  0  0  0  0  0  0  0  0  0
   -2.4290    0.5840   -1.6870 P   0  0  0  0  0  0  0  0  0  0  0  0
   -4.1420    0.5380   -1.4500 O   0  0  0  0  0  0  0  0  0  0  0  0
   -4.5610    0.5180   -0.1640 C   0  0  0  0  0  0  0  0  0  0  0  0
   -5.4910   -0.5620    0.2660 C   0  0  0  0  0  0  0  0  0  0  0  0
   -5.1950   -1.9460   -0.1030 C   0  0  0  0  0  0  0  0  0  0  0  0
   -3.8420   -2.4300    0.4200 C   0  0  0  0  0  0  0  0  0  0  0  0
   -3.1790   -3.0790   -0.6070 O   0  0  0  0  0  0  0  0  0  0  0  0
   -2.3620   -2.7210   -1.6150 C   0  0  0  0  0  0  0  0  0  0  0  0
   -2.7880   -2.6160   -2.8460 O   0  0  0  0  0  0  0  0  0  0  0  0
   -1.0300   -2.4230   -1.5140 O   0  0  0  0  0  0  0  0  0  0  0  0
   -0.2260   -1.8060   -0.6500 C   0  0  0  0  0  0  0  0  0  0  0  0
    1.0360   -2.3710   -0.4010 C   0  0  0  0  0  0  0  0  0  0  0  0
    1.9300   -1.8180    0.4620 C   0  0  0  0  0  0  0  0  0  0  0  0
    1.6430   -0.6640    1.1450 C   0  0  0  0  0  0  0  0  0  0  0  0
    2.5930   -0.1360    2.0010 O   0  0  0  0  0  0  0  0  0  0  0  0
    3.7830    1.0170    1.6090 P   0  0  0  0  0  0  0  0  0  0  0  0
    3.1560    2.5440    1.0540 O   0  0  0  0  0  0  0  0  0  0  0  0
    5.2390    0.5160    0.6790 C   0  0  0  0  0  0  0  0  0  0  0  0
    5.4050   -0.5500   -0.0910 C   0  0  0  0  0  0  0  0  0  0  0  0
    6.6050   -0.8250   -0.7930 C   0  0  0  0  0  0  0  0  0  0  0  0
    7.6740    0.0300   -0.6940 C   0  0  0  0  0  0  0  0  0  0  0  0
    7.5200    1.1330    0.1030 C   0  0  0  0  0  0  0  0  0  0  0  0
    6.3480    1.4020    0.7840 C   0  0  0  0  0  0  0  0  0  0  0  0
    0.4030   -0.0920    0.9300 C   0  0  0  0  0  0  0  0  0  0  0  0
   -0.5370   -0.6330    0.0470 C   0  0  0  0  0  0  0  0  0  0  0  0
   -1.7230   -0.0470   -0.1320 O   0  0  0  0  0  0  0  0  0  0  0  0
  1  2  1  0
  2  3  1  0
  3  4  1  0
  4  5  1  0
  4 29  1  0
  5  6  1  0
  6  7  1  0
  7  8  1  0
  8  9  1  0
  9 10  1  0
 10 11  1  0
 11 12  2  0
 11 13  1  0
 13 14  1  0
 14 15  2  0
 14 28  1  0
 15 16  1  0
 16 17  2  0
 17 18  1  0
 17 27  1  0
 18 19  1  0
 19 20  1  0
 19 21  1  0
 21 22  2  0
 21 26  1  0
 22 23  1  0
 23 24  2  0
 24 25  1  0
 25 26  2  0
 27 28  2  0
 28 29  1  0
M  END
