
     RDKit          3D

 30 33  0  0  0  0  0  0  0  0999 V2000
   -3.9330    0.0370    2.8650 O   0  0  0  0  0  0  0  0  0  0  0  0
   -4.6360   -0.2480    1.5600 P   0  0  2  0  0  0  0  0  0  0  0  0
   -5.7380    1.0030    1.2920 O   0  0  0  0  0  0  0  0  0  0  0  0
   -5.4280   -1.7180    1.5600 O   0  0  0  0  0  0  0  0  0  0  0  0
   -3.4080   -0.1680    0.1990 C   0  0  2  0  0  0  0  0  0  0  0  0
   -4.1440    0.1040   -0.9540 O   0  0  0  0  0  0  0  0  0  0  0  0
   -2.7600   -1.5080    0.1250 C   0  0  0  0  0  0  0  0  0  0  0  0
   -1.7350   -1.6630   -0.9080 C   0  0  0  0  0  0  0  0  0  0  0  0
   -2.0500   -2.0820   -2.2010 C   0  0  0  0  0  0  0  0  0  0  0  0
   -1.0550   -2.2210   -3.1430 C   0  0  0  0  0  0  0  0  0  0  0  0
    0.2470   -1.9400   -2.7860 C   0  0  0  0  0  0  0  0  0  0  0  0
    0.5790   -1.5210   -1.5020 C   0  0  0  0  0  0  0  0  0  0  0  0
    1.9880   -1.2570   -1.2430 C   0  0  0  0  0  0  0  0  0  0  0  0
    2.9750   -2.1310   -1.6790 C   0  0  0  0  0  0  0  0  0  0  0  0
    4.3150   -1.9130   -1.4530 C   0  0  0  0  0  0  0  0  0  0  0  0
    4.7060   -0.7810   -0.7640 C   0  0  0  0  0  0  0  0  0  0  0  0
    3.7480    0.1060   -0.3190 C   0  0  0  0  0  0  0  0  0  0  0  0
    2.3900   -0.1310   -0.5580 C   0  0  0  0  0  0  0  0  0  0  0  0
    1.7020    0.8450   -0.0410 O   0  0  0  0  0  0  0  0  0  0  0  0
    2.4700    1.7390    0.5360 C   0  0  0  0  0  0  0  0  0  0  0  0
    2.2580    2.9250    1.2100 C   0  0  0  0  0  0  0  0  0  0  0  0
    3.2870    3.6830    1.7280 C   0  0  0  0  0  0  0  0  0  0  0  0
    4.5990    3.2400    1.5680 C   0  0  0  0  0  0  0  0  0  0  0  0
    4.8060    2.0530    0.8920 C   0  0  0  0  0  0  0  0  0  0  0  0
    3.7710    1.3010    0.3780 C   0  0  0  0  0  0  0  0  0  0  0  0
   -0.4140   -1.3820   -0.5600 C   0  0  0  0  0  0  0  0  0  0  0  0
   -2.2800    1.1820    0.6060 P   0  0  2  0  0  0  0  0  0  0  0  0
   -3.1140    2.4050    0.9210 O   0  0  0  0  0  0  0  0  0  0  0  0
   -1.2430    1.5690   -0.6530 O   0  0  0  0  0  0  0  0  0  0  0  0
   -1.3620    0.8320    1.9780 O   0  0  0  0  0  0  0  0  0  0  0  0
  1  2  2  0
  2  3  1  6
  2  4  1  0
  2  5  1  0
  5  6  1  6
  5  7  1  0
  5 27  1  0
  7  8  1  0
  8  9  2  0
  8 26  1  0
  9 10  1  0
 10 11  2  0
 11 12  1  0
 12 13  1  0
 12 26  2  0
 13 14  2  0
 13 18  1  0
 14 15  1  0
 15 16  2  0
 16 17  1  0
 17 18  2  0
 17 25  1  0
 18 19  1  0
 19 20  1  0
 20 21  2  0
 20 25  1  0
 21 22  1  0
 22 23  2  0
 23 24  1  0
 24 25  2  0
 27 28  2  0
 27 29  1  6
 27 30  1  0
M  END
