
     RDKit          3D

 30 32  0  0  0  0  0  0  0  0999 V2000
   -1.0790   -1.1990   -4.1070 C   0  0  0  0  0  0  0  0  0  0  0  0
   -1.1710   -0.2410   -2.9100 C   0  0  0  0  0  0  0  0  0  0  0  0
   -0.6940   -0.8550   -1.7870 O   0  0  0  0  0  0  0  0  0  0  0  0
   -0.6990   -0.0500   -0.3290 P   0  0  0  0  0  0  0  0  0  0  0  0
   -1.9700   -0.1480    0.7550 O   0  0  0  0  0  0  0  0  0  0  0  0
   -2.8780   -1.1790    0.8690 C   0  0  0  0  0  0  0  0  0  0  0  0
   -2.7910   -2.2620    0.0360 C   0  0  0  0  0  0  0  0  0  0  0  0
   -3.6610   -3.3280    0.0890 C   0  0  0  0  0  0  0  0  0  0  0  0
   -4.6660   -3.2960    1.0330 C   0  0  0  0  0  0  0  0  0  0  0  0
   -4.7630   -2.2100    1.8780 C   0  0  0  0  0  0  0  0  0  0  0  0
   -5.7870   -2.2130    2.8190 O   0  0  0  0  0  0  0  0  0  0  0  0
   -3.8870   -1.1510    1.8130 C   0  0  0  0  0  0  0  0  0  0  0  0
    0.6570    1.1010    0.0390 C   0  0  2  0  0  0  0  0  0  0  0  0
    0.8710    2.0460   -1.1090 C   0  0  0  0  0  0  0  0  0  0  0  0
   -0.2840    2.8780   -1.4480 C   0  0  0  0  0  0  0  0  0  0  0  0
   -1.4080    2.8750   -0.9390 O   0  0  0  0  0  0  0  0  0  0  0  0
   -0.0890    3.7970   -2.4960 O   0  0  0  0  0  0  0  0  0  0  0  0
    1.9170    0.2920    0.2100 C   0  0  0  0  0  0  0  0  0  0  0  0
    3.1650    0.8680    0.2010 C   0  0  0  0  0  0  0  0  0  0  0  0
    4.2660    0.0560    0.3720 C   0  0  0  0  0  0  0  0  0  0  0  0
    4.1680   -1.3260    0.5560 C   0  0  0  0  0  0  0  0  0  0  0  0
    5.3230   -2.0850    0.7220 O   0  0  0  0  0  0  0  0  0  0  0  0
    5.3660   -3.4680    0.9170 C   0  0  0  0  0  0  0  0  0  0  0  0
    2.9090   -1.8730    0.5600 C   0  0  0  0  0  0  0  0  0  0  0  0
    1.8010   -1.0900    0.3910 C   0  0  0  0  0  0  0  0  0  0  0  0
    0.3480    1.9240    1.6670 P   0  0  0  0  0  0  0  0  0  0  0  0
   -1.0030    3.0200    1.6250 O   0  0  0  0  0  0  0  0  0  0  0  0
   -0.4560    4.1520    2.1650 C   0  0  0  0  0  0  0  0  0  0  0  0
    0.9990    4.2500    1.8510 C   0  0  0  0  0  0  0  0  0  0  0  0
    1.6170    3.0440    2.0770 O   0  0  0  0  0  0  0  0  0  0  0  0
  1  2  1  0
  2  3  1  0
  3  4  1  0
  4  5  1  0
  4 13  1  0
  5  6  1  0
  6  7  2  0
  6 12  1  0
  7  8  1  0
  8  9  2  0
  9 10  1  0
 10 11  1  0
 10 12  2  0
 13 14  1  6
 13 18  1  0
 13 26  1  0
 14 15  1  0
 15 16  2  0
 15 17  1  0
 18 19  2  0
 18 25  1  0
 19 20  1  0
 20 21  2  0
 21 22  1  0
 21 24  1  0
 22 23  1  0
 24 25  2  0
 26 27  1  0
 26 30  1  0
 27 28  1  0
 28 29  1  0
 29 30  1  0
M  END
