
     RDKit          3D

  6  5  0  0  0  0  0  0  0  0999 V2000
   -1.9570   -0.5670   -0.5830 C   0  0  0  0  0  0  0  0  0  0  0  0
   -0.8240   -0.9460    0.3350 C   0  0  0  0  0  0  0  0  0  0  0  0
   -0.0880    0.3240    0.7720 C   0  0  1  0  0  0  0  0  0  0  0  0
    1.0430   -0.0130    1.6850 C   0  0  0  0  0  0  0  0  0  0  0  0
    0.3370    1.0570   -0.4700 C   0  0  0  0  0  0  0  0  0  0  0  0
    1.2500    0.2670   -1.3540 C   0  0  0  0  0  0  0  0  0  0  0  0
  1  2  1  0
  2  3  1  0
  3  4  1  1
  3  5  1  0
  5  6  1  0
M  END
