
     RDKit          3D

  6  7  0  0  0  0  0  0  0  0999 V2000
   -1.5630    0.7550    0.1920 C   0  0  0  0  0  0  0  0  0  0  0  0
   -1.9050   -0.7290    0.1550 C   0  0  0  0  0  0  0  0  0  0  0  0
   -0.5390   -0.2800    0.4960 C   0  0  1  0  0  0  0  0  0  0  0  0
    0.6210   -0.4760   -0.4220 C   0  0  1  0  0  0  0  0  0  0  0  0
    1.5050    0.7680   -0.5920 C   0  0  0  0  0  0  0  0  0  0  0  0
    2.0130   -0.3950    0.1880 C   0  0  0  0  0  0  0  0  0  0  0  0
  1  2  1  0
  3  1  1  6
  2  3  1  0
  3  4  1  0
  4  5  1  6
  4  6  1  0
  5  6  1  0
M  END
