
     RDKit          3D

 18 17  0  0  0  0  0  0  0  0999 V2000
   -3.6060   -1.3970   -0.4190 N   0  0  0  0  0  0  0  0  0  0  0  0
   -3.2620    0.0080   -0.4310 C   0  0  1  0  0  0  0  0  0  0  0  0
   -3.6070    0.5260    0.9610 C   0  0  0  0  0  0  0  0  0  0  0  0
   -5.0570    0.2900    1.1370 C   0  0  0  0  0  0  0  0  0  0  0  0
   -5.8800    1.0970    0.6520 O   0  0  0  0  0  0  0  0  0  0  0  0
   -5.5280   -0.8090    1.8280 O   0  0  0  0  0  0  0  0  0  0  0  0
   -1.8610    0.2500   -0.7950 C   0  0  0  0  0  0  0  0  0  0  0  0
   -1.4000    1.4170   -0.8510 O   0  0  0  0  0  0  0  0  0  0  0  0
   -0.9620   -0.7850   -1.0990 O   0  0  0  0  0  0  0  0  0  0  0  0
    0.3720   -0.5660   -1.4460 C   0  0  0  0  0  0  0  0  0  0  0  0
    1.1380    0.1300   -0.3820 C   0  0  0  0  0  0  0  0  0  0  0  0
    0.6370    0.4840    0.7090 O   0  0  0  0  0  0  0  0  0  0  0  0
    2.5100    0.4000   -0.6320 N   0  0  0  0  0  0  0  0  0  0  0  0
    3.2800    1.0820    0.4000 C   0  0  0  0  0  0  0  0  0  0  0  0
    4.7080    1.2370   -0.1390 C   0  0  0  0  0  0  0  0  0  0  0  0
    5.3120   -0.4410   -0.4510 S   0  0  0  0  0  0  0  0  0  0  0  0
    5.5310   -1.5780    1.2620 S   0  0  0  0  0  0  0  0  0  0  0  0
    6.6660   -1.1870    2.1570 O   0  0  0  0  0  0  0  0  0  0  0  0
  2  1  1  1
  2  3  1  0
  2  7  1  0
  3  4  1  0
  4  5  2  0
  4  6  1  0
  7  8  2  0
  7  9  1  0
  9 10  1  0
 10 11  1  0
 11 12  2  0
 11 13  1  0
 13 14  1  0
 14 15  1  0
 15 16  1  0
 16 17  1  0
 17 18  2  0
M  END
