
     RDKit          3D

  6  5  0  0  0  0  0  0  0  0999 V2000
    2.7180   -0.2560    0.0690 C   0  0  0  0  0  0  0  0  0  0  0  0
    1.4420    0.5840   -0.0770 C   0  0  0  0  0  0  0  0  0  0  0  0
    0.3220   -0.3740   -0.2980 C   0  0  0  0  0  0  0  0  0  0  0  0
   -1.0250    0.2190   -0.4690 C   0  0  2  0  0  0  0  0  0  0  0  0
   -1.5200    1.0270    0.6780 C   0  0  0  0  0  0  0  0  0  0  0  0
   -1.9850   -0.9700   -0.6340 C   0  0  0  0  0  0  0  0  0  0  0  0
  1  2  1  0
  2  3  1  0
  3  4  1  0
  4  5  1  1
  4  6  1  0
M  END
