
     RDKit          3D

  6  6  0  0  0  0  0  0  0  0999 V2000
   -0.9190   -1.1210   -0.5980 C   0  0  0  0  0  0  0  0  0  0  0  0
   -0.6550    0.3170   -0.3160 C   0  0  1  0  0  0  0  0  0  0  0  0
   -1.7270    0.8450    0.5960 C   0  0  0  0  0  0  0  0  0  0  0  0
    0.7280    0.5790    0.2450 C   0  0  2  0  0  0  0  0  0  0  0  0
    1.9170    0.1890   -0.5830 C   0  0  0  0  0  0  0  0  0  0  0  0
    1.6010   -0.4960    0.7070 C   0  0  0  0  0  0  0  0  0  0  0  0
  2  1  1  1
  2  3  1  0
  2  4  1  0
  4  5  1  6
  4  6  1  0
  5  6  1  0
M  END
