
     RDKit          3D

  6  6  0  0  0  0  0  0  0  0999 V2000
   -1.9620   -0.7870   -0.6830 C   0  0  0  0  0  0  0  0  0  0  0  0
   -0.5830   -0.5180   -0.1960 C   0  0  1  0  0  0  0  0  0  0  0  0
    0.2140    0.4980   -1.0150 C   0  0  0  0  0  0  0  0  0  0  0  0
    0.8840    0.8520    0.3220 C   0  0  2  0  0  0  0  0  0  0  0  0
    1.9610   -0.1400    0.6770 C   0  0  0  0  0  0  0  0  0  0  0  0
   -0.4850    0.5180    0.9330 C   0  0  0  0  0  0  0  0  0  0  0  0
  2  1  1  6
  2  3  1  0
  2  6  1  0
  3  4  1  0
  4  5  1  1
  4  6  1  0
M  END
