
     RDKit          3D

 26 27  0  0  0  0  0  0  0  0999 V2000
   -2.7090   -1.7610   -1.2870 C   0  0  0  0  0  0  0  0  0  0  0  0
   -2.5800   -2.7180   -0.4030 C   0  0  0  0  0  0  0  0  0  0  0  0
   -1.9800   -2.4990    0.8920 C   0  0  0  0  0  0  0  0  0  0  0  0
   -1.8830   -3.5120    1.7330 C   0  0  0  0  0  0  0  0  0  0  0  0
   -2.3910   -4.8410    1.3300 C   0  0  0  0  0  0  0  0  0  0  0  0
   -1.4820   -1.2460    1.3180 N   0  0  0  0  0  0  0  0  0  0  0  0
   -0.3140   -0.6420    0.7560 C   0  0  0  0  0  0  0  0  0  0  0  0
   -0.3020    0.6010    0.3730 C   0  0  0  0  0  0  0  0  0  0  0  0
   -1.4890    1.4690    0.4900 C   0  0  0  0  0  0  0  0  0  0  0  0
   -2.5610    1.0500    0.9570 O   0  0  0  0  0  0  0  0  0  0  0  0
   -1.4500    2.7940    0.0800 O   0  0  0  0  0  0  0  0  0  0  0  0
   -2.5950    3.5950    0.2040 C   0  0  2  0  0  0  0  0  0  0  0  0
   -3.0030    4.0020   -1.2160 C   0  0  0  0  0  0  0  0  0  0  0  0
   -2.3220    4.8800    0.9500 C   0  0  0  0  0  0  0  0  0  0  0  0
    0.9340    1.1820   -0.2020 C   0  0  0  0  0  0  0  0  0  0  0  0
    0.9190    2.3780   -0.5620 O   0  0  0  0  0  0  0  0  0  0  0  0
    2.1200    0.3650   -0.3350 C   0  0  0  0  0  0  0  0  0  0  0  0
    3.2610    0.8540   -0.8520 C   0  0  0  0  0  0  0  0  0  0  0  0
    4.4510    0.0230   -0.9820 C   0  0  0  0  0  0  0  0  0  0  0  0
    5.6840    0.6160   -1.5600 C   0  0  0  0  0  0  0  0  0  0  0  0
    4.4170   -1.2330   -0.5880 C   0  0  0  0  0  0  0  0  0  0  0  0
    5.8990   -2.2110   -0.7670 S   0  0  0  0  0  0  0  0  0  0  0  0
    3.2330   -1.8550   -0.0170 C   0  0  0  0  0  0  0  0  0  0  0  0
    3.1840   -3.0440    0.3620 O   0  0  0  0  0  0  0  0  0  0  0  0
    2.0300   -1.0150    0.1150 C   0  0  0  0  0  0  0  0  0  0  0  0
    0.9100   -1.4740    0.6160 C   0  0  0  0  0  0  0  0  0  0  0  0
  1  2  2  0
  2  3  1  0
  3  4  2  3
  3  6  1  0
  4  5  1  0
  6  7  1  0
  7  8  2  0
  7 26  1  0
  8  9  1  0
  8 15  1  0
  9 10  2  0
  9 11  1  0
 11 12  1  0
 12 13  1  6
 12 14  1  0
 15 16  2  0
 15 17  1  0
 17 18  2  0
 17 25  1  0
 18 19  1  0
 19 20  1  0
 19 21  2  0
 21 22  1  0
 21 23  1  0
 23 24  2  0
 23 25  1  0
 25 26  2  0
M  END
