
     RDKit          3D

  6  5  0  0  0  0  0  0  0  0999 V2000
   -1.1720   -0.0100   -0.0080 C   0  0  0  0  0  0  0  0  0  0  0  0
   -0.0640   -0.5190   -0.6790 O   0  0  0  0  0  0  0  0  0  0  0  0
    1.1000   -0.0580   -0.0850 C   0  0  1  0  0  0  0  0  0  0  0  0
    1.2010   -0.4360    1.2450 F   0  0  0  0  0  0  0  0  0  0  0  0
    2.1560   -0.5990   -0.8240 F   0  0  0  0  0  0  0  0  0  0  0  0
    1.2140    1.3140   -0.1400 F   0  0  0  0  0  0  0  0  0  0  0  0
  1  2  1  0
  2  3  1  0
  3  4  1  1
  3  5  1  0
  3  6  1  0
M  END
