
     RDKit          3D

  6  5  0  0  0  0  0  0  0  0999 V2000
    1.3570    0.6700   -0.4830 O   0  0  0  0  0  0  0  0  0  0  0  0
    0.5730   -0.3360    0.0510 C   0  0  0  0  0  0  0  0  0  0  0  0
   -0.9020   -0.0280   -0.0160 C   0  0  1  0  0  0  0  0  0  0  0  0
   -1.3290    0.1530   -1.3160 F   0  0  0  0  0  0  0  0  0  0  0  0
   -1.5670   -1.1500    0.4610 F   0  0  0  0  0  0  0  0  0  0  0  0
   -1.2340    1.1040    0.6880 F   0  0  0  0  0  0  0  0  0  0  0  0
  1  2  1  0
  2  3  1  0
  3  4  1  6
  3  5  1  0
  3  6  1  0
M  END
