
     RDKit          3D

 26 28  0  0  0  0  0  0  0  0999 V2000
    8.3510   -0.0750    0.1170 C   0  0  0  0  0  0  0  0  0  0  0  0
    7.3430   -0.6560   -0.7250 O   0  0  0  0  0  0  0  0  0  0  0  0
    6.0500   -0.1580   -0.7050 C   0  0  0  0  0  0  0  0  0  0  0  0
    5.8010    0.8030    0.0630 O   0  0  0  0  0  0  0  0  0  0  0  0
    4.9670   -0.7060   -1.5420 C   0  0  0  0  0  0  0  0  0  0  0  0
    3.7250   -0.1230   -1.3580 O   0  0  0  0  0  0  0  0  0  0  0  0
    2.9590   -0.0890   -0.2140 C   0  0  0  0  0  0  0  0  0  0  0  0
    3.3470   -0.6790    0.9690 C   0  0  0  0  0  0  0  0  0  0  0  0
    2.5430   -0.6140    2.0880 C   0  0  0  0  0  0  0  0  0  0  0  0
    1.3440    0.0450    2.0180 C   0  0  0  0  0  0  0  0  0  0  0  0
    0.9090    0.6540    0.8540 C   0  0  0  0  0  0  0  0  0  0  0  0
   -0.5710    1.5140    0.7740 S   0  0  0  0  0  0  0  0  0  0  0  0
   -2.0590    0.7400    0.3570 C   0  0  0  0  0  0  0  0  0  0  0  0
   -3.2170    1.5400    0.3070 C   0  0  0  0  0  0  0  0  0  0  0  0
   -4.4560    1.0550   -0.0070 C   0  0  0  0  0  0  0  0  0  0  0  0
   -4.5960   -0.2840   -0.2920 C   0  0  0  0  0  0  0  0  0  0  0  0
   -5.9280   -0.4940   -0.5690 C   0  0  0  0  0  0  0  0  0  0  0  0
   -6.5800    0.7340   -0.4460 C   0  0  0  0  0  0  0  0  0  0  0  0
   -5.6770    1.6670   -0.1050 N   0  0  0  0  0  0  0  0  0  0  0  0
   -5.9600    3.0760    0.1180 C   0  0  0  0  0  0  0  0  0  0  0  0
   -3.4980   -1.1050   -0.2560 C   0  0  0  0  0  0  0  0  0  0  0  0
   -3.6080   -2.5410   -0.5540 C   0  0  0  0  0  0  0  0  0  0  0  0
   -3.4750   -2.9840   -1.7200 O   0  0  0  0  0  0  0  0  0  0  0  0
   -2.2290   -0.5790    0.0710 C   0  0  0  0  0  0  0  0  0  0  0  0
   -1.0530   -1.4840    0.1070 C   0  0  0  0  0  0  0  0  0  0  0  0
    1.7450    0.5640   -0.2390 C   0  0  0  0  0  0  0  0  0  0  0  0
  1  2  1  0
  2  3  1  0
  3  4  2  0
  3  5  1  0
  5  6  1  0
  6  7  1  0
  7  8  2  0
  7 26  1  0
  8  9  1  0
  9 10  2  0
 10 11  1  0
 11 12  1  0
 11 26  2  0
 12 13  1  0
 13 14  2  0
 13 24  1  0
 14 15  1  0
 15 16  2  0
 15 19  1  0
 16 17  1  0
 16 21  1  0
 17 18  2  0
 18 19  1  0
 19 20  1  0
 21 22  1  0
 21 24  2  0
 22 23  2  0
 24 25  1  0
M  END
