
     RDKit          3D

 26 28  0  0  0  0  0  0  0  0999 V2000
   -4.2490    4.2840   -0.5530 C   0  0  0  0  0  0  0  0  0  0  0  0
   -3.2920    3.9890   -1.6960 C   0  0  0  0  0  0  0  0  0  0  0  0
   -2.4150    2.9520   -1.2610 O   0  0  0  0  0  0  0  0  0  0  0  0
   -2.8420    1.7100   -0.8930 C   0  0  0  0  0  0  0  0  0  0  0  0
   -4.1160    1.5400   -0.9730 O   0  0  0  0  0  0  0  0  0  0  0  0
   -2.1030    0.5560   -0.4370 C   0  0  0  0  0  0  0  0  0  0  0  0
   -0.7850    0.5690   -0.2620 C   0  0  0  0  0  0  0  0  0  0  0  0
   -0.1950    1.9060   -0.5810 C   0  0  0  0  0  0  0  0  0  0  0  0
    1.1580    2.0920   -0.0020 C   0  0  0  0  0  0  0  0  0  0  0  0
    2.2680    1.2660   -0.6100 C   0  0  0  0  0  0  0  0  0  0  0  0
    2.3270   -0.0680    0.0110 C   0  0  0  0  0  0  0  0  0  0  0  0
    3.6090   -0.6300    0.2910 C   0  0  0  0  0  0  0  0  0  0  0  0
    4.8080   -0.1810    0.0910 C   0  0  0  0  0  0  0  0  0  0  0  0
    5.3670    1.3360   -0.6230 S   0  0  0  0  0  0  0  0  0  0  0  0
    7.0960    1.2690   -1.1530 C   0  0  0  0  0  0  0  0  0  0  0  0
    1.3050   -0.8640    0.3550 C   0  0  0  0  0  0  0  0  0  0  0  0
   -0.0730   -0.5880    0.1850 N   0  0  0  0  0  0  0  0  0  0  0  0
   -0.8370   -1.7940    0.4560 C   0  0  0  0  0  0  0  0  0  0  0  0
   -0.4670   -2.6730    1.3300 C   0  0  0  0  0  0  0  0  0  0  0  0
   -1.2970   -3.8840    1.5420 C   0  0  0  0  0  0  0  0  0  0  0  0
   -1.6550   -4.4250    2.7530 C   0  0  0  0  0  0  0  0  0  0  0  0
   -2.4240   -5.5450    2.4920 C   0  0  0  0  0  0  0  0  0  0  0  0
   -2.5050   -5.6420    1.1380 C   0  0  0  0  0  0  0  0  0  0  0  0
   -1.8350   -4.6550    0.6230 O   0  0  0  0  0  0  0  0  0  0  0  0
   -2.1080   -1.9090   -0.2930 C   0  0  0  0  0  0  0  0  0  0  0  0
   -2.7790   -0.6370   -0.1650 O   0  0  0  0  0  0  0  0  0  0  0  0
  1  2  1  0
  2  3  1  0
  3  4  1  0
  4  5  2  0
  4  6  1  0
  6  7  2  0
  6 26  1  0
  7  8  1  0
  7 17  1  0
  8  9  1  0
  9 10  1  0
 10 11  1  0
 11 12  1  0
 11 16  2  0
 12 13  2  3
 13 14  1  0
 14 15  1  0
 16 17  1  0
 17 18  1  0
 18 19  2  3
 18 25  1  0
 19 20  1  0
 20 21  2  0
 20 24  1  0
 21 22  1  0
 22 23  2  0
 23 24  1  0
 25 26  1  0
M  END
