
     RDKit          3D

 26 28  0  0  0  0  0  0  0  0999 V2000
   -4.0690   -2.4660   -1.6480 C   0  0  0  0  0  0  0  0  0  0  0  0
   -4.5530   -1.9060   -0.5630 C   0  0  0  0  0  0  0  0  0  0  0  0
   -3.7930   -0.9510    0.2360 C   0  0  0  0  0  0  0  0  0  0  0  0
   -4.3550   -0.4390    1.3100 C   0  0  0  0  0  0  0  0  0  0  0  0
   -5.7260   -0.7900    1.7400 C   0  0  0  0  0  0  0  0  0  0  0  0
   -2.3990   -0.5760   -0.1680 C   0  0  0  0  0  0  0  0  0  0  0  0
   -1.7900    0.4150    0.7950 C   0  0  0  0  0  0  0  0  0  0  0  0
   -0.4100    0.7890    0.4090 C   0  0  0  0  0  0  0  0  0  0  0  0
    0.6730    0.2600    1.0780 C   0  0  0  0  0  0  0  0  0  0  0  0
    1.9770    0.5960    0.7270 C   0  0  0  0  0  0  0  0  0  0  0  0
    3.1090    0.0650    1.3950 N   0  0  0  0  0  0  0  0  0  0  0  0
    3.6130    0.4080    2.5960 C   0  0  0  0  0  0  0  0  0  0  0  0
    4.7320   -0.3500    2.8970 C   0  0  0  0  0  0  0  0  0  0  0  0
    4.9140   -1.1900    1.8340 C   0  0  0  0  0  0  0  0  0  0  0  0
    3.9180   -0.9230    0.9300 C   0  0  0  0  0  0  0  0  0  0  0  0
    3.6870   -1.7240   -0.6210 S   0  0  1  0  0  0  0  0  0  0  0  0
    4.9380   -2.9590   -0.8740 C   0  0  0  0  0  0  0  0  0  0  0  0
    2.3520   -2.4060   -0.6810 O   0  0  0  0  0  0  0  0  0  0  0  0
    3.7290   -0.7370   -1.7480 O   0  0  0  0  0  0  0  0  0  0  0  0
    2.1670    1.4800   -0.3120 C   0  0  0  0  0  0  0  0  0  0  0  0
    1.1020    2.0350   -1.0110 C   0  0  0  0  0  0  0  0  0  0  0  0
   -0.1940    1.6690   -0.6260 C   0  0  0  0  0  0  0  0  0  0  0  0
   -1.2110    2.2590   -1.3630 O   0  0  0  0  0  0  0  0  0  0  0  0
   -1.1250    3.5420   -1.9500 C   0  0  0  0  0  0  0  0  0  0  0  0
    0.2560    3.8930   -2.3800 C   0  0  0  0  0  0  0  0  0  0  0  0
    1.2170    2.9180   -2.0520 O   0  0  0  0  0  0  0  0  0  0  0  0
  1  2  2  0
  2  3  1  0
  3  4  2  3
  3  6  1  0
  4  5  1  0
  6  7  1  0
  7  8  1  0
  8  9  2  0
  8 22  1  0
  9 10  1  0
 10 11  1  0
 10 20  2  0
 11 12  1  0
 11 15  1  0
 12 13  2  0
 13 14  1  0
 14 15  2  0
 15 16  1  0
 16 17  1  6
 16 18  2  0
 16 19  2  0
 20 21  1  0
 21 22  2  0
 21 26  1  0
 22 23  1  0
 23 24  1  0
 24 25  1  0
 25 26  1  0
M  END
