
     RDKit          3D

 21 21  0  0  0  0  0  0  0  0999 V2000
    5.3690   -0.8770    1.8880 C   0  0  0  0  0  0  0  0  0  0  0  0
    4.9380   -0.1800    0.6410 C   0  0  2  0  0  0  0  0  0  0  0  0
    5.9990    0.7770    0.1250 C   0  0  0  0  0  0  0  0  0  0  0  0
    3.6850    0.4700    0.7810 O   0  0  0  0  0  0  0  0  0  0  0  0
    2.5730    0.1560    0.0390 C   0  0  0  0  0  0  0  0  0  0  0  0
    2.6950   -0.7720   -0.8150 O   0  0  0  0  0  0  0  0  0  0  0  0
    1.2640    0.8430    0.1920 C   0  0  1  0  0  0  0  0  0  0  0  0
    1.4390    2.3180   -0.1190 C   0  0  0  0  0  0  0  0  0  0  0  0
    0.2960    0.2650   -0.7490 N   0  0  0  0  0  0  0  0  0  0  0  0
   -0.8860   -0.3670   -0.3110 C   0  0  0  0  0  0  0  0  0  0  0  0
   -1.1420   -0.4530    0.9140 O   0  0  0  0  0  0  0  0  0  0  0  0
   -1.8460   -0.9430   -1.2920 C   0  0  1  0  0  0  0  0  0  0  0  0
   -1.2060   -1.8420   -2.2920 C   0  0  0  0  0  0  0  0  0  0  0  0
   -2.9560   -1.5260   -0.6490 O   0  0  0  0  0  0  0  0  0  0  0  0
   -3.8160   -0.8130    0.1720 C   0  0  0  0  0  0  0  0  0  0  0  0
   -3.9330   -1.0250    1.4610 C   0  0  0  0  0  0  0  0  0  0  0  0
   -4.8320   -0.2930    2.3720 C   0  0  0  0  0  0  0  0  0  0  0  0
   -5.5580    0.6710    1.6880 O   0  0  0  0  0  0  0  0  0  0  0  0
   -5.4570    0.9170    0.3380 C   0  0  0  0  0  0  0  0  0  0  0  0
   -4.6300    0.2270   -0.4370 C   0  0  0  0  0  0  0  0  0  0  0  0
   -4.5560    0.5080   -1.8090 N   0  0  0  0  0  0  0  0  0  0  0  0
  2  1  1  1
  2  3  1  0
  2  4  1  0
  4  5  1  0
  5  6  2  0
  5  7  1  0
  7  8  1  6
  7  9  1  0
  9 10  1  0
 10 11  2  0
 10 12  1  0
 12 13  1  1
 12 14  1  0
 14 15  1  0
 15 16  2  0
 15 20  1  0
 16 17  1  0
 17 18  1  0
 18 19  1  0
 19 20  2  0
 20 21  1  0
M  END
