
     RDKit          3D

 26 29  0  0  0  0  0  0  0  0999 V2000
    2.8140   -3.0640    1.7280 C   0  0  0  0  0  0  0  0  0  0  0  0
    2.1150   -2.0650    1.0240 O   0  0  0  0  0  0  0  0  0  0  0  0
    2.7600   -0.9320    0.5190 C   0  0  0  0  0  0  0  0  0  0  0  0
    4.1180   -0.8070    0.7260 C   0  0  0  0  0  0  0  0  0  0  0  0
    4.7560    0.3080    0.2300 C   0  0  0  0  0  0  0  0  0  0  0  0
    4.0410    1.2710   -0.4580 C   0  0  0  0  0  0  0  0  0  0  0  0
    2.6880    1.1270   -0.6540 C   0  0  0  0  0  0  0  0  0  0  0  0
    2.0160    0.0040   -0.1600 C   0  0  0  0  0  0  0  0  0  0  0  0
    0.6520   -0.1120   -0.3740 O   0  0  0  0  0  0  0  0  0  0  0  0
   -0.2810    0.4020    0.5370 C   0  0  0  0  0  0  0  0  0  0  0  0
    0.2120    0.9690    1.5490 O   0  0  0  0  0  0  0  0  0  0  0  0
   -1.7120    0.2850    0.3210 C   0  0  0  0  0  0  0  0  0  0  0  0
   -2.3080   -0.3220   -0.7610 C   0  0  0  0  0  0  0  0  0  0  0  0
   -3.6720   -0.2080   -0.5650 C   0  0  0  0  0  0  0  0  0  0  0  0
   -4.8130   -0.5820   -1.2370 C   0  0  0  0  0  0  0  0  0  0  0  0
   -6.0420   -0.2920   -0.7260 C   0  0  0  0  0  0  0  0  0  0  0  0
   -6.1520    0.3580    0.4310 N   0  0  0  0  0  0  0  0  0  0  0  0
   -5.0830    0.7550    1.1410 C   0  0  0  0  0  0  0  0  0  0  0  0
   -5.3030    1.4240    2.3310 O   0  0  0  0  0  0  0  0  0  0  0  0
   -3.8320    0.4680    0.6370 C   0  0  0  0  0  0  0  0  0  0  0  0
   -2.6390    0.7340    1.1160 O   0  0  0  0  0  0  0  0  0  0  0  0
    2.2440    2.2890   -1.3980 C   0  0  0  0  0  0  0  0  0  0  0  0
    1.0810    2.5510   -1.7830 O   0  0  0  0  0  0  0  0  0  0  0  0
    3.3420    3.0910   -1.6240 O   0  0  0  0  0  0  0  0  0  0  0  0
    4.4700    2.5180   -1.0710 C   0  0  0  0  0  0  0  0  0  0  0  0
    5.6350    3.0220   -1.1150 O   0  0  0  0  0  0  0  0  0  0  0  0
  1  2  1  0
  2  3  1  0
  3  4  2  0
  3  8  1  0
  4  5  1  0
  5  6  2  0
  6  7  1  0
  6 25  1  0
  7  8  2  0
  7 22  1  0
  8  9  1  0
  9 10  1  0
 10 11  2  0
 10 12  1  0
 12 13  2  0
 12 21  1  0
 13 14  1  0
 14 15  2  0
 14 20  1  0
 15 16  1  0
 16 17  2  0
 17 18  1  0
 18 19  1  0
 18 20  2  0
 20 21  1  0
 22 23  2  0
 22 24  1  0
 24 25  1  0
 25 26  2  0
M  CHG  2  17   1  19  -1
M  END
