
     RDKit          3D

 25 28  0  0  0  0  0  0  0  0999 V2000
   -4.6600   -0.2030   -1.1770 O   0  0  0  0  0  0  0  0  0  0  0  0
   -5.0750   -0.1000    0.0060 C   0  0  0  0  0  0  0  0  0  0  0  0
   -6.4690   -0.4060    0.4210 C   0  0  0  0  0  0  0  0  0  0  0  0
   -7.2000   -0.8180   -0.7440 N   0  0  0  0  0  0  0  0  0  0  0  0
   -6.9640    0.1070   -1.7140 O   0  0  0  0  0  0  0  0  0  0  0  0
   -4.1960    0.3150    0.9660 O   0  0  0  0  0  0  0  0  0  0  0  0
   -2.8730    0.6380    0.7550 C   0  0  0  0  0  0  0  0  0  0  0  0
   -2.5400    1.9460    0.4420 C   0  0  0  0  0  0  0  0  0  0  0  0
   -1.2430    2.3450    0.2170 C   0  0  0  0  0  0  0  0  0  0  0  0
   -0.2280    1.3960    0.3090 C   0  0  0  0  0  0  0  0  0  0  0  0
    1.0860    1.7530    0.0920 C   0  0  0  0  0  0  0  0  0  0  0  0
    1.3480    2.9420   -0.1890 O   0  0  0  0  0  0  0  0  0  0  0  0
    2.1140    0.8110    0.1800 C   0  0  0  0  0  0  0  0  0  0  0  0
    3.4190    1.1610   -0.0350 C   0  0  0  0  0  0  0  0  0  0  0  0
    4.3930    0.2000    0.0640 C   0  0  0  0  0  0  0  0  0  0  0  0
    4.0520   -1.1010    0.3760 C   0  0  0  0  0  0  0  0  0  0  0  0
    2.7310   -1.4360    0.5900 C   0  0  0  0  0  0  0  0  0  0  0  0
    1.7230   -0.4840    0.4970 C   0  0  0  0  0  0  0  0  0  0  0  0
    0.4590   -0.8040    0.7010 O   0  0  0  0  0  0  0  0  0  0  0  0
   -0.5150    0.0830    0.6180 C   0  0  0  0  0  0  0  0  0  0  0  0
   -1.8330   -0.2640    0.8340 C   0  0  0  0  0  0  0  0  0  0  0  0
    5.0880   -2.0170    0.4590 O   0  0  0  0  0  0  0  0  0  0  0  0
    6.2810   -1.9000   -0.2900 C   0  0  0  0  0  0  0  0  0  0  0  0
    6.5900   -0.4940   -0.6830 C   0  0  0  0  0  0  0  0  0  0  0  0
    5.7410    0.4680   -0.1380 O   0  0  0  0  0  0  0  0  0  0  0  0
  1  2  2  0
  2  3  1  0
  2  6  1  0
  3  4  1  0
  4  5  1  0
  6  7  1  0
  7  8  2  0
  7 21  1  0
  8  9  1  0
  9 10  2  0
 10 11  1  0
 10 20  1  0
 11 12  2  0
 11 13  1  0
 13 14  2  0
 13 18  1  0
 14 15  1  0
 15 16  2  0
 15 25  1  0
 16 17  1  0
 16 22  1  0
 17 18  2  0
 18 19  1  0
 19 20  1  0
 20 21  2  0
 22 23  1  0
 23 24  1  0
 24 25  1  0
M  CHG  2   4   1   5  -1
M  END
