
     RDKit          3D

 28 30  0  0  0  0  0  0  0  0999 V2000
   -4.7880   -1.4530   -0.9900 C   0  0  0  0  0  0  0  0  0  0  0  0
   -3.3070   -1.6780   -1.1180 C   0  0  2  0  0  0  0  0  0  0  0  0
   -3.0110   -2.0730   -2.5610 C   0  0  0  0  0  0  0  0  0  0  0  0
   -2.9140   -2.8240   -0.2020 C   0  0  0  0  0  0  0  0  0  0  0  0
   -2.5100   -0.4430   -0.7590 C   0  0  0  0  0  0  0  0  0  0  0  0
   -2.7710   -0.0200    0.6410 C   0  0  0  0  0  0  0  0  0  0  0  0
   -3.5860   -0.7230    1.3180 O   0  0  0  0  0  0  0  0  0  0  0  0
   -2.1730    1.0960    1.2400 N   0  0  0  0  0  0  0  0  0  0  0  0
   -2.3710    1.5660    2.5770 C   0  0  0  0  0  0  0  0  0  0  0  0
   -2.3310    3.0820    2.3980 C   0  0  2  0  0  0  0  0  0  0  0  0
   -3.5990    3.6220    2.6200 O   0  0  0  0  0  0  0  0  0  0  0  0
   -1.8320    3.3450    1.0140 C   0  0  0  0  0  0  0  0  0  0  0  0
   -1.2380    1.9880    0.6170 C   0  0  1  0  0  0  0  0  0  0  0  0
    0.1260    1.8130    1.1710 C   0  0  0  0  0  0  0  0  0  0  0  0
    0.3670    0.9500    2.0530 O   0  0  0  0  0  0  0  0  0  0  0  0
    1.1980    2.6300    0.7050 N   0  0  0  0  0  0  0  0  0  0  0  0
    2.5440    2.5130    1.2000 C   0  0  0  0  0  0  0  0  0  0  0  0
    3.1750    1.3050    0.5820 C   0  0  0  0  0  0  0  0  0  0  0  0
    4.4490    0.9010    0.9540 C   0  0  0  0  0  0  0  0  0  0  0  0
    5.0610   -0.2090    0.3990 C   0  0  0  0  0  0  0  0  0  0  0  0
    4.4150   -0.9600   -0.5560 C   0  0  0  0  0  0  0  0  0  0  0  0
    5.0340   -2.1400   -1.1630 C   0  0  0  0  0  0  0  0  0  0  0  0
    6.2780   -2.5950   -0.8330 C   0  0  0  0  0  0  0  0  0  0  0  0
    6.5240   -3.6910   -1.5820 N   0  0  0  0  0  0  0  0  0  0  0  0
    5.4250   -3.8730   -2.3460 C   0  0  0  0  0  0  0  0  0  0  0  0
    4.5520   -2.9350   -2.0770 O   0  0  0  0  0  0  0  0  0  0  0  0
    3.1510   -0.5650   -0.9300 C   0  0  0  0  0  0  0  0  0  0  0  0
    2.5270    0.5490   -0.3780 C   0  0  0  0  0  0  0  0  0  0  0  0
  2  1  1  6
  2  3  1  0
  2  4  1  0
  2  5  1  0
  5  6  1  0
  6  7  2  0
  6  8  1  0
  8  9  1  0
  8 13  1  0
  9 10  1  0
 10 11  1  6
 10 12  1  0
 12 13  1  0
 13 14  1  1
 14 15  2  0
 14 16  1  0
 16 17  1  0
 17 18  1  0
 18 19  2  0
 18 28  1  0
 19 20  1  0
 20 21  2  0
 21 22  1  0
 21 27  1  0
 22 23  2  0
 22 26  1  0
 23 24  1  0
 24 25  2  0
 25 26  1  0
 27 28  2  0
M  END
