
     RDKit          3D

 21 21  0  0  0  0  0  0  0  0999 V2000
    4.4440   -2.3280    0.0810 C   0  0  0  0  0  0  0  0  0  0  0  0
    4.3500   -0.7850    0.0180 C   0  0  0  0  0  0  0  0  0  0  0  0
    2.9410   -0.3760   -0.1630 C   0  0  0  0  0  0  0  0  0  0  0  0
    2.1360   -1.3880   -0.2700 O   0  0  0  0  0  0  0  0  0  0  0  0
    2.4200    0.9660   -0.2280 C   0  0  0  0  0  0  0  0  0  0  0  0
    0.9480    1.0570   -0.4260 C   0  0  0  0  0  0  0  0  0  0  0  0
    0.4510    2.2010   -0.4890 O   0  0  0  0  0  0  0  0  0  0  0  0
    0.1320   -0.0310   -0.5400 O   0  0  0  0  0  0  0  0  0  0  0  0
   -1.2570    0.1630   -0.7270 C   0  0  0  0  0  0  0  0  0  0  0  0
   -1.9840   -1.1710   -0.8270 C   0  0  1  0  0  0  0  0  0  0  0  0
   -1.8260   -2.0160    0.3940 C   0  0  0  0  0  0  0  0  0  0  0  0
   -2.9450   -1.8200    1.3910 C   0  0  0  0  0  0  0  0  0  0  0  0
   -3.5590   -0.6150    1.1450 O   0  0  0  0  0  0  0  0  0  0  0  0
   -4.3040   -0.6440   -0.0180 C   0  0  1  0  0  0  0  0  0  0  0  0
   -4.9500    0.6900   -0.2010 C   0  0  0  0  0  0  0  0  0  0  0  0
   -4.7710    1.7540    0.7150 N   0  0  0  0  0  0  0  0  0  0  0  0
   -5.6700    0.8520   -1.2080 O   0  0  0  0  0  0  0  0  0  0  0  0
   -3.4280   -0.9760   -1.2090 C   0  0  0  0  0  0  0  0  0  0  0  0
    3.0680    2.0830   -0.1280 C   0  0  0  0  0  0  0  0  0  0  0  0
    4.5190    2.2120    0.0810 C   0  0  0  0  0  0  0  0  0  0  0  0
    2.3490    3.3220   -0.2200 N   0  0  0  0  0  0  0  0  0  0  0  0
  1  2  1  0
  2  3  1  0
  3  4  2  0
  3  5  1  0
  5  6  1  0
  5 19  2  3
  6  7  2  0
  6  8  1  0
  8  9  1  0
 10  9  1  1
 10 11  1  0
 10 18  1  0
 11 12  1  0
 12 13  1  0
 13 14  1  0
 14 15  1  6
 14 18  1  0
 15 16  1  0
 15 17  2  0
 19 20  1  0
 19 21  1  0
M  END
