
     RDKit          3D

 26 28  0  0  0  0  0  0  0  0999 V2000
    6.9200   -0.6050    0.2800 C   0  0  0  0  0  0  0  0  0  0  0  0
    5.9360    0.3770    0.8690 C   0  0  0  0  0  0  0  0  0  0  0  0
    4.6580    0.0540    0.3550 O   0  0  0  0  0  0  0  0  0  0  0  0
    3.5130    0.7540    0.6870 C   0  0  0  0  0  0  0  0  0  0  0  0
    3.6340    1.7170    1.4840 O   0  0  0  0  0  0  0  0  0  0  0  0
    2.2540    0.3480    0.1090 C   0  0  0  0  0  0  0  0  0  0  0  0
    2.2000   -0.7120   -0.7540 C   0  0  0  0  0  0  0  0  0  0  0  0
    1.0150   -1.1540   -1.3450 C   0  0  0  0  0  0  0  0  0  0  0  0
   -0.1450   -0.4810   -1.0330 C   0  0  0  0  0  0  0  0  0  0  0  0
   -1.3710   -0.8490   -1.5710 C   0  0  0  0  0  0  0  0  0  0  0  0
   -2.4810   -0.1420   -1.2210 C   0  0  0  0  0  0  0  0  0  0  0  0
   -3.6910   -0.5310   -1.7740 O   0  0  0  0  0  0  0  0  0  0  0  0
   -2.4670    0.9300   -0.3560 C   0  0  0  0  0  0  0  0  0  0  0  0
   -3.6780    1.7000    0.0180 C   0  0  0  0  0  0  0  0  0  0  0  0
   -4.4990    0.9350    0.9840 C   0  0  0  0  0  0  0  0  0  0  0  0
   -4.0990   -0.1950    1.3510 O   0  0  0  0  0  0  0  0  0  0  0  0
   -5.6910    1.3990    1.5100 O   0  0  0  0  0  0  0  0  0  0  0  0
   -6.4290    0.6130    2.4310 C   0  0  0  0  0  0  0  0  0  0  0  0
   -1.2670    1.2660    0.1520 N   0  0  0  0  0  0  0  0  0  0  0  0
   -1.1840    2.3350    1.0300 O   0  0  0  0  0  0  0  0  0  0  0  0
   -0.1340    0.5940   -0.1650 C   0  0  0  0  0  0  0  0  0  0  0  0
    1.0730    0.9900    0.3930 C   0  0  0  0  0  0  0  0  0  0  0  0
   -1.3720   -1.9870   -2.4810 C   0  0  0  0  0  0  0  0  0  0  0  0
   -2.4680   -2.3410   -2.9830 O   0  0  0  0  0  0  0  0  0  0  0  0
   -0.2030   -2.6680   -2.7930 O   0  0  0  0  0  0  0  0  0  0  0  0
    1.0580   -2.3280   -2.2870 C   0  0  0  0  0  0  0  0  0  0  0  0
  1  2  1  0
  2  3  1  0
  3  4  1  0
  4  5  2  0
  4  6  1  0
  6  7  2  0
  6 22  1  0
  7  8  1  0
  8  9  2  0
  8 26  1  0
  9 10  1  0
  9 21  1  0
 10 11  2  0
 10 23  1  0
 11 12  1  0
 11 13  1  0
 13 14  1  0
 13 19  2  0
 14 15  1  0
 15 16  2  0
 15 17  1  0
 17 18  1  0
 19 20  1  0
 19 21  1  0
 21 22  2  0
 23 24  2  0
 23 25  1  0
 25 26  1  0
M  CHG  2  19   1  20  -1
M  END
