
     RDKit          3D

 26 29  0  0  0  0  0  0  0  0999 V2000
    1.2480    0.8060    1.5090 O   0  0  0  0  0  0  0  0  0  0  0  0
    1.7160    0.2280    0.5130 C   0  0  0  0  0  0  0  0  0  0  0  0
    0.8150   -0.3660   -0.3450 O   0  0  0  0  0  0  0  0  0  0  0  0
   -0.5460   -0.3650   -0.1810 C   0  0  0  0  0  0  0  0  0  0  0  0
   -1.1200   -1.3970    0.5320 C   0  0  0  0  0  0  0  0  0  0  0  0
   -2.4760   -1.4920    0.7550 C   0  0  0  0  0  0  0  0  0  0  0  0
   -3.3240   -0.5270    0.2560 C   0  0  0  0  0  0  0  0  0  0  0  0
   -2.7700    0.5240   -0.4660 C   0  0  0  0  0  0  0  0  0  0  0  0
   -1.3950    0.6020   -0.6810 C   0  0  0  0  0  0  0  0  0  0  0  0
   -0.8500    1.6530   -1.4030 O   0  0  0  0  0  0  0  0  0  0  0  0
   -1.6830    2.6170   -1.9740 C   0  0  0  0  0  0  0  0  0  0  0  0
   -2.9440    2.8170   -1.1570 C   0  0  0  0  0  0  0  0  0  0  0  0
   -3.5530    1.5290   -0.9990 O   0  0  0  0  0  0  0  0  0  0  0  0
   -4.7170   -0.8140    0.6030 C   0  0  0  0  0  0  0  0  0  0  0  0
   -4.6930   -2.1980    1.0270 N   0  0  0  0  0  0  0  0  0  0  0  0
   -3.3440   -2.4680    1.4680 C   0  0  0  0  0  0  0  0  0  0  0  0
    3.1390    0.1330    0.1890 C   0  0  0  0  0  0  0  0  0  0  0  0
    3.5420   -0.5460   -0.9640 C   0  0  0  0  0  0  0  0  0  0  0  0
    4.8290   -0.6960   -1.3610 C   0  0  0  0  0  0  0  0  0  0  0  0
    5.1440   -1.3940   -2.5350 O   0  0  0  0  0  0  0  0  0  0  0  0
    5.3630   -2.7150   -2.4660 O   0  0  0  0  0  0  0  0  0  0  0  0
    5.8280   -0.1430   -0.5810 C   0  0  0  0  0  0  0  0  0  0  0  0
    5.4630    0.5310    0.5590 C   0  0  0  0  0  0  0  0  0  0  0  0
    6.4590    1.0910    1.3520 O   0  0  0  0  0  0  0  0  0  0  0  0
    4.1280    0.6850    0.9680 C   0  0  0  0  0  0  0  0  0  0  0  0
    3.8590    1.3730    2.1210 O   0  0  0  0  0  0  0  0  0  0  0  0
  1  2  2  0
  2  3  1  0
  2 17  1  0
  3  4  1  0
  4  5  2  0
  4  9  1  0
  5  6  1  0
  6  7  2  0
  6 16  1  0
  7  8  1  0
  7 14  1  0
  8  9  2  0
  8 13  1  0
  9 10  1  0
 10 11  1  0
 11 12  1  0
 12 13  1  0
 14 15  1  0
 15 16  1  0
 17 18  2  0
 17 25  1  0
 18 19  1  0
 19 20  1  0
 19 22  2  0
 20 21  1  0
 22 23  1  0
 23 24  1  0
 23 25  2  0
 25 26  1  0
M  CHG  2  15   1  21  -1
M  END
