
     RDKit          3D

 25 28  0  0  0  0  0  0  0  0999 V2000
   -3.0740   -2.0150    0.1600 N   0  0  0  0  0  0  0  0  0  0  0  0
   -3.1500   -0.6370   -0.1610 C   0  0  1  0  0  0  0  0  0  0  0  0
   -4.0380    0.1920    0.7310 C   0  0  0  0  0  0  0  0  0  0  0  0
   -5.4630   -0.3370    0.6500 C   0  0  0  0  0  0  0  0  0  0  0  0
   -6.3610    0.4890    1.4690 C   0  0  0  0  0  0  0  0  0  0  0  0
   -7.1790    1.2900    0.9420 O   0  0  0  0  0  0  0  0  0  0  0  0
   -6.3200    0.3940    2.8470 O   0  0  0  0  0  0  0  0  0  0  0  0
   -1.8400    0.0310   -0.4230 C   0  0  0  0  0  0  0  0  0  0  0  0
   -1.8260    1.2740   -1.0680 C   0  0  0  0  0  0  0  0  0  0  0  0
   -0.4920    1.6060   -1.1570 C   0  0  0  0  0  0  0  0  0  0  0  0
    0.2480    0.5700   -0.5730 C   0  0  0  0  0  0  0  0  0  0  0  0
    1.6970    0.6380   -0.5240 C   0  0  0  0  0  0  0  0  0  0  0  0
    2.4280    1.7320   -0.9490 C   0  0  0  0  0  0  0  0  0  0  0  0
    3.8090    1.7520   -0.9110 C   0  0  0  0  0  0  0  0  0  0  0  0
    4.4850    0.6520   -0.4400 C   0  0  0  0  0  0  0  0  0  0  0  0
    3.7960   -0.4550   -0.0090 C   0  0  0  0  0  0  0  0  0  0  0  0
    2.4000   -0.4510   -0.0550 C   0  0  0  0  0  0  0  0  0  0  0  0
    1.7080   -1.5700    0.3840 O   0  0  0  0  0  0  0  0  0  0  0  0
    2.4070   -2.5350    1.1470 C   0  0  0  0  0  0  0  0  0  0  0  0
    3.7490   -2.8360    0.4870 C   0  0  0  0  0  0  0  0  0  0  0  0
    4.4670   -1.5920    0.4770 O   0  0  0  0  0  0  0  0  0  0  0  0
    5.8430    0.9210   -0.5040 O   0  0  0  0  0  0  0  0  0  0  0  0
    6.0200    2.2390   -0.9530 C   0  0  0  0  0  0  0  0  0  0  0  0
    4.7240    2.7220   -1.2780 O   0  0  0  0  0  0  0  0  0  0  0  0
   -0.6170   -0.2960   -0.1750 O   0  0  0  0  0  0  0  0  0  0  0  0
  2  1  1  1
  2  3  1  0
  2  8  1  0
  3  4  1  0
  4  5  1  0
  5  6  2  0
  5  7  1  0
  8  9  2  0
  8 25  1  0
  9 10  1  0
 10 11  2  0
 11 12  1  0
 11 25  1  0
 12 13  2  0
 12 17  1  0
 13 14  1  0
 14 15  2  0
 14 24  1  0
 15 16  1  0
 15 22  1  0
 16 17  2  0
 16 21  1  0
 17 18  1  0
 18 19  1  0
 19 20  1  0
 20 21  1  0
 22 23  1  0
 23 24  1  0
M  CHG  2   1   1   7  -1
M  END
