
     RDKit          3D

 26 28  0  0  0  0  0  0  0  0999 V2000
    0.5210    5.0560    0.0070 C   0  0  0  0  0  0  0  0  0  0  0  0
    0.4790    3.6480   -0.0760 O   0  0  0  0  0  0  0  0  0  0  0  0
   -0.6730    2.9540    0.0020 C   0  0  0  0  0  0  0  0  0  0  0  0
   -1.7570    3.6230    0.1560 O   0  0  0  0  0  0  0  0  0  0  0  0
   -0.8610    1.5010   -0.0750 C   0  0  0  0  0  0  0  0  0  0  0  0
   -2.0650    0.9130   -0.0620 O   0  0  0  0  0  0  0  0  0  0  0  0
   -1.9610   -0.3760   -0.1500 C   0  0  0  0  0  0  0  0  0  0  0  0
   -3.1150   -1.3030   -0.1630 C   0  0  0  0  0  0  0  0  0  0  0  0
   -4.3450   -0.8180   -0.0810 C   0  0  0  0  0  0  0  0  0  0  0  0
   -5.5700   -1.6430   -0.0840 C   0  0  0  0  0  0  0  0  0  0  0  0
   -5.3200   -3.0900   -0.1890 C   0  0  0  0  0  0  0  0  0  0  0  0
   -6.3330   -3.8670   -0.1990 O   0  0  0  0  0  0  0  0  0  0  0  0
   -4.0420   -3.5670   -0.2720 O   0  0  0  0  0  0  0  0  0  0  0  0
   -2.9450   -2.7250   -0.2620 C   0  0  0  0  0  0  0  0  0  0  0  0
   -1.8140   -3.2790   -0.3450 O   0  0  0  0  0  0  0  0  0  0  0  0
   -0.6530   -0.7080   -0.2250 C   0  0  0  0  0  0  0  0  0  0  0  0
    0.0750    0.5060   -0.1740 C   0  0  0  0  0  0  0  0  0  0  0  0
    1.5290    0.5380   -0.1160 C   0  0  0  0  0  0  0  0  0  0  0  0
    2.4130    1.4310    0.4080 C   0  0  0  0  0  0  0  0  0  0  0  0
    3.6900    0.8950    0.1530 C   0  0  0  0  0  0  0  0  0  0  0  0
    3.5060   -0.2920   -0.5080 C   0  0  0  0  0  0  0  0  0  0  0  0
    4.6210   -1.1760   -0.9600 C   0  0  0  0  0  0  0  0  0  0  0  0
    4.9870   -2.1610    0.0780 C   0  0  0  0  0  0  0  0  0  0  0  0
    4.3580   -2.1490    1.1640 O   0  0  0  0  0  0  0  0  0  0  0  0
    5.9890   -3.0990   -0.0810 O   0  0  0  0  0  0  0  0  0  0  0  0
    2.2370   -0.4710   -0.6490 O   0  0  0  0  0  0  0  0  0  0  0  0
  1  2  1  0
  2  3  1  0
  3  4  2  0
  3  5  1  0
  5  6  1  0
  5 17  2  0
  6  7  1  0
  7  8  1  0
  7 16  2  0
  8  9  2  0
  8 14  1  0
  9 10  1  0
 10 11  1  0
 11 12  2  0
 11 13  1  0
 13 14  1  0
 14 15  2  0
 16 17  1  0
 17 18  1  0
 18 19  2  0
 18 26  1  0
 19 20  1  0
 20 21  2  0
 21 22  1  0
 21 26  1  0
 22 23  1  0
 23 24  2  0
 23 25  1  0
M  END
