
     RDKit          3D

 29 31  0  0  0  0  0  0  0  0999 V2000
    2.4790   -0.7230    0.1510 O   0  0  0  0  0  0  0  0  0  0  0  0
    2.5590    0.4900   -0.0770 C   0  0  0  0  0  0  0  0  0  0  0  0
    1.3260    1.2220   -0.2840 C   0  0  0  0  0  0  0  0  0  0  0  0
    0.1300    0.8070   -0.3320 C   0  0  0  0  0  0  0  0  0  0  0  0
   -0.5440   -0.4650   -0.2370 C   0  0  0  0  0  0  0  0  0  0  0  0
   -1.7850   -0.5520    0.4680 C   0  0  0  0  0  0  0  0  0  0  0  0
   -2.3720    0.5570    1.2440 C   0  0  0  0  0  0  0  0  0  0  0  0
   -3.9450    0.1710    1.9530 S   0  0  0  0  0  0  0  0  0  0  0  0
   -5.2970    0.0470    0.8060 C   0  0  0  0  0  0  0  0  0  0  0  0
   -5.9530    1.2060    0.3530 C   0  0  0  0  0  0  0  0  0  0  0  0
   -7.0180    1.1610   -0.5090 C   0  0  0  0  0  0  0  0  0  0  0  0
   -7.5020   -0.0350   -0.9780 C   0  0  0  0  0  0  0  0  0  0  0  0
   -8.8720   -0.1040   -2.0890 Cl  0  0  0  0  0  0  0  0  0  0  0  0
   -6.8800   -1.1860   -0.5520 C   0  0  0  0  0  0  0  0  0  0  0  0
   -5.7980   -1.1340    0.3240 C   0  0  0  0  0  0  0  0  0  0  0  0
   -2.2250   -1.8300    0.2820 C   0  0  0  0  0  0  0  0  0  0  0  0
   -1.3420   -2.4860   -0.4730 N   0  0  0  0  0  0  0  0  0  0  0  0
   -0.3120   -1.6780   -0.8040 C   0  0  0  0  0  0  0  0  0  0  0  0
    0.9950   -2.1260   -1.9030 Cl  0  0  0  0  0  0  0  0  0  0  0  0
    3.8240    1.2270   -0.1510 C   0  0  0  0  0  0  0  0  0  0  0  0
    3.6200    2.9760   -0.4960 Cl  0  0  0  0  0  0  0  0  0  0  0  0
    5.0400    0.8220   -0.0080 C   0  0  0  0  0  0  0  0  0  0  0  0
    6.1650    1.7940   -0.1340 C   0  0  0  0  0  0  0  0  0  0  0  0
    5.8790    2.9820   -0.3760 O   0  0  0  0  0  0  0  0  0  0  0  0
    7.5490    1.4230    0.0120 C   0  0  0  0  0  0  0  0  0  0  0  0
    7.8220    0.1640    0.2670 C   0  0  0  0  0  0  0  0  0  0  0  0
    6.7780   -0.8200    0.4000 C   0  0  0  0  0  0  0  0  0  0  0  0
    5.4690   -0.5360    0.2750 C   0  0  0  0  0  0  0  0  0  0  0  0
    4.5850   -1.5890    0.4290 O   0  0  0  0  0  0  0  0  0  0  0  0
  1  2  2  0
  2  3  1  0
  2 20  1  0
  3  4  2  3
  4  5  1  0
  5  6  1  0
  5 18  2  0
  6  7  1  0
  6 16  2  0
  7  8  1  0
  8  9  1  0
  9 10  2  0
  9 15  1  0
 10 11  1  0
 11 12  2  0
 12 13  1  0
 12 14  1  0
 14 15  2  0
 16 17  1  0
 17 18  1  0
 18 19  1  0
 20 21  1  0
 20 22  2  3
 22 23  1  0
 22 28  1  0
 23 24  2  0
 23 25  1  0
 25 26  2  0
 26 27  1  0
 27 28  2  0
 28 29  1  0
M  END
