
     RDKit          3D

 31 34  0  0  0  0  0  0  0  0999 V2000
    6.2060    3.0430   -0.0150 C   0  0  0  0  0  0  0  0  0  0  0  0
    7.4150    2.1240   -0.0040 C   0  0  0  0  0  0  0  0  0  0  0  0
    6.9950    0.7410    0.0660 N   0  0  0  0  0  0  0  0  0  0  0  0
    7.9910   -0.2940    0.1000 C   0  0  0  0  0  0  0  0  0  0  0  0
    5.6140    0.4090    0.0970 C   0  0  0  0  0  0  0  0  0  0  0  0
    4.8690    0.3320    1.2550 C   0  0  0  0  0  0  0  0  0  0  0  0
    3.5270    0.0030    1.2720 C   0  0  0  0  0  0  0  0  0  0  0  0
    2.9110   -0.2610    0.0690 C   0  0  0  0  0  0  0  0  0  0  0  0
    1.5590   -0.6080   -0.0400 N   0  0  0  0  0  0  0  0  0  0  0  0
    1.1110   -1.8110   -0.1100 C   0  0  0  0  0  0  0  0  0  0  0  0
    1.8830   -2.8970   -0.0870 N   0  0  0  0  0  0  0  0  0  0  0  0
    1.3390   -4.1160   -0.1630 C   0  0  0  0  0  0  0  0  0  0  0  0
    2.0670   -5.1500   -0.1420 O   0  0  0  0  0  0  0  0  0  0  0  0
    0.0150   -4.3270   -0.2660 N   0  0  0  0  0  0  0  0  0  0  0  0
   -0.7960   -3.2610   -0.2930 C   0  0  0  0  0  0  0  0  0  0  0  0
   -2.1570   -3.4500   -0.3980 C   0  0  0  0  0  0  0  0  0  0  0  0
   -3.0210   -2.3490   -0.4270 C   0  0  0  0  0  0  0  0  0  0  0  0
   -2.5210   -1.0760   -0.3520 C   0  0  0  0  0  0  0  0  0  0  0  0
   -3.3400    0.1590   -0.3700 C   0  0  0  0  0  0  0  0  0  0  0  0
   -4.7190   -0.0510   -0.0850 N   0  0  0  0  0  0  0  0  0  0  0  0
   -5.5980    1.0740   -0.1280 C   0  0  0  0  0  0  0  0  0  0  0  0
   -6.9310    0.9010    0.1390 C   0  0  0  0  0  0  0  0  0  0  0  0
   -7.8570    1.9210    0.1200 C   0  0  0  0  0  0  0  0  0  0  0  0
   -9.3000    1.6840    0.4160 C   0  0  0  0  0  0  0  0  0  0  0  0
   -7.3720    3.1790   -0.1900 C   0  0  0  0  0  0  0  0  0  0  0  0
   -6.0260    3.3620   -0.4600 C   0  0  0  0  0  0  0  0  0  0  0  0
   -5.1870    2.3090   -0.4200 N   0  0  0  0  0  0  0  0  0  0  0  0
   -1.1460   -0.9340   -0.2480 C   0  0  0  0  0  0  0  0  0  0  0  0
   -0.2550   -1.9770   -0.2140 C   0  0  0  0  0  0  0  0  0  0  0  0
    3.6740   -0.1780   -1.0730 C   0  0  0  0  0  0  0  0  0  0  0  0
    4.9860    0.1470   -1.0630 N   0  0  0  0  0  0  0  0  0  0  0  0
  1  2  1  0
  2  3  1  0
  3  4  1  0
  3  5  1  0
  5  6  2  0
  5 31  1  0
  6  7  1  0
  7  8  2  0
  8  9  1  0
  8 30  1  0
  9 10  2  3
 10 11  1  0
 10 29  1  0
 11 12  1  0
 12 13  2  0
 12 14  1  0
 14 15  1  0
 15 16  2  0
 15 29  1  0
 16 17  1  0
 17 18  2  0
 18 19  1  0
 18 28  1  0
 19 20  1  0
 20 21  1  0
 21 22  2  0
 21 27  1  0
 22 23  1  0
 23 24  1  0
 23 25  2  0
 25 26  1  0
 26 27  2  0
 28 29  2  0
 30 31  2  0
M  END
