
     RDKit          3D

 31 34  0  0  0  0  0  0  0  0999 V2000
   -0.4500   -5.0360   -1.5230 C   0  0  0  0  0  0  0  0  0  0  0  0
   -0.1240   -3.8630   -2.4140 C   0  0  1  0  0  0  0  0  0  0  0  0
   -1.2130   -3.6470   -3.4600 C   0  0  0  0  0  0  0  0  0  0  0  0
   -0.0680   -2.5960   -1.6120 C   0  0  0  0  0  0  0  0  0  0  0  0
    0.9880   -1.8030   -1.5330 N   0  0  0  0  0  0  0  0  0  0  0  0
    0.6990   -0.7410   -0.7220 C   0  0  0  0  0  0  0  0  0  0  0  0
    1.6450    0.3070   -0.4310 C   0  0  0  0  0  0  0  0  0  0  0  0
    2.8190    0.2310   -0.9440 O   0  0  0  0  0  0  0  0  0  0  0  0
    1.4390    1.4420    0.3720 N   0  0  0  0  0  0  0  0  0  0  0  0
    2.4570    2.4480    0.6090 C   0  0  0  0  0  0  0  0  0  0  0  0
    3.6610    1.8380    1.2650 C   0  0  0  0  0  0  0  0  0  0  0  0
    4.8860    1.8320    0.7680 C   0  0  0  0  0  0  0  0  0  0  0  0
    5.8000    1.1370    1.7060 C   0  0  0  0  0  0  0  0  0  0  0  0
    4.9250    0.7440    2.8130 C   0  0  0  0  0  0  0  0  0  0  0  0
    3.7080    1.1580    2.5340 C   0  0  0  0  0  0  0  0  0  0  0  0
   -0.5850   -0.9250   -0.3110 C   0  0  0  0  0  0  0  0  0  0  0  0
   -1.3250   -0.0850    0.5470 N   0  0  0  0  0  0  0  0  0  0  0  0
   -2.0760    0.9730    0.0380 N   0  0  0  0  0  0  0  0  0  0  0  0
   -2.1080    1.3070   -1.1910 C   0  0  0  0  0  0  0  0  0  0  0  0
   -2.9210    2.4290   -1.6430 C   0  0  0  0  0  0  0  0  0  0  0  0
   -3.0470    2.8800   -2.8800 C   0  0  0  0  0  0  0  0  0  0  0  0
   -3.9650    4.0300   -2.8990 C   0  0  0  0  0  0  0  0  0  0  0  0
   -4.3480    4.1810   -1.5290 N   0  0  0  0  0  0  0  0  0  0  0  0
   -3.7740    3.2970   -0.8240 C   0  0  0  0  0  0  0  0  0  0  0  0
   -1.3490   -0.2850    1.9520 C   0  0  0  0  0  0  0  0  0  0  0  0
   -0.2070   -0.5450    2.6680 C   0  0  0  0  0  0  0  0  0  0  0  0
   -0.2800   -0.7340    4.0420 C   0  0  0  0  0  0  0  0  0  0  0  0
   -1.4690   -0.6660    4.6890 N   0  0  0  0  0  0  0  0  0  0  0  0
   -2.5950   -0.4160    4.0230 C   0  0  0  0  0  0  0  0  0  0  0  0
   -2.5440   -0.2220    2.6380 C   0  0  0  0  0  0  0  0  0  0  0  0
   -1.0630   -2.0840   -0.8670 N   0  0  0  0  0  0  0  0  0  0  0  0
  2  1  1  1
  2  3  1  0
  2  4  1  0
  4  5  2  0
  4 31  1  0
  5  6  1  0
  6  7  1  0
  6 16  2  0
  7  8  2  0
  7  9  1  0
  9 10  1  0
 10 11  1  0
 11 12  2  0
 11 15  1  0
 12 13  1  0
 13 14  1  0
 14 15  2  0
 16 17  1  0
 16 31  1  0
 17 18  1  0
 17 25  1  0
 18 19  2  3
 19 20  1  0
 20 21  2  0
 20 24  1  0
 21 22  1  0
 22 23  1  0
 23 24  2  0
 25 26  2  0
 25 30  1  0
 26 27  1  0
 27 28  2  0
 28 29  1  0
 29 30  2  0
M  END
