
     RDKit          3D

 31 34  0  0  0  0  0  0  0  0999 V2000
   -7.5470   -1.8940   -2.2100 C   0  0  0  0  0  0  0  0  0  0  0  0
   -6.2770   -1.3870   -1.5850 C   0  0  0  0  0  0  0  0  0  0  0  0
   -6.1470   -0.3220   -0.7340 C   0  0  0  0  0  0  0  0  0  0  0  0
   -4.8590   -0.2030   -0.4060 N   0  0  0  0  0  0  0  0  0  0  0  0
   -4.1360   -1.1720   -1.0280 C   0  0  0  0  0  0  0  0  0  0  0  0
   -2.6620   -1.3750   -0.9160 C   0  0  2  0  0  0  0  0  0  0  0  0
   -2.4120   -1.8800    0.4890 C   0  0  0  0  0  0  0  0  0  0  0  0
   -0.9450   -1.9740    0.7210 C   0  0  0  0  0  0  0  0  0  0  0  0
   -0.2160   -0.6760    0.4300 C   0  0  0  0  0  0  0  0  0  0  0  0
   -1.0140    0.3020   -0.1910 N   0  0  0  0  0  0  0  0  0  0  0  0
   -1.4370    1.4250    0.5190 C   0  0  0  0  0  0  0  0  0  0  0  0
   -0.4730    2.4240    0.9570 C   0  0  0  0  0  0  0  0  0  0  0  0
   -0.8740    3.5400    1.7040 C   0  0  0  0  0  0  0  0  0  0  0  0
   -2.2680    3.8540    2.1750 C   0  0  0  0  0  0  0  0  0  0  0  0
    0.1960    4.2890    1.9340 N   0  0  0  0  0  0  0  0  0  0  0  0
    1.2520    3.7240    1.3830 C   0  0  0  0  0  0  0  0  0  0  0  0
    2.6460    4.2270    1.4000 C   0  0  0  0  0  0  0  0  0  0  0  0
    0.8550    2.5320    0.7520 C   0  0  0  0  0  0  0  0  0  0  0  0
    1.8010    1.6690    0.0360 C   0  0  0  0  0  0  0  0  0  0  0  0
    1.9280    1.5370   -1.3310 C   0  0  0  0  0  0  0  0  0  0  0  0
    2.9410    0.6480   -1.5540 N   0  0  0  0  0  0  0  0  0  0  0  0
    3.4450    0.2260   -0.4260 N   0  0  0  0  0  0  0  0  0  0  0  0
    4.5320   -0.7200   -0.1730 C   0  0  0  0  0  0  0  0  0  0  0  0
    3.9890   -2.0960   -0.0670 C   0  0  0  0  0  0  0  0  0  0  0  0
    5.1040   -3.0700    0.1970 C   0  0  0  0  0  0  0  0  0  0  0  0
    6.1280   -3.1420   -0.8550 C   0  0  0  0  0  0  0  0  0  0  0  0
    7.3330   -3.8520   -0.6330 N   0  0  0  0  0  0  0  0  0  0  0  0
    5.9440   -2.5700   -1.9710 O   0  0  0  0  0  0  0  0  0  0  0  0
    2.7660    0.8340    0.5640 C   0  0  0  0  0  0  0  0  0  0  0  0
   -1.8620   -0.1670   -1.2490 C   0  0  0  0  0  0  0  0  0  0  0  0
   -5.0300   -1.8770   -1.7390 N   0  0  0  0  0  0  0  0  0  0  0  0
  1  2  1  0
  2  3  2  0
  2 31  1  0
  3  4  1  0
  4  5  1  0
  6  5  1  1
  5 31  2  0
  6  7  1  0
  6 30  1  0
  7  8  1  0
  8  9  1  0
  9 10  1  0
 10 11  1  0
 10 30  1  0
 11 12  1  0
 12 13  2  0
 12 18  1  0
 13 14  1  0
 13 15  1  0
 15 16  1  0
 16 17  1  0
 16 18  2  0
 18 19  1  0
 19 20  1  0
 19 29  2  0
 20 21  2  0
 21 22  1  0
 22 23  1  0
 22 29  1  0
 23 24  1  0
 24 25  1  0
 25 26  1  0
 26 27  1  0
 26 28  2  0
M  END
