
     RDKit          3D

 29 31  0  0  0  0  0  0  0  0999 V2000
   -1.1740    5.6010   -2.0420 C   0  0  0  0  0  0  0  0  0  0  0  0
   -2.0230    4.5070   -1.8840 O   0  0  0  0  0  0  0  0  0  0  0  0
   -1.6420    3.2840   -1.2970 C   0  0  0  0  0  0  0  0  0  0  0  0
   -0.3810    3.0610   -0.8120 C   0  0  0  0  0  0  0  0  0  0  0  0
   -0.0290    1.8630   -0.2450 C   0  0  0  0  0  0  0  0  0  0  0  0
    1.3120    1.6960    0.2730 C   0  0  0  0  0  0  0  0  0  0  0  0
    1.8910    2.7310    0.7050 O   0  0  0  0  0  0  0  0  0  0  0  0
    2.0090    0.4340    0.3220 C   0  0  0  0  0  0  0  0  0  0  0  0
    1.7730   -0.6510   -0.4780 C   0  0  0  0  0  0  0  0  0  0  0  0
    2.4330   -1.8370   -0.3910 C   0  0  0  0  0  0  0  0  0  0  0  0
    3.4420   -1.9970    0.5830 C   0  0  0  0  0  0  0  0  0  0  0  0
    3.6780   -0.9130    1.3810 C   0  0  0  0  0  0  0  0  0  0  0  0
    3.0050    0.2780    1.2830 C   0  0  0  0  0  0  0  0  0  0  0  0
    5.0100   -1.4070    2.4910 S   0  0  0  0  0  0  0  0  0  0  0  0
    5.5650   -2.8280    1.4490 C   0  0  0  0  0  0  0  0  0  0  0  0
    4.2500   -3.1890    0.8460 C   0  0  0  0  0  0  0  0  0  0  0  0
   -0.9410    0.8610   -0.1520 C   0  0  0  0  0  0  0  0  0  0  0  0
   -2.2350    1.0660   -0.6410 C   0  0  0  0  0  0  0  0  0  0  0  0
   -3.1510    0.0100   -0.5300 N   0  0  0  0  0  0  0  0  0  0  0  0
   -2.7890   -1.2410    0.0360 C   0  0  0  0  0  0  0  0  0  0  0  0
   -3.0480   -1.5550    1.4360 C   0  0  0  0  0  0  0  0  0  0  0  0
   -3.6280   -0.6940    2.2340 C   0  0  0  0  0  0  0  0  0  0  0  0
   -3.9420   -1.0600    3.9050 Cl  0  0  0  0  0  0  0  0  0  0  0  0
   -4.1210    0.8850    1.6500 Cl  0  0  0  0  0  0  0  0  0  0  0  0
   -2.2020   -2.1300   -0.7440 C   0  0  0  0  0  0  0  0  0  0  0  0
   -1.7960   -3.4620   -0.2120 C   0  0  0  0  0  0  0  0  0  0  0  0
   -1.8920   -1.7610   -2.4060 Cl  0  0  0  0  0  0  0  0  0  0  0  0
   -2.5920    2.2580   -1.2080 C   0  0  0  0  0  0  0  0  0  0  0  0
   -3.8360    2.5410   -1.7100 O   0  0  0  0  0  0  0  0  0  0  0  0
  1  2  1  0
  2  3  1  0
  3  4  2  0
  3 28  1  0
  4  5  1  0
  5  6  1  0
  5 17  2  0
  6  7  2  0
  6  8  1  0
  8  9  2  0
  8 13  1  0
  9 10  1  0
 10 11  2  0
 11 12  1  0
 11 16  1  0
 12 13  2  0
 12 14  1  0
 14 15  1  0
 15 16  1  0
 17 18  1  0
 18 19  1  0
 18 28  2  0
 19 20  1  0
 20 21  1  0
 20 25  2  3
 21 22  2  3
 22 23  1  0
 22 24  1  0
 25 26  1  0
 25 27  1  0
 28 29  1  0
M  END
