
     RDKit          3D

 31 34  0  0  0  0  0  0  0  0999 V2000
   -8.5230    1.3400    0.2830 C   0  0  0  0  0  0  0  0  0  0  0  0
   -7.3810    0.4070    0.2610 C   0  0  0  0  0  0  0  0  0  0  0  0
   -7.6000   -0.9650    0.2830 C   0  0  0  0  0  0  0  0  0  0  0  0
   -6.5620   -1.7830    0.2600 N   0  0  0  0  0  0  0  0  0  0  0  0
   -5.2580   -1.3590    0.2160 C   0  0  0  0  0  0  0  0  0  0  0  0
   -4.2340   -2.4090    0.2040 C   0  0  0  0  0  0  0  0  0  0  0  0
   -2.8530   -1.8830    0.1050 C   0  0  0  0  0  0  0  0  0  0  0  0
   -2.5400   -1.1180   -1.0570 N   0  0  0  0  0  0  0  0  0  0  0  0
   -1.1550   -0.9130   -1.2480 C   0  0  0  0  0  0  0  0  0  0  0  0
   -0.4160   -0.0370   -0.2930 C   0  0  2  0  0  0  0  0  0  0  0  0
    1.0360   -0.0340   -0.7990 C   0  0  0  0  0  0  0  0  0  0  0  0
    1.9340    0.2250    0.3110 N   0  0  0  0  0  0  0  0  0  0  0  0
    3.2530   -0.2670    0.2450 C   0  0  0  0  0  0  0  0  0  0  0  0
    4.3110    0.5150   -0.0710 N   0  0  0  0  0  0  0  0  0  0  0  0
    5.5730    0.0460   -0.1650 C   0  0  0  0  0  0  0  0  0  0  0  0
    6.6420    0.9570   -0.5500 C   0  0  0  0  0  0  0  0  0  0  0  0
    7.9630    0.5970   -0.7000 C   0  0  0  0  0  0  0  0  0  0  0  0
    8.9560    1.4740   -1.0850 C   0  0  0  0  0  0  0  0  0  0  0  0
    8.6300    2.7870   -1.3390 C   0  0  0  0  0  0  0  0  0  0  0  0
    7.2960    3.1510   -1.1860 C   0  0  0  0  0  0  0  0  0  0  0  0
    6.3740    2.2590   -0.8100 N   0  0  0  0  0  0  0  0  0  0  0  0
    5.7780   -1.2800    0.0730 C   0  0  0  0  0  0  0  0  0  0  0  0
    4.7290   -2.1460    0.4060 C   0  0  0  0  0  0  0  0  0  0  0  0
    3.4570   -1.6220    0.4900 C   0  0  0  0  0  0  0  0  0  0  0  0
    2.3240   -2.4100    0.8210 N   0  0  0  0  0  0  0  0  0  0  0  0
    1.3420    0.9500    1.4130 C   0  0  0  0  0  0  0  0  0  0  0  0
    0.2610    0.0480    1.9550 C   0  0  0  0  0  0  0  0  0  0  0  0
   -0.5040   -0.4900    0.9810 O   0  0  0  0  0  0  0  0  0  0  0  0
   -5.0590   -0.0370    0.1950 N   0  0  0  0  0  0  0  0  0  0  0  0
   -6.0910    0.8410    0.2170 C   0  0  0  0  0  0  0  0  0  0  0  0
   -5.8260    2.3020    0.2040 C   0  0  0  0  0  0  0  0  0  0  0  0
  1  2  1  0
  2  3  2  0
  2 30  1  0
  3  4  1  0
  4  5  2  0
  5  6  1  0
  5 29  1  0
  6  7  1  0
  7  8  1  0
  8  9  1  0
 10  9  1  6
 10 11  1  0
 10 28  1  0
 11 12  1  0
 12 13  1  0
 12 26  1  0
 13 14  2  0
 13 24  1  0
 14 15  1  0
 15 16  1  0
 15 22  2  0
 16 17  2  0
 16 21  1  0
 17 18  1  0
 18 19  2  0
 19 20  1  0
 20 21  2  0
 22 23  1  0
 23 24  2  0
 24 25  1  0
 26 27  1  0
 27 28  1  0
 29 30  2  0
 30 31  1  0
M  END
