
     RDKit          3D

 29 31  0  0  0  0  0  0  0  0999 V2000
    7.3140   -1.5830    0.7970 C   0  0  0  0  0  0  0  0  0  0  0  0
    6.8480   -0.4420    1.6190 C   0  0  0  0  0  0  0  0  0  0  0  0
    7.4370   -0.0130    2.7860 N   0  0  0  0  0  0  0  0  0  0  0  0
    6.7540    1.0310    3.2470 C   0  0  0  0  0  0  0  0  0  0  0  0
    5.7840    1.2620    2.4310 O   0  0  0  0  0  0  0  0  0  0  0  0
    5.7950    0.3870    1.4120 C   0  0  0  0  0  0  0  0  0  0  0  0
    4.8180    0.3960    0.3250 C   0  0  0  0  0  0  0  0  0  0  0  0
    4.7850   -0.4760   -0.7200 C   0  0  0  0  0  0  0  0  0  0  0  0
    3.8250   -0.4030   -1.7240 C   0  0  0  0  0  0  0  0  0  0  0  0
    2.8550    0.5540   -1.7190 C   0  0  0  0  0  0  0  0  0  0  0  0
    1.8170    0.6770   -2.7690 C   0  0  0  0  0  0  0  0  0  0  0  0
    0.7350   -0.2610   -2.6490 N   0  0  0  0  0  0  0  0  0  0  0  0
   -0.3190   -0.1160   -1.6860 C   0  0  0  0  0  0  0  0  0  0  0  0
   -0.2310    0.8960   -0.9450 O   0  0  0  0  0  0  0  0  0  0  0  0
   -1.4200   -1.0740   -1.5680 C   0  0  2  0  0  0  0  0  0  0  0  0
   -2.3190   -1.1790   -2.7620 C   0  0  0  0  0  0  0  0  0  0  0  0
   -3.0330    0.1360   -2.7130 C   0  0  1  0  0  0  0  0  0  0  0  0
   -4.3800   -0.0770   -3.0710 O   0  0  0  0  0  0  0  0  0  0  0  0
   -3.0390    0.5370   -1.2290 C   0  0  0  0  0  0  0  0  0  0  0  0
   -2.3660   -0.5340   -0.5460 N   0  0  0  0  0  0  0  0  0  0  0  0
   -2.4590   -1.0510    0.7700 C   0  0  0  0  0  0  0  0  0  0  0  0
   -1.6260   -2.0600    0.9470 O   0  0  0  0  0  0  0  0  0  0  0  0
   -3.2240   -0.7420    1.9320 C   0  0  0  0  0  0  0  0  0  0  0  0
   -4.4370    0.0960    1.9170 C   0  0  2  0  0  0  0  0  0  0  0  0
   -5.5740   -0.4230    1.0620 C   0  0  0  0  0  0  0  0  0  0  0  0
   -4.2000    1.5780    1.7460 C   0  0  0  0  0  0  0  0  0  0  0  0
   -5.0140   -0.0170    3.3690 C   0  0  0  0  0  0  0  0  0  0  0  0
    2.8590    1.4540   -0.6740 C   0  0  0  0  0  0  0  0  0  0  0  0
    3.8210    1.3710    0.3200 C   0  0  0  0  0  0  0  0  0  0  0  0
  1  2  1  0
  2  3  1  0
  2  6  2  0
  3  4  2  0
  4  5  1  0
  5  6  1  0
  6  7  1  0
  7  8  2  0
  7 29  1  0
  8  9  1  0
  9 10  2  0
 10 11  1  0
 10 28  1  0
 11 12  1  0
 12 13  1  0
 13 14  2  0
 15 13  1  6
 15 16  1  0
 15 20  1  0
 16 17  1  0
 17 18  1  1
 17 19  1  0
 19 20  1  0
 20 21  1  0
 21 22  2  0
 21 23  1  0
 23 24  1  0
 24 25  1  6
 24 26  1  0
 24 27  1  0
 28 29  2  0
M  END
