
     RDKit          3D

 30 33  0  0  0  0  0  0  0  0999 V2000
   -8.6720    0.3710    0.5760 C   0  0  0  0  0  0  0  0  0  0  0  0
   -7.5610   -0.2100   -0.2340 C   0  0  0  0  0  0  0  0  0  0  0  0
   -7.5510   -1.1960   -1.1980 C   0  0  0  0  0  0  0  0  0  0  0  0
   -6.3470   -1.4990   -1.7370 C   0  0  0  0  0  0  0  0  0  0  0  0
   -5.2730   -0.8690   -1.3400 C   0  0  0  0  0  0  0  0  0  0  0  0
   -3.7990   -1.0710   -1.7600 C   0  0  0  0  0  0  0  0  0  0  0  0
   -3.4740   -1.8810   -2.8030 C   0  0  0  0  0  0  0  0  0  0  0  0
   -1.6290   -1.7820   -2.7630 S   0  0  0  0  0  0  0  0  0  0  0  0
   -1.6270   -0.6440   -1.3190 C   0  0  0  0  0  0  0  0  0  0  0  0
   -0.3380   -0.1440   -0.6960 C   0  0  2  0  0  0  0  0  0  0  0  0
    0.7730   -0.9310   -1.1020 N   0  0  0  0  0  0  0  0  0  0  0  0
    2.0280   -0.2530   -1.0940 C   0  0  0  0  0  0  0  0  0  0  0  0
    2.7380   -0.2700    0.2100 C   0  0  0  0  0  0  0  0  0  0  0  0
    2.6760   -1.0600    1.2650 N   0  0  0  0  0  0  0  0  0  0  0  0
    3.4740   -0.6580    2.1870 O   0  0  0  0  0  0  0  0  0  0  0  0
    4.0920    0.4130    1.7760 C   0  0  0  0  0  0  0  0  0  0  0  0
    5.1090    1.1820    2.5870 C   0  0  2  0  0  0  0  0  0  0  0  0
    5.1030    2.5140    2.2510 O   0  0  0  0  0  0  0  0  0  0  0  0
    6.4410    0.5150    2.3930 C   0  0  0  0  0  0  0  0  0  0  0  0
    6.8130    0.6200    0.9840 N   0  0  0  0  0  0  0  0  0  0  0  0
    8.0470    0.0440    0.5610 C   0  0  0  0  0  0  0  0  0  0  0  0
    8.7750   -0.5300    1.3950 O   0  0  0  0  0  0  0  0  0  0  0  0
    8.3980    0.1400   -0.7710 O   0  0  0  0  0  0  0  0  0  0  0  0
    3.6510    0.6800    0.5390 N   0  0  0  0  0  0  0  0  0  0  0  0
   -0.6230   -0.1890    0.8020 C   0  0  0  0  0  0  0  0  0  0  0  0
   -1.6860    0.8980    0.9390 C   0  0  0  0  0  0  0  0  0  0  0  0
   -1.5240    1.8130   -0.2320 C   0  0  0  0  0  0  0  0  0  0  0  0
   -0.2410    1.3250   -0.9370 C   0  0  0  0  0  0  0  0  0  0  0  0
   -2.8080   -0.5270   -1.1180 N   0  0  0  0  0  0  0  0  0  0  0  0
   -5.8440    0.2410   -0.1430 S   0  0  0  0  0  0  0  0  0  0  0  0
  1  2  1  0
  2  3  2  0
  2 30  1  0
  3  4  1  0
  4  5  2  0
  5  6  1  0
  5 30  1  0
  6  7  2  0
  6 29  1  0
  7  8  1  0
  8  9  1  0
  9 10  1  0
  9 29  2  0
 10 11  1  1
 10 25  1  0
 10 28  1  0
 11 12  1  0
 12 13  1  0
 13 14  2  0
 13 24  1  0
 14 15  1  0
 15 16  1  0
 16 17  1  0
 16 24  2  0
 17 18  1  6
 17 19  1  0
 19 20  1  0
 20 21  1  0
 21 22  2  0
 21 23  1  0
 25 26  1  0
 26 27  1  0
 27 28  1  0
M  CHG  1  11   1
M  END
