
     RDKit          3D

 31 33  0  0  0  0  0  0  0  0999 V2000
   -0.9520   -4.5060    1.9580 C   0  0  0  0  0  0  0  0  0  0  0  0
   -1.4440   -3.2020    2.1130 O   0  0  0  0  0  0  0  0  0  0  0  0
   -0.7180   -2.0780    1.7580 C   0  0  0  0  0  0  0  0  0  0  0  0
    0.5430   -2.2470    1.2290 C   0  0  0  0  0  0  0  0  0  0  0  0
    1.3020   -1.1280    0.8600 C   0  0  0  0  0  0  0  0  0  0  0  0
    0.8230    0.1370    1.0120 C   0  0  0  0  0  0  0  0  0  0  0  0
    1.5050    1.3160    0.6730 N   0  0  0  0  0  0  0  0  0  0  0  0
    2.7960    1.3570    0.1220 C   0  0  0  0  0  0  0  0  0  0  0  0
    3.4810    2.4860   -0.2170 N   0  0  0  0  0  0  0  0  0  0  0  0
    4.6660    2.1930   -0.7090 N   0  0  0  0  0  0  0  0  0  0  0  0
    4.7670    0.8560   -0.6980 C   0  0  0  0  0  0  0  0  0  0  0  0
    5.9140    0.0820   -1.1550 C   0  0  0  0  0  0  0  0  0  0  0  0
    6.9730    0.6900   -1.6300 C   0  0  0  0  0  0  0  0  0  0  0  0
    8.1660   -0.0910   -2.1060 C   0  0  1  0  0  0  0  0  0  0  0  0
    7.7350   -1.2770   -2.6610 F   0  0  0  0  0  0  0  0  0  0  0  0
    8.8520    0.6050   -3.0810 F   0  0  0  0  0  0  0  0  0  0  0  0
    9.0530   -0.3070   -1.0620 F   0  0  0  0  0  0  0  0  0  0  0  0
    3.6300    0.3590   -0.1930 N   0  0  0  0  0  0  0  0  0  0  0  0
   -0.4680    0.2410    1.5560 C   0  0  0  0  0  0  0  0  0  0  0  0
   -1.2270   -0.8190    1.9220 C   0  0  0  0  0  0  0  0  0  0  0  0
   -2.5030   -0.6730    2.4590 O   0  0  0  0  0  0  0  0  0  0  0  0
   -3.1350    0.5360    2.6760 C   0  0  0  0  0  0  0  0  0  0  0  0
   -3.4470    1.3980    1.5610 C   0  0  0  0  0  0  0  0  0  0  0  0
   -3.7570    2.6110    1.8740 O   0  0  0  0  0  0  0  0  0  0  0  0
   -3.4600    1.0900    0.1880 N   0  0  0  0  0  0  0  0  0  0  0  0
   -3.2410   -0.1800   -0.4260 C   0  0  0  0  0  0  0  0  0  0  0  0
   -4.0710   -0.4880   -1.6350 C   0  0  0  0  0  0  0  0  0  0  0  0
   -4.5490    0.6640   -2.4340 C   0  0  1  0  0  0  0  0  0  0  0  0
   -5.6710    0.2470   -3.1610 F   0  0  0  0  0  0  0  0  0  0  0  0
   -4.9760    1.7970   -1.4970 C   0  0  0  0  0  0  0  0  0  0  0  0
   -3.6990    2.1880   -0.7880 C   0  0  0  0  0  0  0  0  0  0  0  0
  1  2  1  0
  2  3  1  0
  3  4  2  0
  3 20  1  0
  4  5  1  0
  5  6  2  0
  6  7  1  0
  6 19  1  0
  7  8  1  0
  8  9  2  0
  8 18  1  0
  9 10  1  0
 10 11  1  0
 11 12  1  0
 11 18  2  0
 12 13  2  3
 13 14  1  0
 14 15  1  6
 14 16  1  0
 14 17  1  0
 19 20  2  0
 20 21  1  0
 21 22  1  0
 22 23  1  0
 23 24  2  0
 23 25  1  0
 25 26  1  0
 25 31  1  0
 26 27  1  0
 27 28  1  0
 28 29  1  1
 28 30  1  0
 30 31  1  0
M  END
