
     RDKit          3D

 31 33  0  0  0  0  0  0  0  0999 V2000
    2.4130    3.2850   -2.0330 C   0  0  0  0  0  0  0  0  0  0  0  0
    1.8700    2.1040   -1.2370 C   0  0  2  0  0  0  0  0  0  0  0  0
    0.8780    2.5360   -0.3070 N   0  0  0  0  0  0  0  0  0  0  0  0
   -0.4580    2.0400   -0.4340 C   0  0  0  0  0  0  0  0  0  0  0  0
   -0.7440    1.2360   -1.3550 O   0  0  0  0  0  0  0  0  0  0  0  0
   -1.4990    2.4210    0.4520 N   0  0  0  0  0  0  0  0  0  0  0  0
   -2.8630    1.9410    0.3590 C   0  0  0  0  0  0  0  0  0  0  0  0
   -2.9360    0.4480    0.5090 C   0  0  0  0  0  0  0  0  0  0  0  0
   -4.2720   -0.0650    0.4340 N   0  0  0  0  0  0  0  0  0  0  0  0
   -5.0580   -0.0170   -0.8040 C   0  0  0  0  0  0  0  0  0  0  0  0
   -5.4350   -1.4370   -1.1310 C   0  0  0  0  0  0  0  0  0  0  0  0
   -6.0270   -2.1320   -0.0750 O   0  0  0  0  0  0  0  0  0  0  0  0
   -5.8630   -1.7930    1.2810 C   0  0  0  0  0  0  0  0  0  0  0  0
   -6.5450   -2.4740    2.1700 C   0  0  0  0  0  0  0  0  0  0  0  0
   -7.3740   -3.4730    1.7240 F   0  0  0  0  0  0  0  0  0  0  0  0
   -4.9350   -0.7000    1.5540 C   0  0  0  0  0  0  0  0  0  0  0  0
   -4.6990   -0.2920    2.7690 C   0  0  0  0  0  0  0  0  0  0  0  0
   -3.8200    0.7420    2.9890 F   0  0  0  0  0  0  0  0  0  0  0  0
   -5.2890   -0.8520    3.8350 F   0  0  0  0  0  0  0  0  0  0  0  0
    3.0350    1.4180   -0.5910 C   0  0  0  0  0  0  0  0  0  0  0  0
    3.6370    0.2760   -0.9750 N   0  0  0  0  0  0  0  0  0  0  0  0
    4.6400   -0.0140   -0.1450 C   0  0  0  0  0  0  0  0  0  0  0  0
    5.5670   -1.1420   -0.1630 C   0  0  0  0  0  0  0  0  0  0  0  0
    5.4840   -2.1160   -1.1340 C   0  0  0  0  0  0  0  0  0  0  0  0
    6.3790   -3.1880   -1.1360 C   0  0  0  0  0  0  0  0  0  0  0  0
    7.3610   -3.3110   -0.1840 C   0  0  0  0  0  0  0  0  0  0  0  0
    7.4470   -2.3390    0.7900 C   0  0  0  0  0  0  0  0  0  0  0  0
    8.4140   -2.4480    1.7380 F   0  0  0  0  0  0  0  0  0  0  0  0
    6.5540   -1.2720    0.7900 C   0  0  0  0  0  0  0  0  0  0  0  0
    4.6480    0.9780    0.7680 N   0  0  0  0  0  0  0  0  0  0  0  0
    3.6910    1.8120    0.4850 O   0  0  0  0  0  0  0  0  0  0  0  0
  2  1  1  1
  2  3  1  0
  2 20  1  0
  3  4  1  0
  4  5  2  0
  4  6  1  0
  6  7  1  0
  7  8  1  0
  8  9  1  0
  9 10  1  0
  9 16  1  0
 10 11  1  0
 11 12  1  0
 12 13  1  0
 13 14  2  3
 13 16  1  0
 14 15  1  0
 16 17  2  3
 17 18  1  0
 17 19  1  0
 20 21  2  0
 20 31  1  0
 21 22  1  0
 22 23  1  0
 22 30  2  0
 23 24  2  0
 23 29  1  0
 24 25  1  0
 25 26  2  0
 26 27  1  0
 27 28  1  0
 27 29  2  0
 30 31  1  0
M  END
