
     RDKit          3D

 30 32  0  0  0  0  0  0  0  0999 V2000
   -1.8260   -4.4630    2.8250 C   0  0  0  0  0  0  0  0  0  0  0  0
   -1.3300   -4.1310    1.4680 C   0  0  0  0  0  0  0  0  0  0  0  0
   -1.2740   -5.0410    0.4470 C   0  0  0  0  0  0  0  0  0  0  0  0
   -0.8050   -4.6750   -0.7900 C   0  0  0  0  0  0  0  0  0  0  0  0
   -0.3780   -3.3570   -1.0120 C   0  0  0  0  0  0  0  0  0  0  0  0
   -0.4270   -2.4300    0.0050 C   0  0  0  0  0  0  0  0  0  0  0  0
    0.0070   -1.0680   -0.1990 N   0  0  0  0  0  0  0  0  0  0  0  0
    1.3910   -0.7770    0.0690 C   0  0  0  0  0  0  0  0  0  0  0  0
    1.9500    0.3890   -0.0600 C   0  0  0  0  0  0  0  0  0  0  0  0
    3.3390    0.6730    0.2110 C   0  0  0  0  0  0  0  0  0  0  0  0
    4.2530   -0.2700    0.6350 C   0  0  0  0  0  0  0  0  0  0  0  0
    5.5830    0.0440    0.8870 C   0  0  0  0  0  0  0  0  0  0  0  0
    6.0220    1.2970    0.7210 N   0  0  0  0  0  0  0  0  0  0  0  0
    5.1600    2.2340    0.3110 C   0  0  0  0  0  0  0  0  0  0  0  0
    5.5910    3.4360    0.1560 N   0  0  0  0  0  0  0  0  0  0  0  0
    6.9290    3.7770    0.4060 C   0  0  0  0  0  0  0  0  0  0  0  0
    7.3360    3.8010    1.5800 O   0  0  0  0  0  0  0  0  0  0  0  0
    3.8350    1.9710    0.0490 C   0  0  0  0  0  0  0  0  0  0  0  0
    0.9540    1.7390   -0.6050 S   0  0  1  0  0  0  0  0  0  0  0  0
    0.9210    2.8280    0.4330 O   0  0  0  0  0  0  0  0  0  0  0  0
    1.5010    2.3220   -1.8780 O   0  0  0  0  0  0  0  0  0  0  0  0
   -0.6110    1.1380   -0.8450 N   0  0  0  0  0  0  0  0  0  0  0  0
   -0.8950   -0.0810   -0.6380 C   0  0  0  0  0  0  0  0  0  0  0  0
   -2.5780   -0.5900   -0.9290 S   0  0  0  0  0  0  0  0  0  0  0  0
   -3.6410    0.7290   -1.4760 C   0  0  0  0  0  0  0  0  0  0  0  0
   -3.8910    1.8130   -0.4570 C   0  0  1  0  0  0  0  0  0  0  0  0
   -2.7710    2.4670   -0.0230 O   0  0  0  0  0  0  0  0  0  0  0  0
   -4.7810    2.8630   -1.1240 C   0  0  0  0  0  0  0  0  0  0  0  0
   -5.9880    2.2220   -1.6040 N   0  0  0  0  0  0  0  0  0  0  0  0
   -0.9050   -2.8400    1.2280 C   0  0  0  0  0  0  0  0  0  0  0  0
  1  2  1  0
  2  3  2  0
  2 30  1  0
  3  4  1  0
  4  5  2  0
  5  6  1  0
  6  7  1  0
  6 30  2  0
  7  8  1  0
  7 23  1  0
  8  9  2  0
  9 10  1  0
  9 19  1  0
 10 11  1  0
 10 18  2  0
 11 12  2  0
 12 13  1  0
 13 14  1  0
 14 15  2  3
 14 18  1  0
 15 16  1  0
 16 17  2  0
 19 20  2  0
 19 21  2  0
 19 22  1  6
 22 23  2  0
 23 24  1  0
 24 25  1  0
 25 26  1  0
 26 27  1  6
 26 28  1  0
 28 29  1  0
M  CHG  1  29   1
M  END
