
     RDKit          3D

 31 33  0  0  0  0  0  0  0  0999 V2000
   -6.5340   -1.1060   -1.5540 C   0  0  0  0  0  0  0  0  0  0  0  0
   -6.1500   -0.0630   -0.5330 C   0  0  0  0  0  0  0  0  0  0  0  0
   -7.0430    0.7350    0.0260 C   0  0  0  0  0  0  0  0  0  0  0  0
   -8.3890    0.7400   -0.2220 F   0  0  0  0  0  0  0  0  0  0  0  0
   -6.3850    1.6480    0.9800 C   0  0  0  0  0  0  0  0  0  0  0  0
   -6.9480    2.5750    1.7180 C   0  0  0  0  0  0  0  0  0  0  0  0
   -8.2960    2.7340    1.6120 F   0  0  0  0  0  0  0  0  0  0  0  0
   -6.2900    3.3560    2.5530 F   0  0  0  0  0  0  0  0  0  0  0  0
   -4.9800    1.2910    0.9180 C   0  0  0  0  0  0  0  0  0  0  0  0
   -3.9870    1.7620    1.5320 N   0  0  0  0  0  0  0  0  0  0  0  0
   -3.8920    2.7260    2.4260 F   0  0  0  0  0  0  0  0  0  0  0  0
   -4.8590    0.2240   -0.0300 N   0  0  0  0  0  0  0  0  0  0  0  0
   -3.6500   -0.4630   -0.4310 C   0  0  2  0  0  0  0  0  0  0  0  0
   -2.9360   -1.1240    0.6770 C   0  0  0  0  0  0  0  0  0  0  0  0
   -1.6280   -0.5770    1.1070 C   0  0  0  0  0  0  0  0  0  0  0  0
   -0.9170   -0.1150   -0.0690 N   0  0  0  0  0  0  0  0  0  0  0  0
    0.3300   -0.6600   -0.5050 C   0  0  0  0  0  0  0  0  0  0  0  0
    0.8130   -0.1560   -1.5450 O   0  0  0  0  0  0  0  0  0  0  0  0
    1.0010   -1.6480    0.1070 O   0  0  0  0  0  0  0  0  0  0  0  0
    2.1680   -2.3040   -0.0870 C   0  0  0  0  0  0  0  0  0  0  0  0
    3.4920   -1.6350    0.1220 C   0  0  1  0  0  0  0  0  0  0  0  0
    4.4380   -2.6420   -0.1930 O   0  0  0  0  0  0  0  0  0  0  0  0
    3.6790   -0.4140   -0.6710 C   0  0  0  0  0  0  0  0  0  0  0  0
    4.9530    0.2150   -0.5690 N   0  0  0  0  0  0  0  0  0  0  0  0
    6.0860   -0.3860   -1.0940 C   0  0  0  0  0  0  0  0  0  0  0  0
    7.2870   -0.2380   -0.1800 C   0  0  0  0  0  0  0  0  0  0  0  0
    7.3960    1.1240    0.3030 N   0  0  0  0  0  0  0  0  0  0  0  0
    6.2100    1.6220    0.9280 C   0  0  0  0  0  0  0  0  0  0  0  0
    5.0400    1.4960   -0.0160 C   0  0  0  0  0  0  0  0  0  0  0  0
   -1.5770    0.9580   -0.7850 C   0  0  0  0  0  0  0  0  0  0  0  0
   -2.8400    0.4100   -1.3450 C   0  0  0  0  0  0  0  0  0  0  0  0
  1  2  1  0
  2  3  2  0
  2 12  1  0
  3  4  1  0
  3  5  1  0
  5  6  2  3
  5  9  1  0
  6  7  1  0
  6  8  1  0
  9 10  2  3
  9 12  1  0
 10 11  1  0
 13 12  1  1
 13 14  1  0
 13 31  1  0
 14 15  1  0
 15 16  1  0
 16 17  1  0
 16 30  1  0
 17 18  2  0
 17 19  1  0
 19 20  1  0
 20 21  1  0
 21 22  1  6
 21 23  1  0
 23 24  1  0
 24 25  1  0
 24 29  1  0
 25 26  1  0
 26 27  1  0
 27 28  1  0
 28 29  1  0
 30 31  1  0
M  END
