
     RDKit          3D

 31 33  0  0  0  0  0  0  0  0999 V2000
   -7.4500    0.4120   -1.3520 C   0  0  0  0  0  0  0  0  0  0  0  0
   -6.9150   -0.1900   -0.0770 C   0  0  1  0  0  0  0  0  0  0  0  0
   -7.4970   -1.6040    0.0170 C   0  0  0  0  0  0  0  0  0  0  0  0
   -5.4200   -0.3190   -0.1800 C   0  0  0  0  0  0  0  0  0  0  0  0
   -4.7380   -0.9560   -1.1480 N   0  0  0  0  0  0  0  0  0  0  0  0
   -3.4140   -0.8670   -0.9160 C   0  0  0  0  0  0  0  0  0  0  0  0
   -2.3010   -1.3330   -1.5820 C   0  0  0  0  0  0  0  0  0  0  0  0
   -1.0480   -1.0690   -1.0740 C   0  0  0  0  0  0  0  0  0  0  0  0
   -0.8330   -0.3410    0.1000 C   0  0  0  0  0  0  0  0  0  0  0  0
    0.4920   -0.1380    0.5170 N   0  0  0  0  0  0  0  0  0  0  0  0
    0.9540    0.5680    1.6530 C   0  0  0  0  0  0  0  0  0  0  0  0
    0.0920    1.0880    2.3980 O   0  0  0  0  0  0  0  0  0  0  0  0
    2.4060    0.7000    1.9690 C   0  0  1  0  0  0  0  0  0  0  0  0
    3.0790   -0.6410    2.1990 C   0  0  0  0  0  0  0  0  0  0  0  0
    3.6050   -0.8800    0.8030 C   0  0  0  0  0  0  0  0  0  0  0  0
    3.5980   -1.9840    0.2060 O   0  0  0  0  0  0  0  0  0  0  0  0
    4.0820    0.3800    0.3570 N   0  0  0  0  0  0  0  0  0  0  0  0
    5.2350    0.5840   -0.4690 C   0  0  0  0  0  0  0  0  0  0  0  0
    6.0490   -0.2630   -0.8880 N   0  0  0  0  0  0  0  0  0  0  0  0
    6.2580   -1.6370   -0.8040 C   0  0  0  0  0  0  0  0  0  0  0  0
    7.5750   -1.8990   -1.2680 F   0  0  0  0  0  0  0  0  0  0  0  0
    5.4950    1.9850   -0.9080 C   0  0  0  0  0  0  0  0  0  0  0  0
    4.6690    3.0240   -0.5260 O   0  0  0  0  0  0  0  0  0  0  0  0
    5.2920    4.1470   -0.0760 F   0  0  0  0  0  0  0  0  0  0  0  0
    6.5190    2.2720   -1.6720 C   0  0  0  0  0  0  0  0  0  0  0  0
    7.3540    1.2900   -2.0720 F   0  0  0  0  0  0  0  0  0  0  0  0
    6.7530    3.5310   -2.0690 F   0  0  0  0  0  0  0  0  0  0  0  0
    3.2020    1.3930    0.9110 C   0  0  0  0  0  0  0  0  0  0  0  0
   -1.9670    0.1000    0.7250 C   0  0  0  0  0  0  0  0  0  0  0  0
   -3.2590   -0.1550    0.2290 C   0  0  0  0  0  0  0  0  0  0  0  0
   -4.4850    0.1670    0.6590 N   0  0  0  0  0  0  0  0  0  0  0  0
  2  1  1  6
  2  3  1  0
  2  4  1  0
  4  5  2  0
  4 31  1  0
  5  6  1  0
  6  7  2  0
  6 30  1  0
  7  8  1  0
  8  9  2  0
  9 10  1  0
  9 29  1  0
 10 11  1  0
 11 12  2  0
 13 11  1  6
 13 14  1  0
 13 28  1  0
 14 15  1  0
 15 16  2  0
 15 17  1  0
 17 18  1  0
 17 28  1  0
 18 19  2  3
 18 22  1  0
 19 20  1  0
 20 21  1  0
 22 23  1  0
 22 25  2  3
 23 24  1  0
 25 26  1  0
 25 27  1  0
 29 30  2  0
 30 31  1  0
M  END
