
     RDKit          3D

 29 31  0  0  0  0  0  0  0  0999 V2000
    8.0710   -1.2780    0.7500 C   0  0  0  0  0  0  0  0  0  0  0  0
    7.5650    0.1750    0.6630 C   0  0  0  0  0  0  0  0  0  0  0  0
    8.3720    1.1720    0.6500 N   0  0  0  0  0  0  0  0  0  0  0  0
    8.0420    2.4170    0.5760 C   0  0  0  0  0  0  0  0  0  0  0  0
    6.2670    2.2830    0.5070 S   0  0  0  0  0  0  0  0  0  0  0  0
    6.2540    0.4220    0.5960 C   0  0  0  0  0  0  0  0  0  0  0  0
    5.0140   -0.3100    0.5740 C   0  0  0  0  0  0  0  0  0  0  0  0
    4.8800   -1.6660    0.6700 C   0  0  0  0  0  0  0  0  0  0  0  0
    3.6260   -2.2830    0.6290 C   0  0  0  0  0  0  0  0  0  0  0  0
    2.4720   -1.5600    0.4910 C   0  0  0  0  0  0  0  0  0  0  0  0
    1.1710   -2.2220    0.4530 C   0  0  0  0  0  0  0  0  0  0  0  0
    0.0760   -1.3460    0.1470 N   0  0  0  0  0  0  0  0  0  0  0  0
   -0.1670   -0.8980   -1.1910 C   0  0  0  0  0  0  0  0  0  0  0  0
    0.6600   -1.3350   -2.0620 O   0  0  0  0  0  0  0  0  0  0  0  0
   -1.2770    0.0010   -1.5750 C   0  0  2  0  0  0  0  0  0  0  0  0
   -0.7620    1.3430   -2.0690 C   0  0  0  0  0  0  0  0  0  0  0  0
   -1.4230    2.3900   -1.2320 C   0  0  1  0  0  0  0  0  0  0  0  0
   -2.5990    2.8970   -1.7850 O   0  0  0  0  0  0  0  0  0  0  0  0
   -1.7310    1.6430    0.0570 C   0  0  0  0  0  0  0  0  0  0  0  0
   -2.1420    0.3580   -0.4740 N   0  0  0  0  0  0  0  0  0  0  0  0
   -3.2290   -0.4140   -0.0010 C   0  0  0  0  0  0  0  0  0  0  0  0
   -3.4870   -1.5310   -0.5630 O   0  0  0  0  0  0  0  0  0  0  0  0
   -4.1080   -0.0170    1.1180 C   0  0  0  0  0  0  0  0  0  0  0  0
   -5.5620   -0.0470    0.7800 C   0  0  2  0  0  0  0  0  0  0  0  0
   -5.8360    0.9150   -0.3810 C   0  0  0  0  0  0  0  0  0  0  0  0
   -6.4250    0.4450    1.9330 C   0  0  0  0  0  0  0  0  0  0  0  0
   -6.0820   -1.4000    0.4080 C   0  0  0  0  0  0  0  0  0  0  0  0
    2.5780   -0.1930    0.3930 C   0  0  0  0  0  0  0  0  0  0  0  0
    3.8260    0.4180    0.4350 C   0  0  0  0  0  0  0  0  0  0  0  0
  1  2  1  0
  2  3  1  0
  2  6  2  0
  3  4  2  0
  4  5  1  0
  5  6  1  0
  6  7  1  0
  7  8  2  0
  7 29  1  0
  8  9  1  0
  9 10  2  0
 10 11  1  0
 10 28  1  0
 11 12  1  0
 12 13  1  0
 13 14  2  0
 15 13  1  1
 15 16  1  0
 15 20  1  0
 16 17  1  0
 17 18  1  6
 17 19  1  0
 19 20  1  0
 20 21  1  0
 21 22  2  0
 21 23  1  0
 23 24  1  0
 24 25  1  6
 24 26  1  0
 24 27  1  0
 28 29  2  0
M  END
