
     RDKit          3D

 31 33  0  0  0  0  0  0  0  0999 V2000
   -1.1860    0.4510    3.4250 C   0  0  0  0  0  0  0  0  0  0  0  0
   -1.9060    0.6600    2.1560 C   0  0  0  0  0  0  0  0  0  0  0  0
   -3.2390    0.7670    2.0300 N   0  0  0  0  0  0  0  0  0  0  0  0
   -3.5570    0.9470    0.7660 N   0  0  0  0  0  0  0  0  0  0  0  0
   -4.8890    1.1010    0.2600 C   0  0  0  0  0  0  0  0  0  0  0  0
   -5.4410   -0.2310   -0.0860 C   0  0  0  0  0  0  0  0  0  0  0  0
   -4.7180   -1.2530    0.0900 O   0  0  0  0  0  0  0  0  0  0  0  0
   -6.7780   -0.3340   -0.6120 C   0  0  0  0  0  0  0  0  0  0  0  0
   -7.5230    0.7310   -0.7920 C   0  0  0  0  0  0  0  0  0  0  0  0
   -8.7860    0.5300   -1.2980 F   0  0  0  0  0  0  0  0  0  0  0  0
   -7.1230    1.9850   -0.5100 F   0  0  0  0  0  0  0  0  0  0  0  0
   -7.2930   -1.7040   -0.9490 C   0  0  2  0  0  0  0  0  0  0  0  0
   -7.2970   -2.5080    0.1760 F   0  0  0  0  0  0  0  0  0  0  0  0
   -6.4130   -2.2120   -1.9090 F   0  0  0  0  0  0  0  0  0  0  0  0
   -2.4140    0.9580    0.0470 C   0  0  0  0  0  0  0  0  0  0  0  0
   -2.2530    1.1310   -1.4210 C   0  0  0  0  0  0  0  0  0  0  0  0
   -1.3520    0.7780    0.9020 C   0  0  0  0  0  0  0  0  0  0  0  0
    0.0350    0.7170    0.6320 N   0  0  0  0  0  0  0  0  0  0  0  0
    0.7170   -0.4930    0.3370 C   0  0  0  0  0  0  0  0  0  0  0  0
    0.0670   -1.5600    0.3130 O   0  0  0  0  0  0  0  0  0  0  0  0
    2.1670   -0.4880    0.0640 C   0  0  0  0  0  0  0  0  0  0  0  0
    2.9950    0.6120    0.0590 C   0  0  0  0  0  0  0  0  0  0  0  0
    4.2780    0.2040   -0.2380 C   0  0  0  0  0  0  0  0  0  0  0  0
    4.2200   -1.1550   -0.4140 C   0  0  0  0  0  0  0  0  0  0  0  0
    2.9420   -1.5460   -0.2270 N   0  0  0  0  0  0  0  0  0  0  0  0
    5.4050   -1.9860   -0.7510 C   0  0  0  0  0  0  0  0  0  0  0  0
    6.6830   -1.3070   -0.3790 C   0  0  0  0  0  0  0  0  0  0  0  0
    6.6960    0.0950   -0.7080 N   0  0  0  0  0  0  0  0  0  0  0  0
    7.8250    0.7390   -1.3530 C   0  0  0  0  0  0  0  0  0  0  0  0
    5.5600    0.8770   -0.3870 C   0  0  0  0  0  0  0  0  0  0  0  0
    5.6130    2.1260   -0.2260 O   0  0  0  0  0  0  0  0  0  0  0  0
  1  2  1  0
  2  3  2  0
  2 17  1  0
  3  4  1  0
  4  5  1  0
  4 15  1  0
  5  6  1  0
  6  7  2  0
  6  8  1  0
  8  9  2  3
  8 12  1  0
  9 10  1  0
  9 11  1  0
 12 13  1  1
 12 14  1  0
 15 16  1  0
 15 17  2  0
 17 18  1  0
 18 19  1  0
 19 20  2  0
 19 21  1  0
 21 22  2  0
 21 25  1  0
 22 23  1  0
 23 24  2  0
 23 30  1  0
 24 25  1  0
 24 26  1  0
 26 27  1  0
 27 28  1  0
 28 29  1  0
 28 30  1  0
 30 31  2  0
M  END
