
     RDKit          3D

 30 33  0  0  0  0  0  0  0  0999 V2000
   -2.0440    0.5890    2.2670 C   0  0  0  0  0  0  0  0  0  0  0  0
   -2.9710    0.5360    1.1170 C   0  0  0  0  0  0  0  0  0  0  0  0
   -2.7640    1.0150   -0.1410 C   0  0  0  0  0  0  0  0  0  0  0  0
   -1.6270    1.7020   -0.7430 C   0  0  0  0  0  0  0  0  0  0  0  0
   -1.6770    2.0440   -1.9810 O   0  0  0  0  0  0  0  0  0  0  0  0
   -0.4340    2.0490   -0.1030 N   0  0  0  0  0  0  0  0  0  0  0  0
    0.6610    2.7410   -0.7940 C   0  0  1  0  0  0  0  0  0  0  0  0
    0.8340    4.1390   -0.2450 C   0  0  0  0  0  0  0  0  0  0  0  0
    2.1710    4.9200   -1.1970 S   0  0  0  0  0  0  0  0  0  0  0  0
    3.5390    3.7070   -1.1550 C   0  0  0  0  0  0  0  0  0  0  0  0
    3.0180    2.5750   -0.2590 C   0  0  0  0  0  0  0  0  0  0  0  0
    1.8600    1.9540   -0.7940 N   0  0  0  0  0  0  0  0  0  0  0  0
    1.6330    0.6160   -0.3380 C   0  0  0  0  0  0  0  0  0  0  0  0
    2.6430   -0.3690   -0.8290 C   0  0  0  0  0  0  0  0  0  0  0  0
    3.5460    0.0400   -1.5560 O   0  0  0  0  0  0  0  0  0  0  0  0
    2.5160   -1.7060   -0.4410 N   0  0  0  0  0  0  0  0  0  0  0  0
    3.3910   -2.7270   -0.8360 C   0  0  0  0  0  0  0  0  0  0  0  0
    4.3320   -2.6340   -1.8220 C   0  0  0  0  0  0  0  0  0  0  0  0
    5.1980   -3.6690   -2.1760 C   0  0  0  0  0  0  0  0  0  0  0  0
    5.1180   -4.8580   -1.5120 C   0  0  0  0  0  0  0  0  0  0  0  0
    6.1810   -6.2100   -1.9090 Cl  0  0  0  0  0  0  0  0  0  0  0  0
    4.1880   -4.9960   -0.5170 C   0  0  0  0  0  0  0  0  0  0  0  0
    3.3500   -3.9750   -0.1820 C   0  0  0  0  0  0  0  0  0  0  0  0
   -3.8730    0.7370   -0.8190 O   0  0  0  0  0  0  0  0  0  0  0  0
   -4.7360    0.1290   -0.0810 C   0  0  0  0  0  0  0  0  0  0  0  0
   -4.2440   -0.0480    1.1910 C   0  0  0  0  0  0  0  0  0  0  0  0
   -4.9540   -0.7100    2.3020 C   0  0  0  0  0  0  0  0  0  0  0  0
   -6.2980   -1.1940    1.9830 C   0  0  0  0  0  0  0  0  0  0  0  0
   -6.7540   -0.9750    0.6230 C   0  0  0  0  0  0  0  0  0  0  0  0
   -6.0780   -0.3870   -0.3200 C   0  0  0  0  0  0  0  0  0  0  0  0
  1  2  1  0
  2  3  2  0
  2 26  1  0
  3  4  1  0
  3 24  1  0
  4  5  2  0
  4  6  1  0
  7  6  1  1
  7  8  1  0
  7 12  1  0
  8  9  1  0
  9 10  1  0
 10 11  1  0
 11 12  1  0
 12 13  1  0
 13 14  1  0
 14 15  2  0
 14 16  1  0
 16 17  1  0
 17 18  2  0
 17 23  1  0
 18 19  1  0
 19 20  2  0
 20 21  1  0
 20 22  1  0
 22 23  2  0
 24 25  1  0
 25 26  2  0
 25 30  1  0
 26 27  1  0
 27 28  1  0
 28 29  1  0
 29 30  2  0
M  END
