
     RDKit          3D

 30 33  0  0  0  0  0  0  0  0999 V2000
    8.4890   -0.4630    1.5700 C   0  0  0  0  0  0  0  0  0  0  0  0
    8.5200    0.2190    0.2520 C   0  0  0  0  0  0  0  0  0  0  0  0
    7.5620    0.5500   -0.5520 C   0  0  0  0  0  0  0  0  0  0  0  0
    6.1780    0.3850   -0.4660 N   0  0  0  0  0  0  0  0  0  0  0  0
    5.3550   -0.1830    0.4970 C   0  0  0  0  0  0  0  0  0  0  0  0
    5.8180   -0.6720    1.5250 O   0  0  0  0  0  0  0  0  0  0  0  0
    3.9260   -0.2460    0.3770 N   0  0  0  0  0  0  0  0  0  0  0  0
    3.1280   -0.8480    1.4120 C   0  0  0  0  0  0  0  0  0  0  0  0
    1.6560   -0.8150    1.0990 C   0  0  0  0  0  0  0  0  0  0  0  0
    1.1240    0.5740    0.9250 C   0  0  0  0  0  0  0  0  0  0  0  0
   -0.2570    0.5530    0.6360 O   0  0  0  0  0  0  0  0  0  0  0  0
   -0.8160   -0.0480   -0.4510 C   0  0  0  0  0  0  0  0  0  0  0  0
   -0.1030   -0.6370   -1.2880 O   0  0  0  0  0  0  0  0  0  0  0  0
   -2.2810   -0.0330   -0.6930 C   0  0  0  0  0  0  0  0  0  0  0  0
   -3.2980    0.5140    0.0180 C   0  0  0  0  0  0  0  0  0  0  0  0
   -4.5650    0.3650   -0.4550 C   0  0  0  0  0  0  0  0  0  0  0  0
   -4.7640   -0.3070   -1.5920 C   0  0  0  0  0  0  0  0  0  0  0  0
   -3.0900   -0.7950   -2.0880 S   0  0  0  0  0  0  0  0  0  0  0  0
   -5.8810   -0.7300   -2.4700 C   0  0  0  0  0  0  0  0  0  0  0  0
   -7.0700    0.1850   -2.4200 C   0  0  0  0  0  0  0  0  0  0  0  0
   -7.6500   -0.0220   -1.0460 C   0  0  0  0  0  0  0  0  0  0  0  0
   -8.8100   -0.5670   -0.8180 C   0  0  0  0  0  0  0  0  0  0  0  0
   -9.0220   -0.5950    0.6640 C   0  0  0  0  0  0  0  0  0  0  0  0
   -7.7830    0.0210    1.1700 C   0  0  0  0  0  0  0  0  0  0  0  0
   -6.9700    0.3630    0.1900 C   0  0  0  0  0  0  0  0  0  0  0  0
   -5.6960    1.0010    0.3720 C   0  0  0  0  0  0  0  0  0  0  0  0
    8.2420    1.2030   -1.7060 C   0  0  0  0  0  0  0  0  0  0  0  0
    7.3850    1.8520   -3.1100 Cl  0  0  0  0  0  0  0  0  0  0  0  0
    9.4920    1.2300   -1.5470 N   0  0  0  0  0  0  0  0  0  0  0  0
    9.8730    0.6380   -0.3340 C   0  0  0  0  0  0  0  0  0  0  0  0
  1  2  1  0
  2  3  2  0
  2 30  1  0
  3  4  1  0
  3 27  1  0
  4  5  1  0
  5  6  2  0
  5  7  1  0
  7  8  1  0
  8  9  1  0
  9 10  1  0
 10 11  1  0
 11 12  1  0
 12 13  2  0
 12 14  1  0
 14 15  2  0
 14 18  1  0
 15 16  1  0
 16 17  2  0
 16 26  1  0
 17 18  1  0
 17 19  1  0
 19 20  1  0
 20 21  1  0
 21 22  2  0
 21 25  1  0
 22 23  1  0
 23 24  1  0
 24 25  2  0
 25 26  1  0
 27 28  1  0
 27 29  2  0
 29 30  1  0
M  END
