
     RDKit          3D

 30 33  0  0  0  0  0  0  0  0999 V2000
   -5.7260    0.8080    1.3880 C   0  0  0  0  0  0  0  0  0  0  0  0
   -4.5390    0.4610    0.9150 C   0  0  0  0  0  0  0  0  0  0  0  0
   -3.3440    1.0040    1.5490 C   0  0  0  0  0  0  0  0  0  0  0  0
   -3.4730    2.0960    2.9100 Cl  0  0  0  0  0  0  0  0  0  0  0  0
   -2.1400    0.6790    1.1020 C   0  0  0  0  0  0  0  0  0  0  0  0
   -0.9740    1.2180    1.7330 N   0  0  0  0  0  0  0  0  0  0  0  0
    0.3380    1.2560    1.0810 C   0  0  1  0  0  0  0  0  0  0  0  0
    1.3440    1.2720    2.2200 C   0  0  0  0  0  0  0  0  0  0  0  0
    3.0420    1.3500    1.6370 S   0  0  0  0  0  0  0  0  0  0  0  0
    3.3920    2.9450    0.8430 C   0  0  0  0  0  0  0  0  0  0  0  0
    0.4910    0.0840    0.2410 N   0  0  0  0  0  0  0  0  0  0  0  0
    1.7940   -0.4830    0.0930 C   0  0  0  0  0  0  0  0  0  0  0  0
    2.2910   -1.4330    0.9740 C   0  0  0  0  0  0  0  0  0  0  0  0
    3.5360   -2.0090    0.8570 C   0  0  0  0  0  0  0  0  0  0  0  0
    4.3330   -1.6240   -0.1900 C   0  0  0  0  0  0  0  0  0  0  0  0
    5.6700   -2.2200   -0.3450 C   0  0  0  0  0  0  0  0  0  0  0  0
    6.0730   -3.0750    0.4790 O   0  0  0  0  0  0  0  0  0  0  0  0
    3.8650   -0.6800   -1.0830 C   0  0  0  0  0  0  0  0  0  0  0  0
    2.5990   -0.1010   -0.9560 C   0  0  0  0  0  0  0  0  0  0  0  0
    2.1940    0.8950   -1.9750 C   0  0  0  0  0  0  0  0  0  0  0  0
    3.2000    1.0980   -2.9190 O   0  0  0  0  0  0  0  0  0  0  0  0
   -0.6410   -0.5010   -0.4300 C   0  0  0  0  0  0  0  0  0  0  0  0
   -0.3310   -1.2510   -1.3720 O   0  0  0  0  0  0  0  0  0  0  0  0
   -1.9490   -0.2010    0.0010 N   0  0  0  0  0  0  0  0  0  0  0  0
   -3.1060   -0.7640   -0.6580 C   0  0  0  0  0  0  0  0  0  0  0  0
   -2.9100   -1.6020   -1.7060 C   0  0  0  0  0  0  0  0  0  0  0  0
   -4.0360   -2.1440   -2.3400 C   0  0  0  0  0  0  0  0  0  0  0  0
   -5.3000   -1.8370   -1.9150 C   0  0  0  0  0  0  0  0  0  0  0  0
   -5.4980   -0.9860   -0.8500 C   0  0  0  0  0  0  0  0  0  0  0  0
   -4.4040   -0.4430   -0.2130 C   0  0  0  0  0  0  0  0  0  0  0  0
  1  2  2  0
  2  3  1  0
  2 30  1  0
  3  4  1  0
  3  5  2  0
  5  6  1  0
  5 24  1  0
  6  7  1  0
  7  8  1  1
  7 11  1  0
  8  9  1  0
  9 10  1  0
 11 12  1  0
 11 22  1  0
 12 13  2  0
 12 19  1  0
 13 14  1  0
 14 15  2  0
 15 16  1  0
 15 18  1  0
 16 17  2  0
 18 19  2  0
 19 20  1  0
 20 21  1  0
 22 23  2  0
 22 24  1  0
 24 25  1  0
 25 26  2  0
 25 30  1  0
 26 27  1  0
 27 28  2  0
 28 29  1  0
 29 30  2  0
M  END
