
     RDKit          3D

 33 35  0  0  0  0  0  0  0  0999 V2000
   -3.6220    2.3610    4.6870 C   0  0  0  0  0  0  0  0  0  0  0  0
   -3.6340    1.2100    3.7480 C   0  0  0  0  0  0  0  0  0  0  0  0
   -3.6550    0.0610    4.2510 O   0  0  0  0  0  0  0  0  0  0  0  0
   -3.6240    1.3420    2.3500 N   0  0  0  0  0  0  0  0  0  0  0  0
   -3.6360    0.1770    1.4440 C   0  0  2  0  0  0  0  0  0  0  0  0
   -2.4180    0.1990    0.5810 C   0  0  0  0  0  0  0  0  0  0  0  0
   -1.9740    1.3660    0.3240 O   0  0  0  0  0  0  0  0  0  0  0  0
   -1.8180   -0.9480    0.0980 N   0  0  0  0  0  0  0  0  0  0  0  0
   -2.2900   -2.3150    0.4220 C   0  0  0  0  0  0  0  0  0  0  0  0
   -2.3710   -2.8970   -0.9800 C   0  0  2  0  0  0  0  0  0  0  0  0
   -1.9410   -4.2200   -1.0050 O   0  0  0  0  0  0  0  0  0  0  0  0
   -1.4570   -2.0190   -1.8550 C   0  0  0  0  0  0  0  0  0  0  0  0
   -0.7300   -1.2290   -0.7670 C   0  0  1  0  0  0  0  0  0  0  0  0
    0.1650   -0.2110   -1.2120 C   0  0  0  0  0  0  0  0  0  0  0  0
    0.2270    0.9280   -0.7180 O   0  0  0  0  0  0  0  0  0  0  0  0
    1.0690   -0.4880   -2.3070 N   0  0  0  0  0  0  0  0  0  0  0  0
    2.0080    0.4530   -2.8290 C   0  0  0  0  0  0  0  0  0  0  0  0
    3.2430    0.5730   -2.0050 C   0  0  0  0  0  0  0  0  0  0  0  0
    4.3050   -0.2870   -2.2030 C   0  0  0  0  0  0  0  0  0  0  0  0
    5.4870   -0.1990   -1.4510 C   0  0  0  0  0  0  0  0  0  0  0  0
    5.6430    0.7370   -0.4930 C   0  0  0  0  0  0  0  0  0  0  0  0
    6.8570    0.8780    0.2930 C   0  0  0  0  0  0  0  0  0  0  0  0
    6.9340    2.0720    1.6240 S   0  0  0  0  0  0  0  0  0  0  0  0
    8.7280    1.6150    2.0340 C   0  0  0  0  0  0  0  0  0  0  0  0
    8.8960    0.8110    1.2490 N   0  0  0  0  0  0  0  0  0  0  0  0
    8.0770    0.3320    0.3170 C   0  0  0  0  0  0  0  0  0  0  0  0
    8.5210   -0.7390   -0.6430 C   0  0  0  0  0  0  0  0  0  0  0  0
    4.5660    1.6100   -0.2900 C   0  0  0  0  0  0  0  0  0  0  0  0
    3.4100    1.5210   -1.0290 C   0  0  0  0  0  0  0  0  0  0  0  0
   -4.9130    0.2760    0.6730 C   0  0  1  0  0  0  0  0  0  0  0  0
   -5.1790   -0.7780   -0.3340 C   0  0  0  0  0  0  0  0  0  0  0  0
   -6.0440    0.1810    1.7100 C   0  0  0  0  0  0  0  0  0  0  0  0
   -5.0960    1.6290    0.0190 C   0  0  0  0  0  0  0  0  0  0  0  0
  1  2  1  0
  2  3  2  0
  2  4  1  0
  5  4  1  1
  5  6  1  0
  5 30  1  0
  6  7  2  0
  6  8  1  0
  8  9  1  0
  8 13  1  0
  9 10  1  0
 10 11  1  1
 10 12  1  0
 12 13  1  0
 13 14  1  6
 14 15  2  0
 14 16  1  0
 16 17  1  0
 17 18  1  0
 18 19  2  0
 18 29  1  0
 19 20  1  0
 20 21  2  0
 21 22  1  0
 21 28  1  0
 22 23  1  0
 22 26  2  0
 23 24  1  0
 24 25  2  0
 25 26  1  0
 26 27  1  0
 28 29  2  0
 30 31  1  6
 30 32  1  0
 30 33  1  0
M  END
