
     RDKit          3D

 29 33  0  0  0  0  0  0  0  0999 V2000
    3.6830   -0.6440    2.2840 O   0  0  0  0  0  0  0  0  0  0  0  0
    2.8760   -0.0720    1.5150 C   0  0  0  0  0  0  0  0  0  0  0  0
    3.3260    0.7810    0.4170 C   0  0  0  0  0  0  0  0  0  0  0  0
    2.3870    1.3590   -0.3050 C   0  0  0  0  0  0  0  0  0  0  0  0
    0.9600    1.2040   -0.0860 C   0  0  0  0  0  0  0  0  0  0  0  0
    0.1090    2.3090   -0.0530 C   0  0  0  0  0  0  0  0  0  0  0  0
   -1.1550    1.8130    0.1670 C   0  0  0  0  0  0  0  0  0  0  0  0
   -1.0390    0.4300    0.2610 C   0  0  0  0  0  0  0  0  0  0  0  0
   -2.1530   -0.5110    0.4880 C   0  0  0  0  0  0  0  0  0  0  0  0
   -1.9810   -1.8770    0.4920 C   0  0  0  0  0  0  0  0  0  0  0  0
   -3.0590   -2.7470    0.7000 C   0  0  0  0  0  0  0  0  0  0  0  0
   -4.3320   -2.2310    0.9070 C   0  0  0  0  0  0  0  0  0  0  0  0
   -4.5190   -0.8730    0.9060 C   0  0  0  0  0  0  0  0  0  0  0  0
   -5.8560   -0.2770    1.1070 C   0  0  2  0  0  0  0  0  0  0  0  0
   -7.0010   -1.1440    0.7130 C   0  0  0  0  0  0  0  0  0  0  0  0
   -7.9110   -0.2370   -0.0720 C   0  0  0  0  0  0  0  0  0  0  0  0
   -7.4680    1.1510    0.3200 C   0  0  0  0  0  0  0  0  0  0  0  0
   -6.0070    0.9570    0.3340 N   0  0  0  0  0  0  0  0  0  0  0  0
   -3.4290   -0.0170    0.6960 C   0  0  0  0  0  0  0  0  0  0  0  0
    0.2030    0.1450    0.1080 O   0  0  0  0  0  0  0  0  0  0  0  0
    4.7240    0.9900    0.1010 C   0  0  2  0  0  0  0  0  0  0  0  0
    4.9140    2.0060   -1.0210 C   0  0  0  0  0  0  0  0  0  0  0  0
    6.4250    1.8260   -1.3000 C   0  0  0  0  0  0  0  0  0  0  0  0
    6.5510    0.3600   -1.1720 C   0  0  0  0  0  0  0  0  0  0  0  0
    7.4880   -0.4720   -1.7530 C   0  0  0  0  0  0  0  0  0  0  0  0
    7.4430   -1.8370   -1.5770 C   0  0  0  0  0  0  0  0  0  0  0  0
    6.4270   -2.3380   -0.7990 C   0  0  0  0  0  0  0  0  0  0  0  0
    5.4840   -1.4890   -0.2160 C   0  0  0  0  0  0  0  0  0  0  0  0
    5.5280   -0.1310   -0.3880 C   0  0  0  0  0  0  0  0  0  0  0  0
  1  2  2  0
  2  3  1  0
  3  4  2  3
 21  3  1  6
  4  5  1  0
  5  6  2  0
  5 20  1  0
  6  7  1  0
  7  8  2  0
  8  9  1  0
  8 20  1  0
  9 10  2  0
  9 19  1  0
 10 11  1  0
 11 12  2  0
 12 13  1  0
 14 13  1  6
 13 19  2  0
 14 15  1  0
 14 18  1  0
 15 16  1  0
 16 17  1  0
 17 18  1  0
 21 22  1  0
 21 29  1  0
 22 23  1  0
 23 24  1  0
 24 25  2  0
 24 29  1  0
 25 26  1  0
 26 27  2  0
 27 28  1  0
 28 29  2  0
M  END
