
     RDKit          3D

 30 33  0  0  0  0  0  0  0  0999 V2000
   -5.4820   -0.8030    2.0730 C   0  0  0  0  0  0  0  0  0  0  0  0
   -5.9400   -0.1950    0.7960 C   0  0  0  0  0  0  0  0  0  0  0  0
   -7.1970    0.3040    0.6210 C   0  0  0  0  0  0  0  0  0  0  0  0
   -8.3480    0.2400    1.9510 Cl  0  0  0  0  0  0  0  0  0  0  0  0
   -7.6190    0.8660   -0.5580 C   0  0  0  0  0  0  0  0  0  0  0  0
   -6.7220    0.9250   -1.6190 C   0  0  0  0  0  0  0  0  0  0  0  0
   -5.4640    0.4340   -1.4700 C   0  0  0  0  0  0  0  0  0  0  0  0
   -4.5530    0.4790   -2.5040 C   0  0  0  0  0  0  0  0  0  0  0  0
   -4.9040    0.9820   -3.5890 O   0  0  0  0  0  0  0  0  0  0  0  0
   -3.3080   -0.0150   -2.3360 N   0  0  0  0  0  0  0  0  0  0  0  0
   -2.9410   -0.5530   -1.1650 C   0  0  0  0  0  0  0  0  0  0  0  0
   -1.6260   -1.0610   -1.0280 N   0  0  0  0  0  0  0  0  0  0  0  0
   -1.1880   -1.6490    0.2140 C   0  0  0  0  0  0  0  0  0  0  0  0
   -2.0380   -1.6760    1.1380 O   0  0  0  0  0  0  0  0  0  0  0  0
    0.1830   -2.1660    0.3260 C   0  0  1  0  0  0  0  0  0  0  0  0
    1.1510   -1.0480    0.0790 C   0  0  0  0  0  0  0  0  0  0  0  0
    2.3100   -1.1190    0.9590 C   0  0  0  0  0  0  0  0  0  0  0  0
    3.5740   -0.3960    0.6180 C   0  0  0  0  0  0  0  0  0  0  0  0
    3.7070    0.3230   -0.4490 C   0  0  0  0  0  0  0  0  0  0  0  0
    4.7750    1.0860   -0.9820 C   0  0  0  0  0  0  0  0  0  0  0  0
    4.4900    1.6780   -2.1180 O   0  0  0  0  0  0  0  0  0  0  0  0
    6.1200    1.3170   -0.4830 C   0  0  0  0  0  0  0  0  0  0  0  0
    6.7200    0.8830    0.6030 C   0  0  0  0  0  0  0  0  0  0  0  0
    8.1290    1.3970    0.6920 C   0  0  0  0  0  0  0  0  0  0  0  0
    8.2550    2.2030   -0.5220 C   0  0  0  0  0  0  0  0  0  0  0  0
    7.1230    2.1510   -1.1720 C   0  0  0  0  0  0  0  0  0  0  0  0
    2.2130   -1.8280    2.0450 C   0  0  0  0  0  0  0  0  0  0  0  0
    0.5620   -2.5140    2.0720 S   0  0  0  0  0  0  0  0  0  0  0  0
   -3.8140   -0.6150   -0.1220 N   0  0  0  0  0  0  0  0  0  0  0  0
   -5.0590   -0.1270   -0.2740 C   0  0  0  0  0  0  0  0  0  0  0  0
  1  2  1  0
  2  3  2  0
  2 30  1  0
  3  4  1  0
  3  5  1  0
  5  6  2  0
  6  7  1  0
  7  8  1  0
  7 30  2  0
  8  9  2  0
  8 10  1  0
 10 11  1  0
 11 12  1  0
 11 29  2  0
 12 13  1  0
 13 14  2  0
 15 13  1  1
 15 16  1  0
 15 28  1  0
 16 17  1  0
 17 18  1  0
 17 27  2  0
 18 19  2  3
 19 20  1  0
 20 21  2  0
 20 22  1  0
 22 23  2  0
 22 26  1  0
 23 24  1  0
 24 25  1  0
 25 26  2  0
 27 28  1  0
 29 30  1  0
M  END
