
     RDKit          3D

 30 33  0  0  0  0  0  0  0  0999 V2000
   -6.9080    3.0040    0.7330 C   0  0  0  0  0  0  0  0  0  0  0  0
   -5.8070    1.9830    0.8070 C   0  0  0  0  0  0  0  0  0  0  0  0
   -4.5730    2.2300    0.3880 C   0  0  0  0  0  0  0  0  0  0  0  0
   -3.4970    1.2370    0.4790 C   0  0  2  0  0  0  0  0  0  0  0  0
   -2.3490    1.5410   -0.3800 C   0  0  0  0  0  0  0  0  0  0  0  0
   -1.4620    0.3450   -0.5990 C   0  0  0  0  0  0  0  0  0  0  0  0
   -0.1970    0.5650   -1.0820 C   0  0  0  0  0  0  0  0  0  0  0  0
    0.6540   -0.5000   -1.4050 C   0  0  0  0  0  0  0  0  0  0  0  0
    2.2650   -0.2160   -2.0200 S   0  0  2  0  0  0  0  0  0  0  0  0
    2.5020    1.2640   -2.0420 O   0  0  0  0  0  0  0  0  0  0  0  0
    2.3960   -0.7760   -3.4230 O   0  0  0  0  0  0  0  0  0  0  0  0
    3.4990   -0.9300   -0.9480 C   0  0  0  0  0  0  0  0  0  0  0  0
    3.3380   -0.2720    0.4020 C   0  0  0  0  0  0  0  0  0  0  0  0
    4.3120   -0.8030    1.3010 N   0  0  0  0  0  0  0  0  0  0  0  0
    5.6910   -0.5260    1.1150 C   0  0  0  0  0  0  0  0  0  0  0  0
    6.1370    0.4320    0.2470 C   0  0  0  0  0  0  0  0  0  0  0  0
    7.4940    0.6780    0.0700 C   0  0  0  0  0  0  0  0  0  0  0  0
    8.4230   -0.0500    0.7770 C   0  0  0  0  0  0  0  0  0  0  0  0
    7.9560   -0.9800    1.6180 N   0  0  0  0  0  0  0  0  0  0  0  0
    6.6630   -1.2460    1.8150 C   0  0  0  0  0  0  0  0  0  0  0  0
    0.1410   -1.7630   -1.2070 C   0  0  0  0  0  0  0  0  0  0  0  0
    0.8850   -2.7370   -1.4910 O   0  0  0  0  0  0  0  0  0  0  0  0
   -1.1170   -1.9700   -0.7250 N   0  0  0  0  0  0  0  0  0  0  0  0
   -1.9230   -0.9300   -0.4170 C   0  0  0  0  0  0  0  0  0  0  0  0
   -3.2420   -1.1880    0.2070 C   0  0  0  0  0  0  0  0  0  0  0  0
   -3.6910   -2.5870    0.3600 C   0  0  0  0  0  0  0  0  0  0  0  0
   -3.8000   -3.2720   -1.2960 Cl  0  0  0  0  0  0  0  0  0  0  0  0
   -3.9460   -0.1490    0.6000 C   0  0  0  0  0  0  0  0  0  0  0  0
   -5.3200   -0.3580    1.1070 C   0  0  0  0  0  0  0  0  0  0  0  0
   -6.1840    0.6480    1.1900 C   0  0  0  0  0  0  0  0  0  0  0  0
  1  2  1  0
  2  3  2  0
  2 30  1  0
  3  4  1  0
  4  5  1  6
  4 28  1  0
  5  6  1  0
  6  7  1  0
  6 24  2  0
  7  8  2  0
  8  9  1  0
  8 21  1  0
  9 10  2  0
  9 11  2  0
  9 12  1  1
 12 13  1  0
 13 14  1  0
 14 15  1  0
 15 16  2  0
 15 20  1  0
 16 17  1  0
 17 18  2  0
 18 19  1  0
 19 20  2  0
 21 22  2  0
 21 23  1  0
 23 24  1  0
 24 25  1  0
 25 26  1  0
 25 28  2  0
 26 27  1  0
 28 29  1  0
 29 30  2  0
M  END
