
     RDKit          3D

 29 32  0  0  0  0  0  0  0  0999 V2000
   -1.9090    1.0270   -0.8780 C   0  0  0  0  0  0  0  0  0  0  0  0
   -2.9450    0.3900   -0.0130 C   0  0  0  0  0  0  0  0  0  0  0  0
   -4.1860    0.7230   -0.3850 C   0  0  0  0  0  0  0  0  0  0  0  0
   -4.4550    1.6200   -1.5530 C   0  0  0  0  0  0  0  0  0  0  0  0
   -5.3030    0.2980    0.4330 C   0  0  0  0  0  0  0  0  0  0  0  0
   -6.5990    0.6150    0.1010 C   0  0  0  0  0  0  0  0  0  0  0  0
   -7.6490    0.1990    0.9060 C   0  0  0  0  0  0  0  0  0  0  0  0
   -7.4540   -0.5340    2.0520 C   0  0  0  0  0  0  0  0  0  0  0  0
   -6.1630   -0.8470    2.3800 C   0  0  0  0  0  0  0  0  0  0  0  0
   -5.0890   -0.4330    1.5740 C   0  0  0  0  0  0  0  0  0  0  0  0
   -3.7600   -0.7890    1.9680 C   0  0  0  0  0  0  0  0  0  0  0  0
   -3.5530   -1.4540    3.0070 O   0  0  0  0  0  0  0  0  0  0  0  0
   -2.5510   -0.3680    1.1320 C   0  0  0  0  0  0  0  0  0  0  0  0
   -1.4370   -0.9310    1.4710 C   0  0  0  0  0  0  0  0  0  0  0  0
   -0.1390   -1.1780    1.0560 C   0  0  0  0  0  0  0  0  0  0  0  0
    0.6880   -1.6660    2.0450 O   0  0  0  0  0  0  0  0  0  0  0  0
    0.6200   -1.0840   -0.1470 C   0  0  0  0  0  0  0  0  0  0  0  0
    0.0950   -1.2670   -1.4130 C   0  0  0  0  0  0  0  0  0  0  0  0
    0.8780   -1.0990   -2.5170 C   0  0  0  0  0  0  0  0  0  0  0  0
    2.2020   -0.7460   -2.3800 C   0  0  0  0  0  0  0  0  0  0  0  0
    2.7750   -0.5510   -1.1290 C   0  0  0  0  0  0  0  0  0  0  0  0
    4.1460   -0.1860   -1.0220 N   0  0  0  0  0  0  0  0  0  0  0  0
    4.7330    0.0140    0.2760 C   0  0  0  0  0  0  0  0  0  0  0  0
    6.1630    0.3880    0.1970 C   0  0  0  0  0  0  0  0  0  0  0  0
    6.7100    1.4930    0.6510 C   0  0  0  0  0  0  0  0  0  0  0  0
    8.1640    1.5180    0.3930 C   0  0  0  0  0  0  0  0  0  0  0  0
    8.3940    0.2340   -0.2960 C   0  0  0  0  0  0  0  0  0  0  0  0
    7.2300   -0.3960   -0.3960 C   0  0  0  0  0  0  0  0  0  0  0  0
    1.9720   -0.7240   -0.0300 C   0  0  0  0  0  0  0  0  0  0  0  0
  1  2  1  0
  2  3  2  0
  2 13  1  0
  3  4  1  0
  3  5  1  0
  5  6  2  0
  5 10  1  0
  6  7  1  0
  7  8  2  0
  8  9  1  0
  9 10  2  0
 10 11  1  0
 11 12  2  0
 11 13  1  0
 13 14  2  3
 14 15  1  0
 15 16  2  0
 15 17  1  0
 17 18  2  0
 17 29  1  0
 18 19  1  0
 19 20  2  0
 20 21  1  0
 21 22  1  0
 21 29  2  0
 22 23  1  0
 23 24  1  0
 24 25  2  0
 24 28  1  0
 25 26  1  0
 26 27  1  0
 27 28  2  0
M  END
