
     RDKit          3D

 33 36  0  0  0  0  0  0  0  0999 V2000
    8.1700    0.8840   -0.0310 C   0  0  0  0  0  0  0  0  0  0  0  0
    7.2630   -0.0610   -0.7530 C   0  0  0  0  0  0  0  0  0  0  0  0
    6.0310   -0.3030   -0.3430 C   0  0  0  0  0  0  0  0  0  0  0  0
    5.1820   -1.2360   -1.0820 C   0  0  0  0  0  0  0  0  0  0  0  0
    3.9710   -0.6370   -1.5900 N   0  0  0  0  0  0  0  0  0  0  0  0
    3.7230   -0.0330   -2.7560 C   0  0  0  0  0  0  0  0  0  0  0  0
    4.5960    0.1200   -3.6790 O   0  0  0  0  0  0  0  0  0  0  0  0
    2.4720    0.3590   -2.7780 O   0  0  0  0  0  0  0  0  0  0  0  0
    1.8800    0.0280   -1.6500 C   0  0  0  0  0  0  0  0  0  0  0  0
    0.5730    0.2130   -1.1780 C   0  0  0  0  0  0  0  0  0  0  0  0
    0.2050   -0.2390    0.0660 C   0  0  0  0  0  0  0  0  0  0  0  0
   -1.1770   -0.0380    0.5780 C   0  0  1  0  0  0  0  0  0  0  0  0
   -1.4620    1.4240    0.8110 C   0  0  0  0  0  0  0  0  0  0  0  0
   -2.8080    1.4800    1.4210 C   0  0  0  0  0  0  0  0  0  0  0  0
   -3.0020    2.0350    2.5870 C   0  0  0  0  0  0  0  0  0  0  0  0
   -4.3150    2.1130    3.2290 C   0  0  0  0  0  0  0  0  0  0  0  0
   -4.4810    2.6760    4.4010 C   0  0  0  0  0  0  0  0  0  0  0  0
   -3.4290    3.2050    5.0530 F   0  0  0  0  0  0  0  0  0  0  0  0
   -3.8550    0.8940    0.6520 N   0  0  0  0  0  0  0  0  0  0  0  0
   -3.4770   -0.2180   -0.1910 C   0  0  0  0  0  0  0  0  0  0  0  0
   -2.2250   -0.6530   -0.2270 C   0  0  0  0  0  0  0  0  0  0  0  0
   -2.2170   -1.7840   -1.1820 C   0  0  0  0  0  0  0  0  0  0  0  0
   -1.0070   -2.6020   -1.5450 C   0  0  0  0  0  0  0  0  0  0  0  0
   -3.3810   -1.9710   -1.6500 N   0  0  0  0  0  0  0  0  0  0  0  0
   -4.3070   -0.9910   -1.0670 C   0  0  0  0  0  0  0  0  0  0  0  0
   -5.5780   -0.9590   -1.3780 C   0  0  0  0  0  0  0  0  0  0  0  0
   -6.5950   -0.0600   -0.8870 C   0  0  1  0  0  0  0  0  0  0  0  0
   -7.8370   -0.4570   -1.4840 F   0  0  0  0  0  0  0  0  0  0  0  0
   -6.8820   -0.1650    0.4660 F   0  0  0  0  0  0  0  0  0  0  0  0
   -6.4150    1.2790   -1.2380 F   0  0  0  0  0  0  0  0  0  0  0  0
    1.1650   -0.8740    0.8200 C   0  0  0  0  0  0  0  0  0  0  0  0
    2.4580   -1.0650    0.3720 C   0  0  0  0  0  0  0  0  0  0  0  0
    2.8220   -0.6030   -0.8910 C   0  0  0  0  0  0  0  0  0  0  0  0
  1  2  1  0
  2  3  2  3
  3  4  1  0
  4  5  1  0
  5  6  1  0
  5 33  1  0
  6  7  2  0
  6  8  1  0
  8  9  1  0
  9 10  2  0
  9 33  1  0
 10 11  1  0
 12 11  1  6
 11 31  2  0
 12 13  1  0
 12 21  1  0
 13 14  1  0
 14 15  2  3
 14 19  1  0
 15 16  1  0
 16 17  2  3
 17 18  1  0
 19 20  1  0
 20 21  2  0
 20 25  1  0
 21 22  1  0
 22 23  1  0
 22 24  2  0
 24 25  1  0
 25 26  2  3
 26 27  1  0
 27 28  1  6
 27 29  1  0
 27 30  1  0
 31 32  1  0
 32 33  2  0
M  END
