
     RDKit          3D

 32 35  0  0  0  0  0  0  0  0999 V2000
   -6.1500   -3.5490   -0.7830 C   0  0  0  0  0  0  0  0  0  0  0  0
   -5.5160   -2.3670   -0.1370 C   0  0  0  0  0  0  0  0  0  0  0  0
   -4.5080   -1.7200   -1.1450 C   0  0  0  0  0  0  0  0  0  0  0  0
   -3.7810   -0.4980   -0.6280 S   0  0  0  0  0  0  0  0  0  0  0  0
   -5.1180    0.2700   -0.0720 C   0  0  0  0  0  0  0  0  0  0  0  0
   -3.0440   -1.5560    0.5800 N   0  0  0  0  0  0  0  0  0  0  0  0
   -2.7770    0.7380   -0.3950 C   0  0  0  0  0  0  0  0  0  0  0  0
   -1.6070    0.7510    0.3210 C   0  0  0  0  0  0  0  0  0  0  0  0
   -0.7930    1.8260    0.4770 C   0  0  0  0  0  0  0  0  0  0  0  0
    0.4160    1.9940    1.1650 C   0  0  0  0  0  0  0  0  0  0  0  0
    1.1230    0.9330    1.9020 C   0  0  0  0  0  0  0  0  0  0  0  0
    1.8950    0.0300    0.9990 C   0  0  0  0  0  0  0  0  0  0  0  0
    1.2850   -0.6970    0.1990 O   0  0  0  0  0  0  0  0  0  0  0  0
    3.3170    0.0080    1.0550 N   0  0  0  0  0  0  0  0  0  0  0  0
    4.1770   -0.7830    0.2780 C   0  0  0  0  0  0  0  0  0  0  0  0
    3.7170   -1.6640   -0.6520 C   0  0  0  0  0  0  0  0  0  0  0  0
    4.5920   -2.4560   -1.4240 C   0  0  0  0  0  0  0  0  0  0  0  0
    5.9310   -2.3550   -1.2530 C   0  0  0  0  0  0  0  0  0  0  0  0
    7.0160   -3.3320   -2.2030 Cl  0  0  0  0  0  0  0  0  0  0  0  0
    6.4200   -1.4760   -0.3240 C   0  0  0  0  0  0  0  0  0  0  0  0
    7.7870   -1.3780   -0.1600 C   0  0  0  0  0  0  0  0  0  0  0  0
    8.3300   -0.5220    0.7420 C   0  0  0  0  0  0  0  0  0  0  0  0
    7.5220    0.2570    1.5040 C   0  0  0  0  0  0  0  0  0  0  0  0
    6.1520    0.1580    1.3390 C   0  0  0  0  0  0  0  0  0  0  0  0
    5.5420   -0.6970    0.4340 C   0  0  0  0  0  0  0  0  0  0  0  0
    0.7700    3.2940    0.9680 C   0  0  0  0  0  0  0  0  0  0  0  0
   -0.1670    3.8560    0.2120 N   0  0  0  0  0  0  0  0  0  0  0  0
   -1.1480    2.9910   -0.1140 C   0  0  0  0  0  0  0  0  0  0  0  0
   -2.2890    3.1110   -0.8550 C   0  0  0  0  0  0  0  0  0  0  0  0
   -2.5960    4.4200   -1.4660 C   0  0  0  0  0  0  0  0  0  0  0  0
   -3.0530    1.9910   -0.9670 C   0  0  0  0  0  0  0  0  0  0  0  0
   -4.5180    2.1410   -1.9590 Cl  0  0  0  0  0  0  0  0  0  0  0  0
  1  2  1  0
  2  3  1  0
  3  4  1  0
  4  5  1  0
  4  6  2  0
  4  7  1  0
  7  8  2  0
  7 31  1  0
  8  9  1  0
  9 10  1  0
  9 28  2  0
 10 11  1  0
 10 26  2  0
 11 12  1  0
 12 13  2  0
 12 14  1  0
 14 15  1  0
 15 16  2  0
 15 25  1  0
 16 17  1  0
 17 18  2  0
 18 19  1  0
 18 20  1  0
 20 21  2  0
 20 25  1  0
 21 22  1  0
 22 23  2  0
 23 24  1  0
 24 25  2  0
 26 27  1  0
 27 28  1  0
 28 29  1  0
 29 30  1  0
 29 31  2  0
 31 32  1  0
M  CHG  1   6   1
M  END
