
     RDKit          3D

 33 36  0  0  0  0  0  0  0  0999 V2000
   -5.9850    3.1110   -1.7390 C   0  0  0  0  0  0  0  0  0  0  0  0
   -6.3000    2.4690   -0.4050 C   0  0  0  0  0  0  0  0  0  0  0  0
   -6.0750    1.0500   -0.4950 N   0  0  0  0  0  0  0  0  0  0  0  0
   -7.0770    0.1130   -0.8850 C   0  0  0  0  0  0  0  0  0  0  0  0
   -8.0000    0.4920   -1.6300 O   0  0  0  0  0  0  0  0  0  0  0  0
   -6.9100   -1.2600   -0.3440 C   0  0  0  0  0  0  0  0  0  0  0  0
   -5.5450   -1.7500   -0.7380 C   0  0  0  0  0  0  0  0  0  0  0  0
   -4.5110   -0.8040   -0.2720 C   0  0  0  0  0  0  0  0  0  0  0  0
   -3.2250   -1.2580    0.0680 C   0  0  0  0  0  0  0  0  0  0  0  0
   -2.2270   -0.4330    0.4760 C   0  0  0  0  0  0  0  0  0  0  0  0
   -0.9430   -0.8800    0.8060 N   0  0  0  0  0  0  0  0  0  0  0  0
   -0.3620   -2.1400    0.6740 C   0  0  0  0  0  0  0  0  0  0  0  0
   -1.1070   -3.0490    0.1710 O   0  0  0  0  0  0  0  0  0  0  0  0
    0.9990   -2.5540    1.0410 C   0  0  2  0  0  0  0  0  0  0  0  0
    1.6840   -2.0810    2.2780 C   0  0  0  0  0  0  0  0  0  0  0  0
    2.2070   -1.7510    0.8750 C   0  0  2  0  0  0  0  0  0  0  0  0
    2.2830   -0.2880    0.6210 C   0  0  0  0  0  0  0  0  0  0  0  0
    3.7460    0.0990    0.5010 C   0  0  0  0  0  0  0  0  0  0  0  0
    4.4720    0.4750    1.5990 C   0  0  0  0  0  0  0  0  0  0  0  0
    5.7900    0.8230    1.4740 C   0  0  0  0  0  0  0  0  0  0  0  0
    6.4150    0.7950    0.2030 C   0  0  0  0  0  0  0  0  0  0  0  0
    7.8330    1.2160    0.1900 C   0  0  2  0  0  0  0  0  0  0  0  0
    7.9750    2.2680   -0.6860 F   0  0  0  0  0  0  0  0  0  0  0  0
    8.7460    0.2230    0.1520 F   0  0  0  0  0  0  0  0  0  0  0  0
    8.0820    1.8680    1.4470 F   0  0  0  0  0  0  0  0  0  0  0  0
    5.7420    0.4290   -0.9170 C   0  0  0  0  0  0  0  0  0  0  0  0
    6.2470    0.3020   -2.2350 C   0  0  0  0  0  0  0  0  0  0  0  0
    7.3690    0.2690   -2.8270 C   0  0  0  0  0  0  0  0  0  0  0  0
    8.6450    0.3370   -2.4760 F   0  0  0  0  0  0  0  0  0  0  0  0
    4.3750    0.0820   -0.7070 C   0  0  0  0  0  0  0  0  0  0  0  0
   -2.5610    0.9280    0.5410 C   0  0  0  0  0  0  0  0  0  0  0  0
   -3.7880    1.3610    0.2170 N   0  0  0  0  0  0  0  0  0  0  0  0
   -4.7870    0.5340   -0.1920 C   0  0  0  0  0  0  0  0  0  0  0  0
  1  2  1  0
  2  3  1  0
  3  4  1  0
  3 33  1  0
  4  5  2  0
  4  6  1  0
  6  7  1  0
  7  8  1  0
  8  9  2  0
  8 33  1  0
  9 10  1  0
 10 11  1  0
 10 31  2  0
 11 12  1  0
 12 13  2  0
 14 12  1  6
 14 15  1  0
 14 16  1  0
 15 16  1  0
 16 17  1  6
 17 18  1  0
 18 19  2  0
 18 30  1  0
 19 20  1  0
 20 21  2  0
 21 22  1  0
 21 26  1  0
 22 23  1  6
 22 24  1  0
 22 25  1  0
 26 27  1  0
 26 30  2  0
 27 28  2  3
 28 29  1  0
 31 32  1  0
 32 33  2  0
M  END
