
     RDKit          3D

 33 36  0  0  0  0  0  0  0  0999 V2000
   -1.8720   -0.9270    2.9960 C   0  0  0  0  0  0  0  0  0  0  0  0
   -1.9080   -1.9710    2.2420 C   0  0  0  0  0  0  0  0  0  0  0  0
   -2.3180   -3.1430    2.8010 F   0  0  0  0  0  0  0  0  0  0  0  0
   -1.5900   -1.9020    0.8290 C   0  0  0  0  0  0  0  0  0  0  0  0
   -1.6170   -3.0440    0.1660 C   0  0  0  0  0  0  0  0  0  0  0  0
   -1.9180   -4.3860    0.6560 C   0  0  1  0  0  0  0  0  0  0  0  0
   -1.6280   -5.3330   -0.3610 F   0  0  0  0  0  0  0  0  0  0  0  0
   -1.1110   -4.8230    1.6960 F   0  0  0  0  0  0  0  0  0  0  0  0
   -3.2190   -4.6260    0.9880 F   0  0  0  0  0  0  0  0  0  0  0  0
   -1.2550   -0.7390    0.0310 C   0  0  1  0  0  0  0  0  0  0  0  0
   -2.3630    0.3060    0.1190 C   0  0  2  0  0  0  0  0  0  0  0  0
   -3.6740   -0.2590   -0.3990 C   0  0  0  0  0  0  0  0  0  0  0  0
   -4.3240    0.8470   -1.1830 C   0  0  0  0  0  0  0  0  0  0  0  0
   -3.1220    1.4740   -1.8620 C   0  0  0  0  0  0  0  0  0  0  0  0
   -2.0630    1.4960   -0.7590 C   0  0  0  0  0  0  0  0  0  0  0  0
    0.0780   -0.2150    0.0440 N   0  0  0  0  0  0  0  0  0  0  0  0
    0.6830    0.4420    1.1610 C   0  0  0  0  0  0  0  0  0  0  0  0
    0.2660    1.8780    1.2880 C   0  0  0  0  0  0  0  0  0  0  0  0
    0.7560    2.9340    0.4980 C   0  0  0  0  0  0  0  0  0  0  0  0
    0.1610    4.0900    0.8880 C   0  0  0  0  0  0  0  0  0  0  0  0
   -0.6970    3.7350    1.9210 C   0  0  0  0  0  0  0  0  0  0  0  0
   -0.5850    2.4530    2.0940 O   0  0  0  0  0  0  0  0  0  0  0  0
    0.7370   -0.2610   -1.2060 C   0  0  0  0  0  0  0  0  0  0  0  0
    0.0230   -0.6460   -2.2500 O   0  0  0  0  0  0  0  0  0  0  0  0
    2.0720    0.0680   -1.5240 C   0  0  0  0  0  0  0  0  0  0  0  0
    2.6560   -1.0010   -0.3020 C   0  0  0  0  0  0  0  0  0  0  0  0
    3.9230   -1.1470   -0.0850 C   0  0  0  0  0  0  0  0  0  0  0  0
    4.9700   -0.5300   -0.7360 C   0  0  0  0  0  0  0  0  0  0  0  0
    6.2600   -0.4880   -0.7220 N   0  0  0  0  0  0  0  0  0  0  0  0
    6.6590    0.3830   -1.6760 C   0  0  0  0  0  0  0  0  0  0  0  0
    5.5500    0.9080   -2.3160 C   0  0  0  0  0  0  0  0  0  0  0  0
    4.4680    0.3490   -1.7400 C   0  0  0  0  0  0  0  0  0  0  0  0
    3.1870    0.3440   -1.7840 N   0  0  0  0  0  0  0  0  0  0  0  0
  1  2  2  0
  2  3  1  0
  2  4  1  0
  4  5  2  3
  4 10  1  0
  5  6  1  0
  6  7  1  6
  6  8  1  0
  6  9  1  0
 10 11  1  0
 10 16  1  1
 11 12  1  6
 11 15  1  0
 12 13  1  0
 13 14  1  0
 14 15  1  0
 16 17  1  0
 16 23  1  0
 17 18  1  0
 18 19  2  0
 18 22  1  0
 19 20  1  0
 20 21  2  0
 21 22  1  0
 23 24  2  0
 23 25  1  0
 25 26  2  0
 25 33  1  0
 26 27  1  0
 27 28  2  0
 28 29  1  0
 28 32  1  0
 29 30  1  0
 30 31  2  0
 31 32  1  0
 32 33  2  0
M  END
