
     RDKit          3D

 33 36  0  0  0  0  0  0  0  0999 V2000
   -8.8750    0.2560   -0.6270 C   0  0  0  0  0  0  0  0  0  0  0  0
   -7.4600   -0.0380   -0.3340 C   0  0  0  0  0  0  0  0  0  0  0  0
   -7.0010   -1.3450   -0.1450 C   0  0  0  0  0  0  0  0  0  0  0  0
   -5.6790   -1.5910    0.1330 C   0  0  0  0  0  0  0  0  0  0  0  0
   -4.7770   -0.5400    0.2300 C   0  0  0  0  0  0  0  0  0  0  0  0
   -3.4150   -0.7250    0.5160 N   0  0  0  0  0  0  0  0  0  0  0  0
   -2.7790   -0.6010    1.8220 C   0  0  0  0  0  0  0  0  0  0  0  0
   -1.4730    0.0960    1.4560 C   0  0  0  0  0  0  0  0  0  0  0  0
   -1.0960   -0.6090    0.1420 C   0  0  2  0  0  0  0  0  0  0  0  0
   -0.4920    0.4000   -0.6810 O   0  0  0  0  0  0  0  0  0  0  0  0
    0.8980    0.3980   -0.7500 C   0  0  0  0  0  0  0  0  0  0  0  0
    1.5670    1.3410   -1.5370 C   0  0  0  0  0  0  0  0  0  0  0  0
    2.9470    1.3480   -1.6050 C   0  0  0  0  0  0  0  0  0  0  0  0
    3.6690    0.4200   -0.8940 C   0  0  0  0  0  0  0  0  0  0  0  0
    5.0610    0.3820   -0.9120 C   0  0  0  0  0  0  0  0  0  0  0  0
    5.8110   -0.5150   -0.2120 C   0  0  0  0  0  0  0  0  0  0  0  0
    7.2180   -0.5740   -0.2210 N   0  0  0  0  0  0  0  0  0  0  0  0
    8.0100    0.4190   -0.9030 C   0  0  0  0  0  0  0  0  0  0  0  0
    7.9290    1.7100   -0.0910 C   0  0  0  0  0  0  0  0  0  0  0  0
    8.6640    2.7150   -0.6910 F   0  0  0  0  0  0  0  0  0  0  0  0
    5.1090   -1.4490    0.5660 C   0  0  0  0  0  0  0  0  0  0  0  0
    5.8300   -2.4510    1.3490 C   0  0  1  0  0  0  0  0  0  0  0  0
    6.6830   -1.9020    2.2820 F   0  0  0  0  0  0  0  0  0  0  0  0
    4.9030   -3.2940    1.9490 F   0  0  0  0  0  0  0  0  0  0  0  0
    6.5620   -3.2550    0.5000 F   0  0  0  0  0  0  0  0  0  0  0  0
    3.7300   -1.4360    0.6030 C   0  0  0  0  0  0  0  0  0  0  0  0
    3.0100   -0.5100   -0.1200 C   0  0  0  0  0  0  0  0  0  0  0  0
    1.6640   -0.4750   -0.0860 N   0  0  0  0  0  0  0  0  0  0  0  0
   -2.3800   -1.0500   -0.3900 C   0  0  0  0  0  0  0  0  0  0  0  0
   -2.5740   -1.6370   -1.4920 O   0  0  0  0  0  0  0  0  0  0  0  0
   -5.2800    0.7480    0.0330 C   0  0  0  0  0  0  0  0  0  0  0  0
   -6.5910    1.0300   -0.2450 C   0  0  0  0  0  0  0  0  0  0  0  0
   -7.0570    2.4470   -0.4420 C   0  0  0  0  0  0  0  0  0  0  0  0
  1  2  1  0
  2  3  2  0
  2 32  1  0
  3  4  1  0
  4  5  2  0
  5  6  1  0
  5 31  1  0
  6  7  1  0
  6 29  1  0
  7  8  1  0
  8  9  1  0
  9 10  1  6
  9 29  1  0
 10 11  1  0
 11 12  2  0
 11 28  1  0
 12 13  1  0
 13 14  2  0
 14 15  1  0
 14 27  1  0
 15 16  2  0
 16 17  1  0
 16 21  1  0
 17 18  1  0
 18 19  1  0
 19 20  1  0
 21 22  1  0
 21 26  2  0
 22 23  1  1
 22 24  1  0
 22 25  1  0
 26 27  1  0
 27 28  2  0
 29 30  2  0
 31 32  2  0
 32 33  1  0
M  END
