
     RDKit          3D

 32 35  0  0  0  0  0  0  0  0999 V2000
   -2.2320    2.1880   -2.4350 C   0  0  0  0  0  0  0  0  0  0  0  0
   -2.0920    1.4580   -1.0760 C   0  0  1  0  0  0  0  0  0  0  0  0
   -2.6190    2.3160    0.0140 C   0  0  0  0  0  0  0  0  0  0  0  0
   -2.5940    0.0950   -1.1770 C   0  0  0  0  0  0  0  0  0  0  0  0
   -3.3210   -0.2850   -2.3220 C   0  0  0  0  0  0  0  0  0  0  0  0
   -3.8100   -1.5480   -2.5190 C   0  0  0  0  0  0  0  0  0  0  0  0
   -3.5670   -2.4830   -1.5330 C   0  0  0  0  0  0  0  0  0  0  0  0
   -2.8620   -2.1610   -0.3950 C   0  0  0  0  0  0  0  0  0  0  0  0
   -2.3740   -0.8470   -0.2290 C   0  0  0  0  0  0  0  0  0  0  0  0
   -1.6770   -0.5490    0.9660 N   0  0  0  0  0  0  0  0  0  0  0  0
   -2.2640    0.0130    2.1590 C   0  0  0  0  0  0  0  0  0  0  0  0
   -2.2350   -0.9930    3.3060 C   0  0  0  0  0  0  0  0  0  0  0  0
   -2.8060   -0.4430    4.4520 O   0  0  0  0  0  0  0  0  0  0  0  0
   -0.2600   -0.8140    1.0100 C   0  0  0  0  0  0  0  0  0  0  0  0
    0.5800   -0.0320    1.5830 N   0  0  0  0  0  0  0  0  0  0  0  0
    2.0010   -0.2090    1.6830 C   0  0  2  0  0  0  0  0  0  0  0  0
    2.7870    0.9540    1.4070 N   0  0  0  0  0  0  0  0  0  0  0  0
    2.8130    1.6080    0.1710 C   0  0  0  0  0  0  0  0  0  0  0  0
    2.1060    1.2030   -0.9240 C   0  0  0  0  0  0  0  0  0  0  0  0
    2.1480    1.8690   -2.1400 C   0  0  0  0  0  0  0  0  0  0  0  0
    1.2190    1.3030   -3.5190 Cl  0  0  0  0  0  0  0  0  0  0  0  0
    2.9260    2.9990   -2.3010 C   0  0  0  0  0  0  0  0  0  0  0  0
    3.6380    3.4080   -1.2030 C   0  0  0  0  0  0  0  0  0  0  0  0
    3.6000    2.7510    0.0060 C   0  0  0  0  0  0  0  0  0  0  0  0
    4.5210    3.3070    1.3710 Cl  0  0  0  0  0  0  0  0  0  0  0  0
    2.5130   -1.3910    0.9590 C   0  0  0  0  0  0  0  0  0  0  0  0
    3.9020   -1.6020    0.9570 C   0  0  0  0  0  0  0  0  0  0  0  0
    4.3700   -2.7070    0.3080 C   0  0  0  0  0  0  0  0  0  0  0  0
    3.5050   -3.5970   -0.3310 C   0  0  0  0  0  0  0  0  0  0  0  0
    2.1520   -3.3670   -0.3140 C   0  0  0  0  0  0  0  0  0  0  0  0
    1.6500   -2.2470    0.3400 C   0  0  0  0  0  0  0  0  0  0  0  0
    0.2540   -1.9750    0.3550 N   0  0  0  0  0  0  0  0  0  0  0  0
  2  1  1  6
  2  3  1  0
  2  4  1  0
  4  5  2  0
  4  9  1  0
  5  6  1  0
  6  7  2  0
  7  8  1  0
  8  9  2  0
  9 10  1  0
 10 11  1  0
 10 14  1  0
 11 12  1  0
 12 13  1  0
 14 15  2  0
 14 32  1  0
 15 16  1  0
 16 17  1  6
 16 26  1  0
 17 18  1  0
 18 19  2  0
 18 24  1  0
 19 20  1  0
 20 21  1  0
 20 22  2  0
 22 23  1  0
 23 24  2  0
 24 25  1  0
 26 27  2  0
 26 31  1  0
 27 28  1  0
 28 29  2  0
 29 30  1  0
 30 31  2  0
 31 32  1  0
M  CHG  1  15   1
M  END
