
     RDKit          3D

 33 36  0  0  0  0  0  0  0  0999 V2000
   -0.6230    3.7210    0.7080 C   0  0  0  0  0  0  0  0  0  0  0  0
   -0.8450    2.3360    0.5260 O   0  0  0  0  0  0  0  0  0  0  0  0
    0.2940    1.5280    0.4250 C   0  0  0  0  0  0  0  0  0  0  0  0
    1.5740    2.0200    0.4970 C   0  0  0  0  0  0  0  0  0  0  0  0
    2.6870    1.2140    0.3950 C   0  0  0  0  0  0  0  0  0  0  0  0
    2.5390   -0.1330    0.2160 C   0  0  0  0  0  0  0  0  0  0  0  0
    1.2620   -0.6710    0.1370 C   0  0  0  0  0  0  0  0  0  0  0  0
    0.1460    0.1520    0.2420 C   0  0  0  0  0  0  0  0  0  0  0  0
   -1.1780   -0.3430    0.1630 N   0  0  0  0  0  0  0  0  0  0  0  0
   -1.8720   -1.0420    1.2070 C   0  0  0  0  0  0  0  0  0  0  0  0
   -3.2800   -1.1870    0.6970 C   0  0  0  0  0  0  0  0  0  0  0  0
   -4.4230   -1.6750    1.2730 C   0  0  0  0  0  0  0  0  0  0  0  0
   -5.6200   -1.7400    0.5920 C   0  0  0  0  0  0  0  0  0  0  0  0
   -5.7300   -1.3120   -0.7230 C   0  0  0  0  0  0  0  0  0  0  0  0
   -6.9360   -1.3050   -1.4530 N   0  0  0  0  0  0  0  0  0  0  0  0
   -8.2090   -1.2700   -0.7320 C   0  0  0  0  0  0  0  0  0  0  0  0
   -8.2500    0.0310    0.0950 C   0  0  2  0  0  0  0  0  0  0  0  0
   -9.4230    0.1340    0.7990 F   0  0  0  0  0  0  0  0  0  0  0  0
   -8.1320    1.0840   -0.7760 F   0  0  0  0  0  0  0  0  0  0  0  0
   -4.5580   -0.8160   -1.3030 C   0  0  0  0  0  0  0  0  0  0  0  0
   -3.3720   -0.7560   -0.6060 C   0  0  0  0  0  0  0  0  0  0  0  0
   -2.0670   -0.2280   -0.9650 C   0  0  0  0  0  0  0  0  0  0  0  0
   -1.7650    0.2560   -2.0990 O   0  0  0  0  0  0  0  0  0  0  0  0
    3.7160   -1.0660    0.0830 C   0  0  0  0  0  0  0  0  0  0  0  0
    4.9270   -0.4360    0.5170 N   0  0  0  0  0  0  0  0  0  0  0  0
    6.1670   -1.0670    0.2470 C   0  0  0  0  0  0  0  0  0  0  0  0
    7.1770   -0.4240   -0.3160 C   0  0  0  0  0  0  0  0  0  0  0  0
    8.4640   -1.0170   -0.6140 C   0  0  0  0  0  0  0  0  0  0  0  0
    9.4390   -0.3300   -1.1780 C   0  0  0  0  0  0  0  0  0  0  0  0
   10.6430   -0.9250   -1.4440 F   0  0  0  0  0  0  0  0  0  0  0  0
    9.2870    0.9570   -1.5040 F   0  0  0  0  0  0  0  0  0  0  0  0
    4.9430    0.8290    1.2190 C   0  0  0  0  0  0  0  0  0  0  0  0
    4.0450    1.7960    0.4840 C   0  0  0  0  0  0  0  0  0  0  0  0
  1  2  1  0
  2  3  1  0
  3  4  2  0
  3  8  1  0
  4  5  1  0
  5  6  2  0
  5 33  1  0
  6  7  1  0
  6 24  1  0
  7  8  2  0
  8  9  1  0
  9 10  1  0
  9 22  1  0
 10 11  1  0
 11 12  2  0
 11 21  1  0
 12 13  1  0
 13 14  2  0
 14 15  1  0
 14 20  1  0
 15 16  1  0
 16 17  1  0
 17 18  1  6
 17 19  1  0
 20 21  2  0
 21 22  1  0
 22 23  2  0
 24 25  1  0
 25 26  1  0
 25 32  1  0
 26 27  2  3
 27 28  1  0
 28 29  2  3
 29 30  1  0
 29 31  1  0
 32 33  1  0
M  END
