
     RDKit          3D

 32 35  0  0  0  0  0  0  0  0999 V2000
   -0.9220   -3.9760    0.5070 C   0  0  0  0  0  0  0  0  0  0  0  0
   -0.2140   -2.7370    1.0730 C   0  0  0  0  0  0  0  0  0  0  0  0
   -0.6590   -1.5150    0.3740 C   0  0  0  0  0  0  0  0  0  0  0  0
   -1.8660   -0.8770    0.5720 C   0  0  0  0  0  0  0  0  0  0  0  0
   -1.9590    0.2200   -0.2360 C   0  0  0  0  0  0  0  0  0  0  0  0
   -0.7800    0.2550   -0.9470 C   0  0  0  0  0  0  0  0  0  0  0  0
   -0.0010   -0.8020   -0.5680 N   0  0  0  0  0  0  0  0  0  0  0  0
    1.3080   -1.1300   -1.0770 C   0  0  0  0  0  0  0  0  0  0  0  0
    2.4150   -0.4750   -0.2800 C   0  0  0  0  0  0  0  0  0  0  0  0
    3.6870   -0.8180   -0.7920 O   0  0  0  0  0  0  0  0  0  0  0  0
    4.8820   -0.3640   -0.2580 C   0  0  0  0  0  0  0  0  0  0  0  0
    6.0950   -0.7340   -0.7990 C   0  0  0  0  0  0  0  0  0  0  0  0
    7.3050   -0.2850   -0.2700 C   0  0  0  0  0  0  0  0  0  0  0  0
    7.3070    0.5510    0.8200 C   0  0  0  0  0  0  0  0  0  0  0  0
    8.4820    1.0050    1.3570 O   0  0  0  0  0  0  0  0  0  0  0  0
    9.7100    0.6120    0.7900 C   0  0  0  0  0  0  0  0  0  0  0  0
    6.1050    0.9240    1.3640 C   0  0  0  0  0  0  0  0  0  0  0  0
    4.8910    0.4760    0.8380 C   0  0  0  0  0  0  0  0  0  0  0  0
   -0.6070    1.3630   -1.9110 C   0  0  0  0  0  0  0  0  0  0  0  0
   -1.8410    1.6420   -2.7060 C   0  0  0  0  0  0  0  0  0  0  0  0
   -3.1280    1.3060   -2.0270 C   0  0  0  0  0  0  0  0  0  0  0  0
   -2.9510    1.2800   -0.5000 C   0  0  1  0  0  0  0  0  0  0  0  0
   -4.2110    1.0720    0.1000 N   0  0  0  0  0  0  0  0  0  0  0  0
   -4.7310    2.0500    0.9700 C   0  0  0  0  0  0  0  0  0  0  0  0
   -5.0940    3.3020    0.2060 C   0  0  1  0  0  0  0  0  0  0  0  0
   -5.6160    4.2630    1.0710 F   0  0  0  0  0  0  0  0  0  0  0  0
   -4.0100    3.9060   -0.3960 F   0  0  0  0  0  0  0  0  0  0  0  0
   -6.0150    2.9950   -0.7850 F   0  0  0  0  0  0  0  0  0  0  0  0
   -4.6600   -0.2640    0.2550 C   0  0  2  0  0  0  0  0  0  0  0  0
   -6.1270   -0.4810   -0.0270 C   0  0  0  0  0  0  0  0  0  0  0  0
   -4.2500   -0.8520    1.6020 C   0  0  0  0  0  0  0  0  0  0  0  0
   -2.8780   -1.3100    1.5030 N   0  0  0  0  0  0  0  0  0  0  0  0
  1  2  1  0
  2  3  1  0
  3  4  2  0
  3  7  1  0
  4  5  1  0
  4 32  1  0
  5  6  2  0
  5 22  1  0
  6  7  1  0
  6 19  1  0
  7  8  1  0
  8  9  1  0
  9 10  1  0
 10 11  1  0
 11 12  2  0
 11 18  1  0
 12 13  1  0
 13 14  2  0
 14 15  1  0
 14 17  1  0
 15 16  1  0
 17 18  2  0
 19 20  1  0
 20 21  1  0
 22 21  1  6
 22 23  1  0
 23 24  1  0
 23 29  1  0
 24 25  1  0
 25 26  1  1
 25 27  1  0
 25 28  1  0
 29 30  1  1
 29 31  1  0
 31 32  1  0
M  END
