
     RDKit          3D

 40 44  0  0  0  0  0  0  0  0999 V2000
   -7.5500    0.5370    0.7120 C   0  0  0  0  0  0  0  0  0  0  0  0
   -6.1640    0.2780    0.1090 C   0  0  0  0  0  0  0  0  0  0  0  0
   -6.0690   -1.2170   -0.0990 C   0  0  2  0  0  0  0  0  0  0  0  0
   -6.2180   -1.9650    1.1900 C   0  0  0  0  0  0  0  0  0  0  0  0
   -6.9630   -3.1350    1.0660 O   0  0  0  0  0  0  0  0  0  0  0  0
   -6.1860   -4.2020    0.6250 C   0  0  0  0  0  0  0  0  0  0  0  0
   -5.6410   -3.9230   -0.7770 C   0  0  0  0  0  0  0  0  0  0  0  0
   -4.4450   -3.0430   -0.6230 C   0  0  0  0  0  0  0  0  0  0  0  0
   -4.7640   -1.5680   -0.7330 C   0  0  2  0  0  0  0  0  0  0  0  0
   -3.6600   -0.8410   -0.1330 N   0  0  0  0  0  0  0  0  0  0  0  0
   -2.7960    0.0130   -0.8740 C   0  0  0  0  0  0  0  0  0  0  0  0
   -2.9890    0.1510   -2.1060 O   0  0  0  0  0  0  0  0  0  0  0  0
   -1.7190    0.7220   -0.2880 N   0  0  0  0  0  0  0  0  0  0  0  0
   -0.8370    1.5930   -1.0410 C   0  0  2  0  0  0  0  0  0  0  0  0
    0.5470    1.0900   -0.9540 C   0  0  0  0  0  0  0  0  0  0  0  0
    1.2160    0.6500    0.1320 N   0  0  0  0  0  0  0  0  0  0  0  0
    2.4300    0.2890   -0.2160 N   0  0  0  0  0  0  0  0  0  0  0  0
    2.5740    0.4880   -1.5430 C   0  0  0  0  0  0  0  0  0  0  0  0
    3.6180    0.2570   -2.2710 N   0  0  0  0  0  0  0  0  0  0  0  0
    4.7910   -0.2650   -1.6890 C   0  0  0  0  0  0  0  0  0  0  0  0
    5.7780    0.4970   -1.1040 C   0  0  0  0  0  0  0  0  0  0  0  0
    6.9200   -0.0680   -0.5420 C   0  0  0  0  0  0  0  0  0  0  0  0
    7.0940   -1.4310   -0.5590 C   0  0  0  0  0  0  0  0  0  0  0  0
    8.2060   -2.0480   -0.0170 O   0  0  0  0  0  0  0  0  0  0  0  0
    9.2440   -1.3320    0.5920 C   0  0  0  0  0  0  0  0  0  0  0  0
   10.3060   -2.2990    1.0790 C   0  0  1  0  0  0  0  0  0  0  0  0
    9.8720   -3.3190    2.0800 C   0  0  0  0  0  0  0  0  0  0  0  0
   10.1110   -3.7640    0.6550 C   0  0  0  0  0  0  0  0  0  0  0  0
    6.1070   -2.2030   -1.1450 C   0  0  0  0  0  0  0  0  0  0  0  0
    4.9860   -1.6450   -1.6960 C   0  0  0  0  0  0  0  0  0  0  0  0
    1.4020    0.9810   -1.9770 N   0  0  0  0  0  0  0  0  0  0  0  0
   -0.8890    2.9880   -0.5700 C   0  0  0  0  0  0  0  0  0  0  0  0
    0.2200    3.7780   -0.3690 C   0  0  0  0  0  0  0  0  0  0  0  0
   -0.2130    5.0160    0.0710 C   0  0  0  0  0  0  0  0  0  0  0  0
   -1.5860    4.9200    0.1180 C   0  0  0  0  0  0  0  0  0  0  0  0
   -2.4530    6.0330    0.5410 C   0  0  0  0  0  0  0  0  0  0  0  0
   -1.9820    7.1450    0.8870 O   0  0  0  0  0  0  0  0  0  0  0  0
   -3.8340    5.8940    0.5750 O   0  0  0  0  0  0  0  0  0  0  0  0
   -4.6560    6.9900    0.9890 C   0  0  0  0  0  0  0  0  0  0  0  0
   -1.9310    3.7290   -0.2610 O   0  0  0  0  0  0  0  0  0  0  0  0
  1  2  1  0
  3  2  1  1
  3  4  1  0
  3  9  1  0
  4  5  1  0
  5  6  1  0
  6  7  1  0
  7  8  1  0
  8  9  1  0
  9 10  1  1
 10 11  1  0
 11 12  2  0
 11 13  1  0
 14 13  1  1
 14 15  1  0
 14 32  1  0
 15 16  2  0
 15 31  1  0
 16 17  1  0
 17 18  1  0
 18 19  2  3
 18 31  1  0
 19 20  1  0
 20 21  2  0
 20 30  1  0
 21 22  1  0
 22 23  2  0
 23 24  1  0
 23 29  1  0
 24 25  1  0
 26 25  1  6
 26 27  1  0
 26 28  1  0
 27 28  1  0
 29 30  2  0
 32 33  2  0
 32 40  1  0
 33 34  1  0
 34 35  2  0
 35 36  1  0
 35 40  1  0
 36 37  2  0
 36 38  1  0
 38 39  1  0
M  END
