
     RDKit          3D

 41 45  0  0  0  0  0  0  0  0999 V2000
    9.5310   -0.5070    3.3980 C   0  0  0  0  0  0  0  0  0  0  0  0
    8.6830   -0.2320    2.2520 N   0  0  0  0  0  0  0  0  0  0  0  0
    9.0480   -0.7490    1.0000 C   0  0  0  0  0  0  0  0  0  0  0  0
   10.0850   -1.4310    0.8890 O   0  0  0  0  0  0  0  0  0  0  0  0
    8.2360   -0.5210   -0.2540 C   0  0  2  0  0  0  0  0  0  0  0  0
    9.1530    0.1090   -1.2970 C   0  0  0  0  0  0  0  0  0  0  0  0
    9.6960    1.3980   -0.8200 C   0  0  0  0  0  0  0  0  0  0  0  0
    9.3770    1.8190    0.3180 O   0  0  0  0  0  0  0  0  0  0  0  0
   10.5520    2.1610   -1.5940 O   0  0  0  0  0  0  0  0  0  0  0  0
    7.1230    0.2420    0.0120 O   0  0  0  0  0  0  0  0  0  0  0  0
    5.7720   -0.1190   -0.1360 C   0  0  0  0  0  0  0  0  0  0  0  0
    5.3730   -1.3470   -0.5920 C   0  0  0  0  0  0  0  0  0  0  0  0
    4.0180   -1.6220   -0.7080 C   0  0  0  0  0  0  0  0  0  0  0  0
    3.0510   -0.7140   -0.3860 C   0  0  0  0  0  0  0  0  0  0  0  0
    1.6620   -1.0350   -0.5220 C   0  0  0  0  0  0  0  0  0  0  0  0
    1.3150   -2.1900   -0.9590 O   0  0  0  0  0  0  0  0  0  0  0  0
    0.5760   -0.1720   -0.2130 N   0  0  0  0  0  0  0  0  0  0  0  0
   -0.7900   -0.5550   -0.3780 C   0  0  0  0  0  0  0  0  0  0  0  0
   -1.0150   -1.7120   -0.8150 O   0  0  0  0  0  0  0  0  0  0  0  0
   -1.9100    0.3950   -0.0390 C   0  0  1  0  0  0  0  0  0  0  0  0
   -1.7680    1.6840   -0.7420 C   0  0  0  0  0  0  0  0  0  0  0  0
   -2.8460    2.0620   -1.6240 N   0  0  0  0  0  0  0  0  0  0  0  0
   -4.1710    1.6550   -1.3100 C   0  0  0  0  0  0  0  0  0  0  0  0
   -5.2800    2.3780   -1.6230 C   0  0  0  0  0  0  0  0  0  0  0  0
   -6.5390    1.9070   -1.2800 C   0  0  0  0  0  0  0  0  0  0  0  0
   -6.6730    0.6960   -0.6170 C   0  0  0  0  0  0  0  0  0  0  0  0
   -5.5780   -0.0530   -0.2900 C   0  0  0  0  0  0  0  0  0  0  0  0
   -4.3070    0.4620   -0.6560 C   0  0  0  0  0  0  0  0  0  0  0  0
   -3.1510   -0.3030   -0.3260 N   0  0  0  0  0  0  0  0  0  0  0  0
   -5.6440   -1.3270    0.3900 C   0  0  1  0  0  0  0  0  0  0  0  0
   -4.8260   -1.1410    1.6940 C   0  0  0  0  0  0  0  0  0  0  0  0
   -6.9610   -1.8120    0.7860 C   0  0  0  0  0  0  0  0  0  0  0  0
   -8.0800   -0.9530    0.3980 C   0  0  0  0  0  0  0  0  0  0  0  0
   -8.0030    0.1990   -0.2420 C   0  0  0  0  0  0  0  0  0  0  0  0
   -9.1590    0.9890   -0.5900 C   0  0  0  0  0  0  0  0  0  0  0  0
  -10.3780    0.5580   -0.2610 C   0  0  0  0  0  0  0  0  0  0  0  0
  -10.5370   -0.6730    0.4280 N   0  0  0  0  0  0  0  0  0  0  0  0
   -9.4090   -1.4140    0.7510 N   0  0  0  0  0  0  0  0  0  0  0  0
    3.4670    0.5060    0.0680 C   0  0  0  0  0  0  0  0  0  0  0  0
    4.8000    0.8160    0.1970 C   0  0  0  0  0  0  0  0  0  0  0  0
    5.1440    2.0260    0.6460 F   0  0  0  0  0  0  0  0  0  0  0  0
  1  2  1  0
  2  3  1  0
  3  4  2  0
  3  5  1  0
  5  6  1  6
  5 10  1  0
  6  7  1  0
  7  8  2  0
  7  9  1  0
 10 11  1  0
 11 12  2  0
 11 40  1  0
 12 13  1  0
 13 14  2  0
 14 15  1  0
 14 39  1  0
 15 16  2  0
 15 17  1  0
 17 18  1  0
 18 19  2  0
 20 18  1  6
 20 21  1  0
 20 29  1  0
 21 22  1  0
 22 23  1  0
 23 24  2  0
 23 28  1  0
 24 25  1  0
 25 26  2  0
 26 27  1  0
 26 34  1  0
 27 28  2  0
 27 30  1  0
 28 29  1  0
 30 31  1  1
 30 32  1  0
 32 33  1  0
 33 34  2  0
 33 38  1  0
 34 35  1  0
 35 36  2  0
 36 37  1  0
 37 38  1  0
 39 40  2  0
 40 41  1  0
M  END
