
     RDKit          3D

 41 44  0  0  0  0  0  0  0  0999 V2000
  -10.6180   -1.0000   -1.3660 C   0  0  0  0  0  0  0  0  0  0  0  0
  -10.4210   -0.3660   -0.0130 C   0  0  0  0  0  0  0  0  0  0  0  0
  -11.4060   -0.0760    0.7970 C   0  0  0  0  0  0  0  0  0  0  0  0
  -12.7660   -0.3100    0.5290 O   0  0  0  0  0  0  0  0  0  0  0  0
  -10.8250    0.5200    1.9990 C   0  0  2  0  0  0  0  0  0  0  0  0
  -11.2200    1.8610    2.1060 O   0  0  0  0  0  0  0  0  0  0  0  0
   -9.3580    0.5270    1.7500 C   0  0  0  0  0  0  0  0  0  0  0  0
   -8.4570    1.0270    2.6860 F   0  0  0  0  0  0  0  0  0  0  0  0
   -9.1240    0.0140    0.5850 C   0  0  0  0  0  0  0  0  0  0  0  0
   -7.9160   -0.1920   -0.0950 N   0  0  0  0  0  0  0  0  0  0  0  0
   -6.6380    0.1570    0.4190 C   0  0  0  0  0  0  0  0  0  0  0  0
   -6.5090    0.6780    1.5250 O   0  0  0  0  0  0  0  0  0  0  0  0
   -5.5010   -0.1190   -0.4010 N   0  0  0  0  0  0  0  0  0  0  0  0
   -4.1610    0.1700   -0.0360 C   0  0  0  0  0  0  0  0  0  0  0  0
   -3.1510   -0.0630   -0.9870 C   0  0  0  0  0  0  0  0  0  0  0  0
   -1.8230    0.1810   -0.7410 C   0  0  0  0  0  0  0  0  0  0  0  0
   -1.4000    0.6780    0.4740 C   0  0  0  0  0  0  0  0  0  0  0  0
   -0.0070    0.9370    0.7190 N   0  0  0  0  0  0  0  0  0  0  0  0
    1.0730    0.0110    0.9650 C   0  0  0  0  0  0  0  0  0  0  0  0
    2.3070    0.7300    0.5740 C   0  0  1  0  0  0  0  0  0  0  0  0
    2.9080    0.0470   -0.6140 C   0  0  0  0  0  0  0  0  0  0  0  0
    2.3850   -1.0430   -0.9650 O   0  0  0  0  0  0  0  0  0  0  0  0
    3.9980    0.5400   -1.3430 N   0  0  0  0  0  0  0  0  0  0  0  0
    4.6150    1.7840   -0.9730 C   0  0  0  0  0  0  0  0  0  0  0  0
    4.5050   -0.2070   -2.4690 C   0  0  0  0  0  0  0  0  0  0  0  0
    5.5690   -1.1140   -1.9860 C   0  0  0  0  0  0  0  0  0  0  0  0
    6.1850   -1.9030   -2.7650 O   0  0  0  0  0  0  0  0  0  0  0  0
    5.9570   -1.1480   -0.6260 N   0  0  0  0  0  0  0  0  0  0  0  0
    7.0040   -2.0410   -0.1560 C   0  0  2  0  0  0  0  0  0  0  0  0
    6.5310   -2.8940    0.9920 C   0  0  0  0  0  0  0  0  0  0  0  0
    8.1680   -1.2270    0.3310 C   0  0  0  0  0  0  0  0  0  0  0  0
    8.6890   -1.1870    1.6020 C   0  0  0  0  0  0  0  0  0  0  0  0
    9.7560   -0.3220    1.6430 C   0  0  0  0  0  0  0  0  0  0  0  0
    9.8880    0.1650    0.4070 N   0  0  0  0  0  0  0  0  0  0  0  0
    8.9480   -0.3540   -0.4250 C   0  0  0  0  0  0  0  0  0  0  0  0
    8.7820   -0.0450   -1.8690 C   0  0  0  0  0  0  0  0  0  0  0  0
    1.9030    2.0950    0.1080 C   0  0  0  0  0  0  0  0  0  0  0  0
    0.5500    2.2710    0.7500 C   0  0  0  0  0  0  0  0  0  0  0  0
    0.0160    3.2980    1.2020 O   0  0  0  0  0  0  0  0  0  0  0  0
   -2.3690    0.9120    1.4190 C   0  0  0  0  0  0  0  0  0  0  0  0
   -3.7260    0.6600    1.1620 C   0  0  0  0  0  0  0  0  0  0  0  0
  1  2  1  0
  2  3  2  0
  2  9  1  0
  3  4  1  0
  3  5  1  0
  5  6  1  6
  5  7  1  0
  7  8  1  0
  7  9  2  0
  9 10  1  0
 10 11  1  0
 11 12  2  0
 11 13  1  0
 13 14  1  0
 14 15  2  0
 14 41  1  0
 15 16  1  0
 16 17  2  0
 17 18  1  0
 17 40  1  0
 18 19  1  0
 18 38  1  0
 19 20  1  0
 20 21  1  6
 20 37  1  0
 21 22  2  0
 21 23  1  0
 23 24  1  0
 23 25  1  0
 25 26  1  0
 26 27  2  0
 26 28  1  0
 28 29  1  0
 29 30  1  1
 29 31  1  0
 31 32  1  0
 31 35  2  0
 32 33  2  0
 33 34  1  0
 34 35  1  0
 35 36  1  0
 37 38  1  0
 38 39  2  0
 40 41  2  0
M  END
