
     RDKit          3D

 41 44  0  0  0  0  0  0  0  0999 V2000
   -4.7840    2.7900   -1.2780 C   0  0  0  0  0  0  0  0  0  0  0  0
   -3.5190    2.8680   -0.4660 C   0  0  2  0  0  0  0  0  0  0  0  0
   -3.0050    1.5890   -0.2120 O   0  0  0  0  0  0  0  0  0  0  0  0
   -1.7250    1.1750   -0.6870 C   0  0  0  0  0  0  0  0  0  0  0  0
   -1.1340    2.0260   -1.3230 O   0  0  0  0  0  0  0  0  0  0  0  0
   -1.2950   -0.1710   -0.3630 C   0  0  0  0  0  0  0  0  0  0  0  0
   -2.1750   -0.9930    0.3760 C   0  0  0  0  0  0  0  0  0  0  0  0
   -1.8650   -2.2770    0.7110 C   0  0  0  0  0  0  0  0  0  0  0  0
   -2.8090   -3.1420    1.5020 C   0  0  1  0  0  0  0  0  0  0  0  0
   -3.0100   -2.6070    2.8870 C   0  0  0  0  0  0  0  0  0  0  0  0
   -4.4550   -2.3100    3.2130 C   0  0  0  0  0  0  0  0  0  0  0  0
   -5.1210   -1.7150    2.1710 O   0  0  0  0  0  0  0  0  0  0  0  0
   -5.1930   -2.4500    1.0210 C   0  0  2  0  0  0  0  0  0  0  0  0
   -6.5320   -3.1970    0.9330 C   0  0  0  0  0  0  0  0  0  0  0  0
   -6.5910   -3.9360   -0.2320 F   0  0  0  0  0  0  0  0  0  0  0  0
   -4.0790   -3.3970    0.7620 C   0  0  0  0  0  0  0  0  0  0  0  0
   -0.6470   -2.7420    0.2940 C   0  0  0  0  0  0  0  0  0  0  0  0
    0.2350   -1.9520   -0.4340 C   0  0  0  0  0  0  0  0  0  0  0  0
   -0.0560   -0.6460   -0.7860 C   0  0  0  0  0  0  0  0  0  0  0  0
    0.8530    0.1680   -1.4990 N   0  0  0  0  0  0  0  0  0  0  0  0
    2.0710   -0.2730   -2.0470 C   0  0  0  0  0  0  0  0  0  0  0  0
    2.4380   -1.4520   -1.9440 O   0  0  0  0  0  0  0  0  0  0  0  0
    2.9290    0.6690   -2.7550 N   0  0  0  0  0  0  0  0  0  0  0  0
    4.1630    0.1880   -3.2990 C   0  0  0  0  0  0  0  0  0  0  0  0
    5.2340   -0.0130   -2.2850 C   0  0  0  0  0  0  0  0  0  0  0  0
    5.9350    1.0660   -1.7570 C   0  0  0  0  0  0  0  0  0  0  0  0
    6.9360    0.9070   -0.8210 C   0  0  0  0  0  0  0  0  0  0  0  0
    7.2920   -0.3450   -0.3570 C   0  0  0  0  0  0  0  0  0  0  0  0
    8.3500   -0.5130    0.6330 C   0  0  0  0  0  0  0  0  0  0  0  0
    9.1250    0.4460    1.2430 C   0  0  0  0  0  0  0  0  0  0  0  0
   10.0000   -0.1580    2.1120 C   0  0  0  0  0  0  0  0  0  0  0  0
    9.7510   -1.4710    2.0250 N   0  0  0  0  0  0  0  0  0  0  0  0
    8.7620   -1.6760    1.1370 N   0  0  0  0  0  0  0  0  0  0  0  0
    6.5960   -1.4130   -0.8810 C   0  0  0  0  0  0  0  0  0  0  0  0
    5.5930   -1.2600   -1.8200 C   0  0  0  0  0  0  0  0  0  0  0  0
   -3.7760    3.6050    0.8150 C   0  0  0  0  0  0  0  0  0  0  0  0
   -3.5320    3.0660    1.9200 O   0  0  0  0  0  0  0  0  0  0  0  0
   -4.2960    4.9180    0.7730 N   0  0  0  0  0  0  0  0  0  0  0  0
   -4.5360    5.6170    2.0080 C   0  0  0  0  0  0  0  0  0  0  0  0
   -5.0580    6.9400    2.0090 N   0  0  0  0  0  0  0  0  0  0  0  0
   -4.2830    5.0530    3.0980 O   0  0  0  0  0  0  0  0  0  0  0  0
  2  1  1  1
  2  3  1  0
  2 36  1  0
  3  4  1  0
  4  5  2  0
  4  6  1  0
  6  7  2  0
  6 19  1  0
  7  8  1  0
  9  8  1  6
  8 17  2  0
  9 10  1  0
  9 16  1  0
 10 11  1  0
 11 12  1  0
 12 13  1  0
 13 14  1  1
 13 16  1  0
 14 15  1  0
 17 18  1  0
 18 19  2  0
 19 20  1  0
 20 21  1  0
 21 22  2  0
 21 23  1  0
 23 24  1  0
 24 25  1  0
 25 26  2  0
 25 35  1  0
 26 27  1  0
 27 28  2  0
 28 29  1  0
 28 34  1  0
 29 30  1  0
 29 33  2  0
 30 31  2  0
 31 32  1  0
 32 33  1  0
 34 35  2  0
 36 37  2  0
 36 38  1  0
 38 39  1  0
 39 40  1  0
 39 41  2  0
M  END
