
     RDKit          3D

 41 45  0  0  0  0  0  0  0  0999 V2000
   -2.2380   -0.6670    1.5650 O   0  0  0  0  0  0  0  0  0  0  0  0
   -2.3510    0.4670    1.0590 C   0  0  0  0  0  0  0  0  0  0  0  0
   -1.2920    1.4740    1.2860 C   0  0  0  0  0  0  0  0  0  0  0  0
   -0.0790    0.9800    1.9770 C   0  0  0  0  0  0  0  0  0  0  0  0
    0.6980   -0.1020    1.2890 C   0  0  0  0  0  0  0  0  0  0  0  0
    1.2410    0.2890   -0.0250 C   0  0  0  0  0  0  0  0  0  0  0  0
    0.9050    1.4320   -0.5040 O   0  0  0  0  0  0  0  0  0  0  0  0
    2.1060   -0.4910   -0.8120 N   0  0  0  0  0  0  0  0  0  0  0  0
    2.6010   -0.1260   -2.1520 C   0  0  0  0  0  0  0  0  0  0  0  0
    4.0630   -0.5710   -1.9910 C   0  0  1  0  0  0  0  0  0  0  0  0
    4.6890    0.4620   -1.0960 C   0  0  0  0  0  0  0  0  0  0  0  0
    6.1500    0.1950   -0.8410 C   0  0  0  0  0  0  0  0  0  0  0  0
    6.7070   -0.7810   -1.3980 O   0  0  0  0  0  0  0  0  0  0  0  0
    6.9020    1.0310    0.0170 N   0  0  0  0  0  0  0  0  0  0  0  0
    8.2700    0.8510    0.3070 C   0  0  0  0  0  0  0  0  0  0  0  0
    9.0890   -0.1380   -0.1710 C   0  0  0  0  0  0  0  0  0  0  0  0
   10.3310    0.0650    0.3640 N   0  0  0  0  0  0  0  0  0  0  0  0
   10.3330    1.1240    1.1490 N   0  0  0  0  0  0  0  0  0  0  0  0
    9.0860    1.6160    1.1260 C   0  0  0  0  0  0  0  0  0  0  0  0
    8.6330    2.7460    1.8230 O   0  0  0  0  0  0  0  0  0  0  0  0
    3.8690   -1.8860   -1.2790 C   0  0  0  0  0  0  0  0  0  0  0  0
    4.6070   -3.0380   -1.2290 C   0  0  0  0  0  0  0  0  0  0  0  0
    4.1760   -4.0890   -0.4570 C   0  0  0  0  0  0  0  0  0  0  0  0
    4.8950   -5.2520   -0.3890 F   0  0  0  0  0  0  0  0  0  0  0  0
    2.9950   -3.9780    0.2680 C   0  0  0  0  0  0  0  0  0  0  0  0
    2.2410   -2.8200    0.2250 C   0  0  0  0  0  0  0  0  0  0  0  0
    2.6910   -1.7620   -0.5640 C   0  0  0  0  0  0  0  0  0  0  0  0
   -3.5220    0.7500    0.2660 N   0  0  0  0  0  0  0  0  0  0  0  0
   -4.4510   -0.2240    0.1020 N   0  0  0  0  0  0  0  0  0  0  0  0
   -5.6860   -0.2820    0.0870 C   0  0  0  0  0  0  0  0  0  0  0  0
   -6.5520    0.8620    0.2740 C   0  0  0  0  0  0  0  0  0  0  0  0
   -6.1300    1.9160    1.0940 C   0  0  0  0  0  0  0  0  0  0  0  0
   -6.9560    3.0040    1.2690 C   0  0  0  0  0  0  0  0  0  0  0  0
   -8.1820    3.0470    0.6420 C   0  0  0  0  0  0  0  0  0  0  0  0
   -8.5800    1.9810   -0.1720 C   0  0  0  0  0  0  0  0  0  0  0  0
   -7.7760    0.9010   -0.3540 C   0  0  0  0  0  0  0  0  0  0  0  0
   -8.2170   -0.2100   -1.2120 C   0  0  1  0  0  0  0  0  0  0  0  0
   -8.3570    0.3490   -2.5110 O   0  0  0  0  0  0  0  0  0  0  0  0
   -7.2690   -1.3470   -1.3540 C   0  0  0  0  0  0  0  0  0  0  0  0
   -6.3850   -1.5960   -0.1530 C   0  0  1  0  0  0  0  0  0  0  0  0
   -5.4630   -2.5820   -0.5030 O   0  0  0  0  0  0  0  0  0  0  0  0
  1  2  2  0
  2  3  1  0
  2 28  1  0
  3  4  1  0
  4  5  1  0
  5  6  1  0
  6  7  2  0
  6  8  1  0
  8  9  1  0
  8 27  1  0
  9 10  1  0
 10 11  1  1
 10 21  1  0
 11 12  1  0
 12 13  2  0
 12 14  1  0
 14 15  1  0
 15 16  1  0
 15 19  2  0
 16 17  2  0
 17 18  1  0
 18 19  1  0
 19 20  1  0
 21 22  2  0
 21 27  1  0
 22 23  1  0
 23 24  1  0
 23 25  2  0
 25 26  1  0
 26 27  2  0
 28 29  1  0
 29 30  2  3
 30 31  1  0
 30 40  1  0
 31 32  2  0
 31 36  1  0
 32 33  1  0
 33 34  2  0
 34 35  1  0
 35 36  2  0
 36 37  1  0
 37 38  1  6
 37 39  1  0
 39 40  1  0
 40 41  1  6
M  END
