
     RDKit          3D

 41 44  0  0  0  0  0  0  0  0999 V2000
    7.9850    2.3130    1.1200 C   0  0  0  0  0  0  0  0  0  0  0  0
    7.1010    1.1990    1.4350 C   0  0  0  0  0  0  0  0  0  0  0  0
    7.4760    0.3370    2.4640 F   0  0  0  0  0  0  0  0  0  0  0  0
    5.9710    0.9250    0.8290 C   0  0  0  0  0  0  0  0  0  0  0  0
    5.3780    1.6380   -0.2470 C   0  0  0  0  0  0  0  0  0  0  0  0
    4.1610    1.2710   -0.7750 C   0  0  0  0  0  0  0  0  0  0  0  0
    3.4850    0.1340   -0.2240 C   0  0  0  0  0  0  0  0  0  0  0  0
    2.4360   -0.5300   -0.3880 C   0  0  0  0  0  0  0  0  0  0  0  0
    1.2570   -0.6450   -1.1590 C   0  0  0  0  0  0  0  0  0  0  0  0
    0.9110    0.0600   -2.0960 O   0  0  0  0  0  0  0  0  0  0  0  0
    0.3160   -1.7000   -0.8500 N   0  0  0  0  0  0  0  0  0  0  0  0
    0.6480   -2.5710    0.2910 C   0  0  0  0  0  0  0  0  0  0  0  0
   -0.5900   -3.4520    0.4870 C   0  0  1  0  0  0  0  0  0  0  0  0
   -0.4260   -4.3470    1.6880 C   0  0  0  0  0  0  0  0  0  0  0  0
    0.7630   -5.2560    1.5510 C   0  0  0  0  0  0  0  0  0  0  0  0
    0.6920   -6.1830    0.4070 C   0  0  0  0  0  0  0  0  0  0  0  0
    1.8360   -6.9740    0.1350 N   0  0  0  0  0  0  0  0  0  0  0  0
   -0.3010   -6.3200   -0.3360 O   0  0  0  0  0  0  0  0  0  0  0  0
   -1.6350   -2.5450    0.6550 O   0  0  0  0  0  0  0  0  0  0  0  0
   -2.0750   -2.1790   -0.6060 C   0  0  1  0  0  0  0  0  0  0  0  0
   -2.9630   -0.9900   -0.5620 C   0  0  0  0  0  0  0  0  0  0  0  0
   -3.4750   -0.5000   -1.5740 O   0  0  0  0  0  0  0  0  0  0  0  0
   -3.2820   -0.3390    0.6430 O   0  0  0  0  0  0  0  0  0  0  0  0
   -4.1140    0.7700    0.6680 C   0  0  0  0  0  0  0  0  0  0  0  0
   -3.7040    2.0680    0.5340 C   0  0  0  0  0  0  0  0  0  0  0  0
   -4.6500    3.0820    0.5780 C   0  0  0  0  0  0  0  0  0  0  0  0
   -5.9950    2.8360    0.7520 C   0  0  0  0  0  0  0  0  0  0  0  0
   -6.9510    3.9410    0.7900 C   0  0  0  0  0  0  0  0  0  0  0  0
   -8.3160    3.8680    0.9550 C   0  0  0  0  0  0  0  0  0  0  0  0
   -8.8510    5.1590    0.9310 C   0  0  0  0  0  0  0  0  0  0  0  0
   -7.7960    5.9650    0.7530 N   0  0  0  0  0  0  0  0  0  0  0  0
   -6.6680    5.2470    0.6690 N   0  0  0  0  0  0  0  0  0  0  0  0
   -6.3980    1.5200    0.8850 C   0  0  0  0  0  0  0  0  0  0  0  0
   -5.4570    0.5250    0.8410 C   0  0  0  0  0  0  0  0  0  0  0  0
   -0.8910   -1.9960   -1.5420 C   0  0  1  0  0  0  0  0  0  0  0  0
   -1.1910   -1.0520   -2.6540 C   0  0  0  0  0  0  0  0  0  0  0  0
    3.5870    2.1190   -1.8010 C   0  0  0  0  0  0  0  0  0  0  0  0
    2.5010    1.9080   -2.3660 O   0  0  0  0  0  0  0  0  0  0  0  0
    4.2570    3.3060   -2.2550 N   0  0  0  0  0  0  0  0  0  0  0  0
    5.2920    3.8650   -1.3800 C   0  0  0  0  0  0  0  0  0  0  0  0
    6.0450    2.7020   -0.9180 N   0  0  0  0  0  0  0  0  0  0  0  0
  1  2  1  0
  2  3  1  0
  2  4  2  3
  4  5  1  0
  5  6  2  0
  5 41  1  0
  6  7  1  0
  6 37  1  0
  7  8  2  3
  8  9  1  0
  9 10  2  0
  9 11  1  0
 11 12  1  0
 11 35  1  0
 12 13  1  0
 13 14  1  1
 13 19  1  0
 14 15  1  0
 15 16  1  0
 16 17  1  0
 16 18  2  0
 19 20  1  0
 20 21  1  1
 20 35  1  0
 21 22  2  0
 21 23  1  0
 23 24  1  0
 24 25  2  0
 24 34  1  0
 25 26  1  0
 26 27  2  0
 27 28  1  0
 27 33  1  0
 28 29  2  0
 28 32  1  0
 29 30  1  0
 30 31  2  0
 31 32  1  0
 33 34  2  0
 35 36  1  6
 37 38  2  0
 37 39  1  0
 39 40  1  0
 40 41  1  0
M  END
