
     RDKit          3D

 43 48  0  0  0  0  0  0  0  0999 V2000
    5.7040   -0.4290   -0.0720 C   0  0  0  0  0  0  0  0  0  0  0  0
    4.5240   -1.2920    0.0600 N   0  0  1  0  0  0  0  0  0  0  0  0
    4.4630   -1.6060    1.4870 C   0  0  0  0  0  0  0  0  0  0  0  0
    3.3120   -2.4140    1.8760 C   0  0  0  0  0  0  0  0  0  0  0  0
    2.6680   -2.1560    3.0800 C   0  0  0  0  0  0  0  0  0  0  0  0
    1.5790   -2.8770    3.5170 C   0  0  0  0  0  0  0  0  0  0  0  0
    1.0900   -3.9110    2.7300 C   0  0  0  0  0  0  0  0  0  0  0  0
    0.0220   -4.6420    3.1260 F   0  0  0  0  0  0  0  0  0  0  0  0
    1.7140   -4.1860    1.5300 C   0  0  0  0  0  0  0  0  0  0  0  0
    2.8170   -3.4400    1.1080 C   0  0  0  0  0  0  0  0  0  0  0  0
    3.3410   -0.5950   -0.3690 C   0  0  0  0  0  0  0  0  0  0  0  0
    3.3470   -0.4480   -1.8430 C   0  0  0  0  0  0  0  0  0  0  0  0
    4.3660   -0.9400   -2.6260 C   0  0  0  0  0  0  0  0  0  0  0  0
    4.2980   -0.7650   -4.0120 C   0  0  0  0  0  0  0  0  0  0  0  0
    5.3150   -1.2550   -4.7980 C   0  0  0  0  0  0  0  0  0  0  0  0
    5.2410   -1.0770   -6.1690 C   0  0  0  0  0  0  0  0  0  0  0  0
    4.1810   -0.4250   -6.7750 C   0  0  0  0  0  0  0  0  0  0  0  0
    3.1880    0.0480   -5.9480 C   0  0  0  0  0  0  0  0  0  0  0  0
    3.2330   -0.1150   -4.5710 C   0  0  0  0  0  0  0  0  0  0  0  0
    2.1960    0.3860   -3.7710 C   0  0  0  0  0  0  0  0  0  0  0  0
    2.2480    0.2250   -2.4350 C   0  0  0  0  0  0  0  0  0  0  0  0
    1.2600    0.6980   -1.5380 N   0  0  0  0  0  0  0  0  0  0  0  0
    0.0710    1.3820   -1.8600 C   0  0  0  0  0  0  0  0  0  0  0  0
   -0.1910    1.6210   -3.0520 O   0  0  0  0  0  0  0  0  0  0  0  0
   -0.8970    1.8370   -0.8380 C   0  0  0  0  0  0  0  0  0  0  0  0
   -0.5990    1.5760    0.3280 O   0  0  0  0  0  0  0  0  0  0  0  0
   -2.0610    2.5100   -1.1360 N   0  0  0  0  0  0  0  0  0  0  0  0
   -3.1480    3.0660   -0.4610 C   0  0  0  0  0  0  0  0  0  0  0  0
   -4.0390    2.3250    0.3850 C   0  0  0  0  0  0  0  0  0  0  0  0
   -5.2600    2.0350   -0.1150 C   0  0  0  0  0  0  0  0  0  0  0  0
   -6.2690    1.2990    0.6270 C   0  0  0  0  0  0  0  0  0  0  0  0
   -7.5020    1.0150    0.0750 C   0  0  0  0  0  0  0  0  0  0  0  0
   -8.4580    0.3080    0.7970 C   0  0  0  0  0  0  0  0  0  0  0  0
   -8.1860   -0.1210    2.0800 C   0  0  0  0  0  0  0  0  0  0  0  0
   -6.9850    0.1650    2.5960 N   0  0  0  0  0  0  0  0  0  0  0  0
   -6.0260    0.8590    1.9080 C   0  0  0  0  0  0  0  0  0  0  0  0
   -4.7710    1.1430    2.4870 N   0  0  0  0  0  0  0  0  0  0  0  0
   -4.5410    0.6910    3.8460 C   0  0  0  0  0  0  0  0  0  0  0  0
   -3.6240    1.6650    4.5700 C   0  0  0  0  0  0  0  0  0  0  0  0
   -2.3710    1.8260    3.7420 C   0  0  1  0  0  0  0  0  0  0  0  0
   -1.7220    0.5750    3.7660 F   0  0  0  0  0  0  0  0  0  0  0  0
   -2.7100    2.2370    2.3930 C   0  0  0  0  0  0  0  0  0  0  0  0
   -3.7830    1.8720    1.7370 C   0  0  0  0  0  0  0  0  0  0  0  0
  2  1  1  1
  2  3  1  0
  2 11  1  0
  3  4  1  0
  4  5  2  0
  4 10  1  0
  5  6  1  0
  6  7  2  0
  7  8  1  0
  7  9  1  0
  9 10  2  0
 11 12  1  0
 12 13  2  0
 12 21  1  0
 13 14  1  0
 14 15  2  0
 14 19  1  0
 15 16  1  0
 16 17  2  0
 17 18  1  0
 18 19  2  0
 19 20  1  0
 20 21  2  0
 21 22  1  0
 22 23  1  0
 23 24  2  0
 23 25  1  0
 25 26  2  0
 25 27  1  0
 27 28  1  0
 28 29  1  0
 29 30  2  0
 29 43  1  0
 30 31  1  0
 31 32  2  0
 31 36  1  0
 32 33  1  0
 33 34  2  0
 34 35  1  0
 35 36  2  0
 36 37  1  0
 37 38  1  0
 37 43  1  0
 38 39  1  0
 39 40  1  0
 40 41  1  6
 40 42  1  0
 42 43  2  0
M  CHG  1   2   1
M  END
