
     RDKit          3D

 44 48  0  0  0  0  0  0  0  0999 V2000
    6.1130   -5.5700   -0.8010 C   0  0  0  0  0  0  0  0  0  0  0  0
    5.3290   -4.5550   -0.6260 C   0  0  0  0  0  0  0  0  0  0  0  0
    5.8320   -3.4630    0.0920 C   0  0  0  0  0  0  0  0  0  0  0  0
    5.0240   -2.3570    0.3040 C   0  0  0  0  0  0  0  0  0  0  0  0
    3.7460   -2.3140   -0.1770 C   0  0  0  0  0  0  0  0  0  0  0  0
    2.9190   -1.1730    0.0140 N   0  0  0  0  0  0  0  0  0  0  0  0
    3.3610    0.1280    0.2840 C   0  0  0  0  0  0  0  0  0  0  0  0
    4.6230    0.3320    0.3290 O   0  0  0  0  0  0  0  0  0  0  0  0
    2.5190    1.2770    0.5130 C   0  0  2  0  0  0  0  0  0  0  0  0
    1.0620    1.1130    0.5540 C   0  0  0  0  0  0  0  0  0  0  0  0
    0.6030    0.2370    1.6910 C   0  0  0  0  0  0  0  0  0  0  0  0
   -0.9000    0.1530    1.5630 C   0  0  2  0  0  0  0  0  0  0  0  0
   -1.5680   -0.7230    2.5860 C   0  0  0  0  0  0  0  0  0  0  0  0
   -2.9510   -0.8260    1.9350 C   0  0  1  0  0  0  0  0  0  0  0  0
   -3.9430    0.0850    2.5760 C   0  0  0  0  0  0  0  0  0  0  0  0
   -3.6230    1.0830    3.4340 C   0  0  0  0  0  0  0  0  0  0  0  0
   -4.5820    1.9100    3.9980 C   0  0  0  0  0  0  0  0  0  0  0  0
   -5.9060    1.7450    3.7020 C   0  0  0  0  0  0  0  0  0  0  0  0
   -6.2340    0.7290    2.8280 C   0  0  0  0  0  0  0  0  0  0  0  0
   -5.2760   -0.1010    2.2620 C   0  0  0  0  0  0  0  0  0  0  0  0
   -5.6890   -1.0940    1.3970 O   0  0  0  0  0  0  0  0  0  0  0  0
   -7.0200   -1.3330    1.0390 C   0  0  0  0  0  0  0  0  0  0  0  0
   -2.7010   -0.4900    0.5230 C   0  0  2  0  0  0  0  0  0  0  0  0
   -3.2690   -1.3840   -0.5060 C   0  0  0  0  0  0  0  0  0  0  0  0
   -3.6050   -2.6950   -0.3590 C   0  0  0  0  0  0  0  0  0  0  0  0
   -4.1450   -3.4370   -1.4190 C   0  0  0  0  0  0  0  0  0  0  0  0
   -4.3480   -2.8500   -2.6380 C   0  0  0  0  0  0  0  0  0  0  0  0
   -4.0120   -1.5170   -2.8060 C   0  0  0  0  0  0  0  0  0  0  0  0
   -4.2470   -0.9130   -4.1430 C   0  0  0  0  0  0  0  0  0  0  0  0
   -3.4850   -0.8110   -1.7530 C   0  0  0  0  0  0  0  0  0  0  0  0
   -1.3410   -0.3230    0.3450 O   0  0  0  0  0  0  0  0  0  0  0  0
    2.8930    2.4510   -0.2790 N   0  0  0  0  0  0  0  0  0  0  0  0
    3.5740    3.5640    0.1930 C   0  0  0  0  0  0  0  0  0  0  0  0
    3.9080    3.6110    1.4040 O   0  0  0  0  0  0  0  0  0  0  0  0
    3.9120    4.6870   -0.6600 C   0  0  0  0  0  0  0  0  0  0  0  0
    3.7110    5.9460   -0.0480 C   0  0  0  0  0  0  0  0  0  0  0  0
    3.8870    7.0600   -0.8210 C   0  0  0  0  0  0  0  0  0  0  0  0
    4.2420    6.9540   -2.1290 C   0  0  0  0  0  0  0  0  0  0  0  0
    4.4300    5.7460   -2.6880 N   0  0  0  0  0  0  0  0  0  0  0  0
    4.2750    4.5830   -1.9770 C   0  0  0  0  0  0  0  0  0  0  0  0
    4.5550    3.4600   -2.5210 N   0  0  0  0  0  0  0  0  0  0  0  0
    3.2550   -3.4000   -0.8870 C   0  0  0  0  0  0  0  0  0  0  0  0
    4.0300   -4.5110   -1.1140 C   0  0  0  0  0  0  0  0  0  0  0  0
    3.5140   -5.5140   -1.7960 C   0  0  0  0  0  0  0  0  0  0  0  0
  1  2  2  0
  2  3  1  0
  2 43  1  0
  3  4  2  0
  4  5  1  0
  5  6  1  0
  5 42  2  0
  6  7  1  0
  7  8  2  0
  7  9  1  0
  9 10  1  6
  9 32  1  0
 10 11  1  0
 12 11  1  6
 12 13  1  0
 12 31  1  0
 13 14  1  0
 14 15  1  1
 14 23  1  0
 15 16  2  0
 15 20  1  0
 16 17  1  0
 17 18  2  0
 18 19  1  0
 19 20  2  0
 20 21  1  0
 21 22  1  0
 23 24  1  6
 23 31  1  0
 24 25  2  0
 24 30  1  0
 25 26  1  0
 26 27  2  0
 27 28  1  0
 28 29  1  0
 28 30  2  0
 32 33  1  0
 33 34  2  0
 33 35  1  0
 35 36  2  0
 35 40  1  0
 36 37  1  0
 37 38  2  0
 38 39  1  0
 39 40  1  0
 40 41  2  0
 42 43  1  0
 43 44  2  0
M  CHG  1  41   1
M  END
