
     RDKit          3D

 44 49  0  0  0  0  0  0  0  0999 V2000
    4.2790    0.6580   -0.7000 C   0  0  0  0  0  0  0  0  0  0  0  0
    3.8970    0.1000    0.4120 C   0  0  0  0  0  0  0  0  0  0  0  0
    4.4690    0.7470    1.5330 F   0  0  0  0  0  0  0  0  0  0  0  0
    3.0330   -0.9710    0.6490 C   0  0  0  0  0  0  0  0  0  0  0  0
    2.8680   -1.3050    1.9860 C   0  0  0  0  0  0  0  0  0  0  0  0
    1.9720   -2.4220    2.3290 C   0  0  0  0  0  0  0  0  0  0  0  0
    2.2230   -3.6370    1.4910 C   0  0  0  0  0  0  0  0  0  0  0  0
    2.5540   -3.3170    0.0660 C   0  0  0  0  0  0  0  0  0  0  0  0
    2.2500   -1.8110   -0.2170 C   0  0  2  0  0  0  0  0  0  0  0  0
    2.0840   -1.6300   -1.6540 C   0  0  1  0  0  0  0  0  0  0  0  0
    1.4850   -0.3010   -1.9820 C   0  0  0  0  0  0  0  0  0  0  0  0
    1.8050    0.2140   -3.1080 O   0  0  0  0  0  0  0  0  0  0  0  0
    0.6020    0.4190   -1.1510 N   0  0  0  0  0  0  0  0  0  0  0  0
    0.0950    1.6950   -1.5780 C   0  0  0  0  0  0  0  0  0  0  0  0
    0.4510    2.2410   -2.7530 N   0  0  0  0  0  0  0  0  0  0  0  0
   -0.0190    3.4380   -3.1550 C   0  0  0  0  0  0  0  0  0  0  0  0
   -0.9000    4.1720   -2.3720 C   0  0  0  0  0  0  0  0  0  0  0  0
   -1.2910    3.6490   -1.1600 C   0  0  0  0  0  0  0  0  0  0  0  0
   -2.2410    4.3900   -0.2600 C   0  0  0  0  0  0  0  0  0  0  0  0
   -0.7780    2.4210   -0.8000 C   0  0  0  0  0  0  0  0  0  0  0  0
   -1.1730    1.8460    0.4760 C   0  0  0  0  0  0  0  0  0  0  0  0
   -0.5910    2.0790    1.6480 N   0  0  0  0  0  0  0  0  0  0  0  0
   -0.9540    1.5450    2.8140 C   0  0  0  0  0  0  0  0  0  0  0  0
   -2.0230    0.6790    2.7930 C   0  0  0  0  0  0  0  0  0  0  0  0
   -2.6790    0.3920    1.5950 C   0  0  0  0  0  0  0  0  0  0  0  0
   -2.2490    0.9800    0.4320 C   0  0  0  0  0  0  0  0  0  0  0  0
   -2.9540    0.6520   -0.8290 C   0  0  0  0  0  0  0  0  0  0  0  0
   -4.3540    0.4500   -0.5120 N   0  0  0  0  0  0  0  0  0  0  0  0
   -5.3930    1.1750   -1.1490 C   0  0  0  0  0  0  0  0  0  0  0  0
   -5.1720    2.2010   -2.1890 C   0  0  0  0  0  0  0  0  0  0  0  0
   -6.5790    0.9360   -0.8140 O   0  0  0  0  0  0  0  0  0  0  0  0
   -4.7250   -0.5270    0.4850 C   0  0  0  0  0  0  0  0  0  0  0  0
   -3.8310   -0.5410    1.6780 C   0  0  0  0  0  0  0  0  0  0  0  0
   -2.4180    0.0740    4.0920 C   0  0  0  0  0  0  0  0  0  0  0  0
   -1.2160   -0.3270    4.7860 N   0  0  0  0  0  0  0  0  0  0  0  0
   -0.2820    0.7060    5.0550 C   0  0  0  0  0  0  0  0  0  0  0  0
   -0.2860    1.8430    4.1010 C   0  0  0  0  0  0  0  0  0  0  0  0
    3.0320   -2.1570   -2.6030 C   0  0  0  0  0  0  0  0  0  0  0  0
    2.6400   -2.6130   -3.8780 C   0  0  0  0  0  0  0  0  0  0  0  0
    3.5260   -3.1510   -4.7800 C   0  0  0  0  0  0  0  0  0  0  0  0
    4.8610   -3.2630   -4.4590 C   0  0  0  0  0  0  0  0  0  0  0  0
    5.2740   -2.8310   -3.2330 C   0  0  0  0  0  0  0  0  0  0  0  0
    6.5940   -2.9340   -2.8940 F   0  0  0  0  0  0  0  0  0  0  0  0
    4.3610   -2.2890   -2.3320 C   0  0  0  0  0  0  0  0  0  0  0  0
  1  2  2  0
  2  3  1  0
  2  4  1  0
  4  5  2  0
  4  9  1  0
  5  6  1  0
  6  7  1  0
  7  8  1  0
  9  8  1  6
  9 10  1  0
 10 11  1  1
 10 38  1  0
 11 12  2  0
 11 13  1  0
 13 14  1  0
 14 15  2  0
 14 20  1  0
 15 16  1  0
 16 17  2  0
 17 18  1  0
 18 19  1  0
 18 20  2  0
 20 21  1  0
 21 22  2  0
 21 26  1  0
 22 23  1  0
 23 24  2  0
 23 37  1  0
 24 25  1  0
 24 34  1  0
 25 26  2  0
 25 33  1  0
 26 27  1  0
 27 28  1  0
 28 29  1  0
 28 32  1  0
 29 30  1  0
 29 31  2  0
 32 33  1  0
 34 35  1  0
 35 36  1  0
 36 37  1  0
 38 39  2  0
 38 44  1  0
 39 40  1  0
 40 41  2  0
 41 42  1  0
 42 43  1  0
 42 44  2  0
M  CHG  1  35   1
M  END
