
     RDKit          3D

 44 48  0  0  0  0  0  0  0  0999 V2000
   -5.5960    8.9160    0.7380 C   0  0  0  0  0  0  0  0  0  0  0  0
   -4.5780    7.9240    0.2370 C   0  0  0  0  0  0  0  0  0  0  0  0
   -4.9370    7.0980   -0.6340 O   0  0  0  0  0  0  0  0  0  0  0  0
   -3.2770    7.9560    0.7570 N   0  0  0  0  0  0  0  0  0  0  0  0
   -2.2830    7.0190    0.3030 C   0  0  0  0  0  0  0  0  0  0  0  0
   -2.7150    5.6470    0.6110 C   0  0  0  0  0  0  0  0  0  0  0  0
   -3.0890    4.8460   -0.3110 N   0  0  0  0  0  0  0  0  0  0  0  0
   -3.5070    3.5190   -0.0420 C   0  0  0  0  0  0  0  0  0  0  0  0
   -2.6730    2.4460   -0.3930 C   0  0  0  0  0  0  0  0  0  0  0  0
   -3.0150    1.1330   -0.1620 C   0  0  0  0  0  0  0  0  0  0  0  0
   -2.2110   -0.0490   -0.4590 C   0  0  2  0  0  0  0  0  0  0  0  0
   -0.9730   -0.2190    0.3590 C   0  0  1  0  0  0  0  0  0  0  0  0
   -0.6470   -1.5720    0.9510 C   0  0  0  0  0  0  0  0  0  0  0  0
   -0.0080   -1.6350    2.0290 O   0  0  0  0  0  0  0  0  0  0  0  0
   -1.0510   -2.7420    0.3040 N   0  0  0  0  0  0  0  0  0  0  0  0
   -0.8110   -4.0600    0.7450 C   0  0  0  0  0  0  0  0  0  0  0  0
   -0.0970   -4.4370    1.8510 C   0  0  0  0  0  0  0  0  0  0  0  0
    0.0850   -5.7760    2.2230 C   0  0  0  0  0  0  0  0  0  0  0  0
   -0.4580   -6.7600    1.4720 C   0  0  0  0  0  0  0  0  0  0  0  0
   -1.1820   -6.4300    0.3530 C   0  0  0  0  0  0  0  0  0  0  0  0
   -1.3500   -5.1220    0.0050 C   0  0  0  0  0  0  0  0  0  0  0  0
   -1.7550   -7.5570   -0.4320 C   0  0  0  0  0  0  0  0  0  0  0  0
   -0.9430   -8.6440   -0.5530 O   0  0  0  0  0  0  0  0  0  0  0  0
   -0.0230   -8.8660    0.4290 C   0  0  0  0  0  0  0  0  0  0  0  0
   -0.3380   -8.2240    1.7630 C   0  0  0  0  0  0  0  0  0  0  0  0
   -0.9430   -0.1510   -1.1460 C   0  0  2  0  0  0  0  0  0  0  0  0
   -0.0950    0.9450   -1.6840 C   0  0  0  0  0  0  0  0  0  0  0  0
    1.1360    0.3020   -2.2950 C   0  0  0  0  0  0  0  0  0  0  0  0
    1.2920   -0.9490   -2.3130 O   0  0  0  0  0  0  0  0  0  0  0  0
    2.1760    1.0810   -2.8780 N   0  0  0  0  0  0  0  0  0  0  0  0
    3.3620    0.4180   -3.4560 C   0  0  0  0  0  0  0  0  0  0  0  0
    4.2520   -0.0530   -2.3520 C   0  0  0  0  0  0  0  0  0  0  0  0
    4.9980    0.8810   -1.6590 C   0  0  0  0  0  0  0  0  0  0  0  0
    5.8230    0.4660   -0.6290 C   0  0  0  0  0  0  0  0  0  0  0  0
    5.9150   -0.8520   -0.2800 C   0  0  0  0  0  0  0  0  0  0  0  0
    6.8050   -1.2500    0.8460 C   0  0  1  0  0  0  0  0  0  0  0  0
    8.1870   -0.7450    0.5780 C   0  0  0  0  0  0  0  0  0  0  0  0
    6.2090   -0.6370    2.1030 C   0  0  0  0  0  0  0  0  0  0  0  0
    5.1650   -1.7730   -0.9800 C   0  0  0  0  0  0  0  0  0  0  0  0
    4.3320   -1.3690   -2.0180 C   0  0  0  0  0  0  0  0  0  0  0  0
   -4.2620    0.9570    0.4490 C   0  0  0  0  0  0  0  0  0  0  0  0
   -5.0780    1.9960    0.7920 C   0  0  0  0  0  0  0  0  0  0  0  0
   -4.7220    3.3120    0.5560 C   0  0  0  0  0  0  0  0  0  0  0  0
   -5.6490    4.4030    0.9590 C   0  0  0  0  0  0  0  0  0  0  0  0
  1  2  1  0
  2  3  2  0
  2  4  1  0
  4  5  1  0
  5  6  1  0
  6  7  2  3
  7  8  1  0
  8  9  2  0
  8 43  1  0
  9 10  1  0
 11 10  1  1
 10 41  2  0
 11 12  1  0
 11 26  1  0
 12 13  1  6
 12 26  1  0
 13 14  2  0
 13 15  1  0
 15 16  1  0
 16 17  2  0
 16 21  1  0
 17 18  1  0
 18 19  2  0
 19 20  1  0
 19 25  1  0
 20 21  2  0
 20 22  1  0
 22 23  1  0
 23 24  1  0
 24 25  1  0
 26 27  1  1
 27 28  1  0
 28 29  2  0
 28 30  1  0
 30 31  1  0
 31 32  1  0
 32 33  2  0
 32 40  1  0
 33 34  1  0
 34 35  2  0
 35 36  1  0
 35 39  1  0
 36 37  1  6
 36 38  1  0
 39 40  2  0
 41 42  1  0
 42 43  2  0
 43 44  1  0
M  CHG  1   7   1
M  END
