
     RDKit          3D

 44 50  0  0  0  0  0  0  0  0999 V2000
   -5.0150    4.7380   -2.5290 C   0  0  0  0  0  0  0  0  0  0  0  0
   -5.1800    3.4370   -2.0000 O   0  0  0  0  0  0  0  0  0  0  0  0
   -4.0790    2.8130   -1.4190 C   0  0  0  0  0  0  0  0  0  0  0  0
   -2.8540    3.4330   -1.3530 C   0  0  0  0  0  0  0  0  0  0  0  0
   -1.7280    2.8480   -0.7820 C   0  0  0  0  0  0  0  0  0  0  0  0
   -1.8360    1.5590   -0.2430 C   0  0  0  0  0  0  0  0  0  0  0  0
   -3.0540    0.9160   -0.2980 C   0  0  0  0  0  0  0  0  0  0  0  0
   -4.1520    1.5480   -0.8820 C   0  0  0  0  0  0  0  0  0  0  0  0
   -3.2960   -0.4420    0.2230 C   0  0  2  0  0  0  0  0  0  0  0  0
   -3.7060   -1.3110   -0.8560 N   0  0  0  0  0  0  0  0  0  0  0  0
   -4.8420   -2.1490   -0.8640 C   0  0  0  0  0  0  0  0  0  0  0  0
   -5.0860   -3.0490   -1.9110 C   0  0  0  0  0  0  0  0  0  0  0  0
   -6.2020   -3.8560   -1.8970 C   0  0  0  0  0  0  0  0  0  0  0  0
   -7.0870   -3.7850   -0.8520 C   0  0  0  0  0  0  0  0  0  0  0  0
   -8.1820   -4.5830   -0.8460 F   0  0  0  0  0  0  0  0  0  0  0  0
   -6.8310   -2.8790    0.1890 C   0  0  0  0  0  0  0  0  0  0  0  0
   -5.7200   -2.0790    0.1700 C   0  0  0  0  0  0  0  0  0  0  0  0
   -5.4750   -1.1570    1.2480 C   0  0  0  0  0  0  0  0  0  0  0  0
   -6.2640   -1.0640    2.2210 O   0  0  0  0  0  0  0  0  0  0  0  0
   -4.3220   -0.3050    1.2580 N   0  0  0  0  0  0  0  0  0  0  0  0
   -4.2230    0.6720    2.3140 C   0  0  0  0  0  0  0  0  0  0  0  0
   -2.0930   -1.0480    0.8250 C   0  0  0  0  0  0  0  0  0  0  0  0
   -2.2430   -2.3110    1.3470 C   0  0  0  0  0  0  0  0  0  0  0  0
   -1.1800   -2.9590    1.9390 C   0  0  0  0  0  0  0  0  0  0  0  0
    0.0490   -2.3430    2.0120 C   0  0  0  0  0  0  0  0  0  0  0  0
    0.2150   -1.0650    1.4880 C   0  0  0  0  0  0  0  0  0  0  0  0
   -0.8520   -0.4210    0.8960 C   0  0  0  0  0  0  0  0  0  0  0  0
   -0.7070    0.9060    0.3550 N   0  0  0  0  0  0  0  0  0  0  0  0
    0.5790    1.5360    0.3930 C   0  0  0  0  0  0  0  0  0  0  0  0
    1.5480    1.0210   -0.6550 C   0  0  0  0  0  0  0  0  0  0  0  0
    2.8890    1.7360   -0.5350 C   0  0  0  0  0  0  0  0  0  0  0  0
    3.4730    1.5240    0.7520 N   0  0  0  0  0  0  0  0  0  0  0  0
    4.9020    1.7480    0.7430 C   0  0  0  0  0  0  0  0  0  0  0  0
    5.6990    0.6280    0.2650 C   0  0  0  0  0  0  0  0  0  0  0  0
    5.1150   -0.5230   -0.1870 C   0  0  0  0  0  0  0  0  0  0  0  0
    5.8200   -1.5780   -0.6360 N   0  0  0  0  0  0  0  0  0  0  0  0
    7.1800   -1.4820   -0.6350 C   0  0  0  0  0  0  0  0  0  0  0  0
    7.9480   -2.5420   -1.0870 C   0  0  0  0  0  0  0  0  0  0  0  0
    9.3180   -2.4530   -1.0890 C   0  0  0  0  0  0  0  0  0  0  0  0
    9.9740   -1.3200   -0.6460 C   0  0  0  0  0  0  0  0  0  0  0  0
   11.3290   -1.2100   -0.6390 F   0  0  0  0  0  0  0  0  0  0  0  0
    9.2150   -0.2620   -0.1950 C   0  0  0  0  0  0  0  0  0  0  0  0
    7.8320   -0.3550   -0.1950 C   0  0  0  0  0  0  0  0  0  0  0  0
    7.0920    0.7280    0.2660 C   0  0  0  0  0  0  0  0  0  0  0  0
  1  2  1  0
  2  3  1  0
  3  4  2  0
  3  8  1  0
  4  5  1  0
  5  6  2  0
  6  7  1  0
  6 28  1  0
  7  8  2  0
  7  9  1  0
  9 10  1  6
  9 20  1  0
  9 22  1  0
 10 11  1  0
 11 12  2  0
 11 17  1  0
 12 13  1  0
 13 14  2  0
 14 15  1  0
 14 16  1  0
 16 17  2  0
 17 18  1  0
 18 19  2  0
 18 20  1  0
 20 21  1  0
 22 23  2  0
 22 27  1  0
 23 24  1  0
 24 25  2  0
 25 26  1  0
 26 27  2  0
 27 28  1  0
 28 29  1  0
 29 30  1  0
 30 31  1  0
 31 32  1  0
 32 33  1  0
 33 34  1  0
 34 35  2  0
 34 44  1  0
 35 36  1  0
 36 37  2  0
 37 38  1  0
 37 43  1  0
 38 39  2  0
 39 40  1  0
 40 41  1  0
 40 42  2  0
 42 43  1  0
 43 44  2  0
M  CHG  1  32   1
M  END
