
     RDKit          3D

 44 47  0  0  0  0  0  0  0  0999 V2000
   -7.2310    1.4690    3.4220 C   0  0  0  0  0  0  0  0  0  0  0  0
   -6.1880    1.2360    2.3560 C   0  0  0  0  0  0  0  0  0  0  0  0
   -5.1410    1.9320    2.3230 O   0  0  0  0  0  0  0  0  0  0  0  0
   -6.3750    0.2300    1.3810 N   0  0  0  0  0  0  0  0  0  0  0  0
   -5.4350   -0.0690    0.3330 C   0  0  1  0  0  0  0  0  0  0  0  0
   -5.4950    0.8850   -0.8130 C   0  0  0  0  0  0  0  0  0  0  0  0
   -6.8210    0.9140   -1.4650 C   0  0  0  0  0  0  0  0  0  0  0  0
   -7.7670    1.8050   -1.0080 C   0  0  0  0  0  0  0  0  0  0  0  0
   -9.0170    1.8760   -1.5760 C   0  0  0  0  0  0  0  0  0  0  0  0
   -9.3740    1.0560   -2.6270 C   0  0  0  0  0  0  0  0  0  0  0  0
   -8.4160    0.1520   -3.0920 C   0  0  0  0  0  0  0  0  0  0  0  0
   -7.1620    0.0780   -2.5250 C   0  0  0  0  0  0  0  0  0  0  0  0
   -4.0400   -0.2890    0.8480 C   0  0  0  0  0  0  0  0  0  0  0  0
   -3.8450   -0.2530    2.0800 O   0  0  0  0  0  0  0  0  0  0  0  0
   -2.9460   -0.5320    0.0140 N   0  0  0  0  0  0  0  0  0  0  0  0
   -1.5750   -0.7490    0.5310 C   0  0  2  0  0  0  0  0  0  0  0  0
   -0.6510    0.2320   -0.0430 C   0  0  0  0  0  0  0  0  0  0  0  0
   -0.8330    0.5990   -1.2280 O   0  0  0  0  0  0  0  0  0  0  0  0
    0.4680    0.8270    0.6510 N   0  0  0  0  0  0  0  0  0  0  0  0
    0.7650    0.5110    2.0080 C   0  0  0  0  0  0  0  0  0  0  0  0
    2.1410    1.0600    2.2700 C   0  0  2  0  0  0  0  0  0  0  0  0
    2.3030    1.4580    3.5940 O   0  0  0  0  0  0  0  0  0  0  0  0
    2.1790    2.2690    1.3180 C   0  0  0  0  0  0  0  0  0  0  0  0
    1.3900    1.7790    0.1270 C   0  0  1  0  0  0  0  0  0  0  0  0
    2.3330    1.2020   -0.8640 C   0  0  0  0  0  0  0  0  0  0  0  0
    2.2870   -0.0310   -1.0860 O   0  0  0  0  0  0  0  0  0  0  0  0
    3.2830    1.9800   -1.5720 N   0  0  0  0  0  0  0  0  0  0  0  0
    4.2150    1.4660   -2.5350 C   0  0  0  0  0  0  0  0  0  0  0  0
    5.3700    0.7750   -1.9230 C   0  0  0  0  0  0  0  0  0  0  0  0
    5.8730   -0.3780   -2.4830 C   0  0  0  0  0  0  0  0  0  0  0  0
    6.9490   -1.0460   -1.9490 C   0  0  0  0  0  0  0  0  0  0  0  0
    7.6000   -0.5820   -0.7900 C   0  0  0  0  0  0  0  0  0  0  0  0
    8.7150   -1.3160   -0.2480 C   0  0  0  0  0  0  0  0  0  0  0  0
    9.2230   -2.8710   -0.9470 S   0  0  0  0  0  0  0  0  0  0  0  0
   10.6440   -3.0780    0.2820 C   0  0  0  0  0  0  0  0  0  0  0  0
   10.5070   -2.0990    0.9000 N   0  0  0  0  0  0  0  0  0  0  0  0
    9.6140   -1.1380    0.7650 C   0  0  0  0  0  0  0  0  0  0  0  0
    9.6090    0.0630    1.6590 C   0  0  0  0  0  0  0  0  0  0  0  0
    7.1100    0.5470   -0.2380 C   0  0  0  0  0  0  0  0  0  0  0  0
    6.0090    1.2210   -0.7930 C   0  0  0  0  0  0  0  0  0  0  0  0
   -1.2730   -2.1890    0.0940 C   0  0  1  0  0  0  0  0  0  0  0  0
    0.0710   -2.6740    0.4920 C   0  0  0  0  0  0  0  0  0  0  0  0
   -2.3440   -3.0310    0.8070 C   0  0  0  0  0  0  0  0  0  0  0  0
   -1.5250   -2.3950   -1.3790 C   0  0  0  0  0  0  0  0  0  0  0  0
  1  2  1  0
  2  3  2  0
  2  4  1  0
  4  5  1  0
  5  6  1  6
  5 13  1  0
  6  7  1  0
  7  8  2  0
  7 12  1  0
  8  9  1  0
  9 10  2  0
 10 11  1  0
 11 12  2  0
 13 14  2  0
 13 15  1  0
 16 15  1  6
 16 17  1  0
 16 41  1  0
 17 18  2  0
 17 19  1  0
 19 20  1  0
 19 24  1  0
 20 21  1  0
 21 22  1  1
 21 23  1  0
 23 24  1  0
 24 25  1  6
 25 26  2  0
 25 27  1  0
 27 28  1  0
 28 29  1  0
 29 30  2  0
 29 40  1  0
 30 31  1  0
 31 32  2  0
 32 33  1  0
 32 39  1  0
 33 34  1  0
 33 37  2  0
 34 35  1  0
 35 36  2  0
 36 37  1  0
 37 38  1  0
 39 40  2  0
 41 42  1  1
 41 43  1  0
 41 44  1  0
M  END
