
     RDKit          3D

 44 50  0  0  0  0  0  0  0  0999 V2000
   -4.3740   -0.4900   -0.9150 C   0  0  0  0  0  0  0  0  0  0  0  0
   -4.6350   -1.1700    0.3810 C   0  0  0  0  0  0  0  0  0  0  0  0
   -5.9330   -1.2850    0.8770 C   0  0  0  0  0  0  0  0  0  0  0  0
   -7.0590   -0.8210    0.1570 N   0  0  0  0  0  0  0  0  0  0  0  0
   -8.3800   -0.9650    0.7570 C   0  0  0  0  0  0  0  0  0  0  0  0
   -9.4530   -0.4020   -0.1480 C   0  0  1  0  0  0  0  0  0  0  0  0
  -10.6610   -0.5680    0.4710 F   0  0  0  0  0  0  0  0  0  0  0  0
   -9.1460    0.9200   -0.3760 F   0  0  0  0  0  0  0  0  0  0  0  0
   -6.1330   -1.8880    2.1140 C   0  0  0  0  0  0  0  0  0  0  0  0
   -5.0880   -2.3710    2.8610 C   0  0  0  0  0  0  0  0  0  0  0  0
   -3.8060   -2.2540    2.3620 C   0  0  0  0  0  0  0  0  0  0  0  0
   -3.5770   -1.6570    1.1270 C   0  0  0  0  0  0  0  0  0  0  0  0
   -2.1890   -1.6880    0.8450 N   0  0  0  0  0  0  0  0  0  0  0  0
   -1.5280   -1.7920   -0.3760 C   0  0  0  0  0  0  0  0  0  0  0  0
   -2.0390   -1.9990   -1.5080 O   0  0  0  0  0  0  0  0  0  0  0  0
   -0.0530   -1.6440   -0.3730 C   0  0  0  0  0  0  0  0  0  0  0  0
    0.7000   -2.7790   -0.2090 C   0  0  0  0  0  0  0  0  0  0  0  0
    2.0940   -2.7100   -0.1970 C   0  0  0  0  0  0  0  0  0  0  0  0
    2.8870   -3.7710   -0.0400 N   0  0  0  0  0  0  0  0  0  0  0  0
    4.2330   -3.6730   -0.0290 C   0  0  0  0  0  0  0  0  0  0  0  0
    4.8770   -2.4370   -0.1840 C   0  0  0  0  0  0  0  0  0  0  0  0
    6.2690   -2.3370   -0.1570 N   0  0  0  0  0  0  0  0  0  0  0  0
    7.0940   -1.2550   -0.5220 C   0  0  0  0  0  0  0  0  0  0  0  0
    6.5550   -0.2070   -0.9440 O   0  0  0  0  0  0  0  0  0  0  0  0
    8.5870   -1.3320   -0.4160 C   0  0  1  0  0  0  0  0  0  0  0  0
    9.1970   -2.0410    0.7370 C   0  0  0  0  0  0  0  0  0  0  0  0
    9.2320   -2.6410   -0.6130 C   0  0  0  0  0  0  0  0  0  0  0  0
    4.0610   -1.3520   -0.3450 C   0  0  0  0  0  0  0  0  0  0  0  0
    2.6750   -1.4830   -0.3520 C   0  0  0  0  0  0  0  0  0  0  0  0
    1.9030   -0.3440   -0.5160 C   0  0  0  0  0  0  0  0  0  0  0  0
    0.5150   -0.4000   -0.5300 C   0  0  0  0  0  0  0  0  0  0  0  0
   -0.2710    0.8220   -0.7030 C   0  0  0  0  0  0  0  0  0  0  0  0
    0.4600    2.0350   -0.8490 N   0  0  2  0  0  0  0  0  0  0  0  0
    1.0250    2.5180    0.3920 C   0  0  0  0  0  0  0  0  0  0  0  0
    2.1470    3.4700    0.0400 C   0  0  0  0  0  0  0  0  0  0  0  0
    1.5520    4.5600   -0.7780 C   0  0  0  0  0  0  0  0  0  0  0  0
    2.1940    5.7770   -0.9130 C   0  0  0  0  0  0  0  0  0  0  0  0
    1.6530    6.7900   -1.6640 C   0  0  0  0  0  0  0  0  0  0  0  0
    0.4430    6.6400   -2.3200 C   0  0  0  0  0  0  0  0  0  0  0  0
   -0.1960    5.4280   -2.1860 C   0  0  0  0  0  0  0  0  0  0  0  0
    0.3470    4.3830   -1.4200 C   0  0  0  0  0  0  0  0  0  0  0  0
   -0.4170    3.1130   -1.3330 C   0  0  0  0  0  0  0  0  0  0  0  0
   -1.5480   -1.6550    2.1780 C   0  0  0  0  0  0  0  0  0  0  0  0
   -2.4750   -2.6420    2.9310 C   0  0  0  0  0  0  0  0  0  0  0  0
  1  2  1  0
  2  3  2  0
  2 12  1  0
  3  4  1  0
  3  9  1  0
  4  5  1  0
  5  6  1  0
  6  7  1  1
  6  8  1  0
  9 10  2  0
 10 11  1  0
 11 12  2  0
 11 44  1  0
 12 13  1  0
 13 14  1  0
 13 43  1  0
 14 15  2  0
 14 16  1  0
 16 17  2  0
 16 31  1  0
 17 18  1  0
 18 19  2  0
 18 29  1  0
 19 20  1  0
 20 21  2  0
 21 22  1  0
 21 28  1  0
 22 23  1  0
 23 24  2  0
 25 23  1  1
 25 26  1  0
 25 27  1  0
 26 27  1  0
 28 29  2  0
 29 30  1  0
 30 31  2  0
 31 32  1  0
 33 32  1  1
 33 34  1  0
 33 42  1  0
 34 35  1  0
 35 36  1  0
 36 37  2  0
 36 41  1  0
 37 38  1  0
 38 39  2  0
 39 40  1  0
 40 41  2  0
 41 42  1  0
 43 44  1  0
M  CHG  1  33   1
M  END
