
     RDKit          3D

 41 44  0  0  0  0  0  0  0  0999 V2000
   -2.9670   -4.5470    2.7610 C   0  0  0  0  0  0  0  0  0  0  0  0
   -3.2270   -3.3410    3.6290 C   0  0  0  0  0  0  0  0  0  0  0  0
   -4.5570   -2.3650    3.0090 S   0  0  1  0  0  0  0  0  0  0  0  0
   -5.7900   -3.2540    3.0020 O   0  0  0  0  0  0  0  0  0  0  0  0
   -4.8470   -1.2520    4.0000 O   0  0  0  0  0  0  0  0  0  0  0  0
   -4.2480   -1.7710    1.4600 N   0  0  0  0  0  0  0  0  0  0  0  0
   -3.1840   -0.8730    1.0860 C   0  0  0  0  0  0  0  0  0  0  0  0
   -3.5020    0.3990    0.8850 C   0  0  0  0  0  0  0  0  0  0  0  0
   -4.9170    0.7870    1.0670 C   0  0  0  0  0  0  0  0  0  0  0  0
   -5.4620    1.9530    0.9410 C   0  0  0  0  0  0  0  0  0  0  0  0
   -4.8990    3.2550    0.5900 C   0  0  0  0  0  0  0  0  0  0  0  0
   -6.0500    4.2280    0.2880 C   0  0  0  0  0  0  0  0  0  0  0  0
   -7.0060    3.5970   -0.6860 C   0  0  0  0  0  0  0  0  0  0  0  0
   -7.5830    2.2990   -0.1470 C   0  0  0  0  0  0  0  0  0  0  0  0
   -6.9770    2.0060    1.2090 C   0  0  1  0  0  0  0  0  0  0  0  0
   -7.4300    0.8080    1.6970 O   0  0  0  0  0  0  0  0  0  0  0  0
   -2.5070    1.3880    0.4530 C   0  0  0  0  0  0  0  0  0  0  0  0
   -1.1810    0.8400    0.3890 N   0  0  0  0  0  0  0  0  0  0  0  0
   -0.2800    1.4150   -0.5870 C   0  0  0  0  0  0  0  0  0  0  0  0
   -0.6440    2.3390   -1.3150 O   0  0  0  0  0  0  0  0  0  0  0  0
    1.0980    0.7930   -0.6210 C   0  0  0  0  0  0  0  0  0  0  0  0
    1.8330    1.4840   -1.7040 C   0  0  0  0  0  0  0  0  0  0  0  0
    3.2300    1.1000   -1.9720 C   0  0  2  0  0  0  0  0  0  0  0  0
    3.7070    1.9810   -3.1430 C   0  0  0  0  0  0  0  0  0  0  0  0
    3.7460    1.2080   -4.4420 C   0  0  0  0  0  0  0  0  0  0  0  0
    2.6490    0.2030   -4.5910 C   0  0  0  0  0  0  0  0  0  0  0  0
    2.4960   -0.7280   -3.4090 C   0  0  0  0  0  0  0  0  0  0  0  0
    3.4910   -0.3160   -2.3780 C   0  0  2  0  0  0  0  0  0  0  0  0
    3.6870   -1.2160   -1.2950 N   0  0  0  0  0  0  0  0  0  0  0  0
    4.9670   -1.7480   -0.9380 C   0  0  0  0  0  0  0  0  0  0  0  0
    5.9880   -1.4320   -1.5880 O   0  0  0  0  0  0  0  0  0  0  0  0
    5.1280   -2.6420    0.1540 N   0  0  0  0  0  0  0  0  0  0  0  0
    6.3980   -3.2040    0.5730 C   0  0  0  0  0  0  0  0  0  0  0  0
    7.2030   -2.1870    1.3090 C   0  0  0  0  0  0  0  0  0  0  0  0
    8.1940   -1.5120    0.6420 C   0  0  0  0  0  0  0  0  0  0  0  0
    8.9520   -0.5410    1.3040 C   0  0  0  0  0  0  0  0  0  0  0  0
    8.6470   -0.3120    2.6310 C   0  0  0  0  0  0  0  0  0  0  0  0
    7.6370   -1.0140    3.2710 C   0  0  0  0  0  0  0  0  0  0  0  0
    6.9210   -1.9530    2.5940 N   0  0  0  0  0  0  0  0  0  0  0  0
   -0.8120   -0.2320    1.2620 C   0  0  0  0  0  0  0  0  0  0  0  0
   -1.8040   -1.3810    0.9630 C   0  0  0  0  0  0  0  0  0  0  0  0
  1  2  1  0
  3  2  1  1
  3  4  2  0
  3  5  2  0
  3  6  1  0
  6  7  1  0
  7  8  2  0
  7 41  1  0
  8  9  1  0
  8 17  1  0
  9 10  2  3
 10 11  1  0
 10 15  1  0
 11 12  1  0
 12 13  1  0
 13 14  1  0
 14 15  1  0
 15 16  1  6
 17 18  1  0
 18 19  1  0
 18 40  1  0
 19 20  2  0
 19 21  1  0
 21 22  1  0
 23 22  1  6
 23 24  1  0
 23 28  1  0
 24 25  1  0
 25 26  1  0
 26 27  1  0
 27 28  1  0
 28 29  1  1
 29 30  1  0
 30 31  2  0
 30 32  1  0
 32 33  1  0
 33 34  1  0
 34 35  2  0
 34 39  1  0
 35 36  1  0
 36 37  2  0
 37 38  1  0
 38 39  2  0
 40 41  1  0
M  END
