
     RDKit          3D

 41 44  0  0  0  0  0  0  0  0999 V2000
    1.5780   -1.6080   -2.6670 C   0  0  0  0  0  0  0  0  0  0  0  0
    1.4070   -1.0240   -1.3270 C   0  0  0  0  0  0  0  0  0  0  0  0
    0.1800   -0.6370   -0.9940 C   0  0  0  0  0  0  0  0  0  0  0  0
   -0.9580   -0.7480   -1.8400 C   0  0  0  0  0  0  0  0  0  0  0  0
   -2.1690   -0.3700   -1.3650 C   0  0  0  0  0  0  0  0  0  0  0  0
   -2.8420    0.1040   -0.3400 C   0  0  0  0  0  0  0  0  0  0  0  0
   -2.3670    0.4470    0.8260 O   0  0  0  0  0  0  0  0  0  0  0  0
   -4.2870    0.2910   -0.4020 N   0  0  0  0  0  0  0  0  0  0  0  0
   -4.9840    0.0170   -1.6570 C   0  0  0  0  0  0  0  0  0  0  0  0
   -6.4170    0.3880   -1.4900 C   0  0  0  0  0  0  0  0  0  0  0  0
   -7.0620   -0.1340   -0.3370 N   0  0  0  0  0  0  0  0  0  0  0  0
   -7.8280   -1.2880   -0.6510 C   0  0  0  0  0  0  0  0  0  0  0  0
   -8.8090   -1.6750    0.4170 C   0  0  0  0  0  0  0  0  0  0  0  0
   -9.4320   -2.9530    0.2470 S   0  0  0  0  0  0  0  0  0  0  0  0
   -9.2180   -0.9140    1.6060 C   0  0  0  0  0  0  0  0  0  0  0  0
   -8.5740    0.4570    1.6340 C   0  0  1  0  0  0  0  0  0  0  0  0
   -9.2700    1.3530    2.6100 C   0  0  0  0  0  0  0  0  0  0  0  0
   -7.1040    0.3700    2.0090 C   0  0  0  0  0  0  0  0  0  0  0  0
   -6.2990   -0.1970    0.8640 C   0  0  2  0  0  0  0  0  0  0  0  0
   -5.0470    0.6900    0.7060 C   0  0  0  0  0  0  0  0  0  0  0  0
    2.4950   -0.7770   -0.4110 C   0  0  0  0  0  0  0  0  0  0  0  0
    3.7430   -1.1070   -0.4350 C   0  0  0  0  0  0  0  0  0  0  0  0
    4.3670   -1.9080   -1.5240 C   0  0  0  0  0  0  0  0  0  0  0  0
    5.6840   -2.1650   -1.4390 C   0  0  0  0  0  0  0  0  0  0  0  0
    6.3460   -2.9360   -2.4400 C   0  0  0  0  0  0  0  0  0  0  0  0
    5.6730   -3.4990   -3.5590 N   0  0  0  0  0  0  0  0  0  0  0  0
    7.6020   -3.1420   -2.3520 O   0  0  0  0  0  0  0  0  0  0  0  0
    4.6060   -0.7280    0.5950 O   0  0  0  0  0  0  0  0  0  0  0  0
    5.5110    0.2990    0.4730 C   0  0  0  0  0  0  0  0  0  0  0  0
    5.6640    1.0850   -0.5960 C   0  0  0  0  0  0  0  0  0  0  0  0
    6.6170    2.1100   -0.6590 C   0  0  0  0  0  0  0  0  0  0  0  0
    7.4560    2.3510    0.4120 C   0  0  0  0  0  0  0  0  0  0  0  0
    7.3190    1.5340    1.5640 C   0  0  0  0  0  0  0  0  0  0  0  0
    8.2580    1.7850    2.6730 C   0  0  2  0  0  0  0  0  0  0  0  0
    8.4910    3.1900    2.8010 N   0  0  0  0  0  0  0  0  0  0  0  0
    9.7850    3.4870    2.2810 C   0  0  0  0  0  0  0  0  0  0  0  0
   10.2550    4.6710    2.0960 O   0  0  0  0  0  0  0  0  0  0  0  0
   10.4480    2.2730    2.0100 N   0  0  0  0  0  0  0  0  0  0  0  0
    9.5660    1.1930    2.3630 C   0  0  0  0  0  0  0  0  0  0  0  0
    9.9770    0.0090    2.3630 O   0  0  0  0  0  0  0  0  0  0  0  0
    6.3810    0.5610    1.5670 C   0  0  0  0  0  0  0  0  0  0  0  0
  1  2  1  0
  2  3  2  3
  2 21  1  0
  3  4  1  0
  4  5  2  3
  5  6  1  0
  6  7  2  0
  6  8  1  0
  8  9  1  0
  8 20  1  0
  9 10  1  0
 10 11  1  0
 11 12  1  0
 11 19  1  0
 12 13  1  0
 13 14  2  0
 13 15  1  0
 15 16  1  0
 16 17  1  1
 16 18  1  0
 19 18  1  1
 19 20  1  0
 21 22  2  3
 22 23  1  0
 22 28  1  0
 23 24  2  3
 24 25  1  0
 25 26  1  0
 25 27  2  0
 28 29  1  0
 29 30  2  0
 29 41  1  0
 30 31  1  0
 31 32  2  0
 32 33  1  0
 34 33  1  6
 33 41  2  0
 34 35  1  0
 34 39  1  0
 35 36  1  0
 36 37  2  0
 36 38  1  0
 38 39  1  0
 39 40  2  0
M  END
