
     RDKit          3D

 41 44  0  0  0  0  0  0  0  0999 V2000
    8.3520   -0.5830    1.2560 C   0  0  0  0  0  0  0  0  0  0  0  0
    6.9670   -0.4010    0.6710 C   0  0  0  0  0  0  0  0  0  0  0  0
    6.0410   -0.8580    1.3260 O   0  0  0  0  0  0  0  0  0  0  0  0
    6.8130    0.2660   -0.5660 N   0  0  0  0  0  0  0  0  0  0  0  0
    7.9850    0.6930   -1.2620 C   0  0  0  0  0  0  0  0  0  0  0  0
    9.1480    0.3510   -0.9280 O   0  0  0  0  0  0  0  0  0  0  0  0
    7.8490    1.5910   -2.4520 C   0  0  2  0  0  0  0  0  0  0  0  0
    8.1110    3.0090   -2.0850 C   0  0  1  0  0  0  0  0  0  0  0  0
    7.9700    4.0020   -3.1880 C   0  0  0  0  0  0  0  0  0  0  0  0
    7.3950    3.4560   -0.8520 C   0  0  0  0  0  0  0  0  0  0  0  0
    6.6900    1.3660   -3.2280 N   0  0  0  0  0  0  0  0  0  0  0  0
    5.6790    0.4640   -2.6490 C   0  0  0  0  0  0  0  0  0  0  0  0
    5.0750   -0.2370   -3.4730 O   0  0  0  0  0  0  0  0  0  0  0  0
    5.5330    0.5170   -1.2030 C   0  0  1  0  0  0  0  0  0  0  0  0
    4.4580   -0.3450   -0.6610 C   0  0  0  0  0  0  0  0  0  0  0  0
    3.1310   -0.1480   -1.3290 C   0  0  0  0  0  0  0  0  0  0  0  0
    2.9570    0.4100   -2.4230 O   0  0  0  0  0  0  0  0  0  0  0  0
    1.9900   -0.6600   -0.6150 N   0  0  0  0  0  0  0  0  0  0  0  0
    0.6920   -0.5570   -1.2030 C   0  0  0  0  0  0  0  0  0  0  0  0
   -0.3610   -0.9780   -0.2480 C   0  0  0  0  0  0  0  0  0  0  0  0
    0.0070   -1.2690    0.9370 O   0  0  0  0  0  0  0  0  0  0  0  0
   -1.7170   -1.0400   -0.6620 N   0  0  0  0  0  0  0  0  0  0  0  0
   -2.7560   -1.3800    0.2270 C   0  0  0  0  0  0  0  0  0  0  0  0
   -4.0080   -1.4630   -0.1300 C   0  0  0  0  0  0  0  0  0  0  0  0
   -4.4260   -1.1990   -1.5450 C   0  0  1  0  0  0  0  0  0  0  0  0
   -4.5500   -2.4630   -2.2990 C   0  0  0  0  0  0  0  0  0  0  0  0
   -4.9410   -2.4020   -3.7400 C   0  0  0  0  0  0  0  0  0  0  0  0
   -6.2440   -1.8280   -3.8850 N   0  0  0  0  0  0  0  0  0  0  0  0
   -5.7520   -0.4640   -1.4690 C   0  0  0  0  0  0  0  0  0  0  0  0
   -6.7230   -1.3250   -0.7600 C   0  0  0  0  0  0  0  0  0  0  0  0
   -6.3730   -1.9400    0.3390 C   0  0  0  0  0  0  0  0  0  0  0  0
   -5.0310   -1.8170    0.9180 C   0  0  2  0  0  0  0  0  0  0  0  0
   -4.9840   -0.8890    2.0830 C   0  0  0  0  0  0  0  0  0  0  0  0
   -3.8350   -0.7040    2.7160 C   0  0  0  0  0  0  0  0  0  0  0  0
   -3.6670    0.1710    3.8540 C   0  0  0  0  0  0  0  0  0  0  0  0
   -4.9740    0.4300    4.5460 C   0  0  2  0  0  0  0  0  0  0  0  0
   -4.8100    1.6100    5.5010 C   0  0  0  0  0  0  0  0  0  0  0  0
   -5.3550   -0.8200    5.3230 C   0  0  0  0  0  0  0  0  0  0  0  0
   -6.0070    0.8330    3.5440 C   0  0  0  0  0  0  0  0  0  0  0  0
   -6.2410   -0.2140    2.4830 C   0  0  0  0  0  0  0  0  0  0  0  0
   -2.4120   -1.6480    2.0150 S   0  0  0  0  0  0  0  0  0  0  0  0
  1  2  1  0
  2  3  2  0
  2  4  1  0
  4  5  1  0
  4 14  1  0
  5  6  2  0
  5  7  1  0
  7  8  1  0
  7 11  1  1
  8  9  1  6
  8 10  1  0
 11 12  1  0
 12 13  2  0
 12 14  1  0
 14 15  1  1
 15 16  1  0
 16 17  2  0
 16 18  1  0
 18 19  1  0
 19 20  1  0
 20 21  2  0
 20 22  1  0
 22 23  1  0
 23 24  2  0
 23 41  1  0
 24 25  1  0
 24 32  1  0
 25 26  1  6
 25 29  1  0
 26 27  1  0
 27 28  1  0
 29 30  1  0
 30 31  2  0
 32 31  1  6
 32 33  1  0
 33 34  2  0
 33 40  1  0
 34 35  1  0
 34 41  1  0
 35 36  1  0
 36 37  1  1
 36 38  1  0
 36 39  1  0
 39 40  1  0
M  END
