
     RDKit          3D

 41 43  0  0  0  0  0  0  0  0999 V2000
    7.8340   -0.1970   -5.2850 C   0  0  0  0  0  0  0  0  0  0  0  0
    7.4400   -0.2780   -4.0230 C   0  0  0  0  0  0  0  0  0  0  0  0
    7.4960   -1.5930   -3.3460 C   0  0  0  0  0  0  0  0  0  0  0  0
    6.1820   -1.9640   -2.9340 N   0  0  0  0  0  0  0  0  0  0  0  0
    5.4330   -1.1630   -2.0290 C   0  0  0  0  0  0  0  0  0  0  0  0
    5.9440   -0.0910   -1.5850 O   0  0  0  0  0  0  0  0  0  0  0  0
    4.1480   -1.5190   -1.6060 N   0  0  0  0  0  0  0  0  0  0  0  0
    3.3190   -0.7970   -0.7200 C   0  0  0  0  0  0  0  0  0  0  0  0
    3.4600    0.5420   -0.5420 C   0  0  0  0  0  0  0  0  0  0  0  0
    2.6430    1.1510    0.3580 C   0  0  0  0  0  0  0  0  0  0  0  0
    1.6340    0.4980    1.1420 C   0  0  0  0  0  0  0  0  0  0  0  0
    1.5090   -0.8510    0.9510 C   0  0  0  0  0  0  0  0  0  0  0  0
    2.3570   -1.4680    0.0190 C   0  0  0  0  0  0  0  0  0  0  0  0
    0.6820   -1.8410    1.6300 N   0  0  0  0  0  0  0  0  0  0  0  0
    1.3890   -3.0760    2.0790 C   0  0  2  0  0  0  0  0  0  0  0  0
    0.8280   -4.3560    1.3560 C   0  0  0  0  0  0  0  0  0  0  0  0
    0.8680   -4.1680    2.8260 C   0  0  0  0  0  0  0  0  0  0  0  0
   -0.6830   -1.7680    1.8950 C   0  0  0  0  0  0  0  0  0  0  0  0
   -1.1780   -2.3500    2.9220 O   0  0  0  0  0  0  0  0  0  0  0  0
   -1.7240   -1.0480    1.0890 C   0  0  0  0  0  0  0  0  0  0  0  0
   -3.0740   -1.6150    1.0760 C   0  0  2  0  0  0  0  0  0  0  0  0
   -3.6300   -2.0820   -0.1640 N   0  0  0  0  0  0  0  0  0  0  0  0
   -4.0980   -3.7170   -0.2000 S   0  0  1  0  0  0  0  0  0  0  0  0
   -2.7550   -4.8620    0.0200 C   0  0  0  0  0  0  0  0  0  0  0  0
   -5.0030   -3.9710    1.0300 O   0  0  0  0  0  0  0  0  0  0  0  0
   -4.9270   -4.0830   -1.3740 O   0  0  0  0  0  0  0  0  0  0  0  0
   -4.0210   -0.4980    1.5750 C   0  0  2  0  0  0  0  0  0  0  0  0
   -5.4120   -0.6740    1.0030 C   0  0  0  0  0  0  0  0  0  0  0  0
   -3.5350    0.8800    1.3430 C   0  0  0  0  0  0  0  0  0  0  0  0
   -2.8080    1.1550    0.0930 C   0  0  0  0  0  0  0  0  0  0  0  0
   -1.7590    1.9670   -0.0190 C   0  0  0  0  0  0  0  0  0  0  0  0
   -1.1070    2.7460    1.0340 C   0  0  0  0  0  0  0  0  0  0  0  0
   -1.3030    4.0480    0.9980 C   0  0  0  0  0  0  0  0  0  0  0  0
   -1.9560    5.0470    0.2610 C   0  0  0  0  0  0  0  0  0  0  0  0
   -2.7440    5.0780   -0.8960 C   0  0  0  0  0  0  0  0  0  0  0  0
   -3.2260    4.2390   -1.7170 C   0  0  0  0  0  0  0  0  0  0  0  0
   -1.7140    6.3180    0.8390 C   0  0  0  0  0  0  0  0  0  0  0  0
   -2.2750    7.5440    0.2830 C   0  0  0  0  0  0  0  0  0  0  0  0
   -0.2470    2.1220    2.0840 C   0  0  0  0  0  0  0  0  0  0  0  0
   -0.7200    2.2890    3.2640 O   0  0  0  0  0  0  0  0  0  0  0  0
    0.9740    1.4070    1.9830 N   0  0  0  0  0  0  0  0  0  0  0  0
  1  2  2  0
  2  3  1  0
  3  4  1  0
  4  5  1  0
  5  6  2  0
  5  7  1  0
  7  8  1  0
  8  9  2  0
  8 13  1  0
  9 10  1  0
 10 11  2  0
 11 12  1  0
 11 41  1  0
 12 13  2  0
 12 14  1  0
 15 14  1  6
 14 18  1  0
 15 16  1  0
 15 17  1  0
 16 17  1  0
 18 19  2  0
 18 20  1  0
 20 21  1  0
 21 22  1  6
 21 27  1  0
 22 23  1  0
 23 24  1  1
 23 25  2  0
 23 26  2  0
 27 28  1  6
 27 29  1  0
 29 30  1  0
 30 31  2  0
 31 32  1  0
 32 33  2  3
 32 39  1  0
 33 34  1  0
 34 35  1  0
 34 37  2  3
 35 36  2  0
 37 38  1  0
 39 40  2  0
 39 41  1  0
M  END
