
     RDKit          3D

 41 43  0  0  0  0  0  0  0  0999 V2000
   -5.3770    1.3370   -2.1930 C   0  0  0  0  0  0  0  0  0  0  0  0
   -4.2740    0.3140   -2.0510 C   0  0  0  0  0  0  0  0  0  0  0  0
   -3.7050    0.2470   -0.7260 N   0  0  0  0  0  0  0  0  0  0  0  0
   -4.3250   -0.5960    0.2470 C   0  0  0  0  0  0  0  0  0  0  0  0
   -5.6270   -0.4210    0.2950 O   0  0  0  0  0  0  0  0  0  0  0  0
   -3.7980   -1.5730    1.1620 C   0  0  0  0  0  0  0  0  0  0  0  0
   -4.0890   -1.3310    2.5170 C   0  0  0  0  0  0  0  0  0  0  0  0
   -3.7020   -2.1510    3.5440 C   0  0  0  0  0  0  0  0  0  0  0  0
   -2.9860   -3.2860    3.2690 C   0  0  0  0  0  0  0  0  0  0  0  0
   -2.6810   -3.5620    1.9640 C   0  0  0  0  0  0  0  0  0  0  0  0
   -3.0720   -2.7260    0.8840 C   0  0  0  0  0  0  0  0  0  0  0  0
   -2.7080   -3.1950   -0.3830 N   0  0  0  0  0  0  0  0  0  0  0  0
   -2.0330   -2.6020   -1.4700 C   0  0  0  0  0  0  0  0  0  0  0  0
   -2.5890   -2.4780   -2.6090 O   0  0  0  0  0  0  0  0  0  0  0  0
   -0.6570   -2.0990   -1.3410 C   0  0  0  0  0  0  0  0  0  0  0  0
    0.4260   -3.1350   -1.3840 C   0  0  0  0  0  0  0  0  0  0  0  0
    1.2130   -2.9990   -0.1330 C   0  0  0  0  0  0  0  0  0  0  0  0
    1.4620   -4.0470    0.5150 O   0  0  0  0  0  0  0  0  0  0  0  0
    1.6450   -1.7210    0.2780 N   0  0  0  0  0  0  0  0  0  0  0  0
    2.0080   -0.7440   -0.6770 C   0  0  2  0  0  0  0  0  0  0  0  0
    3.5030   -0.6090   -0.6150 C   0  0  0  0  0  0  0  0  0  0  0  0
    4.2140   -0.3920   -1.7720 C   0  0  0  0  0  0  0  0  0  0  0  0
    5.5830   -0.2920   -1.6810 C   0  0  0  0  0  0  0  0  0  0  0  0
    6.2460   -0.3970   -0.5150 N   0  0  0  0  0  0  0  0  0  0  0  0
    5.5820   -0.6080    0.6270 C   0  0  0  0  0  0  0  0  0  0  0  0
    6.2250   -0.7230    1.8550 O   0  0  0  0  0  0  0  0  0  0  0  0
    7.6110   -0.6290    2.0070 C   0  0  0  0  0  0  0  0  0  0  0  0
    4.2100   -0.7140    0.5740 C   0  0  0  0  0  0  0  0  0  0  0  0
    1.3680    0.6070   -0.6030 C   0  0  0  0  0  0  0  0  0  0  0  0
    1.2170    1.0830    0.7760 C   0  0  0  0  0  0  0  0  0  0  0  0
    0.7830    2.5030    0.9270 C   0  0  0  0  0  0  0  0  0  0  0  0
    1.8870    3.4440    0.6980 C   0  0  0  0  0  0  0  0  0  0  0  0
    3.0940    3.0620    0.4220 C   0  0  0  0  0  0  0  0  0  0  0  0
    4.3750    4.3030    0.1550 S   0  0  0  0  0  0  0  0  0  0  0  0
    4.5120    5.0630    1.4790 O   0  0  0  0  0  0  0  0  0  0  0  0
   -0.4030    2.9540    1.2310 C   0  0  0  0  0  0  0  0  0  0  0  0
   -1.6880    2.3830    1.5310 C   0  0  0  0  0  0  0  0  0  0  0  0
   -2.5430    1.6500    0.9290 C   0  0  0  0  0  0  0  0  0  0  0  0
   -2.5290    1.0500   -0.4530 C   0  0  2  0  0  0  0  0  0  0  0  0
   -2.1350    1.9730   -1.5100 C   0  0  0  0  0  0  0  0  0  0  0  0
   -3.0020    2.9830   -1.9550 N   0  0  0  0  0  0  0  0  0  0  0  0
  1  2  1  0
  2  3  1  0
  3  4  1  0
  3 39  1  0
  4  5  2  0
  4  6  1  0
  6  7  2  0
  6 11  1  0
  7  8  1  0
  8  9  2  0
  9 10  1  0
 10 11  2  0
 11 12  1  0
 12 13  1  0
 13 14  2  0
 13 15  1  0
 15 16  1  0
 16 17  1  0
 17 18  2  0
 17 19  1  0
 19 20  1  0
 20 21  1  1
 20 29  1  0
 21 22  2  0
 21 28  1  0
 22 23  1  0
 23 24  2  0
 24 25  1  0
 25 26  1  0
 25 28  2  0
 26 27  1  0
 29 30  1  0
 30 31  1  0
 31 32  1  0
 31 36  2  0
 32 33  2  3
 33 34  1  0
 34 35  2  0
 36 37  1  0
 37 38  2  0
 38 39  1  0
 39 40  1  6
 40 41  1  0
M  END
