
     RDKit          3D

 41 43  0  0  0  0  0  0  0  0999 V2000
   -2.4300    1.6690   -2.9840 C   0  0  0  0  0  0  0  0  0  0  0  0
   -2.2200    0.6040   -1.9850 C   0  0  0  0  0  0  0  0  0  0  0  0
   -3.1770   -0.2440   -1.6720 C   0  0  0  0  0  0  0  0  0  0  0  0
   -4.3900    0.0280   -2.4200 C   0  0  0  0  0  0  0  0  0  0  0  0
   -5.4640   -0.6410   -2.7720 C   0  0  0  0  0  0  0  0  0  0  0  0
   -6.0590   -1.9520   -2.6440 C   0  0  0  0  0  0  0  0  0  0  0  0
   -5.2080   -3.0000   -2.2170 N   0  0  0  0  0  0  0  0  0  0  0  0
   -4.7080   -2.8400   -0.9240 N   0  0  0  0  0  0  0  0  0  0  0  0
   -3.4760   -2.3570   -0.3600 C   0  0  0  0  0  0  0  0  0  0  0  0
   -3.0400   -3.0800    0.5540 O   0  0  0  0  0  0  0  0  0  0  0  0
   -2.6530   -1.1940   -0.6630 C   0  0  2  0  0  0  0  0  0  0  0  0
   -1.9600   -0.5500    0.4530 N   0  0  0  0  0  0  0  0  0  0  0  0
   -0.5490   -0.7810    0.4810 C   0  0  0  0  0  0  0  0  0  0  0  0
   -0.1770   -1.6560   -0.3940 O   0  0  0  0  0  0  0  0  0  0  0  0
    0.4170   -0.2090    1.2870 N   0  0  0  0  0  0  0  0  0  0  0  0
    1.8110   -0.4620    1.2740 C   0  0  0  0  0  0  0  0  0  0  0  0
    2.6500   -0.0250    0.0980 C   0  0  2  0  0  0  0  0  0  0  0  0
    2.4860    1.5030   -0.0730 C   0  0  0  0  0  0  0  0  0  0  0  0
    3.4960    2.0180   -1.4660 S   0  0  0  0  0  0  0  0  0  0  0  0
    2.4350   -0.7350   -1.1570 C   0  0  0  0  0  0  0  0  0  0  0  0
    3.5220   -0.6450   -2.1950 C   0  0  0  0  0  0  0  0  0  0  0  0
    4.8780   -0.5310   -1.6700 C   0  0  0  0  0  0  0  0  0  0  0  0
    5.9690   -0.6600   -2.5490 C   0  0  0  0  0  0  0  0  0  0  0  0
    7.2670   -0.5570   -2.1180 C   0  0  0  0  0  0  0  0  0  0  0  0
    7.5300   -0.3170   -0.7720 C   0  0  0  0  0  0  0  0  0  0  0  0
    8.9270   -0.2120   -0.3390 C   0  0  0  0  0  0  0  0  0  0  0  0
    9.8460   -0.3360   -1.1880 O   0  0  0  0  0  0  0  0  0  0  0  0
    9.2710    0.0180    0.9660 O   0  0  0  0  0  0  0  0  0  0  0  0
   10.6140    0.1240    1.4190 C   0  0  0  0  0  0  0  0  0  0  0  0
    6.4760   -0.1960    0.0600 C   0  0  0  0  0  0  0  0  0  0  0  0
    5.1280   -0.2980   -0.3540 C   0  0  0  0  0  0  0  0  0  0  0  0
    4.0750   -0.1560    0.6350 C   0  0  0  0  0  0  0  0  0  0  0  0
   -2.5630    0.2580    1.4240 C   0  0  2  0  0  0  0  0  0  0  0  0
   -2.0200    1.6910    1.3120 C   0  0  0  0  0  0  0  0  0  0  0  0
   -2.3220   -0.1600    2.8610 C   0  0  0  0  0  0  0  0  0  0  0  0
   -2.8100   -1.5360    3.2100 C   0  0  0  0  0  0  0  0  0  0  0  0
   -4.0540    0.4410    1.2970 C   0  0  0  0  0  0  0  0  0  0  0  0
   -4.8350   -0.1980    0.6110 O   0  0  0  0  0  0  0  0  0  0  0  0
   -4.6160    1.4970    2.0770 N   0  0  0  0  0  0  0  0  0  0  0  0
   -6.0610    1.7700    2.0330 C   0  0  0  0  0  0  0  0  0  0  0  0
   -6.3860    2.9100    2.9350 C   0  0  0  0  0  0  0  0  0  0  0  0
  1  2  1  0
  2  3  2  3
  3  4  1  0
  3 11  1  0
  4  5  2  0
  5  6  1  0
  6  7  1  0
  7  8  1  0
  8  9  1  0
  9 10  2  0
  9 11  1  0
 11 12  1  1
 12 13  1  0
 12 33  1  0
 13 14  2  0
 13 15  1  0
 15 16  1  0
 17 16  1  1
 17 18  1  0
 17 20  1  0
 17 32  1  0
 18 19  1  0
 20 21  1  0
 21 22  1  0
 22 23  2  0
 22 31  1  0
 23 24  1  0
 24 25  2  0
 25 26  1  0
 25 30  1  0
 26 27  2  0
 26 28  1  0
 28 29  1  0
 30 31  2  0
 31 32  1  0
 33 34  1  1
 33 35  1  0
 33 37  1  0
 35 36  1  0
 37 38  2  0
 37 39  1  0
 39 40  1  0
 40 41  1  0
M  END
