
     RDKit          3D

 41 43  0  0  0  0  0  0  0  0999 V2000
   -4.9560    1.5670   -3.2290 C   0  0  0  0  0  0  0  0  0  0  0  0
   -4.4800    2.2700   -2.1350 C   0  0  0  0  0  0  0  0  0  0  0  0
   -5.3550    3.2750   -1.6420 C   0  0  0  0  0  0  0  0  0  0  0  0
   -5.3420    4.1490   -0.6920 C   0  0  0  0  0  0  0  0  0  0  0  0
   -4.3210    4.4380    0.3050 C   0  0  0  0  0  0  0  0  0  0  0  0
   -3.1500    1.8240   -1.6660 C   0  0  1  0  0  0  0  0  0  0  0  0
   -2.2410    2.8310   -1.8610 O   0  0  0  0  0  0  0  0  0  0  0  0
   -3.1740    1.1810   -0.3350 C   0  0  0  0  0  0  0  0  0  0  0  0
   -1.8750    0.5340    0.0300 N   0  0  0  0  0  0  0  0  0  0  0  0
   -0.9900    1.4020    0.7000 C   0  0  0  0  0  0  0  0  0  0  0  0
   -1.4480    2.3980    1.2990 O   0  0  0  0  0  0  0  0  0  0  0  0
    0.4280    1.1390    0.6890 C   0  0  0  0  0  0  0  0  0  0  0  0
    1.2340    1.8130   -0.2430 N   0  0  0  0  0  0  0  0  0  0  0  0
    1.7430    1.3040   -1.4380 C   0  0  0  0  0  0  0  0  0  0  0  0
    1.1800    1.9060   -2.4780 O   0  0  0  0  0  0  0  0  0  0  0  0
    2.7100    0.3150   -1.7140 N   0  0  0  0  0  0  0  0  0  0  0  0
    3.4290   -0.6450   -0.9420 C   0  0  0  0  0  0  0  0  0  0  0  0
    4.8270   -0.3690   -0.8810 C   0  0  0  0  0  0  0  0  0  0  0  0
    5.4130    0.7310   -1.6710 C   0  0  0  0  0  0  0  0  0  0  0  0
    6.1700    1.6040   -1.1090 C   0  0  0  0  0  0  0  0  0  0  0  0
    6.6820    1.8610    0.2600 C   0  0  0  0  0  0  0  0  0  0  0  0
    8.1030    2.2540    0.1750 C   0  0  0  0  0  0  0  0  0  0  0  0
    8.4800    2.8760   -0.9180 C   0  0  0  0  0  0  0  0  0  0  0  0
    7.0120    3.0100   -1.9560 S   0  0  0  0  0  0  0  0  0  0  0  0
    5.7360   -1.1180   -0.1970 C   0  0  0  0  0  0  0  0  0  0  0  0
    5.2880   -2.2190    0.4840 C   0  0  0  0  0  0  0  0  0  0  0  0
    3.9500   -2.5130    0.4410 C   0  0  0  0  0  0  0  0  0  0  0  0
    3.5250   -3.7370    1.1880 C   0  0  0  0  0  0  0  0  0  0  0  0
    2.9940   -1.7390   -0.2710 C   0  0  0  0  0  0  0  0  0  0  0  0
    1.6110   -2.2790   -0.2630 C   0  0  0  0  0  0  0  0  0  0  0  0
    1.3550   -3.0810    0.7300 O   0  0  0  0  0  0  0  0  0  0  0  0
    0.5080   -2.1080   -1.1120 N   0  0  0  0  0  0  0  0  0  0  0  0
   -0.5660   -1.1960   -1.2050 C   0  0  0  0  0  0  0  0  0  0  0  0
   -0.6310   -0.5330   -2.3070 O   0  0  0  0  0  0  0  0  0  0  0  0
   -1.6560   -0.8490   -0.2770 C   0  0  1  0  0  0  0  0  0  0  0  0
   -1.6930   -1.6550    0.9740 C   0  0  0  0  0  0  0  0  0  0  0  0
   -2.9510   -1.6200    1.6950 N   0  0  0  0  0  0  0  0  0  0  0  0
   -2.7130   -2.2500    3.0040 C   0  0  0  0  0  0  0  0  0  0  0  0
   -2.4360   -3.7120    2.9230 C   0  0  0  0  0  0  0  0  0  0  0  0
   -3.9770   -2.4010    0.9990 C   0  0  0  0  0  0  0  0  0  0  0  0
   -5.2750   -2.3870    1.7870 C   0  0  0  0  0  0  0  0  0  0  0  0
  1  2  2  0
  2  3  1  0
  2  6  1  0
  3  4  2  3
  4  5  1  0
  6  7  1  1
  6  8  1  0
  8  9  1  0
  9 10  1  0
  9 35  1  0
 10 11  2  0
 10 12  1  0
 12 13  1  0
 13 14  1  0
 14 15  2  0
 14 16  1  0
 16 17  1  0
 17 18  2  0
 17 29  1  0
 18 19  1  0
 18 25  1  0
 19 20  2  3
 20 21  1  0
 20 24  1  0
 21 22  1  0
 22 23  2  0
 23 24  1  0
 25 26  2  0
 26 27  1  0
 27 28  1  0
 27 29  2  0
 29 30  1  0
 30 31  2  0
 30 32  1  0
 32 33  1  0
 33 34  2  0
 33 35  1  0
 35 36  1  1
 36 37  1  0
 37 38  1  0
 37 40  1  0
 38 39  1  0
 40 41  1  0
M  END
