
     RDKit          3D

 41 43  0  0  0  0  0  0  0  0999 V2000
   -7.3120   -0.8930   -3.0010 C   0  0  0  0  0  0  0  0  0  0  0  0
   -6.6700    0.1840   -2.2430 C   0  0  0  0  0  0  0  0  0  0  0  0
   -6.3320    1.3210   -2.7600 O   0  0  0  0  0  0  0  0  0  0  0  0
   -6.3820    0.0270   -0.8720 N   0  0  0  0  0  0  0  0  0  0  0  0
   -5.7020    1.1360   -0.1740 C   0  0  2  0  0  0  0  0  0  0  0  0
   -4.4280    0.5810    0.4090 C   0  0  0  0  0  0  0  0  0  0  0  0
   -4.3210    0.2560    1.5850 O   0  0  0  0  0  0  0  0  0  0  0  0
   -3.2560    0.3760   -0.4500 N   0  0  0  0  0  0  0  0  0  0  0  0
   -2.0900   -0.2420    0.1260 C   0  0  2  0  0  0  0  0  0  0  0  0
   -0.7910    0.2600   -0.3010 C   0  0  0  0  0  0  0  0  0  0  0  0
   -0.6240    0.4280   -1.5550 O   0  0  0  0  0  0  0  0  0  0  0  0
    0.2480    0.5370    0.6200 N   0  0  0  0  0  0  0  0  0  0  0  0
   -0.0230    0.5180    2.0980 C   0  0  0  0  0  0  0  0  0  0  0  0
    1.1300   -0.3300    2.5850 C   0  0  2  0  0  0  0  0  0  0  0  0
    1.7480    0.2670    3.6920 O   0  0  0  0  0  0  0  0  0  0  0  0
    2.0800   -0.4530    1.4270 C   0  0  0  0  0  0  0  0  0  0  0  0
    1.5900    0.8260    0.6120 C   0  0  1  0  0  0  0  0  0  0  0  0
    2.5180    0.9760   -0.4760 C   0  0  0  0  0  0  0  0  0  0  0  0
    3.0020    2.0850   -0.7860 O   0  0  0  0  0  0  0  0  0  0  0  0
    2.9790   -0.1260   -1.2830 N   0  0  0  0  0  0  0  0  0  0  0  0
    3.9570    0.0500   -2.3310 C   0  0  0  0  0  0  0  0  0  0  0  0
    5.3340    0.0660   -1.6760 C   0  0  0  0  0  0  0  0  0  0  0  0
    5.5750   -0.6640   -0.5150 C   0  0  0  0  0  0  0  0  0  0  0  0
    6.8140   -0.6870    0.0730 C   0  0  0  0  0  0  0  0  0  0  0  0
    7.9010    0.0370   -0.4700 C   0  0  0  0  0  0  0  0  0  0  0  0
    9.1750   -0.1220    0.1700 C   0  0  0  0  0  0  0  0  0  0  0  0
    9.5850   -1.4960    1.2750 S   0  0  0  0  0  0  0  0  0  0  0  0
   11.3250   -0.8260    1.6470 C   0  0  0  0  0  0  0  0  0  0  0  0
   11.2900    0.1410    0.9940 N   0  0  0  0  0  0  0  0  0  0  0  0
   10.3160    0.6090    0.2270 C   0  0  0  0  0  0  0  0  0  0  0  0
   10.4980    1.9340   -0.4940 C   0  0  0  0  0  0  0  0  0  0  0  0
    7.6490    0.7490   -1.6020 C   0  0  0  0  0  0  0  0  0  0  0  0
    6.3890    0.7700   -2.2080 C   0  0  0  0  0  0  0  0  0  0  0  0
   -2.2410   -1.7370   -0.2730 C   0  0  1  0  0  0  0  0  0  0  0  0
   -2.3790   -1.9640   -1.7270 C   0  0  0  0  0  0  0  0  0  0  0  0
   -1.0330   -2.4980    0.3030 C   0  0  0  0  0  0  0  0  0  0  0  0
   -3.4320   -2.2890    0.4530 C   0  0  0  0  0  0  0  0  0  0  0  0
   -6.6620    1.3350    1.0260 C   0  0  1  0  0  0  0  0  0  0  0  0
   -6.1980    2.4150    1.9340 C   0  0  0  0  0  0  0  0  0  0  0  0
   -8.0120    1.7140    0.4190 C   0  0  0  0  0  0  0  0  0  0  0  0
   -6.9080    0.0170    1.7500 C   0  0  0  0  0  0  0  0  0  0  0  0
  1  2  1  0
  2  3  2  0
  2  4  1  0
  5  4  1  6
  5  6  1  0
  5 38  1  0
  6  7  2  0
  6  8  1  0
  9  8  1  6
  9 10  1  0
  9 34  1  0
 10 11  2  0
 10 12  1  0
 12 13  1  0
 12 17  1  0
 13 14  1  0
 14 15  1  1
 14 16  1  0
 16 17  1  0
 17 18  1  6
 18 19  2  0
 18 20  1  0
 20 21  1  0
 21 22  1  0
 22 23  2  0
 22 33  1  0
 23 24  1  0
 24 25  2  0
 25 26  1  0
 25 32  1  0
 26 27  1  0
 26 30  2  0
 27 28  1  0
 28 29  2  0
 29 30  1  0
 30 31  1  0
 32 33  2  0
 34 35  1  6
 34 36  1  0
 34 37  1  0
 38 39  1  1
 38 40  1  0
 38 41  1  0
M  END
