
     RDKit          3D

 39 42  0  0  0  0  0  0  0  0999 V2000
   10.3470   -3.6150    0.5230 C   0  0  0  0  0  0  0  0  0  0  0  0
    9.6640   -2.5560    1.1180 O   0  0  0  0  0  0  0  0  0  0  0  0
   10.5190   -1.4680    1.1730 C   0  0  0  0  0  0  0  0  0  0  0  0
    9.8940   -0.2580    1.7970 C   0  0  0  0  0  0  0  0  0  0  0  0
    8.7220    0.1190    0.9980 N   0  0  0  0  0  0  0  0  0  0  0  0
    8.9500    0.9740    0.0020 C   0  0  0  0  0  0  0  0  0  0  0  0
   10.0640    1.4620   -0.2920 O   0  0  0  0  0  0  0  0  0  0  0  0
    7.8600    1.3280   -0.7430 N   0  0  0  0  0  0  0  0  0  0  0  0
    6.6720    0.8110   -0.4350 C   0  0  0  0  0  0  0  0  0  0  0  0
    5.0210    1.0250   -1.1620 S   0  0  0  0  0  0  0  0  0  0  0  0
    4.1480   -0.0530   -0.0680 C   0  0  0  0  0  0  0  0  0  0  0  0
    2.7370   -0.3370   -0.1120 C   0  0  0  0  0  0  0  0  0  0  0  0
    2.2640   -1.1170    0.7250 O   0  0  0  0  0  0  0  0  0  0  0  0
    1.9480    0.2510   -1.0630 O   0  0  0  0  0  0  0  0  0  0  0  0
    0.5630   -0.0240   -1.1090 C   0  0  2  0  0  0  0  0  0  0  0  0
    0.2290   -0.6650   -2.4560 C   0  0  0  0  0  0  0  0  0  0  0  0
   -0.2060    1.2300   -0.9100 C   0  0  0  0  0  0  0  0  0  0  0  0
    0.4300    2.2960   -0.7380 O   0  0  0  0  0  0  0  0  0  0  0  0
   -1.5790    1.2830   -0.9050 O   0  0  0  0  0  0  0  0  0  0  0  0
   -2.2510    2.4890   -0.7140 C   0  0  2  0  0  0  0  0  0  0  0  0
   -3.0570    2.5800    0.5540 C   0  0  0  0  0  0  0  0  0  0  0  0
   -3.0690    2.9150   -1.8960 C   0  0  0  0  0  0  0  0  0  0  0  0
   -4.1240    1.9970   -2.3520 C   0  0  0  0  0  0  0  0  0  0  0  0
   -5.1940    1.6360   -1.4390 C   0  0  0  0  0  0  0  0  0  0  0  0
   -6.3770    2.3670   -1.2800 C   0  0  0  0  0  0  0  0  0  0  0  0
   -7.3730    1.9760   -0.4190 C   0  0  0  0  0  0  0  0  0  0  0  0
   -7.2450    0.8480    0.3230 C   0  0  0  0  0  0  0  0  0  0  0  0
   -6.0950    0.0970    0.1980 C   0  0  0  0  0  0  0  0  0  0  0  0
   -5.0960    0.4960   -0.6710 C   0  0  0  0  0  0  0  0  0  0  0  0
   -6.0040   -1.1300    1.0330 C   0  0  2  0  0  0  0  0  0  0  0  0
   -4.9160   -1.9230    0.6800 O   0  0  0  0  0  0  0  0  0  0  0  0
   -7.2690   -1.9180    0.8160 C   0  0  1  0  0  0  0  0  0  0  0  0
   -7.3800   -3.0910    1.7650 C   0  0  0  0  0  0  0  0  0  0  0  0
   -8.5170   -1.1070    0.9270 C   0  0  0  0  0  0  0  0  0  0  0  0
   -8.2670    0.3430    1.2830 C   0  0  0  0  0  0  0  0  0  0  0  0
    5.1520   -0.4990    0.7650 C   0  0  0  0  0  0  0  0  0  0  0  0
    6.3990   -0.0590    0.5690 C   0  0  0  0  0  0  0  0  0  0  0  0
    7.5440   -0.4150    1.3310 C   0  0  0  0  0  0  0  0  0  0  0  0
    7.4930   -1.2020    2.2950 O   0  0  0  0  0  0  0  0  0  0  0  0
  1  2  1  0
  2  3  1  0
  3  4  1  0
  4  5  1  0
  5  6  1  0
  5 38  1  0
  6  7  2  0
  6  8  1  0
  8  9  1  0
  9 10  1  0
  9 37  2  0
 10 11  1  0
 11 12  1  0
 11 36  2  0
 12 13  2  0
 12 14  1  0
 14 15  1  0
 15 16  1  6
 15 17  1  0
 17 18  2  0
 17 19  1  0
 19 20  1  0
 20 21  1  1
 20 22  1  0
 22 23  1  0
 23 24  1  0
 24 25  2  0
 24 29  1  0
 25 26  1  0
 26 27  2  0
 27 28  1  0
 27 35  1  0
 28 29  2  0
 28 30  1  0
 30 31  1  6
 30 32  1  0
 32 33  1  1
 32 34  1  0
 34 35  1  0
 36 37  1  0
 37 38  1  0
 38 39  2  0
M  END
