
     RDKit          3D

 39 42  0  0  0  0  0  0  0  0999 V2000
    9.6020   -0.5150    0.0340 O   0  0  0  0  0  0  0  0  0  0  0  0
    8.4910   -1.1160    0.0190 C   0  0  0  0  0  0  0  0  0  0  0  0
    8.5350   -2.4980    0.0120 O   0  0  0  0  0  0  0  0  0  0  0  0
    7.1870   -0.3710    0.0110 C   0  0  2  0  0  0  0  0  0  0  0  0
    7.4230    1.1180    0.0220 C   0  0  0  0  0  0  0  0  0  0  0  0
    6.0950    1.7930   -0.3300 C   0  0  0  0  0  0  0  0  0  0  0  0
    5.0040    0.9270    0.1790 N   0  0  0  0  0  0  0  0  0  0  0  0
    3.8530    0.8270   -0.5920 C   0  0  0  0  0  0  0  0  0  0  0  0
    3.7740    1.4850   -1.6910 O   0  0  0  0  0  0  0  0  0  0  0  0
    2.6660    0.0200   -0.2820 C   0  0  0  0  0  0  0  0  0  0  0  0
    1.5170   -0.1160   -0.9770 C   0  0  0  0  0  0  0  0  0  0  0  0
    0.5580   -0.9210   -0.5070 C   0  0  0  0  0  0  0  0  0  0  0  0
   -0.7620   -1.1040   -1.2680 C   0  0  0  0  0  0  0  0  0  0  0  0
   -1.7590   -0.1750   -0.7720 N   0  0  2  0  0  0  0  0  0  0  0  0
   -3.0550   -0.8180   -0.9340 C   0  0  0  0  0  0  0  0  0  0  0  0
   -3.9670   -0.5430    0.1680 C   0  0  0  0  0  0  0  0  0  0  0  0
   -3.6070    0.1770    1.1250 O   0  0  0  0  0  0  0  0  0  0  0  0
   -5.2730   -1.0780    0.1860 N   0  0  0  0  0  0  0  0  0  0  0  0
   -6.2110   -0.8300    1.2650 C   0  0  0  0  0  0  0  0  0  0  0  0
   -7.4600   -1.6370    1.0120 C   0  0  0  0  0  0  0  0  0  0  0  0
   -7.1480   -3.1110    0.7730 C   0  0  1  0  0  0  0  0  0  0  0  0
   -6.6590   -3.7120    1.8980 F   0  0  0  0  0  0  0  0  0  0  0  0
   -8.6950   -3.9000    0.3060 Cl  0  0  0  0  0  0  0  0  0  0  0  0
   -6.1790   -3.1820   -0.3460 C   0  0  0  0  0  0  0  0  0  0  0  0
   -5.7390   -4.3270   -0.8350 C   0  0  0  0  0  0  0  0  0  0  0  0
   -6.2950   -5.8720   -0.1660 Cl  0  0  0  0  0  0  0  0  0  0  0  0
   -5.6870   -1.9140   -0.9370 C   0  0  0  0  0  0  0  0  0  0  0  0
   -1.7550    1.0690   -1.4880 C   0  0  0  0  0  0  0  0  0  0  0  0
   -1.5350    2.2360   -0.5970 C   0  0  0  0  0  0  0  0  0  0  0  0
   -1.4770    3.5140   -1.0050 N   0  0  0  0  0  0  0  0  0  0  0  0
   -1.2660    4.3120    0.0690 C   0  0  0  0  0  0  0  0  0  0  0  0
   -1.1480    5.7750   -0.0110 C   0  0  0  0  0  0  0  0  0  0  0  0
    0.5780    6.2810   -0.2680 S   0  0  0  0  0  0  0  0  0  0  0  0
   -1.2000    3.4840    1.1190 N   0  0  0  0  0  0  0  0  0  0  0  0
   -1.3620    2.2700    0.7010 O   0  0  0  0  0  0  0  0  0  0  0  0
    0.7650   -1.5710    0.6440 C   0  0  0  0  0  0  0  0  0  0  0  0
    2.4320   -1.0160    1.1110 S   0  0  0  0  0  0  0  0  0  0  0  0
    5.3050    0.2980    1.4350 C   0  0  0  0  0  0  0  0  0  0  0  0
    6.3430   -0.8170    1.2120 C   0  0  0  0  0  0  0  0  0  0  0  0
  1  2  2  0
  2  3  1  0
  4  2  1  1
  4  5  1  0
  4 39  1  0
  5  6  1  0
  6  7  1  0
  7  8  1  0
  7 38  1  0
  8  9  2  0
  8 10  1  0
 10 11  2  0
 10 37  1  0
 11 12  1  0
 12 13  1  0
 12 36  2  0
 14 13  1  6
 14 15  1  0
 14 28  1  0
 15 16  1  0
 16 17  2  0
 16 18  1  0
 18 19  1  0
 18 27  1  0
 19 20  1  0
 20 21  1  0
 21 22  1  1
 21 23  1  0
 21 24  1  0
 24 25  2  3
 24 27  1  0
 25 26  1  0
 28 29  1  0
 29 30  2  0
 29 35  1  0
 30 31  1  0
 31 32  1  0
 31 34  2  0
 32 33  1  0
 34 35  1  0
 36 37  1  0
 38 39  1  0
M  CHG  1  14   1
M  END
