
     RDKit          3D

 39 42  0  0  0  0  0  0  0  0999 V2000
   -6.6070   -2.4290   -0.3310 C   0  0  0  0  0  0  0  0  0  0  0  0
   -5.1580   -2.2140   -0.6330 C   0  0  0  0  0  0  0  0  0  0  0  0
   -4.6450   -0.8520   -0.1590 C   0  0  1  0  0  0  0  0  0  0  0  0
   -5.3740    0.2810   -0.7970 C   0  0  1  0  0  0  0  0  0  0  0  0
   -5.2180    0.2540   -2.2960 C   0  0  0  0  0  0  0  0  0  0  0  0
   -6.5970    0.5110   -2.8330 C   0  0  0  0  0  0  0  0  0  0  0  0
   -7.3570    0.9250   -1.5940 C   0  0  0  0  0  0  0  0  0  0  0  0
   -6.7260    0.3010   -0.5250 O   0  0  0  0  0  0  0  0  0  0  0  0
   -4.6720   -0.8250    1.3310 C   0  0  0  0  0  0  0  0  0  0  0  0
   -3.4690   -1.6920    1.6950 C   0  0  0  0  0  0  0  0  0  0  0  0
   -2.5130   -1.5750    0.5520 C   0  0  0  0  0  0  0  0  0  0  0  0
   -3.1860   -0.8080   -0.5580 C   0  0  2  0  0  0  0  0  0  0  0  0
   -2.5330    0.8210   -0.8160 S   0  0  0  0  0  0  0  0  0  0  0  0
   -2.4190    1.8550    0.6430 C   0  0  2  0  0  0  0  0  0  0  0  0
   -1.8610    3.2080    0.1670 C   0  0  0  0  0  0  0  0  0  0  0  0
   -1.4410    1.3580    1.6280 C   0  0  0  0  0  0  0  0  0  0  0  0
   -1.7990    1.0710    2.7780 O   0  0  0  0  0  0  0  0  0  0  0  0
   -0.0500    1.1930    1.2810 N   0  0  0  0  0  0  0  0  0  0  0  0
    0.8080    0.7140    2.2890 C   0  0  0  0  0  0  0  0  0  0  0  0
    2.2260    0.6040    2.0250 C   0  0  0  0  0  0  0  0  0  0  0  0
    2.9560   -0.0050    2.9430 O   0  0  0  0  0  0  0  0  0  0  0  0
    3.0000    1.0410    0.9300 N   0  0  0  0  0  0  0  0  0  0  0  0
    2.7570    2.3030    0.3010 C   0  0  0  0  0  0  0  0  0  0  0  0
    3.5650    2.4070   -0.9980 C   0  0  0  0  0  0  0  0  0  0  0  0
    5.0300    2.3180   -0.4930 C   0  0  2  0  0  0  0  0  0  0  0  0
    5.1140    2.9860    0.7170 O   0  0  0  0  0  0  0  0  0  0  0  0
    5.9410    2.7160   -1.4400 O   0  0  0  0  0  0  0  0  0  0  0  0
    7.2820    2.8630   -1.1520 C   0  0  0  0  0  0  0  0  0  0  0  0
    7.7060    2.6550    0.0140 O   0  0  0  0  0  0  0  0  0  0  0  0
    5.1800    0.8410   -0.1930 C   0  0  0  0  0  0  0  0  0  0  0  0
    6.2410    0.1390   -0.6210 C   0  0  0  0  0  0  0  0  0  0  0  0
    6.2780   -1.2260   -0.3090 C   0  0  0  0  0  0  0  0  0  0  0  0
    7.3430   -1.9870   -0.7230 O   0  0  0  0  0  0  0  0  0  0  0  0
    8.3890   -1.4010   -1.4550 C   0  0  0  0  0  0  0  0  0  0  0  0
    5.2860   -1.8610    0.4020 C   0  0  0  0  0  0  0  0  0  0  0  0
    5.3520   -3.2120    0.6950 O   0  0  0  0  0  0  0  0  0  0  0  0
    4.3060   -3.8100    1.4300 C   0  0  0  0  0  0  0  0  0  0  0  0
    4.2150   -1.0880    0.8150 C   0  0  0  0  0  0  0  0  0  0  0  0
    4.1500    0.2620    0.5240 C   0  0  0  0  0  0  0  0  0  0  0  0
  1  2  1  0
  3  2  1  6
  3  4  1  0
  3  9  1  0
  3 12  1  0
  4  5  1  6
  4  8  1  0
  5  6  1  0
  6  7  1  0
  7  8  1  0
  9 10  1  0
 10 11  1  0
 11 12  1  0
 12 13  1  1
 13 14  1  0
 14 15  1  6
 14 16  1  0
 16 17  2  0
 16 18  1  0
 18 19  1  0
 19 20  1  0
 20 21  2  0
 20 22  1  0
 22 23  1  0
 22 39  1  0
 23 24  1  0
 24 25  1  0
 25 26  1  1
 25 27  1  0
 25 30  1  0
 27 28  1  0
 28 29  2  0
 30 31  2  0
 30 39  1  0
 31 32  1  0
 32 33  1  0
 32 35  2  0
 33 34  1  0
 35 36  1  0
 35 38  1  0
 36 37  1  0
 38 39  2  0
M  END
