
     RDKit          3D

 39 42  0  0  0  0  0  0  0  0999 V2000
    9.8700    0.0200    1.2900 C   0  0  0  0  0  0  0  0  0  0  0  0
    8.4440   -0.2600    1.3400 N   0  0  2  0  0  0  0  0  0  0  0  0
    8.2680   -1.6780    1.2240 C   0  0  0  0  0  0  0  0  0  0  0  0
    8.6040   -2.1580   -0.0400 O   0  0  0  0  0  0  0  0  0  0  0  0
    7.4150   -2.4670   -0.7330 C   0  0  1  0  0  0  0  0  0  0  0  0
    6.7570   -3.9550   -0.0260 Cl  0  0  0  0  0  0  0  0  0  0  0  0
    6.4650   -1.3980   -0.5210 N   0  0  0  0  0  0  0  0  0  0  0  0
    6.5600   -0.1850   -0.1050 C   0  0  0  0  0  0  0  0  0  0  0  0
    5.3970    0.6090   -0.0160 N   0  0  0  0  0  0  0  0  0  0  0  0
    4.1110   -0.0290   -0.1540 C   0  0  0  0  0  0  0  0  0  0  0  0
    2.9750    0.9930   -0.0820 C   0  0  2  0  0  0  0  0  0  0  0  0
    1.6430    0.3120   -0.2440 C   0  0  0  0  0  0  0  0  0  0  0  0
    0.6180    1.2400   -0.5430 N   0  0  0  0  0  0  0  0  0  0  0  0
   -0.7400    0.8680   -0.3280 C   0  0  0  0  0  0  0  0  0  0  0  0
   -0.9850   -0.2930    0.1400 O   0  0  0  0  0  0  0  0  0  0  0  0
   -1.8250    1.7390   -0.6190 N   0  0  0  0  0  0  0  0  0  0  0  0
   -3.2270    1.3660   -0.4100 C   0  0  0  0  0  0  0  0  0  0  0  0
   -3.6200    0.2130   -1.1840 C   0  0  0  0  0  0  0  0  0  0  0  0
   -2.4030   -0.6850   -2.2820 S   0  0  0  0  0  0  0  0  0  0  0  0
   -3.5630   -1.9080   -2.8300 C   0  0  0  0  0  0  0  0  0  0  0  0
   -3.2210   -3.2100   -3.9470 Cl  0  0  0  0  0  0  0  0  0  0  0  0
   -4.7340   -1.5790   -2.1850 C   0  0  0  0  0  0  0  0  0  0  0  0
   -4.7310   -0.5080   -1.3640 C   0  0  0  0  0  0  0  0  0  0  0  0
   -5.9760   -0.0690   -0.6900 C   0  0  0  0  0  0  0  0  0  0  0  0
   -6.4720    1.1870   -0.8960 C   0  0  0  0  0  0  0  0  0  0  0  0
   -7.6410    1.5850   -0.3080 C   0  0  0  0  0  0  0  0  0  0  0  0
   -8.3630    0.7460    0.5090 C   0  0  0  0  0  0  0  0  0  0  0  0
   -9.8590    1.2600    1.2590 S   0  0  2  0  0  0  0  0  0  0  0  0
  -10.8900    1.6060    0.2240 O   0  0  0  0  0  0  0  0  0  0  0  0
   -9.5730    2.5120    2.0510 O   0  0  0  0  0  0  0  0  0  0  0  0
   -7.8780   -0.5240    0.7280 C   0  0  0  0  0  0  0  0  0  0  0  0
   -6.6730   -0.9280    0.1210 C   0  0  0  0  0  0  0  0  0  0  0  0
   -6.2030   -2.3070    0.4330 C   0  0  0  0  0  0  0  0  0  0  0  0
   -6.9920   -2.8770    1.6010 C   0  0  0  0  0  0  0  0  0  0  0  0
   -6.8850   -2.1500    2.7460 F   0  0  0  0  0  0  0  0  0  0  0  0
    0.8790    2.5400   -1.0600 C   0  0  0  0  0  0  0  0  0  0  0  0
    2.3120    2.9740   -1.0450 C   0  0  0  0  0  0  0  0  0  0  0  0
    3.1870    1.8960   -1.1170 O   0  0  0  0  0  0  0  0  0  0  0  0
    7.8100    0.5030    0.3030 C   0  0  0  0  0  0  0  0  0  0  0  0
  2  1  1  6
  2  3  1  0
  2 39  1  0
  3  4  1  0
  4  5  1  0
  5  6  1  1
  5  7  1  0
  7  8  2  0
  8  9  1  0
  8 39  1  0
  9 10  1  0
 11 10  1  6
 11 12  1  0
 11 38  1  0
 12 13  1  0
 13 14  1  0
 13 36  1  0
 14 15  2  0
 14 16  1  0
 16 17  1  0
 17 18  1  0
 18 19  1  0
 18 23  2  0
 19 20  1  0
 20 21  1  0
 20 22  2  0
 22 23  1  0
 23 24  1  0
 24 25  2  0
 24 32  1  0
 25 26  1  0
 26 27  2  0
 28 27  1  6
 27 31  1  0
 28 29  2  0
 28 30  2  0
 31 32  2  0
 32 33  1  0
 33 34  1  0
 34 35  1  0
 36 37  1  0
 37 38  1  0
M  CHG  1   2   1
M  END
