
     RDKit          3D

 39 42  0  0  0  0  0  0  0  0999 V2000
   10.5190   -1.0150    0.3720 C   0  0  0  0  0  0  0  0  0  0  0  0
    9.7580    0.2630    0.2300 C   0  0  0  0  0  0  0  0  0  0  0  0
   10.3750    1.4620    0.4750 C   0  0  0  0  0  0  0  0  0  0  0  0
    9.6840    2.6510    0.3450 C   0  0  0  0  0  0  0  0  0  0  0  0
    8.3590    2.5770   -0.0380 C   0  0  0  0  0  0  0  0  0  0  0  0
    7.7330    1.3810   -0.2860 C   0  0  0  0  0  0  0  0  0  0  0  0
    6.3470    1.3840   -0.6920 N   0  0  0  0  0  0  0  0  0  0  0  0
    5.3030    2.0290    0.0300 C   0  0  0  0  0  0  0  0  0  0  0  0
    4.0250    1.7030   -0.6540 C   0  0  2  0  0  0  0  0  0  0  0  0
    3.2540    0.7240    0.2100 C   0  0  0  0  0  0  0  0  0  0  0  0
    3.6410    0.4480    1.3630 O   0  0  0  0  0  0  0  0  0  0  0  0
    2.0810    0.1140   -0.2890 N   0  0  0  0  0  0  0  0  0  0  0  0
    1.2610   -0.7930    0.3920 C   0  0  0  0  0  0  0  0  0  0  0  0
    1.2240   -1.0270    1.7430 C   0  0  0  0  0  0  0  0  0  0  0  0
    0.3760   -1.9620    2.3180 C   0  0  0  0  0  0  0  0  0  0  0  0
   -0.4850   -2.7140    1.5250 C   0  0  0  0  0  0  0  0  0  0  0  0
   -0.4800   -2.5120    0.1750 C   0  0  0  0  0  0  0  0  0  0  0  0
   -1.3080   -3.2210   -0.6690 O   0  0  0  0  0  0  0  0  0  0  0  0
   -2.2100   -4.1580   -0.1390 C   0  0  0  0  0  0  0  0  0  0  0  0
   -3.1870   -3.4150    0.7120 C   0  0  0  0  0  0  0  0  0  0  0  0
   -4.0320   -4.0750    1.3570 O   0  0  0  0  0  0  0  0  0  0  0  0
   -3.1860   -2.0500    0.8030 O   0  0  0  0  0  0  0  0  0  0  0  0
   -4.0710   -1.2660    1.5700 C   0  0  0  0  0  0  0  0  0  0  0  0
   -5.5220   -1.5230    1.1370 C   0  0  1  0  0  0  0  0  0  0  0  0
   -6.3350   -0.7060    1.8970 O   0  0  0  0  0  0  0  0  0  0  0  0
   -5.6240   -1.3120   -0.3460 C   0  0  0  0  0  0  0  0  0  0  0  0
   -5.3090   -0.0650   -0.7890 O   0  0  0  0  0  0  0  0  0  0  0  0
   -6.0640    0.9780   -0.3310 C   0  0  0  0  0  0  0  0  0  0  0  0
   -7.5270    0.8400   -0.6470 C   0  0  1  0  0  0  0  0  0  0  0  0
   -8.4620    1.9520   -0.1890 C   0  0  2  0  0  0  0  0  0  0  0  0
   -9.8950    1.5990    0.1670 C   0  0  0  0  0  0  0  0  0  0  0  0
   -8.1220    1.7270   -1.6450 C   0  0  1  0  0  0  0  0  0  0  0  0
   -7.1310    3.0130   -2.3940 S   0  0  0  0  0  0  0  0  0  0  0  0
   -6.0580    2.4630   -3.3210 O   0  0  0  0  0  0  0  0  0  0  0  0
    0.3860   -1.5610   -0.3770 C   0  0  0  0  0  0  0  0  0  0  0  0
    4.3710    1.0980   -1.9720 C   0  0  0  0  0  0  0  0  0  0  0  0
    5.8010    0.7690   -1.8400 C   0  0  0  0  0  0  0  0  0  0  0  0
    6.5180    0.0420   -2.6080 O   0  0  0  0  0  0  0  0  0  0  0  0
    8.4330    0.2200   -0.1510 C   0  0  0  0  0  0  0  0  0  0  0  0
  1  2  1  0
  2  3  2  0
  2 39  1  0
  3  4  1  0
  4  5  2  0
  5  6  1  0
  6  7  1  0
  6 39  2  0
  7  8  1  0
  7 37  1  0
  8  9  1  0
  9 10  1  1
  9 36  1  0
 10 11  2  0
 10 12  1  0
 12 13  1  0
 13 14  2  0
 13 35  1  0
 14 15  1  0
 15 16  2  0
 16 17  1  0
 17 18  1  0
 17 35  2  0
 18 19  1  0
 19 20  1  0
 20 21  2  0
 20 22  1  0
 22 23  1  0
 23 24  1  0
 24 25  1  1
 24 26  1  0
 26 27  1  0
 27 28  1  0
 29 28  1  1
 29 30  1  0
 29 32  1  0
 30 31  1  6
 30 32  1  0
 32 33  1  1
 33 34  2  0
 36 37  1  0
 37 38  2  0
M  END
