
     RDKit          3D

 39 42  0  0  0  0  0  0  0  0999 V2000
    9.1810   -0.3140   -1.0950 C   0  0  0  0  0  0  0  0  0  0  0  0
    7.9760    0.3830   -1.3260 O   0  0  0  0  0  0  0  0  0  0  0  0
    6.8010   -0.1320   -0.8290 C   0  0  0  0  0  0  0  0  0  0  0  0
    6.8230   -1.3090   -0.1220 C   0  0  0  0  0  0  0  0  0  0  0  0
    5.6630   -1.8390    0.3820 C   0  0  0  0  0  0  0  0  0  0  0  0
    4.4320   -1.1760    0.1760 C   0  0  0  0  0  0  0  0  0  0  0  0
    3.3420   -1.7670    0.7100 O   0  0  0  0  0  0  0  0  0  0  0  0
    2.0290   -1.3680    0.6360 C   0  0  0  0  0  0  0  0  0  0  0  0
    1.3970   -1.3820   -0.7340 C   0  0  0  0  0  0  0  0  0  0  0  0
    0.0160   -0.9110   -0.5290 N   0  0  0  0  0  0  0  0  0  0  0  0
   -0.9160   -1.9590   -0.2490 C   0  0  0  0  0  0  0  0  0  0  0  0
   -1.8330   -1.7790    0.8900 C   0  0  2  0  0  0  0  0  0  0  0  0
   -2.7320   -2.9750    1.0440 C   0  0  1  0  0  0  0  0  0  0  0  0
   -3.4750   -3.1520   -0.1190 O   0  0  0  0  0  0  0  0  0  0  0  0
   -1.8980   -4.2170    1.2490 C   0  0  0  0  0  0  0  0  0  0  0  0
   -2.7890   -5.2980    1.4220 O   0  0  0  0  0  0  0  0  0  0  0  0
   -2.6620   -0.5270    0.9330 C   0  0  1  0  0  0  0  0  0  0  0  0
   -2.4720    0.2380    2.2210 C   0  0  0  0  0  0  0  0  0  0  0  0
   -2.3240    1.7050    2.0070 C   0  0  0  0  0  0  0  0  0  0  0  0
   -1.3440    2.0400    0.9240 C   0  0  0  0  0  0  0  0  0  0  0  0
   -1.4730    1.1810   -0.3070 C   0  0  1  0  0  0  0  0  0  0  0  0
   -0.2060    0.4790   -0.6300 C   0  0  0  0  0  0  0  0  0  0  0  0
    0.7240    1.2160   -1.0240 O   0  0  0  0  0  0  0  0  0  0  0  0
   -2.5270    0.2380   -0.2460 N   0  0  0  0  0  0  0  0  0  0  0  0
   -3.9170    0.5900   -1.1330 S   0  0  1  0  0  0  0  0  0  0  0  0
   -3.5180    0.6140   -2.6090 O   0  0  0  0  0  0  0  0  0  0  0  0
   -4.8700   -0.5950   -1.0430 O   0  0  0  0  0  0  0  0  0  0  0  0
   -4.7560    2.0300   -0.6920 C   0  0  0  0  0  0  0  0  0  0  0  0
   -5.7560    2.0000    0.2460 C   0  0  0  0  0  0  0  0  0  0  0  0
   -6.4040    3.1750    0.5720 C   0  0  0  0  0  0  0  0  0  0  0  0
   -7.6960    3.2130    1.7650 Cl  0  0  0  0  0  0  0  0  0  0  0  0
   -6.0660    4.3760   -0.0240 C   0  0  0  0  0  0  0  0  0  0  0  0
   -5.0760    4.4070   -0.9520 C   0  0  0  0  0  0  0  0  0  0  0  0
   -4.6380    5.9320   -1.7180 Cl  0  0  0  0  0  0  0  0  0  0  0  0
   -4.4290    3.2270   -1.2770 C   0  0  0  0  0  0  0  0  0  0  0  0
    4.4600   -0.0030   -0.5350 C   0  0  0  0  0  0  0  0  0  0  0  0
    5.6340    0.5560   -1.0590 C   0  0  0  0  0  0  0  0  0  0  0  0
    5.5880    1.7430   -1.7690 O   0  0  0  0  0  0  0  0  0  0  0  0
    4.3530    2.3970   -1.9700 C   0  0  0  0  0  0  0  0  0  0  0  0
  1  2  1  0
  2  3  1  0
  3  4  2  0
  3 37  1  0
  4  5  1  0
  5  6  2  0
  6  7  1  0
  6 36  1  0
  7  8  1  0
  8  9  1  0
  9 10  1  0
 10 11  1  0
 10 22  1  0
 12 11  1  6
 12 13  1  0
 12 17  1  0
 13 14  1  6
 13 15  1  0
 15 16  1  0
 17 18  1  1
 17 24  1  0
 18 19  1  0
 19 20  1  0
 21 20  1  1
 21 22  1  0
 21 24  1  0
 22 23  2  0
 25 24  1  1
 25 26  2  0
 25 27  2  0
 25 28  1  0
 28 29  2  0
 28 35  1  0
 29 30  1  0
 30 31  1  0
 30 32  2  0
 32 33  1  0
 33 34  1  0
 33 35  2  0
 36 37  2  0
 37 38  1  0
 38 39  1  0
M  END
