
     RDKit          3D

 39 41  0  0  0  0  0  0  0  0999 V2000
    5.2520    0.5000    1.4630 C   0  0  0  0  0  0  0  0  0  0  0  0
    6.1360    0.4730    0.2560 C   0  0  0  0  0  0  0  0  0  0  0  0
    6.2750   -0.7660   -0.3620 O   0  0  0  0  0  0  0  0  0  0  0  0
    5.2890   -1.5370   -0.9230 C   0  0  0  0  0  0  0  0  0  0  0  0
    3.9720   -1.0800   -0.8950 C   0  0  0  0  0  0  0  0  0  0  0  0
    2.9900   -1.8520   -1.4570 C   0  0  0  0  0  0  0  0  0  0  0  0
    1.6080   -1.5530   -1.4740 N   0  0  0  0  0  0  0  0  0  0  0  0
    0.9330   -0.6720   -0.5870 C   0  0  0  0  0  0  0  0  0  0  0  0
    1.6070   -0.1140    0.2870 O   0  0  0  0  0  0  0  0  0  0  0  0
   -0.4990   -0.4230   -0.6880 C   0  0  0  0  0  0  0  0  0  0  0  0
   -1.1500   -1.0900   -1.6040 O   0  0  0  0  0  0  0  0  0  0  0  0
   -1.2840    0.4420    0.0840 N   0  0  0  0  0  0  0  0  0  0  0  0
   -2.7170    0.4000   -0.1060 C   0  0  0  0  0  0  0  0  0  0  0  0
   -3.4840   -0.6500    0.5660 C   0  0  0  0  0  0  0  0  0  0  0  0
   -3.4630   -0.7610    2.0180 C   0  0  0  0  0  0  0  0  0  0  0  0
   -2.8560   -0.0710    2.7880 O   0  0  0  0  0  0  0  0  0  0  0  0
   -4.4450   -2.0710    2.8390 S   0  0  0  0  0  0  0  0  0  0  0  0
   -5.3990   -2.9640    1.5640 C   0  0  0  0  0  0  0  0  0  0  0  0
   -6.1700   -4.0780    2.1790 C   0  0  0  0  0  0  0  0  0  0  0  0
   -6.1060   -4.3360    3.3700 O   0  0  0  0  0  0  0  0  0  0  0  0
   -7.0570   -4.9190    1.3360 C   0  0  0  0  0  0  0  0  0  0  0  0
   -7.7200   -5.9950    2.1520 C   0  0  0  0  0  0  0  0  0  0  0  0
   -0.7320    1.4730    0.8980 C   0  0  0  0  0  0  0  0  0  0  0  0
   -0.7080    2.8160    0.2080 C   0  0  1  0  0  0  0  0  0  0  0  0
   -0.0940    3.8250    1.1830 C   0  0  0  0  0  0  0  0  0  0  0  0
    0.8420    4.5920    0.3190 C   0  0  1  0  0  0  0  0  0  0  0  0
    1.9520    3.6380   -0.0390 C   0  0  0  0  0  0  0  0  0  0  0  0
    1.4670    2.7490   -0.8970 C   0  0  0  0  0  0  0  0  0  0  0  0
    0.0190    3.0040   -1.0360 C   0  0  2  0  0  0  0  0  0  0  0  0
    0.1280    4.5670   -1.0370 C   0  0  1  0  0  0  0  0  0  0  0  0
   -1.1660    5.2110   -1.0470 C   0  0  0  0  0  0  0  0  0  0  0  0
   -2.2710    4.7310   -1.4040 O   0  0  0  0  0  0  0  0  0  0  0  0
   -1.2230    6.5490   -0.6080 O   0  0  0  0  0  0  0  0  0  0  0  0
   -2.4540    7.2590   -0.5830 C   0  0  0  0  0  0  0  0  0  0  0  0
    3.3540   -3.0750   -2.0410 C   0  0  0  0  0  0  0  0  0  0  0  0
    4.6380   -3.5110   -2.0630 C   0  0  0  0  0  0  0  0  0  0  0  0
    5.6420   -2.7330   -1.4930 C   0  0  0  0  0  0  0  0  0  0  0  0
    6.9400   -3.2010   -1.5270 O   0  0  0  0  0  0  0  0  0  0  0  0
    7.3320   -4.4210   -2.1010 C   0  0  0  0  0  0  0  0  0  0  0  0
  1  2  1  0
  2  3  1  0
  3  4  1  0
  4  5  2  0
  4 37  1  0
  5  6  1  0
  6  7  1  0
  6 35  2  0
  7  8  1  0
  8  9  2  0
  8 10  1  0
 10 11  2  0
 10 12  1  0
 12 13  1  0
 12 23  1  0
 13 14  1  0
 14 15  1  0
 15 16  2  0
 15 17  1  0
 17 18  1  0
 18 19  1  0
 19 20  2  0
 19 21  1  0
 21 22  1  0
 24 23  1  1
 24 25  1  0
 24 29  1  0
 26 25  1  1
 26 27  1  0
 26 30  1  0
 27 28  2  0
 29 28  1  1
 29 30  1  0
 30 31  1  1
 31 32  2  0
 31 33  1  0
 33 34  1  0
 35 36  1  0
 36 37  2  0
 37 38  1  0
 38 39  1  0
M  END
