
     RDKit          3D

 39 42  0  0  0  0  0  0  0  0999 V2000
    4.1830    6.6590    2.3490 C   0  0  0  0  0  0  0  0  0  0  0  0
    3.0130    6.2330    1.7000 O   0  0  0  0  0  0  0  0  0  0  0  0
    3.1290    6.4610    0.3600 C   0  0  0  0  0  0  0  0  0  0  0  0
    1.8810    6.0540   -0.3900 C   0  0  0  0  0  0  0  0  0  0  0  0
    1.4760    4.7920   -0.3430 O   0  0  0  0  0  0  0  0  0  0  0  0
    1.0940    3.6000   -0.2980 C   0  0  0  0  0  0  0  0  0  0  0  0
    1.9090    2.5760   -0.7780 C   0  0  0  0  0  0  0  0  0  0  0  0
    1.5780    1.2280   -0.7770 C   0  0  0  0  0  0  0  0  0  0  0  0
    0.3560    0.8590   -0.2690 C   0  0  0  0  0  0  0  0  0  0  0  0
   -0.4970    1.8580    0.2280 C   0  0  0  0  0  0  0  0  0  0  0  0
   -0.1520    3.1690    0.2170 C   0  0  0  0  0  0  0  0  0  0  0  0
   -0.9910    4.1330    0.7010 O   0  0  0  0  0  0  0  0  0  0  0  0
   -1.9370    3.8310    1.7060 C   0  0  0  0  0  0  0  0  0  0  0  0
   -2.5040    2.4730    1.4780 C   0  0  0  0  0  0  0  0  0  0  0  0
   -1.7520    1.5620    0.7660 O   0  0  0  0  0  0  0  0  0  0  0  0
   -0.5280   -0.3170   -0.0580 C   0  0  1  0  0  0  0  0  0  0  0  0
   -1.5030   -0.3370   -1.1840 C   0  0  0  0  0  0  0  0  0  0  0  0
   -2.5460   -1.4640   -1.1170 C   0  0  2  0  0  0  0  0  0  0  0  0
   -3.3870   -1.2270   -2.3450 C   0  0  0  0  0  0  0  0  0  0  0  0
   -2.5340   -1.2950   -3.5040 O   0  0  0  0  0  0  0  0  0  0  0  0
   -3.3050   -1.4260    0.1300 C   0  0  0  0  0  0  0  0  0  0  0  0
   -4.3360   -2.5010    0.3100 C   0  0  1  0  0  0  0  0  0  0  0  0
   -4.9270   -2.3490    1.7430 C   0  0  0  0  0  0  0  0  0  0  0  0
   -5.9650   -1.2880    1.7510 C   0  0  0  0  0  0  0  0  0  0  0  0
   -7.1210   -1.7110    1.0850 O   0  0  0  0  0  0  0  0  0  0  0  0
   -6.8330   -2.7460    0.2060 C   0  0  0  0  0  0  0  0  0  0  0  0
   -5.5440   -2.4060   -0.5920 C   0  0  0  0  0  0  0  0  0  0  0  0
    0.1070   -1.5820    0.3240 C   0  0  0  0  0  0  0  0  0  0  0  0
    1.1260   -2.1550   -0.6310 C   0  0  0  0  0  0  0  0  0  0  0  0
    2.4230   -1.5110   -0.3910 N   0  0  0  0  0  0  0  0  0  0  0  0
    3.4940   -2.3070    0.5720 S   0  0  1  0  0  0  0  0  0  0  0  0
    3.8590   -1.3900    1.7410 O   0  0  0  0  0  0  0  0  0  0  0  0
    2.7810   -3.4710    1.2510 O   0  0  0  0  0  0  0  0  0  0  0  0
    4.9970   -2.8960   -0.0990 C   0  0  1  0  0  0  0  0  0  0  0  0
    5.8100   -3.6340    0.9720 C   0  0  0  0  0  0  0  0  0  0  0  0
    4.7650   -3.9190   -1.1870 C   0  0  0  0  0  0  0  0  0  0  0  0
    4.0530   -5.0870   -0.7500 N   0  0  0  0  0  0  0  0  0  0  0  0
    2.7690   -0.8390   -1.5590 C   0  0  0  0  0  0  0  0  0  0  0  0
    2.7940    0.6250   -1.3630 C   0  0  0  0  0  0  0  0  0  0  0  0
  1  2  1  0
  2  3  1  0
  3  4  1  0
  4  5  1  0
  5  6  1  0
  6  7  2  0
  6 11  1  0
  7  8  1  0
  8  9  2  0
  8 39  1  0
  9 10  1  0
  9 16  1  0
 10 11  2  0
 10 15  1  0
 11 12  1  0
 12 13  1  0
 13 14  1  0
 14 15  1  0
 16 17  1  6
 16 28  1  0
 18 17  1  1
 18 19  1  0
 18 21  1  0
 19 20  1  0
 22 21  1  6
 22 23  1  0
 22 27  1  0
 23 24  1  0
 24 25  1  0
 25 26  1  0
 26 27  1  0
 28 29  1  0
 29 30  1  0
 31 30  1  6
 30 38  1  0
 31 32  2  0
 31 33  2  0
 31 34  1  0
 34 35  1  1
 34 36  1  0
 36 37  1  0
 38 39  1  0
M  END
