
     RDKit          3D

 39 41  0  0  0  0  0  0  0  0999 V2000
   -8.8900    5.1700    0.5940 C   0  0  0  0  0  0  0  0  0  0  0  0
   -7.4720    4.6790    0.6570 C   0  0  0  0  0  0  0  0  0  0  0  0
   -7.4300    3.2040    0.3530 C   0  0  0  0  0  0  0  0  0  0  0  0
   -8.4800    2.5570    0.1220 O   0  0  0  0  0  0  0  0  0  0  0  0
   -6.1920    2.5000    0.3190 N   0  0  0  0  0  0  0  0  0  0  0  0
   -6.1970    1.1100    0.0290 C   0  0  0  0  0  0  0  0  0  0  0  0
   -7.6510    0.1580   -0.2880 S   0  0  0  0  0  0  0  0  0  0  0  0
   -6.8640   -1.3830   -0.5470 C   0  0  0  0  0  0  0  0  0  0  0  0
   -5.5500   -1.0890   -0.3800 C   0  0  0  0  0  0  0  0  0  0  0  0
   -5.1910    0.1800   -0.0840 C   0  0  0  0  0  0  0  0  0  0  0  0
   -3.7740    0.6440    0.1290 C   0  0  0  0  0  0  0  0  0  0  0  0
   -3.5110    1.8320    0.3950 O   0  0  0  0  0  0  0  0  0  0  0  0
   -2.7060   -0.2150    0.0430 O   0  0  0  0  0  0  0  0  0  0  0  0
   -1.3450    0.1040    0.2270 C   0  0  0  0  0  0  0  0  0  0  0  0
   -1.1270    0.5700    1.6310 C   0  0  0  0  0  0  0  0  0  0  0  0
    0.0740    0.9160    2.0590 O   0  0  0  0  0  0  0  0  0  0  0  0
    0.9060    1.8660    1.7510 C   0  0  0  0  0  0  0  0  0  0  0  0
    1.4180    1.9110    0.3520 C   0  0  1  0  0  0  0  0  0  0  0  0
    2.4390    3.0510    0.1910 C   0  0  0  0  0  0  0  0  0  0  0  0
    3.7370    2.2920    0.2450 C   0  0  0  0  0  0  0  0  0  0  0  0
    3.3340    0.9880   -0.3940 C   0  0  1  0  0  0  0  0  0  0  0  0
    4.1640   -0.1430    0.0120 C   0  0  0  0  0  0  0  0  0  0  0  0
    3.6170   -1.1170    0.5960 O   0  0  0  0  0  0  0  0  0  0  0  0
    5.5620   -0.2360   -0.2010 N   0  0  0  0  0  0  0  0  0  0  0  0
    6.3490   -1.3660    0.2140 C   0  0  1  0  0  0  0  0  0  0  0  0
    6.8790   -2.2020   -0.9020 C   0  0  0  0  0  0  0  0  0  0  0  0
    7.7720   -1.5430   -1.8820 C   0  0  2  0  0  0  0  0  0  0  0  0
    9.0310   -0.9740   -1.2300 C   0  0  0  0  0  0  0  0  0  0  0  0
    7.1520   -0.5280   -2.7720 C   0  0  0  0  0  0  0  0  0  0  0  0
    7.3590   -1.0020    1.2400 C   0  0  0  0  0  0  0  0  0  0  0  0
    7.3910    0.2170    1.6010 O   0  0  0  0  0  0  0  0  0  0  0  0
    8.2390   -1.8770    1.8080 O   0  0  0  0  0  0  0  0  0  0  0  0
    9.1540   -1.3990    2.7790 C   0  0  0  0  0  0  0  0  0  0  0  0
    2.0270    0.7680   -0.0680 O   0  0  0  0  0  0  0  0  0  0  0  0
   -4.5760   -2.2610   -0.5610 C   0  0  0  0  0  0  0  0  0  0  0  0
   -5.2280   -3.2240   -1.5590 C   0  0  0  0  0  0  0  0  0  0  0  0
   -6.4500   -3.7560   -0.8020 C   0  0  2  0  0  0  0  0  0  0  0  0
   -6.9130   -4.9840   -1.5620 C   0  0  0  0  0  0  0  0  0  0  0  0
   -7.4700   -2.6790   -0.8630 C   0  0  0  0  0  0  0  0  0  0  0  0
  1  2  1  0
  2  3  1  0
  3  4  2  0
  3  5  1  0
  5  6  1  0
  6  7  1  0
  6 10  2  0
  7  8  1  0
  8  9  2  0
  8 39  1  0
  9 10  1  0
  9 35  1  0
 10 11  1  0
 11 12  2  0
 11 13  1  0
 13 14  1  0
 14 15  1  0
 15 16  1  0
 16 17  1  0
 18 17  1  1
 18 19  1  0
 18 34  1  0
 19 20  1  0
 20 21  1  0
 21 22  1  1
 21 34  1  0
 22 23  2  0
 22 24  1  0
 24 25  1  0
 25 26  1  6
 25 30  1  0
 26 27  1  0
 27 28  1  1
 27 29  1  0
 30 31  2  0
 30 32  1  0
 32 33  1  0
 35 36  1  0
 36 37  1  0
 37 38  1  6
 37 39  1  0
M  END
