
     RDKit          3D

 39 42  0  0  0  0  0  0  0  0999 V2000
    8.5760    1.2350   -0.5080 C   0  0  0  0  0  0  0  0  0  0  0  0
    7.6970    0.3460   -1.1580 O   0  0  0  0  0  0  0  0  0  0  0  0
    6.4640   -0.0040   -0.6570 C   0  0  0  0  0  0  0  0  0  0  0  0
    6.0770    0.5350    0.5670 C   0  0  0  0  0  0  0  0  0  0  0  0
    4.8330    0.2290    1.1380 C   0  0  0  0  0  0  0  0  0  0  0  0
    3.9510   -0.6410    0.4660 C   0  0  0  0  0  0  0  0  0  0  0  0
    2.7480   -0.9220    1.0430 O   0  0  0  0  0  0  0  0  0  0  0  0
    2.2800   -0.4580    2.2690 C   0  0  0  0  0  0  0  0  0  0  0  0
    0.8780   -0.9830    2.5500 C   0  0  0  0  0  0  0  0  0  0  0  0
   -0.0870   -0.4520    1.5600 N   0  0  0  0  0  0  0  0  0  0  0  0
   -0.1400   -1.1290    0.3430 C   0  0  0  0  0  0  0  0  0  0  0  0
   -1.3090   -1.2660   -0.4970 C   0  0  2  0  0  0  0  0  0  0  0  0
   -1.0540   -1.1170   -1.9890 C   0  0  2  0  0  0  0  0  0  0  0  0
   -2.2980   -1.2840   -2.6490 O   0  0  0  0  0  0  0  0  0  0  0  0
   -0.1270   -2.1170   -2.5750 C   0  0  0  0  0  0  0  0  0  0  0  0
    1.1600   -2.0700   -2.0600 O   0  0  0  0  0  0  0  0  0  0  0  0
   -2.5780   -0.5250   -0.1990 C   0  0  1  0  0  0  0  0  0  0  0  0
   -3.5240   -1.3260    0.6570 C   0  0  0  0  0  0  0  0  0  0  0  0
   -4.1190   -0.5710    1.7810 C   0  0  0  0  0  0  0  0  0  0  0  0
   -3.2140    0.4140    2.4330 C   0  0  0  0  0  0  0  0  0  0  0  0
   -2.1660    1.0330    1.6090 C   0  0  1  0  0  0  0  0  0  0  0  0
   -0.7670    0.7300    2.0520 C   0  0  0  0  0  0  0  0  0  0  0  0
   -0.1580    1.4620    2.8310 O   0  0  0  0  0  0  0  0  0  0  0  0
   -2.3030    0.7930    0.2200 N   0  0  0  0  0  0  0  0  0  0  0  0
   -3.1040    2.0460   -0.6270 S   0  0  1  0  0  0  0  0  0  0  0  0
   -2.2790    3.3130   -0.3970 O   0  0  0  0  0  0  0  0  0  0  0  0
   -3.0480    1.7500   -2.0900 O   0  0  0  0  0  0  0  0  0  0  0  0
   -4.7400    2.3190   -0.1560 C   0  0  0  0  0  0  0  0  0  0  0  0
   -5.7430    1.9690   -1.0250 C   0  0  0  0  0  0  0  0  0  0  0  0
   -7.0630    2.1140   -0.7360 C   0  0  0  0  0  0  0  0  0  0  0  0
   -8.2650    1.6520   -1.9170 Cl  0  0  0  0  0  0  0  0  0  0  0  0
   -7.3900    2.6460    0.5060 C   0  0  0  0  0  0  0  0  0  0  0  0
   -6.4080    3.0000    1.3780 C   0  0  0  0  0  0  0  0  0  0  0  0
   -6.9010    3.6810    2.9260 Cl  0  0  0  0  0  0  0  0  0  0  0  0
   -5.0550    2.8460    1.0730 C   0  0  0  0  0  0  0  0  0  0  0  0
    4.3520   -1.1450   -0.7100 C   0  0  0  0  0  0  0  0  0  0  0  0
    5.6000   -0.8440   -1.2940 C   0  0  0  0  0  0  0  0  0  0  0  0
    5.9070   -1.4100   -2.4860 O   0  0  0  0  0  0  0  0  0  0  0  0
    6.1760   -1.9180   -3.5500 C   0  0  0  0  0  0  0  0  0  0  0  0
  1  2  1  0
  2  3  1  0
  3  4  2  0
  3 37  1  0
  4  5  1  0
  5  6  2  0
  6  7  1  0
  6 36  1  0
  7  8  1  0
  8  9  1  0
  9 10  1  0
 10 11  1  0
 10 22  1  0
 12 11  1  1
 12 13  1  0
 12 17  1  0
 13 14  1  6
 13 15  1  0
 15 16  1  0
 17 18  1  1
 17 24  1  0
 18 19  1  0
 19 20  1  0
 21 20  1  1
 21 22  1  0
 21 24  1  0
 22 23  2  0
 25 24  1  1
 25 26  2  0
 25 27  2  0
 25 28  1  0
 28 29  2  0
 28 35  1  0
 29 30  1  0
 30 31  1  0
 30 32  2  0
 32 33  1  0
 33 34  1  0
 33 35  2  0
 36 37  2  0
 37 38  1  0
 38 39  1  0
M  END
