
     RDKit          3D

 39 42  0  0  0  0  0  0  0  0999 V2000
   -6.9850    2.9550   -1.8730 C   0  0  0  0  0  0  0  0  0  0  0  0
   -6.7010    2.5170   -0.4720 C   0  0  0  0  0  0  0  0  0  0  0  0
   -5.2350    2.7260   -0.1810 C   0  0  2  0  0  0  0  0  0  0  0  0
   -4.7980    4.1420   -0.3070 C   0  0  0  0  0  0  0  0  0  0  0  0
   -3.3830    4.2480   -0.7550 C   0  0  0  0  0  0  0  0  0  0  0  0
   -2.5480    3.1250   -0.1850 C   0  0  0  0  0  0  0  0  0  0  0  0
   -1.0760    2.9690    0.6400 S   0  0  0  0  0  0  0  0  0  0  0  0
   -1.1180    1.1380    0.7950 C   0  0  0  0  0  0  0  0  0  0  0  0
   -0.0770    0.4290    1.4370 N   0  0  0  0  0  0  0  0  0  0  0  0
    1.0560    1.0670    1.9980 C   0  0  0  0  0  0  0  0  0  0  0  0
    1.1320    2.3150    1.9180 O   0  0  0  0  0  0  0  0  0  0  0  0
    2.1500    0.3390    2.6720 C   0  0  0  0  0  0  0  0  0  0  0  0
    3.2240    1.2710    3.1820 C   0  0  0  0  0  0  0  0  0  0  0  0
    3.8270    2.0140    2.2200 O   0  0  0  0  0  0  0  0  0  0  0  0
    4.4700    1.3860    1.2050 C   0  0  0  0  0  0  0  0  0  0  0  0
    5.6160    0.5340    1.5650 C   0  0  0  0  0  0  0  0  0  0  0  0
    5.9880    0.4340    2.7570 O   0  0  0  0  0  0  0  0  0  0  0  0
    6.3550   -0.2100    0.6110 N   0  0  0  0  0  0  0  0  0  0  0  0
    7.4800   -1.0550    0.9500 C   0  0  0  0  0  0  0  0  0  0  0  0
    8.5950   -0.6920   -0.0010 C   0  0  1  0  0  0  0  0  0  0  0  0
    9.8520   -1.4900    0.3420 C   0  0  0  0  0  0  0  0  0  0  0  0
    8.2470   -1.0340   -1.2770 O   0  0  0  0  0  0  0  0  0  0  0  0
    6.9140   -1.1520   -1.5520 C   0  0  2  0  0  0  0  0  0  0  0  0
    6.7060   -0.8850   -3.0480 C   0  0  0  0  0  0  0  0  0  0  0  0
    6.0250   -0.1690   -0.8210 C   0  0  0  0  0  0  0  0  0  0  0  0
   -2.2660    0.8390    0.1930 C   0  0  0  0  0  0  0  0  0  0  0  0
   -2.6780   -0.6100    0.1100 C   0  0  0  0  0  0  0  0  0  0  0  0
   -1.9720   -1.5210    0.5870 O   0  0  0  0  0  0  0  0  0  0  0  0
   -3.8550   -1.0010   -0.4960 O   0  0  0  0  0  0  0  0  0  0  0  0
   -4.2600   -2.3500   -0.5840 C   0  0  1  0  0  0  0  0  0  0  0  0
   -3.2600   -3.1890   -1.3420 C   0  0  0  0  0  0  0  0  0  0  0  0
   -4.5110   -2.9050    0.7960 C   0  0  0  0  0  0  0  0  0  0  0  0
   -5.0960   -4.2960    0.7070 C   0  0  0  0  0  0  0  0  0  0  0  0
   -6.4040   -4.3120   -0.0460 C   0  0  0  0  0  0  0  0  0  0  0  0
   -6.5560   -3.1880   -0.8820 O   0  0  0  0  0  0  0  0  0  0  0  0
   -5.5450   -2.3910   -1.3250 C   0  0  0  0  0  0  0  0  0  0  0  0
   -5.7300   -1.7040   -2.3640 O   0  0  0  0  0  0  0  0  0  0  0  0
   -3.0450    1.7950   -0.3290 C   0  0  0  0  0  0  0  0  0  0  0  0
   -4.3630    1.8400   -1.0570 C   0  0  0  0  0  0  0  0  0  0  0  0
  1  2  1  0
  3  2  1  6
  3  4  1  0
  3 39  1  0
  4  5  1  0
  5  6  1  0
  6  7  1  0
  6 38  2  0
  7  8  1  0
  8  9  1  0
  8 26  2  0
  9 10  1  0
 10 11  2  0
 10 12  1  0
 12 13  1  0
 13 14  1  0
 14 15  1  0
 15 16  1  0
 16 17  2  0
 16 18  1  0
 18 19  1  0
 18 25  1  0
 19 20  1  0
 20 21  1  1
 20 22  1  0
 22 23  1  0
 23 24  1  6
 23 25  1  0
 26 27  1  0
 26 38  1  0
 27 28  2  0
 27 29  1  0
 29 30  1  0
 30 31  1  6
 30 32  1  0
 30 36  1  0
 32 33  1  0
 33 34  1  0
 34 35  1  0
 35 36  1  0
 36 37  2  0
 38 39  1  0
M  END
