
     RDKit          3D

 39 41  0  0  0  0  0  0  0  0999 V2000
  -11.1970    1.8740    0.6920 C   0  0  0  0  0  0  0  0  0  0  0  0
  -10.1780    2.2890   -0.0370 C   0  0  0  0  0  0  0  0  0  0  0  0
   -8.8010    2.2050    0.5060 C   0  0  0  0  0  0  0  0  0  0  0  0
   -7.9680    1.3150   -0.4140 C   0  0  0  0  0  0  0  0  0  0  0  0
   -6.5860    1.2360    0.1410 C   0  0  0  0  0  0  0  0  0  0  0  0
   -6.3020    1.8760    1.3130 N   0  0  0  0  0  0  0  0  0  0  0  0
   -5.0770    1.8760    1.8430 C   0  0  0  0  0  0  0  0  0  0  0  0
   -4.0280    1.2240    1.2290 C   0  0  0  0  0  0  0  0  0  0  0  0
   -2.7080    1.2390    1.8270 C   0  0  0  0  0  0  0  0  0  0  0  0
   -2.5320    1.8650    2.9160 O   0  0  0  0  0  0  0  0  0  0  0  0
   -1.6170    0.6030    1.2740 O   0  0  0  0  0  0  0  0  0  0  0  0
   -0.3570    0.6880    1.9610 C   0  0  0  0  0  0  0  0  0  0  0  0
    0.6750   -0.0580    1.2070 C   0  0  0  0  0  0  0  0  0  0  0  0
    0.3760   -0.9420   -0.3520 S   0  0  0  0  0  0  0  0  0  0  0  0
    2.0390   -1.5060   -0.5360 C   0  0  0  0  0  0  0  0  0  0  0  0
    2.5490   -2.3620   -1.6440 C   0  0  0  0  0  0  0  0  0  0  0  0
    2.7010   -1.0070    0.5590 C   0  0  0  0  0  0  0  0  0  0  0  0
    4.1460   -1.2590    0.7250 C   0  0  0  0  0  0  0  0  0  0  0  0
    4.4300   -2.3490    1.3210 O   0  0  0  0  0  0  0  0  0  0  0  0
    5.2360   -0.3980    0.2890 C   0  0  1  0  0  0  0  0  0  0  0  0
    6.5680   -1.0410    0.5820 C   0  0  0  0  0  0  0  0  0  0  0  0
    7.5750   -0.9680   -0.5010 C   0  0  2  0  0  0  0  0  0  0  0  0
    8.4460   -2.0740   -0.3080 O   0  0  0  0  0  0  0  0  0  0  0  0
    8.4840    0.2460   -0.3450 C   0  0  0  0  0  0  0  0  0  0  0  0
    9.0220    0.1760    0.9580 O   0  0  0  0  0  0  0  0  0  0  0  0
    9.8530    1.2850    1.1020 C   0  0  0  0  0  0  0  0  0  0  0  0
    7.0780   -1.0820   -1.8940 C   0  0  0  0  0  0  0  0  0  0  0  0
    5.7290   -0.5130   -2.1700 C   0  0  0  0  0  0  0  0  0  0  0  0
    5.1370    0.2500   -1.0320 C   0  0  1  0  0  0  0  0  0  0  0  0
    3.8080    0.5240   -1.3240 O   0  0  0  0  0  0  0  0  0  0  0  0
    2.0020   -0.2730    1.4390 C   0  0  0  0  0  0  0  0  0  0  0  0
    2.5940    0.3570    2.7170 C   0  0  0  0  0  0  0  0  0  0  0  0
   -4.3120    0.5830    0.0580 C   0  0  0  0  0  0  0  0  0  0  0  0
   -3.4090   -0.0300   -0.5560 O   0  0  0  0  0  0  0  0  0  0  0  0
   -5.5820    0.5950   -0.4710 N   0  0  0  0  0  0  0  0  0  0  0  0
   -5.8130   -0.0750   -1.7330 C   0  0  0  0  0  0  0  0  0  0  0  0
   -6.0690   -1.5380   -1.6280 C   0  0  0  0  0  0  0  0  0  0  0  0
   -7.1440   -1.9270   -0.8820 O   0  0  0  0  0  0  0  0  0  0  0  0
   -7.2050   -3.3200   -0.9120 C   0  0  0  0  0  0  0  0  0  0  0  0
  1  2  2  0
  2  3  1  0
  3  4  1  0
  4  5  1  0
  5  6  2  0
  5 35  1  0
  6  7  1  0
  7  8  2  0
  8  9  1  0
  8 33  1  0
  9 10  2  0
  9 11  1  0
 11 12  1  0
 12 13  1  0
 13 14  1  0
 13 31  2  0
 14 15  1  0
 15 16  1  0
 15 17  2  0
 17 18  1  0
 17 31  1  0
 18 19  2  0
 20 18  1  6
 20 21  1  0
 20 29  1  0
 21 22  1  0
 22 23  1  1
 22 24  1  0
 22 27  1  0
 24 25  1  0
 25 26  1  0
 27 28  1  0
 28 29  1  0
 29 30  1  6
 31 32  1  0
 33 34  2  0
 33 35  1  0
 35 36  1  0
 36 37  1  0
 37 38  1  0
 38 39  1  0
M  END
