
     RDKit          3D

 39 42  0  0  0  0  0  0  0  0999 V2000
    1.1420    2.1250   -2.8910 C   0  0  0  0  0  0  0  0  0  0  0  0
    1.5830    2.8480   -1.6230 C   0  0  0  0  0  0  0  0  0  0  0  0
    1.2050    2.0040   -0.4490 C   0  0  0  0  0  0  0  0  0  0  0  0
    1.8400    0.6420   -0.4540 C   0  0  2  0  0  0  0  0  0  0  0  0
    1.4320   -0.1110    0.6760 O   0  0  0  0  0  0  0  0  0  0  0  0
    0.7170   -1.2830    0.5010 C   0  0  0  0  0  0  0  0  0  0  0  0
    0.4680   -1.6200   -0.6920 O   0  0  0  0  0  0  0  0  0  0  0  0
    0.2410   -2.1390    1.6410 C   0  0  0  0  0  0  0  0  0  0  0  0
   -0.7140   -3.4930    0.9650 S   0  0  0  0  0  0  0  0  0  0  0  0
   -2.1450   -2.9640    0.0500 C   0  0  0  0  0  0  0  0  0  0  0  0
   -3.1680   -2.2990    0.8760 C   0  0  1  0  0  0  0  0  0  0  0  0
   -2.8140   -1.0690    1.5320 N   0  0  0  0  0  0  0  0  0  0  0  0
   -3.8530   -0.6120    2.4390 C   0  0  0  0  0  0  0  0  0  0  0  0
   -3.6660    0.4040    3.1280 O   0  0  0  0  0  0  0  0  0  0  0  0
   -5.0720   -1.4380    2.4490 C   0  0  0  0  0  0  0  0  0  0  0  0
   -5.4590   -2.0160    1.2930 O   0  0  0  0  0  0  0  0  0  0  0  0
   -4.5150   -2.1040    0.2650 C   0  0  1  0  0  0  0  0  0  0  0  0
   -4.7230   -0.9600   -0.5990 C   0  0  0  0  0  0  0  0  0  0  0  0
   -3.7720   -0.0850   -1.0030 C   0  0  0  0  0  0  0  0  0  0  0  0
   -4.0510    1.0040   -1.8340 C   0  0  0  0  0  0  0  0  0  0  0  0
   -3.0430    1.8600   -2.2110 O   0  0  0  0  0  0  0  0  0  0  0  0
   -3.2540    2.9680   -3.0370 C   0  0  0  0  0  0  0  0  0  0  0  0
   -5.3250    1.2180   -2.2710 C   0  0  0  0  0  0  0  0  0  0  0  0
   -6.3040    0.3410   -1.8730 C   0  0  0  0  0  0  0  0  0  0  0  0
   -6.0160   -0.7290   -1.0530 C   0  0  0  0  0  0  0  0  0  0  0  0
   -7.0660   -1.5700   -0.6970 O   0  0  0  0  0  0  0  0  0  0  0  0
   -8.3840   -1.3590   -1.1420 C   0  0  0  0  0  0  0  0  0  0  0  0
    3.3370    0.7370   -0.5110 C   0  0  0  0  0  0  0  0  0  0  0  0
    3.8940    1.2870   -1.4850 O   0  0  0  0  0  0  0  0  0  0  0  0
    4.1450    0.2160    0.5200 N   0  0  0  0  0  0  0  0  0  0  0  0
    5.5580    0.2390    0.5850 C   0  0  0  0  0  0  0  0  0  0  0  0
    6.4220    0.5520   -0.4190 C   0  0  0  0  0  0  0  0  0  0  0  0
    7.8060    0.5640   -0.2400 C   0  0  0  0  0  0  0  0  0  0  0  0
    8.3680    0.2550    0.9750 C   0  0  0  0  0  0  0  0  0  0  0  0
    7.5180   -0.0660    2.0090 C   0  0  0  0  0  0  0  0  0  0  0  0
    6.1370   -0.0740    1.8170 C   0  0  0  0  0  0  0  0  0  0  0  0
    8.3750   -0.3410    3.1890 C   0  0  0  0  0  0  0  0  0  0  0  0
    9.6700    0.3640    2.8480 C   0  0  0  0  0  0  0  0  0  0  0  0
    9.7020    0.1900    1.4230 O   0  0  0  0  0  0  0  0  0  0  0  0
  1  2  1  0
  2  3  1  0
  4  3  1  1
  4  5  1  0
  4 28  1  0
  5  6  1  0
  6  7  2  0
  6  8  1  0
  8  9  1  0
  9 10  1  0
 11 10  1  6
 11 12  1  0
 11 17  1  0
 12 13  1  0
 13 14  2  0
 13 15  1  0
 15 16  1  0
 16 17  1  0
 17 18  1  1
 18 19  2  0
 18 25  1  0
 19 20  1  0
 20 21  1  0
 20 23  2  0
 21 22  1  0
 23 24  1  0
 24 25  2  0
 25 26  1  0
 26 27  1  0
 28 29  2  0
 28 30  1  0
 30 31  1  0
 31 32  2  0
 31 36  1  0
 32 33  1  0
 33 34  2  0
 34 35  1  0
 34 39  1  0
 35 36  2  0
 35 37  1  0
 37 38  1  0
 38 39  1  0
M  END
