
     RDKit          3D

 38 41  0  0  0  0  0  0  0  0999 V2000
   -5.9330    3.7460   -0.1260 C   0  0  0  0  0  0  0  0  0  0  0  0
   -5.3890    3.1830   -1.3650 N   0  0  0  0  0  0  0  0  0  0  0  0
   -4.1180    2.5540   -1.3710 C   0  0  0  0  0  0  0  0  0  0  0  0
   -3.4840    2.4980   -0.2920 O   0  0  0  0  0  0  0  0  0  0  0  0
   -3.5750    1.9950   -2.6010 C   0  0  0  0  0  0  0  0  0  0  0  0
   -2.2160    1.3540   -2.4630 C   0  0  1  0  0  0  0  0  0  0  0  0
   -1.1840    2.2700   -1.9930 C   0  0  0  0  0  0  0  0  0  0  0  0
   -0.5170    2.0240   -0.8850 C   0  0  0  0  0  0  0  0  0  0  0  0
   -0.7170    0.8590   -0.0430 C   0  0  0  0  0  0  0  0  0  0  0  0
    0.0490    0.7000    1.1410 O   0  0  0  0  0  0  0  0  0  0  0  0
    1.3810    0.9970    1.0060 C   0  0  0  0  0  0  0  0  0  0  0  0
    2.0440    2.1700    1.1880 C   0  0  0  0  0  0  0  0  0  0  0  0
    3.3740    2.1770    0.9820 C   0  0  0  0  0  0  0  0  0  0  0  0
    4.0140    1.0720    0.6130 C   0  0  0  0  0  0  0  0  0  0  0  0
    5.4330    0.7720    0.3060 C   0  0  0  0  0  0  0  0  0  0  0  0
    5.6060   -0.6390    0.4080 N   0  0  0  0  0  0  0  0  0  0  0  0
    5.9440   -1.1310    1.7830 C   0  0  0  0  0  0  0  0  0  0  0  0
    7.3930   -1.2720    2.0110 C   0  0  0  0  0  0  0  0  0  0  0  0
    8.2140   -0.2000    1.9500 O   0  0  0  0  0  0  0  0  0  0  0  0
    8.1170    0.7370    2.9390 C   0  0  0  0  0  0  0  0  0  0  0  0
    5.4620   -1.5630   -0.6130 C   0  0  0  0  0  0  0  0  0  0  0  0
    5.6360   -2.8070   -0.2390 O   0  0  0  0  0  0  0  0  0  0  0  0
    5.1560   -1.3970   -2.0080 C   0  0  2  0  0  0  0  0  0  0  0  0
    5.9620   -0.4530   -2.8950 C   0  0  0  0  0  0  0  0  0  0  0  0
    4.4800   -0.2830   -2.6620 C   0  0  0  0  0  0  0  0  0  0  0  0
    2.6570   -0.1380    0.5320 S   0  0  0  0  0  0  0  0  0  0  0  0
   -1.6280   -0.0610   -0.3920 C   0  0  0  0  0  0  0  0  0  0  0  0
   -1.7880   -1.2040    0.5180 C   0  0  0  0  0  0  0  0  0  0  0  0
   -2.9150   -1.4720    1.1230 O   0  0  0  0  0  0  0  0  0  0  0  0
   -4.1040   -1.8040    0.7010 C   0  0  2  0  0  0  0  0  0  0  0  0
   -5.1790   -0.7900    1.1980 C   0  0  0  0  0  0  0  0  0  0  0  0
   -6.3870   -1.0260    0.3580 C   0  0  0  0  0  0  0  0  0  0  0  0
   -6.9070   -2.4360    0.4280 C   0  0  0  0  0  0  0  0  0  0  0  0
   -5.8420   -3.4740    0.4150 C   0  0  0  0  0  0  0  0  0  0  0  0
   -4.6520   -3.1190    1.2780 C   0  0  1  0  0  0  0  0  0  0  0  0
   -3.7160   -4.1100    1.3030 O   0  0  0  0  0  0  0  0  0  0  0  0
   -2.2220    0.1050   -1.6950 C   0  0  0  0  0  0  0  0  0  0  0  0
   -2.7780   -0.9380   -2.1820 O   0  0  0  0  0  0  0  0  0  0  0  0
  1  2  1  0
  2  3  1  0
  3  4  2  0
  3  5  1  0
  6  5  1  1
  6  7  1  0
  6 37  1  0
  7  8  2  0
  8  9  1  0
  9 10  1  0
  9 27  2  0
 10 11  1  0
 11 12  2  0
 11 26  1  0
 12 13  1  0
 13 14  2  0
 14 15  1  0
 14 26  1  0
 15 16  1  0
 16 17  1  0
 16 21  1  0
 17 18  1  0
 18 19  1  0
 19 20  1  0
 21 22  2  0
 23 21  1  1
 23 24  1  0
 23 25  1  0
 24 25  1  0
 27 28  1  0
 27 37  1  0
 28 29  1  0
 30 29  1  1
 30 31  1  0
 30 35  1  0
 31 32  1  0
 32 33  1  0
 33 34  1  0
 34 35  1  0
 35 36  1  6
 37 38  2  0
M  END
