
     RDKit          3D

 15 14  0  0  0  0  0  0  0  0999 V2000
    2.8340    2.3920   -0.7470 C   0  0  0  0  0  0  0  0  0  0  0  0
    2.6150    1.0210   -0.2160 C   0  0  0  0  0  0  0  0  0  0  0  0
    2.2400    0.0380   -0.9550 N   0  0  0  0  0  0  0  0  0  0  0  0
    2.0430    0.2990   -2.2910 O   0  0  0  0  0  0  0  0  0  0  0  0
    2.0530   -1.2500   -0.3540 C   0  0  0  0  0  0  0  0  0  0  0  0
    0.6960   -1.8040   -0.2960 C   0  0  1  0  0  0  0  0  0  0  0  0
    0.8440   -3.1010    0.3050 O   0  0  0  0  0  0  0  0  0  0  0  0
   -0.3420   -1.1420    0.5150 C   0  0  2  0  0  0  0  0  0  0  0  0
   -0.0200   -1.0250    1.9830 C   0  0  0  0  0  0  0  0  0  0  0  0
   -1.5440   -2.1310    0.4830 C   0  0  0  0  0  0  0  0  0  0  0  0
   -0.9020    0.1230    0.0490 C   0  0  0  0  0  0  0  0  0  0  0  0
   -0.6550    0.7030   -1.0210 O   0  0  0  0  0  0  0  0  0  0  0  0
   -1.8110    0.7380    0.9030 O   0  0  0  0  0  0  0  0  0  0  0  0
   -2.4480    1.9440    0.6320 C   0  0  0  0  0  0  0  0  0  0  0  0
   -3.2880    1.8620   -0.6440 C   0  0  0  0  0  0  0  0  0  0  0  0
  1  2  1  0
  2  3  2  3
  3  4  1  0
  3  5  1  0
  5  6  1  0
  6  7  1  1
  6  8  1  0
  8  9  1  1
  8 10  1  0
  8 11  1  0
 11 12  2  0
 11 13  1  0
 13 14  1  0
 14 15  1  0
M  CHG  2   3   1   4  -1
M  END
