
     RDKit          3D

 14 14  0  0  0  0  0  0  0  0999 V2000
    3.2500   -1.8830   -1.0300 C   0  0  0  0  0  0  0  0  0  0  0  0
    2.3970   -0.8260   -1.2690 O   0  0  0  0  0  0  0  0  0  0  0  0
    1.6150   -0.5000   -0.1760 C   0  0  0  0  0  0  0  0  0  0  0  0
    0.7290    0.6700   -0.5670 C   0  0  0  0  0  0  0  0  0  0  0  0
   -0.1620    1.1060    0.5440 C   0  0  2  0  0  0  0  0  0  0  0  0
    0.6440    1.5030    1.6240 O   0  0  0  0  0  0  0  0  0  0  0  0
   -0.9920   -0.0370    1.0930 C   0  0  0  0  0  0  0  0  0  0  0  0
   -1.8840   -0.6660    0.0890 C   0  0  2  0  0  0  0  0  0  0  0  0
   -2.7150   -1.8200    0.6730 C   0  0  0  0  0  0  0  0  0  0  0  0
   -1.7420   -2.0110   -0.4540 C   0  0  0  0  0  0  0  0  0  0  0  0
   -0.9990    2.2710    0.1430 C   0  0  0  0  0  0  0  0  0  0  0  0
   -0.2620    3.4320   -0.2620 N   0  0  0  0  0  0  0  0  0  0  0  0
   -0.3800    4.4810    0.4370 O   0  0  0  0  0  0  0  0  0  0  0  0
    0.5690    3.5390   -1.3330 O   0  0  0  0  0  0  0  0  0  0  0  0
  1  2  1  0
  2  3  1  0
  3  4  1  0
  4  5  1  0
  5  6  1  1
  5  7  1  0
  5 11  1  0
  8  7  1  1
  8  9  1  0
  8 10  1  0
  9 10  1  0
 11 12  1  0
 12 13  2  0
 12 14  1  0
M  CHG  2  12   1  14  -1
M  END
