
     RDKit          3D

 15 15  0  0  0  0  0  0  0  0999 V2000
    3.4500    0.7950    0.5200 C   0  0  0  0  0  0  0  0  0  0  0  0
    3.0010   -0.3030   -0.4330 C   0  0  0  0  0  0  0  0  0  0  0  0
    2.7160   -1.4800    0.2300 O   0  0  0  0  0  0  0  0  0  0  0  0
    1.7110   -1.3030    1.1440 C   0  0  0  0  0  0  0  0  0  0  0  0
    0.4240   -0.8490    0.5380 C   0  0  0  0  0  0  0  0  0  0  0  0
   -0.3850    0.0760    1.1680 C   0  0  0  0  0  0  0  0  0  0  0  0
   -1.5860    0.4850    0.5840 C   0  0  0  0  0  0  0  0  0  0  0  0
   -2.4420    1.4760    1.2690 C   0  0  0  0  0  0  0  0  0  0  0  0
   -2.0050   -0.0160   -0.6320 C   0  0  0  0  0  0  0  0  0  0  0  0
   -3.2440    0.3820   -1.2720 C   0  0  0  0  0  0  0  0  0  0  0  0
   -4.0220    1.2130   -0.7610 O   0  0  0  0  0  0  0  0  0  0  0  0
   -3.5710   -0.1790   -2.4880 O   0  0  0  0  0  0  0  0  0  0  0  0
   -1.1530   -0.9440   -1.2200 C   0  0  0  0  0  0  0  0  0  0  0  0
    0.0010   -1.3240   -0.6400 N   0  0  0  0  0  0  0  0  0  0  0  0
    0.7920   -2.2500   -1.2830 O   0  0  0  0  0  0  0  0  0  0  0  0
  1  2  1  0
  2  3  1  0
  3  4  1  0
  4  5  1  0
  5  6  2  0
  5 14  1  0
  6  7  1  0
  7  8  1  0
  7  9  2  0
  9 10  1  0
  9 13  1  0
 10 11  2  0
 10 12  1  0
 13 14  2  0
 14 15  1  0
M  CHG  2  14   1  15  -1
M  END
