
     RDKit          3D

 15 14  0  0  0  0  0  0  0  0999 V2000
    4.4280   -0.1840   -1.3850 C   0  0  0  0  0  0  0  0  0  0  0  0
    3.6190    0.3590   -0.5000 C   0  0  0  0  0  0  0  0  0  0  0  0
    4.1210    1.0200    0.5960 O   0  0  0  0  0  0  0  0  0  0  0  0
    2.1710    0.2580   -0.6830 C   0  0  0  0  0  0  0  0  0  0  0  0
    1.4690   -0.4560    0.4540 C   0  0  2  0  0  0  0  0  0  0  0  0
    0.0170   -0.4740    0.1180 C   0  0  0  0  0  0  0  0  0  0  0  0
   -0.2950   -0.9730   -0.9440 O   0  0  0  0  0  0  0  0  0  0  0  0
   -1.0310    0.0730    0.9960 C   0  0  0  0  0  0  0  0  0  0  0  0
   -2.3670   -0.1250    0.3240 C   0  0  1  0  0  0  0  0  0  0  0  0
   -2.2980    0.6320   -1.0070 C   0  0  0  0  0  0  0  0  0  0  0  0
   -2.5810   -1.5900    0.0950 C   0  0  0  0  0  0  0  0  0  0  0  0
   -3.4920    0.4880    1.1320 C   0  0  0  0  0  0  0  0  0  0  0  0
    1.7370    0.1540    1.7270 N   0  0  0  0  0  0  0  0  0  0  0  0
    2.2930   -0.4900    2.6650 O   0  0  0  0  0  0  0  0  0  0  0  0
    1.3940    1.4620    1.9570 O   0  0  0  0  0  0  0  0  0  0  0  0
  1  2  2  0
  2  3  1  0
  2  4  1  0
  5  4  1  6
  5  6  1  0
  5 13  1  0
  6  7  2  0
  6  8  1  0
  8  9  1  0
  9 10  1  6
  9 11  1  0
  9 12  1  0
 13 14  2  0
 13 15  1  0
M  CHG  2  13   1  15  -1
M  END
