
     RDKit          3D

 24 25  0  0  0  0  0  0  0  0999 V2000
    4.3170    2.3800    1.6270 C   0  0  0  0  0  0  0  0  0  0  0  0
    4.5060    1.6290    0.4620 O   0  0  0  0  0  0  0  0  0  0  0  0
    3.5340    0.8760   -0.1670 C   0  0  0  0  0  0  0  0  0  0  0  0
    2.2420    0.7830    0.2990 C   0  0  0  0  0  0  0  0  0  0  0  0
    1.2640    0.0230   -0.3380 C   0  0  0  0  0  0  0  0  0  0  0  0
   -0.0660   -0.0710    0.1460 N   0  0  0  0  0  0  0  0  0  0  0  0
   -0.4670   -1.0720    0.8760 C   0  0  0  0  0  0  0  0  0  0  0  0
    0.5120   -2.1240    1.1940 C   0  0  0  0  0  0  0  0  0  0  0  0
   -1.8160   -1.1030    1.3280 N   0  0  0  0  0  0  0  0  0  0  0  0
   -2.7150   -0.0540    0.9580 C   0  0  0  0  0  0  0  0  0  0  0  0
   -3.2060    0.1190   -0.2600 C   0  0  0  0  0  0  0  0  0  0  0  0
   -2.9320   -0.7030   -1.4320 C   0  0  0  0  0  0  0  0  0  0  0  0
   -3.4720   -0.4300   -2.5650 N   0  0  0  0  0  0  0  0  0  0  0  0
   -4.0640    1.2750   -0.2140 N   0  0  0  0  0  0  0  0  0  0  0  0
   -3.9150    1.9480    1.0640 C   0  0  0  0  0  0  0  0  0  0  0  0
   -3.1900    0.9420    1.8950 C   0  0  0  0  0  0  0  0  0  0  0  0
   -3.0250    0.9660    3.1960 C   0  0  0  0  0  0  0  0  0  0  0  0
   -2.1490   -0.2890    4.0230 Cl  0  0  0  0  0  0  0  0  0  0  0  0
    1.6670   -0.6420   -1.4770 C   0  0  0  0  0  0  0  0  0  0  0  0
    0.7600   -1.4090   -2.1580 O   0  0  0  0  0  0  0  0  0  0  0  0
    1.0270   -2.1350   -3.3230 C   0  0  0  0  0  0  0  0  0  0  0  0
    2.9630   -0.5530   -1.9520 C   0  0  0  0  0  0  0  0  0  0  0  0
    3.9030    0.1970   -1.3120 C   0  0  0  0  0  0  0  0  0  0  0  0
    5.5430    0.2850   -1.9470 Cl  0  0  0  0  0  0  0  0  0  0  0  0
  1  2  1  0
  2  3  1  0
  3  4  2  0
  3 23  1  0
  4  5  1  0
  5  6  1  0
  5 19  2  0
  6  7  2  3
  7  8  1  0
  7  9  1  0
  9 10  1  0
 10 11  2  0
 10 16  1  0
 11 12  1  0
 11 14  1  0
 12 13  2  0
 14 15  1  0
 15 16  1  0
 16 17  2  3
 17 18  1  0
 19 20  1  0
 19 22  1  0
 20 21  1  0
 22 23  2  0
 23 24  1  0
M  END
