
     RDKit          3D

 24 26  0  0  0  0  0  0  0  0999 V2000
    2.3780    2.8310    0.9010 O   0  0  0  0  0  0  0  0  0  0  0  0
    1.4290    2.0670    1.1780 C   0  0  0  0  0  0  0  0  0  0  0  0
    0.1810    2.6560    1.7980 C   0  0  0  0  0  0  0  0  0  0  0  0
   -0.8440    1.6830    2.0230 N   0  0  0  0  0  0  0  0  0  0  0  0
   -1.5580    1.0680    0.9660 C   0  0  0  0  0  0  0  0  0  0  0  0
   -1.2800    1.4420   -0.3240 C   0  0  0  0  0  0  0  0  0  0  0  0
   -1.9190    0.9010   -1.3890 N   0  0  0  0  0  0  0  0  0  0  0  0
   -2.8540   -0.0330   -1.1300 C   0  0  0  0  0  0  0  0  0  0  0  0
   -3.5030   -0.5810   -2.2140 C   0  0  0  0  0  0  0  0  0  0  0  0
   -4.4650   -1.5400   -1.9760 C   0  0  0  0  0  0  0  0  0  0  0  0
   -4.8010   -1.9680   -0.7070 C   0  0  0  0  0  0  0  0  0  0  0  0
   -4.1360   -1.4040    0.3630 C   0  0  0  0  0  0  0  0  0  0  0  0
   -3.1720   -0.4440    0.1430 C   0  0  0  0  0  0  0  0  0  0  0  0
   -2.4960    0.1350    1.1720 N   0  0  0  0  0  0  0  0  0  0  0  0
    1.5490    0.6950    0.9110 N   0  0  0  0  0  0  0  0  0  0  0  0
    2.6300   -0.0030    0.3390 C   0  0  0  0  0  0  0  0  0  0  0  0
    3.7850    0.6130   -0.0560 C   0  0  0  0  0  0  0  0  0  0  0  0
    4.8700   -0.0840   -0.6290 C   0  0  0  0  0  0  0  0  0  0  0  0
    6.3250    0.7820   -1.1120 Cl  0  0  0  0  0  0  0  0  0  0  0  0
    4.8040   -1.4420   -0.8160 C   0  0  0  0  0  0  0  0  0  0  0  0
    6.1400   -2.3280   -1.5260 Cl  0  0  0  0  0  0  0  0  0  0  0  0
    3.6480   -2.0610   -0.4210 C   0  0  0  0  0  0  0  0  0  0  0  0
    2.5640   -1.3870    0.1480 C   0  0  0  0  0  0  0  0  0  0  0  0
    1.4390   -2.0520    0.5220 O   0  0  0  0  0  0  0  0  0  0  0  0
  1  2  2  0
  2  3  1  0
  2 15  1  0
  3  4  1  0
  4  5  1  0
  5  6  2  0
  5 14  1  0
  6  7  1  0
  7  8  2  0
  8  9  1  0
  8 13  1  0
  9 10  2  0
 10 11  1  0
 11 12  2  0
 12 13  1  0
 13 14  2  0
 15 16  1  0
 16 17  2  0
 16 23  1  0
 17 18  1  0
 18 19  1  0
 18 20  2  0
 20 21  1  0
 20 22  1  0
 22 23  2  0
 23 24  1  0
M  END
