
     RDKit          3D

 24 26  0  0  0  0  0  0  0  0999 V2000
   -4.4300   -2.1170   -0.7660 C   0  0  0  0  0  0  0  0  0  0  0  0
   -2.9860   -1.8460   -0.6170 C   0  0  0  0  0  0  0  0  0  0  0  0
   -2.0890   -2.8920   -0.5510 C   0  0  0  0  0  0  0  0  0  0  0  0
   -2.7510   -4.5320   -0.6520 Cl  0  0  0  0  0  0  0  0  0  0  0  0
   -0.7670   -2.7060   -0.4160 N   0  0  0  0  0  0  0  0  0  0  0  0
   -0.2210   -1.4820   -0.3350 C   0  0  0  0  0  0  0  0  0  0  0  0
    1.0870   -1.2670   -0.2010 N   0  0  0  0  0  0  0  0  0  0  0  0
    1.6090   -0.0120   -0.1220 C   0  0  0  0  0  0  0  0  0  0  0  0
    3.0420    0.1650    0.0240 C   0  0  0  0  0  0  0  0  0  0  0  0
    3.5750    1.3540    0.1030 C   0  0  0  0  0  0  0  0  0  0  0  0
    5.0270    1.4470    0.2490 C   0  0  0  0  0  0  0  0  0  0  0  0
    5.5890    2.7200    0.3320 O   0  0  0  0  0  0  0  0  0  0  0  0
    5.8250    0.4230    0.3060 C   0  0  0  0  0  0  0  0  0  0  0  0
    5.2980   -0.9510    0.2240 C   0  0  0  0  0  0  0  0  0  0  0  0
    3.8770   -0.9840    0.0820 N   0  0  0  0  0  0  0  0  0  0  0  0
    0.7580    1.0610   -0.1830 C   0  0  0  0  0  0  0  0  0  0  0  0
   -0.6070    0.8990   -0.3220 C   0  0  0  0  0  0  0  0  0  0  0  0
   -1.0860   -0.3880   -0.3970 C   0  0  0  0  0  0  0  0  0  0  0  0
   -2.4450   -0.5800   -0.5360 C   0  0  0  0  0  0  0  0  0  0  0  0
   -3.3490    0.5270   -0.6020 N   0  0  0  0  0  0  0  0  0  0  0  0
   -3.9240    1.0560    0.5840 C   0  0  0  0  0  0  0  0  0  0  0  0
   -3.6580    0.5700    1.7320 O   0  0  0  0  0  0  0  0  0  0  0  0
   -4.8580    2.2090    0.4470 C   0  0  0  0  0  0  0  0  0  0  0  0
   -3.9520    3.7510    0.5420 Cl  0  0  0  0  0  0  0  0  0  0  0  0
  1  2  1  0
  2  3  2  0
  2 19  1  0
  3  4  1  0
  3  5  1  0
  5  6  2  0
  6  7  1  0
  6 18  1  0
  7  8  2  0
  8  9  1  0
  8 16  1  0
  9 10  2  0
  9 15  1  0
 10 11  1  0
 11 12  1  0
 11 13  2  0
 13 14  1  0
 14 15  1  0
 16 17  2  0
 17 18  1  0
 18 19  2  0
 19 20  1  0
 20 21  1  0
 21 22  2  0
 21 23  1  0
 23 24  1  0
M  END
