
     RDKit          3D

 24 26  0  0  0  0  0  0  0  0999 V2000
    7.3280    1.6110    0.6640 C   0  0  0  0  0  0  0  0  0  0  0  0
    6.9800    0.2280    0.3470 N   0  0  0  0  0  0  0  0  0  0  0  0
    5.6320   -0.1470    0.1030 C   0  0  0  0  0  0  0  0  0  0  0  0
    5.3110   -1.4390   -0.1930 C   0  0  0  0  0  0  0  0  0  0  0  0
    3.9960   -1.7710   -0.4250 C   0  0  0  0  0  0  0  0  0  0  0  0
    2.9830   -0.8180   -0.3640 C   0  0  0  0  0  0  0  0  0  0  0  0
    1.6870   -0.8280   -0.5300 O   0  0  0  0  0  0  0  0  0  0  0  0
    1.1720    0.3660   -0.3600 C   0  0  0  0  0  0  0  0  0  0  0  0
   -0.2250    0.8330   -0.4440 C   0  0  0  0  0  0  0  0  0  0  0  0
   -1.1150   -0.2890   -0.7780 N   0  0  0  0  0  0  0  0  0  0  0  0
   -2.5000   -0.1130   -0.9180 C   0  0  0  0  0  0  0  0  0  0  0  0
   -2.9890    1.0300   -0.7540 O   0  0  0  0  0  0  0  0  0  0  0  0
   -3.3980   -1.1760   -1.2410 N   0  0  0  0  0  0  0  0  0  0  0  0
   -4.8260   -0.9250   -1.3720 C   0  0  0  0  0  0  0  0  0  0  0  0
   -5.4170   -0.3980   -0.1300 C   0  0  0  0  0  0  0  0  0  0  0  0
   -6.0330    0.7610    0.0230 C   0  0  0  0  0  0  0  0  0  0  0  0
   -6.3090    1.9810   -1.2220 Cl  0  0  0  0  0  0  0  0  0  0  0  0
   -6.4740    0.9020    1.4260 C   0  0  0  0  0  0  0  0  0  0  0  0
   -6.0150   -0.3560    2.0490 C   0  0  0  0  0  0  0  0  0  0  0  0
   -5.4030   -1.1040    1.1420 C   0  0  0  0  0  0  0  0  0  0  0  0
   -4.6930   -2.6940    1.4420 Cl  0  0  0  0  0  0  0  0  0  0  0  0
    2.2040    1.1780   -0.0690 N   0  0  0  0  0  0  0  0  0  0  0  0
    3.3420    0.4800   -0.0630 C   0  0  0  0  0  0  0  0  0  0  0  0
    4.6520    0.8280    0.1710 C   0  0  0  0  0  0  0  0  0  0  0  0
  1  2  1  0
  2  3  1  0
  3  4  2  0
  3 24  1  0
  4  5  1  0
  5  6  2  0
  6  7  1  0
  6 23  1  0
  7  8  1  0
  8  9  1  0
  8 22  2  0
  9 10  1  0
 10 11  1  0
 11 12  2  0
 11 13  1  0
 13 14  1  0
 14 15  1  0
 15 16  2  0
 15 20  1  0
 16 17  1  0
 16 18  1  0
 18 19  1  0
 19 20  2  0
 20 21  1  0
 22 23  1  0
 23 24  2  0
M  END
