
     RDKit          3D

 24 26  0  0  0  0  0  0  0  0999 V2000
   -3.1460    2.2720    0.0100 C   0  0  0  0  0  0  0  0  0  0  0  0
   -2.6350    0.8710   -0.2100 C   0  0  0  0  0  0  0  0  0  0  0  0
   -1.3180    0.6030   -0.1720 N   0  0  0  0  0  0  0  0  0  0  0  0
   -0.7770   -0.6120   -0.3580 C   0  0  0  0  0  0  0  0  0  0  0  0
    0.6500   -0.8620   -0.3090 C   0  0  0  0  0  0  0  0  0  0  0  0
    1.2720   -2.0340   -0.4820 N   0  0  0  0  0  0  0  0  0  0  0  0
    2.5650   -1.8560   -0.3630 O   0  0  0  0  0  0  0  0  0  0  0  0
    2.8280   -0.6020   -0.1160 C   0  0  0  0  0  0  0  0  0  0  0  0
    4.0960    0.0690    0.0920 C   0  0  0  0  0  0  0  0  0  0  0  0
    4.2030    1.4170    0.3400 C   0  0  0  0  0  0  0  0  0  0  0  0
    5.4140    2.0440    0.5370 C   0  0  0  0  0  0  0  0  0  0  0  0
    6.5800    1.2720    0.4820 C   0  0  0  0  0  0  0  0  0  0  0  0
    8.1530    2.0110    0.7240 Cl  0  0  0  0  0  0  0  0  0  0  0  0
    6.5160   -0.0810    0.2350 C   0  0  0  0  0  0  0  0  0  0  0  0
    7.6980   -0.8030    0.1900 O   0  0  0  0  0  0  0  0  0  0  0  0
    5.2740   -0.6510    0.0460 C   0  0  0  0  0  0  0  0  0  0  0  0
    1.6170    0.0350   -0.0800 N   0  0  0  0  0  0  0  0  0  0  0  0
   -1.6470   -1.6800   -0.6110 C   0  0  0  0  0  0  0  0  0  0  0  0
   -3.0020   -1.4400   -0.6580 C   0  0  0  0  0  0  0  0  0  0  0  0
   -3.9340   -2.4770   -0.9090 N   0  0  0  0  0  0  0  0  0  0  0  0
   -3.5110   -0.1640   -0.4580 C   0  0  0  0  0  0  0  0  0  0  0  0
   -4.9730    0.0950   -0.5070 C   0  0  0  0  0  0  0  0  0  0  0  0
   -5.5800    0.2720    0.8740 C   0  0  0  0  0  0  0  0  0  0  0  0
   -7.3280    0.5710    0.6380 Cl  0  0  0  0  0  0  0  0  0  0  0  0
  1  2  1  0
  2  3  2  0
  2 21  1  0
  3  4  1  0
  4  5  1  0
  4 18  2  0
  5  6  2  0
  5 17  1  0
  6  7  1  0
  7  8  1  0
  8  9  1  0
  8 17  2  0
  9 10  2  0
  9 16  1  0
 10 11  1  0
 11 12  2  0
 12 13  1  0
 12 14  1  0
 14 15  1  0
 14 16  2  0
 18 19  1  0
 19 20  1  0
 19 21  2  0
 21 22  1  0
 22 23  1  0
 23 24  1  0
M  END
