
     RDKit          3D

 24 26  0  0  0  0  0  0  0  0999 V2000
   -5.4280    3.4970    0.7780 O   0  0  0  0  0  0  0  0  0  0  0  0
   -5.1400    2.3180    0.4630 C   0  0  0  0  0  0  0  0  0  0  0  0
   -3.8280    1.6930    0.3690 C   0  0  0  0  0  0  0  0  0  0  0  0
   -3.9480    0.4190    0.0000 C   0  0  0  0  0  0  0  0  0  0  0  0
   -2.9070   -0.5930   -0.2200 C   0  0  0  0  0  0  0  0  0  0  0  0
   -1.5780   -0.1200   -0.0020 N   0  0  0  0  0  0  0  0  0  0  0  0
   -0.4960   -1.0340   -0.1920 C   0  0  0  0  0  0  0  0  0  0  0  0
   -0.7010   -2.3370   -0.5750 C   0  0  0  0  0  0  0  0  0  0  0  0
    0.3300   -3.2010   -0.7540 C   0  0  0  0  0  0  0  0  0  0  0  0
    1.6060   -2.7670   -0.5510 C   0  0  0  0  0  0  0  0  0  0  0  0
    2.9290   -3.8940   -0.7890 Cl  0  0  0  0  0  0  0  0  0  0  0  0
    1.9140   -1.4490   -0.1590 C   0  0  0  0  0  0  0  0  0  0  0  0
    3.2640   -1.1090    0.0890 N   0  0  0  0  0  0  0  0  0  0  0  0
    3.8580    0.1710    0.1440 C   0  0  0  0  0  0  0  0  0  0  0  0
    3.2940    1.2600   -0.4500 C   0  0  0  0  0  0  0  0  0  0  0  0
    3.9960    2.4720   -0.3960 C   0  0  0  0  0  0  0  0  0  0  0  0
    5.2130    2.5190    0.2430 C   0  0  0  0  0  0  0  0  0  0  0  0
    5.7460    1.4390    0.8150 N   0  0  0  0  0  0  0  0  0  0  0  0
    5.1080    0.2690    0.7860 C   0  0  0  0  0  0  0  0  0  0  0  0
    5.8580   -1.1100    1.5540 Cl  0  0  0  0  0  0  0  0  0  0  0  0
    0.8250   -0.6320    0.0050 C   0  0  0  0  0  0  0  0  0  0  0  0
   -5.3740    0.1530   -0.1650 C   0  0  0  0  0  0  0  0  0  0  0  0
   -5.9080   -0.9410   -0.5090 O   0  0  0  0  0  0  0  0  0  0  0  0
   -6.0990    1.3410    0.1250 N   0  0  0  0  0  0  0  0  0  0  0  0
  1  2  2  0
  2  3  1  0
  2 24  1  0
  3  4  2  0
  4  5  1  0
  4 22  1  0
  5  6  1  0
  6  7  1  0
  7  8  2  0
  7 21  1  0
  8  9  1  0
  9 10  2  0
 10 11  1  0
 10 12  1  0
 12 13  1  0
 12 21  2  0
 13 14  1  0
 14 15  2  0
 14 19  1  0
 15 16  1  0
 16 17  2  0
 17 18  1  0
 18 19  2  0
 19 20  1  0
 22 23  2  0
 22 24  1  0
M  END
