
     RDKit          3D

  9  9  0  0  0  0  0  0  0  0999 V2000
   -3.1830    0.1450    0.2830 O   0  0  0  0  0  0  0  0  0  0  0  0
   -2.2360   -0.8870    0.1840 C   0  0  0  0  0  0  0  0  0  0  0  0
   -0.8740   -0.2600    0.1010 C   0  0  0  0  0  0  0  0  0  0  0  0
   -0.5630    1.0750    0.1140 C   0  0  0  0  0  0  0  0  0  0  0  0
    0.8050    1.1910    0.0160 C   0  0  0  0  0  0  0  0  0  0  0  0
    1.2810   -0.0970   -0.0550 C   0  0  0  0  0  0  0  0  0  0  0  0
    2.7330   -0.4500   -0.1730 C   0  0  0  0  0  0  0  0  0  0  0  0
    3.3100   -0.6020    1.0730 F   0  0  0  0  0  0  0  0  0  0  0  0
    0.2550   -0.9120   -0.0010 O   0  0  0  0  0  0  0  0  0  0  0  0
  1  2  1  0
  2  3  1  0
  3  4  2  0
  3  9  1  0
  4  5  1  0
  5  6  2  0
  6  7  1  0
  6  9  1  0
  7  8  1  0
M  END
