
     RDKit          3D

  9  8  0  0  0  0  0  0  0  0999 V2000
   -2.3620    1.0220   -0.5740 C   0  0  0  0  0  0  0  0  0  0  0  0
   -1.7470    0.0610    0.1030 C   0  0  0  0  0  0  0  0  0  0  0  0
   -2.5480   -0.9450    0.8400 C   0  0  0  0  0  0  0  0  0  0  0  0
   -2.2290   -2.1830    0.3120 F   0  0  0  0  0  0  0  0  0  0  0  0
   -0.2610   -0.0340    0.1410 C   0  0  0  0  0  0  0  0  0  0  0  0
    0.3440    0.9710   -0.5920 O   0  0  0  0  0  0  0  0  0  0  0  0
    1.7120    0.9210   -0.5720 C   0  0  0  0  0  0  0  0  0  0  0  0
    2.2970   -0.3550   -1.1290 C   0  0  0  0  0  0  0  0  0  0  0  0
    3.7000   -0.2010   -1.0180 O   0  0  0  0  0  0  0  0  0  0  0  0
  1  2  2  0
  2  3  1  0
  2  5  1  0
  3  4  1  0
  5  6  1  0
  6  7  1  0
  7  8  1  0
  8  9  1  0
M  END
