
     RDKit          3D

  8  8  0  0  0  0  0  0  0  0999 V2000
   -1.5610   -2.0420   -0.0820 O   0  0  0  0  0  0  0  0  0  0  0  0
   -0.7700   -0.9550   -0.3560 C   0  0  2  0  0  0  0  0  0  0  0  0
    0.6090   -1.2100    0.2540 C   0  0  0  0  0  0  0  0  0  0  0  0
    1.5000   -0.1250   -0.3590 C   0  0  0  0  0  0  0  0  0  0  0  0
    1.2480    1.1280    0.4370 C   0  0  0  0  0  0  0  0  0  0  0  0
    0.3710    2.0000   -0.1420 O   0  0  0  0  0  0  0  0  0  0  0  0
   -0.8860    1.5470   -0.3600 C   0  0  0  0  0  0  0  0  0  0  0  0
   -1.2770    0.3030    0.3550 C   0  0  0  0  0  0  0  0  0  0  0  0
  2  1  1  1
  2  3  1  0
  2  8  1  0
  3  4  1  0
  4  5  1  0
  5  6  1  0
  6  7  1  0
  7  8  1  0
M  END
