
     RDKit          3D

  9  9  0  0  0  0  0  0  0  0999 V2000
    1.7950   -1.6090   -0.0990 O   0  0  0  0  0  0  0  0  0  0  0  0
    0.6910   -0.7600   -0.0590 C   0  0  0  0  0  0  0  0  0  0  0  0
   -0.5860   -1.3100   -0.2390 C   0  0  0  0  0  0  0  0  0  0  0  0
   -1.7000   -0.5140   -0.2070 C   0  0  0  0  0  0  0  0  0  0  0  0
   -1.6510    0.8470   -0.0020 C   0  0  0  0  0  0  0  0  0  0  0  0
   -2.7630    1.6220    0.0270 F   0  0  0  0  0  0  0  0  0  0  0  0
   -0.4070    1.3970    0.1750 C   0  0  0  0  0  0  0  0  0  0  0  0
    0.7490    0.5970    0.1460 C   0  0  0  0  0  0  0  0  0  0  0  0
    1.9810    1.2070    0.3320 O   0  0  0  0  0  0  0  0  0  0  0  0
  1  2  1  0
  2  3  2  0
  2  8  1  0
  3  4  1  0
  4  5  2  0
  5  6  1  0
  5  7  1  0
  7  8  2  0
  8  9  1  0
M  END
