
     RDKit          3D

  8  7  0  0  0  0  0  0  0  0999 V2000
   -1.6300   -1.3330   -1.1770 C   0  0  0  0  0  0  0  0  0  0  0  0
   -0.8560   -0.2990   -0.3960 C   0  0  0  0  0  0  0  0  0  0  0  0
    0.3300    0.0330   -0.8030 C   0  0  0  0  0  0  0  0  0  0  0  0
    1.1800    1.0190   -0.1390 C   0  0  0  0  0  0  0  0  0  0  0  0
    2.4820    0.4260    0.3720 C   0  0  0  0  0  0  0  0  0  0  0  0
    2.2890   -0.5790    1.2850 O   0  0  0  0  0  0  0  0  0  0  0  0
   -1.4970    0.2670    0.7960 C   0  0  0  0  0  0  0  0  0  0  0  0
   -2.7040    0.9270    0.4720 O   0  0  0  0  0  0  0  0  0  0  0  0
  1  2  1  0
  2  3  2  3
  2  7  1  0
  3  4  1  0
  4  5  1  0
  5  6  1  0
  7  8  1  0
M  END
