
     RDKit          3D

  8  8  0  0  0  0  0  0  0  0999 V2000
    2.5550    0.0230    0.6640 O   0  0  0  0  0  0  0  0  0  0  0  0
    1.5050    0.0910   -0.2220 C   0  0  1  0  0  0  0  0  0  0  0  0
    0.6840   -1.1630   -0.2970 C   0  0  0  0  0  0  0  0  0  0  0  0
   -0.5200   -1.1530    0.5750 C   0  0  0  0  0  0  0  0  0  0  0  0
   -1.7140   -0.4700   -0.0120 C   0  0  0  0  0  0  0  0  0  0  0  0
   -1.5420    0.9620   -0.3370 C   0  0  0  0  0  0  0  0  0  0  0  0
   -0.3530    1.3030   -0.9270 O   0  0  0  0  0  0  0  0  0  0  0  0
    0.6390    1.3130    0.0690 C   0  0  0  0  0  0  0  0  0  0  0  0
  2  1  1  1
  2  3  1  0
  2  8  1  0
  3  4  1  0
  4  5  1  0
  5  6  1  0
  6  7  1  0
  7  8  1  0
M  END
