
     RDKit          3D

  8  8  0  0  0  0  0  0  0  0999 V2000
    3.0670   -0.2290    0.7240 O   0  0  0  0  0  0  0  0  0  0  0  0
    1.9560    0.5260    0.3360 C   0  0  0  0  0  0  0  0  0  0  0  0
    0.8800   -0.4670   -0.0620 C   0  0  0  0  0  0  0  0  0  0  0  0
   -0.3860    0.2240   -0.5070 C   0  0  1  0  0  0  0  0  0  0  0  0
   -0.1870    1.0400   -1.5900 O   0  0  0  0  0  0  0  0  0  0  0  0
   -1.5320   -0.7520   -0.6000 C   0  0  0  0  0  0  0  0  0  0  0  0
   -1.7660   -0.4570    0.8890 C   0  0  0  0  0  0  0  0  0  0  0  0
   -1.1540    0.9140    0.5940 C   0  0  0  0  0  0  0  0  0  0  0  0
  1  2  1  0
  2  3  1  0
  3  4  1  0
  4  5  1  6
  4  6  1  0
  4  8  1  0
  6  7  1  0
  7  8  1  0
M  END
