
     RDKit          3D

  8  8  0  0  0  0  0  0  0  0999 V2000
    1.5090    1.5080   -0.3730 O   0  0  0  0  0  0  0  0  0  0  0  0
    0.7430    0.3770   -0.1590 C   0  0  1  0  0  0  0  0  0  0  0  0
    1.6340   -0.8250   -0.2870 C   0  0  0  0  0  0  0  0  0  0  0  0
    2.6270   -0.6960    0.6790 F   0  0  0  0  0  0  0  0  0  0  0  0
    0.0410    0.3520    1.1590 C   0  0  0  0  0  0  0  0  0  0  0  0
   -1.3200   -0.2570    0.9220 C   0  0  0  0  0  0  0  0  0  0  0  0
   -1.4220   -0.5650   -0.5450 C   0  0  0  0  0  0  0  0  0  0  0  0
   -0.3980    0.3650   -1.1450 C   0  0  0  0  0  0  0  0  0  0  0  0
  2  1  1  1
  2  3  1  0
  2  5  1  0
  2  8  1  0
  3  4  1  0
  5  6  1  0
  6  7  1  0
  7  8  1  0
M  END
