
     RDKit          3D

 16 18  0  0  0  0  0  0  0  0999 V2000
    4.3740    0.5560    0.3960 C   0  0  0  0  0  0  0  0  0  0  0  0
    3.6820   -0.3120   -0.4880 O   0  0  0  0  0  0  0  0  0  0  0  0
    2.2850   -0.3400   -0.4950 C   0  0  0  0  0  0  0  0  0  0  0  0
    1.6380   -1.1890   -1.3600 C   0  0  0  0  0  0  0  0  0  0  0  0
    0.2540   -1.2690   -1.4210 C   0  0  0  0  0  0  0  0  0  0  0  0
   -0.4620   -0.4490   -0.5660 C   0  0  0  0  0  0  0  0  0  0  0  0
    0.1910    0.4000    0.2990 C   0  0  0  0  0  0  0  0  0  0  0  0
    1.5530    0.4380    0.3180 N   0  0  0  0  0  0  0  0  0  0  0  0
   -0.5220    1.2190    1.1540 C   0  0  0  0  0  0  0  0  0  0  0  0
    0.1150    1.9800    1.9280 O   0  0  0  0  0  0  0  0  0  0  0  0
   -1.8760    1.1880    1.1430 N   0  0  0  0  0  0  0  0  0  0  0  0
   -2.5300    0.3690    0.3080 C   0  0  0  0  0  0  0  0  0  0  0  0
   -3.8710    0.1030    0.0540 C   0  0  0  0  0  0  0  0  0  0  0  0
   -3.9260   -0.8240   -0.8990 N   0  0  0  0  0  0  0  0  0  0  0  0
   -2.7010   -1.1760   -1.2810 N   0  0  0  0  0  0  0  0  0  0  0  0
   -1.8390   -0.4540   -0.5500 C   0  0  0  0  0  0  0  0  0  0  0  0
  1  2  1  0
  2  3  1  0
  3  4  2  0
  3  8  1  0
  4  5  1  0
  5  6  2  0
  6  7  1  0
  6 16  1  0
  7  8  2  0
  7  9  1  0
  9 10  2  0
  9 11  1  0
 11 12  1  0
 12 13  2  0
 12 16  1  0
 13 14  1  0
 14 15  1  0
 15 16  2  0
M  END
