
     RDKit          3D

 27 30  0  0  0  0  0  0  0  0999 V2000
    5.8760   -1.2890    0.5160 C   0  0  0  0  0  0  0  0  0  0  0  0
    5.8740    0.1880    0.2540 C   0  0  0  0  0  0  0  0  0  0  0  0
    6.9050    1.0550    0.2720 N   0  0  0  0  0  0  0  0  0  0  0  0
    6.4190    2.2250   -0.0320 O   0  0  0  0  0  0  0  0  0  0  0  0
    5.1350    2.1760   -0.2470 C   0  0  0  0  0  0  0  0  0  0  0  0
    4.1870    3.2750   -0.6170 C   0  0  0  0  0  0  0  0  0  0  0  0
    4.7260    0.8750   -0.0750 C   0  0  0  0  0  0  0  0  0  0  0  0
    3.3550    0.3780   -0.2010 C   0  0  0  0  0  0  0  0  0  0  0  0
    2.9760   -0.4580   -1.2260 C   0  0  0  0  0  0  0  0  0  0  0  0
    1.6900   -0.9170   -1.3550 C   0  0  0  0  0  0  0  0  0  0  0  0
    0.6690   -0.5640   -0.4450 C   0  0  0  0  0  0  0  0  0  0  0  0
   -0.6470   -1.1670   -0.5930 C   0  0  0  0  0  0  0  0  0  0  0  0
   -0.8200   -2.3410   -1.2460 N   0  0  0  0  0  0  0  0  0  0  0  0
   -2.1130   -2.6310   -1.2210 C   0  0  0  0  0  0  0  0  0  0  0  0
   -2.7020   -3.7720   -1.7830 C   0  0  0  0  0  0  0  0  0  0  0  0
   -4.0210   -3.8930   -1.6500 N   0  0  0  0  0  0  0  0  0  0  0  0
   -4.7600   -2.9860   -1.0170 C   0  0  0  0  0  0  0  0  0  0  0  0
   -4.1440   -1.8680   -0.4710 C   0  0  0  0  0  0  0  0  0  0  0  0
   -2.8240   -1.6980   -0.5780 N   0  0  0  0  0  0  0  0  0  0  0  0
   -1.9150   -0.7530   -0.1710 C   0  0  0  0  0  0  0  0  0  0  0  0
   -2.2020    0.4690    0.4330 N   0  0  0  0  0  0  0  0  0  0  0  0
   -3.3350    1.0350    1.0530 C   0  0  2  0  0  0  0  0  0  0  0  0
   -3.7940    0.1820    2.1960 C   0  0  0  0  0  0  0  0  0  0  0  0
   -4.4340    1.5180    0.1490 C   0  0  0  0  0  0  0  0  0  0  0  0
   -2.8550    2.3610    1.7640 C   0  0  0  0  0  0  0  0  0  0  0  0
    1.0640    0.2640    0.5660 C   0  0  0  0  0  0  0  0  0  0  0  0
    2.3810    0.7370    0.7000 C   0  0  0  0  0  0  0  0  0  0  0  0
  1  2  1  0
  2  3  2  0
  2  7  1  0
  3  4  1  0
  4  5  1  0
  5  6  1  0
  5  7  2  0
  7  8  1  0
  8  9  2  0
  8 27  1  0
  9 10  1  0
 10 11  2  0
 11 12  1  0
 11 26  1  0
 12 13  1  0
 12 20  2  0
 13 14  1  0
 14 15  2  0
 14 19  1  0
 15 16  1  0
 16 17  2  0
 17 18  1  0
 18 19  2  0
 19 20  1  0
 20 21  1  0
 21 22  1  0
 22 23  1  1
 22 24  1  0
 22 25  1  0
 26 27  2  0
M  CHG  1  19   1
M  END
