
     RDKit          3D

 27 29  0  0  0  0  0  0  0  0999 V2000
    9.4060    0.7730    0.5660 C   0  0  0  0  0  0  0  0  0  0  0  0
    8.6660   -0.2670   -0.0060 O   0  0  0  0  0  0  0  0  0  0  0  0
    7.3040   -0.0930   -0.1990 C   0  0  0  0  0  0  0  0  0  0  0  0
    6.6880    1.1020    0.1730 C   0  0  0  0  0  0  0  0  0  0  0  0
    5.3380    1.2720   -0.0180 C   0  0  0  0  0  0  0  0  0  0  0  0
    4.5540    0.2810   -0.5760 C   0  0  0  0  0  0  0  0  0  0  0  0
    3.1510    0.5420   -0.7830 C   0  0  0  0  0  0  0  0  0  0  0  0
    2.2320   -0.2830   -0.3940 C   0  0  0  0  0  0  0  0  0  0  0  0
    2.5480   -1.5140    0.2780 N   0  0  0  0  0  0  0  0  0  0  0  0
    0.8000   -0.0370   -0.6230 C   0  0  0  0  0  0  0  0  0  0  0  0
    0.3610    1.0990   -1.2620 C   0  0  0  0  0  0  0  0  0  0  0  0
   -1.0140    1.2740   -1.4640 C   0  0  0  0  0  0  0  0  0  0  0  0
   -1.8880    0.3500   -1.0420 N   0  0  0  0  0  0  0  0  0  0  0  0
   -1.5210   -0.7730   -0.4150 C   0  0  0  0  0  0  0  0  0  0  0  0
   -2.3840   -1.7010    0.0090 O   0  0  0  0  0  0  0  0  0  0  0  0
   -3.7110   -1.9290    0.0250 C   0  0  0  0  0  0  0  0  0  0  0  0
   -4.5620   -0.9680    0.7880 C   0  0  2  0  0  0  0  0  0  0  0  0
   -5.9950   -1.5300    0.7630 C   0  0  0  0  0  0  0  0  0  0  0  0
   -6.9120   -0.3750    0.4360 C   0  0  0  0  0  0  0  0  0  0  0  0
   -6.5640    0.0980   -0.9730 C   0  0  0  0  0  0  0  0  0  0  0  0
   -5.1610    0.6940   -0.9340 C   0  0  0  0  0  0  0  0  0  0  0  0
   -4.5450    0.3970    0.3560 N   0  0  0  0  0  0  0  0  0  0  0  0
   -3.9870    1.4360    1.1360 C   0  0  0  0  0  0  0  0  0  0  0  0
   -3.5210    2.5160    0.6480 N   0  0  0  0  0  0  0  0  0  0  0  0
   -0.1350   -0.9330   -0.2200 C   0  0  0  0  0  0  0  0  0  0  0  0
    5.1370   -0.9050   -0.9500 C   0  0  0  0  0  0  0  0  0  0  0  0
    6.4890   -1.0730   -0.7590 C   0  0  0  0  0  0  0  0  0  0  0  0
  1  2  1  0
  2  3  1  0
  3  4  2  0
  3 27  1  0
  4  5  1  0
  5  6  2  0
  6  7  1  0
  6 26  1  0
  7  8  2  3
  8  9  1  0
  8 10  1  0
 10 11  2  0
 10 25  1  0
 11 12  1  0
 12 13  2  0
 13 14  1  0
 14 15  1  0
 14 25  2  0
 15 16  1  0
 17 16  1  6
 17 18  1  0
 17 22  1  0
 18 19  1  0
 19 20  1  0
 20 21  1  0
 21 22  1  0
 22 23  1  0
 23 24  2  0
 26 27  2  0
M  CHG  2   9   1  24   1
M  END
