
     RDKit          3D

 27 29  0  0  0  0  0  0  0  0999 V2000
   -2.3670   -4.7550    1.6030 C   0  0  0  0  0  0  0  0  0  0  0  0
   -2.6770   -3.2230    1.4070 C   0  0  2  0  0  0  0  0  0  0  0  0
   -4.0280   -3.2940    0.6690 C   0  0  0  0  0  0  0  0  0  0  0  0
   -1.6020   -2.7040    0.5520 C   0  0  0  0  0  0  0  0  0  0  0  0
   -1.4510   -1.3040    0.1740 C   0  0  2  0  0  0  0  0  0  0  0  0
   -2.4830   -0.5470   -0.5540 C   0  0  0  0  0  0  0  0  0  0  0  0
   -3.7490   -0.3180    0.0300 N   0  0  0  0  0  0  0  0  0  0  0  0
   -4.1320    1.1050   -0.0220 C   0  0  2  0  0  0  0  0  0  0  0  0
   -4.1230    1.6730   -1.3850 C   0  0  0  0  0  0  0  0  0  0  0  0
   -3.6630    3.1230   -1.2090 C   0  0  0  0  0  0  0  0  0  0  0  0
   -3.5870    3.3610    0.2650 C   0  0  0  0  0  0  0  0  0  0  0  0
   -3.2600    1.9720    0.8190 C   0  0  0  0  0  0  0  0  0  0  0  0
   -0.2270   -1.2510   -0.6760 N   0  0  0  0  0  0  0  0  0  0  0  0
    0.9330   -0.5450   -0.2410 C   0  0  0  0  0  0  0  0  0  0  0  0
    0.8660    0.0090    0.8570 O   0  0  0  0  0  0  0  0  0  0  0  0
    2.0490   -0.5420   -1.1010 N   0  0  0  0  0  0  0  0  0  0  0  0
    3.2510    0.1180   -0.7880 C   0  0  0  0  0  0  0  0  0  0  0  0
    3.4700    0.8130    0.3520 C   0  0  0  0  0  0  0  0  0  0  0  0
    4.6980    1.4660    0.6320 C   0  0  0  0  0  0  0  0  0  0  0  0
    5.6820    1.3650   -0.3190 C   0  0  0  0  0  0  0  0  0  0  0  0
    5.4650    0.6760   -1.4500 N   0  0  0  0  0  0  0  0  0  0  0  0
    6.5440    0.5940   -2.4390 C   0  0  0  0  0  0  0  0  0  0  0  0
    4.3090    0.0600   -1.7150 C   0  0  0  0  0  0  0  0  0  0  0  0
    4.1020   -0.5850   -2.7710 O   0  0  0  0  0  0  0  0  0  0  0  0
    6.7800    2.0270    0.0780 C   0  0  0  0  0  0  0  0  0  0  0  0
    6.5020    2.6200    1.4100 C   0  0  0  0  0  0  0  0  0  0  0  0
    5.1080    2.1830    1.6650 C   0  0  0  0  0  0  0  0  0  0  0  0
  2  1  1  6
  2  3  1  0
  2  4  1  0
  5  4  1  6
  5  6  1  0
  5 13  1  0
  6  7  1  0
  8  7  1  6
  8  9  1  0
  8 12  1  0
  9 10  1  0
 10 11  1  0
 11 12  1  0
 13 14  1  0
 14 15  2  0
 14 16  1  0
 16 17  1  0
 17 18  2  0
 17 23  1  0
 18 19  1  0
 19 20  1  0
 19 27  2  0
 20 21  1  0
 20 25  2  0
 21 22  1  0
 21 23  1  0
 23 24  2  0
 25 26  1  0
 26 27  1  0
M  CHG  1   7   1
M  END
