
     RDKit          3D

 27 29  0  0  0  0  0  0  0  0999 V2000
    0.6200   -0.9120    2.4190 C   0  0  0  0  0  0  0  0  0  0  0  0
   -0.5040   -0.7890    1.5300 N   0  0  0  0  0  0  0  0  0  0  0  0
   -0.5510   -0.2140    0.4020 C   0  0  0  0  0  0  0  0  0  0  0  0
   -1.7870   -0.2010   -0.3300 N   0  0  0  0  0  0  0  0  0  0  0  0
   -2.8770   -1.0540    0.0240 C   0  0  0  0  0  0  0  0  0  0  0  0
   -4.0470   -0.8910   -0.8170 N   0  0  0  0  0  0  0  0  0  0  0  0
   -4.9970   -1.8730   -0.3450 C   0  0  0  0  0  0  0  0  0  0  0  0
   -6.3800   -1.7040   -0.8270 C   0  0  0  0  0  0  0  0  0  0  0  0
   -6.8110   -0.4170   -1.0100 O   0  0  0  0  0  0  0  0  0  0  0  0
   -6.8210    0.2890    0.2090 C   0  0  0  0  0  0  0  0  0  0  0  0
   -5.3960    0.6460    0.5740 C   0  0  2  0  0  0  0  0  0  0  0  0
   -5.3230    1.9870    1.0170 O   0  0  0  0  0  0  0  0  0  0  0  0
   -4.5150    0.4600   -0.6480 C   0  0  0  0  0  0  0  0  0  0  0  0
    0.6450    0.4220   -0.1290 N   0  0  0  0  0  0  0  0  0  0  0  0
    1.8700   -0.2560   -0.1950 C   0  0  0  0  0  0  0  0  0  0  0  0
    1.9330   -1.6530   -0.2050 C   0  0  0  0  0  0  0  0  0  0  0  0
    3.0890   -2.3660   -0.3770 C   0  0  0  0  0  0  0  0  0  0  0  0
    4.2690   -1.7140   -0.5520 C   0  0  0  0  0  0  0  0  0  0  0  0
    4.2750   -0.3230   -0.5510 C   0  0  0  0  0  0  0  0  0  0  0  0
    3.0790    0.3790   -0.3710 C   0  0  0  0  0  0  0  0  0  0  0  0
    2.8700    1.6700   -0.2630 C   0  0  0  0  0  0  0  0  0  0  0  0
    3.6270    2.9400   -0.3300 C   0  0  0  0  0  0  0  0  0  0  0  0
    4.8920    3.2600   -0.5330 C   0  0  0  0  0  0  0  0  0  0  0  0
    6.1060    2.5150   -0.7800 C   0  0  0  0  0  0  0  0  0  0  0  0
    6.3380    1.2110   -0.8570 C   0  0  0  0  0  0  0  0  0  0  0  0
    7.7770    0.9750   -1.1330 C   0  0  0  0  0  0  0  0  0  0  0  0
    5.5430   -0.0010   -0.7400 C   0  0  0  0  0  0  0  0  0  0  0  0
  1  2  1  0
  2  3  2  3
  3  4  1  0
  3 14  1  0
  4  5  1  0
  5  6  1  0
  6  7  1  0
  6 13  1  0
  7  8  1  0
  8  9  1  0
  9 10  1  0
 10 11  1  0
 11 12  1  6
 11 13  1  0
 14 15  1  0
 15 16  2  0
 15 20  1  0
 16 17  1  0
 17 18  2  0
 18 19  1  0
 19 20  1  0
 19 27  2  0
 20 21  2  0
 21 22  1  0
 22 23  2  0
 23 24  1  0
 24 25  2  0
 25 26  1  0
 25 27  1  0
M  CHG  1   2   1
M  END
