
     RDKit          3D

 27 29  0  0  0  0  0  0  0  0999 V2000
   -7.4410   -2.4510    0.6860 C   0  0  0  0  0  0  0  0  0  0  0  0
   -6.1390   -1.7810    0.9930 C   0  0  0  0  0  0  0  0  0  0  0  0
   -5.4090   -1.4910   -0.2300 N   0  0  0  0  0  0  0  0  0  0  0  0
   -5.8390   -0.3010   -0.8790 C   0  0  0  0  0  0  0  0  0  0  0  0
   -5.5170    0.9930   -0.2610 C   0  0  0  0  0  0  0  0  0  0  0  0
   -4.1110    1.3790   -0.0620 C   0  0  2  0  0  0  0  0  0  0  0  0
   -3.2950    1.4330   -1.3300 C   0  0  0  0  0  0  0  0  0  0  0  0
   -1.9880    1.0140   -0.8840 N   0  0  0  0  0  0  0  0  0  0  0  0
   -0.7630    1.3710   -1.5050 C   0  0  0  0  0  0  0  0  0  0  0  0
   -0.7370    2.0990   -2.5240 O   0  0  0  0  0  0  0  0  0  0  0  0
    0.5240    0.8980   -0.9730 C   0  0  0  0  0  0  0  0  0  0  0  0
    1.6290    1.2500   -1.5820 C   0  0  0  0  0  0  0  0  0  0  0  0
    2.9360    0.8250   -1.1200 C   0  0  0  0  0  0  0  0  0  0  0  0
    4.0990    1.2150   -1.8000 C   0  0  0  0  0  0  0  0  0  0  0  0
    5.3610    0.8420   -1.4050 C   0  0  0  0  0  0  0  0  0  0  0  0
    5.5450    0.0460   -0.2940 C   0  0  0  0  0  0  0  0  0  0  0  0
    6.8460   -0.3560    0.1380 N   0  0  0  0  0  0  0  0  0  0  0  0
    7.2580   -1.7500    0.3720 C   0  0  0  0  0  0  0  0  0  0  0  0
    8.6890   -1.6700   -0.1540 C   0  0  0  0  0  0  0  0  0  0  0  0
    9.1710   -0.3740    0.4630 C   0  0  0  0  0  0  0  0  0  0  0  0
    7.9610    0.4780    0.4140 C   0  0  0  0  0  0  0  0  0  0  0  0
    7.9040    1.7130    0.5810 O   0  0  0  0  0  0  0  0  0  0  0  0
    4.4190   -0.3500    0.3910 C   0  0  0  0  0  0  0  0  0  0  0  0
    3.1310    0.0330   -0.0140 C   0  0  0  0  0  0  0  0  0  0  0  0
   -2.1150    0.1730    0.2780 C   0  0  0  0  0  0  0  0  0  0  0  0
   -3.3200    0.6900    0.9840 C   0  0  1  0  0  0  0  0  0  0  0  0
   -2.8690    1.6150    2.0420 N   0  0  0  0  0  0  0  0  0  0  0  0
  1  2  1  0
  2  3  1  0
  3  4  1  0
  4  5  1  0
  6  5  1  6
  6  7  1  0
  6 26  1  0
  7  8  1  0
  8  9  1  0
  8 25  1  0
  9 10  2  0
  9 11  1  0
 11 12  2  3
 12 13  1  0
 13 14  2  0
 13 24  1  0
 14 15  1  0
 15 16  2  0
 16 17  1  0
 16 23  1  0
 17 18  1  0
 17 21  1  0
 18 19  1  0
 19 20  1  0
 20 21  1  0
 21 22  2  0
 23 24  2  0
 25 26  1  0
 26 27  1  1
M  CHG  2   3   1  27   1
M  END
