
     RDKit          3D

 33 34  0  0  0  0  0  0  0  0999 V2000
   -6.1980   -2.5010   -0.6590 C   0  0  0  0  0  0  0  0  0  0  0  0
   -5.8760   -1.0330   -0.3210 C   0  0  1  0  0  0  0  0  0  0  0  0
   -6.9630   -0.5070    0.6060 C   0  0  0  0  0  0  0  0  0  0  0  0
   -4.5060   -1.0310    0.3270 C   0  0  2  0  0  0  0  0  0  0  0  0
   -3.9700    0.2850    0.7110 C   0  0  0  0  0  0  0  0  0  0  0  0
   -2.9790    0.9220   -0.0960 N   0  0  0  0  0  0  0  0  0  0  0  0
   -3.2700    2.1000   -0.7390 C   0  0  0  0  0  0  0  0  0  0  0  0
   -2.2900    2.5820   -1.4660 O   0  0  0  0  0  0  0  0  0  0  0  0
   -4.4040    2.9340   -0.7990 N   0  0  0  0  0  0  0  0  0  0  0  0
   -5.6760    2.8370   -0.1720 C   0  0  0  0  0  0  0  0  0  0  0  0
   -4.2640    4.1290   -1.6760 C   0  0  0  0  0  0  0  0  0  0  0  0
   -1.6090    0.3910   -0.2240 C   0  0  2  0  0  0  0  0  0  0  0  0
   -1.2490   -0.4330    0.9700 C   0  0  0  0  0  0  0  0  0  0  0  0
   -0.5590    1.3180   -0.6530 C   0  0  0  0  0  0  0  0  0  0  0  0
    0.8280    0.7180   -0.6710 C   0  0  0  0  0  0  0  0  0  0  0  0
    1.4130    0.3870    0.5850 N   0  0  0  0  0  0  0  0  0  0  0  0
    2.6690   -0.3270    0.5230 C   0  0  0  0  0  0  0  0  0  0  0  0
    3.2510   -0.6760   -0.6640 C   0  0  0  0  0  0  0  0  0  0  0  0
    4.4510   -1.3530   -0.7560 C   0  0  0  0  0  0  0  0  0  0  0  0
    5.0720   -1.6800    0.4530 C   0  0  0  0  0  0  0  0  0  0  0  0
    6.3050   -2.3880    0.3610 N   0  0  0  0  0  0  0  0  0  0  0  0
    7.4210   -1.7400   -0.1410 N   0  0  0  0  0  0  0  0  0  0  0  0
    7.3630   -0.2990   -0.0070 C   0  0  0  0  0  0  0  0  0  0  0  0
    8.6220    0.2510   -0.6560 C   0  0  0  0  0  0  0  0  0  0  0  0
   10.1630   -0.3850    0.1320 P   0  0  0  0  0  0  0  0  0  0  0  0
    9.7740   -1.6720    1.1980 O   0  0  0  0  0  0  0  0  0  0  0  0
   10.9700    0.8830    0.9740 O   0  0  0  0  0  0  0  0  0  0  0  0
    4.4800   -1.3260    1.6020 N   0  0  0  0  0  0  0  0  0  0  0  0
    3.3150   -0.6700    1.6530 N   0  0  0  0  0  0  0  0  0  0  0  0
   -1.7720   -0.5920   -1.3050 O   0  0  0  0  0  0  0  0  0  0  0  0
   -2.6190   -1.6600   -1.2870 C   0  0  0  0  0  0  0  0  0  0  0  0
   -2.4350   -2.5350   -2.2080 O   0  0  0  0  0  0  0  0  0  0  0  0
   -3.6790   -1.9340   -0.3850 N   0  0  0  0  0  0  0  0  0  0  0  0
  2  1  1  1
  2  3  1  0
  2  4  1  0
  4  5  1  6
  4 33  1  0
  5  6  1  0
  6  7  1  0
  6 12  1  0
  7  8  2  0
  7  9  1  0
  9 10  1  0
  9 11  1  0
 12 13  1  1
 12 14  1  0
 12 30  1  0
 14 15  1  0
 15 16  1  0
 16 17  1  0
 17 18  2  0
 17 29  1  0
 18 19  1  0
 19 20  2  0
 20 21  1  0
 20 28  1  0
 21 22  1  0
 22 23  1  0
 23 24  1  0
 24 25  1  0
 25 26  1  0
 25 27  1  0
 28 29  2  0
 30 31  1  0
 31 32  2  0
 31 33  1  0
M  END
