
     RDKit          3D

 33 34  0  0  0  0  0  0  0  0999 V2000
   -4.4640    3.9120    1.5670 C   0  0  0  0  0  0  0  0  0  0  0  0
   -5.0560    2.5390    1.7470 C   0  0  0  0  0  0  0  0  0  0  0  0
   -4.0460    1.4780    1.3190 C   0  0  0  0  0  0  0  0  0  0  0  0
   -4.6610    0.1380    1.5100 C   0  0  0  0  0  0  0  0  0  0  0  0
   -3.8550   -0.9880    1.1480 N   0  0  0  0  0  0  0  0  0  0  0  0
   -3.4820   -1.2960   -0.1800 C   0  0  0  0  0  0  0  0  0  0  0  0
   -4.5840   -1.7930   -1.0080 N   0  0  0  0  0  0  0  0  0  0  0  0
   -4.9620   -3.1760   -0.8930 C   0  0  0  0  0  0  0  0  0  0  0  0
   -6.1120   -3.5020   -1.8190 C   0  0  0  0  0  0  0  0  0  0  0  0
   -7.1910   -2.6890   -1.4620 O   0  0  0  0  0  0  0  0  0  0  0  0
   -2.3420   -1.2130   -0.7750 C   0  0  0  0  0  0  0  0  0  0  0  0
   -2.3440   -1.6520   -2.2530 C   0  0  0  0  0  0  0  0  0  0  0  0
   -1.0520   -0.7670   -0.3040 C   0  0  0  0  0  0  0  0  0  0  0  0
   -0.0910   -0.8340   -1.2010 N   0  0  0  0  0  0  0  0  0  0  0  0
    1.2660   -0.5020   -1.1300 N   0  0  0  0  0  0  0  0  0  0  0  0
    1.9800   -0.7250   -2.3380 C   0  0  0  0  0  0  0  0  0  0  0  0
    3.2350   -0.4900   -2.4680 N   0  0  0  0  0  0  0  0  0  0  0  0
    3.9760    0.0250   -1.3490 C   0  0  0  0  0  0  0  0  0  0  0  0
    5.3630    0.2900   -1.4640 N   0  0  0  0  0  0  0  0  0  0  0  0
    6.0860    0.4910   -0.2060 C   0  0  0  0  0  0  0  0  0  0  0  0
    6.6740    1.6360   -0.0930 C   0  0  0  0  0  0  0  0  0  0  0  0
    7.4630    2.1110    1.0440 C   0  0  0  0  0  0  0  0  0  0  0  0
    9.2050    2.4670    0.4210 P   0  0  0  0  0  0  0  0  0  0  0  0
   10.2070    1.1800    1.0150 O   0  0  0  0  0  0  0  0  0  0  0  0
    9.1890    2.3660   -1.3070 O   0  0  0  0  0  0  0  0  0  0  0  0
    6.0730   -0.5740    0.7510 C   0  0  0  0  0  0  0  0  0  0  0  0
    5.4350   -1.6510    0.4740 O   0  0  0  0  0  0  0  0  0  0  0  0
    6.6920   -0.5680    1.9830 O   0  0  0  0  0  0  0  0  0  0  0  0
    3.3910    0.2520   -0.2150 N   0  0  0  0  0  0  0  0  0  0  0  0
    2.0050    0.0060   -0.0300 C   0  0  0  0  0  0  0  0  0  0  0  0
    1.5290    0.2710    1.1270 N   0  0  0  0  0  0  0  0  0  0  0  0
    0.2100    0.1510    1.6400 C   0  0  0  0  0  0  0  0  0  0  0  0
   -0.9140   -0.2880    1.0530 C   0  0  0  0  0  0  0  0  0  0  0  0
  1  2  1  0
  2  3  1  0
  3  4  1  0
  4  5  1  0
  5  6  1  0
  6  7  1  0
  6 11  2  3
  7  8  1  0
  8  9  1  0
  9 10  1  0
 11 12  1  0
 11 13  1  0
 13 14  2  0
 13 33  1  0
 14 15  1  0
 15 16  1  0
 15 30  1  0
 16 17  2  0
 17 18  1  0
 18 19  1  0
 18 29  2  0
 19 20  1  0
 20 21  2  3
 20 26  1  0
 21 22  1  0
 22 23  1  0
 23 24  1  0
 23 25  1  0
 26 27  2  0
 26 28  1  0
 29 30  1  0
 30 31  2  0
 31 32  1  0
 32 33  2  0
M  END
