
     RDKit          3D

 33 34  0  0  0  0  0  0  0  0999 V2000
   -4.3750   -4.3590    0.7860 C   0  0  0  0  0  0  0  0  0  0  0  0
   -3.3690   -4.0260    1.5660 C   0  0  0  0  0  0  0  0  0  0  0  0
   -2.6170   -2.8660    1.2790 N   0  0  0  0  0  0  0  0  0  0  0  0
   -1.8830   -2.7610    0.1420 N   0  0  0  0  0  0  0  0  0  0  0  0
   -1.1780   -1.6540   -0.1240 C   0  0  0  0  0  0  0  0  0  0  0  0
   -0.4870   -1.7340   -1.3130 N   0  0  0  0  0  0  0  0  0  0  0  0
   -0.6500   -2.6530   -2.1620 C   0  0  0  0  0  0  0  0  0  0  0  0
   -1.5380   -3.7520   -2.0820 N   0  0  0  0  0  0  0  0  0  0  0  0
   -1.1320   -0.5230    0.7350 C   0  0  0  0  0  0  0  0  0  0  0  0
   -0.6020    0.6380    0.5610 C   0  0  0  0  0  0  0  0  0  0  0  0
   -0.7590    1.5460    1.7160 N   0  0  0  0  0  0  0  0  0  0  0  0
   -0.3570    2.7220    1.7790 C   0  0  0  0  0  0  0  0  0  0  0  0
    0.3400    3.3650    0.6840 C   0  0  0  0  0  0  0  0  0  0  0  0
    0.5280    2.6510   -0.3870 C   0  0  0  0  0  0  0  0  0  0  0  0
    0.0670    1.2630   -0.4970 N   0  0  0  0  0  0  0  0  0  0  0  0
    0.2850    0.6350   -1.7450 C   0  0  0  0  0  0  0  0  0  0  0  0
    1.6970    0.2720   -2.0640 C   0  0  2  0  0  0  0  0  0  0  0  0
    2.2690   -0.5720   -1.1300 O   0  0  0  0  0  0  0  0  0  0  0  0
    2.6290    1.3830   -2.4030 C   0  0  0  0  0  0  0  0  0  0  0  0
    3.7660    0.9360   -3.0120 O   0  0  0  0  0  0  0  0  0  0  0  0
    4.6060    0.1020   -2.3520 C   0  0  0  0  0  0  0  0  0  0  0  0
    5.1540    0.7260   -1.0930 C   0  0  0  0  0  0  0  0  0  0  0  0
    6.0760   -0.1710   -0.3270 C   0  0  0  0  0  0  0  0  0  0  0  0
    7.2970   -0.6190   -1.0480 C   0  0  0  0  0  0  0  0  0  0  0  0
   -1.9570   -0.7200    1.9710 C   0  0  0  0  0  0  0  0  0  0  0  0
   -1.9680    0.2280    3.0290 N   0  0  0  0  0  0  0  0  0  0  0  0
   -3.2090    0.6630    3.6270 C   0  0  0  0  0  0  0  0  0  0  0  0
   -4.0450    1.4860    2.6890 C   0  0  0  0  0  0  0  0  0  0  0  0
   -4.3480    0.7220    1.5690 O   0  0  0  0  0  0  0  0  0  0  0  0
   -5.3300    1.6960    0.4980 P   0  0  0  0  0  0  0  0  0  0  0  0
   -4.7870    3.3330    0.6380 O   0  0  0  0  0  0  0  0  0  0  0  0
   -6.9620    1.6240    1.1300 O   0  0  0  0  0  0  0  0  0  0  0  0
   -2.6280   -1.8110    2.1830 N   0  0  0  0  0  0  0  0  0  0  0  0
  1  2  2  0
  2  3  1  0
  3  4  1  0
  3 33  1  0
  4  5  2  0
  5  6  1  0
  5  9  1  0
  6  7  2  3
  7  8  1  0
  9 10  2  3
  9 25  1  0
 10 11  1  0
 10 15  1  0
 11 12  2  0
 12 13  1  0
 13 14  2  0
 14 15  1  0
 15 16  1  0
 16 17  1  0
 17 18  1  1
 17 19  1  0
 19 20  1  0
 20 21  1  0
 21 22  1  0
 22 23  1  0
 23 24  1  0
 25 26  1  0
 25 33  2  0
 26 27  1  0
 27 28  1  0
 28 29  1  0
 29 30  1  0
 30 31  1  0
 30 32  1  0
M  END
