
     RDKit          3D

 33 34  0  0  0  0  0  0  0  0999 V2000
   -6.3540    3.7730    0.1570 C   0  0  0  0  0  0  0  0  0  0  0  0
   -5.9620    2.4520    0.7460 C   0  0  0  0  0  0  0  0  0  0  0  0
   -5.8720    1.4500   -0.2300 O   0  0  0  0  0  0  0  0  0  0  0  0
   -5.4240   -0.0580    0.4510 P   0  0  0  0  0  0  0  0  0  0  0  0
   -6.4750   -1.3150   -0.0590 O   0  0  0  0  0  0  0  0  0  0  0  0
   -6.4050   -2.4340    0.7760 C   0  0  0  0  0  0  0  0  0  0  0  0
   -7.3470   -3.5120    0.2860 C   0  0  0  0  0  0  0  0  0  0  0  0
   -3.7530   -0.4330    0.1740 O   0  0  0  0  0  0  0  0  0  0  0  0
   -3.2600    0.5140   -0.7150 C   0  0  0  0  0  0  0  0  0  0  0  0
   -1.8030    0.2850   -1.0320 C   0  0  0  0  0  0  0  0  0  0  0  0
   -1.0190    0.3580    0.1650 N   0  0  0  0  0  0  0  0  0  0  0  0
    0.4070    0.1750    0.1460 C   0  0  0  0  0  0  0  0  0  0  0  0
    0.8700   -0.8200   -0.5400 N   0  0  0  0  0  0  0  0  0  0  0  0
    2.2760   -1.1170   -0.6470 C   0  0  0  0  0  0  0  0  0  0  0  0
    2.6560   -2.0140   -1.5420 C   0  0  0  0  0  0  0  0  0  0  0  0
    1.6660   -2.6640   -2.3780 C   0  0  0  0  0  0  0  0  0  0  0  0
    1.9790   -3.5500   -3.2710 N   0  0  0  0  0  0  0  0  0  0  0  0
    3.3320   -3.8890   -3.4320 N   0  0  0  0  0  0  0  0  0  0  0  0
    3.2020   -0.4060    0.2390 C   0  0  1  0  0  0  0  0  0  0  0  0
    3.7690   -1.3620    1.3060 C   0  0  0  0  0  0  0  0  0  0  0  0
    4.4220    0.1160   -0.4690 C   0  0  0  0  0  0  0  0  0  0  0  0
    4.3950    1.3410   -0.8190 O   0  0  0  0  0  0  0  0  0  0  0  0
    5.5420   -0.6610   -0.7510 N   0  0  0  0  0  0  0  0  0  0  0  0
    6.6850   -0.1230   -1.4350 C   0  0  0  0  0  0  0  0  0  0  0  0
    7.2870    0.9870   -0.6280 C   0  0  0  0  0  0  0  0  0  0  0  0
    7.6830    0.5030    0.6200 O   0  0  0  0  0  0  0  0  0  0  0  0
    2.5590    0.6860    0.9450 C   0  0  0  0  0  0  0  0  0  0  0  0
    1.2700    1.0150    0.9500 C   0  0  0  0  0  0  0  0  0  0  0  0
    0.7720    2.1330    1.7310 C   0  0  0  0  0  0  0  0  0  0  0  0
    1.4940    2.7860    2.6850 N   0  0  0  0  0  0  0  0  0  0  0  0
    0.8030    3.8180    3.1900 C   0  0  0  0  0  0  0  0  0  0  0  0
   -0.3620    3.8130    2.5480 N   0  0  0  0  0  0  0  0  0  0  0  0
   -0.3730    2.7960    1.6710 N   0  0  0  0  0  0  0  0  0  0  0  0
  1  2  1  0
  2  3  1  0
  3  4  1  0
  4  5  1  0
  4  8  1  0
  5  6  1  0
  6  7  1  0
  8  9  1  0
  9 10  1  0
 10 11  1  0
 11 12  1  0
 12 13  2  0
 12 28  1  0
 13 14  1  0
 14 15  2  3
 14 19  1  0
 15 16  1  0
 16 17  2  3
 17 18  1  0
 19 20  1  1
 19 21  1  0
 19 27  1  0
 21 22  2  0
 21 23  1  0
 23 24  1  0
 24 25  1  0
 25 26  1  0
 27 28  2  0
 28 29  1  0
 29 30  2  0
 29 33  1  0
 30 31  1  0
 31 32  2  0
 32 33  1  0
M  END
