
     RDKit          3D

 33 34  0  0  0  0  0  0  0  0999 V2000
    7.4210    1.8600    0.2340 C   0  0  0  0  0  0  0  0  0  0  0  0
    7.4270    0.4250    0.6900 C   0  0  2  0  0  0  0  0  0  0  0  0
    8.8260    0.0170    0.9100 N   0  0  0  0  0  0  0  0  0  0  0  0
    6.8720   -0.5040   -0.3190 C   0  0  0  0  0  0  0  0  0  0  0  0
    5.4650   -0.2250   -0.6950 C   0  0  0  0  0  0  0  0  0  0  0  0
    4.9210    0.7630   -0.1260 O   0  0  0  0  0  0  0  0  0  0  0  0
    4.7490   -1.0000   -1.6310 N   0  0  0  0  0  0  0  0  0  0  0  0
    3.3800   -0.7170   -1.9890 C   0  0  0  0  0  0  0  0  0  0  0  0
    2.4650   -1.1760   -0.8800 C   0  0  0  0  0  0  0  0  0  0  0  0
    3.0300   -1.7610    0.1820 N   0  0  0  0  0  0  0  0  0  0  0  0
    2.3310   -2.1900    1.2080 N   0  0  0  0  0  0  0  0  0  0  0  0
    0.9980   -2.0170    1.1530 C   0  0  0  0  0  0  0  0  0  0  0  0
    0.3960   -1.4040    0.0430 C   0  0  0  0  0  0  0  0  0  0  0  0
   -1.0820   -1.2530    0.1420 C   0  0  0  0  0  0  0  0  0  0  0  0
   -1.6230   -2.2900    0.4820 N   0  0  0  0  0  0  0  0  0  0  0  0
   -2.9660   -2.5650    0.6690 C   0  0  0  0  0  0  0  0  0  0  0  0
   -3.6180   -3.2780   -0.3480 C   0  0  0  0  0  0  0  0  0  0  0  0
   -4.9560   -3.5570   -0.2060 C   0  0  0  0  0  0  0  0  0  0  0  0
   -5.6930   -3.1700    0.8910 C   0  0  0  0  0  0  0  0  0  0  0  0
   -7.4820   -3.5960    0.9780 P   0  0  0  0  0  0  0  0  0  0  0  0
   -8.3220   -2.2160    1.6390 O   0  0  0  0  0  0  0  0  0  0  0  0
   -8.0440   -3.8630   -0.6430 O   0  0  0  0  0  0  0  0  0  0  0  0
   -5.0630   -2.4740    1.8870 C   0  0  0  0  0  0  0  0  0  0  0  0
   -3.7110   -2.1840    1.7590 C   0  0  0  0  0  0  0  0  0  0  0  0
   -1.7930   -0.1040    0.3930 N   0  0  0  0  0  0  0  0  0  0  0  0
   -1.8590    1.0630   -0.3790 C   0  0  0  0  0  0  0  0  0  0  0  0
   -1.2600    0.9780   -1.4720 O   0  0  0  0  0  0  0  0  0  0  0  0
   -2.5530    2.1880    0.0590 N   0  0  0  0  0  0  0  0  0  0  0  0
   -2.6250    3.3180   -0.8230 C   0  0  0  0  0  0  0  0  0  0  0  0
   -3.4930    4.3160   -0.0370 C   0  0  0  0  0  0  0  0  0  0  0  0
   -3.6190    5.5030   -0.9280 C   0  0  0  0  0  0  0  0  0  0  0  0
   -2.3830    6.0640   -1.2150 O   0  0  0  0  0  0  0  0  0  0  0  0
    1.1570   -1.0000   -0.9490 N   0  0  0  0  0  0  0  0  0  0  0  0
  2  1  1  6
  2  3  1  0
  2  4  1  0
  4  5  1  0
  5  6  2  0
  5  7  1  0
  7  8  1  0
  8  9  1  0
  9 10  2  0
  9 33  1  0
 10 11  1  0
 11 12  2  0
 12 13  1  0
 13 14  1  0
 13 33  2  0
 14 15  2  3
 14 25  1  0
 15 16  1  0
 16 17  2  0
 16 24  1  0
 17 18  1  0
 18 19  2  0
 19 20  1  0
 19 23  1  0
 20 21  1  0
 20 22  1  0
 23 24  2  0
 25 26  1  0
 26 27  2  0
 26 28  1  0
 28 29  1  0
 29 30  1  0
 30 31  1  0
 31 32  1  0
M  END
