
     RDKit          3D

 25 26  0  0  0  0  0  0  0  0999 V2000
    7.4890   -0.7920    0.2080 C   0  0  0  0  0  0  0  0  0  0  0  0
    6.8760   -1.6740    1.2580 C   0  0  0  0  0  0  0  0  0  0  0  0
    5.4690   -1.5590    1.1460 O   0  0  0  0  0  0  0  0  0  0  0  0
    4.8110   -0.3570    1.3010 C   0  0  0  0  0  0  0  0  0  0  0  0
    5.4880    0.6690    1.5500 O   0  0  0  0  0  0  0  0  0  0  0  0
    3.3530   -0.2700    1.1790 C   0  0  0  0  0  0  0  0  0  0  0  0
    2.7560   -1.3380    0.9290 O   0  0  0  0  0  0  0  0  0  0  0  0
    2.6710    0.9500    1.3340 N   0  0  0  0  0  0  0  0  0  0  0  0
    1.3110    1.2550    1.2420 C   0  0  0  0  0  0  0  0  0  0  0  0
    0.5500    1.1600   -0.0220 C   0  0  2  0  0  0  0  0  0  0  0  0
    0.4990   -0.1770   -0.6220 C   0  0  0  0  0  0  0  0  0  0  0  0
   -0.4200   -0.1610   -1.7260 N   0  0  0  0  0  0  0  0  0  0  0  0
   -1.6280   -0.7830   -1.6710 C   0  0  0  0  0  0  0  0  0  0  0  0
   -2.6250   -0.4090   -0.7200 N   0  0  1  0  0  0  0  0  0  0  0  0
   -3.9500   -0.8450   -1.1920 C   0  0  0  0  0  0  0  0  0  0  0  0
   -5.0410   -0.2170   -0.3400 C   0  0  0  0  0  0  0  0  0  0  0  0
   -4.6930   -0.3230    1.1320 C   0  0  1  0  0  0  0  0  0  0  0  0
   -5.9560   -0.7040    1.8710 C   0  0  0  0  0  0  0  0  0  0  0  0
   -3.6750   -1.4370    1.2630 C   0  0  0  0  0  0  0  0  0  0  0  0
   -2.3950   -1.0890    0.5350 C   0  0  0  0  0  0  0  0  0  0  0  0
    0.0060    0.7110   -2.7130 C   0  0  0  0  0  0  0  0  0  0  0  0
    0.2180    2.1150   -2.2170 C   0  0  0  0  0  0  0  0  0  0  0  0
    0.8640    2.2240   -0.9580 N   0  0  1  0  0  0  0  0  0  0  0  0
    0.4480    3.4660   -0.3300 C   0  0  0  0  0  0  0  0  0  0  0  0
    2.2010    2.3080   -1.1450 O   0  0  0  0  0  0  0  0  0  0  0  0
  1  2  1  0
  2  3  1  0
  3  4  1  0
  4  5  2  0
  4  6  1  0
  6  7  2  0
  6  8  1  0
  8  9  1  0
 10  9  1  1
 10 11  1  0
 10 23  1  0
 11 12  1  0
 12 13  1  0
 12 21  1  0
 14 13  1  6
 14 15  1  0
 14 20  1  0
 15 16  1  0
 16 17  1  0
 17 18  1  1
 17 19  1  0
 19 20  1  0
 21 22  1  0
 22 23  1  0
 23 24  1  1
 23 25  1  0
M  CHG  3  14   1  23   1  25  -1
M  END
