
     RDKit          3D

 25 27  0  0  0  0  0  0  0  0999 V2000
   -3.5970    0.1380    3.2140 C   0  0  0  0  0  0  0  0  0  0  0  0
   -4.1570    0.6650    1.9180 C   0  0  0  0  0  0  0  0  0  0  0  0
   -3.7260   -0.0710    0.7490 N   0  0  2  0  0  0  0  0  0  0  0  0
   -3.6890   -1.5370    1.1800 C   0  0  0  0  0  0  0  0  0  0  0  0
   -2.3220    0.2420    0.5210 C   0  0  0  0  0  0  0  0  0  0  0  0
   -1.7840   -0.0900   -0.7980 C   0  0  0  0  0  0  0  0  0  0  0  0
   -0.4910   -0.6130   -0.9690 C   0  0  0  0  0  0  0  0  0  0  0  0
    0.4860   -0.7990    0.1510 C   0  0  0  0  0  0  0  0  0  0  0  0
    1.6370   -1.5090   -0.3330 N   0  0  2  0  0  0  0  0  0  0  0  0
    1.1140   -2.4920   -1.1660 O   0  0  0  0  0  0  0  0  0  0  0  0
    2.2690   -2.1010    0.8250 C   0  0  0  0  0  0  0  0  0  0  0  0
    3.7180   -1.8320    0.9550 C   0  0  0  0  0  0  0  0  0  0  0  0
    4.2040   -0.5090    0.5310 C   0  0  2  0  0  0  0  0  0  0  0  0
    3.3310    0.2580   -0.3850 C   0  0  0  0  0  0  0  0  0  0  0  0
    2.4580   -0.7010   -1.1500 C   0  0  0  0  0  0  0  0  0  0  0  0
    5.4720   -0.6810   -0.0620 O   0  0  0  0  0  0  0  0  0  0  0  0
    6.0760    0.5610   -0.0730 C   0  0  0  0  0  0  0  0  0  0  0  0
    5.2600    1.3360    0.9260 C   0  0  0  0  0  0  0  0  0  0  0  0
    4.5460    0.3390    1.5980 O   0  0  0  0  0  0  0  0  0  0  0  0
   -0.2910   -0.7170   -2.2160 N   0  0  0  0  0  0  0  0  0  0  0  0
   -1.3080   -0.2770   -2.9050 N   0  0  0  0  0  0  0  0  0  0  0  0
   -2.2720    0.1470   -2.0160 C   0  0  0  0  0  0  0  0  0  0  0  0
   -3.5070    0.8320   -2.5010 C   0  0  0  0  0  0  0  0  0  0  0  0
   -2.9680    1.9360   -3.3290 O   0  0  0  0  0  0  0  0  0  0  0  0
   -2.6050    2.8980   -2.3780 C   0  0  0  0  0  0  0  0  0  0  0  0
  1  2  1  0
  2  3  1  0
  3  4  1  1
  3  5  1  0
  5  6  1  0
  6  7  1  0
  6 22  2  0
  7  8  1  0
  7 20  2  0
  8  9  1  0
  9 10  1  6
  9 11  1  0
  9 15  1  0
 11 12  1  0
 13 12  1  1
 13 14  1  0
 13 16  1  0
 13 19  1  0
 14 15  1  0
 16 17  1  0
 17 18  1  0
 18 19  1  0
 20 21  1  0
 21 22  1  0
 22 23  1  0
 23 24  1  0
 24 25  1  0
M  CHG  3   3   1   9   1  10  -1
M  END
