
     RDKit          3D

 25 27  0  0  0  0  0  0  0  0999 V2000
   -7.5020    0.0090   -0.7250 C   0  0  0  0  0  0  0  0  0  0  0  0
   -7.3710    0.7400    0.3890 O   0  0  0  0  0  0  0  0  0  0  0  0
   -6.2430    0.9830    1.0260 C   0  0  0  0  0  0  0  0  0  0  0  0
   -5.0050    1.4190    0.3140 C   0  0  0  0  0  0  0  0  0  0  0  0
   -4.6610    0.3220   -0.5670 O   0  0  0  0  0  0  0  0  0  0  0  0
   -3.4130    0.0100   -0.3300 N   0  0  2  0  0  0  0  0  0  0  0  0
   -3.5710   -1.3540    0.2360 O   0  0  0  0  0  0  0  0  0  0  0  0
   -2.8260    0.6930    0.8320 C   0  0  0  0  0  0  0  0  0  0  0  0
   -1.8200   -0.2700    1.4640 C   0  0  0  0  0  0  0  0  0  0  0  0
   -1.0910   -0.9600    0.5620 O   0  0  0  0  0  0  0  0  0  0  0  0
   -1.1670   -0.5350   -0.7050 C   0  0  1  0  0  0  0  0  0  0  0  0
   -0.1030   -1.1210   -1.5990 C   0  0  0  0  0  0  0  0  0  0  0  0
    1.1330   -0.4890   -1.2680 N   0  0  0  0  0  0  0  0  0  0  0  0
    2.2990   -1.2810   -1.0990 C   0  0  2  0  0  0  0  0  0  0  0  0
    2.4280   -1.8340    0.2890 C   0  0  0  0  0  0  0  0  0  0  0  0
    3.7860   -2.3790    0.5720 C   0  0  0  0  0  0  0  0  0  0  0  0
    4.9140   -1.4410    0.1480 C   0  0  0  0  0  0  0  0  0  0  0  0
    4.2900   -0.1450   -0.1930 C   0  0  1  0  0  0  0  0  0  0  0  0
    5.1070    1.0130   -0.3340 N   0  0  0  0  0  0  0  0  0  0  0  0
    5.2450    2.0460    0.5700 C   0  0  0  0  0  0  0  0  0  0  0  0
    6.1220    2.9920    0.0780 C   0  0  0  0  0  0  0  0  0  0  0  0
    6.5020    2.5150   -1.1460 C   0  0  0  0  0  0  0  0  0  0  0  0
    5.8910    1.3630   -1.3650 N   0  0  0  0  0  0  0  0  0  0  0  0
    3.4690   -0.3790   -1.4490 C   0  0  0  0  0  0  0  0  0  0  0  0
   -2.4850   -0.2420   -1.3170 C   0  0  0  0  0  0  0  0  0  0  0  0
  1  2  1  0
  2  3  1  0
  3  4  1  0
  4  5  1  0
  5  6  1  0
  6  7  1  1
  6  8  1  0
  6 25  1  0
  8  9  1  0
  9 10  1  0
 10 11  1  0
 11 12  1  6
 11 25  1  0
 12 13  1  0
 14 13  1  1
 14 15  1  0
 14 24  1  0
 15 16  1  0
 16 17  1  0
 17 18  1  0
 18 19  1  6
 18 24  1  0
 19 20  1  0
 19 23  1  0
 20 21  2  0
 21 22  1  0
 22 23  2  0
M  CHG  3   6   1   7  -1  13   1
M  END
