
     RDKit          3D

 25 26  0  0  0  0  0  0  0  0999 V2000
    6.5040   -0.5750    1.5710 C   0  0  0  0  0  0  0  0  0  0  0  0
    6.1850    0.8990    1.4340 C   0  0  0  0  0  0  0  0  0  0  0  0
    5.0880    1.0880    0.3720 C   0  0  1  0  0  0  0  0  0  0  0  0
    4.8830    2.4840    0.3380 O   0  0  0  0  0  0  0  0  0  0  0  0
    5.6170    0.5860   -0.9370 C   0  0  0  0  0  0  0  0  0  0  0  0
    4.5980    0.7300   -2.0110 C   0  0  0  0  0  0  0  0  0  0  0  0
    3.3750    0.0160   -1.8180 N   0  0  0  0  0  0  0  0  0  0  0  0
    3.3460   -1.3650   -2.3300 C   0  0  0  0  0  0  0  0  0  0  0  0
    2.2070    0.4810   -1.2010 C   0  0  0  0  0  0  0  0  0  0  0  0
    2.1560    1.6490   -0.7540 O   0  0  0  0  0  0  0  0  0  0  0  0
    1.0030   -0.3540   -1.0430 C   0  0  0  0  0  0  0  0  0  0  0  0
   -0.0690    0.0770   -0.4750 C   0  0  0  0  0  0  0  0  0  0  0  0
   -1.2970   -0.6610   -0.2730 C   0  0  0  0  0  0  0  0  0  0  0  0
   -2.4060   -0.1160    0.3520 N   0  0  0  0  0  0  0  0  0  0  0  0
   -3.3800   -1.0230    0.3950 C   0  0  0  0  0  0  0  0  0  0  0  0
   -4.7610   -0.8610    0.9830 C   0  0  0  0  0  0  0  0  0  0  0  0
   -4.8990    0.4680    1.5210 N   0  0  1  0  0  0  0  0  0  0  0  0
   -4.9380    1.4960    0.5190 C   0  0  0  0  0  0  0  0  0  0  0  0
   -5.9800    1.1330   -0.5020 C   0  0  0  0  0  0  0  0  0  0  0  0
   -7.1160    0.5760    0.0450 O   0  0  0  0  0  0  0  0  0  0  0  0
   -7.3100    0.8920    1.3780 C   0  0  0  0  0  0  0  0  0  0  0  0
   -6.1480    0.5260    2.2570 C   0  0  0  0  0  0  0  0  0  0  0  0
   -2.8790   -2.1080   -0.1930 N   0  0  0  0  0  0  0  0  0  0  0  0
   -1.6250   -1.9090   -0.6020 N   0  0  0  0  0  0  0  0  0  0  0  0
   -0.7980   -2.9180   -1.2870 C   0  0  0  0  0  0  0  0  0  0  0  0
  1  2  1  0
  2  3  1  0
  3  4  1  6
  3  5  1  0
  5  6  1  0
  6  7  1  0
  7  8  1  0
  7  9  1  0
  9 10  2  0
  9 11  1  0
 11 12  2  3
 12 13  1  0
 13 14  2  0
 13 24  1  0
 14 15  1  0
 15 16  1  0
 15 23  2  0
 17 16  1  6
 17 18  1  0
 17 22  1  0
 18 19  1  0
 19 20  1  0
 20 21  1  0
 21 22  1  0
 23 24  1  0
 24 25  1  0
M  CHG  1  17   1
M  END
