
     RDKit          3D

 20 22  0  0  0  0  0  0  0  0999 V2000
    5.0490    1.5510   -0.0590 C   0  0  0  0  0  0  0  0  0  0  0  0
    4.0680    1.2190    1.4230 S   0  0  0  0  0  0  0  0  0  0  0  0
    3.5330   -0.4730    1.5520 C   0  0  0  0  0  0  0  0  0  0  0  0
    2.5390   -0.9360    0.5600 C   0  0  1  0  0  0  0  0  0  0  0  0
    1.2250   -0.1470    0.6000 C   0  0  0  0  0  0  0  0  0  0  0  0
    0.5270   -0.7610   -0.5140 N   0  0  1  0  0  0  0  0  0  0  0  0
   -0.4920    0.1210   -0.9910 C   0  0  0  0  0  0  0  0  0  0  0  0
   -1.7670   -0.0320   -0.2170 C   0  0  0  0  0  0  0  0  0  0  0  0
   -2.0300   -0.8830    0.8360 C   0  0  0  0  0  0  0  0  0  0  0  0
   -3.3190   -0.6940    1.2420 N   0  0  0  0  0  0  0  0  0  0  0  0
   -3.8870    0.2550    0.4780 C   0  0  0  0  0  0  0  0  0  0  0  0
   -5.1680    0.8160    0.4750 C   0  0  0  0  0  0  0  0  0  0  0  0
   -6.1650    0.4060    1.3960 N   0  0  0  0  0  0  0  0  0  0  0  0
   -5.4100    1.7690   -0.4480 N   0  0  0  0  0  0  0  0  0  0  0  0
   -4.4790    2.1740   -1.3320 C   0  0  0  0  0  0  0  0  0  0  0  0
   -3.2440    1.6170   -1.3120 N   0  0  0  0  0  0  0  0  0  0  0  0
   -2.9400    0.6650   -0.4190 C   0  0  0  0  0  0  0  0  0  0  0  0
    1.5180   -1.0750   -1.5230 C   0  0  0  0  0  0  0  0  0  0  0  0
    2.8830   -0.7560   -0.8820 C   0  0  2  0  0  0  0  0  0  0  0  0
    3.8650   -1.5850   -1.3570 O   0  0  0  0  0  0  0  0  0  0  0  0
  1  2  1  0
  2  3  1  0
  4  3  1  1
  4  5  1  0
  4 19  1  0
  5  6  1  0
  6  7  1  6
  6 18  1  0
  7  8  1  0
  8  9  2  0
  8 17  1  0
  9 10  1  0
 10 11  1  0
 11 12  2  0
 11 17  1  0
 12 13  1  0
 12 14  1  0
 14 15  2  0
 15 16  1  0
 16 17  2  0
 18 19  1  0
 19 20  1  6
M  CHG  1   6   1
M  END
