
     RDKit          3D

 25 26  0  0  0  0  0  0  0  0999 V2000
    6.4850   -0.9370   -0.0470 C   0  0  0  0  0  0  0  0  0  0  0  0
    6.4100    0.4380    0.3520 N   0  0  0  0  0  0  0  0  0  0  0  0
    5.1430    0.8200    0.9330 C   0  0  0  0  0  0  0  0  0  0  0  0
    4.0310    0.5680   -0.0400 C   0  0  0  0  0  0  0  0  0  0  0  0
    4.1850    0.1960   -1.3520 C   0  0  0  0  0  0  0  0  0  0  0  0
    2.9310    0.0660   -1.9040 C   0  0  0  0  0  0  0  0  0  0  0  0
    2.0370    0.3760   -0.8730 C   0  0  0  0  0  0  0  0  0  0  0  0
    0.5850    0.3530   -1.0620 C   0  0  0  0  0  0  0  0  0  0  0  0
    0.1350    0.0200   -2.2070 O   0  0  0  0  0  0  0  0  0  0  0  0
   -0.3620    0.6600   -0.0780 N   0  0  0  0  0  0  0  0  0  0  0  0
   -1.7850    0.4670   -0.4880 C   0  0  0  0  0  0  0  0  0  0  0  0
   -2.1550   -0.9340   -0.1410 C   0  0  0  0  0  0  0  0  0  0  0  0
   -3.4990   -1.2880   -0.4990 N   0  0  0  0  0  0  0  0  0  0  0  0
   -3.8490   -1.4030   -1.8970 C   0  0  0  0  0  0  0  0  0  0  0  0
   -5.0850   -1.7280   -2.2150 C   0  0  0  0  0  0  0  0  0  0  0  0
   -6.1500   -1.9860   -1.2420 C   0  0  0  0  0  0  0  0  0  0  0  0
   -5.7400   -1.8550    0.1510 C   0  0  0  0  0  0  0  0  0  0  0  0
   -4.4890   -1.5260    0.4770 C   0  0  0  0  0  0  0  0  0  0  0  0
   -4.1630   -1.4000    1.9030 C   0  0  0  0  0  0  0  0  0  0  0  0
   -0.0920    1.2160    1.2180 C   0  0  0  0  0  0  0  0  0  0  0  0
   -0.3660    2.6590    1.3410 C   0  0  0  0  0  0  0  0  0  0  0  0
    0.3250    3.5240    0.4640 N   0  0  0  0  0  0  0  0  0  0  0  0
    1.0710    3.1460   -0.4280 O   0  0  0  0  0  0  0  0  0  0  0  0
    0.1100    4.9130    0.6410 O   0  0  0  0  0  0  0  0  0  0  0  0
    2.7420    0.6580    0.1810 O   0  0  0  0  0  0  0  0  0  0  0  0
  1  2  1  0
  2  3  1  0
  3  4  1  0
  4  5  2  0
  4 25  1  0
  5  6  1  0
  6  7  2  0
  7  8  1  0
  7 25  1  0
  8  9  2  0
  8 10  1  0
 10 11  1  0
 10 20  1  0
 11 12  1  0
 12 13  1  0
 13 14  1  0
 13 18  1  0
 14 15  2  0
 15 16  1  0
 16 17  1  0
 17 18  2  0
 18 19  1  0
 20 21  1  0
 21 22  1  0
 22 23  2  0
 22 24  1  0
M  CHG  3   2   1  22   1  24  -1
M  END
