
     RDKit          3D

 20 22  0  0  0  0  0  0  0  0999 V2000
    5.8910    0.9240   -0.5220 C   0  0  0  0  0  0  0  0  0  0  0  0
    4.3530    1.1970   -1.4800 S   0  0  0  0  0  0  0  0  0  0  0  0
    2.9840    1.0910   -0.2980 C   0  0  0  0  0  0  0  0  0  0  0  0
    2.8490   -0.2860    0.2450 C   0  0  1  0  0  0  0  0  0  0  0  0
    1.7410   -0.4430    1.2290 C   0  0  0  0  0  0  0  0  0  0  0  0
    0.5530   -0.8230    0.4710 N   0  0  1  0  0  0  0  0  0  0  0  0
   -0.3620    0.2620    0.3390 C   0  0  0  0  0  0  0  0  0  0  0  0
   -1.7870   -0.1230    0.2810 C   0  0  0  0  0  0  0  0  0  0  0  0
   -2.3670   -1.3650    0.3290 C   0  0  0  0  0  0  0  0  0  0  0  0
   -3.7170   -1.1940    0.2350 N   0  0  0  0  0  0  0  0  0  0  0  0
   -4.0240    0.0960    0.1300 C   0  0  0  0  0  0  0  0  0  0  0  0
   -5.1830    0.8350    0.0090 C   0  0  0  0  0  0  0  0  0  0  0  0
   -6.4170    0.1510   -0.0220 N   0  0  0  0  0  0  0  0  0  0  0  0
   -5.1060    2.1670   -0.0760 N   0  0  0  0  0  0  0  0  0  0  0  0
   -3.9420    2.8500   -0.0510 C   0  0  0  0  0  0  0  0  0  0  0  0
   -2.8180    2.1280    0.0670 N   0  0  0  0  0  0  0  0  0  0  0  0
   -2.8190    0.7800    0.1580 C   0  0  0  0  0  0  0  0  0  0  0  0
    0.9940   -1.3690   -0.7760 C   0  0  0  0  0  0  0  0  0  0  0  0
    2.5020   -1.3170   -0.7980 C   0  0  2  0  0  0  0  0  0  0  0  0
    2.9710   -2.5500   -0.3080 O   0  0  0  0  0  0  0  0  0  0  0  0
  1  2  1  0
  2  3  1  0
  4  3  1  6
  4  5  1  0
  4 19  1  0
  5  6  1  0
  6  7  1  6
  6 18  1  0
  7  8  1  0
  8  9  2  0
  8 17  1  0
  9 10  1  0
 10 11  1  0
 11 12  2  0
 11 17  1  0
 12 13  1  0
 12 14  1  0
 14 15  2  0
 15 16  1  0
 16 17  2  0
 18 19  1  0
 19 20  1  1
M  CHG  1   6   1
M  END
