
     RDKit          3D

 24 25  0  0  0  0  0  0  0  0999 V2000
   -2.5450    0.3000   -3.2820 C   0  0  0  0  0  0  0  0  0  0  0  0
   -2.1460    1.0210   -2.0260 C   0  0  0  0  0  0  0  0  0  0  0  0
   -2.1010    0.1170   -0.8950 N   0  0  1  0  0  0  0  0  0  0  0  0
   -0.9260    0.3420   -0.1240 C   0  0  0  0  0  0  0  0  0  0  0  0
   -0.1430   -0.9130   -0.0280 C   0  0  0  0  0  0  0  0  0  0  0  0
   -0.5910   -1.9370   -0.6000 O   0  0  0  0  0  0  0  0  0  0  0  0
    1.0770   -0.9720    0.6860 N   0  0  0  0  0  0  0  0  0  0  0  0
    1.7870   -2.2390    0.7350 C   0  0  0  0  0  0  0  0  0  0  0  0
    3.2660   -2.0170    0.4300 C   0  0  0  0  0  0  0  0  0  0  0  0
    3.4120   -0.5910   -0.1500 C   0  0  1  0  0  0  0  0  0  0  0  0
    3.1010    0.3410    0.9450 C   0  0  1  0  0  0  0  0  0  0  0  0
    3.3220    1.8070    0.6730 C   0  0  0  0  0  0  0  0  0  0  0  0
    4.7380    2.0550    0.9970 N   0  0  0  0  0  0  0  0  0  0  0  0
    5.7920    1.2600    0.4390 C   0  0  0  0  0  0  0  0  0  0  0  0
    6.9500    1.5370    0.8540 O   0  0  0  0  0  0  0  0  0  0  0  0
    5.7210    0.1780   -0.5380 C   0  0  0  0  0  0  0  0  0  0  0  0
    4.6970   -0.5640   -0.7410 N   0  0  0  0  0  0  0  0  0  0  0  0
    4.8440   -1.5430   -1.7280 O   0  0  0  0  0  0  0  0  0  0  0  0
    1.6660    0.1520    1.3730 C   0  0  0  0  0  0  0  0  0  0  0  0
   -3.2900    0.2170   -0.0740 C   0  0  2  0  0  0  0  0  0  0  0  0
   -4.5520    0.2130   -0.8770 C   0  0  0  0  0  0  0  0  0  0  0  0
   -3.2450    1.4330    0.8290 C   0  0  0  0  0  0  0  0  0  0  0  0
   -3.3160   -1.0080    0.8290 C   0  0  0  0  0  0  0  0  0  0  0  0
   -4.5220   -1.0120    1.7380 C   0  0  0  0  0  0  0  0  0  0  0  0
  1  2  1  0
  3  2  1  6
  3  4  1  0
  3 20  1  0
  4  5  1  0
  5  6  2  0
  5  7  1  0
  7  8  1  0
  7 19  1  0
  8  9  1  0
 10  9  1  1
 10 11  1  0
 10 17  1  0
 11 12  1  6
 11 19  1  0
 12 13  1  0
 13 14  1  0
 14 15  2  0
 14 16  1  0
 16 17  2  0
 17 18  1  0
 20 21  1  6
 20 22  1  0
 20 23  1  0
 23 24  1  0
M  CHG  3   3   1  17   1  18  -1
M  END
