
     RDKit          3D

 25 26  0  0  0  0  0  0  0  0999 V2000
   -1.7620   -2.9820    2.1650 C   0  0  0  0  0  0  0  0  0  0  0  0
   -2.2470   -2.7500    0.7670 C   0  0  0  0  0  0  0  0  0  0  0  0
   -1.7330   -1.4730    0.1620 C   0  0  1  0  0  0  0  0  0  0  0  0
   -0.3000   -1.4200    0.0820 N   0  0  0  0  0  0  0  0  0  0  0  0
    0.2270   -0.0930   -0.0060 C   0  0  0  0  0  0  0  0  0  0  0  0
    1.6910   -0.1370    0.2370 C   0  0  0  0  0  0  0  0  0  0  0  0
    2.4330   -1.2730    0.5030 C   0  0  0  0  0  0  0  0  0  0  0  0
    3.6720   -0.8780    0.6530 O   0  0  0  0  0  0  0  0  0  0  0  0
    3.7770    0.4100    0.5060 C   0  0  0  0  0  0  0  0  0  0  0  0
    5.0720    1.1710    0.6190 C   0  0  0  0  0  0  0  0  0  0  0  0
    5.7520    1.2570   -0.7430 C   0  0  1  0  0  0  0  0  0  0  0  0
    7.0300    2.0230   -0.5660 C   0  0  0  0  0  0  0  0  0  0  0  0
    6.0210   -0.1720   -1.1740 C   0  0  0  0  0  0  0  0  0  0  0  0
    2.5590    0.9080    0.2450 N   0  0  0  0  0  0  0  0  0  0  0  0
   -2.3000   -1.3510   -1.2370 C   0  0  0  0  0  0  0  0  0  0  0  0
   -3.5650   -0.5250   -1.1030 C   0  0  2  0  0  0  0  0  0  0  0  0
   -3.8720    0.2260   -2.3760 C   0  0  0  0  0  0  0  0  0  0  0  0
   -3.2100    0.3740   -0.0170 N   0  0  0  0  0  0  0  0  0  0  0  0
   -3.6690    1.7300    0.1550 C   0  0  0  0  0  0  0  0  0  0  0  0
   -4.9470    1.7580    0.9710 C   0  0  0  0  0  0  0  0  0  0  0  0
   -5.3610    3.1340    1.1120 N   0  0  0  0  0  0  0  0  0  0  0  0
   -4.7080    4.0680    0.6100 O   0  0  0  0  0  0  0  0  0  0  0  0
   -6.5030    3.4740    1.8120 O   0  0  0  0  0  0  0  0  0  0  0  0
   -2.3160   -0.3090    0.8750 C   0  0  0  0  0  0  0  0  0  0  0  0
   -2.1140    0.0800    2.0550 O   0  0  0  0  0  0  0  0  0  0  0  0
  1  2  1  0
  3  2  1  1
  3  4  1  0
  3 15  1  0
  3 24  1  0
  4  5  1  0
  5  6  1  0
  6  7  2  0
  6 14  1  0
  7  8  1  0
  8  9  1  0
  9 10  1  0
  9 14  2  0
 10 11  1  0
 11 12  1  1
 11 13  1  0
 15 16  1  0
 16 17  1  6
 16 18  1  0
 18 19  1  0
 18 24  1  0
 19 20  1  0
 20 21  1  0
 21 22  2  0
 21 23  1  0
 24 25  2  0
M  CHG  3   4   1  21   1  23  -1
M  END
