
     RDKit          3D

 25 27  0  0  0  0  0  0  0  0999 V2000
    7.1140   -1.7860    0.1300 C   0  0  0  0  0  0  0  0  0  0  0  0
    6.5540   -0.6270    0.7280 O   0  0  0  0  0  0  0  0  0  0  0  0
    6.0010    0.0750   -0.2960 C   0  0  0  0  0  0  0  0  0  0  0  0
    5.0870    1.2540    0.2210 C   0  0  0  0  0  0  0  0  0  0  0  0
    4.1720    0.7030    1.0020 O   0  0  0  0  0  0  0  0  0  0  0  0
    2.9120    0.5830    0.8170 N   0  0  2  0  0  0  0  0  0  0  0  0
    2.2700    0.6490    1.9870 O   0  0  0  0  0  0  0  0  0  0  0  0
    2.8330   -0.8730    0.4260 C   0  0  0  0  0  0  0  0  0  0  0  0
    2.4820   -0.9000   -1.0280 C   0  0  0  0  0  0  0  0  0  0  0  0
    1.1230   -0.5700   -1.1010 O   0  0  0  0  0  0  0  0  0  0  0  0
    1.0490    0.7780   -0.7880 C   0  0  1  0  0  0  0  0  0  0  0  0
   -0.2860    1.0850   -0.1430 C   0  0  0  0  0  0  0  0  0  0  0  0
   -0.6160    0.1980    0.9280 N   0  0  0  0  0  0  0  0  0  0  0  0
   -1.9330   -0.3910    0.8010 C   0  0  2  0  0  0  0  0  0  0  0  0
   -2.0040   -1.4340   -0.3030 C   0  0  0  0  0  0  0  0  0  0  0  0
   -3.2440   -2.2600   -0.0350 C   0  0  0  0  0  0  0  0  0  0  0  0
   -4.4230   -1.3660    0.3660 C   0  0  0  0  0  0  0  0  0  0  0  0
   -4.1140    0.0070   -0.1730 C   0  0  1  0  0  0  0  0  0  0  0  0
   -5.2820    0.8340   -0.3360 N   0  0  0  0  0  0  0  0  0  0  0  0
   -6.5520    0.4690   -0.5400 C   0  0  0  0  0  0  0  0  0  0  0  0
   -7.3200    1.5910   -0.8820 C   0  0  0  0  0  0  0  0  0  0  0  0
   -6.3980    2.6120   -0.8480 C   0  0  0  0  0  0  0  0  0  0  0  0
   -5.1980    2.1600   -0.5100 N   0  0  0  0  0  0  0  0  0  0  0  0
   -3.0410    0.6210    0.7030 C   0  0  0  0  0  0  0  0  0  0  0  0
    2.2310    1.3830   -0.1390 C   0  0  0  0  0  0  0  0  0  0  0  0
  1  2  1  0
  2  3  1  0
  3  4  1  0
  4  5  1  0
  5  6  1  0
  6  7  1  1
  6  8  1  0
  6 25  1  0
  8  9  1  0
  9 10  1  0
 10 11  1  0
 11 12  1  1
 11 25  1  0
 12 13  1  0
 14 13  1  6
 14 15  1  0
 14 24  1  0
 15 16  1  0
 16 17  1  0
 17 18  1  0
 18 19  1  1
 18 24  1  0
 19 20  1  0
 19 23  1  0
 20 21  2  0
 21 22  1  0
 22 23  2  0
M  CHG  3   6   1   7  -1  13   1
M  END
