
     RDKit          3D

 25 26  0  0  0  0  0  0  0  0999 V2000
   -4.9170    1.6850   -2.3890 C   0  0  0  0  0  0  0  0  0  0  0  0
   -4.7530    2.3160   -1.0230 C   0  0  0  0  0  0  0  0  0  0  0  0
   -5.3010    1.4480    0.0490 C   0  0  0  0  0  0  0  0  0  0  0  0
   -6.4350    1.5790    0.7190 O   0  0  0  0  0  0  0  0  0  0  0  0
   -6.5540    0.6040    1.5840 N   0  0  0  0  0  0  0  0  0  0  0  0
   -7.5900    0.3870    2.4680 O   0  0  0  0  0  0  0  0  0  0  0  0
   -5.4740   -0.2050    1.4970 C   0  0  0  0  0  0  0  0  0  0  0  0
   -5.1910   -1.4390    2.2950 C   0  0  0  0  0  0  0  0  0  0  0  0
   -4.6670    0.3230    0.5200 C   0  0  0  0  0  0  0  0  0  0  0  0
   -3.4260   -0.1960    0.0890 N   0  0  0  0  0  0  0  0  0  0  0  0
   -2.2280    0.2240    0.7090 C   0  0  0  0  0  0  0  0  0  0  0  0
   -2.3270    1.0640    1.6400 O   0  0  0  0  0  0  0  0  0  0  0  0
   -0.9480   -0.2490    0.3350 N   0  0  0  0  0  0  0  0  0  0  0  0
   -0.8760   -1.2200   -0.7430 C   0  0  0  0  0  0  0  0  0  0  0  0
    0.4230   -1.9820   -0.4570 C   0  0  0  0  0  0  0  0  0  0  0  0
    1.6030   -0.9970   -0.6770 C   0  0  2  0  0  0  0  0  0  0  0  0
    2.8110   -1.7980   -0.3380 C   0  0  0  0  0  0  0  0  0  0  0  0
    4.0880   -1.2380   -0.4450 N   0  0  1  0  0  0  0  0  0  0  0  0
    4.2800   -0.0860   -1.2650 C   0  0  0  0  0  0  0  0  0  0  0  0
    4.7080   -1.0770    0.8330 C   0  0  0  0  0  0  0  0  0  0  0  0
    5.5410    0.1350    1.0330 C   0  0  0  0  0  0  0  0  0  0  0  0
    4.8870    1.3450    0.8830 O   0  0  0  0  0  0  0  0  0  0  0  0
    5.7880    2.3800    1.0980 C   0  0  0  0  0  0  0  0  0  0  0  0
    1.4720    0.1830    0.2070 C   0  0  0  0  0  0  0  0  0  0  0  0
    0.2120    0.2380    1.0230 C   0  0  0  0  0  0  0  0  0  0  0  0
  1  2  1  0
  2  3  1  0
  3  4  1  0
  3  9  2  0
  4  5  1  0
  5  6  1  0
  5  7  2  0
  7  8  1  0
  7  9  1  0
  9 10  1  0
 10 11  1  0
 11 12  2  0
 11 13  1  0
 13 14  1  0
 13 25  1  0
 14 15  1  0
 15 16  1  0
 16 17  1  1
 16 24  1  0
 17 18  1  0
 18 19  1  1
 18 20  1  0
 20 21  1  0
 21 22  1  0
 22 23  1  0
 24 25  1  0
M  CHG  3   5   1   6  -1  18   1
M  END
