
     RDKit          3D

 11 11  0  0  0  0  0  0  0  0999 V2000
   -2.5770    1.0870    0.9640 O   0  0  0  0  0  0  0  0  0  0  0  0
   -2.5660   -0.2220    0.4770 C   0  0  0  0  0  0  0  0  0  0  0  0
   -1.7890   -0.2870   -0.8470 C   0  0  0  0  0  0  0  0  0  0  0  0
   -0.3900    0.1540   -0.6410 C   0  0  0  0  0  0  0  0  0  0  0  0
    0.0990    1.3530   -0.9590 N   0  0  0  0  0  0  0  0  0  0  0  0
    1.3870    1.4360   -0.6300 N   0  0  0  0  0  0  0  0  0  0  0  0
    1.7410    0.2550   -0.0850 C   0  0  0  0  0  0  0  0  0  0  0  0
    3.1050   -0.0630    0.4140 C   0  0  0  0  0  0  0  0  0  0  0  0
    3.1540   -0.0110    2.2080 Cl  0  0  0  0  0  0  0  0  0  0  0  0
    0.6280   -0.5580   -0.0870 C   0  0  0  0  0  0  0  0  0  0  0  0
    0.6250   -1.8610    0.4040 O   0  0  0  0  0  0  0  0  0  0  0  0
  1  2  1  0
  2  3  1  0
  3  4  1  0
  4  5  2  0
  4 10  1  0
  5  6  1  0
  6  7  1  0
  7  8  1  0
  7 10  2  0
  8  9  1  0
 10 11  1  0
M  END
