
     RDKit          3D

 11 11  0  0  0  0  0  0  0  0999 V2000
    3.5490    1.5390    0.0550 O   0  0  0  0  0  0  0  0  0  0  0  0
    2.5400    0.7960    0.1790 C   0  0  0  0  0  0  0  0  0  0  0  0
    2.6110   -0.4980    0.5450 N   0  0  0  0  0  0  0  0  0  0  0  0
    1.3460   -0.9690    0.5730 C   0  0  0  0  0  0  0  0  0  0  0  0
    0.5140    0.0770    0.2150 C   0  0  0  0  0  0  0  0  0  0  0  0
   -0.9580   -0.0070    0.1180 C   0  0  0  0  0  0  0  0  0  0  0  0
   -1.6260    1.0700   -0.2350 C   0  0  0  0  0  0  0  0  0  0  0  0
   -2.9990    0.9830   -0.3230 O   0  0  0  0  0  0  0  0  0  0  0  0
   -1.6550   -1.2860    0.4170 C   0  0  0  0  0  0  0  0  0  0  0  0
   -1.0890   -2.5780   -0.6990 Cl  0  0  0  0  0  0  0  0  0  0  0  0
    1.2630    1.1650   -0.0270 N   0  0  0  0  0  0  0  0  0  0  0  0
  1  2  2  0
  2  3  1  0
  2 11  1  0
  3  4  1  0
  4  5  2  0
  5  6  1  0
  5 11  1  0
  6  7  2  3
  6  9  1  0
  7  8  1  0
  9 10  1  0
M  END
