
     RDKit          3D

 11 11  0  0  0  0  0  0  0  0999 V2000
    2.6860   -0.7550   -0.2370 C   0  0  0  0  0  0  0  0  0  0  0  0
    1.8600    0.2610   -0.2310 C   0  0  0  0  0  0  0  0  0  0  0  0
    0.4210    0.1870   -0.0630 C   0  0  0  0  0  0  0  0  0  0  0  0
   -0.2080   -0.9770    0.1070 N   0  0  0  0  0  0  0  0  0  0  0  0
   -1.5630   -1.0790    0.2680 C   0  0  0  0  0  0  0  0  0  0  0  0
   -2.0980   -2.2010    0.4240 O   0  0  0  0  0  0  0  0  0  0  0  0
   -2.3260    0.0610    0.2560 C   0  0  0  0  0  0  0  0  0  0  0  0
   -3.5730   -0.0460    0.4050 O   0  0  0  0  0  0  0  0  0  0  0  0
   -1.7010    1.2340    0.0860 N   0  0  0  0  0  0  0  0  0  0  0  0
   -0.3720    1.3240   -0.0710 C   0  0  0  0  0  0  0  0  0  0  0  0
    0.4400    2.8630   -0.2940 Cl  0  0  0  0  0  0  0  0  0  0  0  0
  1  2  2  0
  2  3  1  0
  3  4  1  0
  3 10  2  0
  4  5  1  0
  5  6  2  0
  5  7  1  0
  7  8  2  0
  7  9  1  0
  9 10  1  0
 10 11  1  0
M  END
