
     RDKit          3D

 11 11  0  0  0  0  0  0  0  0999 V2000
    2.6520   -0.4890   -0.8040 C   0  0  0  0  0  0  0  0  0  0  0  0
    2.2580    0.4550    0.2800 C   0  0  0  0  0  0  0  0  0  0  0  0
    0.9710    1.0000    0.1350 O   0  0  0  0  0  0  0  0  0  0  0  0
   -0.1890    0.2460    0.0910 C   0  0  0  0  0  0  0  0  0  0  0  0
   -0.1050   -0.9900   -0.1550 N   0  0  0  0  0  0  0  0  0  0  0  0
   -1.1900   -1.8950   -0.2350 C   0  0  0  0  0  0  0  0  0  0  0  0
   -2.4150   -1.2900   -0.0100 O   0  0  0  0  0  0  0  0  0  0  0  0
   -2.5960    0.0330    0.2610 C   0  0  0  0  0  0  0  0  0  0  0  0
   -4.2160    0.6310    0.5190 Cl  0  0  0  0  0  0  0  0  0  0  0  0
   -1.5150    0.8140    0.3180 C   0  0  0  0  0  0  0  0  0  0  0  0
   -1.6650    2.1820    0.5960 N   0  0  0  0  0  0  0  0  0  0  0  0
  1  2  1  0
  2  3  1  0
  3  4  1  0
  4  5  2  0
  4 10  1  0
  5  6  1  0
  6  7  1  0
  7  8  1  0
  8  9  1  0
  8 10  2  0
 10 11  1  0
M  END
