
     RDKit          3D

 24 26  0  0  0  0  0  0  0  0999 V2000
   -6.6620   -0.5140   -2.5720 N   0  0  0  0  0  0  0  0  0  0  0  0
   -6.0240    0.3320   -1.6440 C   0  0  0  0  0  0  0  0  0  0  0  0
   -6.5680    1.5140   -1.3110 N   0  0  0  0  0  0  0  0  0  0  0  0
   -5.9860    2.3480   -0.4270 C   0  0  0  0  0  0  0  0  0  0  0  0
   -4.8210    1.9680    0.1300 N   0  0  0  0  0  0  0  0  0  0  0  0
   -4.2150    0.8140   -0.1440 C   0  0  0  0  0  0  0  0  0  0  0  0
   -3.0340    0.1810    0.2740 C   0  0  0  0  0  0  0  0  0  0  0  0
   -2.1610    0.8090    1.2320 C   0  0  0  0  0  0  0  0  0  0  0  0
   -0.9910    0.1830    1.6480 N   0  0  2  0  0  0  0  0  0  0  0  0
    0.0250   -0.0230    0.6530 C   0  0  0  0  0  0  0  0  0  0  0  0
    0.9730   -0.9500    1.3560 C   0  0  2  0  0  0  0  0  0  0  0  0
    1.3250   -2.0660    0.3990 C   0  0  0  0  0  0  0  0  0  0  0  0
    2.1040   -1.2430   -1.0470 S   0  0  0  0  0  0  0  0  0  0  0  0
    3.6510   -0.5360   -0.4560 C   0  0  0  0  0  0  0  0  0  0  0  0
    4.4170    0.1950   -1.5290 C   0  0  0  0  0  0  0  0  0  0  0  0
    5.6840    0.7240   -0.8660 C   0  0  0  0  0  0  0  0  0  0  0  0
    6.5310    1.4840   -1.8700 C   0  0  0  0  0  0  0  0  0  0  0  0
    7.6910    1.9740   -1.2790 O   0  0  0  0  0  0  0  0  0  0  0  0
    0.3250   -1.4010    2.6200 C   0  0  1  0  0  0  0  0  0  0  0  0
    0.7840   -0.6470    3.7240 O   0  0  0  0  0  0  0  0  0  0  0  0
   -1.1290   -1.0110    2.4300 C   0  0  0  0  0  0  0  0  0  0  0  0
   -3.0230   -0.9950   -0.4130 C   0  0  0  0  0  0  0  0  0  0  0  0
   -4.0920   -1.1310   -1.2110 N   0  0  0  0  0  0  0  0  0  0  0  0
   -4.8210   -0.0260   -1.0470 C   0  0  0  0  0  0  0  0  0  0  0  0
  1  2  1  0
  2  3  2  0
  2 24  1  0
  3  4  1  0
  4  5  2  0
  5  6  1  0
  6  7  1  0
  6 24  2  0
  7  8  1  0
  7 22  2  0
  9  8  1  6
  9 10  1  0
  9 21  1  0
 10 11  1  0
 11 12  1  6
 11 19  1  0
 12 13  1  0
 13 14  1  0
 14 15  1  0
 15 16  1  0
 16 17  1  0
 17 18  1  0
 19 20  1  1
 19 21  1  0
 22 23  1  0
 23 24  1  0
M  CHG  1   9   1
M  END
