
     RDKit          3D

 11 11  0  0  0  0  0  0  0  0999 V2000
   -1.1710   -0.0970    1.3420 N   0  0  0  0  0  0  0  0  0  0  0  0
   -1.7120   -0.9600    0.3580 C   0  0  0  0  0  0  0  0  0  0  0  0
   -2.4220   -1.9260    0.7760 O   0  0  0  0  0  0  0  0  0  0  0  0
   -1.4530   -0.7310   -1.0820 C   0  0  0  0  0  0  0  0  0  0  0  0
   -0.6360    0.4180   -1.1850 O   0  0  0  0  0  0  0  0  0  0  0  0
    0.5960    0.4440   -0.5890 C   0  0  0  0  0  0  0  0  0  0  0  0
    1.1960   -0.5950   -0.0510 N   0  0  0  0  0  0  0  0  0  0  0  0
    2.4410   -0.1330    0.4480 C   0  0  0  0  0  0  0  0  0  0  0  0
    2.5130    1.1410    0.1820 C   0  0  0  0  0  0  0  0  0  0  0  0
    1.4580    1.6110   -0.4440 C   0  0  0  0  0  0  0  0  0  0  0  0
    1.1360    3.2390   -0.9870 Cl  0  0  0  0  0  0  0  0  0  0  0  0
  1  2  1  0
  2  3  2  0
  2  4  1  0
  4  5  1  0
  5  6  1  0
  6  7  2  0
  6 10  1  0
  7  8  1  0
  8  9  2  0
  9 10  2  0
 10 11  1  0
M  END
