
     RDKit          3D

 22 22  0  0  0  0  0  0  0  0999 V2000
   -4.3060    1.6450   -1.6420 C   0  0  0  0  0  0  0  0  0  0  0  0
   -4.4040    0.2930   -0.9980 C   0  0  0  0  0  0  0  0  0  0  0  0
   -3.6020    0.1860    0.2800 C   0  0  1  0  0  0  0  0  0  0  0  0
   -4.1000    1.2120    1.3030 C   0  0  0  0  0  0  0  0  0  0  0  0
   -3.7930   -1.1640    0.8380 C   0  0  0  0  0  0  0  0  0  0  0  0
   -4.5210   -1.9890    0.2560 O   0  0  0  0  0  0  0  0  0  0  0  0
   -3.1770   -1.5530    2.0090 O   0  0  0  0  0  0  0  0  0  0  0  0
   -3.3570   -2.8650    2.5590 C   0  0  0  0  0  0  0  0  0  0  0  0
   -2.1410    0.5110    0.0490 C   0  0  2  0  0  0  0  0  0  0  0  0
   -2.0640    1.8200   -0.4370 O   0  0  0  0  0  0  0  0  0  0  0  0
   -1.5570   -0.4080   -0.9730 C   0  0  0  0  0  0  0  0  0  0  0  0
   -0.1810   -0.1370   -1.2770 N   0  0  0  0  0  0  0  0  0  0  0  0
    0.8430   -0.1900   -0.2990 C   0  0  0  0  0  0  0  0  0  0  0  0
    0.5270   -0.4880    0.8780 O   0  0  0  0  0  0  0  0  0  0  0  0
    2.2070    0.0700   -0.5600 N   0  0  0  0  0  0  0  0  0  0  0  0
    3.2280    0.0070    0.4650 C   0  0  2  0  0  0  0  0  0  0  0  0
    3.9160    1.3650    0.4540 C   0  0  0  0  0  0  0  0  0  0  0  0
    4.7280    1.3240   -0.8110 C   0  0  0  0  0  0  0  0  0  0  0  0
    4.8920   -0.1370   -1.1830 C   0  0  0  0  0  0  0  0  0  0  0  0
    4.3470   -0.8980    0.0100 C   0  0  1  0  0  0  0  0  0  0  0  0
    5.4340   -0.9200    1.0560 C   0  0  0  0  0  0  0  0  0  0  0  0
    4.9780   -1.3870    2.2900 O   0  0  0  0  0  0  0  0  0  0  0  0
  1  2  1  0
  2  3  1  0
  3  4  1  1
  3  5  1  0
  3  9  1  0
  5  6  2  0
  5  7  1  0
  7  8  1  0
  9 10  1  6
  9 11  1  0
 11 12  1  0
 12 13  1  0
 13 14  2  0
 13 15  1  0
 16 15  1  6
 16 17  1  0
 16 20  1  0
 17 18  1  0
 18 19  1  0
 19 20  1  0
 20 21  1  1
 21 22  1  0
M  END
