
     RDKit          3D

 22 22  0  0  0  0  0  0  0  0999 V2000
   -4.2110    2.4820    1.2770 C   0  0  0  0  0  0  0  0  0  0  0  0
   -3.8680    1.9090    0.0750 O   0  0  0  0  0  0  0  0  0  0  0  0
   -2.8310    0.9740    0.1670 C   0  0  2  0  0  0  0  0  0  0  0  0
   -1.7400    1.4630   -0.7000 C   0  0  0  0  0  0  0  0  0  0  0  0
   -0.5420    0.6990   -0.8020 N   0  0  0  0  0  0  0  0  0  0  0  0
   -0.5290   -0.2810   -1.8410 C   0  0  0  0  0  0  0  0  0  0  0  0
   -1.3320   -0.2130   -2.8340 O   0  0  0  0  0  0  0  0  0  0  0  0
    0.4390   -1.4090   -1.7690 C   0  0  0  0  0  0  0  0  0  0  0  0
    1.7900   -0.9510   -1.3120 C   0  0  1  0  0  0  0  0  0  0  0  0
    2.3680   -0.1600   -2.3030 O   0  0  0  0  0  0  0  0  0  0  0  0
    1.7430   -0.1420   -0.0400 C   0  0  1  0  0  0  0  0  0  0  0  0
    1.4870   -1.1100    1.0940 C   0  0  0  0  0  0  0  0  0  0  0  0
    2.9760    0.6910    0.1150 C   0  0  0  0  0  0  0  0  0  0  0  0
    4.2760   -0.0160    0.1620 C   0  0  1  0  0  0  0  0  0  0  0  0
    5.3510    1.0830    0.3070 C   0  0  0  0  0  0  0  0  0  0  0  0
    4.4690   -0.9240    1.3400 C   0  0  0  0  0  0  0  0  0  0  0  0
    0.5960    0.8020   -0.0140 C   0  0  0  0  0  0  0  0  0  0  0  0
    0.6940    1.7500    0.7900 O   0  0  0  0  0  0  0  0  0  0  0  0
   -3.4310   -0.3360   -0.2840 C   0  0  1  0  0  0  0  0  0  0  0  0
   -2.5250   -1.3850   -0.2300 O   0  0  0  0  0  0  0  0  0  0  0  0
   -4.6540   -0.6020    0.5600 C   0  0  0  0  0  0  0  0  0  0  0  0
   -5.3470   -1.8060    0.1310 N   0  0  0  0  0  0  0  0  0  0  0  0
  1  2  1  0
  2  3  1  0
  3  4  1  6
  3 19  1  0
  4  5  1  0
  5  6  1  0
  5 17  1  0
  6  7  2  0
  6  8  1  0
  8  9  1  0
  9 10  1  6
  9 11  1  0
 11 12  1  1
 11 13  1  0
 11 17  1  0
 13 14  1  0
 14 15  1  1
 14 16  1  0
 17 18  2  0
 19 20  1  1
 19 21  1  0
 21 22  1  0
M  END
