
     RDKit          3D

 22 23  0  0  0  0  0  0  0  0999 V2000
   -0.1450    4.4970   -5.4410 N   0  0  0  0  0  0  0  0  0  0  0  0
   -0.4060    3.4130   -5.0940 C   0  0  0  0  0  0  0  0  0  0  0  0
   -0.7340    2.0510   -4.6830 C   0  0  0  0  0  0  0  0  0  0  0  0
   -0.3410    1.0760   -5.3630 O   0  0  0  0  0  0  0  0  0  0  0  0
   -1.4990    1.8140   -3.5160 N   0  0  0  0  0  0  0  0  0  0  0  0
   -1.8940    0.5470   -2.9840 C   0  0  0  0  0  0  0  0  0  0  0  0
   -0.7330   -0.2820   -2.5810 C   0  0  2  0  0  0  0  0  0  0  0  0
    0.1490   -0.6230   -3.5770 O   0  0  0  0  0  0  0  0  0  0  0  0
   -1.1530   -1.5100   -1.7830 C   0  0  1  0  0  0  0  0  0  0  0  0
    0.0080   -1.9090   -0.9570 C   0  0  0  0  0  0  0  0  0  0  0  0
   -0.0460   -1.2180    0.1520 C   0  0  0  0  0  0  0  0  0  0  0  0
    0.8620   -1.2480    1.2820 C   0  0  0  0  0  0  0  0  0  0  0  0
    0.6540   -0.4680    2.3380 C   0  0  0  0  0  0  0  0  0  0  0  0
    1.5270   -0.4530    3.4970 C   0  0  0  0  0  0  0  0  0  0  0  0
    1.3670    0.2960    4.5620 C   0  0  0  0  0  0  0  0  0  0  0  0
    0.2720    1.2360    4.7420 C   0  0  0  0  0  0  0  0  0  0  0  0
    0.8060    2.5210    4.9040 O   0  0  0  0  0  0  0  0  0  0  0  0
    2.6280   -1.3360    3.4280 O   0  0  0  0  0  0  0  0  0  0  0  0
    2.8320   -2.1310    2.3410 C   0  0  0  0  0  0  0  0  0  0  0  0
    2.0170   -2.1380    1.2700 C   0  0  0  0  0  0  0  0  0  0  0  0
   -1.2660   -0.3700    0.0580 C   0  0  0  0  0  0  0  0  0  0  0  0
   -2.0850   -1.0400   -0.8540 O   0  0  0  0  0  0  0  0  0  0  0  0
  1  2  3  0
  2  3  1  0
  3  4  2  0
  3  5  1  0
  5  6  1  0
  6  7  1  0
  7  8  1  6
  7  9  1  0
  9 10  1  0
  9 22  1  1
 10 11  2  0
 11 12  1  0
 11 21  1  0
 12 13  2  0
 12 20  1  0
 13 14  1  0
 14 15  2  3
 14 18  1  0
 15 16  1  0
 16 17  1  0
 18 19  1  0
 19 20  2  0
 21 22  1  0
M  END
