
     RDKit          3D

  6  5  0  0  0  0  0  0  0  0999 V2000
   -1.3980   -0.8560    0.4800 C   0  0  0  0  0  0  0  0  0  0  0  0
   -0.4540   -0.1000   -0.4040 C   0  0  1  0  0  0  0  0  0  0  0  0
   -0.8830    1.3630   -0.4670 C   0  0  0  0  0  0  0  0  0  0  0  0
    0.9680   -0.0720    0.1140 C   0  0  0  0  0  0  0  0  0  0  0  0
    1.5970   -1.3090    0.0070 O   0  0  0  0  0  0  0  0  0  0  0  0
    2.8350   -1.1210    0.4480 O   0  0  0  0  0  0  0  0  0  0  0  0
  2  1  1  1
  2  3  1  0
  2  4  1  0
  4  5  1  0
  5  6  1  0
M  END
