
     RDKit          3D

 22 23  0  0  0  0  0  0  0  0999 V2000
   -3.2310   -1.7320   -1.0760 C   0  0  0  0  0  0  0  0  0  0  0  0
   -2.1330   -0.7190   -1.0820 C   0  0  2  0  0  0  0  0  0  0  0  0
   -0.8510   -1.2420   -0.7130 N   0  0  0  0  0  0  0  0  0  0  0  0
    0.2770   -1.2660   -1.5830 C   0  0  0  0  0  0  0  0  0  0  0  0
    0.1000   -0.7910   -2.7340 O   0  0  0  0  0  0  0  0  0  0  0  0
    1.6000   -1.8040   -1.2080 C   0  0  1  0  0  0  0  0  0  0  0  0
    2.6910   -0.8360   -1.3120 C   0  0  0  0  0  0  0  0  0  0  0  0
    3.1760   -0.5690   -0.1290 C   0  0  0  0  0  0  0  0  0  0  0  0
    4.2640    0.3380    0.2030 C   0  0  0  0  0  0  0  0  0  0  0  0
    4.6710    0.5290    1.4380 C   0  0  0  0  0  0  0  0  0  0  0  0
    5.7580    1.4370    1.7570 C   0  0  0  0  0  0  0  0  0  0  0  0
    6.4430    2.1700    0.7440 N   0  0  0  0  0  0  0  0  0  0  0  0
    6.1520    1.6230    2.9470 O   0  0  0  0  0  0  0  0  0  0  0  0
    2.3870   -1.3860    0.8370 C   0  0  0  0  0  0  0  0  0  0  0  0
    1.6630   -2.2890    0.0670 O   0  0  0  0  0  0  0  0  0  0  0  0
   -2.5290    0.5120   -0.2920 C   0  0  2  0  0  0  0  0  0  0  0  0
   -2.4890    0.3070    1.1870 C   0  0  0  0  0  0  0  0  0  0  0  0
   -3.8640    0.2640    1.7420 C   0  0  0  0  0  0  0  0  0  0  0  0
   -4.2020   -0.5800    2.5430 O   0  0  0  0  0  0  0  0  0  0  0  0
   -4.8560    1.2770    1.3090 C   0  0  0  0  0  0  0  0  0  0  0  0
   -4.3640    1.8940    0.0040 C   0  0  0  0  0  0  0  0  0  0  0  0
   -3.7860    0.9000   -0.7600 O   0  0  0  0  0  0  0  0  0  0  0  0
  2  1  1  1
  2  3  1  0
  2 16  1  0
  3  4  1  0
  4  5  2  0
  6  4  1  1
  6  7  1  0
  6 15  1  0
  7  8  2  0
  8  9  1  0
  8 14  1  0
  9 10  2  3
 10 11  1  0
 11 12  1  0
 11 13  2  0
 14 15  1  0
 16 17  1  1
 16 22  1  0
 17 18  1  0
 18 19  2  0
 18 20  1  0
 20 21  1  0
 21 22  1  0
M  END
