
     RDKit          3D

 22 23  0  0  0  0  0  0  0  0999 V2000
   -3.3930   -2.6980   -1.3910 C   0  0  0  0  0  0  0  0  0  0  0  0
   -4.0020   -1.5720   -0.5950 C   0  0  2  0  0  0  0  0  0  0  0  0
   -4.9900   -0.7770   -1.3760 C   0  0  0  0  0  0  0  0  0  0  0  0
   -5.2400    0.5940   -0.8670 C   0  0  0  0  0  0  0  0  0  0  0  0
   -4.6350    0.9000    0.3500 O   0  0  0  0  0  0  0  0  0  0  0  0
   -3.5450    0.2450    0.8930 C   0  0  0  0  0  0  0  0  0  0  0  0
   -3.1210    0.4350    2.0480 O   0  0  0  0  0  0  0  0  0  0  0  0
   -2.8740   -0.7500   -0.0240 C   0  0  2  0  0  0  0  0  0  0  0  0
   -2.1790    0.0230   -1.0160 N   0  0  0  0  0  0  0  0  0  0  0  0
   -0.7530   -0.0830   -1.2130 C   0  0  0  0  0  0  0  0  0  0  0  0
   -0.1810   -0.8790   -0.4730 O   0  0  0  0  0  0  0  0  0  0  0  0
   -0.0560    0.6650   -2.1800 N   0  0  0  0  0  0  0  0  0  0  0  0
    1.3400    0.7050   -2.4560 C   0  0  0  0  0  0  0  0  0  0  0  0
    2.2100    1.3050   -1.4230 C   0  0  1  0  0  0  0  0  0  0  0  0
    1.8700    2.6570   -1.1300 O   0  0  0  0  0  0  0  0  0  0  0  0
    2.2700    0.5730   -0.1420 C   0  0  0  0  0  0  0  0  0  0  0  0
    3.3100    1.1140    0.7000 O   0  0  0  0  0  0  0  0  0  0  0  0
    3.2650    0.3510    1.8590 C   0  0  2  0  0  0  0  0  0  0  0  0
    3.0090    1.1930    3.0860 C   0  0  0  0  0  0  0  0  0  0  0  0
    3.4410    0.2730    4.2080 C   0  0  0  0  0  0  0  0  0  0  0  0
    4.6440   -0.4340    3.6550 C   0  0  0  0  0  0  0  0  0  0  0  0
    4.5730   -0.3350    2.1540 C   0  0  0  0  0  0  0  0  0  0  0  0
  2  1  1  6
  2  3  1  0
  2  8  1  0
  3  4  1  0
  4  5  1  0
  5  6  1  0
  6  7  2  0
  6  8  1  0
  8  9  1  6
  9 10  1  0
 10 11  2  0
 10 12  1  0
 12 13  1  0
 13 14  1  0
 14 15  1  1
 14 16  1  0
 16 17  1  0
 18 17  1  6
 18 19  1  0
 18 22  1  0
 19 20  1  0
 20 21  1  0
 21 22  1  0
M  END
