
     RDKit          3D

 22 22  0  0  0  0  0  0  0  0999 V2000
    4.8770    1.3900   -0.0110 C   0  0  0  0  0  0  0  0  0  0  0  0
    4.6490    0.0080   -0.5390 C   0  0  0  0  0  0  0  0  0  0  0  0
    3.3370   -0.4040   -0.5060 O   0  0  0  0  0  0  0  0  0  0  0  0
    2.7750   -0.4340    0.7470 C   0  0  1  0  0  0  0  0  0  0  0  0
    1.5970    0.4940    0.7500 C   0  0  0  0  0  0  0  0  0  0  0  0
    0.4200    0.1010    0.3330 C   0  0  0  0  0  0  0  0  0  0  0  0
    0.2870   -1.2160   -0.1180 O   0  0  0  0  0  0  0  0  0  0  0  0
   -0.9960   -1.8170   -0.0990 C   0  0  2  0  0  0  0  0  0  0  0  0
   -0.8850   -3.0810   -0.9230 C   0  0  0  0  0  0  0  0  0  0  0  0
   -2.0550   -0.8960   -0.5970 C   0  0  0  0  0  0  0  0  0  0  0  0
   -1.9390    0.4980   -0.1250 C   0  0  0  0  0  0  0  0  0  0  0  0
   -3.1350    1.4110   -0.1180 C   0  0  2  0  0  0  0  0  0  0  0  0
   -4.1660    0.7130    0.6970 C   0  0  0  0  0  0  0  0  0  0  0  0
   -4.9230   -0.0480    0.1350 O   0  0  0  0  0  0  0  0  0  0  0  0
   -3.6820    1.6050   -1.4590 C   0  0  0  0  0  0  0  0  0  0  0  0
   -4.8040    2.4260   -1.6630 N   0  0  0  0  0  0  0  0  0  0  0  0
   -3.1560    1.0410   -2.4450 O   0  0  0  0  0  0  0  0  0  0  0  0
   -0.7530    0.9390    0.3090 C   0  0  0  0  0  0  0  0  0  0  0  0
   -0.7380    2.3630    0.7540 C   0  0  0  0  0  0  0  0  0  0  0  0
    2.2900   -1.7980    1.1190 C   0  0  0  0  0  0  0  0  0  0  0  0
    2.4130   -2.9150    0.2490 N   0  0  0  0  0  0  0  0  0  0  0  0
    1.7590   -1.9050    2.2620 O   0  0  0  0  0  0  0  0  0  0  0  0
  1  2  1  0
  2  3  1  0
  4  3  1  6
  4  5  1  0
  4 20  1  0
  5  6  2  3
  6  7  1  0
  6 18  1  0
  7  8  1  0
  8  9  1  6
  8 10  1  0
 10 11  1  0
 11 12  1  0
 11 18  2  0
 12 13  1  1
 12 15  1  0
 13 14  2  0
 15 16  1  0
 15 17  2  0
 18 19  1  0
 20 21  1  0
 20 22  2  0
M  END
