
     RDKit          3D

 22 23  0  0  0  0  0  0  0  0999 V2000
   -4.4390    1.9150    1.0500 C   0  0  0  0  0  0  0  0  0  0  0  0
   -4.5100    0.6480    0.6920 C   0  0  0  0  0  0  0  0  0  0  0  0
   -5.6870   -0.1380    0.9070 N   0  0  0  0  0  0  0  0  0  0  0  0
   -5.7540   -1.5000    0.5110 C   0  0  0  0  0  0  0  0  0  0  0  0
   -4.6950   -2.0330   -0.0680 C   0  0  0  0  0  0  0  0  0  0  0  0
   -3.4680   -1.2520   -0.3040 C   0  0  0  0  0  0  0  0  0  0  0  0
   -3.3630    0.0160    0.0500 C   0  0  0  0  0  0  0  0  0  0  0  0
   -2.2100    0.7460   -0.1720 O   0  0  0  0  0  0  0  0  0  0  0  0
   -1.2520    0.9140    0.8310 C   0  0  2  0  0  0  0  0  0  0  0  0
   -0.1130    1.7860    0.3010 C   0  0  0  0  0  0  0  0  0  0  0  0
    0.5320    1.1600   -0.8780 C   0  0  0  0  0  0  0  0  0  0  0  0
    0.7430   -0.3200   -0.7680 C   0  0  1  0  0  0  0  0  0  0  0  0
    2.0780   -0.7020   -0.2900 C   0  0  0  0  0  0  0  0  0  0  0  0
    2.1760   -1.5250    0.6520 O   0  0  0  0  0  0  0  0  0  0  0  0
    3.2660   -0.1670   -0.8640 N   0  0  0  0  0  0  0  0  0  0  0  0
    4.5720   -0.5290   -0.4090 C   0  0  2  0  0  0  0  0  0  0  0  0
    5.2100    0.6990    0.2110 C   0  0  0  0  0  0  0  0  0  0  0  0
    5.3620   -1.0770   -1.5120 C   0  0  0  0  0  0  0  0  0  0  0  0
    4.8630   -1.1700   -2.6610 O   0  0  0  0  0  0  0  0  0  0  0  0
    6.6660   -1.4910   -1.2810 O   0  0  0  0  0  0  0  0  0  0  0  0
   -0.2130   -0.9760   -0.0500 O   0  0  0  0  0  0  0  0  0  0  0  0
   -0.6150   -0.4240    1.1280 C   0  0  0  0  0  0  0  0  0  0  0  0
  1  2  2  0
  2  3  1  0
  2  7  1  0
  3  4  1  0
  4  5  2  0
  5  6  1  0
  6  7  2  0
  7  8  1  0
  9  8  1  6
  9 10  1  0
  9 22  1  0
 10 11  1  0
 11 12  1  0
 12 13  1  1
 12 21  1  0
 13 14  2  0
 13 15  1  0
 15 16  1  0
 16 17  1  6
 16 18  1  0
 18 19  2  0
 18 20  1  0
 21 22  1  0
M  END
