
     RDKit          3D

 35 38  0  0  0  0  0  0  0  0999 V2000
   -9.9850    0.4020   -0.9310 C   0  0  0  0  0  0  0  0  0  0  0  0
   -9.4260    0.2020    0.4700 C   0  0  2  0  0  0  0  0  0  0  0  0
   -9.5280    1.4240    1.1460 O   0  0  0  0  0  0  0  0  0  0  0  0
   -7.9540   -0.0810    0.3410 C   0  0  0  0  0  0  0  0  0  0  0  0
   -7.4190   -1.3190    0.6040 C   0  0  0  0  0  0  0  0  0  0  0  0
   -6.0610   -1.5500    0.4760 C   0  0  0  0  0  0  0  0  0  0  0  0
   -5.1990   -0.5310    0.0770 C   0  0  0  0  0  0  0  0  0  0  0  0
   -5.7340    0.7190   -0.1890 C   0  0  0  0  0  0  0  0  0  0  0  0
   -7.0930    0.9210   -0.0540 C   0  0  0  0  0  0  0  0  0  0  0  0
   -4.8300    1.8430   -0.6230 C   0  0  0  0  0  0  0  0  0  0  0  0
   -3.6510    1.1810   -1.3100 C   0  0  1  0  0  0  0  0  0  0  0  0
   -2.7820    2.0890   -1.8660 O   0  0  0  0  0  0  0  0  0  0  0  0
   -2.9750    0.3080   -0.2490 C   0  0  2  0  0  0  0  0  0  0  0  0
   -2.9140    1.0610    1.0860 C   0  0  0  0  0  0  0  0  0  0  0  0
   -1.6270   -0.0850   -0.6430 C   0  0  0  0  0  0  0  0  0  0  0  0
   -1.3290   -1.2940   -0.7680 O   0  0  0  0  0  0  0  0  0  0  0  0
   -0.6570    0.8670   -0.8850 O   0  0  0  0  0  0  0  0  0  0  0  0
    0.6560    0.5860   -1.2660 C   0  0  0  0  0  0  0  0  0  0  0  0
    1.3230   -0.2340   -0.2350 C   0  0  0  0  0  0  0  0  0  0  0  0
    0.6860   -0.5720    0.8070 O   0  0  0  0  0  0  0  0  0  0  0  0
    2.6280   -0.6710   -0.3280 O   0  0  0  0  0  0  0  0  0  0  0  0
    3.2150   -1.4540    0.6910 C   0  0  1  0  0  0  0  0  0  0  0  0
    3.6430   -2.7670    0.0850 C   0  0  0  0  0  0  0  0  0  0  0  0
    5.1290   -2.9060   -0.0190 C   0  0  0  0  0  0  0  0  0  0  0  0
    5.8210   -1.6390   -0.4480 C   0  0  1  0  0  0  0  0  0  0  0  0
    5.5200   -1.4290   -1.8010 O   0  0  0  0  0  0  0  0  0  0  0  0
    5.5160   -0.4640    0.4070 C   0  0  2  0  0  0  0  0  0  0  0  0
    5.1790    0.7840   -0.3640 C   0  0  0  0  0  0  0  0  0  0  0  0
    6.3210    1.3610   -1.0380 N   0  0  0  0  0  0  0  0  0  0  0  0
    7.3880    1.7090   -0.1350 C   0  0  0  0  0  0  0  0  0  0  0  0
    7.8660    0.4180    0.5080 C   0  0  0  0  0  0  0  0  0  0  0  0
    6.7220   -0.1410    1.2980 C   0  0  1  0  0  0  0  0  0  0  0  0
    6.3240    0.8520    2.2140 O   0  0  0  0  0  0  0  0  0  0  0  0
    4.3740   -0.7510    1.3600 C   0  0  0  0  0  0  0  0  0  0  0  0
   -3.8390   -0.7930   -0.0420 O   0  0  0  0  0  0  0  0  0  0  0  0
  2  1  1  6
  2  3  1  0
  2  4  1  0
  4  5  2  0
  4  9  1  0
  5  6  1  0
  6  7  2  0
  7  8  1  0
  7 35  1  0
  8  9  2  0
  8 10  1  0
 10 11  1  0
 11 12  1  1
 11 13  1  0
 13 14  1  1
 13 15  1  0
 13 35  1  0
 15 16  2  0
 15 17  1  0
 17 18  1  0
 18 19  1  0
 19 20  2  0
 19 21  1  0
 22 21  1  6
 22 23  1  0
 22 34  1  0
 23 24  1  0
 24 25  1  0
 25 26  1  6
 25 27  1  0
 27 28  1  6
 27 32  1  0
 27 34  1  0
 28 29  1  0
 29 30  1  0
 30 31  1  0
 31 32  1  0
 32 33  1  1
M  CHG  1  29   1
M  END
