
     RDKit          3D

 36 39  0  0  0  0  0  0  0  0999 V2000
   -4.6340    4.1900   -1.2620 N   0  0  0  0  0  0  0  0  0  0  0  0
   -4.4790    2.8910   -1.8810 C   0  0  0  0  0  0  0  0  0  0  0  0
   -4.0490    1.8810   -0.8350 C   0  0  2  0  0  0  0  0  0  0  0  0
   -2.7830    2.4010   -0.2030 C   0  0  0  0  0  0  0  0  0  0  0  0
   -2.6250    1.9260    1.1690 N   0  0  0  0  0  0  0  0  0  0  0  0
   -1.4310    1.2970    1.6180 C   0  0  0  0  0  0  0  0  0  0  0  0
   -1.1480    1.2980    2.8410 O   0  0  0  0  0  0  0  0  0  0  0  0
   -0.4690    0.6220    0.7080 C   0  0  0  0  0  0  0  0  0  0  0  0
    0.1430   -0.5170    1.2850 O   0  0  0  0  0  0  0  0  0  0  0  0
    0.4250   -1.7240    0.7050 C   0  0  0  0  0  0  0  0  0  0  0  0
    1.7290   -2.2310    0.7300 C   0  0  0  0  0  0  0  0  0  0  0  0
    2.7770   -1.5560    1.3300 O   0  0  0  0  0  0  0  0  0  0  0  0
    4.0570   -2.0800    1.3430 C   0  0  0  0  0  0  0  0  0  0  0  0
    5.0610   -1.1900    2.0430 C   0  0  2  0  0  0  0  0  0  0  0  0
    4.6280   -1.0320    3.3600 O   0  0  0  0  0  0  0  0  0  0  0  0
    5.1550    0.1430    1.4010 C   0  0  0  0  0  0  0  0  0  0  0  0
    4.1630    1.0900    1.5360 C   0  0  0  0  0  0  0  0  0  0  0  0
    4.2940    2.3360    0.9110 C   0  0  0  0  0  0  0  0  0  0  0  0
    5.3970    2.6390    0.1610 C   0  0  0  0  0  0  0  0  0  0  0  0
    6.3880    1.7030    0.0220 C   0  0  0  0  0  0  0  0  0  0  0  0
    6.2560    0.4620    0.6450 C   0  0  0  0  0  0  0  0  0  0  0  0
    7.3710    2.2680   -0.7780 O   0  0  0  0  0  0  0  0  0  0  0  0
    7.1280    3.6270   -0.9880 C   0  0  0  0  0  0  0  0  0  0  0  0
    5.7920    3.7790   -0.5650 O   0  0  0  0  0  0  0  0  0  0  0  0
    2.0330   -3.4450    0.1500 C   0  0  0  0  0  0  0  0  0  0  0  0
    1.0930   -4.2260   -0.4800 C   0  0  0  0  0  0  0  0  0  0  0  0
   -0.1820   -3.7390   -0.5080 C   0  0  0  0  0  0  0  0  0  0  0  0
   -0.5050   -2.5180    0.0720 C   0  0  0  0  0  0  0  0  0  0  0  0
   -1.9530   -2.1700   -0.0510 C   0  0  2  0  0  0  0  0  0  0  0  0
   -2.7200   -3.1870    0.5490 O   0  0  0  0  0  0  0  0  0  0  0  0
   -2.3050   -1.9560   -1.4740 C   0  0  0  0  0  0  0  0  0  0  0  0
   -3.7250   -2.2850   -1.8330 C   0  0  1  0  0  0  0  0  0  0  0  0
   -3.9420   -3.6700   -1.7170 O   0  0  0  0  0  0  0  0  0  0  0  0
   -4.7450   -1.5990   -0.9960 C   0  0  0  0  0  0  0  0  0  0  0  0
   -4.9980   -0.1700   -1.3490 C   0  0  0  0  0  0  0  0  0  0  0  0
   -3.8940    0.6270   -1.4010 O   0  0  0  0  0  0  0  0  0  0  0  0
  1  2  1  0
  3  2  1  6
  3  4  1  0
  3 36  1  0
  4  5  1  0
  5  6  1  0
  6  7  2  0
  6  8  1  0
  8  9  1  0
  9 10  1  0
 10 11  2  0
 10 28  1  0
 11 12  1  0
 11 25  1  0
 12 13  1  0
 13 14  1  0
 14 15  1  1
 14 16  1  0
 16 17  2  0
 16 21  1  0
 17 18  1  0
 18 19  2  0
 19 20  1  0
 19 24  1  0
 20 21  2  0
 20 22  1  0
 22 23  1  0
 23 24  1  0
 25 26  2  0
 26 27  1  0
 27 28  2  0
 28 29  1  0
 29 30  1  6
 29 31  1  0
 31 32  1  0
 32 33  1  1
 32 34  1  0
 34 35  1  0
 35 36  1  0
M  CHG  1   1   1
M  END
