
     RDKit          3D

 35 38  0  0  0  0  0  0  0  0999 V2000
    7.2870   -1.9970   -0.3950 N   0  0  0  0  0  0  0  0  0  0  0  0
    6.2540   -2.4720   -1.3490 C   0  0  0  0  0  0  0  0  0  0  0  0
    5.1260   -1.4730   -1.2070 C   0  0  0  0  0  0  0  0  0  0  0  0
    5.3130   -0.1480   -1.3040 C   0  0  0  0  0  0  0  0  0  0  0  0
    4.2090    0.6580   -1.1220 C   0  0  0  0  0  0  0  0  0  0  0  0
    2.9070    0.1970   -0.8350 C   0  0  0  0  0  0  0  0  0  0  0  0
    2.7890   -1.1790   -0.7550 C   0  0  0  0  0  0  0  0  0  0  0  0
    3.9200   -2.0410   -0.9480 C   0  0  0  0  0  0  0  0  0  0  0  0
    3.8120   -3.4260   -0.8830 O   0  0  0  0  0  0  0  0  0  0  0  0
    1.6420   -1.9010   -0.4850 O   0  0  0  0  0  0  0  0  0  0  0  0
    0.5870   -1.7130    0.3150 C   0  0  0  0  0  0  0  0  0  0  0  0
    0.0800   -3.0370    0.9390 C   0  0  0  0  0  0  0  0  0  0  0  0
   -1.1270   -2.5220    1.7590 C   0  0  0  0  0  0  0  0  0  0  0  0
   -0.9040   -2.5160    2.9860 O   0  0  0  0  0  0  0  0  0  0  0  0
   -2.1920   -2.1820    1.0420 O   0  0  0  0  0  0  0  0  0  0  0  0
   -3.1060   -1.2300    0.8120 C   0  0  0  0  0  0  0  0  0  0  0  0
   -3.0730    0.0620    0.9910 C   0  0  0  0  0  0  0  0  0  0  0  0
   -1.8750    0.8090    1.5180 C   0  0  0  0  0  0  0  0  0  0  0  0
   -1.1350    1.3010    0.2650 C   0  0  0  0  0  0  0  0  0  0  0  0
   -0.0350    2.2300    0.3870 C   0  0  2  0  0  0  0  0  0  0  0  0
   -0.3420    3.0350    1.5160 O   0  0  0  0  0  0  0  0  0  0  0  0
   -0.0390    3.2240   -0.7990 C   0  0  0  0  0  0  0  0  0  0  0  0
    0.5640    4.4700   -0.2680 C   0  0  0  0  0  0  0  0  0  0  0  0
    1.5900    4.2510    0.7790 C   0  0  0  0  0  0  0  0  0  0  0  0
    2.2550    2.9490    0.7950 C   0  0  0  0  0  0  0  0  0  0  0  0
    1.3740    1.7170    0.5170 C   0  0  2  0  0  0  0  0  0  0  0  0
    1.8460    1.0760   -0.6480 O   0  0  0  0  0  0  0  0  0  0  0  0
   -4.0690    1.0310    0.7800 O   0  0  0  0  0  0  0  0  0  0  0  0
   -5.4910    0.8280    0.7070 C   0  0  0  0  0  0  0  0  0  0  0  0
   -5.7600    0.0540   -0.5400 C   0  0  1  0  0  0  0  0  0  0  0  0
   -4.9650    0.5020   -1.6080 O   0  0  0  0  0  0  0  0  0  0  0  0
   -5.3800   -1.3950   -0.3300 C   0  0  0  0  0  0  0  0  0  0  0  0
   -6.3540   -2.3120   -0.9520 C   0  0  0  0  0  0  0  0  0  0  0  0
   -5.9660   -3.6400   -0.8590 O   0  0  0  0  0  0  0  0  0  0  0  0
   -4.3100   -1.9220    0.2230 C   0  0  0  0  0  0  0  0  0  0  0  0
  1  2  1  0
  2  3  1  0
  3  4  2  0
  3  8  1  0
  4  5  1  0
  5  6  2  0
  6  7  1  0
  6 27  1  0
  7  8  2  0
  7 10  1  0
  8  9  1  0
 10 11  1  0
 11 12  1  0
 12 13  1  0
 13 14  2  0
 13 15  1  0
 15 16  1  0
 16 17  2  0
 16 35  1  0
 17 18  1  0
 17 28  1  0
 18 19  1  0
 19 20  1  0
 20 21  1  1
 20 22  1  0
 20 26  1  0
 22 23  1  0
 23 24  1  0
 24 25  1  0
 26 25  1  6
 26 27  1  0
 28 29  1  0
 29 30  1  0
 30 31  1  6
 30 32  1  0
 32 33  1  0
 32 35  2  0
 33 34  1  0
M  CHG  1   1   1
M  END
