
     RDKit          3D

 36 39  0  0  0  0  0  0  0  0999 V2000
   -2.3120   -0.7030   -3.0160 C   0  0  0  0  0  0  0  0  0  0  0  0
   -2.0160   -0.4300   -1.6590 O   0  0  0  0  0  0  0  0  0  0  0  0
   -2.1290   -1.4770   -0.7600 C   0  0  0  0  0  0  0  0  0  0  0  0
   -2.5120   -2.7430   -1.1470 C   0  0  0  0  0  0  0  0  0  0  0  0
   -2.6280   -3.7920   -0.2680 C   0  0  0  0  0  0  0  0  0  0  0  0
   -3.0400   -5.1610   -0.6710 C   0  0  0  0  0  0  0  0  0  0  0  0
   -2.3460   -3.5460    1.0560 C   0  0  0  0  0  0  0  0  0  0  0  0
   -2.4380   -4.5530    2.0170 O   0  0  0  0  0  0  0  0  0  0  0  0
   -1.9550   -2.2550    1.4540 C   0  0  0  0  0  0  0  0  0  0  0  0
   -1.8480   -1.2350    0.5550 C   0  0  0  0  0  0  0  0  0  0  0  0
   -1.4230    0.1200    1.0460 C   0  0  2  0  0  0  0  0  0  0  0  0
   -2.2870    1.1680    0.5280 C   0  0  0  0  0  0  0  0  0  0  0  0
   -3.5470    1.3120    0.8680 C   0  0  0  0  0  0  0  0  0  0  0  0
   -4.2750    0.4670    1.8090 C   0  0  0  0  0  0  0  0  0  0  0  0
   -4.8120    1.2810    2.9160 N   0  0  0  0  0  0  0  0  0  0  0  0
   -1.7560    2.1750   -0.3830 C   0  0  0  0  0  0  0  0  0  0  0  0
   -0.4610    2.2230   -0.6740 C   0  0  0  0  0  0  0  0  0  0  0  0
    0.2190    3.1250   -1.5140 O   0  0  0  0  0  0  0  0  0  0  0  0
   -0.1250    4.4630   -1.8110 C   0  0  0  0  0  0  0  0  0  0  0  0
   -1.3390    4.9190   -1.0310 C   0  0  1  0  0  0  0  0  0  0  0  0
   -1.3810    6.3100   -1.1240 O   0  0  0  0  0  0  0  0  0  0  0  0
   -2.5890    4.2700   -1.5320 C   0  0  0  0  0  0  0  0  0  0  0  0
   -2.7390    3.0300   -0.8760 O   0  0  0  0  0  0  0  0  0  0  0  0
    0.4170    1.2440   -0.1030 C   0  0  0  0  0  0  0  0  0  0  0  0
    1.7870    1.3390   -0.4200 O   0  0  0  0  0  0  0  0  0  0  0  0
    0.0070    0.2910    0.6800 C   0  0  0  0  0  0  0  0  0  0  0  0
    1.0320   -0.6300    1.2070 C   0  0  0  0  0  0  0  0  0  0  0  0
    0.6960   -1.5490    1.9560 O   0  0  0  0  0  0  0  0  0  0  0  0
    2.3480   -0.4610    0.8640 O   0  0  0  0  0  0  0  0  0  0  0  0
    3.3920   -1.2970    1.3230 C   0  0  0  0  0  0  0  0  0  0  0  0
    4.7320   -0.8590    0.7730 C   0  0  1  0  0  0  0  0  0  0  0  0
    5.8230   -1.8160    1.2000 C   0  0  0  0  0  0  0  0  0  0  0  0
    6.7480   -1.8390   -0.0100 C   0  0  0  0  0  0  0  0  0  0  0  0
    6.0940   -0.8640   -0.9330 C   0  0  2  0  0  0  0  0  0  0  0  0
    6.6730    0.5400   -0.7510 C   0  0  0  0  0  0  0  0  0  0  0  0
    4.7480   -0.8970   -0.6220 O   0  0  0  0  0  0  0  0  0  0  0  0
  1  2  1  0
  2  3  1  0
  3  4  2  0
  3 10  1  0
  4  5  1  0
  5  6  1  0
  5  7  2  0
  7  8  1  0
  7  9  1  0
  9 10  2  0
 11 10  1  6
 11 12  1  0
 11 26  1  0
 12 13  2  3
 12 16  1  0
 13 14  1  0
 14 15  1  0
 16 17  2  0
 16 23  1  0
 17 18  1  0
 17 24  1  0
 18 19  1  0
 19 20  1  0
 20 21  1  6
 20 22  1  0
 22 23  1  0
 24 25  1  0
 24 26  2  0
 26 27  1  0
 27 28  2  0
 27 29  1  0
 29 30  1  0
 31 30  1  1
 31 32  1  0
 31 36  1  0
 32 33  1  0
 33 34  1  0
 34 35  1  1
 34 36  1  0
M  CHG  1  15   1
M  END
