
     RDKit          3D

 29 30  0  0  0  0  0  0  0  0999 V2000
   -8.1150    0.7480    0.5580 N   0  0  0  0  0  0  0  0  0  0  0  0
   -6.8990    0.3110    0.6420 C   0  0  0  0  0  0  0  0  0  0  0  0
   -5.9250    0.9510   -0.1090 C   0  0  0  0  0  0  0  0  0  0  0  0
   -4.6120    0.5340   -0.0650 C   0  0  0  0  0  0  0  0  0  0  0  0
   -4.3070   -0.5120    0.7310 N   0  0  0  0  0  0  0  0  0  0  0  0
   -2.9660   -0.9750    0.8080 C   0  0  2  0  0  0  0  0  0  0  0  0
   -2.0570    0.0810    0.9500 O   0  0  0  0  0  0  0  0  0  0  0  0
   -0.8610   -0.3430    0.3580 C   0  0  2  0  0  0  0  0  0  0  0  0
   -0.0190    0.8630    0.1270 C   0  0  0  0  0  0  0  0  0  0  0  0
    1.1930    0.6080   -0.4520 O   0  0  0  0  0  0  0  0  0  0  0  0
    2.1950    1.8210   -0.7540 P   0  0  0  0  0  0  0  0  0  0  0  0
    2.8340    2.0460   -2.3050 O   0  0  0  0  0  0  0  0  0  0  0  0
    2.5760    2.9510    0.4000 O   0  0  0  0  0  0  0  0  0  0  0  0
    3.4680    1.0460   -0.4020 O   0  0  0  0  0  0  0  0  0  0  0  0
    3.8140   -0.4450   -0.8980 P   0  0  0  0  0  0  0  0  0  0  0  0
    5.1790   -0.7770   -1.8320 O   0  0  0  0  0  0  0  0  0  0  0  0
    2.7980   -1.7130   -0.5730 O   0  0  0  0  0  0  0  0  0  0  0  0
    4.6600   -0.7550    0.3460 O   0  0  0  0  0  0  0  0  0  0  0  0
    5.9440    0.3140    0.5130 P   0  0  0  0  0  0  0  0  0  0  0  0
    5.2360    0.9200    1.7260 O   0  0  0  0  0  0  0  0  0  0  0  0
    7.2330   -0.1250    1.4720 O   0  0  0  0  0  0  0  0  0  0  0  0
    6.0210    1.6300   -0.4120 O   0  0  0  0  0  0  0  0  0  0  0  0
   -1.3830   -0.9700   -0.9160 C   0  0  1  0  0  0  0  0  0  0  0  0
   -0.4860   -1.8300   -1.5000 O   0  0  0  0  0  0  0  0  0  0  0  0
   -2.5200   -1.8070   -0.3540 C   0  0  1  0  0  0  0  0  0  0  0  0
   -1.9820   -3.0280    0.0520 O   0  0  0  0  0  0  0  0  0  0  0  0
   -5.2550   -1.1420    1.4690 C   0  0  0  0  0  0  0  0  0  0  0  0
   -4.9930   -2.1180    2.2160 O   0  0  0  0  0  0  0  0  0  0  0  0
   -6.5360   -0.7260    1.4170 N   0  0  0  0  0  0  0  0  0  0  0  0
  1  2  2  0
  2  3  1  0
  2 29  1  0
  3  4  2  0
  4  5  1  0
  6  5  1  6
  5 27  1  0
  6  7  1  0
  6 25  1  0
  7  8  1  0
  8  9  1  6
  8 23  1  0
  9 10  1  0
 10 11  1  0
 11 12  1  0
 11 13  1  0
 11 14  1  0
 14 15  1  0
 15 16  1  0
 15 17  1  0
 15 18  1  0
 18 19  1  0
 19 20  1  0
 19 21  1  0
 19 22  1  0
 23 24  1  1
 23 25  1  0
 25 26  1  1
 27 28  2  0
 27 29  1  0
M  END
