
     RDKit          3D

 28 29  0  0  0  0  0  0  0  0999 V2000
    0.6630   -0.7280   -0.0480 O   0  0  0  0  0  0  0  0  0  0  0  0
    1.2860    0.1680   -0.6700 C   0  0  0  0  0  0  0  0  0  0  0  0
    0.5770    1.0090   -1.6740 C   0  0  0  0  0  0  0  0  0  0  0  0
   -0.8190    0.6330   -1.7820 N   0  0  0  0  0  0  0  0  0  0  0  0
   -1.2070   -0.3070   -2.6620 C   0  0  0  0  0  0  0  0  0  0  0  0
   -0.3160   -0.8540   -3.3930 O   0  0  0  0  0  0  0  0  0  0  0  0
   -2.4930   -0.6740   -2.7820 N   0  0  0  0  0  0  0  0  0  0  0  0
   -3.4690   -0.1120   -2.0180 C   0  0  0  0  0  0  0  0  0  0  0  0
   -4.6640   -0.4830   -2.1620 O   0  0  0  0  0  0  0  0  0  0  0  0
   -3.0940    0.8240   -1.1400 N   0  0  0  0  0  0  0  0  0  0  0  0
   -4.0170    1.4920   -0.2630 C   0  0  0  0  0  0  0  0  0  0  0  0
   -4.2010    0.8590    1.0740 C   0  0  2  0  0  0  0  0  0  0  0  0
   -3.0090    0.7730    1.7930 O   0  0  0  0  0  0  0  0  0  0  0  0
   -4.9510   -0.3940    1.0330 C   0  0  0  0  0  0  0  0  0  0  0  0
   -4.5280   -1.4840    1.5040 O   0  0  0  0  0  0  0  0  0  0  0  0
   -6.2040   -0.4260    0.4550 O   0  0  0  0  0  0  0  0  0  0  0  0
   -1.7830    1.1840   -1.0310 C   0  0  0  0  0  0  0  0  0  0  0  0
   -1.4270    2.0680   -0.2030 O   0  0  0  0  0  0  0  0  0  0  0  0
    2.6300    0.3290   -0.3800 O   0  0  0  0  0  0  0  0  0  0  0  0
    3.2420   -0.4860    0.5690 C   0  0  2  0  0  0  0  0  0  0  0  0
    4.7040   -0.0930    0.6840 C   0  0  0  0  0  0  0  0  0  0  0  0
    5.3010   -0.9060    1.6260 O   0  0  0  0  0  0  0  0  0  0  0  0
    6.5700   -0.6150    1.7710 O   0  0  0  0  0  0  0  0  0  0  0  0
    6.8170    0.4710    1.0730 O   0  0  0  0  0  0  0  0  0  0  0  0
    3.1220   -1.9570    0.2900 C   0  0  0  0  0  0  0  0  0  0  0  0
    2.4360   -2.4610    1.3770 O   0  0  0  0  0  0  0  0  0  0  0  0
    2.6360   -1.6890    2.3940 O   0  0  0  0  0  0  0  0  0  0  0  0
    2.6350   -0.3720    1.9490 C   0  0  0  0  0  0  0  0  0  0  0  0
  1  2  2  0
  2  3  1  0
  2 19  1  0
  3  4  1  0
  4  5  1  0
  4 17  1  0
  5  6  2  0
  5  7  1  0
  7  8  1  0
  8  9  2  0
  8 10  1  0
 10 11  1  0
 10 17  1  0
 11 12  1  0
 12 13  1  6
 12 14  1  0
 14 15  2  0
 14 16  1  0
 17 18  2  0
 19 20  1  0
 20 21  1  1
 20 25  1  0
 20 28  1  0
 21 22  1  0
 22 23  1  0
 23 24  1  0
 25 26  1  0
 26 27  1  0
 27 28  1  0
M  END
