
     RDKit          3D

 29 30  0  0  0  0  0  0  0  0999 V2000
   -4.1210    0.9860    1.9320 O   0  0  0  0  0  0  0  0  0  0  0  0
   -3.9210   -0.0920    1.3200 C   0  0  0  0  0  0  0  0  0  0  0  0
   -4.9720   -1.0020    1.2420 O   0  0  0  0  0  0  0  0  0  0  0  0
   -2.6490   -0.3550    0.7320 N   0  0  0  0  0  0  0  0  0  0  0  0
   -1.5760    0.5940    0.8210 C   0  0  0  0  0  0  0  0  0  0  0  0
   -1.8300    1.6410    1.4380 O   0  0  0  0  0  0  0  0  0  0  0  0
   -0.2990    0.2550    0.1900 C   0  0  2  0  0  0  0  0  0  0  0  0
    0.0530    1.1820   -0.9830 C   0  0  0  0  0  0  0  0  0  0  0  0
    0.6180    2.4150   -0.4680 N   0  0  0  0  0  0  0  0  0  0  0  0
   -0.2110    3.5670   -0.4830 C   0  0  0  0  0  0  0  0  0  0  0  0
    0.1880    4.6820   -0.0420 O   0  0  0  0  0  0  0  0  0  0  0  0
   -1.4910    3.4720   -0.9980 O   0  0  0  0  0  0  0  0  0  0  0  0
    1.9570    2.4860    0.0280 C   0  0  0  0  0  0  0  0  0  0  0  0
    2.1170    3.1070    1.1230 O   0  0  0  0  0  0  0  0  0  0  0  0
    3.0710    1.9510   -0.5650 O   0  0  0  0  0  0  0  0  0  0  0  0
    3.3200    0.7330   -1.0730 C   0  0  0  0  0  0  0  0  0  0  0  0
    3.5810    0.5690   -2.2980 O   0  0  0  0  0  0  0  0  0  0  0  0
    3.3060   -0.4930   -0.2370 C   0  0  0  0  0  0  0  0  0  0  0  0
    3.1580   -0.2160    1.1350 O   0  0  0  0  0  0  0  0  0  0  0  0
    2.7120   -1.0980    2.0930 C   0  0  0  0  0  0  0  0  0  0  0  0
    3.3450   -1.2890    3.1880 O   0  0  0  0  0  0  0  0  0  0  0  0
    1.5570   -1.8080    1.8990 O   0  0  0  0  0  0  0  0  0  0  0  0
    1.2230   -2.4860    0.7980 O   0  0  0  0  0  0  0  0  0  0  0  0
   -0.1050   -2.2490    0.5020 C   0  0  2  0  0  0  0  0  0  0  0  0
   -0.7300   -3.3050   -0.1180 O   0  0  0  0  0  0  0  0  0  0  0  0
   -0.8450   -3.0360   -1.4690 C   0  0  0  0  0  0  0  0  0  0  0  0
   -0.5180   -1.6020   -1.6460 C   0  0  0  0  0  0  0  0  0  0  0  0
   -0.4490   -1.0210   -2.7520 O   0  0  0  0  0  0  0  0  0  0  0  0
   -0.3180   -1.0830   -0.3390 N   0  0  0  0  0  0  0  0  0  0  0  0
  1  2  2  0
  2  3  1  0
  2  4  1  0
  4  5  1  0
  5  6  2  0
  7  5  1  6
  7  8  1  0
  7 29  1  0
  8  9  1  0
  9 10  1  0
  9 13  1  0
 10 11  2  0
 10 12  1  0
 13 14  2  0
 13 15  1  0
 15 16  1  0
 16 17  2  0
 16 18  1  0
 18 19  1  0
 19 20  1  0
 20 21  2  0
 20 22  1  0
 22 23  1  0
 24 23  1  6
 24 25  1  0
 24 29  1  0
 25 26  1  0
 26 27  1  0
 27 28  2  0
 27 29  1  0
M  END
