
     RDKit          3D

 27 27  0  0  0  0  0  0  0  0999 V2000
    5.7650    2.4970   -0.2300 C   0  0  0  0  0  0  0  0  0  0  0  0
    4.8810    3.1860   -1.0610 O   0  0  0  0  0  0  0  0  0  0  0  0
    3.7310    3.4190   -0.4670 O   0  0  0  0  0  0  0  0  0  0  0  0
    2.8100    2.5180   -0.7490 O   0  0  0  0  0  0  0  0  0  0  0  0
    2.4970    1.4930    0.1530 C   0  0  0  0  0  0  0  0  0  0  0  0
    3.1540    1.5030    1.2310 O   0  0  0  0  0  0  0  0  0  0  0  0
    1.5120    0.5170   -0.1310 N   0  0  0  0  0  0  0  0  0  0  0  0
    1.2460   -0.4470    0.7630 O   0  0  0  0  0  0  0  0  0  0  0  0
    2.0910   -1.5450    0.6210 C   0  0  0  0  0  0  0  0  0  0  0  0
    1.4720   -2.6880    1.4210 C   0  0  0  0  0  0  0  0  0  0  0  0
    0.2450   -3.1780    0.6540 C   0  0  0  0  0  0  0  0  0  0  0  0
   -0.8910   -2.7610    1.3830 O   0  0  0  0  0  0  0  0  0  0  0  0
   -2.1870   -2.8800    0.9610 C   0  0  0  0  0  0  0  0  0  0  0  0
   -3.0710   -3.1970    1.8180 O   0  0  0  0  0  0  0  0  0  0  0  0
   -2.6290   -2.6750   -0.3760 N   0  0  0  0  0  0  0  0  0  0  0  0
   -2.0930   -1.6770   -1.2340 C   0  0  0  0  0  0  0  0  0  0  0  0
   -2.2090   -1.7680   -2.4850 O   0  0  0  0  0  0  0  0  0  0  0  0
   -1.3700   -0.4760   -0.7330 C   0  0  2  0  0  0  0  0  0  0  0  0
   -2.3040    0.6840   -0.8170 C   0  0  0  0  0  0  0  0  0  0  0  0
   -2.0890    1.6610   -1.5710 O   0  0  0  0  0  0  0  0  0  0  0  0
   -3.4850    0.7090   -0.0260 N   0  0  0  0  0  0  0  0  0  0  0  0
   -4.4150    1.8090   -0.0740 C   0  0  0  0  0  0  0  0  0  0  0  0
   -3.8080    3.0130    0.2950 O   0  0  0  0  0  0  0  0  0  0  0  0
   -4.6540    4.0060    0.2500 O   0  0  0  0  0  0  0  0  0  0  0  0
   -0.3040   -0.2280   -1.6150 O   0  0  0  0  0  0  0  0  0  0  0  0
    0.7950    0.5370   -1.3490 C   0  0  0  0  0  0  0  0  0  0  0  0
    1.2350    1.3380   -2.2430 O   0  0  0  0  0  0  0  0  0  0  0  0
  1  2  1  0
  2  3  1  0
  3  4  1  0
  4  5  1  0
  5  6  2  0
  5  7  1  0
  7  8  1  0
  7 26  1  0
  8  9  1  0
  9 10  1  0
 10 11  1  0
 11 12  1  0
 12 13  1  0
 13 14  2  0
 13 15  1  0
 15 16  1  0
 16 17  2  0
 16 18  1  0
 18 19  1  6
 18 25  1  0
 19 20  2  0
 19 21  1  0
 21 22  1  0
 22 23  1  0
 23 24  1  0
 25 26  1  0
 26 27  2  0
M  END
