
     RDKit          3D

 28 29  0  0  0  0  0  0  0  0999 V2000
   -3.2970   -1.8370    1.9510 O   0  0  0  0  0  0  0  0  0  0  0  0
   -2.1570   -1.3120    1.9060 C   0  0  0  0  0  0  0  0  0  0  0  0
   -1.8550   -0.1630    2.7740 C   0  0  0  0  0  0  0  0  0  0  0  0
   -2.5420    1.0240    2.4450 O   0  0  0  0  0  0  0  0  0  0  0  0
   -2.4550    1.6820    1.2280 C   0  0  0  0  0  0  0  0  0  0  0  0
   -2.2410    2.9490    1.3050 O   0  0  0  0  0  0  0  0  0  0  0  0
   -2.5750    1.1030   -0.0800 N   0  0  0  0  0  0  0  0  0  0  0  0
   -1.6400    1.4890   -1.1340 C   0  0  0  0  0  0  0  0  0  0  0  0
   -0.6850    2.3150   -1.1190 O   0  0  0  0  0  0  0  0  0  0  0  0
   -1.9250    0.7860   -2.3010 O   0  0  0  0  0  0  0  0  0  0  0  0
   -2.6930   -0.2890   -1.9070 C   0  0  1  0  0  0  0  0  0  0  0  0
   -2.0390   -1.5860   -1.7290 C   0  0  0  0  0  0  0  0  0  0  0  0
   -2.8750   -2.5620   -1.6090 O   0  0  0  0  0  0  0  0  0  0  0  0
   -0.6760   -1.9160   -1.6740 N   0  0  0  0  0  0  0  0  0  0  0  0
    0.3510   -1.4720   -0.7740 C   0  0  1  0  0  0  0  0  0  0  0  0
    1.2150   -0.4250   -1.4270 C   0  0  0  0  0  0  0  0  0  0  0  0
    1.0340   -0.0290   -2.6040 O   0  0  0  0  0  0  0  0  0  0  0  0
    2.2600    0.1380   -0.7130 O   0  0  0  0  0  0  0  0  0  0  0  0
    3.1170    1.1260   -1.2490 C   0  0  0  0  0  0  0  0  0  0  0  0
    4.1410    1.5460   -0.2690 C   0  0  0  0  0  0  0  0  0  0  0  0
    4.9760    2.4190   -0.6040 O   0  0  0  0  0  0  0  0  0  0  0  0
    4.1740    0.9900    0.9780 O   0  0  0  0  0  0  0  0  0  0  0  0
    5.0740    1.3240    1.9140 O   0  0  0  0  0  0  0  0  0  0  0  0
    6.0870    0.4950    1.8010 O   0  0  0  0  0  0  0  0  0  0  0  0
   -0.0450   -1.1090    0.5990 C   0  0  0  0  0  0  0  0  0  0  0  0
   -1.2100   -1.8710    1.0020 N   0  0  0  0  0  0  0  0  0  0  0  0
   -3.4120    0.1740   -0.6410 C   0  0  0  0  0  0  0  0  0  0  0  0
   -4.5390   -0.4240   -0.4940 O   0  0  0  0  0  0  0  0  0  0  0  0
  1  2  2  0
  2  3  1  0
  2 26  1  0
  3  4  1  0
  4  5  1  0
  5  6  2  0
  5  7  1  0
  7  8  1  0
  7 27  1  0
  8  9  2  0
  8 10  1  0
 11 10  1  1
 11 12  1  0
 11 27  1  0
 12 13  2  0
 12 14  1  0
 14 15  1  0
 15 16  1  6
 15 25  1  0
 16 17  2  0
 16 18  1  0
 18 19  1  0
 19 20  1  0
 20 21  2  0
 20 22  1  0
 22 23  1  0
 23 24  1  0
 25 26  1  0
 27 28  2  0
M  END
