
     RDKit          3D

 28 29  0  0  0  0  0  0  0  0999 V2000
   -0.2970    2.3650   -1.3560 O   0  0  0  0  0  0  0  0  0  0  0  0
    0.0630    1.4670   -0.5180 C   0  0  0  0  0  0  0  0  0  0  0  0
    0.0140    1.8760    0.9080 C   0  0  0  0  0  0  0  0  0  0  0  0
   -1.2450    2.4590    1.1620 O   0  0  0  0  0  0  0  0  0  0  0  0
   -1.6320    3.1960    0.1460 O   0  0  0  0  0  0  0  0  0  0  0  0
   -2.9480    2.9430   -0.2210 C   0  0  0  0  0  0  0  0  0  0  0  0
   -3.4270    1.6640    0.3880 C   0  0  0  0  0  0  0  0  0  0  0  0
   -4.4270    1.0010   -0.4300 N   0  0  0  0  0  0  0  0  0  0  0  0
   -4.8100   -0.3510   -0.2660 C   0  0  0  0  0  0  0  0  0  0  0  0
   -6.0270   -0.6340   -0.4270 O   0  0  0  0  0  0  0  0  0  0  0  0
   -3.9820   -1.4050    0.0550 O   0  0  0  0  0  0  0  0  0  0  0  0
   -2.6930   -1.6730   -0.4130 C   0  0  1  0  0  0  0  0  0  0  0  0
   -1.6610   -1.8200    0.6460 C   0  0  0  0  0  0  0  0  0  0  0  0
   -0.7070   -2.7460    0.0400 N   0  0  0  0  0  0  0  0  0  0  0  0
    0.7040   -2.6920    0.3260 C   0  0  0  0  0  0  0  0  0  0  0  0
    1.2380   -3.8520    0.4950 O   0  0  0  0  0  0  0  0  0  0  0  0
    1.3930   -1.5170    0.4080 O   0  0  0  0  0  0  0  0  0  0  0  0
    1.6270   -0.5390   -0.5420 C   0  0  2  0  0  0  0  0  0  0  0  0
    2.6960    0.4020    0.0360 C   0  0  0  0  0  0  0  0  0  0  0  0
    3.9590   -0.4270    0.3080 C   0  0  0  0  0  0  0  0  0  0  0  0
    4.9500    0.4020    0.8350 O   0  0  0  0  0  0  0  0  0  0  0  0
    6.0490   -0.2530    1.0850 O   0  0  0  0  0  0  0  0  0  0  0  0
    6.9940   -0.0120    0.2000 O   0  0  0  0  0  0  0  0  0  0  0  0
    7.7280    1.0230    0.5090 O   0  0  0  0  0  0  0  0  0  0  0  0
    0.4680    0.1940   -0.9870 N   0  0  0  0  0  0  0  0  0  0  0  0
   -1.4930   -3.5950   -0.7970 C   0  0  0  0  0  0  0  0  0  0  0  0
   -1.1110   -4.7280   -1.2130 O   0  0  0  0  0  0  0  0  0  0  0  0
   -2.6930   -2.9440   -1.0380 O   0  0  0  0  0  0  0  0  0  0  0  0
  1  2  2  0
  2  3  1  0
  2 25  1  0
  3  4  1  0
  4  5  1  0
  5  6  1  0
  6  7  1  0
  7  8  1  0
  8  9  1  0
  9 10  2  0
  9 11  1  0
 12 11  1  1
 12 13  1  0
 12 28  1  0
 13 14  1  0
 14 15  1  0
 14 26  1  0
 15 16  2  0
 15 17  1  0
 17 18  1  0
 18 19  1  1
 18 25  1  0
 19 20  1  0
 20 21  1  0
 21 22  1  0
 22 23  1  0
 23 24  1  0
 26 27  2  0
 26 28  1  0
M  END
