
     RDKit          3D

 29 30  0  0  0  0  0  0  0  0999 V2000
    7.1070   -0.1520   -0.9690 O   0  0  0  0  0  0  0  0  0  0  0  0
    6.9140   -1.0010   -0.0610 C   0  0  0  0  0  0  0  0  0  0  0  0
    5.5870   -1.1580    0.5850 C   0  0  0  0  0  0  0  0  0  0  0  0
    4.7070   -0.2450    0.0120 O   0  0  0  0  0  0  0  0  0  0  0  0
    3.3580   -0.1340    0.4020 C   0  0  0  0  0  0  0  0  0  0  0  0
    3.0270   -0.9330    1.3120 O   0  0  0  0  0  0  0  0  0  0  0  0
    2.4690    0.8300   -0.2180 C   0  0  0  0  0  0  0  0  0  0  0  0
    3.0020    1.5530   -1.1390 O   0  0  0  0  0  0  0  0  0  0  0  0
    1.1270    1.0360    0.0870 N   0  0  0  0  0  0  0  0  0  0  0  0
    0.2100    1.9910   -0.5280 C   0  0  0  0  0  0  0  0  0  0  0  0
   -1.0410    1.1500   -0.5270 C   0  0  0  0  0  0  0  0  0  0  0  0
   -1.9040    1.1460   -1.4790 N   0  0  0  0  0  0  0  0  0  0  0  0
   -3.0310    0.3860   -1.4740 O   0  0  0  0  0  0  0  0  0  0  0  0
   -4.1280    0.6280   -0.6700 C   0  0  0  0  0  0  0  0  0  0  0  0
   -5.1860   -0.1930   -0.7510 N   0  0  0  0  0  0  0  0  0  0  0  0
   -6.2730   -0.0150   -0.0050 C   0  0  0  0  0  0  0  0  0  0  0  0
   -7.4510   -0.8960   -0.0690 C   0  0  0  0  0  0  0  0  0  0  0  0
   -7.2270   -1.9090   -1.0150 O   0  0  0  0  0  0  0  0  0  0  0  0
   -6.1640   -2.6090   -0.6510 O   0  0  0  0  0  0  0  0  0  0  0  0
   -6.2960    1.0070    0.8380 O   0  0  0  0  0  0  0  0  0  0  0  0
   -5.2810    1.8310    0.9450 C   0  0  0  0  0  0  0  0  0  0  0  0
   -5.3440    2.7940    1.7630 O   0  0  0  0  0  0  0  0  0  0  0  0
   -4.1690    1.6710    0.2010 N   0  0  0  0  0  0  0  0  0  0  0  0
   -1.0080    0.4510    0.6700 O   0  0  0  0  0  0  0  0  0  0  0  0
    0.3460    0.3780    1.0570 C   0  0  0  0  0  0  0  0  0  0  0  0
    0.7080   -0.2000    2.1120 O   0  0  0  0  0  0  0  0  0  0  0  0
    7.9990   -1.7810    0.3050 O   0  0  0  0  0  0  0  0  0  0  0  0
    9.2080   -1.6550   -0.2670 O   0  0  0  0  0  0  0  0  0  0  0  0
    9.2770   -0.5390   -0.9810 O   0  0  0  0  0  0  0  0  0  0  0  0
  1  2  2  0
  2  3  1  0
  2 27  1  0
  3  4  1  0
  4  5  1  0
  5  6  2  0
  5  7  1  0
  7  8  2  0
  7  9  1  0
  9 10  1  0
  9 25  1  0
 10 11  1  0
 11 12  2  3
 11 24  1  0
 12 13  1  0
 13 14  1  0
 14 15  1  0
 14 23  2  0
 15 16  2  0
 16 17  1  0
 16 20  1  0
 17 18  1  0
 18 19  1  0
 20 21  1  0
 21 22  2  0
 21 23  1  0
 24 25  1  0
 25 26  2  0
 27 28  1  0
 28 29  1  0
M  END
