
     RDKit          3D

 25 26  0  0  0  0  0  0  0  0999 V2000
   -7.5710   -2.1330    1.5930 C   0  0  0  0  0  0  0  0  0  0  0  0
   -6.6410   -1.2840    0.7540 C   0  0  1  0  0  0  0  0  0  0  0  0
   -6.9180    0.1710    1.0930 C   0  0  0  0  0  0  0  0  0  0  0  0
   -5.2290   -1.6110    1.1230 C   0  0  0  0  0  0  0  0  0  0  0  0
   -4.3150   -0.8140    0.3380 N   0  0  0  0  0  0  0  0  0  0  0  0
   -2.9050   -0.9140    0.4760 C   0  0  0  0  0  0  0  0  0  0  0  0
   -2.4730   -1.7350    1.3220 O   0  0  0  0  0  0  0  0  0  0  0  0
   -1.9920   -0.0830   -0.3450 C   0  0  0  0  0  0  0  0  0  0  0  0
   -0.7150   -0.2300   -0.1610 C   0  0  0  0  0  0  0  0  0  0  0  0
    0.2560    0.5580   -0.9360 C   0  0  0  0  0  0  0  0  0  0  0  0
   -0.1290    1.4790   -1.8830 C   0  0  0  0  0  0  0  0  0  0  0  0
    0.7790    2.2280   -2.6200 C   0  0  0  0  0  0  0  0  0  0  0  0
    2.1180    2.0200   -2.3740 C   0  0  0  0  0  0  0  0  0  0  0  0
    3.0770    2.7270   -3.0670 C   0  0  0  0  0  0  0  0  0  0  0  0
    4.4030    2.4950   -2.7960 C   0  0  0  0  0  0  0  0  0  0  0  0
    4.7540    1.5660   -1.8430 C   0  0  0  0  0  0  0  0  0  0  0  0
    6.1440    1.3710   -1.6080 N   0  0  0  0  0  0  0  0  0  0  0  0
    3.8300    0.8390   -1.1280 C   0  0  0  0  0  0  0  0  0  0  0  0
    4.2250   -0.1380   -0.1250 C   0  0  0  0  0  0  0  0  0  0  0  0
    4.4140   -1.3340   -0.4590 O   0  0  0  0  0  0  0  0  0  0  0  0
    4.4190    0.2130    1.3040 C   0  0  0  0  0  0  0  0  0  0  0  0
    4.8250   -0.9830    2.1250 C   0  0  0  0  0  0  0  0  0  0  0  0
    3.8380   -2.0160    2.0780 N   0  0  0  0  0  0  0  0  0  0  0  0
    2.4800    1.0910   -1.4200 C   0  0  0  0  0  0  0  0  0  0  0  0
    1.5920    0.3760   -0.7160 N   0  0  0  0  0  0  0  0  0  0  0  0
  2  1  1  1
  2  3  1  0
  2  4  1  0
  4  5  1  0
  5  6  1  0
  6  7  2  0
  6  8  1  0
  8  9  2  3
  9 10  1  0
 10 11  2  0
 10 25  1  0
 11 12  1  0
 12 13  2  0
 13 14  1  0
 13 24  1  0
 14 15  2  0
 15 16  1  0
 16 17  1  0
 16 18  2  0
 18 19  1  0
 18 24  1  0
 19 20  2  0
 19 21  1  0
 21 22  1  0
 22 23  1  0
 24 25  2  0
M  CHG  2  17   1  23   1
M  END
