
     RDKit          3D

 19 21  0  0  0  0  0  0  0  0999 V2000
   -4.9040    0.5420   -0.1090 C   0  0  0  0  0  0  0  0  0  0  0  0
   -3.4410    0.3140   -0.2170 C   0  0  0  0  0  0  0  0  0  0  0  0
   -2.5660    1.3630   -0.3970 C   0  0  0  0  0  0  0  0  0  0  0  0
   -1.2050    1.0820   -0.4930 C   0  0  0  0  0  0  0  0  0  0  0  0
   -0.7280   -0.2070   -0.4100 C   0  0  0  0  0  0  0  0  0  0  0  0
    0.6450   -0.6100   -0.5340 C   0  0  0  0  0  0  0  0  0  0  0  0
    0.9900   -1.5770   -1.4950 C   0  0  0  0  0  0  0  0  0  0  0  0
    2.3040   -1.9500   -1.6670 C   0  0  0  0  0  0  0  0  0  0  0  0
    3.2690   -1.3580   -0.8810 C   0  0  0  0  0  0  0  0  0  0  0  0
    2.9570   -0.4160    0.0600 C   0  0  0  0  0  0  0  0  0  0  0  0
    3.9300    0.1580    0.8490 C   0  0  0  0  0  0  0  0  0  0  0  0
    3.6450    1.0990    1.8140 C   0  0  0  0  0  0  0  0  0  0  0  0
    2.3460    1.4850    2.0060 C   0  0  0  0  0  0  0  0  0  0  0  0
    2.0440    2.4140    2.9570 F   0  0  0  0  0  0  0  0  0  0  0  0
    1.3600    0.9030    1.2080 C   0  0  0  0  0  0  0  0  0  0  0  0
    1.6260   -0.0370    0.2360 C   0  0  0  0  0  0  0  0  0  0  0  0
   -1.6730   -1.2130   -0.2270 C   0  0  0  0  0  0  0  0  0  0  0  0
   -1.3190   -2.4230   -0.1410 O   0  0  0  0  0  0  0  0  0  0  0  0
   -2.9870   -0.9580   -0.1340 N   0  0  0  0  0  0  0  0  0  0  0  0
  1  2  1  0
  2  3  2  0
  2 19  1  0
  3  4  1  0
  4  5  2  0
  5  6  1  0
  5 17  1  0
  6  7  2  0
  6 16  1  0
  7  8  1  0
  8  9  2  0
  9 10  1  0
 10 11  2  0
 10 16  1  0
 11 12  1  0
 12 13  2  0
 13 14  1  0
 13 15  1  0
 15 16  2  0
 17 18  2  0
 17 19  1  0
M  END
