
     RDKit          3D

 19 21  0  0  0  0  0  0  0  0999 V2000
    0.8540    1.8860   -0.9390 C   0  0  0  0  0  0  0  0  0  0  0  0
   -0.3340    1.3560   -0.2650 C   0  0  0  0  0  0  0  0  0  0  0  0
   -1.3490    2.1620    0.0170 C   0  0  0  0  0  0  0  0  0  0  0  0
   -2.6750    1.9820    0.6610 C   0  0  0  0  0  0  0  0  0  0  0  0
   -3.5310    0.9410    0.5530 C   0  0  0  0  0  0  0  0  0  0  0  0
   -3.5370   -0.3510   -0.1750 C   0  0  0  0  0  0  0  0  0  0  0  0
   -2.5490   -1.1880   -0.5370 C   0  0  0  0  0  0  0  0  0  0  0  0
   -1.1220   -1.1480   -0.3580 C   0  0  0  0  0  0  0  0  0  0  0  0
   -0.2280   -0.1020   -0.0860 C   0  0  0  0  0  0  0  0  0  0  0  0
    1.0920   -0.3040    0.1800 C   0  0  0  0  0  0  0  0  0  0  0  0
    1.8660    0.7560    0.5160 C   0  0  0  0  0  0  0  0  0  0  0  0
    3.1970    0.5100    0.8250 C   0  0  0  0  0  0  0  0  0  0  0  0
    3.7010   -0.7880    0.7950 C   0  0  0  0  0  0  0  0  0  0  0  0
    4.9920   -1.0540    1.0900 F   0  0  0  0  0  0  0  0  0  0  0  0
    2.8650   -1.8290    0.4560 C   0  0  0  0  0  0  0  0  0  0  0  0
    1.5620   -1.6260    0.1460 C   0  0  0  0  0  0  0  0  0  0  0  0
    0.6860   -2.6080   -0.1250 N   0  0  0  0  0  0  0  0  0  0  0  0
   -0.6240   -2.4230   -0.3720 C   0  0  0  0  0  0  0  0  0  0  0  0
   -1.4360   -3.3650   -0.6200 O   0  0  0  0  0  0  0  0  0  0  0  0
  1  2  1  0
  2  3  2  0
  2  9  1  0
  3  4  1  0
  4  5  2  0
  5  6  1  0
  6  7  2  0
  7  8  1  0
  8  9  2  0
  8 18  1  0
  9 10  1  0
 10 11  2  0
 10 16  1  0
 11 12  1  0
 12 13  2  0
 13 14  1  0
 13 15  1  0
 15 16  2  0
 16 17  1  0
 17 18  1  0
 18 19  2  0
M  END
