
     RDKit          3D

 25 25  0  0  0  0  0  0  0  0999 V2000
   -2.9170   -2.3470   -0.5670 C   0  0  0  0  0  0  0  0  0  0  0  0
   -3.0360   -1.6760   -1.7440 C   0  0  0  0  0  0  0  0  0  0  0  0
   -2.9660   -2.5050   -2.9550 C   0  0  0  0  0  0  0  0  0  0  0  0
   -3.2150   -0.2390   -1.6710 C   0  0  0  0  0  0  0  0  0  0  0  0
   -3.3490    0.5830   -2.6660 C   0  0  0  0  0  0  0  0  0  0  0  0
   -3.3460    0.2110   -4.0890 C   0  0  0  0  0  0  0  0  0  0  0  0
   -3.2530    0.3840   -0.3560 N   0  0  0  0  0  0  0  0  0  0  0  0
   -2.0430    0.5830    0.3200 C   0  0  0  0  0  0  0  0  0  0  0  0
   -0.8480    0.2060   -0.2290 C   0  0  0  0  0  0  0  0  0  0  0  0
    0.3720    0.4000    0.4400 C   0  0  0  0  0  0  0  0  0  0  0  0
    1.5330   -0.0150   -0.2170 N   0  0  0  0  0  0  0  0  0  0  0  0
    2.8190   -0.0560    0.3520 C   0  0  0  0  0  0  0  0  0  0  0  0
    3.0740    0.2760    1.5260 O   0  0  0  0  0  0  0  0  0  0  0  0
    3.9930   -0.5270   -0.4860 C   0  0  1  0  0  0  0  0  0  0  0  0
    4.1470    0.4050   -1.6330 C   0  0  0  0  0  0  0  0  0  0  0  0
    5.1460   -0.7370    0.4060 C   0  0  0  0  0  0  0  0  0  0  0  0
    6.4220   -1.2170   -0.1590 C   0  0  0  0  0  0  0  0  0  0  0  0
    6.9930   -0.3300   -1.1140 N   0  0  0  0  0  0  0  0  0  0  0  0
    0.3350    0.9870    1.6760 C   0  0  0  0  0  0  0  0  0  0  0  0
   -0.8940    1.3680    2.2240 C   0  0  0  0  0  0  0  0  0  0  0  0
   -2.1020    1.1900    1.5950 C   0  0  0  0  0  0  0  0  0  0  0  0
   -3.2860    1.5260    2.0530 O   0  0  0  0  0  0  0  0  0  0  0  0
   -3.9980    2.0560    3.0550 C   0  0  0  0  0  0  0  0  0  0  0  0
   -4.0050    1.3540    4.3690 C   0  0  0  0  0  0  0  0  0  0  0  0
   -2.7080    1.2430    4.9290 N   0  0  0  0  0  0  0  0  0  0  0  0
  1  2  2  0
  2  3  1  0
  2  4  1  0
  4  5  2  3
  4  7  1  0
  5  6  1  0
  7  8  1  0
  8  9  2  0
  8 21  1  0
  9 10  1  0
 10 11  1  0
 10 19  2  0
 11 12  1  0
 12 13  2  0
 12 14  1  0
 14 15  1  6
 14 16  1  0
 16 17  1  0
 17 18  1  0
 19 20  1  0
 20 21  2  0
 21 22  1  0
 22 23  1  0
 23 24  1  0
 24 25  1  0
M  CHG  1  18   1
M  END
