
     RDKit          3D

 11 11  0  0  0  0  0  0  0  0999 V2000
    3.0100    1.3040   -0.8860 O   0  0  0  0  0  0  0  0  0  0  0  0
    3.1760    0.5660    0.2860 C   0  0  0  0  0  0  0  0  0  0  0  0
    1.9740    0.4020    0.9660 O   0  0  0  0  0  0  0  0  0  0  0  0
    1.0160   -0.2530    0.2390 C   0  0  2  0  0  0  0  0  0  0  0  0
   -0.2050    0.6580    0.0710 C   0  0  0  0  0  0  0  0  0  0  0  0
   -1.1510   -0.3810   -0.5130 C   0  0  2  0  0  0  0  0  0  0  0  0
   -2.5890    0.0350   -0.3940 C   0  0  0  0  0  0  0  0  0  0  0  0
   -2.7190    1.2460   -1.1030 O   0  0  0  0  0  0  0  0  0  0  0  0
   -0.8000   -1.5520    0.3720 C   0  0  2  0  0  0  0  0  0  0  0  0
   -1.6710   -1.5740    1.4850 O   0  0  0  0  0  0  0  0  0  0  0  0
    0.4720   -1.3500    0.8540 O   0  0  0  0  0  0  0  0  0  0  0  0
  1  2  1  0
  2  3  1  0
  4  3  1  1
  4  5  1  0
  4 11  1  0
  5  6  1  0
  6  7  1  1
  6  9  1  0
  7  8  1  0
  9 10  1  1
  9 11  1  0
M  END
