
     RDKit          3D

 11 11  0  0  0  0  0  0  0  0999 V2000
    2.4920    0.5010    0.8070 O   0  0  0  0  0  0  0  0  0  0  0  0
    2.3330   -0.5270   -0.1000 C   0  0  0  0  0  0  0  0  0  0  0  0
    0.9200   -1.0310   -0.0400 C   0  0  0  0  0  0  0  0  0  0  0  0
   -0.0360    0.0830   -0.3890 C   0  0  1  0  0  0  0  0  0  0  0  0
    0.1800    0.5890   -1.6610 O   0  0  0  0  0  0  0  0  0  0  0  0
   -1.4670   -0.4570   -0.3920 C   0  0  2  0  0  0  0  0  0  0  0  0
   -1.9330   -0.6260   -1.6720 O   0  0  0  0  0  0  0  0  0  0  0  0
   -2.2040    0.6290    0.3450 C   0  0  0  0  0  0  0  0  0  0  0  0
   -1.3750    1.7310    0.3730 O   0  0  0  0  0  0  0  0  0  0  0  0
   -0.1300    1.1570    0.6580 C   0  0  1  0  0  0  0  0  0  0  0  0
   -0.1950    0.5560    1.8930 O   0  0  0  0  0  0  0  0  0  0  0  0
  1  2  1  0
  2  3  1  0
  3  4  1  0
  4  5  1  6
  4  6  1  0
  4 10  1  0
  6  7  1  6
  6  8  1  0
  8  9  1  0
  9 10  1  0
 10 11  1  1
M  END
