
     RDKit          3D

 11 11  0  0  0  0  0  0  0  0999 V2000
    3.5650    1.0420    0.0910 O   0  0  0  0  0  0  0  0  0  0  0  0
    3.4100   -0.3160    0.3570 C   0  0  0  0  0  0  0  0  0  0  0  0
    2.0780   -0.7840   -0.2140 C   0  0  0  0  0  0  0  0  0  0  0  0
    1.0490   -0.0780    0.3710 O   0  0  0  0  0  0  0  0  0  0  0  0
   -0.1760   -0.4670   -0.1140 C   0  0  2  0  0  0  0  0  0  0  0  0
   -0.9190    0.6610   -0.7920 C   0  0  0  0  0  0  0  0  0  0  0  0
   -2.1280    0.8150    0.1060 C   0  0  1  0  0  0  0  0  0  0  0  0
   -3.2440    1.2400   -0.6010 O   0  0  0  0  0  0  0  0  0  0  0  0
   -2.2800   -0.5990    0.6200 C   0  0  2  0  0  0  0  0  0  0  0  0
   -3.0710   -0.6600    1.7590 O   0  0  0  0  0  0  0  0  0  0  0  0
   -0.9570   -0.9260    0.9170 O   0  0  0  0  0  0  0  0  0  0  0  0
  1  2  1  0
  2  3  1  0
  3  4  1  0
  5  4  1  1
  5  6  1  0
  5 11  1  0
  6  7  1  0
  7  8  1  6
  7  9  1  0
  9 10  1  1
  9 11  1  0
M  END
