
     RDKit          3D

 11 11  0  0  0  0  0  0  0  0999 V2000
   -0.5500   -2.3720   -0.0080 O   0  0  0  0  0  0  0  0  0  0  0  0
   -1.2280   -1.2020    0.2450 C   0  0  0  0  0  0  0  0  0  0  0  0
   -0.3330    0.0220    0.1850 C   0  0  2  0  0  0  0  0  0  0  0  0
   -1.1960    1.2270    0.4790 C   0  0  0  0  0  0  0  0  0  0  0  0
   -0.4760    2.4110    0.4500 O   0  0  0  0  0  0  0  0  0  0  0  0
    0.3700    0.1560   -1.1150 C   0  0  2  0  0  0  0  0  0  0  0  0
   -0.1560   -0.5780   -2.1480 O   0  0  0  0  0  0  0  0  0  0  0  0
    1.7570   -0.3380   -0.8190 C   0  0  0  0  0  0  0  0  0  0  0  0
    1.9450   -0.3450    0.5280 O   0  0  0  0  0  0  0  0  0  0  0  0
    0.7800   -0.1060    1.1800 C   0  0  1  0  0  0  0  0  0  0  0  0
    0.9220    1.0590    1.9500 O   0  0  0  0  0  0  0  0  0  0  0  0
  1  2  1  0
  3  2  1  6
  3  4  1  0
  3  6  1  0
  3 10  1  0
  4  5  1  0
  6  7  1  6
  6  8  1  0
  8  9  1  0
  9 10  1  0
 10 11  1  6
M  END
