
     RDKit          3D

 11 11  0  0  0  0  0  0  0  0999 V2000
   -2.6610    1.2360    1.5090 O   0  0  0  0  0  0  0  0  0  0  0  0
   -2.3920    1.1150    0.1640 C   0  0  0  0  0  0  0  0  0  0  0  0
   -1.7890   -0.2490   -0.1490 C   0  0  2  0  0  0  0  0  0  0  0  0
   -2.6280   -1.2780    0.1950 O   0  0  0  0  0  0  0  0  0  0  0  0
   -0.5400   -0.3270    0.4650 O   0  0  0  0  0  0  0  0  0  0  0  0
    0.4160   -0.4050   -0.5050 C   0  0  2  0  0  0  0  0  0  0  0  0
    1.2040   -1.7010   -0.3030 C   0  0  0  0  0  0  0  0  0  0  0  0
    2.4100   -1.2790    0.2610 O   0  0  0  0  0  0  0  0  0  0  0  0
    2.7380   -0.2090   -0.6010 C   0  0  0  0  0  0  0  0  0  0  0  0
    1.4800    0.6530   -0.4290 C   0  0  2  0  0  0  0  0  0  0  0  0
    1.4950    1.3250    0.7820 O   0  0  0  0  0  0  0  0  0  0  0  0
  1  2  1  0
  2  3  1  0
  3  4  1  1
  3  5  1  0
  6  5  1  1
  6  7  1  0
  6 10  1  0
  7  8  1  0
  8  9  1  0
  9 10  1  0
 10 11  1  1
M  END
