
     RDKit          3D

 11 11  0  0  0  0  0  0  0  0999 V2000
   -1.8590   -1.2810   -0.2700 C   0  0  0  0  0  0  0  0  0  0  0  0
   -0.6140   -0.4400   -0.5460 C   0  0  2  0  0  0  0  0  0  0  0  0
    0.5410   -1.1220    0.1040 C   0  0  2  0  0  0  0  0  0  0  0  0
    0.1440   -1.7770    1.2570 O   0  0  0  0  0  0  0  0  0  0  0  0
    1.7120   -0.2330    0.3810 C   0  0  1  0  0  0  0  0  0  0  0  0
    2.4360    0.0370   -0.7710 O   0  0  0  0  0  0  0  0  0  0  0  0
    1.2900    0.9600    0.9980 O   0  0  0  0  0  0  0  0  0  0  0  0
    0.5430    1.6430    0.0390 C   0  0  2  0  0  0  0  0  0  0  0  0
    0.3360    2.9680    0.3700 O   0  0  0  0  0  0  0  0  0  0  0  0
   -0.8050    0.9660   -0.0480 C   0  0  1  0  0  0  0  0  0  0  0  0
   -1.6750    1.6750   -0.8630 O   0  0  0  0  0  0  0  0  0  0  0  0
  2  1  1  1
  2  3  1  0
  2 10  1  0
  3  4  1  1
  3  5  1  0
  5  6  1  6
  5  7  1  0
  7  8  1  0
  8  9  1  1
  8 10  1  0
 10 11  1  6
M  END
