
     RDKit          3D

 11 11  0  0  0  0  0  0  0  0999 V2000
    3.3830    1.1830    0.5180 O   0  0  0  0  0  0  0  0  0  0  0  0
    2.8050   -0.0680    0.3350 C   0  0  0  0  0  0  0  0  0  0  0  0
    1.4160    0.0840   -0.2670 C   0  0  2  0  0  0  0  0  0  0  0  0
    0.5880    0.8170    0.5400 O   0  0  0  0  0  0  0  0  0  0  0  0
   -0.4790    0.1380    1.0720 C   0  0  0  0  0  0  0  0  0  0  0  0
   -1.2530   -0.6850    0.0950 C   0  0  1  0  0  0  0  0  0  0  0  0
   -2.6190   -0.1430   -0.2150 C   0  0  0  0  0  0  0  0  0  0  0  0
   -2.5990    1.1190   -0.7580 O   0  0  0  0  0  0  0  0  0  0  0  0
   -0.4020   -0.9000   -1.1280 C   0  0  1  0  0  0  0  0  0  0  0  0
   -0.3290    0.1800   -1.9680 O   0  0  0  0  0  0  0  0  0  0  0  0
    0.9040   -1.1540   -0.6470 O   0  0  0  0  0  0  0  0  0  0  0  0
  1  2  1  0
  3  2  1  1
  3  4  1  0
  3 11  1  0
  4  5  1  0
  5  6  1  0
  6  7  1  6
  6  9  1  0
  7  8  1  0
  9 10  1  6
  9 11  1  0
M  END
