
     RDKit          3D

 22 24  0  0  0  0  0  0  0  0999 V2000
    6.5540   -1.3310    1.3100 O   0  0  0  0  0  0  0  0  0  0  0  0
    6.3960   -0.4780    0.0980 S   0  0  1  0  0  0  0  0  0  0  0  0
    6.7530   -1.2490   -1.1380 O   0  0  0  0  0  0  0  0  0  0  0  0
    4.7370    0.0920   -0.0690 C   0  0  0  0  0  0  0  0  0  0  0  0
    3.9700   -0.2730   -1.1540 C   0  0  0  0  0  0  0  0  0  0  0  0
    2.6530    0.1840   -1.2800 C   0  0  0  0  0  0  0  0  0  0  0  0
    2.0820    1.0000   -0.3440 C   0  0  0  0  0  0  0  0  0  0  0  0
    0.7390    1.4480   -0.4860 N   0  0  0  0  0  0  0  0  0  0  0  0
   -0.1340    0.9870   -1.4980 C   0  0  0  0  0  0  0  0  0  0  0  0
   -0.6410   -0.4070   -1.2300 C   0  0  0  0  0  0  0  0  0  0  0  0
   -1.4440   -0.4650   -0.0510 N   0  0  0  0  0  0  0  0  0  0  0  0
   -0.8850   -0.2970    1.2670 C   0  0  0  0  0  0  0  0  0  0  0  0
   -1.6200    0.8200    2.0190 C   0  0  0  0  0  0  0  0  0  0  0  0
   -3.0050    0.3740    2.1430 N   0  0  0  0  0  0  0  0  0  0  0  0
   -3.6200   -0.2570    1.0030 C   0  0  0  0  0  0  0  0  0  0  0  0
   -4.9780   -0.4650    0.9540 C   0  0  0  0  0  0  0  0  0  0  0  0
   -5.5790   -1.0740   -0.1440 C   0  0  0  0  0  0  0  0  0  0  0  0
   -4.7960   -1.4740   -1.2010 C   0  0  0  0  0  0  0  0  0  0  0  0
   -3.4300   -1.2770   -1.1780 C   0  0  0  0  0  0  0  0  0  0  0  0
   -2.8650   -0.6760   -0.0850 C   0  0  0  0  0  0  0  0  0  0  0  0
    2.8470    1.3650    0.7400 C   0  0  0  0  0  0  0  0  0  0  0  0
    4.1560    0.9150    0.8730 C   0  0  0  0  0  0  0  0  0  0  0  0
  1  2  2  0
  2  3  2  0
  2  4  1  6
  4  5  2  0
  4 22  1  0
  5  6  1  0
  6  7  2  0
  7  8  1  0
  7 21  1  0
  8  9  1  0
  9 10  1  0
 10 11  1  0
 11 12  1  0
 11 20  1  0
 12 13  1  0
 13 14  1  0
 14 15  1  0
 15 16  2  0
 15 20  1  0
 16 17  1  0
 17 18  2  0
 18 19  1  0
 19 20  2  0
 21 22  2  0
M  END
