
     RDKit          3D

 22 24  0  0  0  0  0  0  0  0999 V2000
   -0.6490   -1.5760    0.5280 O   0  0  0  0  0  0  0  0  0  0  0  0
   -1.5670   -0.6910    0.2720 C   0  0  0  0  0  0  0  0  0  0  0  0
   -2.8990   -1.1610    0.4900 C   0  0  0  0  0  0  0  0  0  0  0  0
   -4.0630   -0.6090    0.3550 C   0  0  0  0  0  0  0  0  0  0  0  0
   -5.3780   -1.3190    0.6530 C   0  0  0  0  0  0  0  0  0  0  0  0
   -6.4240   -0.5300   -0.0510 C   0  0  0  0  0  0  0  0  0  0  0  0
   -5.9040    0.8870   -0.1270 C   0  0  0  0  0  0  0  0  0  0  0  0
   -4.3830    0.7550   -0.0930 C   0  0  0  0  0  0  0  0  0  0  0  0
   -1.1470    0.5650   -0.1670 N   0  0  0  0  0  0  0  0  0  0  0  0
    0.1910    0.9770   -0.3660 C   0  0  0  0  0  0  0  0  0  0  0  0
    1.2880    0.2130   -0.1590 C   0  0  0  0  0  0  0  0  0  0  0  0
    2.5610    0.7110   -0.3830 C   0  0  0  0  0  0  0  0  0  0  0  0
    3.7790   -0.1480   -0.1500 C   0  0  0  0  0  0  0  0  0  0  0  0
    4.9290   -0.1260   -0.2090 N   0  0  0  0  0  0  0  0  0  0  0  0
    5.8370   -1.0290    0.0520 C   0  0  0  0  0  0  0  0  0  0  0  0
    7.3600   -0.8410   -0.0770 C   0  0  0  0  0  0  0  0  0  0  0  0
    7.8800   -0.3040    1.0800 O   0  0  0  0  0  0  0  0  0  0  0  0
    5.2810   -2.2250    0.4780 C   0  0  0  0  0  0  0  0  0  0  0  0
    3.4990   -1.9150    0.4550 S   0  0  0  0  0  0  0  0  0  0  0  0
    2.7380    1.9890   -0.8190 C   0  0  0  0  0  0  0  0  0  0  0  0
    1.6190    2.7690   -1.0300 C   0  0  0  0  0  0  0  0  0  0  0  0
    0.4040    2.2690   -0.8080 N   0  0  0  0  0  0  0  0  0  0  0  0
  1  2  2  0
  2  3  1  0
  2  9  1  0
  3  4  2  3
  4  5  1  0
  4  8  1  0
  5  6  1  0
  6  7  1  0
  7  8  1  0
  9 10  1  0
 10 11  2  0
 10 22  1  0
 11 12  1  0
 12 13  1  0
 12 20  2  0
 13 14  2  0
 13 19  1  0
 14 15  1  0
 15 16  1  0
 15 18  2  0
 16 17  1  0
 18 19  1  0
 20 21  1  0
 21 22  2  0
M  END
