
     RDKit          3D

 22 24  0  0  0  0  0  0  0  0999 V2000
    2.0100   -1.6840    1.6350 O   0  0  0  0  0  0  0  0  0  0  0  0
    2.5930   -0.8260    0.9390 C   0  0  0  0  0  0  0  0  0  0  0  0
    4.0380   -0.7960    0.9650 C   0  0  0  0  0  0  0  0  0  0  0  0
    4.7890    0.0510    0.2840 C   0  0  0  0  0  0  0  0  0  0  0  0
    6.2380    0.0460    0.3390 C   0  0  0  0  0  0  0  0  0  0  0  0
    7.0310    0.8690   -0.3200 C   0  0  0  0  0  0  0  0  0  0  0  0
    8.4610    0.5470   -0.0010 C   0  0  0  0  0  0  0  0  0  0  0  0
    8.3320   -0.5530    0.9130 N   0  0  0  0  0  0  0  0  0  0  0  0
    7.0900   -0.8470    1.1140 C   0  0  0  0  0  0  0  0  0  0  0  0
    1.7930    0.0490    0.1810 N   0  0  0  0  0  0  0  0  0  0  0  0
    0.3820    0.0660    0.1180 C   0  0  0  0  0  0  0  0  0  0  0  0
   -0.5690   -0.7310    0.7500 C   0  0  0  0  0  0  0  0  0  0  0  0
   -1.8580   -0.4920    0.5050 C   0  0  0  0  0  0  0  0  0  0  0  0
   -2.1980    0.5180   -0.3500 C   0  0  0  0  0  0  0  0  0  0  0  0
   -3.4910    1.0190   -0.8160 C   0  0  0  0  0  0  0  0  0  0  0  0
   -3.4060    2.0100   -1.6330 O   0  0  0  0  0  0  0  0  0  0  0  0
   -4.7640    0.5680   -0.4940 N   0  0  0  0  0  0  0  0  0  0  0  0
   -5.1330   -0.5130    0.3820 C   0  0  0  0  0  0  0  0  0  0  0  0
   -6.6490   -0.6450    0.3120 C   0  0  0  0  0  0  0  0  0  0  0  0
   -7.0350    0.0870   -0.9560 C   0  0  0  0  0  0  0  0  0  0  0  0
   -5.9930    1.1680   -1.0340 C   0  0  0  0  0  0  0  0  0  0  0  0
   -0.6230    1.1520   -0.8240 S   0  0  0  0  0  0  0  0  0  0  0  0
  1  2  2  0
  2  3  1  0
  2 10  1  0
  3  4  2  3
  4  5  1  0
  5  6  2  0
  5  9  1  0
  6  7  1  0
  7  8  1  0
  8  9  2  0
 10 11  1  0
 11 12  2  0
 11 22  1  0
 12 13  1  0
 13 14  2  0
 14 15  1  0
 14 22  1  0
 15 16  2  0
 15 17  1  0
 17 18  1  0
 17 21  1  0
 18 19  1  0
 19 20  1  0
 20 21  1  0
M  END
