
     RDKit          3D

 22 24  0  0  0  0  0  0  0  0999 V2000
   -4.5630    1.7160    0.1180 C   0  0  0  0  0  0  0  0  0  0  0  0
   -4.7260    0.1910    0.1410 C   0  0  1  0  0  0  0  0  0  0  0  0
   -5.0500   -0.1780    1.5430 C   0  0  0  0  0  0  0  0  0  0  0  0
   -5.7530   -0.2150   -0.8570 C   0  0  0  0  0  0  0  0  0  0  0  0
   -3.3620   -0.3630   -0.1670 C   0  0  0  0  0  0  0  0  0  0  0  0
   -3.0940   -1.6600   -0.5310 C   0  0  0  0  0  0  0  0  0  0  0  0
   -1.7560   -1.7390   -0.7060 N   0  0  0  0  0  0  0  0  0  0  0  0
   -1.2260   -0.5510   -0.4670 C   0  0  0  0  0  0  0  0  0  0  0  0
    0.1830   -0.0570   -0.4970 C   0  0  0  0  0  0  0  0  0  0  0  0
    1.1110   -1.1350   -0.4080 N   0  0  0  0  0  0  0  0  0  0  0  0
    2.4480   -0.9480   -0.0290 C   0  0  0  0  0  0  0  0  0  0  0  0
    3.0330   -1.7350    0.8760 C   0  0  0  0  0  0  0  0  0  0  0  0
    4.3920   -1.2400    1.0120 C   0  0  0  0  0  0  0  0  0  0  0  0
    5.2990   -1.6710    1.7480 O   0  0  0  0  0  0  0  0  0  0  0  0
    4.4980   -0.1060    0.0990 C   0  0  0  0  0  0  0  0  0  0  0  0
    5.6870    0.7890   -0.1080 C   0  0  0  0  0  0  0  0  0  0  0  0
    6.8900    0.5810    0.4630 C   0  0  0  0  0  0  0  0  0  0  0  0
    7.9040    1.4220    0.2980 C   0  0  0  0  0  0  0  0  0  0  0  0
    7.1740    2.7300   -0.8030 S   0  0  0  0  0  0  0  0  0  0  0  0
    5.5340    1.9200   -0.8830 C   0  0  0  0  0  0  0  0  0  0  0  0
    3.3580    0.0140   -0.4650 N   0  0  0  0  0  0  0  0  0  0  0  0
   -2.2230    0.2550   -0.1460 O   0  0  0  0  0  0  0  0  0  0  0  0
  2  1  1  1
  2  3  1  0
  2  4  1  0
  2  5  1  0
  5  6  2  0
  5 22  1  0
  6  7  1  0
  7  8  2  0
  8  9  1  0
  8 22  1  0
  9 10  1  0
 10 11  1  0
 11 12  2  0
 11 21  1  0
 12 13  1  0
 13 14  2  0
 13 15  1  0
 15 16  1  0
 15 21  2  0
 16 17  1  0
 16 20  2  0
 17 18  2  0
 18 19  1  0
 19 20  1  0
M  END
