
     RDKit          3D

 22 24  0  0  0  0  0  0  0  0999 V2000
    6.8480   -1.3910   -0.0820 C   0  0  0  0  0  0  0  0  0  0  0  0
    6.2170   -0.2800    0.7300 C   0  0  0  0  0  0  0  0  0  0  0  0
    4.9510    0.1560    0.1050 C   0  0  0  0  0  0  0  0  0  0  0  0
    3.7530   -0.4340    0.4400 C   0  0  0  0  0  0  0  0  0  0  0  0
    2.6210   -0.0030   -0.1560 N   0  0  0  0  0  0  0  0  0  0  0  0
    2.6050    0.9850   -1.0710 C   0  0  0  0  0  0  0  0  0  0  0  0
    1.3840    1.4260   -1.6910 N   0  0  0  0  0  0  0  0  0  0  0  0
    0.1350    0.8300   -1.3590 C   0  0  0  0  0  0  0  0  0  0  0  0
    0.1790   -0.0880   -0.5040 O   0  0  0  0  0  0  0  0  0  0  0  0
   -1.1450    1.2340   -1.9570 C   0  0  0  0  0  0  0  0  0  0  0  0
   -2.2390    0.4190   -1.3540 C   0  0  0  0  0  0  0  0  0  0  0  0
   -3.0240   -1.0220   -2.1360 S   0  0  0  0  0  0  0  0  0  0  0  0
   -4.1230   -1.3710   -0.8300 C   0  0  0  0  0  0  0  0  0  0  0  0
   -3.8590   -0.4280    0.0920 C   0  0  0  0  0  0  0  0  0  0  0  0
   -2.9010    0.4920   -0.1610 C   0  0  0  0  0  0  0  0  0  0  0  0
   -2.5050    1.6280    0.7870 C   0  0  0  0  0  0  0  0  0  0  0  0
   -3.2390    1.5910    1.9360 O   0  0  0  0  0  0  0  0  0  0  0  0
   -4.8100   -0.7370    1.2460 C   0  0  0  0  0  0  0  0  0  0  0  0
   -5.9880   -1.3180    0.5040 C   0  0  0  0  0  0  0  0  0  0  0  0
   -5.2250   -2.3130   -0.3900 C   0  0  0  0  0  0  0  0  0  0  0  0
    3.7840    1.5480   -1.3840 N   0  0  0  0  0  0  0  0  0  0  0  0
    4.9600    1.1710   -0.8300 C   0  0  0  0  0  0  0  0  0  0  0  0
  1  2  1  0
  2  3  1  0
  3  4  2  0
  3 22  1  0
  4  5  1  0
  5  6  2  0
  6  7  1  0
  6 21  1  0
  7  8  1  0
  8  9  2  0
  8 10  1  0
 10 11  1  0
 11 12  1  0
 11 15  2  0
 12 13  1  0
 13 14  2  0
 13 20  1  0
 14 15  1  0
 14 18  1  0
 15 16  1  0
 16 17  1  0
 18 19  1  0
 19 20  1  0
 21 22  2  0
M  END
