
     RDKit          3D

 27 30  0  0  0  0  0  0  0  0999 V2000
    6.0490    1.4560   -1.5610 C   0  0  0  0  0  0  0  0  0  0  0  0
    6.8960    1.9520   -0.6360 O   0  0  0  0  0  0  0  0  0  0  0  0
    6.6140    1.7330    0.6710 C   0  0  0  0  0  0  0  0  0  0  0  0
    6.5200    0.3110    1.0910 C   0  0  0  0  0  0  0  0  0  0  0  0
    5.5470   -0.4230    0.4740 O   0  0  0  0  0  0  0  0  0  0  0  0
    4.1950   -0.3320    0.4970 C   0  0  0  0  0  0  0  0  0  0  0  0
    3.4310    0.5620    1.2110 C   0  0  0  0  0  0  0  0  0  0  0  0
    2.0550    0.5680    1.1570 C   0  0  0  0  0  0  0  0  0  0  0  0
    1.3810   -0.3390    0.3710 C   0  0  0  0  0  0  0  0  0  0  0  0
    0.0280   -0.3510    0.3020 N   0  0  0  0  0  0  0  0  0  0  0  0
   -0.6380   -1.2290   -0.4600 C   0  0  0  0  0  0  0  0  0  0  0  0
   -2.0720   -1.2640   -0.5500 C   0  0  0  0  0  0  0  0  0  0  0  0
   -2.9850   -0.4590    0.0820 C   0  0  0  0  0  0  0  0  0  0  0  0
   -4.2130   -0.8540   -0.3000 N   0  0  0  0  0  0  0  0  0  0  0  0
   -5.4750   -0.3050    0.1050 C   0  0  0  0  0  0  0  0  0  0  0  0
   -5.5610    0.8290    0.8790 C   0  0  0  0  0  0  0  0  0  0  0  0
   -6.7760    1.3580    1.2690 C   0  0  0  0  0  0  0  0  0  0  0  0
   -7.9610    0.7610    0.8910 C   0  0  0  0  0  0  0  0  0  0  0  0
   -9.1950    1.2750    1.2710 O   0  0  0  0  0  0  0  0  0  0  0  0
   -7.8800   -0.3760    0.1140 C   0  0  0  0  0  0  0  0  0  0  0  0
   -6.6510   -0.9100   -0.2800 C   0  0  0  0  0  0  0  0  0  0  0  0
   -4.0670   -1.8660   -1.1380 N   0  0  0  0  0  0  0  0  0  0  0  0
   -2.7960   -2.1170   -1.2940 N   0  0  0  0  0  0  0  0  0  0  0  0
    0.1400   -2.1250   -1.1740 C   0  0  0  0  0  0  0  0  0  0  0  0
    1.4920   -2.1540   -1.1400 C   0  0  0  0  0  0  0  0  0  0  0  0
    2.1570   -1.2280   -0.3380 C   0  0  0  0  0  0  0  0  0  0  0  0
    3.5130   -1.2510   -0.3000 C   0  0  0  0  0  0  0  0  0  0  0  0
  1  2  1  0
  2  3  1  0
  3  4  1  0
  4  5  1  0
  5  6  1  0
  6  7  2  0
  6 27  1  0
  7  8  1  0
  8  9  2  0
  9 10  1  0
  9 26  1  0
 10 11  2  0
 11 12  1  0
 11 24  1  0
 12 13  2  0
 12 23  1  0
 13 14  1  0
 14 15  1  0
 14 22  1  0
 15 16  2  0
 15 21  1  0
 16 17  1  0
 17 18  2  0
 18 19  1  0
 18 20  1  0
 20 21  2  0
 22 23  2  0
 24 25  2  0
 25 26  1  0
 26 27  2  0
M  END
