
     RDKit          3D

 22 24  0  0  0  0  0  0  0  0999 V2000
   -1.6990    1.1820   -2.0310 O   0  0  0  0  0  0  0  0  0  0  0  0
   -1.6430    0.3630   -1.0510 C   0  0  0  0  0  0  0  0  0  0  0  0
   -0.3130    0.0630   -0.5020 C   0  0  0  0  0  0  0  0  0  0  0  0
    0.6960    0.7790   -1.2040 N   0  0  0  0  0  0  0  0  0  0  0  0
    2.0880    0.6960   -0.9020 C   0  0  0  0  0  0  0  0  0  0  0  0
    3.0350    1.4060   -1.6070 C   0  0  0  0  0  0  0  0  0  0  0  0
    4.3540    1.2570   -1.2380 C   0  0  0  0  0  0  0  0  0  0  0  0
    4.7320    0.4330   -0.2050 C   0  0  0  0  0  0  0  0  0  0  0  0
    6.0260    0.2900    0.1530 N   0  0  0  0  0  0  0  0  0  0  0  0
    6.4010   -0.5160    1.1630 C   0  0  0  0  0  0  0  0  0  0  0  0
    7.6230   -0.6040    1.4460 O   0  0  0  0  0  0  0  0  0  0  0  0
    5.4780   -1.2500    1.9000 C   0  0  0  0  0  0  0  0  0  0  0  0
    4.1510   -1.1160    1.5480 C   0  0  0  0  0  0  0  0  0  0  0  0
    3.7890   -0.2880    0.5130 C   0  0  0  0  0  0  0  0  0  0  0  0
    2.4620   -0.1310    0.1330 C   0  0  0  0  0  0  0  0  0  0  0  0
   -2.8440   -0.1920   -0.5670 N   0  0  0  0  0  0  0  0  0  0  0  0
   -4.0430    0.2200   -1.2310 C   0  0  0  0  0  0  0  0  0  0  0  0
   -4.7410    1.2120   -0.3490 C   0  0  0  0  0  0  0  0  0  0  0  0
   -5.8030    0.6000    0.5180 C   0  0  0  0  0  0  0  0  0  0  0  0
   -5.2670   -0.7390    1.5390 S   0  0  0  0  0  0  0  0  0  0  0  0
   -4.0210   -1.8070    0.8120 C   0  0  0  0  0  0  0  0  0  0  0  0
   -2.7260   -1.1030    0.5310 C   0  0  0  0  0  0  0  0  0  0  0  0
  1  2  2  0
  2  3  1  0
  2 16  1  0
  3  4  1  0
  4  5  1  0
  5  6  2  0
  5 15  1  0
  6  7  1  0
  7  8  2  0
  8  9  1  0
  8 14  1  0
  9 10  1  0
 10 11  2  0
 10 12  1  0
 12 13  2  0
 13 14  1  0
 14 15  2  0
 16 17  1  0
 16 22  1  0
 17 18  1  0
 18 19  1  0
 19 20  1  0
 20 21  1  0
 21 22  1  0
M  END
