
     RDKit          3D

 20 20  0  0  0  0  0  0  0  0999 V2000
    1.2290    4.2940   -0.6090 N   0  0  0  0  0  0  0  0  0  0  0  0
    0.3260    3.2440   -0.9330 C   0  0  0  0  0  0  0  0  0  0  0  0
   -0.4600    3.4390   -1.8960 O   0  0  0  0  0  0  0  0  0  0  0  0
    0.2700    2.0500   -0.2620 O   0  0  0  0  0  0  0  0  0  0  0  0
   -0.6180    1.0150   -0.5790 C   0  0  1  0  0  0  0  0  0  0  0  0
    0.0480   -0.2520   -1.0310 C   0  0  1  0  0  0  0  0  0  0  0  0
    0.8240   -0.9640    0.0290 C   0  0  0  0  0  0  0  0  0  0  0  0
    1.9350   -0.1510    0.6090 C   0  0  0  0  0  0  0  0  0  0  0  0
    2.9010    0.2360   -0.4140 N   0  0  0  0  0  0  0  0  0  0  0  0
    4.2530   -0.1280   -0.0450 C   0  0  0  0  0  0  0  0  0  0  0  0
    4.4320   -0.1980    1.3330 O   0  0  0  0  0  0  0  0  0  0  0  0
   -1.0270   -1.1280   -1.6430 C   0  0  0  0  0  0  0  0  0  0  0  0
   -2.2370   -1.0880   -0.7320 C   0  0  1  0  0  0  0  0  0  0  0  0
   -2.6880   -2.5430   -0.5500 C   0  0  0  0  0  0  0  0  0  0  0  0
   -3.8600   -2.6420    0.2700 N   0  0  0  0  0  0  0  0  0  0  0  0
   -1.9660   -0.5950    0.5190 O   0  0  0  0  0  0  0  0  0  0  0  0
   -1.6290    0.7460    0.5290 C   0  0  1  0  0  0  0  0  0  0  0  0
   -1.1530    1.1620    1.8530 C   0  0  0  0  0  0  0  0  0  0  0  0
   -1.0630    0.2740    2.9610 N   0  0  0  0  0  0  0  0  0  0  0  0
   -0.8000    2.3540    2.0530 O   0  0  0  0  0  0  0  0  0  0  0  0
  1  2  1  0
  2  3  2  0
  2  4  1  0
  5  4  1  1
  5  6  1  0
  5 17  1  0
  6  7  1  1
  6 12  1  0
  7  8  1  0
  8  9  1  0
  9 10  1  0
 10 11  1  0
 12 13  1  0
 13 14  1  1
 13 16  1  0
 14 15  1  0
 16 17  1  0
 17 18  1  1
 18 19  1  0
 18 20  2  0
M  CHG  2   9   1  15   1
M  END
