
     RDKit          3D

 30 31  0  0  0  0  0  0  0  0999 V2000
    4.0290   -3.2640    0.1170 O   0  0  0  0  0  0  0  0  0  0  0  0
    3.1700   -2.3370    1.0150 P   0  0  0  0  0  0  0  0  0  0  0  0
    2.1330   -1.1220    0.4910 O   0  0  0  0  0  0  0  0  0  0  0  0
    2.6350    0.0850    0.0890 C   0  0  1  0  0  0  0  0  0  0  0  0
    3.3740    0.8320    1.0840 N   0  0  0  0  0  0  0  0  0  0  0  0
    4.6810    0.5000    1.4800 C   0  0  0  0  0  0  0  0  0  0  0  0
    5.2660   -0.4700    0.9610 O   0  0  0  0  0  0  0  0  0  0  0  0
    5.3970    1.2400    2.4760 N   0  0  0  0  0  0  0  0  0  0  0  0
    7.0630    0.7380    2.9240 P   0  0  0  0  0  0  0  0  0  0  0  0
    7.5380    1.5030    4.3890 O   0  0  0  0  0  0  0  0  0  0  0  0
    7.2050   -0.9740    3.0220 O   0  0  0  0  0  0  0  0  0  0  0  0
    3.4360   -0.0300   -1.1890 C   0  0  0  0  0  0  0  0  0  0  0  0
    2.6450   -0.4100   -2.2630 O   0  0  0  0  0  0  0  0  0  0  0  0
    1.6420    0.5070   -2.5220 C   0  0  0  0  0  0  0  0  0  0  0  0
    0.8530    0.8170   -1.2960 C   0  0  1  0  0  0  0  0  0  0  0  0
   -0.4490    0.0480   -1.2710 C   0  0  0  0  0  0  0  0  0  0  0  0
   -1.5640    0.6100   -1.1200 N   0  0  0  0  0  0  0  0  0  0  0  0
   -2.8400   -0.0140   -1.0840 C   0  0  1  0  0  0  0  0  0  0  0  0
   -3.7120    0.5330   -1.9730 O   0  0  0  0  0  0  0  0  0  0  0  0
   -4.8010    1.2080   -1.6340 C   0  0  0  0  0  0  0  0  0  0  0  0
   -5.8580    0.4770   -0.8610 C   0  0  0  0  0  0  0  0  0  0  0  0
   -5.3930    0.0150    0.3410 O   0  0  0  0  0  0  0  0  0  0  0  0
   -6.6750   -0.8160    1.1810 P   0  0  0  0  0  0  0  0  0  0  0  0
   -6.3490   -0.8200    2.8970 O   0  0  0  0  0  0  0  0  0  0  0  0
   -8.1360    0.0930    0.9300 O   0  0  0  0  0  0  0  0  0  0  0  0
   -2.7800   -1.4840   -1.1660 C   0  0  0  0  0  0  0  0  0  0  0  0
   -3.8420   -2.1920   -1.0790 O   0  0  0  0  0  0  0  0  0  0  0  0
   -1.5480   -2.1440   -1.3430 N   0  0  0  0  0  0  0  0  0  0  0  0
   -0.3800   -1.3820   -1.3950 N   0  0  0  0  0  0  0  0  0  0  0  0
    1.4930    0.8910   -0.1220 O   0  0  0  0  0  0  0  0  0  0  0  0
  1  2  2  0
  2  3  1  0
  3  4  1  0
  4  5  1  1
  4 12  1  0
  4 30  1  0
  5  6  1  0
  6  7  2  0
  6  8  1  0
  8  9  1  0
  9 10  1  0
  9 11  1  0
 12 13  1  0
 13 14  1  0
 14 15  1  0
 15 16  1  1
 15 30  1  0
 16 17  2  0
 16 29  1  0
 17 18  1  0
 18 19  1  6
 18 26  1  0
 19 20  1  0
 20 21  1  0
 21 22  1  0
 22 23  1  0
 23 24  1  0
 23 25  1  0
 26 27  2  0
 26 28  1  0
 28 29  1  0
M  END
