
     RDKit          3D

 31 33  0  0  0  0  0  0  0  0999 V2000
    1.3430   -0.3170   -0.9060 O   0  0  0  0  0  0  0  0  0  0  0  0
    1.2380   -0.0440    0.3020 C   0  0  0  0  0  0  0  0  0  0  0  0
   -0.0900    0.0740    0.9140 C   0  0  0  0  0  0  0  0  0  0  0  0
   -1.1360   -0.1690   -0.0860 N   0  0  0  0  0  0  0  0  0  0  0  0
   -1.3190    0.8120   -1.1620 C   0  0  0  0  0  0  0  0  0  0  0  0
   -2.7300    0.7050   -1.6290 C   0  0  1  0  0  0  0  0  0  0  0  0
   -3.1090    1.7740   -3.0830 P   0  0  0  0  0  0  0  0  0  0  0  0
   -3.6190    3.3650   -2.6260 O   0  0  0  0  0  0  0  0  0  0  0  0
   -1.8150    1.8140   -4.2310 O   0  0  0  0  0  0  0  0  0  0  0  0
   -2.9690   -0.6740   -2.0250 N   0  0  0  0  0  0  0  0  0  0  0  0
   -3.2170   -1.4000   -0.7790 C   0  0  1  0  0  0  0  0  0  0  0  0
   -4.6250   -0.5920    0.0610 P   0  0  0  0  0  0  0  0  0  0  0  0
   -6.0490   -0.8480   -0.8630 O   0  0  0  0  0  0  0  0  0  0  0  0
   -4.8390   -1.1270    2.1560 P   0  0  0  0  0  0  0  0  0  0  0  0
   -6.3540   -1.9850    2.3770 O   0  0  0  0  0  0  0  0  0  0  0  0
   -5.0030    0.3560    3.0780 O   0  0  0  0  0  0  0  0  0  0  0  0
   -3.3670   -2.7560   -0.9550 O   0  0  0  0  0  0  0  0  0  0  0  0
   -2.9950   -3.2140    0.2760 O   0  0  0  0  0  0  0  0  0  0  0  0
   -1.8650   -2.4580    0.6110 N   0  0  0  0  0  0  0  0  0  0  0  0
   -1.9390   -1.3330   -0.0050 C   0  0  0  0  0  0  0  0  0  0  0  0
    2.4160    0.1500    1.0720 N   0  0  0  0  0  0  0  0  0  0  0  0
    3.7030    0.0320    0.4810 C   0  0  0  0  0  0  0  0  0  0  0  0
    4.8640    0.1900    1.0910 N   0  0  0  0  0  0  0  0  0  0  0  0
    5.8590    0.0020    0.2140 C   0  0  0  0  0  0  0  0  0  0  0  0
    7.3150    0.0670    0.4190 C   0  0  0  0  0  0  0  0  0  0  0  0
    7.7690    0.3280    1.5480 O   0  0  0  0  0  0  0  0  0  0  0  0
    8.1980   -0.1540   -0.6120 O   0  0  0  0  0  0  0  0  0  0  0  0
    9.5090   -0.1040   -0.4700 O   0  0  0  0  0  0  0  0  0  0  0  0
    9.8340   -0.0540    0.8000 O   0  0  0  0  0  0  0  0  0  0  0  0
    5.2470   -0.2860   -0.9910 C   0  0  0  0  0  0  0  0  0  0  0  0
    3.9580   -0.2570   -0.7880 O   0  0  0  0  0  0  0  0  0  0  0  0
  1  2  2  0
  2  3  1  0
  2 21  1  0
  3  4  1  0
  4  5  1  0
  4 20  1  0
  5  6  1  0
  6  7  1  6
  6 10  1  0
  7  8  1  0
  7  9  1  0
 10 11  1  0
 11 12  1  1
 11 17  1  0
 11 20  1  0
 12 13  1  0
 12 14  1  0
 14 15  1  0
 14 16  1  0
 17 18  1  0
 18 19  1  0
 19 20  2  0
 21 22  1  0
 22 23  2  0
 22 31  1  0
 23 24  1  0
 24 25  1  0
 24 30  2  0
 25 26  2  0
 25 27  1  0
 27 28  1  0
 28 29  1  0
 30 31  1  0
M  END
