
     RDKit          3D

 30 31  0  0  0  0  0  0  0  0999 V2000
    5.5010    0.6940    0.2300 N   0  0  0  0  0  0  0  0  0  0  0  0
    5.6470   -0.3200    1.0390 C   0  0  0  0  0  0  0  0  0  0  0  0
    4.4970   -1.1160    1.3460 N   0  0  0  0  0  0  0  0  0  0  0  0
    3.2270   -0.6480    1.1130 O   0  0  0  0  0  0  0  0  0  0  0  0
    2.6660   -0.8020   -0.1430 C   0  0  0  0  0  0  0  0  0  0  0  0
    3.3620   -1.3720   -1.0170 O   0  0  0  0  0  0  0  0  0  0  0  0
    1.2920   -0.2910   -0.3780 C   0  0  1  0  0  0  0  0  0  0  0  0
    0.9190   -0.5760   -1.7970 C   0  0  0  0  0  0  0  0  0  0  0  0
   -0.3720   -1.0740   -1.9440 O   0  0  0  0  0  0  0  0  0  0  0  0
   -0.5730   -2.2460   -1.2260 C   0  0  0  0  0  0  0  0  0  0  0  0
    0.1570   -2.3120   -0.0670 O   0  0  0  0  0  0  0  0  0  0  0  0
    0.3670   -1.0710    0.5280 C   0  0  2  0  0  0  0  0  0  0  0  0
   -0.8750   -0.3610    0.8300 C   0  0  0  0  0  0  0  0  0  0  0  0
   -1.1380    0.2760    1.9850 N   0  0  0  0  0  0  0  0  0  0  0  0
   -2.3260    0.7990    1.9250 O   0  0  0  0  0  0  0  0  0  0  0  0
   -2.8910    0.5430    0.7640 C   0  0  0  0  0  0  0  0  0  0  0  0
   -4.2530    0.9730    0.3140 C   0  0  1  0  0  0  0  0  0  0  0  0
   -4.1550    1.9320   -0.8680 C   0  0  0  0  0  0  0  0  0  0  0  0
   -3.4120    3.0390   -0.4040 O   0  0  0  0  0  0  0  0  0  0  0  0
   -3.2870    3.9180   -1.3860 O   0  0  0  0  0  0  0  0  0  0  0  0
   -5.3410   -0.4690   -0.0510 P   0  0  0  0  0  0  0  0  0  0  0  0
   -5.2480   -0.9790   -1.6920 O   0  0  0  0  0  0  0  0  0  0  0  0
   -7.4630    0.0280    0.3800 P   0  0  0  0  0  0  0  0  0  0  0  0
   -7.6200    0.6350    2.0000 O   0  0  0  0  0  0  0  0  0  0  0  0
   -8.4290   -1.3840    0.1370 O   0  0  0  0  0  0  0  0  0  0  0  0
   -1.9880   -0.1800    0.0800 N   0  0  0  0  0  0  0  0  0  0  0  0
    6.9310   -0.5770    1.5680 N   0  0  0  0  0  0  0  0  0  0  0  0
    8.3510    0.4790    1.1840 P   0  0  0  0  0  0  0  0  0  0  0  0
    9.1710   -0.1570   -0.2020 O   0  0  0  0  0  0  0  0  0  0  0  0
    7.7180    2.0500    0.7290 O   0  0  0  0  0  0  0  0  0  0  0  0
  1  2  2  0
  2  3  1  0
  2 27  1  0
  3  4  1  0
  4  5  1  0
  5  6  2  0
  7  5  1  6
  7  8  1  0
  7 12  1  0
  8  9  1  0
  9 10  1  0
 10 11  1  0
 11 12  1  0
 12 13  1  6
 13 14  2  0
 13 26  1  0
 14 15  1  0
 15 16  1  0
 16 17  1  0
 16 26  2  0
 17 18  1  6
 17 21  1  0
 18 19  1  0
 19 20  1  0
 21 22  1  0
 21 23  1  0
 23 24  1  0
 23 25  1  0
 27 28  1  0
 28 29  1  0
 28 30  1  0
M  END
