
     RDKit          3D

 30 31  0  0  0  0  0  0  0  0999 V2000
    3.5220    1.6220   -1.3470 N   0  0  0  0  0  0  0  0  0  0  0  0
    3.0250    1.1200   -0.2550 C   0  0  0  0  0  0  0  0  0  0  0  0
    3.1440    1.8270    0.9710 N   0  0  0  0  0  0  0  0  0  0  0  0
    3.8860    3.4460    0.9670 P   0  0  0  0  0  0  0  0  0  0  0  0
    3.3570    4.3200    2.3620 O   0  0  0  0  0  0  0  0  0  0  0  0
    5.6150    3.3020    0.9520 O   0  0  0  0  0  0  0  0  0  0  0  0
    2.3730   -0.1310   -0.3250 N   0  0  0  0  0  0  0  0  0  0  0  0
    1.0320   -0.2810    0.1490 C   0  0  0  0  0  0  0  0  0  0  0  0
    0.0430    0.4680   -0.7080 C   0  0  0  0  0  0  0  0  0  0  0  0
    0.4150    1.1270   -1.7000 O   0  0  0  0  0  0  0  0  0  0  0  0
   -1.3090    0.3860   -0.3370 N   0  0  0  0  0  0  0  0  0  0  0  0
   -2.3920    1.0540   -1.0600 C   0  0  0  0  0  0  0  0  0  0  0  0
   -3.6830    0.5800   -0.4280 C   0  0  1  0  0  0  0  0  0  0  0  0
   -4.1880    1.4860    0.4910 O   0  0  0  0  0  0  0  0  0  0  0  0
   -4.6960    0.4090   -1.5200 C   0  0  0  0  0  0  0  0  0  0  0  0
   -4.2070   -0.5330   -2.5070 N   0  0  0  0  0  0  0  0  0  0  0  0
   -3.2530   -0.7120    0.2110 C   0  0  2  0  0  0  0  0  0  0  0  0
   -4.1230   -1.2390    1.1080 O   0  0  0  0  0  0  0  0  0  0  0  0
   -4.3050   -0.6030    2.2940 C   0  0  0  0  0  0  0  0  0  0  0  0
   -3.2830    0.2920    2.6750 O   0  0  0  0  0  0  0  0  0  0  0  0
   -2.1390    0.5050    1.9610 C   0  0  0  0  0  0  0  0  0  0  0  0
   -1.3190    1.3840    2.2980 O   0  0  0  0  0  0  0  0  0  0  0  0
   -1.9030   -0.3370    0.7780 C   0  0  2  0  0  0  0  0  0  0  0  0
    3.2360   -1.5320   -1.0130 P   0  0  0  0  0  0  0  0  0  0  0  0
    2.9980   -1.5370   -2.7260 O   0  0  0  0  0  0  0  0  0  0  0  0
    3.6700   -2.5120   -3.3070 O   0  0  0  0  0  0  0  0  0  0  0  0
    2.6350   -3.0080   -0.2810 O   0  0  0  0  0  0  0  0  0  0  0  0
    3.8350   -3.6960    0.7440 P   0  0  0  0  0  0  0  0  0  0  0  0
    5.4190   -3.5340    0.0760 O   0  0  0  0  0  0  0  0  0  0  0  0
    3.7340   -2.9660    2.3240 O   0  0  0  0  0  0  0  0  0  0  0  0
  1  2  2  0
  2  3  1  0
  2  7  1  0
  3  4  1  0
  4  5  1  0
  4  6  1  0
  7  8  1  0
  7 24  1  0
  8  9  1  0
  9 10  2  0
  9 11  1  0
 11 12  1  0
 23 11  1  6
 12 13  1  0
 13 14  1  1
 13 15  1  0
 13 17  1  0
 15 16  1  0
 17 18  1  1
 17 23  1  0
 18 19  1  0
 19 20  1  0
 20 21  1  0
 21 22  2  0
 21 23  1  0
 24 25  1  0
 24 27  1  0
 25 26  1  0
 27 28  1  0
 28 29  1  0
 28 30  1  0
M  END
