
     RDKit          3D

 31 33  0  0  0  0  0  0  0  0999 V2000
   -2.2660    4.4140    0.4160 O   0  0  0  0  0  0  0  0  0  0  0  0
   -2.5080    3.1660    0.4020 C   0  0  0  0  0  0  0  0  0  0  0  0
   -1.7520    2.3400   -0.3980 O   0  0  0  0  0  0  0  0  0  0  0  0
   -2.1380    1.0460   -0.7700 C   0  0  1  0  0  0  0  0  0  0  0  0
   -2.7610    1.0550   -2.1030 C   0  0  0  0  0  0  0  0  0  0  0  0
   -3.1830    0.0140   -2.6360 O   0  0  0  0  0  0  0  0  0  0  0  0
   -2.8830    2.2580   -2.7930 O   0  0  0  0  0  0  0  0  0  0  0  0
   -0.9890    0.1020   -0.7080 C   0  0  0  0  0  0  0  0  0  0  0  0
    0.2120    0.3250   -1.1070 N   0  0  0  0  0  0  0  0  0  0  0  0
    1.2170   -0.6010   -1.0150 O   0  0  0  0  0  0  0  0  0  0  0  0
    1.3070   -1.7170    0.3230 P   0  0  0  0  0  0  0  0  0  0  0  0
    0.4460   -1.1850    1.7160 O   0  0  0  0  0  0  0  0  0  0  0  0
    2.9200   -2.1920    0.6660 O   0  0  0  0  0  0  0  0  0  0  0  0
    3.8040   -0.9390    1.4720 P   0  0  0  0  0  0  0  0  0  0  0  0
    2.7910    0.4930    1.4690 O   0  0  0  0  0  0  0  0  0  0  0  0
    5.3200   -0.6380    0.5630 N   0  0  0  0  0  0  0  0  0  0  0  0
    6.4630    0.1790    0.9250 C   0  0  0  0  0  0  0  0  0  0  0  0
    6.7890    0.7610   -0.4570 C   0  0  0  0  0  0  0  0  0  0  0  0
    6.7130   -0.4160   -1.2510 O   0  0  0  0  0  0  0  0  0  0  0  0
    5.6600   -1.1740   -0.7100 C   0  0  0  0  0  0  0  0  0  0  0  0
    5.0780   -2.1770   -1.2280 O   0  0  0  0  0  0  0  0  0  0  0  0
   -1.4890   -1.0770   -0.1240 N   0  0  0  0  0  0  0  0  0  0  0  0
   -2.6430   -0.8620    0.4090 C   0  0  0  0  0  0  0  0  0  0  0  0
   -3.4110   -1.8490    1.0770 N   0  0  0  0  0  0  0  0  0  0  0  0
   -2.9280   -3.5630    1.0360 P   0  0  0  0  0  0  0  0  0  0  0  0
   -4.2630   -4.6080    0.6920 O   0  0  0  0  0  0  0  0  0  0  0  0
   -1.6240   -3.8420   -0.0620 O   0  0  0  0  0  0  0  0  0  0  0  0
   -3.0290    0.5050    0.2260 N   0  0  0  0  0  0  0  0  0  0  0  0
   -4.0590    1.2840    0.8450 C   0  0  0  0  0  0  0  0  0  0  0  0
   -3.6070    2.6680    1.2620 C   0  0  1  0  0  0  0  0  0  0  0  0
   -3.1560    2.6330    2.5700 O   0  0  0  0  0  0  0  0  0  0  0  0
  1  2  2  0
  2  3  1  0
  2 30  1  0
  3  4  1  0
  4  5  1  6
  4  8  1  0
  4 28  1  0
  5  6  2  0
  5  7  1  0
  8  9  2  3
  8 22  1  0
  9 10  1  0
 10 11  1  0
 11 12  1  0
 11 13  1  0
 13 14  1  0
 14 15  1  0
 14 16  1  0
 16 17  1  0
 16 20  1  0
 17 18  1  0
 18 19  1  0
 19 20  1  0
 20 21  2  0
 22 23  2  0
 23 24  1  0
 23 28  1  0
 24 25  1  0
 25 26  1  0
 25 27  1  0
 28 29  1  0
 29 30  1  0
 30 31  1  1
M  END
