
     RDKit          3D

 30 31  0  0  0  0  0  0  0  0999 V2000
   -2.0710   -0.2820    5.0920 O   0  0  0  0  0  0  0  0  0  0  0  0
   -1.3470    0.4980    3.9510 P   0  0  0  0  0  0  0  0  0  0  0  0
   -1.3030   -0.1980    2.2990 N   0  0  0  0  0  0  0  0  0  0  0  0
   -1.5080    0.5860    1.1310 C   0  0  0  0  0  0  0  0  0  0  0  0
   -1.7270    1.7990    1.2610 O   0  0  0  0  0  0  0  0  0  0  0  0
   -1.4450   -0.1210   -0.1760 C   0  0  1  0  0  0  0  0  0  0  0  0
   -2.5710   -1.1520   -0.2490 C   0  0  0  0  0  0  0  0  0  0  0  0
   -3.7600   -0.4300   -0.1320 O   0  0  0  0  0  0  0  0  0  0  0  0
   -5.1440   -1.4710   -0.1980 P   0  0  0  0  0  0  0  0  0  0  0  0
   -4.7480   -3.0150    0.5240 O   0  0  0  0  0  0  0  0  0  0  0  0
   -6.5260   -0.7720    0.5400 O   0  0  0  0  0  0  0  0  0  0  0  0
   -1.6690    0.7800   -1.2860 N   0  0  0  0  0  0  0  0  0  0  0  0
   -0.5090    0.6790   -2.0840 C   0  0  0  0  0  0  0  0  0  0  0  0
   -0.4050    0.9700   -3.2910 O   0  0  0  0  0  0  0  0  0  0  0  0
    0.5310    0.1610   -1.1790 C   0  0  1  0  0  0  0  0  0  0  0  0
    1.5730   -0.6540   -1.9050 C   0  0  0  0  0  0  0  0  0  0  0  0
    2.4150   -1.2650   -0.9480 O   0  0  0  0  0  0  0  0  0  0  0  0
    3.4790   -2.0850   -1.2960 C   0  0  0  0  0  0  0  0  0  0  0  0
    3.6870   -2.2800   -2.5190 O   0  0  0  0  0  0  0  0  0  0  0  0
    4.2830   -2.6670   -0.3170 O   0  0  0  0  0  0  0  0  0  0  0  0
    5.6050   -3.6890   -0.8780 P   0  0  0  0  0  0  0  0  0  0  0  0
    6.5000   -4.4800    0.1260 O   0  0  0  0  0  0  0  0  0  0  0  0
    1.1120    1.2910   -0.4290 C   0  0  0  0  0  0  0  0  0  0  0  0
    0.6890    2.4890   -0.6390 N   0  0  0  0  0  0  0  0  0  0  0  0
    1.1870    3.6370    0.0330 C   0  0  0  0  0  0  0  0  0  0  0  0
    0.7230    4.7710   -0.2280 O   0  0  0  0  0  0  0  0  0  0  0  0
    2.2100    3.4790    0.9950 N   0  0  0  0  0  0  0  0  0  0  0  0
    2.9290    2.2260    1.0410 C   0  0  0  0  0  0  0  0  0  0  0  0
    2.1410    1.1340    0.5390 N   0  0  0  0  0  0  0  0  0  0  0  0
   -0.2060   -0.6920   -0.3580 O   0  0  0  0  0  0  0  0  0  0  0  0
  1  2  2  0
  2  3  1  0
  3  4  1  0
  4  5  2  0
  4  6  1  0
  6  7  1  1
  6 12  1  0
  6 30  1  0
  7  8  1  0
  8  9  1  0
  9 10  1  0
  9 11  1  0
 12 13  1  0
 13 14  2  0
 13 15  1  0
 15 16  1  6
 15 23  1  0
 15 30  1  0
 16 17  1  0
 17 18  1  0
 18 19  2  0
 18 20  1  0
 20 21  1  0
 21 22  2  0
 23 24  2  0
 23 29  1  0
 24 25  1  0
 25 26  2  0
 25 27  1  0
 27 28  1  0
 28 29  1  0
M  END
