
     RDKit          3D

 31 33  0  0  0  0  0  0  0  0999 V2000
   -8.2060   -0.7840    1.1570 N   0  0  0  0  0  0  0  0  0  0  0  0
   -7.2330   -0.1550    0.3380 C   0  0  0  0  0  0  0  0  0  0  0  0
   -7.5790    0.8020   -0.5480 N   0  0  0  0  0  0  0  0  0  0  0  0
   -6.6760    1.4070   -1.3280 C   0  0  0  0  0  0  0  0  0  0  0  0
   -5.3890    1.0660   -1.2420 N   0  0  0  0  0  0  0  0  0  0  0  0
   -4.9630    0.1220   -0.3840 C   0  0  0  0  0  0  0  0  0  0  0  0
   -5.9010   -0.5010    0.4220 C   0  0  0  0  0  0  0  0  0  0  0  0
   -5.2080   -1.3890    1.1710 N   0  0  0  0  0  0  0  0  0  0  0  0
   -3.8920   -1.2990    0.8220 C   0  0  0  0  0  0  0  0  0  0  0  0
   -3.7410   -0.3770   -0.1270 N   0  0  0  0  0  0  0  0  0  0  0  0
   -2.5350    0.0600   -0.8000 C   0  0  2  0  0  0  0  0  0  0  0  0
   -1.5100   -0.8230   -0.5760 O   0  0  0  0  0  0  0  0  0  0  0  0
   -0.3450   -0.0580   -0.5160 C   0  0  2  0  0  0  0  0  0  0  0  0
    0.8020   -0.8310    0.0880 C   0  0  0  0  0  0  0  0  0  0  0  0
    1.9140    0.0070    0.1070 O   0  0  0  0  0  0  0  0  0  0  0  0
    3.2670   -0.7640    0.7680 P   0  0  1  0  0  0  0  0  0  0  0  0
    3.6140   -0.1780    2.1280 O   0  0  0  0  0  0  0  0  0  0  0  0
    2.8890   -2.3960    1.0270 O   0  0  0  0  0  0  0  0  0  0  0  0
    4.5680   -0.5670   -0.2670 O   0  0  0  0  0  0  0  0  0  0  0  0
    6.0440   -0.5650    0.5580 P   0  0  2  0  0  0  0  0  0  0  0  0
    5.9490   -1.5390    1.7000 O   0  0  0  0  0  0  0  0  0  0  0  0
    6.3620    1.0090    1.0820 O   0  0  0  0  0  0  0  0  0  0  0  0
    7.2490   -1.0630   -0.5170 O   0  0  0  0  0  0  0  0  0  0  0  0
    7.9000    0.3180   -1.2550 P   0  0  2  0  0  0  0  0  0  0  0  0
    6.8960    0.9520   -2.1910 O   0  0  0  0  0  0  0  0  0  0  0  0
    9.3160   -0.1030   -2.0420 O   0  0  0  0  0  0  0  0  0  0  0  0
    8.2110    1.4320   -0.0040 O   0  0  0  0  0  0  0  0  0  0  0  0
   -0.7950    1.0720    0.4040 C   0  0  1  0  0  0  0  0  0  0  0  0
    0.0600    2.1500    0.3690 O   0  0  0  0  0  0  0  0  0  0  0  0
   -2.1520    1.3930   -0.2380 C   0  0  1  0  0  0  0  0  0  0  0  0
   -1.8970    2.2600   -1.2890 O   0  0  0  0  0  0  0  0  0  0  0  0
  1  2  1  0
  2  3  2  0
  2  7  1  0
  3  4  1  0
  4  5  2  0
  5  6  1  0
  6  7  2  0
  6 10  1  0
  7  8  1  0
  8  9  2  0
  9 10  1  0
 11 10  1  1
 11 12  1  0
 11 30  1  0
 12 13  1  0
 13 14  1  1
 13 28  1  0
 14 15  1  0
 15 16  1  0
 16 17  2  0
 16 18  1  1
 16 19  1  0
 19 20  1  0
 20 21  2  0
 20 22  1  1
 20 23  1  0
 23 24  1  0
 24 25  2  0
 24 26  1  6
 24 27  1  0
 28 29  1  6
 28 30  1  0
 30 31  1  6
M  END
