
     RDKit          3D

 15 16  0  0  0  0  0  0  0  0999 V2000
    5.0340    0.2190    1.0070 C   0  0  0  0  0  0  0  0  0  0  0  0
    4.2530   -0.1930    0.0400 C   0  0  0  0  0  0  0  0  0  0  0  0
    2.9190    0.4300   -0.1280 C   0  0  0  0  0  0  0  0  0  0  0  0
    1.8510   -0.5210   -0.0060 N   0  0  0  0  0  0  0  0  0  0  0  0
    0.5030   -0.1600   -0.1280 C   0  0  0  0  0  0  0  0  0  0  0  0
    0.1960    1.1650   -0.3770 C   0  0  0  0  0  0  0  0  0  0  0  0
   -1.1170    1.5440   -0.5010 C   0  0  0  0  0  0  0  0  0  0  0  0
   -2.1330    0.5890   -0.3750 C   0  0  0  0  0  0  0  0  0  0  0  0
   -3.4320    1.0350   -0.5110 C   0  0  0  0  0  0  0  0  0  0  0  0
   -4.4370    0.0940   -0.3880 C   0  0  0  0  0  0  0  0  0  0  0  0
   -4.1090   -1.2220   -0.1400 C   0  0  0  0  0  0  0  0  0  0  0  0
   -5.0430   -2.0610   -0.0320 O   0  0  0  0  0  0  0  0  0  0  0  0
   -2.8290   -1.6090   -0.0160 N   0  0  0  0  0  0  0  0  0  0  0  0
   -1.8260   -0.7330   -0.1280 C   0  0  0  0  0  0  0  0  0  0  0  0
   -0.5060   -1.1190   -0.0020 C   0  0  0  0  0  0  0  0  0  0  0  0
  1  2  2  0
  2  3  1  0
  3  4  1  0
  4  5  1  0
  5  6  2  0
  5 15  1  0
  6  7  1  0
  7  8  2  0
  8  9  1  0
  8 14  1  0
  9 10  2  0
 10 11  1  0
 11 12  2  0
 11 13  1  0
 13 14  1  0
 14 15  2  0
M  END
