
     RDKit          3D

 28 31  0  0  0  0  0  0  0  0999 V2000
    9.0680    0.3960    1.0970 N   0  0  0  0  0  0  0  0  0  0  0  0
    8.1750    0.5350   -0.0570 C   0  0  0  0  0  0  0  0  0  0  0  0
    6.8280    0.0220    0.4000 C   0  0  1  0  0  0  0  0  0  0  0  0
    6.3130    0.8200    1.5890 C   0  0  0  0  0  0  0  0  0  0  0  0
    5.1700    0.1070    2.0520 O   0  0  0  0  0  0  0  0  0  0  0  0
    4.2070   -0.1810    1.0690 C   0  0  0  0  0  0  0  0  0  0  0  0
    2.9010   -0.4640    1.4030 C   0  0  0  0  0  0  0  0  0  0  0  0
    1.9550   -0.7470    0.4360 C   0  0  0  0  0  0  0  0  0  0  0  0
    2.2870   -0.7570   -0.9080 C   0  0  0  0  0  0  0  0  0  0  0  0
    1.2340   -1.0630   -1.9330 C   0  0  0  0  0  0  0  0  0  0  0  0
   -0.0870   -0.8340   -1.3770 N   0  0  0  0  0  0  0  0  0  0  0  0
   -0.6330    0.4590   -1.2090 C   0  0  0  0  0  0  0  0  0  0  0  0
    0.0600    1.4430   -1.5590 O   0  0  0  0  0  0  0  0  0  0  0  0
   -1.9800    0.6620   -0.6400 C   0  0  0  0  0  0  0  0  0  0  0  0
   -2.5600    1.9040   -0.4910 C   0  0  0  0  0  0  0  0  0  0  0  0
   -3.8210    1.6690    0.0770 C   0  0  0  0  0  0  0  0  0  0  0  0
   -3.9490    0.3140    0.2450 C   0  0  0  0  0  0  0  0  0  0  0  0
   -5.0760   -0.4250    0.7930 C   0  0  0  0  0  0  0  0  0  0  0  0
   -6.3470   -0.3160    0.4320 C   0  0  0  0  0  0  0  0  0  0  0  0
   -7.3510   -1.1490    1.1020 C   0  0  0  0  0  0  0  0  0  0  0  0
   -8.5920   -1.1140    0.7020 C   0  0  0  0  0  0  0  0  0  0  0  0
   -8.9790   -0.2510   -0.3950 C   0  0  0  0  0  0  0  0  0  0  0  0
   -8.1500    0.5360   -1.0330 C   0  0  0  0  0  0  0  0  0  0  0  0
   -6.7240    0.6010   -0.6610 C   0  0  0  0  0  0  0  0  0  0  0  0
   -2.8140   -0.2150   -0.2040 O   0  0  0  0  0  0  0  0  0  0  0  0
    3.5940   -0.4740   -1.2350 C   0  0  0  0  0  0  0  0  0  0  0  0
    4.5430   -0.1900   -0.2730 C   0  0  0  0  0  0  0  0  0  0  0  0
    5.8590    0.0950   -0.6140 O   0  0  0  0  0  0  0  0  0  0  0  0
  1  2  1  0
  3  2  1  6
  3  4  1  0
  3 28  1  0
  4  5  1  0
  5  6  1  0
  6  7  2  0
  6 27  1  0
  7  8  1  0
  8  9  2  0
  9 10  1  0
  9 26  1  0
 10 11  1  0
 11 12  1  0
 12 13  2  0
 12 14  1  0
 14 15  2  0
 14 25  1  0
 15 16  1  0
 16 17  2  0
 17 18  1  0
 17 25  1  0
 18 19  2  3
 19 20  1  0
 19 24  1  0
 20 21  2  0
 21 22  1  0
 22 23  2  0
 23 24  1  0
 26 27  2  0
 27 28  1  0
M  END
