
     RDKit          3D

 16 17  0  0  0  0  0  0  0  0999 V2000
    4.2350   -0.0480    2.3820 C   0  0  0  0  0  0  0  0  0  0  0  0
    3.4810    0.3190    1.3590 C   0  0  0  0  0  0  0  0  0  0  0  0
    4.1840    0.8030    0.1550 C   0  0  0  0  0  0  0  0  0  0  0  0
    3.2240    1.1700   -0.8830 C   0  0  0  0  0  0  0  0  0  0  0  0
    1.9240    1.0650   -0.7170 C   0  0  0  0  0  0  0  0  0  0  0  0
    1.3000    0.5770    0.5040 C   0  0  0  0  0  0  0  0  0  0  0  0
   -0.1800    0.5150    0.5400 C   0  0  0  0  0  0  0  0  0  0  0  0
   -0.7310   -0.3400   -0.4710 N   0  0  0  0  0  0  0  0  0  0  0  0
   -2.1330   -0.4900   -0.5500 C   0  0  0  0  0  0  0  0  0  0  0  0
   -2.9830    0.1790    0.3380 C   0  0  0  0  0  0  0  0  0  0  0  0
   -4.3480    0.0320    0.2590 C   0  0  0  0  0  0  0  0  0  0  0  0
   -4.8890   -0.7800   -0.7000 C   0  0  0  0  0  0  0  0  0  0  0  0
   -4.0680   -1.4470   -1.5830 C   0  0  0  0  0  0  0  0  0  0  0  0
   -2.6970   -1.3040   -1.5110 C   0  0  0  0  0  0  0  0  0  0  0  0
   -1.9450   -1.9970   -2.4200 O   0  0  0  0  0  0  0  0  0  0  0  0
    2.0650    0.2320    1.4680 N   0  0  0  0  0  0  0  0  0  0  0  0
  1  2  2  0
  2  3  1  0
  2 16  1  0
  3  4  1  0
  4  5  2  0
  5  6  1  0
  6  7  1  0
  6 16  2  0
  7  8  1  0
  8  9  1  0
  9 10  2  0
  9 14  1  0
 10 11  1  0
 11 12  2  0
 12 13  1  0
 13 14  2  0
 14 15  1  0
M  END
