
     RDKit          3D

 28 30  0  0  0  0  0  0  0  0999 V2000
    8.0580    0.7410   -1.2160 C   0  0  0  0  0  0  0  0  0  0  0  0
    6.8890    0.3250   -0.8950 O   0  0  0  0  0  0  0  0  0  0  0  0
    5.7130   -0.1320   -0.5730 C   0  0  0  0  0  0  0  0  0  0  0  0
    5.3770   -1.4980   -0.5190 C   0  0  0  0  0  0  0  0  0  0  0  0
    4.1400   -1.9590   -0.1790 C   0  0  0  0  0  0  0  0  0  0  0  0
    3.1540   -1.0110    0.1310 C   0  0  0  0  0  0  0  0  0  0  0  0
    3.4680    0.3240    0.0830 C   0  0  0  0  0  0  0  0  0  0  0  0
    4.7040    0.8000   -0.2550 C   0  0  0  0  0  0  0  0  0  0  0  0
    5.0010    2.1810   -0.2940 N   0  0  0  0  0  0  0  0  0  0  0  0
    1.8060   -1.4750    0.5020 C   0  0  0  0  0  0  0  0  0  0  0  0
    0.7540   -0.6990    0.2280 C   0  0  0  0  0  0  0  0  0  0  0  0
   -0.5940   -1.0420    0.5420 C   0  0  0  0  0  0  0  0  0  0  0  0
   -1.7060   -0.4410    0.3330 C   0  0  0  0  0  0  0  0  0  0  0  0
   -2.1290    0.7860   -0.2900 C   0  0  0  0  0  0  0  0  0  0  0  0
   -1.5380    1.5200   -1.2650 C   0  0  0  0  0  0  0  0  0  0  0  0
   -0.4350    1.2220   -2.2080 C   0  0  0  0  0  0  0  0  0  0  0  0
   -2.2480    2.7020   -1.3570 N   0  0  0  0  0  0  0  0  0  0  0  0
   -3.2010    2.6800   -0.5050 O   0  0  0  0  0  0  0  0  0  0  0  0
   -3.2190    1.5760    0.1810 C   0  0  0  0  0  0  0  0  0  0  0  0
   -4.1560    1.1640    1.2360 C   0  0  0  0  0  0  0  0  0  0  0  0
   -5.3590    0.4750    0.7010 C   0  0  1  0  0  0  0  0  0  0  0  0
   -5.1490   -0.7690   -0.0920 C   0  0  0  0  0  0  0  0  0  0  0  0
   -6.2720    0.0580    1.8770 C   0  0  0  0  0  0  0  0  0  0  0  0
   -6.1310    1.4480   -0.2010 C   0  0  0  0  0  0  0  0  0  0  0  0
    1.7420   -2.7970    1.1400 C   0  0  0  0  0  0  0  0  0  0  0  0
    2.5160   -3.7390    0.2360 C   0  0  0  0  0  0  0  0  0  0  0  0
    2.0250   -4.8270   -0.1480 O   0  0  0  0  0  0  0  0  0  0  0  0
    3.7800   -3.2930   -0.1150 O   0  0  0  0  0  0  0  0  0  0  0  0
  1  2  1  0
  2  3  1  0
  3  4  2  0
  3  8  1  0
  4  5  1  0
  5  6  2  0
  5 28  1  0
  6  7  1  0
  6 10  1  0
  7  8  2  0
  8  9  1  0
 10 11  2  3
 10 25  1  0
 11 12  1  0
 12 13  2  3
 13 14  1  0
 14 15  1  0
 14 19  2  0
 15 16  1  0
 15 17  2  0
 17 18  1  0
 18 19  1  0
 19 20  1  0
 20 21  1  0
 21 22  1  6
 21 23  1  0
 21 24  1  0
 25 26  1  0
 26 27  2  0
 26 28  1  0
M  END
