
     RDKit          3D

 28 31  0  0  0  0  0  0  0  0999 V2000
   -7.6770    1.9200    1.0280 C   0  0  0  0  0  0  0  0  0  0  0  0
   -7.1860    0.5160    0.6530 C   0  0  1  0  0  0  0  0  0  0  0  0
   -7.7090   -0.4350    1.6760 C   0  0  0  0  0  0  0  0  0  0  0  0
   -7.7910    0.2070   -0.7150 C   0  0  0  0  0  0  0  0  0  0  0  0
   -5.7960    0.5820    0.5700 O   0  0  0  0  0  0  0  0  0  0  0  0
   -4.9830   -0.5050    0.2480 C   0  0  0  0  0  0  0  0  0  0  0  0
   -5.5730   -1.5900    0.0280 O   0  0  0  0  0  0  0  0  0  0  0  0
   -3.5380   -0.3720    0.1770 C   0  0  0  0  0  0  0  0  0  0  0  0
   -2.8870    0.8110    0.4170 C   0  0  0  0  0  0  0  0  0  0  0  0
   -1.5300    0.9310    0.3490 C   0  0  0  0  0  0  0  0  0  0  0  0
   -0.7250   -0.1710    0.0250 C   0  0  0  0  0  0  0  0  0  0  0  0
    0.6680   -0.0320   -0.0540 N   0  0  0  0  0  0  0  0  0  0  0  0
    1.6230   -1.0640   -0.1550 C   0  0  0  0  0  0  0  0  0  0  0  0
    1.2990   -2.2640   -0.1810 O   0  0  0  0  0  0  0  0  0  0  0  0
    3.0530   -0.7170   -0.2340 C   0  0  0  0  0  0  0  0  0  0  0  0
    3.5890    0.5510   -0.2200 C   0  0  0  0  0  0  0  0  0  0  0  0
    4.9540    0.4670   -0.3110 C   0  0  0  0  0  0  0  0  0  0  0  0
    5.9910    1.3930   -0.3420 C   0  0  0  0  0  0  0  0  0  0  0  0
    7.2820    0.9460   -0.4420 C   0  0  0  0  0  0  0  0  0  0  0  0
    7.5980   -0.3900   -0.5140 C   0  0  0  0  0  0  0  0  0  0  0  0
    6.5580   -1.3050   -0.4820 C   0  0  0  0  0  0  0  0  0  0  0  0
    5.2600   -0.8760   -0.3820 C   0  0  0  0  0  0  0  0  0  0  0  0
    4.0770   -1.5570   -0.3320 N   0  0  0  0  0  0  0  0  0  0  0  0
    9.0890   -0.5800   -0.6170 C   0  0  0  0  0  0  0  0  0  0  0  0
    9.5800    0.8090   -0.3020 C   0  0  0  0  0  0  0  0  0  0  0  0
    8.4700    1.6650   -0.4910 O   0  0  0  0  0  0  0  0  0  0  0  0
   -1.3470   -1.3590   -0.2180 C   0  0  0  0  0  0  0  0  0  0  0  0
   -2.7540   -1.4560   -0.1410 C   0  0  0  0  0  0  0  0  0  0  0  0
  2  1  1  1
  2  3  1  0
  2  4  1  0
  2  5  1  0
  5  6  1  0
  6  7  2  0
  6  8  1  0
  8  9  2  0
  8 28  1  0
  9 10  1  0
 10 11  2  0
 11 12  1  0
 11 27  1  0
 12 13  1  0
 13 14  2  0
 13 15  1  0
 15 16  2  0
 15 23  1  0
 16 17  1  0
 17 18  2  0
 17 22  1  0
 18 19  1  0
 19 20  2  0
 19 26  1  0
 20 21  1  0
 20 24  1  0
 21 22  2  0
 22 23  1  0
 24 25  1  0
 25 26  1  0
 27 28  2  0
M  END
