
     RDKit          3D

 28 31  0  0  0  0  0  0  0  0999 V2000
   -4.5860   -2.3150   -1.3950 C   0  0  0  0  0  0  0  0  0  0  0  0
   -3.9300   -1.0910   -0.9270 C   0  0  0  0  0  0  0  0  0  0  0  0
   -2.5790   -0.8330   -1.1900 C   0  0  0  0  0  0  0  0  0  0  0  0
   -1.9580    0.2960   -0.7630 C   0  0  0  0  0  0  0  0  0  0  0  0
   -0.5280    0.5340   -1.0610 C   0  0  0  0  0  0  0  0  0  0  0  0
    0.3750   -0.0190    0.0140 C   0  0  0  0  0  0  0  0  0  0  0  0
    1.7960    0.2880   -0.4070 C   0  0  0  0  0  0  0  0  0  0  0  0
    2.0400    0.8880   -1.4610 O   0  0  0  0  0  0  0  0  0  0  0  0
    2.8010   -0.1520    0.4730 N   0  0  0  0  0  0  0  0  0  0  0  0
    4.1900    0.0240    0.2950 C   0  0  0  0  0  0  0  0  0  0  0  0
    4.7470    0.8650   -0.6280 C   0  0  0  0  0  0  0  0  0  0  0  0
    6.1420    0.9840   -0.7720 C   0  0  0  0  0  0  0  0  0  0  0  0
    7.0030    0.2550    0.0150 C   0  0  0  0  0  0  0  0  0  0  0  0
    6.4670   -0.6000    0.9540 C   0  0  0  0  0  0  0  0  0  0  0  0
    5.1020   -0.6970    1.0730 C   0  0  0  0  0  0  0  0  0  0  0  0
    7.5920   -1.2320    1.6320 C   0  0  0  0  0  0  0  0  0  0  0  0
    7.4890   -2.0710    2.5480 O   0  0  0  0  0  0  0  0  0  0  0  0
    8.8040   -0.7550    1.0980 N   0  0  0  0  0  0  0  0  0  0  0  0
    8.4760    0.1760    0.0860 C   0  0  0  0  0  0  0  0  0  0  0  0
    9.2620    0.8250   -0.6300 O   0  0  0  0  0  0  0  0  0  0  0  0
   -2.6790    1.2250   -0.0440 C   0  0  0  0  0  0  0  0  0  0  0  0
   -4.0240    1.0080    0.2400 C   0  0  0  0  0  0  0  0  0  0  0  0
   -4.6300   -0.1480   -0.2060 C   0  0  0  0  0  0  0  0  0  0  0  0
   -6.0670   -0.3250    0.1260 C   0  0  0  0  0  0  0  0  0  0  0  0
   -6.2620    0.0710    1.5640 C   0  0  0  0  0  0  0  0  0  0  0  0
   -6.1240    1.5970    1.6370 C   0  0  0  0  0  0  0  0  0  0  0  0
   -4.8250    1.9620    0.9960 C   0  0  0  0  0  0  0  0  0  0  0  0
   -4.3950    3.1300    1.1050 O   0  0  0  0  0  0  0  0  0  0  0  0
  1  2  1  0
  2  3  2  0
  2 23  1  0
  3  4  1  0
  4  5  1  0
  4 21  2  0
  5  6  1  0
  6  7  1  0
  7  8  2  0
  7  9  1  0
  9 10  1  0
 10 11  2  0
 10 15  1  0
 11 12  1  0
 12 13  2  0
 13 14  1  0
 13 19  1  0
 14 15  2  0
 14 16  1  0
 16 17  2  0
 16 18  1  0
 18 19  1  0
 19 20  2  0
 21 22  1  0
 22 23  2  0
 22 27  1  0
 23 24  1  0
 24 25  1  0
 25 26  1  0
 26 27  1  0
 27 28  2  0
M  END
