
     RDKit          3D

 26 28  0  0  0  0  0  0  0  0999 V2000
   -7.2260   -0.9900    1.4410 C   0  0  0  0  0  0  0  0  0  0  0  0
   -6.5990   -0.7030    0.3400 C   0  0  0  0  0  0  0  0  0  0  0  0
   -5.1190   -0.6760    0.3440 C   0  0  0  0  0  0  0  0  0  0  0  0
   -4.4940   -0.1900   -0.7110 C   0  0  0  0  0  0  0  0  0  0  0  0
   -2.7210   -0.1380   -0.7480 S   0  0  0  0  0  0  0  0  0  0  0  0
   -2.0350   -0.7320    0.7950 C   0  0  1  0  0  0  0  0  0  0  0  0
   -0.1980   -0.6790    0.5750 S   0  0  0  0  0  0  0  0  0  0  0  0
    0.0110    1.0170    1.1020 C   0  0  0  0  0  0  0  0  0  0  0  0
    1.1060    1.6710    1.0210 N   0  0  0  0  0  0  0  0  0  0  0  0
    2.2750    1.0730    0.4880 C   0  0  0  0  0  0  0  0  0  0  0  0
    3.0490    1.7500   -0.4370 C   0  0  0  0  0  0  0  0  0  0  0  0
    4.1930    1.2300   -0.9940 C   0  0  0  0  0  0  0  0  0  0  0  0
    4.9300    1.9690   -1.9250 O   0  0  0  0  0  0  0  0  0  0  0  0
    4.4890    3.2490   -2.2860 C   0  0  0  0  0  0  0  0  0  0  0  0
    4.6170   -0.0400   -0.6250 C   0  0  0  0  0  0  0  0  0  0  0  0
    3.8720   -0.7320    0.2880 C   0  0  0  0  0  0  0  0  0  0  0  0
    4.2500   -1.9880    0.6840 O   0  0  0  0  0  0  0  0  0  0  0  0
    5.3730   -2.6760    0.2490 C   0  0  0  0  0  0  0  0  0  0  0  0
    6.6230   -1.9410    0.6080 C   0  0  0  0  0  0  0  0  0  0  0  0
    2.7230   -0.1850    0.8330 C   0  0  0  0  0  0  0  0  0  0  0  0
   -1.2620    1.4040    1.5900 N   0  0  0  0  0  0  0  0  0  0  0  0
   -2.1070    0.3140    1.8840 C   0  0  0  0  0  0  0  0  0  0  0  0
   -2.8450    0.1670    2.8940 O   0  0  0  0  0  0  0  0  0  0  0  0
   -5.2670    0.3070   -1.8760 C   0  0  0  0  0  0  0  0  0  0  0  0
   -6.5550    0.6960   -1.5110 O   0  0  0  0  0  0  0  0  0  0  0  0
   -7.2400   -0.3910   -0.9550 C   0  0  0  0  0  0  0  0  0  0  0  0
  1  2  2  0
  2  3  1  0
  2 26  1  0
  3  4  2  0
  4  5  1  0
  4 24  1  0
  6  5  1  6
  6  7  1  0
  6 22  1  0
  7  8  1  0
  8  9  2  3
  8 21  1  0
  9 10  1  0
 10 11  2  0
 10 20  1  0
 11 12  1  0
 12 13  1  0
 12 15  2  0
 13 14  1  0
 15 16  1  0
 16 17  1  0
 16 20  2  0
 17 18  1  0
 18 19  1  0
 21 22  1  0
 22 23  2  0
 24 25  1  0
 25 26  1  0
M  END
