
     RDKit          3D

 26 27  0  0  0  0  0  0  0  0999 V2000
   -3.8950    3.8160   -1.4440 C   0  0  0  0  0  0  0  0  0  0  0  0
   -3.8780    2.4510   -1.3600 C   0  0  0  0  0  0  0  0  0  0  0  0
   -2.9310    1.7830   -0.5310 C   0  0  0  0  0  0  0  0  0  0  0  0
   -2.7190    0.5440   -0.2670 C   0  0  0  0  0  0  0  0  0  0  0  0
   -3.5960   -0.4130   -0.8910 C   0  0  0  0  0  0  0  0  0  0  0  0
   -5.0690   -0.0630   -0.9620 C   0  0  0  0  0  0  0  0  0  0  0  0
   -3.4250   -1.6140   -1.3390 N   0  0  0  0  0  0  0  0  0  0  0  0
   -2.1960   -2.3210   -1.2920 C   0  0  0  0  0  0  0  0  0  0  0  0
   -1.7170   -3.2570   -2.4910 S   0  0  0  0  0  0  0  0  0  0  0  0
   -1.2930   -2.2440   -0.1030 C   0  0  0  0  0  0  0  0  0  0  0  0
   -0.4700   -3.2340    0.0790 C   0  0  0  0  0  0  0  0  0  0  0  0
   -1.3450   -1.1750    0.7420 O   0  0  0  0  0  0  0  0  0  0  0  0
   -1.5380    0.2460    0.6090 C   0  0  1  0  0  0  0  0  0  0  0  0
   -0.2120    0.6990    0.0600 C   0  0  1  0  0  0  0  0  0  0  0  0
    0.0790    0.2410   -1.3100 C   0  0  0  0  0  0  0  0  0  0  0  0
    0.1360    2.1630    0.2770 C   0  0  0  0  0  0  0  0  0  0  0  0
   -0.2000    2.2130    2.0840 S   0  0  0  0  0  0  0  0  0  0  0  0
    0.3800    0.4790    2.3780 C   0  0  0  0  0  0  0  0  0  0  0  0
    0.7670    0.1460    1.0260 N   0  0  0  0  0  0  0  0  0  0  0  0
    1.9080   -0.5820    0.6560 C   0  0  0  0  0  0  0  0  0  0  0  0
    2.6520   -0.9930    1.6320 O   0  0  0  0  0  0  0  0  0  0  0  0
    2.3140   -0.8970   -0.6010 O   0  0  0  0  0  0  0  0  0  0  0  0
    3.4480   -1.6080   -0.9390 C   0  0  0  0  0  0  0  0  0  0  0  0
    4.7660   -1.0230   -0.5870 C   0  0  0  0  0  0  0  0  0  0  0  0
    5.0210   -0.7870    0.7290 O   0  0  0  0  0  0  0  0  0  0  0  0
    6.2600   -0.2450    0.9810 C   0  0  0  0  0  0  0  0  0  0  0  0
  1  2  2  0
  2  3  1  0
  3  4  2  3
  4  5  1  0
  4 13  1  0
  5  6  1  0
  5  7  2  0
  7  8  1  0
  8  9  2  0
  8 10  1  0
 10 11  2  0
 10 12  1  0
 13 12  1  6
 13 14  1  0
 14 15  1  6
 14 16  1  0
 14 19  1  0
 16 17  1  0
 17 18  1  0
 18 19  1  0
 19 20  1  0
 20 21  2  0
 20 22  1  0
 22 23  1  0
 23 24  1  0
 24 25  1  0
 25 26  1  0
M  END
