
     RDKit          3D

 26 28  0  0  0  0  0  0  0  0999 V2000
   -5.1490   -1.8610   -0.3790 C   0  0  0  0  0  0  0  0  0  0  0  0
   -5.2810   -0.6260   -0.0680 C   0  0  0  0  0  0  0  0  0  0  0  0
   -4.2400    0.3670   -0.0070 C   0  0  0  0  0  0  0  0  0  0  0  0
   -2.8650   -0.0480   -0.3320 C   0  0  0  0  0  0  0  0  0  0  0  0
   -2.6620   -1.2470   -0.6430 O   0  0  0  0  0  0  0  0  0  0  0  0
   -1.7310    0.8050   -0.3230 N   0  0  0  0  0  0  0  0  0  0  0  0
   -0.3720    0.4770   -0.6020 C   0  0  0  0  0  0  0  0  0  0  0  0
    0.3770   -0.4260    0.2970 C   0  0  1  0  0  0  0  0  0  0  0  0
   -0.1000   -1.8170    0.4820 C   0  0  0  0  0  0  0  0  0  0  0  0
    0.9380   -2.6000    1.0980 O   0  0  0  0  0  0  0  0  0  0  0  0
    1.8440   -2.8530    0.0920 C   0  0  0  0  0  0  0  0  0  0  0  0
    2.3670   -1.5800   -0.4790 C   0  0  0  0  0  0  0  0  0  0  0  0
    1.8150   -0.3770    0.0330 N   0  0  0  0  0  0  0  0  0  0  0  0
    2.4800    0.2460    1.1110 C   0  0  0  0  0  0  0  0  0  0  0  0
    3.8530    0.6540    0.7740 C   0  0  0  0  0  0  0  0  0  0  0  0
    4.7560    1.1730    1.6560 C   0  0  0  0  0  0  0  0  0  0  0  0
    5.9710    1.5040    1.2090 C   0  0  0  0  0  0  0  0  0  0  0  0
    6.2690    1.3090   -0.1310 C   0  0  0  0  0  0  0  0  0  0  0  0
    7.4870    1.5670   -0.9130 C   0  0  0  0  0  0  0  0  0  0  0  0
    4.7100    0.6210   -0.7250 S   0  0  0  0  0  0  0  0  0  0  0  0
   -4.4050    1.6260    0.3150 C   0  0  0  0  0  0  0  0  0  0  0  0
   -5.6840    2.2060    0.6600 C   0  0  0  0  0  0  0  0  0  0  0  0
   -6.8320    1.5760    0.7010 C   0  0  0  0  0  0  0  0  0  0  0  0
   -6.9400   -0.1160    0.3230 S   0  0  1  0  0  0  0  0  0  0  0  0
   -7.8160   -0.3450   -0.8690 O   0  0  0  0  0  0  0  0  0  0  0  0
   -7.3710   -0.9410    1.5000 O   0  0  0  0  0  0  0  0  0  0  0  0
  1  2  2  0
  2  3  1  0
  2 24  1  0
  3  4  1  0
  3 21  2  0
  4  5  2  0
  4  6  1  0
  6  7  1  0
  8  7  1  6
  8  9  1  0
  8 13  1  0
  9 10  1  0
 10 11  1  0
 11 12  1  0
 12 13  1  0
 13 14  1  0
 14 15  1  0
 15 16  2  0
 15 20  1  0
 16 17  1  0
 17 18  2  0
 18 19  1  0
 18 20  1  0
 21 22  1  0
 22 23  2  0
 24 23  1  1
 24 25  2  0
 24 26  2  0
M  END
