
     RDKit          3D

 26 28  0  0  0  0  0  0  0  0999 V2000
    1.0220   -2.8650    1.9310 C   0  0  0  0  0  0  0  0  0  0  0  0
    1.0370   -2.0880    0.5770 C   0  0  2  0  0  0  0  0  0  0  0  0
    0.2480   -0.9130    0.8260 C   0  0  0  0  0  0  0  0  0  0  0  0
    0.7810   -0.0570    1.6440 O   0  0  0  0  0  0  0  0  0  0  0  0
   -1.0470   -0.6160    0.2590 C   0  0  0  0  0  0  0  0  0  0  0  0
   -1.9360   -1.1670   -0.5930 C   0  0  0  0  0  0  0  0  0  0  0  0
   -3.0910   -0.5130   -0.8520 C   0  0  0  0  0  0  0  0  0  0  0  0
   -3.3360    0.6490   -0.2740 C   0  0  0  0  0  0  0  0  0  0  0  0
   -4.4910    1.5710   -0.3680 C   0  0  0  0  0  0  0  0  0  0  0  0
   -4.6130    2.7200    0.2730 C   0  0  0  0  0  0  0  0  0  0  0  0
   -5.9090    3.3540   -0.0790 C   0  0  0  0  0  0  0  0  0  0  0  0
   -6.4900    2.3670   -1.0250 C   0  0  0  0  0  0  0  0  0  0  0  0
   -5.6570    1.3450   -1.1780 C   0  0  0  0  0  0  0  0  0  0  0  0
   -1.9450    0.9300    0.7000 S   0  0  0  0  0  0  0  0  0  0  0  0
    0.6140   -3.0590   -0.4690 C   0  0  0  0  0  0  0  0  0  0  0  0
    1.8300   -4.0270   -0.4800 C   0  0  0  0  0  0  0  0  0  0  0  0
    2.9300   -3.3010    0.2550 C   0  0  0  0  0  0  0  0  0  0  0  0
    2.4320   -1.8850    0.2230 N   0  0  0  0  0  0  0  0  0  0  0  0
    3.2370   -0.8060   -0.1390 C   0  0  0  0  0  0  0  0  0  0  0  0
    4.4560   -1.1490   -0.4800 O   0  0  0  0  0  0  0  0  0  0  0  0
    2.9360    0.6260   -0.2000 C   0  0  0  0  0  0  0  0  0  0  0  0
    4.1030    1.3770   -0.7300 N   0  0  0  0  0  0  0  0  0  0  0  0
    3.7000    3.0530   -0.7830 S   0  0  1  0  0  0  0  0  0  0  0  0
    3.3460    3.6690    0.8450 C   0  0  0  0  0  0  0  0  0  0  0  0
    4.8200    3.8010   -1.4190 O   0  0  0  0  0  0  0  0  0  0  0  0
    2.4290    3.1730   -1.5870 O   0  0  0  0  0  0  0  0  0  0  0  0
  2  1  1  1
  2  3  1  0
  2 15  1  0
  2 18  1  0
  3  4  2  0
  3  5  1  0
  5  6  2  0
  5 14  1  0
  6  7  1  0
  7  8  2  0
  8  9  1  0
  8 14  1  0
  9 10  2  0
  9 13  1  0
 10 11  1  0
 11 12  1  0
 12 13  2  0
 15 16  1  0
 16 17  1  0
 17 18  1  0
 18 19  1  0
 19 20  2  0
 19 21  1  0
 21 22  1  0
 22 23  1  0
 23 24  1  1
 23 25  2  0
 23 26  2  0
M  END
