
     RDKit          3D

 26 27  0  0  0  0  0  0  0  0999 V2000
   -1.3160    4.2010   -0.9590 C   0  0  0  0  0  0  0  0  0  0  0  0
   -2.6420    3.6360   -1.4130 C   0  0  0  0  0  0  0  0  0  0  0  0
   -3.1040    2.1090   -0.6250 S   0  0  0  0  0  0  0  0  0  0  0  0
   -2.0770    0.7150   -1.0560 C   0  0  0  0  0  0  0  0  0  0  0  0
   -0.9760    1.0400   -1.9230 N   0  0  0  0  0  0  0  0  0  0  0  0
    0.1820    1.3160   -1.3910 C   0  0  0  0  0  0  0  0  0  0  0  0
    1.4040    1.6620   -2.0150 N   0  0  0  0  0  0  0  0  0  0  0  0
    2.5560    1.4680   -1.2600 C   0  0  0  0  0  0  0  0  0  0  0  0
    3.7460    1.7320   -1.6770 O   0  0  0  0  0  0  0  0  0  0  0  0
    2.3650    0.9330    0.0740 C   0  0  0  0  0  0  0  0  0  0  0  0
    3.1550    0.3240    0.9090 C   0  0  0  0  0  0  0  0  0  0  0  0
    4.5520    0.0270    0.6320 C   0  0  0  0  0  0  0  0  0  0  0  0
    5.3350   -0.5890    1.4890 C   0  0  0  0  0  0  0  0  0  0  0  0
    6.7420   -0.8670    1.1610 C   0  0  0  0  0  0  0  0  0  0  0  0
    4.7910   -1.0050    2.7960 C   0  0  0  0  0  0  0  0  0  0  0  0
    0.6070    1.3190    0.3720 S   0  0  0  0  0  0  0  0  0  0  0  0
   -2.2470   -0.5120   -0.6570 C   0  0  0  0  0  0  0  0  0  0  0  0
   -1.2840   -1.5400   -1.1240 C   0  0  0  0  0  0  0  0  0  0  0  0
   -0.3640   -1.2220   -1.8760 O   0  0  0  0  0  0  0  0  0  0  0  0
   -1.3940   -2.8700   -0.7300 O   0  0  0  0  0  0  0  0  0  0  0  0
   -0.4400   -3.8030   -1.2120 C   0  0  0  0  0  0  0  0  0  0  0  0
   -3.3240   -0.9810    0.1880 C   0  0  1  0  0  0  0  0  0  0  0  0
   -4.4430    0.0350    0.3300 C   0  0  0  0  0  0  0  0  0  0  0  0
   -5.5680   -0.9460    0.7710 C   0  0  0  0  0  0  0  0  0  0  0  0
   -5.4030   -2.0110   -0.0530 O   0  0  0  0  0  0  0  0  0  0  0  0
   -4.1160   -2.1070   -0.4640 C   0  0  0  0  0  0  0  0  0  0  0  0
  1  2  1  0
  2  3  1  0
  3  4  1  0
  4  5  1  0
  4 17  2  3
  5  6  2  3
  6  7  1  0
  6 16  1  0
  7  8  1  0
  8  9  2  0
  8 10  1  0
 10 11  2  3
 10 16  1  0
 11 12  1  0
 12 13  2  3
 13 14  1  0
 13 15  1  0
 17 18  1  0
 22 17  1  6
 18 19  2  0
 18 20  1  0
 20 21  1  0
 22 23  1  0
 22 26  1  0
 23 24  1  0
 24 25  1  0
 25 26  1  0
M  END
