
     RDKit          3D

 18 19  0  0  0  0  0  0  0  0999 V2000
   -2.8680    1.3590    1.3110 C   0  0  0  0  0  0  0  0  0  0  0  0
   -3.3830   -0.0520    1.3210 C   0  0  0  0  0  0  0  0  0  0  0  0
   -2.5410   -1.0030    0.8050 O   0  0  0  0  0  0  0  0  0  0  0  0
   -2.3130   -0.7490   -0.5530 C   0  0  2  0  0  0  0  0  0  0  0  0
   -2.8460   -1.7610   -1.3830 N   0  0  0  0  0  0  0  0  0  0  0  0
   -2.1340   -2.4030   -2.4110 C   0  0  0  0  0  0  0  0  0  0  0  0
   -2.6920   -3.3130   -3.1200 O   0  0  0  0  0  0  0  0  0  0  0  0
   -0.7570   -2.0150   -2.6540 C   0  0  0  0  0  0  0  0  0  0  0  0
   -0.0690   -2.5360   -3.5410 O   0  0  0  0  0  0  0  0  0  0  0  0
   -0.2400   -0.9690   -1.7800 C   0  0  0  0  0  0  0  0  0  0  0  0
   -0.9280   -0.3880   -0.8280 C   0  0  0  0  0  0  0  0  0  0  0  0
   -0.2810    0.6100   -0.0690 O   0  0  0  0  0  0  0  0  0  0  0  0
    1.1020    0.6910   -0.0410 C   0  0  2  0  0  0  0  0  0  0  0  0
    1.7480   -0.5900    0.4930 C   0  0  0  0  0  0  0  0  0  0  0  0
    3.1540   -0.6030   -0.0870 C   0  0  0  0  0  0  0  0  0  0  0  0
    3.6560    0.8190   -0.1840 C   0  0  0  0  0  0  0  0  0  0  0  0
    3.1000    1.6970    0.9140 C   0  0  0  0  0  0  0  0  0  0  0  0
    1.6000    1.7790    0.8980 C   0  0  0  0  0  0  0  0  0  0  0  0
  1  2  1  0
  2  3  1  0
  4  3  1  1
  4  5  1  0
  4 11  1  0
  5  6  1  0
  6  7  2  0
  6  8  1  0
  8  9  2  0
  8 10  1  0
 10 11  2  0
 11 12  1  0
 13 12  1  1
 13 14  1  0
 13 18  1  0
 14 15  1  0
 15 16  1  0
 16 17  1  0
 17 18  1  0
M  END
