
     RDKit          3D

 18 19  0  0  0  0  0  0  0  0999 V2000
    5.2540    0.7770    1.8860 C   0  0  0  0  0  0  0  0  0  0  0  0
    4.6950    0.8100    0.5000 C   0  0  0  0  0  0  0  0  0  0  0  0
    3.2510    0.3710    0.4600 C   0  0  0  0  0  0  0  0  0  0  0  0
    2.7660    0.0600    1.5520 O   0  0  0  0  0  0  0  0  0  0  0  0
    2.5410    0.3290   -0.7410 N   0  0  0  0  0  0  0  0  0  0  0  0
    1.2400   -0.0460   -1.0220 C   0  0  0  0  0  0  0  0  0  0  0  0
    0.8830    0.0770   -2.5290 C   0  0  0  0  0  0  0  0  0  0  0  0
    0.2390   -0.4960   -0.3240 C   0  0  0  0  0  0  0  0  0  0  0  0
   -1.1530   -0.8260   -0.9380 C   0  0  0  0  0  0  0  0  0  0  0  0
   -2.0450   -0.4290    0.2050 C   0  0  1  0  0  0  0  0  0  0  0  0
   -2.6610    0.8950   -0.1030 C   0  0  0  0  0  0  0  0  0  0  0  0
   -3.8070    1.2390    0.8230 C   0  0  0  0  0  0  0  0  0  0  0  0
   -4.0240    0.2600    1.7760 O   0  0  0  0  0  0  0  0  0  0  0  0
   -4.2320   -0.9920    1.2270 C   0  0  0  0  0  0  0  0  0  0  0  0
   -3.0590   -1.5180    0.4560 C   0  0  0  0  0  0  0  0  0  0  0  0
   -1.2360   -0.2560    1.3740 O   0  0  0  0  0  0  0  0  0  0  0  0
   -0.0200   -0.9070    1.0410 C   0  0  0  0  0  0  0  0  0  0  0  0
    0.6890   -1.6690    1.7310 O   0  0  0  0  0  0  0  0  0  0  0  0
  1  2  1  0
  2  3  1  0
  3  4  2  0
  3  5  1  0
  5  6  1  0
  6  7  1  0
  6  8  2  3
  8  9  1  0
  8 17  1  0
 10  9  1  6
 10 11  1  0
 10 15  1  0
 10 16  1  0
 11 12  1  0
 12 13  1  0
 13 14  1  0
 14 15  1  0
 16 17  1  0
 17 18  2  0
M  END
