
     RDKit          3D

 18 18  0  0  0  0  0  0  0  0999 V2000
   -2.1890   -1.9980    2.2530 C   0  0  0  0  0  0  0  0  0  0  0  0
   -2.5660   -1.6570    0.8590 C   0  0  0  0  0  0  0  0  0  0  0  0
   -1.7400   -1.0100    0.0800 C   0  0  0  0  0  0  0  0  0  0  0  0
   -2.2060   -0.7140   -1.2970 C   0  0  0  0  0  0  0  0  0  0  0  0
   -2.4110    0.7500   -1.5180 C   0  0  0  0  0  0  0  0  0  0  0  0
   -1.2660    1.6180   -1.0670 C   0  0  0  0  0  0  0  0  0  0  0  0
    0.0790    0.9290   -1.1720 C   0  0  0  0  0  0  0  0  0  0  0  0
    0.4580    0.3670    0.2020 C   0  0  1  0  0  0  0  0  0  0  0  0
    1.8750   -0.0860    0.2030 C   0  0  0  0  0  0  0  0  0  0  0  0
    2.2120   -1.1450   -0.7570 C   0  0  0  0  0  0  0  0  0  0  0  0
    1.4030   -1.6930   -1.5450 O   0  0  0  0  0  0  0  0  0  0  0  0
    3.5280   -1.6160   -0.8360 O   0  0  0  0  0  0  0  0  0  0  0  0
    3.8910   -2.6430   -1.7570 C   0  0  0  0  0  0  0  0  0  0  0  0
    0.3620    1.5080    1.1450 C   0  0  0  0  0  0  0  0  0  0  0  0
   -0.4540    1.4350    2.0890 O   0  0  0  0  0  0  0  0  0  0  0  0
    1.1320    2.6570    1.0350 O   0  0  0  0  0  0  0  0  0  0  0  0
    1.0320    3.7380    1.9400 C   0  0  0  0  0  0  0  0  0  0  0  0
   -0.4750   -0.6450    0.6110 N   0  0  0  0  0  0  0  0  0  0  0  0
  1  2  1  0
  2  3  2  3
  3  4  1  0
  3 18  1  0
  4  5  1  0
  5  6  1  0
  6  7  1  0
  7  8  1  0
  8  9  1  6
  8 14  1  0
  8 18  1  0
  9 10  1  0
 10 11  2  0
 10 12  1  0
 12 13  1  0
 14 15  2  0
 14 16  1  0
 16 17  1  0
M  END
