
     RDKit          3D

 24 26  0  0  0  0  0  0  0  0999 V2000
   -4.2290   -0.0900    2.9680 O   0  0  0  0  0  0  0  0  0  0  0  0
   -4.8430   -0.6440    1.8360 C   0  0  0  0  0  0  0  0  0  0  0  0
   -4.0510   -0.2200    0.6470 C   0  0  1  0  0  0  0  0  0  0  0  0
   -2.7420   -0.6680    0.7370 O   0  0  0  0  0  0  0  0  0  0  0  0
   -1.9440   -0.2230   -0.3040 C   0  0  2  0  0  0  0  0  0  0  0  0
   -0.9270    0.5550    0.2670 O   0  0  0  0  0  0  0  0  0  0  0  0
    0.4090    0.4220    0.2050 C   0  0  0  0  0  0  0  0  0  0  0  0
    1.0080   -0.5950   -0.4960 C   0  0  0  0  0  0  0  0  0  0  0  0
    2.4060   -0.7030   -0.5380 C   0  0  0  0  0  0  0  0  0  0  0  0
    3.1990    0.2200    0.1290 C   0  0  0  0  0  0  0  0  0  0  0  0
    4.6480    0.0810    0.0660 C   0  0  0  0  0  0  0  0  0  0  0  0
    5.4270    0.4960    1.1360 C   0  0  0  0  0  0  0  0  0  0  0  0
    6.8050    0.3730    1.0960 C   0  0  0  0  0  0  0  0  0  0  0  0
    7.4510   -0.1570    0.0080 C   0  0  0  0  0  0  0  0  0  0  0  0
    6.6740   -0.5690   -1.0560 C   0  0  0  0  0  0  0  0  0  0  0  0
    5.2970   -0.4510   -1.0260 C   0  0  0  0  0  0  0  0  0  0  0  0
    2.5680    1.2190    0.8150 C   0  0  0  0  0  0  0  0  0  0  0  0
    1.1980    1.3410    0.8690 C   0  0  0  0  0  0  0  0  0  0  0  0
   -2.6810    0.6550   -1.2820 C   0  0  1  0  0  0  0  0  0  0  0  0
   -1.8480    0.8000   -2.4020 O   0  0  0  0  0  0  0  0  0  0  0  0
   -3.9880    0.1230   -1.7450 C   0  0  1  0  0  0  0  0  0  0  0  0
   -3.9250   -0.5390   -2.9670 O   0  0  0  0  0  0  0  0  0  0  0  0
   -4.6020   -0.7320   -0.6610 C   0  0  2  0  0  0  0  0  0  0  0  0
   -5.9980   -0.6800   -0.6920 O   0  0  0  0  0  0  0  0  0  0  0  0
  1  2  1  0
  3  2  1  1
  3  4  1  0
  3 23  1  0
  4  5  1  0
  5  6  1  1
  5 19  1  0
  6  7  1  0
  7  8  2  0
  7 18  1  0
  8  9  1  0
  9 10  2  0
 10 11  1  0
 10 17  1  0
 11 12  2  0
 11 16  1  0
 12 13  1  0
 13 14  2  0
 14 15  1  0
 15 16  2  0
 17 18  2  0
 19 20  1  6
 19 21  1  0
 21 22  1  6
 21 23  1  0
 23 24  1  1
M  END
