
     RDKit          3D

 18 19  0  0  0  0  0  0  0  0999 V2000
    0.3780   -0.1880    1.6840 O   0  0  0  0  0  0  0  0  0  0  0  0
    0.3470   -0.4760    0.4490 C   0  0  0  0  0  0  0  0  0  0  0  0
    1.5660   -0.9700   -0.2730 C   0  0  0  0  0  0  0  0  0  0  0  0
    2.6220   -1.0220    0.6690 O   0  0  0  0  0  0  0  0  0  0  0  0
    3.8580   -1.4500    0.2390 C   0  0  0  0  0  0  0  0  0  0  0  0
    4.8350   -0.5890    0.0660 C   0  0  0  0  0  0  0  0  0  0  0  0
    6.2020   -0.8750   -0.3840 C   0  0  0  0  0  0  0  0  0  0  0  0
    6.8850    0.2510   -0.4320 C   0  0  0  0  0  0  0  0  0  0  0  0
    6.0900    1.3210   -0.0450 O   0  0  0  0  0  0  0  0  0  0  0  0
    4.8170    0.8640    0.2730 C   0  0  0  0  0  0  0  0  0  0  0  0
    3.8420    1.5550    0.6620 O   0  0  0  0  0  0  0  0  0  0  0  0
   -0.9040   -0.3030   -0.2020 N   0  0  0  0  0  0  0  0  0  0  0  0
   -2.0710    0.1760    0.5180 C   0  0  1  0  0  0  0  0  0  0  0  0
   -2.5120    1.5100   -0.0570 C   0  0  0  0  0  0  0  0  0  0  0  0
   -3.9290    1.7340    0.4330 C   0  0  0  0  0  0  0  0  0  0  0  0
   -4.8080    0.8360   -0.4470 C   0  0  0  0  0  0  0  0  0  0  0  0
   -4.2240   -0.5490   -0.5560 C   0  0  0  0  0  0  0  0  0  0  0  0
   -3.1910   -0.8310    0.5030 C   0  0  0  0  0  0  0  0  0  0  0  0
  1  2  2  0
  2  3  1  0
  2 12  1  0
  3  4  1  0
  4  5  1  0
  5  6  2  3
  6  7  1  0
  6 10  1  0
  7  8  2  0
  8  9  1  0
  9 10  1  0
 10 11  2  0
 13 12  1  6
 13 14  1  0
 13 18  1  0
 14 15  1  0
 15 16  1  0
 16 17  1  0
 17 18  1  0
M  END
