
     RDKit          3D

 18 18  0  0  0  0  0  0  0  0999 V2000
   -4.6740    0.0120    0.5990 C   0  0  0  0  0  0  0  0  0  0  0  0
   -3.8990   -0.4430   -0.6120 C   0  0  2  0  0  0  0  0  0  0  0  0
   -4.0470    0.5410   -1.7660 C   0  0  0  0  0  0  0  0  0  0  0  0
   -4.5150   -1.7580   -1.0710 C   0  0  0  0  0  0  0  0  0  0  0  0
   -2.5460   -0.6900   -0.3280 O   0  0  0  0  0  0  0  0  0  0  0  0
   -1.6590    0.2490    0.1590 C   0  0  0  0  0  0  0  0  0  0  0  0
   -2.0900    1.4080    0.3640 O   0  0  0  0  0  0  0  0  0  0  0  0
   -0.3010   -0.0850    0.4210 N   0  0  0  0  0  0  0  0  0  0  0  0
    0.6040    0.9210    0.9310 C   0  0  0  0  0  0  0  0  0  0  0  0
    1.9620    0.3520    1.1280 C   0  0  0  0  0  0  0  0  0  0  0  0
    2.2260   -0.8530    0.8670 O   0  0  0  0  0  0  0  0  0  0  0  0
    2.9660    1.1500    1.6070 O   0  0  0  0  0  0  0  0  0  0  0  0
    4.2910    0.6980    1.8280 C   0  0  0  0  0  0  0  0  0  0  0  0
    4.8310    0.2200    0.5300 C   0  0  0  0  0  0  0  0  0  0  0  0
    5.2540   -1.0080    0.2780 C   0  0  0  0  0  0  0  0  0  0  0  0
    5.6940   -1.0320   -1.1100 C   0  0  0  0  0  0  0  0  0  0  0  0
    5.4950    0.1730   -1.5640 C   0  0  0  0  0  0  0  0  0  0  0  0
    4.9950    1.0110   -0.7050 C   0  0  0  0  0  0  0  0  0  0  0  0
  2  1  1  1
  2  3  1  0
  2  4  1  0
  2  5  1  0
  5  6  1  0
  6  7  2  0
  6  8  1  0
  8  9  1  0
  9 10  1  0
 10 11  2  0
 10 12  1  0
 12 13  1  0
 13 14  1  0
 14 15  2  0
 14 18  1  0
 15 16  1  0
 16 17  2  0
 17 18  2  0
M  END
