
     RDKit          3D

 31 33  0  0  0  0  0  0  0  0999 V2000
   10.3620   -0.0970    0.6110 O   0  0  0  0  0  0  0  0  0  0  0  0
    9.6440    0.9230    0.4890 C   0  0  0  0  0  0  0  0  0  0  0  0
   10.2760    2.1510    0.4020 O   0  0  0  0  0  0  0  0  0  0  0  0
    8.1890    0.8900    0.4330 C   0  0  0  0  0  0  0  0  0  0  0  0
    7.4540    2.0490    0.2970 C   0  0  0  0  0  0  0  0  0  0  0  0
    6.0770    2.0290    0.2430 C   0  0  0  0  0  0  0  0  0  0  0  0
    5.3410    0.8440    0.3210 C   0  0  0  0  0  0  0  0  0  0  0  0
    3.8850    0.8960    0.2620 C   0  0  0  0  0  0  0  0  0  0  0  0
    3.3390    2.0180    0.2910 O   0  0  0  0  0  0  0  0  0  0  0  0
    3.0930   -0.2540    0.1730 N   0  0  0  0  0  0  0  0  0  0  0  0
    1.6870   -0.3380    0.1110 C   0  0  0  0  0  0  0  0  0  0  0  0
    1.1350   -1.6100   -0.0460 C   0  0  0  0  0  0  0  0  0  0  0  0
   -0.2220   -1.7980   -0.1130 C   0  0  0  0  0  0  0  0  0  0  0  0
   -1.1400   -0.7320   -0.0290 C   0  0  0  0  0  0  0  0  0  0  0  0
   -2.4260   -1.0360   -0.1060 O   0  0  0  0  0  0  0  0  0  0  0  0
   -3.6540   -0.4920   -0.0900 C   0  0  1  0  0  0  0  0  0  0  0  0
   -4.3730   -0.7300   -1.2730 O   0  0  0  0  0  0  0  0  0  0  0  0
   -5.6440   -0.2220   -1.2380 C   0  0  2  0  0  0  0  0  0  0  0  0
   -5.6950    1.2910   -1.2450 C   0  0  0  0  0  0  0  0  0  0  0  0
   -5.0900    1.7850   -2.4010 O   0  0  0  0  0  0  0  0  0  0  0  0
   -6.4870   -0.7670   -0.1210 C   0  0  1  0  0  0  0  0  0  0  0  0
   -7.6230   -1.3990   -0.6160 O   0  0  0  0  0  0  0  0  0  0  0  0
   -5.6230   -1.8230    0.5840 C   0  0  2  0  0  0  0  0  0  0  0  0
   -6.3040   -2.4380    1.6080 O   0  0  0  0  0  0  0  0  0  0  0  0
   -4.4180   -1.0350    1.1100 C   0  0  2  0  0  0  0  0  0  0  0  0
   -4.9500    0.0240    1.8370 O   0  0  0  0  0  0  0  0  0  0  0  0
   -0.5810    0.4970    0.1240 C   0  0  0  0  0  0  0  0  0  0  0  0
   -1.6070    1.9030    0.2420 Cl  0  0  0  0  0  0  0  0  0  0  0  0
    0.8060    0.7010    0.1940 C   0  0  0  0  0  0  0  0  0  0  0  0
    6.0760   -0.3130    0.4580 C   0  0  0  0  0  0  0  0  0  0  0  0
    7.4740   -0.2860    0.5120 C   0  0  0  0  0  0  0  0  0  0  0  0
  1  2  2  0
  2  3  1  0
  2  4  1  0
  4  5  2  0
  4 31  1  0
  5  6  1  0
  6  7  2  0
  7  8  1  0
  7 30  1  0
  8  9  2  0
  8 10  1  0
 10 11  1  0
 11 12  2  0
 11 29  1  0
 12 13  1  0
 13 14  2  0
 14 15  1  0
 14 27  1  0
 16 15  1  6
 16 17  1  0
 16 25  1  0
 17 18  1  0
 18 19  1  1
 18 21  1  0
 19 20  1  0
 21 22  1  6
 21 23  1  0
 23 24  1  1
 23 25  1  0
 25 26  1  1
 27 28  1  0
 27 29  2  0
 30 31  2  0
M  END
