
     RDKit          3D

 30 33  0  0  0  0  0  0  0  0999 V2000
    0.2310   -3.5090    0.4600 C   0  0  0  0  0  0  0  0  0  0  0  0
   -1.0130   -3.4060    0.1680 C   0  0  0  0  0  0  0  0  0  0  0  0
   -1.9990   -2.4220    0.0650 C   0  0  0  0  0  0  0  0  0  0  0  0
   -3.2480   -2.9160   -0.2630 C   0  0  0  0  0  0  0  0  0  0  0  0
   -3.4620   -4.3340   -0.4700 C   0  0  0  0  0  0  0  0  0  0  0  0
   -1.9690   -1.0080    0.2820 C   0  0  0  0  0  0  0  0  0  0  0  0
   -3.6960   -0.2760    0.1530 Cl  0  0  0  0  0  0  0  0  0  0  0  0
   -1.1510   -0.0770    0.5380 C   0  0  0  0  0  0  0  0  0  0  0  0
    0.2720   -0.1150    0.7220 C   0  0  0  0  0  0  0  0  0  0  0  0
    1.2290   -0.4510   -0.1630 N   0  0  0  0  0  0  0  0  0  0  0  0
    2.4520   -0.3650    0.3770 C   0  0  0  0  0  0  0  0  0  0  0  0
    3.7600   -0.6350   -0.1980 C   0  0  0  0  0  0  0  0  0  0  0  0
    4.9160   -0.4780    0.5310 C   0  0  0  0  0  0  0  0  0  0  0  0
    6.1320   -0.7510   -0.0520 C   0  0  0  0  0  0  0  0  0  0  0  0
    6.2180   -1.1810   -1.3580 C   0  0  0  0  0  0  0  0  0  0  0  0
    7.4860   -1.4660   -1.9660 N   0  0  0  0  0  0  0  0  0  0  0  0
    5.0650   -1.3220   -2.0390 N   0  0  0  0  0  0  0  0  0  0  0  0
    3.8630   -1.0640   -1.4980 C   0  0  0  0  0  0  0  0  0  0  0  0
    2.2200    0.0450    1.6590 N   0  0  0  0  0  0  0  0  0  0  0  0
    0.9520    0.1810    1.8320 O   0  0  0  0  0  0  0  0  0  0  0  0
   -1.7850    1.3050    0.6710 C   0  0  0  0  0  0  0  0  0  0  0  0
   -2.5940    1.9000    0.2070 N   0  0  0  0  0  0  0  0  0  0  0  0
   -3.0100    3.1470    0.4870 C   0  0  0  0  0  0  0  0  0  0  0  0
   -2.2980    3.7340    1.5060 C   0  0  0  0  0  0  0  0  0  0  0  0
   -1.1260    2.4810    1.9630 S   0  0  0  0  0  0  0  0  0  0  0  0
   -2.9060    5.3600    1.7990 S   0  0  1  0  0  0  0  0  0  0  0  0
   -3.7600    5.4460    2.9970 O   0  0  0  0  0  0  0  0  0  0  0  0
   -1.8250    6.3840    1.7470 O   0  0  0  0  0  0  0  0  0  0  0  0
   -3.8210    5.4370    0.2790 C   0  0  0  0  0  0  0  0  0  0  0  0
   -4.0740    4.0210   -0.0610 C   0  0  0  0  0  0  0  0  0  0  0  0
  1  2  2  0
  2  3  1  0
  3  4  2  3
  3  6  1  0
  4  5  1  0
  6  7  1  0
  6  8  2  3
  8  9  1  0
  8 21  1  0
  9 10  2  0
  9 20  1  0
 10 11  1  0
 11 12  1  0
 11 19  2  0
 12 13  2  0
 12 18  1  0
 13 14  1  0
 14 15  2  0
 15 16  1  0
 15 17  1  0
 17 18  2  0
 19 20  1  0
 21 22  2  0
 21 25  1  0
 22 23  1  0
 23 24  2  0
 23 30  1  0
 24 25  1  0
 24 26  1  0
 26 27  2  0
 26 28  2  0
 26 29  1  6
 29 30  1  0
M  END
