
     RDKit          3D

 30 33  0  0  0  0  0  0  0  0999 V2000
    8.5600   -0.3840    4.0090 C   0  0  0  0  0  0  0  0  0  0  0  0
    7.7460   -0.7810    2.8220 C   0  0  0  0  0  0  0  0  0  0  0  0
    6.4940   -0.4000    2.7600 C   0  0  0  0  0  0  0  0  0  0  0  0
    5.7030   -0.8040    1.5740 C   0  0  0  0  0  0  0  0  0  0  0  0
    6.2560   -1.4830    0.6910 O   0  0  0  0  0  0  0  0  0  0  0  0
    4.3630   -0.4440    1.4220 N   0  0  0  0  0  0  0  0  0  0  0  0
    3.4960   -0.7590    0.3490 C   0  0  0  0  0  0  0  0  0  0  0  0
    3.9080   -1.5010   -0.7290 C   0  0  0  0  0  0  0  0  0  0  0  0
    2.9720   -1.7440   -1.7140 C   0  0  0  0  0  0  0  0  0  0  0  0
    1.6650   -1.2500   -1.6060 C   0  0  0  0  0  0  0  0  0  0  0  0
    1.2660   -0.5280   -0.5590 N   0  0  0  0  0  0  0  0  0  0  0  0
   -0.0290    0.0000   -0.3850 N   0  0  0  0  0  0  0  0  0  0  0  0
   -1.1020   -0.1410   -1.2700 C   0  0  0  0  0  0  0  0  0  0  0  0
   -1.0010   -0.7700   -2.3290 O   0  0  0  0  0  0  0  0  0  0  0  0
   -2.4180    0.4760   -0.9490 C   0  0  0  0  0  0  0  0  0  0  0  0
   -2.7920    1.1990    0.1150 C   0  0  0  0  0  0  0  0  0  0  0  0
   -4.1010    1.6470    0.1390 C   0  0  0  0  0  0  0  0  0  0  0  0
   -4.7710    2.4760    1.2180 C   0  0  0  0  0  0  0  0  0  0  0  0
   -6.4460    2.6690    0.5710 S   0  0  0  0  0  0  0  0  0  0  0  0
   -6.1670    1.7420   -0.9120 C   0  0  0  0  0  0  0  0  0  0  0  0
   -7.1840    1.5290   -1.8930 N   0  0  0  0  0  0  0  0  0  0  0  0
   -7.7850    2.4570   -2.6340 N   0  0  0  0  0  0  0  0  0  0  0  0
   -8.6950    1.8800   -3.4520 C   0  0  0  0  0  0  0  0  0  0  0  0
   -8.6370    0.5150   -3.1850 C   0  0  0  0  0  0  0  0  0  0  0  0
   -7.6810    0.3490   -2.2070 C   0  0  0  0  0  0  0  0  0  0  0  0
   -7.2230   -1.1900   -1.5150 Cl  0  0  0  0  0  0  0  0  0  0  0  0
   -4.9000    1.4000   -0.7720 C   0  0  0  0  0  0  0  0  0  0  0  0
   -3.8480    0.3950   -1.9380 S   0  0  0  0  0  0  0  0  0  0  0  0
    2.1790   -0.2940    0.3980 C   0  0  0  0  0  0  0  0  0  0  0  0
    1.8150    0.3950    1.4080 O   0  0  0  0  0  0  0  0  0  0  0  0
  1  2  1  0
  2  3  2  3
  3  4  1  0
  4  5  2  0
  4  6  1  0
  6  7  1  0
  7  8  2  0
  7 29  1  0
  8  9  1  0
  9 10  2  0
 10 11  1  0
 11 12  1  0
 11 29  1  0
 12 13  1  0
 13 14  2  0
 13 15  1  0
 15 16  2  0
 15 28  1  0
 16 17  1  0
 17 18  2  0
 17 27  1  0
 18 19  1  0
 19 20  1  0
 20 21  1  0
 20 27  2  0
 21 22  1  0
 21 25  1  0
 22 23  2  0
 23 24  1  0
 24 25  2  0
 25 26  1  0
 27 28  1  0
 29 30  2  0
M  END
