
     RDKit          3D

 29 33  0  0  0  0  0  0  0  0999 V2000
   -4.0750   -2.5580   -0.9130 C   0  0  0  0  0  0  0  0  0  0  0  0
   -3.6080   -1.4730   -1.8240 C   0  0  2  0  0  0  0  0  0  0  0  0
   -2.8670   -0.3770   -1.0940 C   0  0  0  0  0  0  0  0  0  0  0  0
   -3.7790    0.4490   -0.3200 C   0  0  0  0  0  0  0  0  0  0  0  0
   -5.0170    0.5400   -0.7850 C   0  0  0  0  0  0  0  0  0  0  0  0
   -6.0340    1.3380   -0.1060 C   0  0  0  0  0  0  0  0  0  0  0  0
   -5.9660    1.2660    1.3970 C   0  0  0  0  0  0  0  0  0  0  0  0
   -4.6080    0.8410    1.9050 C   0  0  0  0  0  0  0  0  0  0  0  0
   -3.5330    1.2210    0.9370 C   0  0  2  0  0  0  0  0  0  0  0  0
   -3.3640    2.7140    0.7670 C   0  0  0  0  0  0  0  0  0  0  0  0
   -2.4400    2.6200    1.9930 C   0  0  0  0  0  0  0  0  0  0  0  0
   -2.1640    1.1840    1.5080 C   0  0  2  0  0  0  0  0  0  0  0  0
   -1.0930    1.2690    0.5870 O   0  0  0  0  0  0  0  0  0  0  0  0
    0.0660    0.5390    0.7350 C   0  0  0  0  0  0  0  0  0  0  0  0
    0.1380   -0.2200    1.7340 O   0  0  0  0  0  0  0  0  0  0  0  0
    1.2270    0.5810   -0.1870 C   0  0  2  0  0  0  0  0  0  0  0  0
    1.7290    2.0100   -0.1810 C   0  0  0  0  0  0  0  0  0  0  0  0
    0.8300    0.1530   -1.5810 C   0  0  0  0  0  0  0  0  0  0  0  0
    1.9650    0.3600   -2.5350 C   0  0  0  0  0  0  0  0  0  0  0  0
    3.3190    0.1630   -1.9520 C   0  0  0  0  0  0  0  0  0  0  0  0
    3.3260   -0.7140   -0.7250 C   0  0  1  0  0  0  0  0  0  0  0  0
    4.5930   -0.6280   -0.1560 O   0  0  0  0  0  0  0  0  0  0  0  0
    5.2840   -1.8320   -0.2070 C   0  0  2  0  0  0  0  0  0  0  0  0
    5.5180   -2.2920    1.1990 C   0  0  0  0  0  0  0  0  0  0  0  0
    6.9820   -1.9400    1.4080 C   0  0  0  0  0  0  0  0  0  0  0  0
    7.5060   -2.0100   -0.0010 C   0  0  0  0  0  0  0  0  0  0  0  0
    6.4740   -1.7710   -0.8640 O   0  0  0  0  0  0  0  0  0  0  0  0
    2.3190   -0.3130    0.2960 C   0  0  0  0  0  0  0  0  0  0  0  0
   -5.0970   -0.4690   -2.2650 S   0  0  0  0  0  0  0  0  0  0  0  0
  2  1  1  1
  2  3  1  0
  2 29  1  0
  3  4  1  0
  4  5  2  0
  4  9  1  0
  5  6  1  0
  5 29  1  0
  6  7  1  0
  7  8  1  0
  9  8  1  1
  9 10  1  0
  9 12  1  0
 10 11  1  0
 11 12  1  0
 12 13  1  6
 13 14  1  0
 14 15  2  0
 14 16  1  0
 16 17  1  6
 16 18  1  0
 16 28  1  0
 18 19  1  0
 19 20  1  0
 20 21  1  0
 21 22  1  1
 21 28  1  0
 23 22  1  1
 23 24  1  0
 23 27  1  0
 24 25  1  0
 25 26  1  0
 26 27  1  0
M  END
