
     RDKit          3D

 29 32  0  0  0  0  0  0  0  0999 V2000
    2.8100    0.9980    2.4310 C   0  0  0  0  0  0  0  0  0  0  0  0
    1.9100    1.2870    1.2080 C   0  0  0  0  0  0  0  0  0  0  0  0
    2.6370    1.0460   -0.0550 C   0  0  2  0  0  0  0  0  0  0  0  0
    1.9670    1.2470   -1.3660 C   0  0  0  0  0  0  0  0  0  0  0  0
    1.9790   -0.1950   -1.9450 C   0  0  0  0  0  0  0  0  0  0  0  0
    1.9620   -0.8900   -0.5590 C   0  0  2  0  0  0  0  0  0  0  0  0
    3.0480   -0.3130   -0.0130 O   0  0  0  0  0  0  0  0  0  0  0  0
    1.5270   -2.2310   -0.5460 C   0  0  1  0  0  0  0  0  0  0  0  0
    2.2010   -3.4800   -0.8220 C   0  0  0  0  0  0  0  0  0  0  0  0
    1.1070   -4.5500   -0.9130 C   0  0  0  0  0  0  0  0  0  0  0  0
   -0.0390   -4.4760   -0.0060 C   0  0  0  0  0  0  0  0  0  0  0  0
   -0.4650   -3.0860    0.4230 C   0  0  2  0  0  0  0  0  0  0  0  0
    0.8480   -2.4950    0.8230 C   0  0  0  0  0  0  0  0  0  0  0  0
   -1.4700   -2.9800    1.2860 O   0  0  0  0  0  0  0  0  0  0  0  0
   -2.3670   -1.9570    1.1070 C   0  0  2  0  0  0  0  0  0  0  0  0
   -3.3840   -2.1800    0.0150 C   0  0  0  0  0  0  0  0  0  0  0  0
   -4.4560   -1.1260    0.2050 C   0  0  0  0  0  0  0  0  0  0  0  0
   -3.8350    0.2270   -0.1780 C   0  0  0  0  0  0  0  0  0  0  0  0
   -2.7740    0.5220    0.8190 C   0  0  2  0  0  0  0  0  0  0  0  0
   -1.9350    1.7450    0.5230 C   0  0  0  0  0  0  0  0  0  0  0  0
   -2.6710    2.7030   -0.3190 C   0  0  0  0  0  0  0  0  0  0  0  0
   -1.8510    3.5940   -1.1750 C   0  0  0  0  0  0  0  0  0  0  0  0
   -2.5810    4.1890   -2.0600 O   0  0  0  0  0  0  0  0  0  0  0  0
   -0.5400    3.8480   -1.1580 O   0  0  0  0  0  0  0  0  0  0  0  0
    0.3380    4.4180   -0.2310 C   0  0  0  0  0  0  0  0  0  0  0  0
    1.7660    4.3040   -0.6990 C   0  0  0  0  0  0  0  0  0  0  0  0
    2.9580    3.6460    0.4010 S   0  0  0  0  0  0  0  0  0  0  0  0
    3.7540    2.0580   -0.0710 C   0  0  0  0  0  0  0  0  0  0  0  0
   -1.7470   -0.6190    0.9110 C   0  0  0  0  0  0  0  0  0  0  0  0
  1  2  1  0
  3  2  1  1
  3  4  1  0
  3  7  1  0
  3 28  1  0
  4  5  1  0
  6  5  1  6
  6  7  1  0
  6  8  1  0
  8  9  1  1
  8 13  1  0
  9 10  1  0
 10 11  1  0
 12 11  1  1
 12 13  1  0
 12 14  1  0
 14 15  1  0
 15 16  1  6
 15 29  1  0
 16 17  1  0
 17 18  1  0
 19 18  1  6
 19 20  1  0
 19 29  1  0
 20 21  1  0
 21 22  1  0
 22 23  2  0
 22 24  1  0
 24 25  1  0
 25 26  1  0
 26 27  1  0
 27 28  1  0
M  END
