
     RDKit          3D

 29 33  0  0  0  0  0  0  0  0999 V2000
    2.4350   -2.5070    2.1060 C   0  0  0  0  0  0  0  0  0  0  0  0
    1.2210   -2.1730    1.3010 C   0  0  0  0  0  0  0  0  0  0  0  0
    1.5580   -1.5300   -0.0270 C   0  0  1  0  0  0  0  0  0  0  0  0
    2.3030   -0.2800    0.2220 C   0  0  0  0  0  0  0  0  0  0  0  0
    2.5220    0.0560    1.3740 O   0  0  0  0  0  0  0  0  0  0  0  0
    2.8060    0.6040   -0.8680 C   0  0  1  0  0  0  0  0  0  0  0  0
    2.7780    2.0800   -0.5800 C   0  0  2  0  0  0  0  0  0  0  0  0
    2.8990    3.0700   -1.7070 C   0  0  0  0  0  0  0  0  0  0  0  0
    4.3850    3.1190   -1.9410 C   0  0  0  0  0  0  0  0  0  0  0  0
    4.8080    1.8480   -1.6400 O   0  0  0  0  0  0  0  0  0  0  0  0
    4.0650    1.3740   -0.5790 C   0  0  2  0  0  0  0  0  0  0  0  0
    4.7970    1.1270    0.7070 C   0  0  0  0  0  0  0  0  0  0  0  0
    2.4130   -2.5320   -0.8120 C   0  0  0  0  0  0  0  0  0  0  0  0
    1.6550   -3.2550   -1.8680 C   0  0  0  0  0  0  0  0  0  0  0  0
    0.2710   -3.6790   -1.4360 C   0  0  0  0  0  0  0  0  0  0  0  0
   -0.5450   -2.5240   -0.9270 C   0  0  0  0  0  0  0  0  0  0  0  0
    0.3360   -1.2850   -0.8670 C   0  0  1  0  0  0  0  0  0  0  0  0
   -0.4340   -0.0620   -0.4820 C   0  0  1  0  0  0  0  0  0  0  0  0
   -1.6330    0.1090   -1.3910 C   0  0  0  0  0  0  0  0  0  0  0  0
   -2.9420   -0.2270   -0.6670 C   0  0  0  0  0  0  0  0  0  0  0  0
   -3.1080    0.8450    0.3960 C   0  0  2  0  0  0  0  0  0  0  0  0
   -4.0150    0.4150    1.5090 C   0  0  0  0  0  0  0  0  0  0  0  0
   -5.4640    0.3640    1.0920 C   0  0  0  0  0  0  0  0  0  0  0  0
   -6.1040    1.7390    1.3110 C   0  0  0  0  0  0  0  0  0  0  0  0
   -4.7890    2.9440    0.9580 S   0  0  0  0  0  0  0  0  0  0  0  0
   -5.3810    4.1500    0.2850 O   0  0  0  0  0  0  0  0  0  0  0  0
   -3.6610    2.1180   -0.2020 C   0  0  0  0  0  0  0  0  0  0  0  0
   -1.7170    1.0540    0.9840 C   0  0  0  0  0  0  0  0  0  0  0  0
   -0.9350   -0.1000    0.8170 O   0  0  0  0  0  0  0  0  0  0  0  0
  1  2  1  0
  3  2  1  1
  3  4  1  0
  3 13  1  0
  3 17  1  0
  4  5  2  0
  6  4  1  1
  6  7  1  0
  6 11  1  0
  7  8  1  6
  7 11  1  0
  8  9  1  0
  9 10  1  0
 10 11  1  0
 11 12  1  1
 13 14  1  0
 14 15  1  0
 15 16  1  0
 17 16  1  1
 17 18  1  0
 18 19  1  6
 18 29  1  0
 19 20  1  0
 21 20  1  6
 21 22  1  0
 21 27  1  0
 21 28  1  0
 22 23  1  0
 23 24  1  0
 25 24  1  6
 25 26  2  0
 25 27  1  0
 28 29  1  0
M  END
