
     RDKit          3D

 28 30  0  0  0  0  0  0  0  0999 V2000
   10.1670    1.7200   -1.7940 C   0  0  0  0  0  0  0  0  0  0  0  0
    8.5370    0.9590   -2.0030 S   0  0  0  0  0  0  0  0  0  0  0  0
    7.5870    1.2270   -0.5340 C   0  0  0  0  0  0  0  0  0  0  0  0
    8.0740    1.8530    0.4210 O   0  0  0  0  0  0  0  0  0  0  0  0
    6.1960    0.6850   -0.4690 C   0  0  0  0  0  0  0  0  0  0  0  0
    5.7340    0.0590   -1.4450 O   0  0  0  0  0  0  0  0  0  0  0  0
    5.4170    0.8840    0.6880 N   0  0  0  0  0  0  0  0  0  0  0  0
    4.0990    0.4350    0.8780 C   0  0  0  0  0  0  0  0  0  0  0  0
    3.5870    0.4810    2.1860 C   0  0  0  0  0  0  0  0  0  0  0  0
    2.3130    0.0780    2.4510 C   0  0  0  0  0  0  0  0  0  0  0  0
    1.4910   -0.3820    1.4600 C   0  0  0  0  0  0  0  0  0  0  0  0
    2.0100   -0.4190    0.1880 C   0  0  0  0  0  0  0  0  0  0  0  0
    3.3020   -0.0200   -0.1300 C   0  0  0  0  0  0  0  0  0  0  0  0
    0.9880   -0.9250   -0.6530 N   0  0  0  0  0  0  0  0  0  0  0  0
   -0.0760   -1.3740    0.1870 C   0  0  2  0  0  0  0  0  0  0  0  0
   -1.3720   -0.8000   -0.2930 C   0  0  0  0  0  0  0  0  0  0  0  0
   -1.3610   -0.0540   -1.2940 O   0  0  0  0  0  0  0  0  0  0  0  0
   -2.5980   -1.0750    0.3490 N   0  0  0  0  0  0  0  0  0  0  0  0
   -3.8730   -0.6010   -0.0010 C   0  0  0  0  0  0  0  0  0  0  0  0
   -4.1510    0.2300   -1.0540 C   0  0  0  0  0  0  0  0  0  0  0  0
   -5.4470    0.6670   -1.3500 C   0  0  0  0  0  0  0  0  0  0  0  0
   -5.7240    1.5680   -2.4960 C   0  0  0  0  0  0  0  0  0  0  0  0
   -6.4920    0.2530   -0.5600 C   0  0  0  0  0  0  0  0  0  0  0  0
   -6.2260   -0.5980    0.5220 C   0  0  0  0  0  0  0  0  0  0  0  0
   -7.3790   -1.0280    1.3580 C   0  0  0  0  0  0  0  0  0  0  0  0
   -4.9490   -1.0160    0.7970 C   0  0  0  0  0  0  0  0  0  0  0  0
   -4.7340   -1.8730    1.8990 N   0  0  0  0  0  0  0  0  0  0  0  0
    0.1670   -0.8400    1.5060 N   0  0  0  0  0  0  0  0  0  0  0  0
  1  2  1  0
  2  3  1  0
  3  4  2  0
  3  5  1  0
  5  6  2  0
  5  7  1  0
  7  8  1  0
  8  9  2  0
  8 13  1  0
  9 10  1  0
 10 11  2  0
 11 12  1  0
 11 28  1  0
 12 13  2  0
 12 14  1  0
 14 15  1  0
 15 16  1  6
 15 28  1  0
 16 17  2  0
 16 18  1  0
 18 19  1  0
 19 20  2  0
 19 26  1  0
 20 21  1  0
 21 22  1  0
 21 23  2  0
 23 24  1  0
 24 25  1  0
 24 26  2  0
 26 27  1  0
M  CHG  1  28   1
M  END
