
     RDKit          3D

 29 31  0  0  0  0  0  0  0  0999 V2000
    7.7830   -0.7840    1.3600 C   0  0  0  0  0  0  0  0  0  0  0  0
    6.4470   -0.2720    1.0440 C   0  0  0  0  0  0  0  0  0  0  0  0
    5.9860    0.9450    1.1190 C   0  0  0  0  0  0  0  0  0  0  0  0
    4.6340    1.1560    0.7440 C   0  0  0  0  0  0  0  0  0  0  0  0
    3.9580    2.5150    0.7690 C   0  0  0  0  0  0  0  0  0  0  0  0
    3.9450    0.1120    0.3490 C   0  0  0  0  0  0  0  0  0  0  0  0
    2.5790   -0.0500   -0.0960 C   0  0  0  0  0  0  0  0  0  0  0  0
    1.5350    0.6060    0.4860 C   0  0  0  0  0  0  0  0  0  0  0  0
    0.2430    0.4020   -0.0080 C   0  0  0  0  0  0  0  0  0  0  0  0
   -0.0210   -0.4390   -1.0650 C   0  0  0  0  0  0  0  0  0  0  0  0
   -1.3710   -0.6700   -1.6060 C   0  0  1  0  0  0  0  0  0  0  0  0
   -1.3760   -0.6200   -3.0520 N   0  0  0  0  0  0  0  0  0  0  0  0
   -1.9250   -1.9980   -1.1000 C   0  0  0  0  0  0  0  0  0  0  0  0
   -2.0040   -1.9770    0.3970 C   0  0  0  0  0  0  0  0  0  0  0  0
   -2.8930   -0.8920    0.8200 N   0  0  0  0  0  0  0  0  0  0  0  0
   -4.2600   -0.8270    0.4380 C   0  0  0  0  0  0  0  0  0  0  0  0
   -4.7120   -1.7430   -0.2920 O   0  0  0  0  0  0  0  0  0  0  0  0
   -5.1490    0.2500    0.8550 C   0  0  0  0  0  0  0  0  0  0  0  0
   -4.7470    1.2550    1.6470 N   0  0  0  0  0  0  0  0  0  0  0  0
   -5.5610    2.2460    2.0310 N   0  0  0  0  0  0  0  0  0  0  0  0
   -6.8580    2.2650    1.6170 C   0  0  0  0  0  0  0  0  0  0  0  0
   -7.6100    3.2120    1.9930 O   0  0  0  0  0  0  0  0  0  0  0  0
   -7.2840    1.2710    0.8240 N   0  0  0  0  0  0  0  0  0  0  0  0
   -6.4580    0.2690    0.4370 C   0  0  0  0  0  0  0  0  0  0  0  0
   -6.8860   -0.6580   -0.3120 O   0  0  0  0  0  0  0  0  0  0  0  0
    1.0620   -1.1040   -1.6520 C   0  0  0  0  0  0  0  0  0  0  0  0
    2.3320   -0.8910   -1.1520 C   0  0  0  0  0  0  0  0  0  0  0  0
    5.1020   -1.2470    0.4590 S   0  0  0  0  0  0  0  0  0  0  0  0
    5.4090   -1.6800   -0.9870 O   0  0  0  0  0  0  0  0  0  0  0  0
  1  2  1  0
  2  3  2  0
 28  2  1  6
  3  4  1  0
  4  5  1  0
  4  6  2  0
  6  7  1  0
  6 28  1  0
  7  8  2  0
  7 27  1  0
  8  9  1  0
  9 10  2  0
 10 11  1  0
 10 26  1  0
 11 12  1  6
 11 13  1  0
 13 14  1  0
 14 15  1  0
 15 16  1  0
 16 17  2  0
 16 18  1  0
 18 19  2  0
 18 24  1  0
 19 20  1  0
 20 21  1  0
 21 22  2  0
 21 23  1  0
 23 24  1  0
 24 25  2  0
 26 27  2  0
 28 29  2  0
M  CHG  1  12   1
M  END
