
     RDKit          3D

 29 32  0  0  0  0  0  0  0  0999 V2000
    5.1840    2.9260    0.6110 C   0  0  0  0  0  0  0  0  0  0  0  0
    3.8720    3.1710   -0.0220 C   0  0  0  0  0  0  0  0  0  0  0  0
    3.0510    2.0990   -0.2410 C   0  0  0  0  0  0  0  0  0  0  0  0
    3.4820    0.8080    0.1410 C   0  0  0  0  0  0  0  0  0  0  0  0
    3.0030   -0.3770    0.0930 C   0  0  0  0  0  0  0  0  0  0  0  0
    1.7000   -0.7500   -0.4460 C   0  0  0  0  0  0  0  0  0  0  0  0
    1.3080   -2.0070   -0.4440 C   0  0  0  0  0  0  0  0  0  0  0  0
    2.1100   -3.0980    0.0760 C   0  0  0  0  0  0  0  0  0  0  0  0
    3.4190   -2.7300    0.6200 N   0  0  0  0  0  0  0  0  0  0  0  0
    3.8690   -1.5350    0.6530 C   0  0  0  0  0  0  0  0  0  0  0  0
    5.1350   -1.2650    1.1910 C   0  0  0  0  0  0  0  0  0  0  0  0
    5.6840   -2.9310    1.6790 S   0  0  0  0  0  0  0  0  0  0  0  0
    4.2050   -3.7760    1.1270 C   0  0  0  0  0  0  0  0  0  0  0  0
    3.9640   -4.9790    1.1900 O   0  0  0  0  0  0  0  0  0  0  0  0
   -0.0600   -2.1140   -1.0510 C   0  0  0  0  0  0  0  0  0  0  0  0
   -0.7020   -3.1900   -1.1890 O   0  0  0  0  0  0  0  0  0  0  0  0
   -0.4670   -0.8330   -1.4190 N   0  0  0  0  0  0  0  0  0  0  0  0
   -1.6980   -0.4080   -2.0400 C   0  0  0  0  0  0  0  0  0  0  0  0
   -2.6690   -0.0910   -0.9180 C   0  0  0  0  0  0  0  0  0  0  0  0
   -2.2740   -0.2390    0.2380 O   0  0  0  0  0  0  0  0  0  0  0  0
   -3.9600    0.3510   -1.2400 N   0  0  0  0  0  0  0  0  0  0  0  0
   -4.9300    0.6750   -0.2750 C   0  0  0  0  0  0  0  0  0  0  0  0
   -6.2460    0.8330   -0.7420 C   0  0  0  0  0  0  0  0  0  0  0  0
   -7.2640    1.1610    0.0980 C   0  0  0  0  0  0  0  0  0  0  0  0
   -7.0530    1.3530    1.4460 C   0  0  0  0  0  0  0  0  0  0  0  0
   -5.7600    1.1940    1.8830 C   0  0  0  0  0  0  0  0  0  0  0  0
   -4.6970    0.8590    1.0470 C   0  0  0  0  0  0  0  0  0  0  0  0
    0.6180    0.0310   -1.0490 C   0  0  0  0  0  0  0  0  0  0  0  0
    0.5530    1.2360   -1.2510 O   0  0  0  0  0  0  0  0  0  0  0  0
  1  2  1  0
  2  3  2  3
  3  4  1  0
  4  5  2  3
  5  6  1  0
  5 10  1  0
  6  7  2  0
  6 28  1  0
  7  8  1  0
  7 15  1  0
  8  9  1  0
  9 10  1  0
  9 13  1  0
 10 11  2  0
 11 12  1  0
 12 13  1  0
 13 14  2  0
 15 16  2  0
 15 17  1  0
 17 18  1  0
 17 28  1  0
 18 19  1  0
 19 20  2  0
 19 21  1  0
 21 22  1  0
 22 23  2  0
 22 27  1  0
 23 24  1  0
 24 25  2  0
 25 26  1  0
 26 27  2  0
 28 29  2  0
M  END
