
     RDKit          3D

 29 31  0  0  0  0  0  0  0  0999 V2000
    3.0570    0.7140   -2.2380 C   0  0  0  0  0  0  0  0  0  0  0  0
    3.6950    0.3430   -0.9230 C   0  0  0  0  0  0  0  0  0  0  0  0
    3.0880   -0.0590    0.1600 C   0  0  0  0  0  0  0  0  0  0  0  0
    1.6580   -0.2690    0.4320 C   0  0  0  0  0  0  0  0  0  0  0  0
    1.3520   -0.6780    1.6160 O   0  0  0  0  0  0  0  0  0  0  0  0
    0.5980   -0.0730   -0.4580 N   0  0  0  0  0  0  0  0  0  0  0  0
   -0.7990   -0.3240   -0.0490 C   0  0  2  0  0  0  0  0  0  0  0  0
   -1.4230   -1.3350   -0.9650 C   0  0  0  0  0  0  0  0  0  0  0  0
   -2.3250   -2.2780   -0.1800 C   0  0  0  0  0  0  0  0  0  0  0  0
   -2.7400   -1.4700    1.3670 S   0  0  0  0  0  0  0  0  0  0  0  0
   -4.4770   -1.2740    1.6270 C   0  0  0  0  0  0  0  0  0  0  0  0
   -4.9100   -1.4540    2.8160 O   0  0  0  0  0  0  0  0  0  0  0  0
   -5.4210   -0.9350    0.6210 N   0  0  0  0  0  0  0  0  0  0  0  0
   -6.7770   -1.4700    0.8290 C   0  0  0  0  0  0  0  0  0  0  0  0
   -5.1050   -0.1290   -0.5270 C   0  0  0  0  0  0  0  0  0  0  0  0
   -4.8080    1.2690   -0.1240 C   0  0  0  0  0  0  0  0  0  0  0  0
   -5.1140    1.6230    1.0390 O   0  0  0  0  0  0  0  0  0  0  0  0
   -4.2000    2.2240   -0.9770 N   0  0  0  0  0  0  0  0  0  0  0  0
   -3.0920    1.9530   -1.8310 C   0  0  0  0  0  0  0  0  0  0  0  0
   -3.1410    2.3690   -3.0400 O   0  0  0  0  0  0  0  0  0  0  0  0
   -1.9220    1.2540   -1.4550 N   0  0  0  0  0  0  0  0  0  0  0  0
   -1.5850    0.9520   -0.0780 C   0  0  0  0  0  0  0  0  0  0  0  0
    4.1150   -0.3120    1.2160 C   0  0  2  0  0  0  0  0  0  0  0  0
    3.8620    0.5220    2.3850 N   0  0  0  0  0  0  0  0  0  0  0  0
    5.4040   -0.0040    0.6030 C   0  0  0  0  0  0  0  0  0  0  0  0
    6.7250    0.0220    0.8700 C   0  0  0  0  0  0  0  0  0  0  0  0
    7.4000    0.4770   -0.3570 C   0  0  0  0  0  0  0  0  0  0  0  0
    6.3150    0.6960   -1.3230 C   0  0  0  0  0  0  0  0  0  0  0  0
    5.1600    0.4120   -0.7480 C   0  0  0  0  0  0  0  0  0  0  0  0
  1  2  1  0
  2  3  2  0
  2 29  1  0
  3  4  1  0
  3 23  1  0
  4  5  2  0
  4  6  1  0
  7  6  1  6
  7  8  1  0
  7 22  1  0
  8  9  1  0
  9 10  1  0
 10 11  1  0
 11 12  2  0
 11 13  1  0
 13 14  1  0
 13 15  1  0
 15 16  1  0
 16 17  2  0
 16 18  1  0
 18 19  1  0
 19 20  2  0
 19 21  1  0
 21 22  1  0
 23 24  1  1
 23 25  1  0
 25 26  2  0
 25 29  1  0
 26 27  1  0
 27 28  1  0
 28 29  2  0
M  CHG  1  24   1
M  END
