
     RDKit          3D

 29 32  0  0  0  0  0  0  0  0999 V2000
    8.5690   -2.7440   -0.4190 C   0  0  0  0  0  0  0  0  0  0  0  0
    7.8870   -1.5050   -0.2730 O   0  0  0  0  0  0  0  0  0  0  0  0
    6.5030   -1.4250   -0.2810 C   0  0  0  0  0  0  0  0  0  0  0  0
    5.8700   -2.4820   -0.4220 O   0  0  0  0  0  0  0  0  0  0  0  0
    5.8190   -0.1370   -0.1290 C   0  0  0  0  0  0  0  0  0  0  0  0
    6.5310    1.0270    0.0260 C   0  0  0  0  0  0  0  0  0  0  0  0
    5.8310    2.2060    0.1650 C   0  0  0  0  0  0  0  0  0  0  0  0
    4.4970    2.2890    0.1590 N   0  0  0  0  0  0  0  0  0  0  0  0
    3.7780    1.1700    0.0100 C   0  0  0  0  0  0  0  0  0  0  0  0
    2.3340    1.2200    0.0020 N   0  0  0  0  0  0  0  0  0  0  0  0
    1.5060    0.0760   -0.2520 C   0  0  0  0  0  0  0  0  0  0  0  0
    0.1960    0.4430   -0.9380 C   0  0  0  0  0  0  0  0  0  0  0  0
   -0.4820    1.5270   -0.2790 N   0  0  0  0  0  0  0  0  0  0  0  0
   -1.7180    1.0590    0.2640 C   0  0  0  0  0  0  0  0  0  0  0  0
   -2.7250    0.7070   -0.8010 C   0  0  2  0  0  0  0  0  0  0  0  0
   -2.9980    1.8410   -1.5790 O   0  0  0  0  0  0  0  0  0  0  0  0
   -3.9700    0.1150   -0.2810 C   0  0  0  0  0  0  0  0  0  0  0  0
   -4.1950   -0.0160    1.0100 C   0  0  0  0  0  0  0  0  0  0  0  0
   -5.3730   -0.5790    1.6280 C   0  0  0  0  0  0  0  0  0  0  0  0
   -6.4230   -1.0580    1.0060 C   0  0  0  0  0  0  0  0  0  0  0  0
   -7.5080   -1.5810    1.7390 O   0  0  0  0  0  0  0  0  0  0  0  0
   -8.6430   -2.1000    1.1470 C   0  0  0  0  0  0  0  0  0  0  0  0
   -8.7310   -2.1140   -0.1750 C   0  0  0  0  0  0  0  0  0  0  0  0
   -7.6140   -1.5750   -0.9850 C   0  0  0  0  0  0  0  0  0  0  0  0
   -6.5420   -1.0840   -0.4340 C   0  0  0  0  0  0  0  0  0  0  0  0
   -5.2290   -0.4430   -1.4220 S   0  0  0  0  0  0  0  0  0  0  0  0
    0.2860    2.1820    0.7310 C   0  0  0  0  0  0  0  0  0  0  0  0
    1.6970    2.4940    0.2710 C   0  0  0  0  0  0  0  0  0  0  0  0
    4.4460   -0.0270   -0.1330 C   0  0  0  0  0  0  0  0  0  0  0  0
  1  2  1  0
  2  3  1  0
  3  4  2  0
  3  5  1  0
  5  6  2  0
  5 29  1  0
  6  7  1  0
  7  8  2  0
  8  9  1  0
  9 10  1  0
  9 29  2  0
 10 11  1  0
 10 28  1  0
 11 12  1  0
 12 13  1  0
 13 14  1  0
 13 27  1  0
 14 15  1  0
 15 16  1  1
 15 17  1  0
 17 18  2  0
 17 26  1  0
 18 19  1  0
 19 20  2  0
 20 21  1  0
 20 25  1  0
 21 22  1  0
 22 23  2  0
 23 24  1  0
 24 25  2  0
 25 26  1  0
 27 28  1  0
M  END
