
     RDKit          3D

 29 32  0  0  0  0  0  0  0  0999 V2000
    6.0700   -2.6550   -0.4370 C   0  0  0  0  0  0  0  0  0  0  0  0
    4.9710   -1.7980    0.1780 C   0  0  0  0  0  0  0  0  0  0  0  0
    4.2760   -1.1420   -0.8390 O   0  0  0  0  0  0  0  0  0  0  0  0
    3.2010   -0.2730   -0.6380 C   0  0  0  0  0  0  0  0  0  0  0  0
    1.9310   -0.7910   -0.6280 C   0  0  0  0  0  0  0  0  0  0  0  0
    1.6820   -2.1370   -0.8110 O   0  0  0  0  0  0  0  0  0  0  0  0
    1.6180   -3.0500    0.2500 C   0  0  0  0  0  0  0  0  0  0  0  0
    0.8410    0.0860   -0.4240 C   0  0  0  0  0  0  0  0  0  0  0  0
   -0.4710   -0.5540   -0.4580 C   0  0  0  0  0  0  0  0  0  0  0  0
   -0.5800   -1.6190   -1.1840 O   0  0  0  0  0  0  0  0  0  0  0  0
   -1.6480   -0.1850    0.1920 N   0  0  0  0  0  0  0  0  0  0  0  0
   -2.9100   -0.9360    0.0460 C   0  0  1  0  0  0  0  0  0  0  0  0
   -3.2950   -1.5170    1.3440 C   0  0  0  0  0  0  0  0  0  0  0  0
   -4.3870   -0.8710    2.1000 C   0  0  0  0  0  0  0  0  0  0  0  0
   -4.2580    0.5850    2.3470 C   0  0  0  0  0  0  0  0  0  0  0  0
   -4.7680    1.2710    1.2200 O   0  0  0  0  0  0  0  0  0  0  0  0
   -4.7550    0.8670   -0.1090 C   0  0  0  0  0  0  0  0  0  0  0  0
   -5.6530    1.5440   -0.8740 N   0  0  0  0  0  0  0  0  0  0  0  0
   -5.7660    1.2720   -2.1810 C   0  0  0  0  0  0  0  0  0  0  0  0
   -4.9670    0.3200   -2.6910 N   0  0  0  0  0  0  0  0  0  0  0  0
   -4.0640   -0.3790   -1.9830 C   0  0  0  0  0  0  0  0  0  0  0  0
   -3.9340   -0.1110   -0.6310 C   0  0  0  0  0  0  0  0  0  0  0  0
    1.1030    1.4030   -0.2480 C   0  0  0  0  0  0  0  0  0  0  0  0
   -0.0550    2.3610   -0.0860 C   0  0  0  0  0  0  0  0  0  0  0  0
    2.4060    1.9350   -0.2570 C   0  0  0  0  0  0  0  0  0  0  0  0
    3.4300    1.0540   -0.4560 C   0  0  0  0  0  0  0  0  0  0  0  0
    4.9400    2.0010   -0.4340 S   0  0  0  0  0  0  0  0  0  0  0  0
    4.1120    3.6220   -0.7510 C   0  0  0  0  0  0  0  0  0  0  0  0
    2.8020    3.3230   -0.0590 C   0  0  0  0  0  0  0  0  0  0  0  0
  1  2  1  0
  2  3  1  0
  3  4  1  0
  4  5  2  0
  4 26  1  0
  5  6  1  0
  5  8  1  0
  6  7  1  0
  8  9  1  0
  8 23  2  0
  9 10  2  0
  9 11  1  0
 12 11  1  1
 12 13  1  0
 12 22  1  0
 13 14  1  0
 14 15  1  0
 15 16  1  0
 16 17  1  0
 17 18  2  0
 17 22  1  0
 18 19  1  0
 19 20  2  0
 20 21  1  0
 21 22  2  0
 23 24  1  0
 23 25  1  0
 25 26  2  0
 25 29  1  0
 26 27  1  0
 27 28  1  0
 28 29  1  0
M  END
