
     RDKit          3D

 29 32  0  0  0  0  0  0  0  0999 V2000
   -3.2400   -0.9350   -3.0390 C   0  0  0  0  0  0  0  0  0  0  0  0
   -3.3100   -1.3210   -1.5790 C   0  0  0  0  0  0  0  0  0  0  0  0
   -4.1250   -0.4060   -0.7550 C   0  0  0  0  0  0  0  0  0  0  0  0
   -3.7760    0.4660    0.1730 C   0  0  0  0  0  0  0  0  0  0  0  0
   -2.5090    0.8690    0.7200 C   0  0  0  0  0  0  0  0  0  0  0  0
   -2.6840    1.7380    1.7410 O   0  0  0  0  0  0  0  0  0  0  0  0
   -1.1740    0.6270    0.5000 N   0  0  0  0  0  0  0  0  0  0  0  0
   -0.2100    1.2480    1.4990 C   0  0  0  0  0  0  0  0  0  0  0  0
    0.8890    0.2570    1.6920 C   0  0  0  0  0  0  0  0  0  0  0  0
    1.7830    0.2690    0.4390 C   0  0  1  0  0  0  0  0  0  0  0  0
    2.4270   -0.8800    0.2950 O   0  0  0  0  0  0  0  0  0  0  0  0
    3.5630   -1.5520    0.2240 C   0  0  0  0  0  0  0  0  0  0  0  0
    3.5320   -2.9650    0.0340 C   0  0  0  0  0  0  0  0  0  0  0  0
    4.6790   -3.6510   -0.0380 C   0  0  0  0  0  0  0  0  0  0  0  0
    5.9010   -3.0340    0.0660 C   0  0  0  0  0  0  0  0  0  0  0  0
    5.9170   -1.7060    0.2440 N   0  0  0  0  0  0  0  0  0  0  0  0
    4.7960   -0.9480    0.3270 C   0  0  0  0  0  0  0  0  0  0  0  0
    4.9800    0.5300    0.5280 C   0  0  0  0  0  0  0  0  0  0  0  0
    6.3570    0.8250    0.5920 O   0  0  0  0  0  0  0  0  0  0  0  0
    6.4960    2.2130    0.7800 C   0  0  0  0  0  0  0  0  0  0  0  0
    0.8960    0.5280   -0.7830 C   0  0  0  0  0  0  0  0  0  0  0  0
   -0.5180   -0.0490   -0.5530 C   0  0  0  0  0  0  0  0  0  0  0  0
   -5.1000    1.0630    0.6850 C   0  0  0  0  0  0  0  0  0  0  0  0
   -5.6470    1.5500    1.7310 C   0  0  0  0  0  0  0  0  0  0  0  0
   -7.0150    1.9910    1.6570 C   0  0  0  0  0  0  0  0  0  0  0  0
   -7.6490    2.7780    2.3930 O   0  0  0  0  0  0  0  0  0  0  0  0
   -7.6120    1.0990    0.1880 S   0  0  0  0  0  0  0  0  0  0  0  0
   -5.9630    0.9890   -0.5530 C   0  0  2  0  0  0  0  0  0  0  0  0
   -5.5860   -0.3400   -0.9410 N   0  0  0  0  0  0  0  0  0  0  0  0
  1  2  1  0
  2  3  1  0
  3  4  2  0
  3 29  1  0
  4  5  1  0
  4 23  1  0
  5  6  2  0
  5  7  1  0
  7  8  1  0
  7 22  1  0
  8  9  1  0
  9 10  1  0
 10 11  1  6
 10 21  1  0
 11 12  1  0
 12 13  2  0
 12 17  1  0
 13 14  1  0
 14 15  2  0
 15 16  1  0
 16 17  2  0
 17 18  1  0
 18 19  1  0
 19 20  1  0
 21 22  1  0
 23 24  2  0
 23 28  1  0
 24 25  1  0
 25 26  2  0
 25 27  1  0
 27 28  1  0
 28 29  1  1
M  END
