
     RDKit          3D

 32 35  0  0  0  0  0  0  0  0999 V2000
    1.3690    0.7870    6.4240 C   0  0  0  0  0  0  0  0  0  0  0  0
    1.8120    0.9660    5.0940 O   0  0  0  0  0  0  0  0  0  0  0  0
    0.9010    0.7900    4.0700 C   0  0  0  0  0  0  0  0  0  0  0  0
   -0.4020    0.4500    4.3640 C   0  0  0  0  0  0  0  0  0  0  0  0
   -1.3130    0.2740    3.3580 C   0  0  0  0  0  0  0  0  0  0  0  0
   -2.9620   -0.1600    3.7970 Cl  0  0  0  0  0  0  0  0  0  0  0  0
   -0.9230    0.4400    2.0210 C   0  0  0  0  0  0  0  0  0  0  0  0
   -1.9260    0.2240    1.0500 N   0  0  0  0  0  0  0  0  0  0  0  0
   -1.7480    0.4250   -0.3300 C   0  0  0  0  0  0  0  0  0  0  0  0
   -0.6650    0.8360   -0.7930 O   0  0  0  0  0  0  0  0  0  0  0  0
   -2.8870    0.1450   -1.2590 C   0  0  0  0  0  0  0  0  0  0  0  0
   -3.9950   -0.3900   -0.5750 N   0  0  0  0  0  0  0  0  0  0  0  0
   -3.8940   -1.7220   -0.0950 C   0  0  0  0  0  0  0  0  0  0  0  0
   -4.5720   -2.7370   -0.9990 C   0  0  0  0  0  0  0  0  0  0  0  0
   -5.5860   -2.1790   -1.8310 N   0  0  0  0  0  0  0  0  0  0  0  0
   -6.2550   -1.0300   -1.2730 C   0  0  0  0  0  0  0  0  0  0  0  0
   -5.2880    0.0780   -0.9230 C   0  0  0  0  0  0  0  0  0  0  0  0
    0.3890    0.7810    1.7710 C   0  0  0  0  0  0  0  0  0  0  0  0
    1.3360    0.9650    2.7780 C   0  0  0  0  0  0  0  0  0  0  0  0
    2.6720    1.3150    2.5390 N   0  0  0  0  0  0  0  0  0  0  0  0
    3.2450    1.4490    1.2450 C   0  0  0  0  0  0  0  0  0  0  0  0
    2.9600    0.5570    0.3880 N   0  0  0  0  0  0  0  0  0  0  0  0
    3.3960    0.4680   -0.9450 C   0  0  0  0  0  0  0  0  0  0  0  0
    2.6770   -0.3870   -1.7740 C   0  0  0  0  0  0  0  0  0  0  0  0
    3.0390   -0.5380   -3.1030 C   0  0  0  0  0  0  0  0  0  0  0  0
    4.1080    0.1560   -3.6040 C   0  0  0  0  0  0  0  0  0  0  0  0
    4.5040    0.0370   -4.9150 C   0  0  0  0  0  0  0  0  0  0  0  0
    5.5470    0.7200   -5.3830 N   0  0  0  0  0  0  0  0  0  0  0  0
    6.2550    1.5500   -4.6050 C   0  0  0  0  0  0  0  0  0  0  0  0
    5.8920    1.6970   -3.2850 C   0  0  0  0  0  0  0  0  0  0  0  0
    4.8230    1.0130   -2.7600 C   0  0  0  0  0  0  0  0  0  0  0  0
    4.4360    1.1280   -1.4790 N   0  0  0  0  0  0  0  0  0  0  0  0
  1  2  1  0
  2  3  1  0
  3  4  2  0
  3 19  1  0
  4  5  1  0
  5  6  1  0
  5  7  2  0
  7  8  1  0
  7 18  1  0
  8  9  1  0
  9 10  2  0
  9 11  1  0
 11 12  1  0
 12 13  1  0
 12 17  1  0
 13 14  1  0
 14 15  1  0
 15 16  1  0
 16 17  1  0
 18 19  2  0
 19 20  1  0
 20 21  1  0
 21 22  2  3
 22 23  1  0
 23 24  2  0
 23 32  1  0
 24 25  1  0
 25 26  2  0
 26 27  1  0
 26 31  1  0
 27 28  2  0
 28 29  1  0
 29 30  2  0
 30 31  1  0
 31 32  2  0
M  CHG  1  32   1
M  END
