
     RDKit          3D

 32 35  0  0  0  0  0  0  0  0999 V2000
   -3.4350    3.9870    1.1330 C   0  0  0  0  0  0  0  0  0  0  0  0
   -3.0840    2.8190    2.0530 C   0  0  0  0  0  0  0  0  0  0  0  0
   -3.4800    1.5270    1.3560 C   0  0  0  0  0  0  0  0  0  0  0  0
   -4.7260    1.2360    1.0450 N   0  0  0  0  0  0  0  0  0  0  0  0
   -4.7120    0.1000    0.3030 C   0  0  0  0  0  0  0  0  0  0  0  0
   -5.8080   -0.5850   -0.1630 C   0  0  0  0  0  0  0  0  0  0  0  0
   -7.1740    0.0420   -0.0430 C   0  0  0  0  0  0  0  0  0  0  0  0
   -5.5920   -1.7560   -0.7640 N   0  0  0  0  0  0  0  0  0  0  0  0
   -4.3100   -2.1880   -0.8700 C   0  0  0  0  0  0  0  0  0  0  0  0
   -4.1200   -3.4980   -1.3590 C   0  0  0  0  0  0  0  0  0  0  0  0
   -2.8560   -4.0140   -1.3580 C   0  0  0  0  0  0  0  0  0  0  0  0
   -2.5860   -5.6480   -1.9400 Cl  0  0  0  0  0  0  0  0  0  0  0  0
   -1.7840   -3.3050   -0.8990 C   0  0  0  0  0  0  0  0  0  0  0  0
   -1.9430   -1.9930   -0.4040 C   0  0  0  0  0  0  0  0  0  0  0  0
   -3.2180   -1.4880   -0.4130 C   0  0  0  0  0  0  0  0  0  0  0  0
   -3.4240   -0.2850    0.1900 N   0  0  0  0  0  0  0  0  0  0  0  0
   -2.5870    0.5600    0.8070 C   0  0  0  0  0  0  0  0  0  0  0  0
   -1.1830    0.6240    1.1350 C   0  0  0  0  0  0  0  0  0  0  0  0
   -0.1540    0.5050    0.1810 N   0  0  0  0  0  0  0  0  0  0  0  0
    1.2310    0.4970    0.6380 C   0  0  0  0  0  0  0  0  0  0  0  0
    1.3910    0.4680    1.8830 O   0  0  0  0  0  0  0  0  0  0  0  0
    2.3430    0.5510   -0.3150 C   0  0  0  0  0  0  0  0  0  0  0  0
    2.0980    0.6720   -1.5520 O   0  0  0  0  0  0  0  0  0  0  0  0
    3.6660    0.4940    0.1650 N   0  0  0  0  0  0  0  0  0  0  0  0
    4.8420    0.6690   -0.6170 C   0  0  0  0  0  0  0  0  0  0  0  0
    4.7070    1.5370   -1.7020 C   0  0  0  0  0  0  0  0  0  0  0  0
    5.8400    1.8970   -2.3700 N   0  0  0  0  0  0  0  0  0  0  0  0
    7.0390    1.4560   -2.0260 C   0  0  0  0  0  0  0  0  0  0  0  0
    7.1510    0.6150   -0.9750 N   0  0  0  0  0  0  0  0  0  0  0  0
    6.0540    0.2240   -0.2710 C   0  0  0  0  0  0  0  0  0  0  0  0
    6.3020   -0.8130    0.8150 C   0  0  0  0  0  0  0  0  0  0  0  0
    6.0930   -2.1740    0.1740 C   0  0  0  0  0  0  0  0  0  0  0  0
  1  2  1  0
  2  3  1  0
  3  4  1  0
  3 17  2  0
  4  5  2  0
  5  6  1  0
  5 16  1  0
  6  7  1  0
  6  8  2  0
  8  9  1  0
  9 10  2  0
  9 15  1  0
 10 11  1  0
 11 12  1  0
 11 13  2  0
 13 14  1  0
 14 15  2  0
 15 16  1  0
 16 17  1  0
 17 18  1  0
 18 19  1  0
 19 20  1  0
 20 21  2  0
 20 22  1  0
 22 23  2  0
 22 24  1  0
 24 25  1  0
 25 26  2  0
 25 30  1  0
 26 27  1  0
 27 28  2  0
 28 29  1  0
 29 30  2  0
 30 31  1  0
 31 32  1  0
M  CHG  1  29   1
M  END
