
     RDKit          3D

 32 35  0  0  0  0  0  0  0  0999 V2000
   -5.9020   -1.9980   -0.5870 C   0  0  0  0  0  0  0  0  0  0  0  0
   -6.0990   -0.6490    0.0070 C   0  0  0  0  0  0  0  0  0  0  0  0
   -7.3800   -0.1990    0.2560 C   0  0  0  0  0  0  0  0  0  0  0  0
   -7.5700    1.0440    0.7270 C   0  0  0  0  0  0  0  0  0  0  0  0
   -6.5180    1.8380    0.9790 C   0  0  0  0  0  0  0  0  0  0  0  0
   -5.2130    1.4580    0.7730 C   0  0  0  0  0  0  0  0  0  0  0  0
   -5.0480    0.1660    0.2650 C   0  0  0  0  0  0  0  0  0  0  0  0
   -3.7120   -0.3230   -0.0460 C   0  0  0  0  0  0  0  0  0  0  0  0
   -2.5970    0.5060    0.1540 N   0  0  0  0  0  0  0  0  0  0  0  0
   -2.1410    0.8590    1.4100 C   0  0  0  0  0  0  0  0  0  0  0  0
   -0.6630    0.4860    1.5650 C   0  0  0  0  0  0  0  0  0  0  0  0
   -0.0950    0.3160    0.2630 N   0  0  0  0  0  0  0  0  0  0  0  0
    0.6630   -0.7320   -0.1540 C   0  0  0  0  0  0  0  0  0  0  0  0
    0.0470   -1.7430   -0.8610 N   0  0  0  0  0  0  0  0  0  0  0  0
    0.7160   -2.7850   -1.3690 C   0  0  0  0  0  0  0  0  0  0  0  0
    2.0420   -2.9260   -1.2070 C   0  0  0  0  0  0  0  0  0  0  0  0
    2.7360   -1.9580   -0.5100 C   0  0  0  0  0  0  0  0  0  0  0  0
    1.9820   -0.8310    0.0190 C   0  0  0  0  0  0  0  0  0  0  0  0
    2.8000    0.0010    0.8140 N   0  0  0  0  0  0  0  0  0  0  0  0
    3.9620    0.5260   -0.1060 C   0  0  0  0  0  0  0  0  0  0  0  0
    3.6940    0.4580   -1.1920 O   0  0  0  0  0  0  0  0  0  0  0  0
    5.0080    0.8760    0.7630 N   0  0  0  0  0  0  0  0  0  0  0  0
    6.2590    1.0490   -0.4730 C   0  0  0  0  0  0  0  0  0  0  0  0
    5.8050    1.1840   -1.4830 O   0  0  0  0  0  0  0  0  0  0  0  0
    7.5850    0.9730    0.0890 C   0  0  0  0  0  0  0  0  0  0  0  0
    8.2690   -0.2890    0.1710 C   0  0  0  0  0  0  0  0  0  0  0  0
    9.4870   -0.0870    0.6990 N   0  0  0  0  0  0  0  0  0  0  0  0
    9.5880    1.2010    0.9520 N   0  0  0  0  0  0  0  0  0  0  0  0
    8.4420    1.8770    0.5900 C   0  0  0  0  0  0  0  0  0  0  0  0
    8.0910    3.5530    0.7770 Cl  0  0  0  0  0  0  0  0  0  0  0  0
   -0.5360    1.4250   -0.6310 C   0  0  0  0  0  0  0  0  0  0  0  0
   -1.9650    1.0180   -1.0150 C   0  0  0  0  0  0  0  0  0  0  0  0
  1  2  1  0
  2  3  2  0
  2  7  1  0
  3  4  1  0
  4  5  2  0
  5  6  1  0
  6  7  2  0
  7  8  1  0
  8  9  1  0
  9 10  1  0
  9 32  1  0
 10 11  1  0
 11 12  1  0
 12 13  1  0
 12 31  1  0
 13 14  2  0
 13 18  1  0
 14 15  1  0
 15 16  2  0
 16 17  1  0
 17 18  2  0
 18 19  1  0
 19 20  1  0
 20 21  2  0
 20 22  1  0
 22 23  1  0
 23 24  2  0
 23 25  1  0
 25 26  2  0
 25 29  1  0
 26 27  1  0
 27 28  1  0
 28 29  2  0
 29 30  1  0
 31 32  1  0
M  CHG  1  14   1
M  END
