
     RDKit          3D

 32 35  0  0  0  0  0  0  0  0999 V2000
   -2.4350   -2.7600   -0.5470 C   0  0  0  0  0  0  0  0  0  0  0  0
   -3.5750   -1.9020   -0.1310 C   0  0  0  0  0  0  0  0  0  0  0  0
   -4.8600   -2.4000    0.0480 C   0  0  0  0  0  0  0  0  0  0  0  0
   -5.0970   -3.7430   -0.1670 O   0  0  0  0  0  0  0  0  0  0  0  0
   -5.9040   -1.5950    0.4320 C   0  0  0  0  0  0  0  0  0  0  0  0
   -5.7140   -0.2420    0.6590 C   0  0  0  0  0  0  0  0  0  0  0  0
   -4.4340    0.2920    0.4890 C   0  0  0  0  0  0  0  0  0  0  0  0
   -4.1280    1.6500    0.6930 N   0  0  0  0  0  0  0  0  0  0  0  0
   -5.1620    2.5710    0.3520 C   0  0  0  0  0  0  0  0  0  0  0  0
   -5.3180    2.7430   -1.1500 C   0  0  0  0  0  0  0  0  0  0  0  0
   -5.7180    1.2020   -1.9410 Cl  0  0  0  0  0  0  0  0  0  0  0  0
   -3.4050   -0.5530    0.0990 C   0  0  0  0  0  0  0  0  0  0  0  0
   -2.0970   -0.0210   -0.0780 N   0  0  0  0  0  0  0  0  0  0  0  0
   -1.1620    0.0300    0.9780 C   0  0  0  0  0  0  0  0  0  0  0  0
   -1.5570   -0.4330    2.1100 O   0  0  0  0  0  0  0  0  0  0  0  0
    0.1480    0.5310    0.9180 N   0  0  0  0  0  0  0  0  0  0  0  0
    0.5710    1.0590   -0.3520 C   0  0  0  0  0  0  0  0  0  0  0  0
    1.2900   -0.0080   -1.1650 C   0  0  0  0  0  0  0  0  0  0  0  0
    1.9800   -0.9910   -0.2130 C   0  0  0  0  0  0  0  0  0  0  0  0
    2.7990   -0.1920    0.6770 N   0  0  0  0  0  0  0  0  0  0  0  0
    4.1550   -0.0670    0.3000 C   0  0  0  0  0  0  0  0  0  0  0  0
    5.0850    0.6340    1.0340 C   0  0  0  0  0  0  0  0  0  0  0  0
    6.4090    0.7440    0.6430 C   0  0  0  0  0  0  0  0  0  0  0  0
    6.8360    0.1370   -0.5230 C   0  0  0  0  0  0  0  0  0  0  0  0
    8.1630    0.2320   -0.9410 C   0  0  0  0  0  0  0  0  0  0  0  0
    8.5070   -0.3760   -2.0720 N   0  0  0  0  0  0  0  0  0  0  0  0
    7.5940   -1.0600   -2.7850 C   0  0  0  0  0  0  0  0  0  0  0  0
    6.3100   -1.1580   -2.3910 N   0  0  0  0  0  0  0  0  0  0  0  0
    5.8850   -0.5600   -1.2410 C   0  0  0  0  0  0  0  0  0  0  0  0
    4.6100   -0.6490   -0.8360 N   0  0  0  0  0  0  0  0  0  0  0  0
    2.4040    0.4750    1.8760 C   0  0  0  0  0  0  0  0  0  0  0  0
    0.9140    0.4490    2.1260 C   0  0  0  0  0  0  0  0  0  0  0  0
  1  2  1  0
  2  3  2  0
  2 12  1  0
  3  4  1  0
  3  5  1  0
  5  6  2  0
  6  7  1  0
  7  8  1  0
  7 12  2  0
  8  9  1  0
  9 10  1  0
 10 11  1  0
 12 13  1  0
 13 14  1  0
 14 15  2  0
 14 16  1  0
 16 17  1  0
 16 32  1  0
 17 18  1  0
 18 19  1  0
 19 20  1  0
 20 21  1  0
 20 31  1  0
 21 22  2  0
 21 30  1  0
 22 23  1  0
 23 24  2  0
 24 25  1  0
 24 29  1  0
 25 26  2  0
 26 27  1  0
 27 28  2  0
 28 29  1  0
 29 30  2  0
 31 32  1  0
M  CHG  1   8   1
M  END
