
     RDKit          3D

 32 35  0  0  0  0  0  0  0  0999 V2000
   -7.1610    2.8260   -0.4830 C   0  0  0  0  0  0  0  0  0  0  0  0
   -7.0560    1.3220   -0.7540 C   0  0  0  0  0  0  0  0  0  0  0  0
   -5.6890    0.9280   -0.6230 N   0  0  0  0  0  0  0  0  0  0  0  0
   -5.2310   -0.1070   -0.0390 C   0  0  0  0  0  0  0  0  0  0  0  0
   -6.0370   -1.1450    0.6400 C   0  0  0  0  0  0  0  0  0  0  0  0
   -5.5840   -2.4800    0.3780 N   0  0  0  0  0  0  0  0  0  0  0  0
   -4.1920   -2.6800    0.5680 C   0  0  0  0  0  0  0  0  0  0  0  0
   -3.3440   -1.4990    0.2530 C   0  0  0  0  0  0  0  0  0  0  0  0
   -3.7560   -0.3030   -0.0300 C   0  0  0  0  0  0  0  0  0  0  0  0
   -2.8620    0.8310   -0.3120 C   0  0  0  0  0  0  0  0  0  0  0  0
   -1.4920    0.4730   -0.1680 N   0  0  0  0  0  0  0  0  0  0  0  0
   -1.0480    0.2600    1.1530 C   0  0  0  0  0  0  0  0  0  0  0  0
    0.0540    1.3090    1.4100 C   0  0  0  0  0  0  0  0  0  0  0  0
    0.6300    1.4010   -0.0000 C   0  0  1  0  0  0  0  0  0  0  0  0
    1.4080    0.1720   -0.2430 C   0  0  0  0  0  0  0  0  0  0  0  0
    0.8190   -0.9760   -0.5500 N   0  0  0  0  0  0  0  0  0  0  0  0
    1.4090   -2.1220   -0.7770 N   0  0  0  0  0  0  0  0  0  0  0  0
    2.7530   -2.1390   -0.6890 C   0  0  0  0  0  0  0  0  0  0  0  0
    3.3100   -3.2580   -0.9110 O   0  0  0  0  0  0  0  0  0  0  0  0
    3.4500   -1.0020   -0.3770 C   0  0  0  0  0  0  0  0  0  0  0  0
    4.9040   -1.0540   -0.2820 C   0  0  0  0  0  0  0  0  0  0  0  0
    5.4870   -2.1410   -0.4780 O   0  0  0  0  0  0  0  0  0  0  0  0
    5.6430    0.1040    0.0260 N   0  0  0  0  0  0  0  0  0  0  0  0
    7.0230    0.1720    0.1500 C   0  0  0  0  0  0  0  0  0  0  0  0
    7.5940    1.4570    0.1760 C   0  0  0  0  0  0  0  0  0  0  0  0
    8.9460    1.6700    0.3130 C   0  0  0  0  0  0  0  0  0  0  0  0
    9.8200    0.6030    0.4310 C   0  0  0  0  0  0  0  0  0  0  0  0
   11.5340    0.9000    0.6030 Cl  0  0  0  0  0  0  0  0  0  0  0  0
    9.2710   -0.6430    0.4060 C   0  0  0  0  0  0  0  0  0  0  0  0
    7.8940   -0.8780    0.2680 C   0  0  0  0  0  0  0  0  0  0  0  0
    2.7720    0.1310   -0.1600 N   0  0  0  0  0  0  0  0  0  0  0  0
   -0.6000    1.3760   -0.8410 C   0  0  0  0  0  0  0  0  0  0  0  0
  1  2  1  0
  2  3  1  0
  3  4  2  3
  4  5  1  0
  4  9  1  0
  5  6  1  0
  6  7  1  0
  7  8  1  0
  8  9  2  0
  9 10  1  0
 10 11  1  0
 11 12  1  0
 11 32  1  0
 12 13  1  0
 13 14  1  0
 14 15  1  6
 14 32  1  0
 15 16  2  0
 15 31  1  0
 16 17  1  0
 17 18  1  0
 18 19  2  0
 18 20  1  0
 20 21  1  0
 20 31  2  0
 21 22  2  0
 21 23  1  0
 23 24  1  0
 24 25  2  0
 24 30  1  0
 25 26  1  0
 26 27  2  0
 27 28  1  0
 27 29  1  0
 29 30  2  0
M  CHG  1   6   1
M  END
