
     RDKit          3D

 32 36  0  0  0  0  0  0  0  0999 V2000
    7.9400    2.2330   -1.8440 C   0  0  0  0  0  0  0  0  0  0  0  0
    7.3880    0.8430   -2.0300 C   0  0  0  0  0  0  0  0  0  0  0  0
    7.0980    0.1820   -0.7620 N   0  0  0  0  0  0  0  0  0  0  0  0
    8.1540   -0.2330    0.1310 C   0  0  0  0  0  0  0  0  0  0  0  0
    7.5900   -0.8800    1.3530 C   0  0  0  0  0  0  0  0  0  0  0  0
    5.7430   -0.0330   -0.4060 C   0  0  0  0  0  0  0  0  0  0  0  0
    5.1180    0.7880    0.5370 C   0  0  0  0  0  0  0  0  0  0  0  0
    3.8000    0.6150    0.8850 C   0  0  0  0  0  0  0  0  0  0  0  0
    3.0350   -0.3890    0.3080 C   0  0  0  0  0  0  0  0  0  0  0  0
    1.6090   -0.5370    0.7200 C   0  0  0  0  0  0  0  0  0  0  0  0
    0.8170    0.3840   -0.1820 C   0  0  0  0  0  0  0  0  0  0  0  0
   -0.6530    0.3490    0.1460 C   0  0  0  0  0  0  0  0  0  0  0  0
   -1.6360   -0.4650   -0.3690 C   0  0  0  0  0  0  0  0  0  0  0  0
   -2.8270   -0.1820    0.1830 N   0  0  0  0  0  0  0  0  0  0  0  0
   -4.0870   -0.7480   -0.0400 C   0  0  0  0  0  0  0  0  0  0  0  0
   -5.2000    0.1140   -0.0420 C   0  0  0  0  0  0  0  0  0  0  0  0
   -6.4750   -0.3440   -0.2510 C   0  0  0  0  0  0  0  0  0  0  0  0
   -7.6940    0.3270   -0.2940 C   0  0  0  0  0  0  0  0  0  0  0  0
   -8.6310   -0.6370   -0.5370 C   0  0  0  0  0  0  0  0  0  0  0  0
   -8.0210   -1.8460   -0.6390 N   0  0  0  0  0  0  0  0  0  0  0  0
   -6.6960   -1.7050   -0.4690 C   0  0  0  0  0  0  0  0  0  0  0  0
   -5.6200   -2.5270   -0.4640 N   0  0  0  0  0  0  0  0  0  0  0  0
   -4.3650   -2.0730   -0.2580 C   0  0  0  0  0  0  0  0  0  0  0  0
   -3.2690   -2.9770   -0.2590 N   0  0  0  0  0  0  0  0  0  0  0  0
   -9.8160   -0.0990   -0.5940 C   0  0  0  0  0  0  0  0  0  0  0  0
   -9.6990    1.3610   -0.3750 C   0  0  0  0  0  0  0  0  0  0  0  0
   -8.2390    1.5350   -0.1810 C   0  0  0  0  0  0  0  0  0  0  0  0
   -2.5700    0.8180    1.0460 C   0  0  0  0  0  0  0  0  0  0  0  0
   -3.5140    1.4960    1.9040 N   0  0  0  0  0  0  0  0  0  0  0  0
   -1.2760    1.1550    1.0430 N   0  0  0  0  0  0  0  0  0  0  0  0
    3.6390   -1.1990   -0.6180 C   0  0  0  0  0  0  0  0  0  0  0  0
    4.9750   -1.0180   -0.9650 C   0  0  0  0  0  0  0  0  0  0  0  0
  1  2  1  0
  2  3  1  0
  3  4  1  0
  3  6  1  0
  4  5  1  0
  6  7  2  0
  6 32  1  0
  7  8  1  0
  8  9  2  0
  9 10  1  0
  9 31  1  0
 10 11  1  0
 11 12  1  0
 12 13  2  0
 12 30  1  0
 13 14  1  0
 14 15  1  0
 14 28  1  0
 15 16  2  0
 15 23  1  0
 16 17  1  0
 17 18  1  0
 17 21  2  0
 18 19  1  0
 18 27  2  0
 19 20  1  0
 19 25  2  0
 20 21  1  0
 21 22  1  0
 22 23  2  0
 23 24  1  0
 25 26  1  0
 26 27  1  0
 28 29  1  0
 28 30  2  0
 31 32  2  0
M  CHG  1  30   1
M  END
