
     RDKit          3D

 32 35  0  0  0  0  0  0  0  0999 V2000
   -5.6980    4.6640    2.9500 C   0  0  0  0  0  0  0  0  0  0  0  0
   -4.6810    3.8290    2.2390 C   0  0  0  0  0  0  0  0  0  0  0  0
   -3.4110    3.6490    2.7220 C   0  0  0  0  0  0  0  0  0  0  0  0
   -2.5140    2.8780    2.0400 C   0  0  0  0  0  0  0  0  0  0  0  0
   -2.8690    2.2550    0.8350 C   0  0  0  0  0  0  0  0  0  0  0  0
   -1.8610    1.5110    0.1150 C   0  0  0  0  0  0  0  0  0  0  0  0
   -0.5350    1.7300    0.3580 N   0  0  0  0  0  0  0  0  0  0  0  0
    0.1570    0.8920   -0.4120 C   0  0  0  0  0  0  0  0  0  0  0  0
    1.5990    0.8410   -0.4160 N   0  0  0  0  0  0  0  0  0  0  0  0
    2.2120   -0.1220   -1.2890 C   0  0  0  0  0  0  0  0  0  0  0  0
    3.7230   -0.1540   -1.2040 C   0  0  1  0  0  0  0  0  0  0  0  0
    4.0740   -0.5050    0.2230 C   0  0  0  0  0  0  0  0  0  0  0  0
    5.4670   -0.2610    0.5940 C   0  0  0  0  0  0  0  0  0  0  0  0
    6.6680   -0.6940    0.2180 C   0  0  0  0  0  0  0  0  0  0  0  0
    7.2030   -1.6540   -0.7790 C   0  0  0  0  0  0  0  0  0  0  0  0
    6.7270   -1.2300   -2.1160 C   0  0  0  0  0  0  0  0  0  0  0  0
    8.0130   -0.8530   -3.2610 Cl  0  0  0  0  0  0  0  0  0  0  0  0
    5.5370   -1.0710   -2.6560 C   0  0  0  0  0  0  0  0  0  0  0  0
    4.1550   -1.2440   -2.1680 C   0  0  0  0  0  0  0  0  0  0  0  0
   -0.6760    0.1480   -1.1350 N   0  0  0  0  0  0  0  0  0  0  0  0
   -1.9540    0.5370   -0.8010 C   0  0  0  0  0  0  0  0  0  0  0  0
   -3.0960   -0.1770   -1.3730 C   0  0  0  0  0  0  0  0  0  0  0  0
   -3.5240   -1.2720   -0.4860 N   0  0  0  0  0  0  0  0  0  0  0  0
   -4.4280   -1.3210    0.4680 C   0  0  0  0  0  0  0  0  0  0  0  0
   -5.1940   -0.4290    0.8710 O   0  0  0  0  0  0  0  0  0  0  0  0
   -4.4160   -2.5710    0.9950 N   0  0  0  0  0  0  0  0  0  0  0  0
   -3.5050   -3.3010    0.3700 N   0  0  0  0  0  0  0  0  0  0  0  0
   -3.1520   -4.6850    0.6040 C   0  0  0  0  0  0  0  0  0  0  0  0
   -2.9470   -2.5090   -0.5480 C   0  0  0  0  0  0  0  0  0  0  0  0
   -2.0330   -2.8390   -1.3500 O   0  0  0  0  0  0  0  0  0  0  0  0
   -4.1250    2.4600    0.4000 C   0  0  0  0  0  0  0  0  0  0  0  0
   -5.0130    3.2370    1.0970 N   0  0  0  0  0  0  0  0  0  0  0  0
  1  2  1  0
  2  3  2  0
  2 32  1  0
  3  4  1  0
  4  5  2  0
  5  6  1  0
  5 31  1  0
  6  7  1  0
  6 21  2  0
  7  8  1  0
  8  9  1  0
  8 20  2  0
  9 10  1  0
 11 10  1  1
 11 12  1  0
 11 19  1  0
 12 13  1  0
 13 14  2  0
 14 15  1  0
 15 16  1  0
 16 17  1  0
 16 18  2  0
 18 19  1  0
 20 21  1  0
 21 22  1  0
 22 23  1  0
 23 24  1  0
 23 29  1  0
 24 25  2  0
 24 26  1  0
 26 27  1  0
 27 28  1  0
 27 29  1  0
 29 30  2  0
 31 32  2  0
M  CHG  1  20   1
M  END
