
     RDKit          3D

 40 42  0  0  0  0  0  0  0  0999 V2000
    5.2390   -3.2490    1.8540 C   0  0  0  0  0  0  0  0  0  0  0  0
    4.0280   -2.7530    1.4160 O   0  0  0  0  0  0  0  0  0  0  0  0
    3.6020   -1.4360    1.6240 C   0  0  0  0  0  0  0  0  0  0  0  0
    4.4640   -0.7740    2.3090 O   0  0  0  0  0  0  0  0  0  0  0  0
    2.3380   -0.9150    1.1110 C   0  0  1  0  0  0  0  0  0  0  0  0
    2.3300   -0.6170   -0.3030 N   0  0  0  0  0  0  0  0  0  0  0  0
    2.7020    0.4090   -1.1140 C   0  0  0  0  0  0  0  0  0  0  0  0
    1.7690    0.8510   -1.9330 O   0  0  0  0  0  0  0  0  0  0  0  0
    3.9540    1.1480   -1.2700 C   0  0  2  0  0  0  0  0  0  0  0  0
    4.8360    1.1360   -0.0510 C   0  0  0  0  0  0  0  0  0  0  0  0
    5.7840    2.2800   -0.3400 C   0  0  2  0  0  0  0  0  0  0  0  0
    5.7620    3.2460    0.7030 O   0  0  0  0  0  0  0  0  0  0  0  0
    5.2760    2.9340   -1.6040 C   0  0  0  0  0  0  0  0  0  0  0  0
    3.8400    2.5740   -1.4980 N   0  0  0  0  0  0  0  0  0  0  0  0
    2.6530    3.3200   -1.5840 C   0  0  0  0  0  0  0  0  0  0  0  0
    2.5450    4.0350   -2.6490 O   0  0  0  0  0  0  0  0  0  0  0  0
    1.5360    3.3890   -0.6340 C   0  0  0  0  0  0  0  0  0  0  0  0
    0.2370    3.6510   -1.3980 C   0  0  0  0  0  0  0  0  0  0  0  0
   -0.7050    2.7770   -0.9650 O   0  0  0  0  0  0  0  0  0  0  0  0
   -1.9550    2.9610   -1.5170 C   0  0  0  0  0  0  0  0  0  0  0  0
   -2.8120    1.7370   -1.4490 C   0  0  0  0  0  0  0  0  0  0  0  0
   -3.1790    1.2870   -0.0810 C   0  0  2  0  0  0  0  0  0  0  0  0
   -4.3080    2.2370    0.3440 C   0  0  0  0  0  0  0  0  0  0  0  0
   -4.6250    1.9930    1.8000 C   0  0  0  0  0  0  0  0  0  0  0  0
   -3.5350    2.6200    2.6310 C   0  0  0  0  0  0  0  0  0  0  0  0
   -2.2520    2.7000    1.7830 C   0  0  0  0  0  0  0  0  0  0  0  0
   -2.1570    1.3930    0.9750 C   0  0  0  0  0  0  0  0  0  0  0  0
   -3.8000    0.0660   -0.2360 O   0  0  0  0  0  0  0  0  0  0  0  0
   -3.3180   -1.0300    0.3430 C   0  0  0  0  0  0  0  0  0  0  0  0
   -2.0740   -1.6500   -0.2370 C   0  0  2  0  0  0  0  0  0  0  0  0
   -2.4250   -3.0080   -0.8810 C   0  0  0  0  0  0  0  0  0  0  0  0
   -3.3620   -2.8370   -2.0400 C   0  0  1  0  0  0  0  0  0  0  0  0
   -2.8100   -2.1160   -3.2310 C   0  0  0  0  0  0  0  0  0  0  0  0
   -4.1860   -4.0330   -2.3850 C   0  0  0  0  0  0  0  0  0  0  0  0
   -1.0640   -1.9760    0.8760 C   0  0  0  0  0  0  0  0  0  0  0  0
    0.1870   -1.6320    0.4490 O   0  0  0  0  0  0  0  0  0  0  0  0
    1.0890   -1.4890    1.6220 C   0  0  1  0  0  0  0  0  0  0  0  0
    0.9240   -2.7810    2.2930 C   0  0  0  0  0  0  0  0  0  0  0  0
    1.2400   -4.0200    1.5070 C   0  0  0  0  0  0  0  0  0  0  0  0
    0.8930   -5.1600    2.3110 O   0  0  0  0  0  0  0  0  0  0  0  0
  1  2  1  0
  2  3  1  0
  3  4  2  0
  5  3  1  6
  5  6  1  0
  5 37  1  0
  6  7  1  0
  7  8  2  0
  7  9  1  0
  9 10  1  1
  9 14  1  0
 10 11  1  0
 11 12  1  1
 11 13  1  0
 13 14  1  0
 14 15  1  0
 15 16  2  0
 15 17  1  0
 17 18  1  0
 18 19  1  0
 19 20  1  0
 20 21  1  0
 22 21  1  6
 22 23  1  0
 22 27  1  0
 22 28  1  0
 23 24  1  0
 24 25  1  0
 25 26  1  0
 26 27  1  0
 28 29  1  0
 29 30  1  0
 30 31  1  1
 30 35  1  0
 31 32  1  0
 32 33  1  6
 32 34  1  0
 35 36  1  0
 36 37  1  0
 37 38  1  6
 38 39  1  0
 39 40  1  0
M  END
