
     RDKit          3D

 40 42  0  0  0  0  0  0  0  0999 V2000
    5.0210    3.6570    0.8200 C   0  0  0  0  0  0  0  0  0  0  0  0
    3.8720    3.3210    1.7310 C   0  0  0  0  0  0  0  0  0  0  0  0
    2.7660    2.6250    1.0010 C   0  0  0  0  0  0  0  0  0  0  0  0
    1.7600    2.3010    1.6630 O   0  0  0  0  0  0  0  0  0  0  0  0
    2.8030    2.3320   -0.3370 O   0  0  0  0  0  0  0  0  0  0  0  0
    1.7310    1.6710   -0.9880 C   0  0  2  0  0  0  0  0  0  0  0  0
    2.1490    0.3320   -1.5400 C   0  0  0  0  0  0  0  0  0  0  0  0
    3.0270   -0.4140   -0.5930 C   0  0  0  0  0  0  0  0  0  0  0  0
    4.1970    0.0130   -0.1230 C   0  0  0  0  0  0  0  0  0  0  0  0
    4.7970   -0.9780    0.7940 C   0  0  0  0  0  0  0  0  0  0  0  0
    3.7570   -2.0510    0.7570 C   0  0  0  0  0  0  0  0  0  0  0  0
    3.9390   -3.2280    1.5150 O   0  0  0  0  0  0  0  0  0  0  0  0
    2.7540   -1.7140   -0.0380 C   0  0  0  0  0  0  0  0  0  0  0  0
    1.4910   -2.4780   -0.3900 C   0  0  1  0  0  0  0  0  0  0  0  0
    1.6240   -3.9330   -0.1710 C   0  0  0  0  0  0  0  0  0  0  0  0
    0.5210   -4.6950   -0.4560 O   0  0  0  0  0  0  0  0  0  0  0  0
    0.2510   -1.8780    0.1000 C   0  0  0  0  0  0  0  0  0  0  0  0
   -0.3970   -2.3510    1.2740 N   0  0  0  0  0  0  0  0  0  0  0  0
    0.4020   -2.9420    2.3530 C   0  0  0  0  0  0  0  0  0  0  0  0
   -1.7790   -2.2700    1.5590 C   0  0  0  0  0  0  0  0  0  0  0  0
   -2.1130   -1.8910    2.7740 O   0  0  0  0  0  0  0  0  0  0  0  0
   -2.9520   -2.5390    0.7310 C   0  0  2  0  0  0  0  0  0  0  0  0
   -3.6830   -3.7330    1.4290 C   0  0  0  0  0  0  0  0  0  0  0  0
   -2.7290   -2.9900   -0.6680 C   0  0  0  0  0  0  0  0  0  0  0  0
   -3.9480   -1.5150    0.8050 O   0  0  0  0  0  0  0  0  0  0  0  0
   -3.7430   -0.1640    0.8620 C   0  0  0  0  0  0  0  0  0  0  0  0
   -4.2480    0.5480    1.7690 O   0  0  0  0  0  0  0  0  0  0  0  0
   -2.9200    0.4780   -0.1500 C   0  0  1  0  0  0  0  0  0  0  0  0
   -3.6520    0.8330   -1.4340 C   0  0  0  0  0  0  0  0  0  0  0  0
   -2.9530    2.0840   -1.9910 C   0  0  2  0  0  0  0  0  0  0  0  0
   -2.5130    1.8070   -3.3940 C   0  0  0  0  0  0  0  0  0  0  0  0
   -1.7450    2.1690   -1.0920 C   0  0  1  0  0  0  0  0  0  0  0  0
   -0.9710    3.3830   -1.1570 C   0  0  0  0  0  0  0  0  0  0  0  0
   -1.2840    4.4330   -0.5080 O   0  0  0  0  0  0  0  0  0  0  0  0
    0.2080    3.5070   -1.9520 N   0  0  0  0  0  0  0  0  0  0  0  0
    1.1930    2.4980   -2.1000 C   0  0  0  0  0  0  0  0  0  0  0  0
    1.6500    2.2810   -3.2520 O   0  0  0  0  0  0  0  0  0  0  0  0
   -2.4270    1.8830    0.2430 C   0  0  2  0  0  0  0  0  0  0  0  0
   -1.4860    1.8630    1.3950 C   0  0  0  0  0  0  0  0  0  0  0  0
   -3.6140    2.7540    0.4850 C   0  0  0  0  0  0  0  0  0  0  0  0
  1  2  1  0
  2  3  1  0
  3  4  2  0
  3  5  1  0
  6  5  1  6
  6  7  1  0
  6 36  1  0
  7  8  1  0
  8  9  2  0
  8 13  1  0
  9 10  1  0
 10 11  1  0
 11 12  1  0
 11 13  2  0
 13 14  1  0
 14 15  1  1
 14 17  1  0
 15 16  1  0
 17 18  1  0
 18 19  1  0
 18 20  1  0
 20 21  2  0
 20 22  1  0
 22 23  1  1
 22 24  1  0
 22 25  1  0
 25 26  1  0
 26 27  2  0
 26 28  1  0
 28 29  1  6
 28 38  1  0
 29 30  1  0
 30 31  1  6
 30 32  1  0
 32 33  1  1
 32 38  1  0
 33 34  2  0
 33 35  1  0
 35 36  1  0
 36 37  2  0
 38 39  1  1
 38 40  1  0
M  END
