
     RDKit          3D

 40 44  0  0  0  0  0  0  0  0999 V2000
   -4.5730    5.3300   -2.0660 C   0  0  0  0  0  0  0  0  0  0  0  0
   -5.4560    4.6870   -1.1120 N   0  0  0  0  0  0  0  0  0  0  0  0
   -4.8710    4.1240    0.0460 C   0  0  0  0  0  0  0  0  0  0  0  0
   -3.6500    4.1410    0.3050 O   0  0  0  0  0  0  0  0  0  0  0  0
   -5.7170    3.5060    0.9650 O   0  0  0  0  0  0  0  0  0  0  0  0
   -5.2530    2.9180    2.1390 C   0  0  0  0  0  0  0  0  0  0  0  0
   -4.2850    1.8180    1.8900 C   0  0  0  0  0  0  0  0  0  0  0  0
   -3.7790    1.1920    2.8560 O   0  0  0  0  0  0  0  0  0  0  0  0
   -3.8970    1.4330    0.6160 O   0  0  0  0  0  0  0  0  0  0  0  0
   -2.9930    0.4050    0.4020 C   0  0  0  0  0  0  0  0  0  0  0  0
   -1.6340    0.5880    0.4040 C   0  0  0  0  0  0  0  0  0  0  0  0
   -0.7460   -0.4520    0.1880 C   0  0  0  0  0  0  0  0  0  0  0  0
    0.6910   -0.1980    0.2020 C   0  0  0  0  0  0  0  0  0  0  0  0
    1.4070    0.5520    1.1090 C   0  0  0  0  0  0  0  0  0  0  0  0
    2.7470    0.5110    0.7200 C   0  0  0  0  0  0  0  0  0  0  0  0
    3.8760    1.1550    1.3730 C   0  0  0  0  0  0  0  0  0  0  0  0
    3.7210    1.8470    2.4110 O   0  0  0  0  0  0  0  0  0  0  0  0
    5.1850    1.0190    0.8540 N   0  0  0  0  0  0  0  0  0  0  0  0
    6.3330    1.6470    1.4780 C   0  0  0  0  0  0  0  0  0  0  0  0
    7.5130    0.7290    1.5960 C   0  0  0  0  0  0  0  0  0  0  0  0
    7.8140   -0.0270    0.3410 C   0  0  2  0  0  0  0  0  0  0  0  0
    9.0190    0.4190   -0.2370 O   0  0  0  0  0  0  0  0  0  0  0  0
    8.6720    1.6430   -0.8390 C   0  0  0  0  0  0  0  0  0  0  0  0
    7.3050    1.4380   -1.4470 C   0  0  0  0  0  0  0  0  0  0  0  0
    6.8350    0.1870   -0.7570 C   0  0  2  0  0  0  0  0  0  0  0  0
    5.4020    0.2420   -0.3240 C   0  0  0  0  0  0  0  0  0  0  0  0
    2.8180   -0.2300   -0.3680 O   0  0  0  0  0  0  0  0  0  0  0  0
    1.6190   -0.6660   -0.7020 C   0  0  0  0  0  0  0  0  0  0  0  0
    1.3490   -1.5280   -1.8810 C   0  0  0  0  0  0  0  0  0  0  0  0
   -1.2450   -1.7050   -0.0340 C   0  0  0  0  0  0  0  0  0  0  0  0
   -2.6340   -1.9670   -0.0500 C   0  0  0  0  0  0  0  0  0  0  0  0
   -3.0080   -3.2450   -0.2830 O   0  0  0  0  0  0  0  0  0  0  0  0
   -4.2290   -3.8670   -0.4410 C   0  0  1  0  0  0  0  0  0  0  0  0
   -4.1350   -4.7360   -1.6840 C   0  0  0  0  0  0  0  0  0  0  0  0
   -5.4210   -5.5280   -1.7630 C   0  0  0  0  0  0  0  0  0  0  0  0
   -5.6220   -5.9940    0.0020 S   0  0  0  0  0  0  0  0  0  0  0  0
   -4.3790   -4.8470    0.7200 C   0  0  0  0  0  0  0  0  0  0  0  0
   -3.4620   -0.8870    0.1730 C   0  0  0  0  0  0  0  0  0  0  0  0
   -4.8420   -1.0370    0.1820 O   0  0  0  0  0  0  0  0  0  0  0  0
   -5.4560   -1.2440    1.4570 C   0  0  0  0  0  0  0  0  0  0  0  0
  1  2  1  0
  2  3  1  0
  3  4  2  0
  3  5  1  0
  5  6  1  0
  6  7  1  0
  7  8  2  0
  7  9  1  0
  9 10  1  0
 10 11  2  0
 10 38  1  0
 11 12  1  0
 12 13  1  0
 12 30  2  0
 13 14  1  0
 13 28  2  0
 14 15  2  0
 15 16  1  0
 15 27  1  0
 16 17  2  0
 16 18  1  0
 18 19  1  0
 18 26  1  0
 19 20  1  0
 21 20  1  1
 21 22  1  0
 21 25  1  0
 22 23  1  0
 23 24  1  0
 25 24  1  1
 25 26  1  0
 27 28  1  0
 28 29  1  0
 30 31  1  0
 31 32  1  0
 31 38  2  0
 33 32  1  1
 33 34  1  0
 33 37  1  0
 34 35  1  0
 35 36  1  0
 36 37  1  0
 38 39  1  0
 39 40  1  0
M  END
