
     RDKit          3D

 40 44  0  0  0  0  0  0  0  0999 V2000
   11.9050    3.5140    2.5540 C   0  0  0  0  0  0  0  0  0  0  0  0
   10.6340    2.9500    2.3100 O   0  0  0  0  0  0  0  0  0  0  0  0
   10.5290    1.9040    1.4130 C   0  0  0  0  0  0  0  0  0  0  0  0
   11.5300    1.4320    0.8000 O   0  0  0  0  0  0  0  0  0  0  0  0
    9.2020    1.2940    1.1430 C   0  0  0  0  0  0  0  0  0  0  0  0
    9.2950    0.2470    0.1950 O   0  0  0  0  0  0  0  0  0  0  0  0
    8.1550   -0.4200   -0.1610 C   0  0  0  0  0  0  0  0  0  0  0  0
    8.2040   -1.4420   -1.0790 C   0  0  0  0  0  0  0  0  0  0  0  0
    7.1340   -2.1780   -1.5110 C   0  0  0  0  0  0  0  0  0  0  0  0
    5.8610   -1.9050   -1.0030 C   0  0  0  0  0  0  0  0  0  0  0  0
    4.6970   -2.4630   -1.2580 N   0  0  0  0  0  0  0  0  0  0  0  0
    3.6570   -2.2680   -0.8700 C   0  0  0  0  0  0  0  0  0  0  0  0
    2.1780   -2.5800   -0.8470 C   0  0  1  0  0  0  0  0  0  0  0  0
    1.8750   -3.2310    0.5070 C   0  0  0  0  0  0  0  0  0  0  0  0
    0.3970   -3.5700    0.4980 C   0  0  0  0  0  0  0  0  0  0  0  0
   -0.4030   -2.2870    0.3310 C   0  0  0  0  0  0  0  0  0  0  0  0
    0.4220   -1.1710    0.0330 N   0  0  0  0  0  0  0  0  0  0  0  0
   -0.1230    0.1140    0.2550 C   0  0  0  0  0  0  0  0  0  0  0  0
   -1.2100    0.3820   -0.7210 C   0  0  0  0  0  0  0  0  0  0  0  0
   -1.4820   -0.4550   -1.6140 O   0  0  0  0  0  0  0  0  0  0  0  0
   -1.9600    1.5490   -0.6900 O   0  0  0  0  0  0  0  0  0  0  0  0
   -3.0010    1.8630   -1.5880 C   0  0  0  0  0  0  0  0  0  0  0  0
   -4.0490    0.8220   -1.4650 C   0  0  0  0  0  0  0  0  0  0  0  0
   -5.0790    0.9350   -2.1990 O   0  0  0  0  0  0  0  0  0  0  0  0
   -3.9910   -0.2610   -0.6140 O   0  0  0  0  0  0  0  0  0  0  0  0
   -5.0570   -1.1810   -0.5930 C   0  0  0  0  0  0  0  0  0  0  0  0
   -6.3190   -0.4910   -0.1980 C   0  0  0  0  0  0  0  0  0  0  0  0
   -7.3470   -0.1520   -1.0350 C   0  0  0  0  0  0  0  0  0  0  0  0
   -8.3070    0.4700   -0.2400 C   0  0  0  0  0  0  0  0  0  0  0  0
   -7.8090    0.4750    1.0460 C   0  0  0  0  0  0  0  0  0  0  0  0
   -6.6340   -0.0990    1.0420 O   0  0  0  0  0  0  0  0  0  0  0  0
   -8.7000    1.1060    2.0740 C   0  0  0  0  0  0  0  0  0  0  0  0
   -9.0120    2.4960    1.5380 C   0  0  0  0  0  0  0  0  0  0  0  0
   -9.7950    2.4110    0.2550 C   0  0  0  0  0  0  0  0  0  0  0  0
   -9.6330    1.0830   -0.4500 C   0  0  1  0  0  0  0  0  0  0  0  0
   -9.8400    1.1920   -1.8240 O   0  0  0  0  0  0  0  0  0  0  0  0
    1.3480   -1.3290   -1.0290 C   0  0  0  0  0  0  0  0  0  0  0  0
    4.0400   -0.8210    0.3370 S   0  0  0  0  0  0  0  0  0  0  0  0
    5.8010   -0.8770   -0.0780 C   0  0  0  0  0  0  0  0  0  0  0  0
    6.8860   -0.1430    0.3490 C   0  0  0  0  0  0  0  0  0  0  0  0
  1  2  1  0
  2  3  1  0
  3  4  2  0
  3  5  1  0
  5  6  1  0
  6  7  1  0
  7  8  2  0
  7 40  1  0
  8  9  1  0
  9 10  2  0
 10 11  1  0
 10 39  1  0
 11 12  2  0
 13 12  1  1
 12 38  1  0
 13 14  1  0
 13 37  1  0
 14 15  1  0
 15 16  1  0
 16 17  1  0
 17 18  1  0
 17 37  1  0
 18 19  1  0
 19 20  2  0
 19 21  1  0
 21 22  1  0
 22 23  1  0
 23 24  2  0
 23 25  1  0
 25 26  1  0
 26 27  1  0
 27 28  2  0
 27 31  1  0
 28 29  1  0
 29 30  2  0
 29 35  1  0
 30 31  1  0
 30 32  1  0
 32 33  1  0
 33 34  1  0
 34 35  1  0
 35 36  1  6
 38 39  1  0
 39 40  2  0
M  END
