
     RDKit          3D

 40 42  0  0  0  0  0  0  0  0999 V2000
    6.0290   -1.2330   -0.1380 C   0  0  0  0  0  0  0  0  0  0  0  0
    4.6500   -1.0920    0.5830 C   0  0  1  0  0  0  0  0  0  0  0  0
    4.9970   -0.8680    2.0080 C   0  0  0  0  0  0  0  0  0  0  0  0
    4.1720    0.2380    0.0220 C   0  0  2  0  0  0  0  0  0  0  0  0
    2.9070    0.7600    0.5840 C   0  0  0  0  0  0  0  0  0  0  0  0
    2.8750    2.2960    0.5980 C   0  0  0  0  0  0  0  0  0  0  0  0
    2.2880    2.7920   -0.6730 C   0  0  0  0  0  0  0  0  0  0  0  0
    3.1180    3.1590   -1.5470 O   0  0  0  0  0  0  0  0  0  0  0  0
    0.9330    2.8010   -0.7700 O   0  0  0  0  0  0  0  0  0  0  0  0
   -0.0070    3.5570   -0.0500 C   0  0  1  0  0  0  0  0  0  0  0  0
   -0.2570    4.8100   -0.8760 C   0  0  0  0  0  0  0  0  0  0  0  0
   -1.0990    4.2090   -2.0060 C   0  0  0  0  0  0  0  0  0  0  0  0
   -2.1360    3.4950   -1.1700 C   0  0  0  0  0  0  0  0  0  0  0  0
   -3.4340    3.3350   -1.2750 C   0  0  0  0  0  0  0  0  0  0  0  0
   -4.3200    2.5910   -0.3470 C   0  0  1  0  0  0  0  0  0  0  0  0
   -4.4570    3.3060    0.9870 C   0  0  0  0  0  0  0  0  0  0  0  0
   -5.6200    2.5040   -0.8830 O   0  0  0  0  0  0  0  0  0  0  0  0
   -3.8890    1.1630   -0.1080 C   0  0  0  0  0  0  0  0  0  0  0  0
   -5.0590    0.2470   -0.0200 C   0  0  0  0  0  0  0  0  0  0  0  0
   -4.9170   -1.0040    0.3980 C   0  0  0  0  0  0  0  0  0  0  0  0
   -3.5880   -1.5370    0.7930 C   0  0  0  0  0  0  0  0  0  0  0  0
   -2.7800   -1.9850   -0.4290 C   0  0  2  0  0  0  0  0  0  0  0  0
   -2.9160   -3.4760   -0.5230 C   0  0  0  0  0  0  0  0  0  0  0  0
   -2.1420   -4.0220   -1.7120 C   0  0  0  0  0  0  0  0  0  0  0  0
   -2.2950   -5.4070   -1.7670 O   0  0  0  0  0  0  0  0  0  0  0  0
   -1.4360   -1.5010   -0.2710 N   0  0  0  0  0  0  0  0  0  0  0  0
   -0.5330   -1.7600    0.7650 C   0  0  0  0  0  0  0  0  0  0  0  0
    0.1030   -0.7930    1.3140 O   0  0  0  0  0  0  0  0  0  0  0  0
   -0.2000   -3.0900    1.3400 C   0  0  0  0  0  0  0  0  0  0  0  0
    0.8740   -3.1170    2.1720 O   0  0  0  0  0  0  0  0  0  0  0  0
    2.1690   -2.7120    2.1730 C   0  0  0  0  0  0  0  0  0  0  0  0
    2.4580   -1.8400    3.0650 O   0  0  0  0  0  0  0  0  0  0  0  0
    3.2750   -3.1260    1.3120 C   0  0  0  0  0  0  0  0  0  0  0  0
    3.7840   -2.2560    0.2410 C   0  0  1  0  0  0  0  0  0  0  0  0
    2.8540   -2.0460   -0.8840 C   0  0  0  0  0  0  0  0  0  0  0  0
    1.9150   -2.8290   -1.0440 O   0  0  0  0  0  0  0  0  0  0  0  0
    3.0170   -0.9780   -1.7740 N   0  0  0  0  0  0  0  0  0  0  0  0
    4.0130    0.0140   -1.4490 C   0  0  0  0  0  0  0  0  0  0  0  0
    4.6520    0.5980   -2.3340 O   0  0  0  0  0  0  0  0  0  0  0  0
   -1.3760    2.9070   -0.0400 C   0  0  0  0  0  0  0  0  0  0  0  0
  2  1  1  6
  2  3  1  0
  2  4  1  0
  2 34  1  0
  4  5  1  1
  4 38  1  0
  5  6  1  0
  6  7  1  0
  7  8  2  0
  7  9  1  0
  9 10  1  0
 10 11  1  6
 10 40  1  0
 11 12  1  0
 12 13  1  0
 13 14  2  0
 13 40  1  0
 14 15  1  0
 15 16  1  1
 15 17  1  0
 15 18  1  0
 18 19  1  0
 19 20  2  0
 20 21  1  0
 21 22  1  0
 22 23  1  1
 22 26  1  0
 23 24  1  0
 24 25  1  0
 26 27  1  0
 27 28  2  0
 27 29  1  0
 29 30  1  0
 30 31  1  0
 31 32  2  0
 31 33  1  0
 34 33  1  1
 34 35  1  0
 35 36  2  0
 35 37  1  0
 37 38  1  0
 38 39  2  0
M  END
