
     RDKit          3D

 40 42  0  0  0  0  0  0  0  0999 V2000
   -3.0680   -2.2170   -2.8510 C   0  0  0  0  0  0  0  0  0  0  0  0
   -3.1840   -1.9670   -1.4630 O   0  0  0  0  0  0  0  0  0  0  0  0
   -4.2830   -1.3340   -0.9630 C   0  0  0  0  0  0  0  0  0  0  0  0
   -5.1890   -0.9870   -1.8060 O   0  0  0  0  0  0  0  0  0  0  0  0
   -4.5120   -1.0240    0.4470 C   0  0  2  0  0  0  0  0  0  0  0  0
   -4.2350   -2.2050    1.3560 C   0  0  0  0  0  0  0  0  0  0  0  0
   -6.0430   -0.8370    0.5670 C   0  0  0  0  0  0  0  0  0  0  0  0
   -3.9490    0.2790    0.9560 C   0  0  1  0  0  0  0  0  0  0  0  0
   -4.3400    0.3950    2.3590 C   0  0  0  0  0  0  0  0  0  0  0  0
   -3.3590    0.7630    3.3510 C   0  0  0  0  0  0  0  0  0  0  0  0
   -2.1180    1.0390    3.0060 C   0  0  0  0  0  0  0  0  0  0  0  0
   -1.1970    1.4070    4.1260 C   0  0  0  0  0  0  0  0  0  0  0  0
   -1.7080    0.9550    1.6070 C   0  0  0  0  0  0  0  0  0  0  0  0
   -2.5540    0.6010    0.6470 C   0  0  0  0  0  0  0  0  0  0  0  0
   -2.0440    0.5530   -0.7570 C   0  0  0  0  0  0  0  0  0  0  0  0
   -2.9310    1.0610   -1.5570 O   0  0  0  0  0  0  0  0  0  0  0  0
   -0.8850    0.1010   -1.3160 N   0  0  0  0  0  0  0  0  0  0  0  0
    0.0250   -0.9670   -1.2930 C   0  0  2  0  0  0  0  0  0  0  0  0
   -0.1960   -1.9690   -0.2060 C   0  0  0  0  0  0  0  0  0  0  0  0
    1.1880   -2.4930    0.2040 C   0  0  0  0  0  0  0  0  0  0  0  0
    2.0430   -2.0430   -0.9370 C   0  0  1  0  0  0  0  0  0  0  0  0
    1.4710   -0.6300   -1.1290 C   0  0  0  0  0  0  0  0  0  0  0  0
    3.5190   -1.9890   -0.6360 C   0  0  1  0  0  0  0  0  0  0  0  0
    4.0170   -3.3340   -0.1500 C   0  0  0  0  0  0  0  0  0  0  0  0
    4.1980   -1.8000   -1.9990 C   0  0  0  0  0  0  0  0  0  0  0  0
    3.8780   -0.9140    0.3210 C   0  0  0  0  0  0  0  0  0  0  0  0
    4.2080   -1.3550    1.4690 O   0  0  0  0  0  0  0  0  0  0  0  0
    3.8420    0.3680   -0.0290 O   0  0  0  0  0  0  0  0  0  0  0  0
    4.6240    1.3590   -0.5240 C   0  0  1  0  0  0  0  0  0  0  0  0
    5.9990    0.9350   -0.9880 C   0  0  0  0  0  0  0  0  0  0  0  0
    3.9640    2.0180   -1.6820 C   0  0  0  0  0  0  0  0  0  0  0  0
    4.2060    1.6090   -2.8760 O   0  0  0  0  0  0  0  0  0  0  0  0
    3.0550    3.1010   -1.5960 N   0  0  0  0  0  0  0  0  0  0  0  0
    2.1910    3.2830   -0.4740 C   0  0  0  0  0  0  0  0  0  0  0  0
    0.8850    3.9750   -0.8560 C   0  0  2  0  0  0  0  0  0  0  0  0
    0.9860    5.3020   -0.4330 O   0  0  0  0  0  0  0  0  0  0  0  0
   -0.2770    3.3590   -0.0890 C   0  0  0  0  0  0  0  0  0  0  0  0
    0.0400    2.0430    0.2640 O   0  0  0  0  0  0  0  0  0  0  0  0
   -0.3040    1.3110    1.3640 C   0  0  0  0  0  0  0  0  0  0  0  0
    0.5230    0.9020    2.2180 O   0  0  0  0  0  0  0  0  0  0  0  0
  1  2  1  0
  2  3  1  0
  3  4  2  0
  3  5  1  0
  5  6  1  1
  5  7  1  0
  5  8  1  0
  8  9  1  1
  8 14  1  0
  9 10  1  0
 10 11  2  0
 11 12  1  0
 11 13  1  0
 13 14  2  0
 13 39  1  0
 14 15  1  0
 15 16  2  0
 15 17  1  0
 17 18  1  0
 18 19  1  1
 18 22  1  0
 19 20  1  0
 21 20  1  1
 21 22  1  0
 21 23  1  0
 23 24  1  1
 23 25  1  0
 23 26  1  0
 26 27  2  0
 26 28  1  0
 28 29  1  0
 29 30  1  6
 29 31  1  0
 31 32  2  0
 31 33  1  0
 33 34  1  0
 34 35  1  0
 35 36  1  1
 35 37  1  0
 37 38  1  0
 38 39  1  0
 39 40  2  0
M  END
