
     RDKit          3D

 40 43  0  0  0  0  0  0  0  0999 V2000
  -11.1340   -0.4490   -0.9770 C   0  0  0  0  0  0  0  0  0  0  0  0
  -10.2920    0.5210   -1.7090 C   0  0  0  0  0  0  0  0  0  0  0  0
   -9.0550    0.9470   -1.0240 C   0  0  0  0  0  0  0  0  0  0  0  0
   -8.0050   -0.0600   -0.7420 C   0  0  2  0  0  0  0  0  0  0  0  0
   -8.4220   -1.2010    0.1330 C   0  0  0  0  0  0  0  0  0  0  0  0
   -7.2830   -2.0360    0.3900 O   0  0  0  0  0  0  0  0  0  0  0  0
   -6.9250    0.5960   -0.0110 O   0  0  0  0  0  0  0  0  0  0  0  0
   -5.6400    0.6010   -0.5120 C   0  0  0  0  0  0  0  0  0  0  0  0
   -5.3680    0.0470   -1.5950 O   0  0  0  0  0  0  0  0  0  0  0  0
   -4.5800    1.2760    0.2530 C   0  0  2  0  0  0  0  0  0  0  0  0
   -4.7750    2.7940    0.2190 C   0  0  0  0  0  0  0  0  0  0  0  0
   -4.1450    3.2040   -1.0930 C   0  0  0  0  0  0  0  0  0  0  0  0
   -2.9910    2.2430   -1.2240 C   0  0  0  0  0  0  0  0  0  0  0  0
   -3.2700    1.1000   -0.3980 N   0  0  0  0  0  0  0  0  0  0  0  0
   -2.4560   -0.0440   -0.2020 C   0  0  0  0  0  0  0  0  0  0  0  0
   -2.9480   -0.9290    0.6010 O   0  0  0  0  0  0  0  0  0  0  0  0
   -1.1750   -0.3040   -0.7940 C   0  0  0  0  0  0  0  0  0  0  0  0
   -0.4440    0.4560   -1.6620 C   0  0  0  0  0  0  0  0  0  0  0  0
    0.7350   -0.2520   -1.9340 C   0  0  0  0  0  0  0  0  0  0  0  0
    0.6390   -1.4120   -1.2010 C   0  0  0  0  0  0  0  0  0  0  0  0
    1.6390   -2.5060   -1.1460 C   0  0  0  0  0  0  0  0  0  0  0  0
    2.7660   -2.2050   -0.3560 O   0  0  0  0  0  0  0  0  0  0  0  0
    2.7230   -1.8950    0.9880 C   0  0  0  0  0  0  0  0  0  0  0  0
    1.5950   -1.8860    1.5260 O   0  0  0  0  0  0  0  0  0  0  0  0
    3.9700   -1.5830    1.7720 C   0  0  0  0  0  0  0  0  0  0  0  0
    5.1710   -1.6170    1.2070 C   0  0  0  0  0  0  0  0  0  0  0  0
    6.2670   -1.3260    1.9680 C   0  0  0  0  0  0  0  0  0  0  0  0
    7.6890   -1.2690    1.6540 C   0  0  0  0  0  0  0  0  0  0  0  0
    8.5310   -0.9610    2.5350 O   0  0  0  0  0  0  0  0  0  0  0  0
    8.0900   -1.5720    0.3320 N   0  0  0  0  0  0  0  0  0  0  0  0
    9.4480   -1.5540   -0.1460 C   0  0  0  0  0  0  0  0  0  0  0  0
   10.1280   -0.2220   -0.0870 C   0  0  1  0  0  0  0  0  0  0  0  0
    9.3940    0.8110   -0.9450 C   0  0  0  0  0  0  0  0  0  0  0  0
    9.8040    2.1190   -0.2460 C   0  0  0  0  0  0  0  0  0  0  0  0
    9.8550    1.6400    1.1800 C   0  0  0  0  0  0  0  0  0  0  0  0
   10.2610    0.3470    1.1300 O   0  0  0  0  0  0  0  0  0  0  0  0
    5.5740   -0.9760    3.5940 S   0  0  0  0  0  0  0  0  0  0  0  0
    3.8340   -1.2610    3.0890 C   0  0  0  0  0  0  0  0  0  0  0  0
    2.7080   -1.1280    4.0090 C   0  0  0  0  0  0  0  0  0  0  0  0
   -0.4830   -1.4030   -0.5540 O   0  0  0  0  0  0  0  0  0  0  0  0
  1  2  1  0
  2  3  1  0
  4  3  1  1
  4  5  1  0
  4  7  1  0
  5  6  1  0
  7  8  1  0
  8  9  2  0
 10  8  1  6
 10 11  1  0
 10 14  1  0
 11 12  1  0
 12 13  1  0
 13 14  1  0
 14 15  1  0
 15 16  2  0
 15 17  1  0
 17 18  2  0
 17 40  1  0
 18 19  1  0
 19 20  2  0
 20 21  1  0
 20 40  1  0
 21 22  1  0
 22 23  1  0
 23 24  2  0
 23 25  1  0
 25 26  1  0
 25 38  2  0
 26 27  2  0
 27 28  1  0
 27 37  1  0
 28 29  2  0
 28 30  1  0
 30 31  1  0
 32 31  1  1
 32 33  1  0
 32 36  1  0
 33 34  1  0
 34 35  1  0
 35 36  1  0
 37 38  1  0
 38 39  1  0
M  END
