
     RDKit          3D

 33 35  0  0  0  0  0  0  0  0999 V2000
   -4.8910   -1.3960   -1.8300 C   0  0  0  0  0  0  0  0  0  0  0  0
   -3.7500   -1.3210   -1.0150 O   0  0  0  0  0  0  0  0  0  0  0  0
   -3.5640   -2.2070    0.0310 C   0  0  0  0  0  0  0  0  0  0  0  0
   -4.5230   -3.1680    0.2620 C   0  0  0  0  0  0  0  0  0  0  0  0
   -4.4040   -4.0890    1.2910 C   0  0  0  0  0  0  0  0  0  0  0  0
   -5.4660   -5.1250    1.5180 C   0  0  0  0  0  0  0  0  0  0  0  0
   -3.2860   -4.0200    2.0930 C   0  0  0  0  0  0  0  0  0  0  0  0
   -3.1120   -5.1750    3.4030 Cl  0  0  0  0  0  0  0  0  0  0  0  0
   -2.3460   -3.0640    1.8540 C   0  0  0  0  0  0  0  0  0  0  0  0
   -2.4430   -2.1340    0.8310 C   0  0  0  0  0  0  0  0  0  0  0  0
   -1.4380   -1.1390    0.6030 N   0  0  0  0  0  0  0  0  0  0  0  0
   -1.7990    0.2170    0.4640 C   0  0  0  0  0  0  0  0  0  0  0  0
   -0.9020    1.1130    0.2540 N   0  0  0  0  0  0  0  0  0  0  0  0
   -1.2580    2.4730    0.1130 C   0  0  0  0  0  0  0  0  0  0  0  0
   -2.4360    2.9060   -0.4670 C   0  0  0  0  0  0  0  0  0  0  0  0
   -2.7830    4.2260   -0.6040 C   0  0  0  0  0  0  0  0  0  0  0  0
   -1.8850    5.1690   -0.1260 C   0  0  0  0  0  0  0  0  0  0  0  0
   -0.7180    4.7820    0.4500 N   0  0  0  0  0  0  0  0  0  0  0  0
   -0.4080    3.4790    0.5690 C   0  0  0  0  0  0  0  0  0  0  0  0
   -0.0850   -1.5280    0.5170 C   0  0  0  0  0  0  0  0  0  0  0  0
    0.2160   -2.7540    0.6350 O   0  0  0  0  0  0  0  0  0  0  0  0
    1.0020   -0.5480    0.2910 C   0  0  0  0  0  0  0  0  0  0  0  0
    2.3620   -1.2570    0.2380 C   0  0  0  0  0  0  0  0  0  0  0  0
    3.3710   -0.1900    0.0080 C   0  0  0  0  0  0  0  0  0  0  0  0
    3.7570    0.1920   -1.2610 C   0  0  0  0  0  0  0  0  0  0  0  0
    4.6910    1.1790   -1.5150 C   0  0  0  0  0  0  0  0  0  0  0  0
    5.2780    1.8260   -0.4710 C   0  0  0  0  0  0  0  0  0  0  0  0
    6.2300    2.8590   -0.5910 N   0  0  0  0  0  0  0  0  0  0  0  0
    6.7360    3.2230   -1.8630 C   0  0  0  0  0  0  0  0  0  0  0  0
    7.2140    2.3030   -2.6290 N   0  0  0  0  0  0  0  0  0  0  0  0
    4.9060    1.4600    0.8270 C   0  0  0  0  0  0  0  0  0  0  0  0
    5.4700    2.0830    1.8930 F   0  0  0  0  0  0  0  0  0  0  0  0
    3.9650    0.4640    1.0660 C   0  0  0  0  0  0  0  0  0  0  0  0
  1  2  1  0
  2  3  1  0
  3  4  2  0
  3 10  1  0
  4  5  1  0
  5  6  1  0
  5  7  2  0
  7  8  1  0
  7  9  1  0
  9 10  2  0
 10 11  1  0
 11 12  1  0
 11 20  1  0
 12 13  2  3
 13 14  1  0
 14 15  2  0
 14 19  1  0
 15 16  1  0
 16 17  2  0
 17 18  1  0
 18 19  2  0
 20 21  2  0
 20 22  1  0
 22 23  1  0
 23 24  1  0
 24 25  2  0
 24 33  1  0
 25 26  1  0
 26 27  2  0
 27 28  1  0
 27 31  1  0
 28 29  1  0
 29 30  2  0
 31 32  1  0
 31 33  2  0
M  CHG  1  30   1
M  END
