
     RDKit          3D

 33 35  0  0  0  0  0  0  0  0999 V2000
   -2.7610    4.5570    0.8150 C   0  0  0  0  0  0  0  0  0  0  0  0
   -3.1100    3.1160    0.8330 C   0  0  0  0  0  0  0  0  0  0  0  0
   -2.4940    2.3670   -0.2730 N   0  0  0  0  0  0  0  0  0  0  0  0
   -2.8030    0.9960   -0.1970 C   0  0  0  0  0  0  0  0  0  0  0  0
   -1.9830   -0.0070    0.3810 C   0  0  0  0  0  0  0  0  0  0  0  0
   -2.4610   -1.3230    0.3730 C   0  0  0  0  0  0  0  0  0  0  0  0
   -3.8030   -1.6230   -0.0840 C   0  0  0  0  0  0  0  0  0  0  0  0
   -4.9200   -1.1560    0.5500 C   0  0  0  0  0  0  0  0  0  0  0  0
   -6.2110   -1.5250    0.1480 C   0  0  0  0  0  0  0  0  0  0  0  0
   -7.6330   -0.9200    0.9670 Cl  0  0  0  0  0  0  0  0  0  0  0  0
   -6.3040   -2.3870   -0.9210 C   0  0  0  0  0  0  0  0  0  0  0  0
   -5.1890   -2.8700   -1.5710 C   0  0  0  0  0  0  0  0  0  0  0  0
   -5.3420   -3.8230   -2.7370 C   0  0  0  0  0  0  0  0  0  0  0  0
   -3.9560   -2.4790   -1.1410 C   0  0  0  0  0  0  0  0  0  0  0  0
   -2.8480   -2.9720   -1.7990 F   0  0  0  0  0  0  0  0  0  0  0  0
   -1.7080   -2.3830    0.8670 C   0  0  0  0  0  0  0  0  0  0  0  0
   -0.4610   -2.1690    1.3860 C   0  0  0  0  0  0  0  0  0  0  0  0
   -0.0060   -0.9210    1.3960 N   0  0  0  0  0  0  0  0  0  0  0  0
   -0.7380    0.1360    0.9100 C   0  0  0  0  0  0  0  0  0  0  0  0
   -0.0140    1.4260    1.0090 C   0  0  0  0  0  0  0  0  0  0  0  0
    1.2830    1.2350    1.6670 N   0  0  0  0  0  0  0  0  0  0  0  0
    1.3560    1.3390    3.1150 C   0  0  0  0  0  0  0  0  0  0  0  0
    2.4480    0.9540    0.9370 C   0  0  0  0  0  0  0  0  0  0  0  0
    3.5190    0.7490    1.6070 O   0  0  0  0  0  0  0  0  0  0  0  0
    2.5630    0.8760   -0.4630 N   0  0  0  0  0  0  0  0  0  0  0  0
    3.7650    0.5850   -1.1510 C   0  0  0  0  0  0  0  0  0  0  0  0
    5.0000    0.2450   -0.6700 C   0  0  0  0  0  0  0  0  0  0  0  0
    5.8460    0.0670   -1.7620 C   0  0  0  0  0  0  0  0  0  0  0  0
    7.2790   -0.3310   -1.6440 C   0  0  2  0  0  0  0  0  0  0  0  0
    7.3960   -1.8390   -1.8790 C   0  0  0  0  0  0  0  0  0  0  0  0
    7.7830    0.0280   -0.2750 C   0  0  0  0  0  0  0  0  0  0  0  0
    5.0910    0.3050   -2.8290 N   0  0  0  0  0  0  0  0  0  0  0  0
    3.9030    0.6000   -2.4680 O   0  0  0  0  0  0  0  0  0  0  0  0
  1  2  1  0
  2  3  1  0
  3  4  1  0
  4  5  1  0
  5  6  2  0
  5 19  1  0
  6  7  1  0
  6 16  1  0
  7  8  2  0
  7 14  1  0
  8  9  1  0
  9 10  1  0
  9 11  2  0
 11 12  1  0
 12 13  1  0
 12 14  2  0
 14 15  1  0
 16 17  2  0
 17 18  1  0
 18 19  2  0
 19 20  1  0
 20 21  1  0
 21 22  1  0
 21 23  1  0
 23 24  2  0
 23 25  1  0
 25 26  1  0
 26 27  2  0
 26 33  1  0
 27 28  1  0
 28 29  1  0
 28 32  2  0
 29 30  1  1
 29 31  1  0
 32 33  1  0
M  CHG  1   3   1
M  END
