
     RDKit          3D

 33 35  0  0  0  0  0  0  0  0999 V2000
   -8.5700    1.7440    1.3720 C   0  0  0  0  0  0  0  0  0  0  0  0
   -7.4480    0.8180    1.0860 N   0  0  0  0  0  0  0  0  0  0  0  0
   -7.7440   -0.5540    1.3940 C   0  0  0  0  0  0  0  0  0  0  0  0
   -6.2260    1.3320    0.6850 C   0  0  0  0  0  0  0  0  0  0  0  0
   -6.1700    2.6360    0.6970 O   0  0  0  0  0  0  0  0  0  0  0  0
   -5.0060    0.6540    0.2760 C   0  0  0  0  0  0  0  0  0  0  0  0
   -3.7100    1.1820    0.5110 C   0  0  0  0  0  0  0  0  0  0  0  0
   -3.2160    2.2580    1.1880 C   0  0  0  0  0  0  0  0  0  0  0  0
   -4.2660    3.3400    2.0670 Cl  0  0  0  0  0  0  0  0  0  0  0  0
   -1.8390    2.5080    1.2550 C   0  0  0  0  0  0  0  0  0  0  0  0
   -0.8970    1.6910    0.6500 C   0  0  0  0  0  0  0  0  0  0  0  0
    0.4710    2.0280    0.7750 N   0  0  0  0  0  0  0  0  0  0  0  0
    1.5730    1.3390    0.2120 C   0  0  0  0  0  0  0  0  0  0  0  0
    1.3540    0.3340   -0.4670 O   0  0  0  0  0  0  0  0  0  0  0  0
    2.9110    1.7580    0.3970 N   0  0  0  0  0  0  0  0  0  0  0  0
    4.0860    1.1350   -0.1110 C   0  0  0  0  0  0  0  0  0  0  0  0
    4.4420   -0.2260    0.3250 C   0  0  1  0  0  0  0  0  0  0  0  0
    4.6010   -0.2920    1.8400 C   0  0  0  0  0  0  0  0  0  0  0  0
    3.6360   -1.3390   -0.2450 C   0  0  0  0  0  0  0  0  0  0  0  0
    5.8300   -0.4670   -0.1750 N   0  0  1  0  0  0  0  0  0  0  0  0
    6.4040   -1.6430    0.4020 C   0  0  0  0  0  0  0  0  0  0  0  0
    7.9220   -1.4130    0.4230 C   0  0  0  0  0  0  0  0  0  0  0  0
    8.2680   -0.7140   -0.8690 C   0  0  0  0  0  0  0  0  0  0  0  0
    7.2850   -1.0370   -1.9740 C   0  0  0  0  0  0  0  0  0  0  0  0
    5.8780   -0.5520   -1.6000 C   0  0  0  0  0  0  0  0  0  0  0  0
   -1.3940    0.6120   -0.0250 C   0  0  0  0  0  0  0  0  0  0  0  0
   -2.7750    0.3640   -0.0900 C   0  0  0  0  0  0  0  0  0  0  0  0
   -3.4770   -0.6490   -0.6850 C   0  0  0  0  0  0  0  0  0  0  0  0
   -4.8350   -0.4500   -0.4550 N   0  0  0  0  0  0  0  0  0  0  0  0
   -5.7860   -1.2250   -1.1710 C   0  0  0  0  0  0  0  0  0  0  0  0
   -6.9670   -0.8640   -1.5910 C   0  0  0  0  0  0  0  0  0  0  0  0
   -7.8120   -1.8390   -2.3240 C   0  0  0  0  0  0  0  0  0  0  0  0
   -7.1820   -3.0560   -2.4590 F   0  0  0  0  0  0  0  0  0  0  0  0
  1  2  1  0
  2  3  1  0
  2  4  1  0
  4  5  2  0
  4  6  1  0
  6  7  2  0
  6 29  1  0
  7  8  1  0
  7 27  1  0
  8  9  1  0
  8 10  2  0
 10 11  1  0
 11 12  1  0
 11 26  2  0
 12 13  1  0
 13 14  2  0
 13 15  1  0
 15 16  1  0
 16 17  1  0
 17 18  1  1
 17 19  1  0
 17 20  1  0
 20 21  1  1
 20 25  1  0
 21 22  1  0
 22 23  1  0
 23 24  1  0
 24 25  1  0
 26 27  1  0
 27 28  2  0
 28 29  1  0
 29 30  1  0
 30 31  2  3
 31 32  1  0
 32 33  1  0
M  CHG  1  20   1
M  END
