
     RDKit          3D

 33 35  0  0  0  0  0  0  0  0999 V2000
   -7.0090   -1.6310    1.1370 C   0  0  0  0  0  0  0  0  0  0  0  0
   -6.0600   -0.5550    0.7520 N   0  0  0  0  0  0  0  0  0  0  0  0
   -6.8760    0.4850    0.2010 C   0  0  0  0  0  0  0  0  0  0  0  0
   -6.1340    1.7690    0.0410 C   0  0  0  0  0  0  0  0  0  0  0  0
   -4.9480    1.7480   -0.8530 C   0  0  1  0  0  0  0  0  0  0  0  0
   -5.3510    1.3130   -2.2280 C   0  0  0  0  0  0  0  0  0  0  0  0
   -4.5390    3.2530   -0.9990 C   0  0  0  0  0  0  0  0  0  0  0  0
   -3.8070    1.0550   -0.3040 N   0  0  0  0  0  0  0  0  0  0  0  0
   -2.6240    0.9510   -1.1150 C   0  0  0  0  0  0  0  0  0  0  0  0
   -2.6860    1.4860   -2.2610 O   0  0  0  0  0  0  0  0  0  0  0  0
   -1.4240    0.2720   -0.6530 C   0  0  0  0  0  0  0  0  0  0  0  0
   -0.3430    0.1990   -1.5100 C   0  0  0  0  0  0  0  0  0  0  0  0
    0.8050   -0.4080   -1.1720 N   0  0  0  0  0  0  0  0  0  0  0  0
    0.9880   -0.9950    0.0400 C   0  0  0  0  0  0  0  0  0  0  0  0
   -0.0690   -0.9430    0.9210 C   0  0  0  0  0  0  0  0  0  0  0  0
    0.3710   -1.5980    2.0470 C   0  0  0  0  0  0  0  0  0  0  0  0
    1.6590   -2.0390    1.8600 C   0  0  0  0  0  0  0  0  0  0  0  0
    2.0040   -1.6500    0.6150 N   0  0  0  0  0  0  0  0  0  0  0  0
    3.2930   -1.9110   -0.0030 C   0  0  0  0  0  0  0  0  0  0  0  0
    4.1170   -2.5370    0.6800 O   0  0  0  0  0  0  0  0  0  0  0  0
    3.4500   -1.3960   -1.3630 C   0  0  0  0  0  0  0  0  0  0  0  0
    4.8030   -1.6660   -1.9370 C   0  0  0  0  0  0  0  0  0  0  0  0
    5.8570   -1.0300   -1.1540 C   0  0  0  0  0  0  0  0  0  0  0  0
    6.6390   -1.6400   -0.2310 C   0  0  0  0  0  0  0  0  0  0  0  0
    7.6070   -0.9450    0.5160 C   0  0  0  0  0  0  0  0  0  0  0  0
    8.3240   -1.6460    1.4010 F   0  0  0  0  0  0  0  0  0  0  0  0
    7.7840    0.3840    0.3210 C   0  0  0  0  0  0  0  0  0  0  0  0
    8.7330    1.2230    1.0120 C   0  0  0  0  0  0  0  0  0  0  0  0
    9.5950    0.9940    1.9270 C   0  0  0  0  0  0  0  0  0  0  0  0
    9.9830   -0.4870    2.7390 Cl  0  0  0  0  0  0  0  0  0  0  0  0
    6.9580    0.9910   -0.6470 C   0  0  0  0  0  0  0  0  0  0  0  0
    6.0680    0.2940   -1.3160 N   0  0  0  0  0  0  0  0  0  0  0  0
   -1.2610   -0.3140    0.5730 C   0  0  0  0  0  0  0  0  0  0  0  0
  1  2  1  0
  2  3  1  0
  3  4  1  0
  4  5  1  0
  5  6  1  6
  5  7  1  0
  5  8  1  0
  8  9  1  0
  9 10  2  0
  9 11  1  0
 11 12  2  0
 11 33  1  0
 12 13  1  0
 13 14  2  0
 14 15  1  0
 14 18  1  0
 15 16  1  0
 15 33  2  0
 16 17  2  0
 17 18  1  0
 18 19  1  0
 19 20  2  0
 19 21  1  0
 21 22  1  0
 22 23  1  0
 23 24  2  0
 23 32  1  0
 24 25  1  0
 25 26  1  0
 25 27  2  0
 27 28  1  0
 27 31  1  0
 28 29  2  3
 29 30  1  0
 31 32  2  0
M  CHG  1   2   1
M  END
