
     RDKit          3D

 33 35  0  0  0  0  0  0  0  0999 V2000
    7.7950   -0.4950   -1.0890 C   0  0  0  0  0  0  0  0  0  0  0  0
    6.6190   -0.1490   -0.2370 C   0  0  0  0  0  0  0  0  0  0  0  0
    5.3440   -0.5620   -0.5190 C   0  0  0  0  0  0  0  0  0  0  0  0
    4.2290   -0.2730    0.2320 C   0  0  0  0  0  0  0  0  0  0  0  0
    2.9120   -0.7060   -0.0730 N   0  0  0  0  0  0  0  0  0  0  0  0
    2.5080   -2.0200   -0.3960 C   0  0  0  0  0  0  0  0  0  0  0  0
    3.1850   -2.9900   -0.8130 O   0  0  0  0  0  0  0  0  0  0  0  0
    1.0200   -2.1040   -0.1480 C   0  0  0  0  0  0  0  0  0  0  0  0
    0.5960   -0.7620   -0.4480 N   0  0  0  0  0  0  0  0  0  0  0  0
   -0.6580   -0.2470   -0.9840 C   0  0  0  0  0  0  0  0  0  0  0  0
   -1.5700    0.0770    0.1070 N   0  0  0  0  0  0  0  0  0  0  0  0
   -2.0920   -0.9960    0.8790 C   0  0  0  0  0  0  0  0  0  0  0  0
   -3.0850   -1.8440    0.0970 C   0  0  0  0  0  0  0  0  0  0  0  0
   -3.5530   -2.9560    1.0030 C   0  0  0  0  0  0  0  0  0  0  0  0
   -4.5680   -3.8590    0.3480 C   0  0  2  0  0  0  0  0  0  0  0  0
   -4.9430   -4.9270    1.3480 C   0  0  0  0  0  0  0  0  0  0  0  0
   -4.1320   -4.4230   -0.9650 C   0  0  0  0  0  0  0  0  0  0  0  0
   -1.8670    1.4530    0.3110 C   0  0  0  0  0  0  0  0  0  0  0  0
   -2.7220    1.8520    1.2990 C   0  0  0  0  0  0  0  0  0  0  0  0
   -3.0010    3.2160    1.4840 C   0  0  0  0  0  0  0  0  0  0  0  0
   -2.3820    4.0960    0.6400 C   0  0  0  0  0  0  0  0  0  0  0  0
   -1.5190    3.6910   -0.3570 C   0  0  0  0  0  0  0  0  0  0  0  0
   -0.8720    4.6420   -1.2500 C   0  0  0  0  0  0  0  0  0  0  0  0
   -1.0470    5.9270   -1.1760 C   0  0  0  0  0  0  0  0  0  0  0  0
   -0.3490    6.7710   -2.1210 N   0  0  0  0  0  0  0  0  0  0  0  0
   -1.2910    2.3810   -0.4870 N   0  0  0  0  0  0  0  0  0  0  0  0
    1.7320    0.0780   -0.1050 C   0  0  0  0  0  0  0  0  0  0  0  0
    1.6630    1.3000    0.1240 O   0  0  0  0  0  0  0  0  0  0  0  0
    4.4380    0.5100    1.3760 C   0  0  0  0  0  0  0  0  0  0  0  0
    3.3650    0.8200    2.1470 F   0  0  0  0  0  0  0  0  0  0  0  0
    5.6980    0.9530    1.7080 C   0  0  0  0  0  0  0  0  0  0  0  0
    6.7770    0.6310    0.9150 C   0  0  0  0  0  0  0  0  0  0  0  0
    8.3870    1.1730    1.2940 Cl  0  0  0  0  0  0  0  0  0  0  0  0
  1  2  1  0
  2  3  2  0
  2 32  1  0
  3  4  1  0
  4  5  1  0
  4 29  2  0
  5  6  1  0
  5 27  1  0
  6  7  2  0
  6  8  1  0
  8  9  1  0
  9 10  1  0
  9 27  1  0
 10 11  1  0
 11 12  1  0
 11 18  1  0
 12 13  1  0
 13 14  1  0
 14 15  1  0
 15 16  1  1
 15 17  1  0
 18 19  2  0
 18 26  1  0
 19 20  1  0
 20 21  2  0
 21 22  1  0
 22 23  1  0
 22 26  2  0
 23 24  2  3
 24 25  1  0
 27 28  2  0
 29 30  1  0
 29 31  1  0
 31 32  2  0
 32 33  1  0
M  CHG  1  25   1
M  END
