
     RDKit          3D

 33 35  0  0  0  0  0  0  0  0999 V2000
    7.0570   -0.4210    0.4130 C   0  0  0  0  0  0  0  0  0  0  0  0
    5.6470    0.0080    0.4650 C   0  0  0  0  0  0  0  0  0  0  0  0
    4.6820   -0.7810    0.8930 C   0  0  0  0  0  0  0  0  0  0  0  0
    3.3190   -0.3870    0.9560 N   0  0  0  0  0  0  0  0  0  0  0  0
    2.2070   -1.2300    0.8320 C   0  0  0  0  0  0  0  0  0  0  0  0
    2.3240   -2.4880    0.6430 O   0  0  0  0  0  0  0  0  0  0  0  0
    0.8360   -0.6860    0.9180 C   0  0  0  0  0  0  0  0  0  0  0  0
   -0.1060   -1.7680    0.7580 N   0  0  1  0  0  0  0  0  0  0  0  0
    0.0780   -2.7440    1.7900 C   0  0  0  0  0  0  0  0  0  0  0  0
   -1.4440   -1.1790    0.7770 C   0  0  0  0  0  0  0  0  0  0  0  0
   -2.4200   -2.2490    0.5400 C   0  0  0  0  0  0  0  0  0  0  0  0
   -1.9570   -3.5280    0.4070 N   0  0  0  0  0  0  0  0  0  0  0  0
   -2.7570   -4.5750    0.2160 C   0  0  0  0  0  0  0  0  0  0  0  0
   -4.1140   -4.3540    0.1500 C   0  0  0  0  0  0  0  0  0  0  0  0
   -4.6550   -3.1030    0.2740 C   0  0  0  0  0  0  0  0  0  0  0  0
   -3.7480   -2.0250    0.4760 C   0  0  0  0  0  0  0  0  0  0  0  0
   -4.3400   -0.8000    0.5890 O   0  0  0  0  0  0  0  0  0  0  0  0
   -4.2060    0.3220   -0.1670 C   0  0  0  0  0  0  0  0  0  0  0  0
   -4.7680    0.2680   -1.4600 C   0  0  0  0  0  0  0  0  0  0  0  0
   -5.3760   -0.8570   -1.8460 F   0  0  0  0  0  0  0  0  0  0  0  0
   -4.7030    1.3260   -2.3100 C   0  0  0  0  0  0  0  0  0  0  0  0
   -4.0730    2.4780   -1.9000 C   0  0  0  0  0  0  0  0  0  0  0  0
   -4.0170    3.6110   -2.8440 C   0  0  0  0  0  0  0  0  0  0  0  0
   -3.5420    2.5260   -0.6720 N   0  0  0  0  0  0  0  0  0  0  0  0
   -3.5950    1.4950    0.1840 C   0  0  0  0  0  0  0  0  0  0  0  0
   -3.0170    1.6880    1.5160 C   0  0  0  0  0  0  0  0  0  0  0  0
    3.0780    1.0510    1.1740 C   0  0  0  0  0  0  0  0  0  0  0  0
    3.8270    1.6810    0.0160 C   0  0  0  0  0  0  0  0  0  0  0  0
    3.1680    2.4300   -0.8090 C   0  0  0  0  0  0  0  0  0  0  0  0
    3.6300    3.1380   -1.9920 C   0  0  0  0  0  0  0  0  0  0  0  0
    3.4470    4.9030   -1.8100 Cl  0  0  0  0  0  0  0  0  0  0  0  0
    5.2420    1.3510   -0.0160 C   0  0  0  0  0  0  0  0  0  0  0  0
    6.0900    2.2040   -0.4200 N   0  0  0  0  0  0  0  0  0  0  0  0
  1  2  1  0
  2  3  2  0
  2 32  1  0
  3  4  1  0
  4  5  1  0
  4 27  1  0
  5  6  2  0
  5  7  1  0
  7  8  1  0
  8  9  1  1
  8 10  1  0
 10 11  1  0
 11 12  2  0
 11 16  1  0
 12 13  1  0
 13 14  2  0
 14 15  1  0
 15 16  2  0
 16 17  1  0
 17 18  1  0
 18 19  2  0
 18 25  1  0
 19 20  1  0
 19 21  1  0
 21 22  2  0
 22 23  1  0
 22 24  1  0
 24 25  2  0
 25 26  1  0
 27 28  1  0
 28 29  2  3
 28 32  1  0
 29 30  1  0
 30 31  1  0
 32 33  2  0
M  CHG  1   8   1
M  END
