
     RDKit          3D

 33 35  0  0  0  0  0  0  0  0999 V2000
    3.9050    0.2370    2.8440 C   0  0  0  0  0  0  0  0  0  0  0  0
    5.1380    0.4170    2.6490 C   0  0  0  0  0  0  0  0  0  0  0  0
    5.9450    0.4350    1.4630 C   0  0  0  0  0  0  0  0  0  0  0  0
    7.2850    0.6880    1.5550 C   0  0  0  0  0  0  0  0  0  0  0  0
    7.9260    0.6440    0.2600 C   0  0  1  0  0  0  0  0  0  0  0  0
    8.5280   -0.5830    0.0270 F   0  0  0  0  0  0  0  0  0  0  0  0
    6.7530    0.7050   -0.7010 C   0  0  0  0  0  0  0  0  0  0  0  0
    6.9090    1.0140   -1.9590 C   0  0  0  0  0  0  0  0  0  0  0  0
    5.9820    1.1420   -3.0490 C   0  0  0  0  0  0  0  0  0  0  0  0
    5.5920    0.4120    0.0620 N   0  0  0  0  0  0  0  0  0  0  0  0
    4.3030    0.0850   -0.5080 C   0  0  2  0  0  0  0  0  0  0  0  0
    3.3210    1.2020   -0.6060 C   0  0  0  0  0  0  0  0  0  0  0  0
    2.3250    0.8710   -1.7110 C   0  0  0  0  0  0  0  0  0  0  0  0
    1.8800   -0.4890   -1.6420 N   0  0  2  0  0  0  0  0  0  0  0  0
    0.4670   -0.5620   -1.8680 C   0  0  0  0  0  0  0  0  0  0  0  0
   -0.3160   -0.4110   -0.6110 C   0  0  0  0  0  0  0  0  0  0  0  0
   -1.7880   -0.4790   -0.8530 C   0  0  0  0  0  0  0  0  0  0  0  0
   -2.1490   -0.6510   -2.0490 O   0  0  0  0  0  0  0  0  0  0  0  0
   -2.7620   -0.3640    0.1630 N   0  0  0  0  0  0  0  0  0  0  0  0
   -4.1710   -0.4430   -0.1740 C   0  0  0  0  0  0  0  0  0  0  0  0
   -4.9650   -0.2880    1.1040 C   0  0  0  0  0  0  0  0  0  0  0  0
   -6.4430   -0.3560    0.8330 C   0  0  0  0  0  0  0  0  0  0  0  0
   -6.7750   -0.5260   -0.3470 O   0  0  0  0  0  0  0  0  0  0  0  0
   -7.2840   -0.2210    1.9490 N   0  0  0  0  0  0  0  0  0  0  0  0
   -8.6850   -0.2580    1.8700 C   0  0  0  0  0  0  0  0  0  0  0  0
   -9.3330   -0.3890    0.6690 C   0  0  0  0  0  0  0  0  0  0  0  0
  -10.7290   -0.4090    0.6830 C   0  0  0  0  0  0  0  0  0  0  0  0
  -11.3790   -0.3000    1.8770 C   0  0  0  0  0  0  0  0  0  0  0  0
  -10.7280   -0.1730    3.0400 N   0  0  0  0  0  0  0  0  0  0  0  0
   -9.4030   -0.1500    3.0580 C   0  0  0  0  0  0  0  0  0  0  0  0
   -8.5500    0.0160    4.5780 Cl  0  0  0  0  0  0  0  0  0  0  0  0
    2.1900   -1.1030   -0.3590 C   0  0  0  0  0  0  0  0  0  0  0  0
    3.6970   -1.2220   -0.1910 C   0  0  0  0  0  0  0  0  0  0  0  0
  1  2  2  0
  2  3  1  0
  3  4  2  0
  3 10  1  0
  4  5  1  0
  5  6  1  1
  5  7  1  0
  7  8  2  3
  7 10  1  0
  8  9  1  0
 11 10  1  1
 11 12  1  0
 11 33  1  0
 12 13  1  0
 13 14  1  0
 14 15  1  1
 14 32  1  0
 15 16  1  0
 16 17  1  0
 17 18  2  0
 17 19  1  0
 19 20  1  0
 20 21  1  0
 21 22  1  0
 22 23  2  0
 22 24  1  0
 24 25  1  0
 25 26  2  0
 25 30  1  0
 26 27  1  0
 27 28  2  0
 28 29  1  0
 29 30  2  0
 30 31  1  0
 32 33  1  0
M  CHG  1  14   1
M  END
