
     RDKit          3D

 33 35  0  0  0  0  0  0  0  0999 V2000
    6.0170   -2.4480   -3.2460 C   0  0  0  0  0  0  0  0  0  0  0  0
    4.7850   -1.6860   -3.0400 C   0  0  0  0  0  0  0  0  0  0  0  0
    4.2980   -1.4490   -1.8530 C   0  0  0  0  0  0  0  0  0  0  0  0
    5.1410   -2.0570   -0.4560 Cl  0  0  0  0  0  0  0  0  0  0  0  0
    3.0750   -0.6940   -1.7410 C   0  0  0  0  0  0  0  0  0  0  0  0
    2.5570   -0.3210   -2.8660 O   0  0  0  0  0  0  0  0  0  0  0  0
    2.4420   -0.3580   -0.5370 N   0  0  0  0  0  0  0  0  0  0  0  0
    1.1430    0.3460   -0.6130 C   0  0  0  0  0  0  0  0  0  0  0  0
    1.2710    1.8190   -0.6320 C   0  0  0  0  0  0  0  0  0  0  0  0
   -0.0820    2.4690   -0.7620 C   0  0  0  0  0  0  0  0  0  0  0  0
   -1.0170    2.1590    0.2660 N   0  0  0  0  0  0  0  0  0  0  0  0
   -1.9050    1.0260    0.1110 C   0  0  0  0  0  0  0  0  0  0  0  0
   -2.5910    0.7700    1.0840 O   0  0  0  0  0  0  0  0  0  0  0  0
   -2.0140    0.2480   -1.0360 N   0  0  0  0  0  0  0  0  0  0  0  0
   -2.7020   -0.8950   -1.4360 C   0  0  0  0  0  0  0  0  0  0  0  0
   -3.4840   -1.6900   -0.8060 C   0  0  0  0  0  0  0  0  0  0  0  0
   -3.7970   -1.4860    0.6440 C   0  0  0  0  0  0  0  0  0  0  0  0
   -5.0750   -1.1440    0.8400 F   0  0  0  0  0  0  0  0  0  0  0  0
   -4.1120   -2.8550   -1.3200 N   0  0  0  0  0  0  0  0  0  0  0  0
   -4.0730   -3.0810   -2.6850 C   0  0  0  0  0  0  0  0  0  0  0  0
   -3.1840   -2.2120   -3.4290 C   0  0  0  0  0  0  0  0  0  0  0  0
   -2.5530   -1.2190   -2.9060 C   0  0  0  0  0  0  0  0  0  0  0  0
   -1.1260    3.0010    1.4460 C   0  0  2  0  0  0  0  0  0  0  0  0
   -0.9130    2.2880    2.7250 C   0  0  0  0  0  0  0  0  0  0  0  0
   -1.6840    3.1130    3.7660 C   0  0  0  0  0  0  0  0  0  0  0  0
   -2.7820    3.8030    2.9990 C   0  0  0  0  0  0  0  0  0  0  0  0
   -2.5200    3.6030    1.5350 C   0  0  0  0  0  0  0  0  0  0  0  0
    2.9660   -0.6600    0.7210 C   0  0  0  0  0  0  0  0  0  0  0  0
    2.4180   -1.6290    1.5640 C   0  0  0  0  0  0  0  0  0  0  0  0
    2.9100   -1.9270    2.8030 C   0  0  0  0  0  0  0  0  0  0  0  0
    4.0060   -1.2430    3.2640 C   0  0  0  0  0  0  0  0  0  0  0  0
    4.5640   -0.2880    2.4610 C   0  0  0  0  0  0  0  0  0  0  0  0
    4.0530   -0.0250    1.2510 N   0  0  0  0  0  0  0  0  0  0  0  0
  1  2  1  0
  2  3  2  3
  3  4  1  0
  3  5  1  0
  5  6  2  0
  5  7  1  0
  7  8  1  0
  7 28  1  0
  8  9  1  0
  9 10  1  0
 10 11  1  0
 11 12  1  0
 23 11  1  6
 12 13  2  0
 12 14  1  0
 14 15  1  0
 15 16  2  0
 15 22  1  0
 16 17  1  0
 16 19  1  0
 17 18  1  0
 19 20  1  0
 20 21  1  0
 21 22  2  0
 23 24  1  0
 23 27  1  0
 24 25  1  0
 25 26  1  0
 26 27  1  0
 28 29  2  0
 28 33  1  0
 29 30  1  0
 30 31  2  0
 31 32  1  0
 32 33  2  0
M  CHG  1  19   1
M  END
