
     RDKit          3D

 28 31  0  0  0  0  0  0  0  0999 V2000
    8.7560    2.3000   -1.0520 C   0  0  0  0  0  0  0  0  0  0  0  0
    7.6330    1.3660   -0.7960 C   0  0  0  0  0  0  0  0  0  0  0  0
    7.0150    0.9260   -1.7480 O   0  0  0  0  0  0  0  0  0  0  0  0
    7.2550    0.9660    0.5660 C   0  0  0  0  0  0  0  0  0  0  0  0
    6.0920    0.0190    0.5300 C   0  0  0  0  0  0  0  0  0  0  0  0
    4.7820    0.3710    0.5680 C   0  0  0  0  0  0  0  0  0  0  0  0
    4.0150   -0.7900    0.5150 C   0  0  0  0  0  0  0  0  0  0  0  0
    2.5610   -0.7500    0.5000 C   0  0  0  0  0  0  0  0  0  0  0  0
    1.9150    0.4580    0.7890 C   0  0  0  0  0  0  0  0  0  0  0  0
    0.5760    0.5410    0.7640 N   0  0  0  0  0  0  0  0  0  0  0  0
   -0.2120   -0.4970    0.4700 C   0  0  0  0  0  0  0  0  0  0  0  0
   -1.5930   -0.3720    0.4550 N   0  0  0  0  0  0  0  0  0  0  0  0
   -2.2190    0.9220    0.7660 C   0  0  0  0  0  0  0  0  0  0  0  0
   -3.0430    1.2790   -0.4570 C   0  0  0  0  0  0  0  0  0  0  0  0
   -4.0780    0.2040   -0.7080 C   0  0  2  0  0  0  0  0  0  0  0  0
   -3.8580   -0.2750   -2.0030 O   0  0  0  0  0  0  0  0  0  0  0  0
   -5.4250    0.8470   -0.6840 C   0  0  1  0  0  0  0  0  0  0  0  0
   -6.5710   -0.0650   -0.9140 C   0  0  0  0  0  0  0  0  0  0  0  0
   -7.3140   -0.0070    0.4200 C   0  0  0  0  0  0  0  0  0  0  0  0
   -7.1590    1.3390    0.7490 O   0  0  0  0  0  0  0  0  0  0  0  0
   -5.7640    1.5250    0.6090 C   0  0  0  0  0  0  0  0  0  0  0  0
   -3.9260   -0.9470    0.2330 C   0  0  0  0  0  0  0  0  0  0  0  0
   -2.5000   -1.4530    0.1470 C   0  0  0  0  0  0  0  0  0  0  0  0
    0.3850   -1.6550    0.1930 N   0  0  0  0  0  0  0  0  0  0  0  0
    1.7530   -1.8000    0.2020 C   0  0  0  0  0  0  0  0  0  0  0  0
    2.2620   -3.1420   -0.1610 C   0  0  0  0  0  0  0  0  0  0  0  0
    4.8870   -1.7780    0.4500 N   0  0  0  0  0  0  0  0  0  0  0  0
    6.1350   -1.2990    0.4580 N   0  0  0  0  0  0  0  0  0  0  0  0
  1  2  1  0
  2  3  2  0
  2  4  1  0
  4  5  1  0
  5  6  1  0
  5 28  2  0
  6  7  2  0
  7  8  1  0
  7 27  1  0
  8  9  2  0
  8 25  1  0
  9 10  1  0
 10 11  2  0
 11 12  1  0
 11 24  1  0
 12 13  1  0
 12 23  1  0
 13 14  1  0
 14 15  1  0
 15 16  1  6
 15 17  1  0
 15 22  1  0
 17 18  1  1
 17 21  1  0
 18 19  1  0
 19 20  1  0
 20 21  1  0
 22 23  1  0
 24 25  2  0
 25 26  1  0
 27 28  1  0
M  END
