
     RDKit          3D

 28 30  0  0  0  0  0  0  0  0999 V2000
    8.0350   -0.7910   -0.1070 C   0  0  0  0  0  0  0  0  0  0  0  0
    7.9660   -2.1290   -0.2540 O   0  0  0  0  0  0  0  0  0  0  0  0
    7.0640   -2.9150    0.3150 C   0  0  0  0  0  0  0  0  0  0  0  0
    5.6280   -2.6580   -0.0080 C   0  0  0  0  0  0  0  0  0  0  0  0
    5.2200   -1.3520    0.4210 N   0  0  0  0  0  0  0  0  0  0  0  0
    3.8720   -0.8960    0.1590 C   0  0  0  0  0  0  0  0  0  0  0  0
    3.1410   -1.6850   -0.4350 O   0  0  0  0  0  0  0  0  0  0  0  0
    3.4230    0.3690    0.5570 N   0  0  0  0  0  0  0  0  0  0  0  0
    2.1290    0.9070    0.3550 C   0  0  0  0  0  0  0  0  0  0  0  0
    1.9750    2.2410    0.7680 C   0  0  0  0  0  0  0  0  0  0  0  0
    0.7610    2.8700    0.6260 C   0  0  0  0  0  0  0  0  0  0  0  0
   -0.3120    2.1990    0.0790 C   0  0  0  0  0  0  0  0  0  0  0  0
   -0.1480    0.9010   -0.3200 C   0  0  0  0  0  0  0  0  0  0  0  0
   -1.2860    0.1560   -0.9130 C   0  0  0  0  0  0  0  0  0  0  0  0
   -2.5460    0.7510   -0.8470 N   0  0  0  0  0  0  0  0  0  0  0  0
   -3.1150    1.0260    0.4300 C   0  0  0  0  0  0  0  0  0  0  0  0
   -4.3760    0.1820    0.4840 C   0  0  0  0  0  0  0  0  0  0  0  0
   -4.6950   -0.1880    1.7020 C   0  0  0  0  0  0  0  0  0  0  0  0
   -5.8370   -0.9810    1.9630 N   0  0  0  0  0  0  0  0  0  0  0  0
   -6.6970   -1.3950    0.8910 C   0  0  0  0  0  0  0  0  0  0  0  0
   -6.2900   -0.9540   -0.4330 C   0  0  0  0  0  0  0  0  0  0  0  0
   -5.2240   -0.2280   -0.6280 C   0  0  0  0  0  0  0  0  0  0  0  0
   -4.9790    0.1060   -1.9490 O   0  0  0  0  0  0  0  0  0  0  0  0
   -4.2720    1.1320   -2.5860 C   0  0  1  0  0  0  0  0  0  0  0  0
   -5.1770    2.2970   -2.7040 C   0  0  0  0  0  0  0  0  0  0  0  0
   -5.9100    3.2130   -2.7850 N   0  0  0  0  0  0  0  0  0  0  0  0
   -2.9870    1.5440   -1.9190 C   0  0  0  0  0  0  0  0  0  0  0  0
    1.0600    0.2420   -0.1890 C   0  0  0  0  0  0  0  0  0  0  0  0
  1  2  1  0
  2  3  1  0
  3  4  1  0
  4  5  1  0
  5  6  1  0
  6  7  2  0
  6  8  1  0
  8  9  1  0
  9 10  2  0
  9 28  1  0
 10 11  1  0
 11 12  2  0
 12 13  1  0
 13 14  1  0
 13 28  2  0
 14 15  1  0
 15 16  1  0
 15 27  1  0
 16 17  1  0
 17 18  2  0
 17 22  1  0
 18 19  1  0
 19 20  1  0
 20 21  1  0
 21 22  2  0
 22 23  1  0
 23 24  1  0
 24 25  1  1
 24 27  1  0
 25 26  3  0
M  END
