
     RDKit          3D

 28 31  0  0  0  0  0  0  0  0999 V2000
   -2.0560    2.0610   -0.9290 N   0  0  0  0  0  0  0  0  0  0  0  0
   -1.6200    1.1870   -0.3100 C   0  0  0  0  0  0  0  0  0  0  0  0
   -1.0530    0.0970    0.4540 C   0  0  0  0  0  0  0  0  0  0  0  0
    0.3950   -0.0790    0.4610 C   0  0  0  0  0  0  0  0  0  0  0  0
    1.2550    0.6640   -0.1660 N   0  0  0  0  0  0  0  0  0  0  0  0
    2.5850    0.2230    0.0470 C   0  0  0  0  0  0  0  0  0  0  0  0
    3.7780    0.7060   -0.4160 N   0  0  0  0  0  0  0  0  0  0  0  0
    4.9510    0.1440   -0.0990 C   0  0  0  0  0  0  0  0  0  0  0  0
    6.1390    0.6830   -0.6030 O   0  0  0  0  0  0  0  0  0  0  0  0
    7.4150    0.2080   -0.3610 C   0  0  2  0  0  0  0  0  0  0  0  0
    8.4470    1.2890   -0.0070 C   0  0  0  0  0  0  0  0  0  0  0  0
    9.4320    0.5310   -0.8710 C   0  0  0  0  0  0  0  0  0  0  0  0
    8.2240   -0.0010   -1.6510 C   0  0  0  0  0  0  0  0  0  0  0  0
    4.9190   -0.9620    0.7250 C   0  0  0  0  0  0  0  0  0  0  0  0
    3.7320   -1.4800    1.2130 C   0  0  0  0  0  0  0  0  0  0  0  0
    2.5350   -0.8730    0.8660 C   0  0  0  0  0  0  0  0  0  0  0  0
    1.1150   -1.1400    1.1880 C   0  0  0  0  0  0  0  0  0  0  0  0
   -1.8260   -0.7120    1.1230 C   0  0  0  0  0  0  0  0  0  0  0  0
   -1.4580   -1.8090    1.9100 N   0  0  0  0  0  0  0  0  0  0  0  0
   -3.2190   -0.4680    1.0580 O   0  0  0  0  0  0  0  0  0  0  0  0
   -3.9550   -1.0630    0.0000 C   0  0  0  0  0  0  0  0  0  0  0  0
   -5.4110   -0.7230    0.0620 C   0  0  0  0  0  0  0  0  0  0  0  0
   -5.6580    0.6970   -0.0210 N   0  0  0  0  0  0  0  0  0  0  0  0
   -5.3450    1.2390   -1.3160 C   0  0  0  0  0  0  0  0  0  0  0  0
   -6.5980    1.5640   -2.1070 C   0  0  0  0  0  0  0  0  0  0  0  0
   -7.5400    0.5730   -2.0370 O   0  0  0  0  0  0  0  0  0  0  0  0
   -7.9180    0.2860   -0.7510 C   0  0  0  0  0  0  0  0  0  0  0  0
   -7.0430    0.9830    0.2620 C   0  0  0  0  0  0  0  0  0  0  0  0
  1  2  3  0
  2  3  1  0
  3  4  1  0
  3 18  2  3
  4  5  2  0
  4 17  1  0
  5  6  1  0
  6  7  2  0
  6 16  1  0
  7  8  1  0
  8  9  1  0
  8 14  2  0
 10  9  1  6
 10 11  1  0
 10 13  1  0
 11 12  1  0
 12 13  1  0
 14 15  1  0
 15 16  2  0
 16 17  1  0
 18 19  1  0
 18 20  1  0
 20 21  1  0
 21 22  1  0
 22 23  1  0
 23 24  1  0
 23 28  1  0
 24 25  1  0
 25 26  1  0
 26 27  1  0
 27 28  1  0
M  END
