
     RDKit          3D

 28 31  0  0  0  0  0  0  0  0999 V2000
    0.5810    0.5100   -1.0770 O   0  0  0  0  0  0  0  0  0  0  0  0
    1.3130    1.4020   -0.6070 C   0  0  0  0  0  0  0  0  0  0  0  0
    0.7630    2.6490   -0.2740 N   0  0  0  0  0  0  0  0  0  0  0  0
   -0.5580    3.1330   -0.3470 C   0  0  0  0  0  0  0  0  0  0  0  0
   -1.5520    2.5410    0.5740 C   0  0  2  0  0  0  0  0  0  0  0  0
   -1.2060    2.7010    1.9420 O   0  0  0  0  0  0  0  0  0  0  0  0
   -1.9320    1.1520    0.3240 C   0  0  0  0  0  0  0  0  0  0  0  0
   -3.1180    0.7320    1.0780 N   0  0  0  0  0  0  0  0  0  0  0  0
   -4.3020    1.3780    0.6440 C   0  0  0  0  0  0  0  0  0  0  0  0
   -5.5320    0.6430    1.1570 C   0  0  0  0  0  0  0  0  0  0  0  0
   -5.4930   -0.6920    0.5150 C   0  0  0  0  0  0  0  0  0  0  0  0
   -6.6110   -1.2070   -0.0920 C   0  0  0  0  0  0  0  0  0  0  0  0
   -6.5220   -2.4710   -0.6860 C   0  0  0  0  0  0  0  0  0  0  0  0
   -5.3000   -3.1360   -0.6260 C   0  0  0  0  0  0  0  0  0  0  0  0
   -4.1840   -2.6100   -0.0130 C   0  0  0  0  0  0  0  0  0  0  0  0
   -4.2920   -1.3590    0.5680 C   0  0  0  0  0  0  0  0  0  0  0  0
   -3.1680   -0.6770    1.2600 C   0  0  0  0  0  0  0  0  0  0  0  0
    2.7420    1.1020   -0.4190 C   0  0  0  0  0  0  0  0  0  0  0  0
    3.2370   -0.1290   -0.7580 C   0  0  0  0  0  0  0  0  0  0  0  0
    4.5880   -0.4410   -0.5900 C   0  0  0  0  0  0  0  0  0  0  0  0
    5.0250   -1.7170   -0.9670 N   0  0  0  0  0  0  0  0  0  0  0  0
    6.3660   -2.1870   -0.8440 C   0  0  1  0  0  0  0  0  0  0  0  0
    7.4220   -1.3430   -1.5460 C   0  0  0  0  0  0  0  0  0  0  0  0
    8.3080   -1.7650   -0.5360 O   0  0  0  0  0  0  0  0  0  0  0  0
    7.1840   -1.8000    0.3270 C   0  0  0  0  0  0  0  0  0  0  0  0
    5.3790    0.5110   -0.0840 N   0  0  0  0  0  0  0  0  0  0  0  0
    4.9090    1.7190    0.2520 C   0  0  0  0  0  0  0  0  0  0  0  0
    3.5820    2.0070    0.0800 N   0  0  0  0  0  0  0  0  0  0  0  0
  1  2  2  0
  2  3  1  0
  2 18  1  0
  3  4  1  0
  4  5  1  0
  5  6  1  1
  5  7  1  0
  7  8  1  0
  8  9  1  0
  8 17  1  0
  9 10  1  0
 10 11  1  0
 11 12  2  0
 11 16  1  0
 12 13  1  0
 13 14  2  0
 14 15  1  0
 15 16  2  0
 16 17  1  0
 18 19  2  0
 18 28  1  0
 19 20  1  0
 20 21  1  0
 20 26  2  0
 22 21  1  1
 22 23  1  0
 22 25  1  0
 23 24  1  0
 24 25  1  0
 26 27  1  0
 27 28  2  0
M  END
