
     RDKit          3D

 28 31  0  0  0  0  0  0  0  0999 V2000
   -3.7720   -0.5490    1.7670 O   0  0  0  0  0  0  0  0  0  0  0  0
   -3.8570   -0.1610    0.5520 C   0  0  0  0  0  0  0  0  0  0  0  0
   -2.7060    0.1340   -0.1920 N   0  0  0  0  0  0  0  0  0  0  0  0
   -2.8090    0.5650   -1.5480 C   0  0  0  0  0  0  0  0  0  0  0  0
   -1.3670    0.7630   -2.0490 C   0  0  0  0  0  0  0  0  0  0  0  0
   -0.7640    1.8280   -1.1810 C   0  0  0  0  0  0  0  0  0  0  0  0
   -0.6260    1.2960    0.2270 C   0  0  2  0  0  0  0  0  0  0  0  0
    0.7990    1.1560    0.6190 C   0  0  0  0  0  0  0  0  0  0  0  0
    1.5490    0.2580   -0.2260 N   0  0  0  0  0  0  0  0  0  0  0  0
    2.9350    0.1580    0.1980 C   0  0  0  0  0  0  0  0  0  0  0  0
    3.6900   -0.7590   -0.6700 C   0  0  0  0  0  0  0  0  0  0  0  0
    3.1430   -1.4400   -1.7500 C   0  0  0  0  0  0  0  0  0  0  0  0
    4.0940   -2.1850   -2.3060 N   0  0  0  0  0  0  0  0  0  0  0  0
    5.2060   -2.0060   -1.6320 N   0  0  0  0  0  0  0  0  0  0  0  0
    4.9900   -1.1390   -0.6250 C   0  0  0  0  0  0  0  0  0  0  0  0
    6.0030   -0.7290    0.3330 C   0  0  0  0  0  0  0  0  0  0  0  0
    6.2570    0.5780    0.6760 C   0  0  0  0  0  0  0  0  0  0  0  0
    7.2390    0.8720    1.6150 C   0  0  0  0  0  0  0  0  0  0  0  0
    7.9610   -0.1370    2.2050 C   0  0  0  0  0  0  0  0  0  0  0  0
    7.7150   -1.4020    1.8720 N   0  0  0  0  0  0  0  0  0  0  0  0
    6.7770   -1.7050    0.9740 C   0  0  0  0  0  0  0  0  0  0  0  0
   -1.4030    0.0040    0.4090 C   0  0  0  0  0  0  0  0  0  0  0  0
   -5.2100   -0.0450   -0.0030 C   0  0  1  0  0  0  0  0  0  0  0  0
   -5.3030    0.3730   -1.2990 O   0  0  0  0  0  0  0  0  0  0  0  0
   -5.9940   -1.3350    0.1160 C   0  0  0  0  0  0  0  0  0  0  0  0
   -7.3580   -0.8630    0.4810 C   0  0  0  0  0  0  0  0  0  0  0  0
   -7.2900    0.4230    0.9290 O   0  0  0  0  0  0  0  0  0  0  0  0
   -6.0030    0.8650    0.9020 C   0  0  0  0  0  0  0  0  0  0  0  0
  1  2  2  0
  2  3  1  0
  2 23  1  0
  3  4  1  0
  3 22  1  0
  4  5  1  0
  5  6  1  0
  6  7  1  0
  7  8  1  6
  7 22  1  0
  8  9  1  0
  9 10  1  0
 10 11  1  0
 11 12  2  0
 11 15  1  0
 12 13  1  0
 13 14  1  0
 14 15  2  0
 15 16  1  0
 16 17  2  0
 16 21  1  0
 17 18  1  0
 18 19  2  0
 19 20  1  0
 20 21  2  0
 23 24  1  6
 23 25  1  0
 23 28  1  0
 25 26  1  0
 26 27  1  0
 27 28  1  0
M  END
