
     RDKit          3D

 28 31  0  0  0  0  0  0  0  0999 V2000
   -0.0630    2.9570   -3.8850 C   0  0  0  0  0  0  0  0  0  0  0  0
   -0.1340    2.1290   -2.6620 C   0  0  0  0  0  0  0  0  0  0  0  0
    0.7740    1.1690   -2.3630 N   0  0  0  0  0  0  0  0  0  0  0  0
    0.7130    0.4140   -1.2510 C   0  0  0  0  0  0  0  0  0  0  0  0
    1.7430   -0.6210   -0.9880 C   0  0  2  0  0  0  0  0  0  0  0  0
    1.2920   -2.0030   -1.3860 C   0  0  0  0  0  0  0  0  0  0  0  0
    2.5660   -2.8670   -1.4560 C   0  0  0  0  0  0  0  0  0  0  0  0
    3.5820   -2.3210   -0.4510 C   0  0  0  0  0  0  0  0  0  0  0  0
    2.8840   -1.6790    0.7070 C   0  0  1  0  0  0  0  0  0  0  0  0
    3.7780   -1.4940    1.8680 C   0  0  0  0  0  0  0  0  0  0  0  0
    4.9830   -0.6470    1.6710 C   0  0  0  0  0  0  0  0  0  0  0  0
    5.8700   -1.1670    0.6670 N   0  0  0  0  0  0  0  0  0  0  0  0
    2.1610   -0.5530    0.3400 O   0  0  0  0  0  0  0  0  0  0  0  0
   -0.3150    0.6510   -0.4170 N   0  0  0  0  0  0  0  0  0  0  0  0
   -1.2610    1.5960   -0.6520 C   0  0  0  0  0  0  0  0  0  0  0  0
   -1.1860    2.3550   -1.7830 C   0  0  0  0  0  0  0  0  0  0  0  0
   -2.1560    3.3130   -1.9970 C   0  0  0  0  0  0  0  0  0  0  0  0
   -2.1130    4.0240   -3.0270 O   0  0  0  0  0  0  0  0  0  0  0  0
   -3.1510    3.4960   -1.1110 N   0  0  0  0  0  0  0  0  0  0  0  0
   -3.2220    2.7300    0.0270 C   0  0  0  0  0  0  0  0  0  0  0  0
   -4.1970    2.9910    0.7840 O   0  0  0  0  0  0  0  0  0  0  0  0
   -2.2900    1.8080    0.2320 N   0  0  0  0  0  0  0  0  0  0  0  0
   -2.2660    0.9650    1.3670 C   0  0  1  0  0  0  0  0  0  0  0  0
   -3.5300    0.9700    2.1530 C   0  0  0  0  0  0  0  0  0  0  0  0
   -4.6470    0.2340    1.4330 C   0  0  0  0  0  0  0  0  0  0  0  0
   -4.3690   -1.2570    1.6720 C   0  0  0  0  0  0  0  0  0  0  0  0
   -2.9090   -1.4370    1.8310 C   0  0  0  0  0  0  0  0  0  0  0  0
   -2.0400   -0.5050    1.0000 C   0  0  0  0  0  0  0  0  0  0  0  0
  1  2  1  0
  2  3  2  0
  2 16  1  0
  3  4  1  0
  5  4  1  1
  4 14  2  0
  5  6  1  0
  5 13  1  0
  6  7  1  0
  7  8  1  0
  8  9  1  0
  9 10  1  1
  9 13  1  0
 10 11  1  0
 11 12  1  0
 14 15  1  0
 15 16  2  0
 15 22  1  0
 16 17  1  0
 17 18  2  0
 17 19  1  0
 19 20  1  0
 20 21  2  0
 20 22  1  0
 23 22  1  6
 23 24  1  0
 23 28  1  0
 24 25  1  0
 25 26  1  0
 26 27  1  0
 27 28  1  0
M  END
