
     RDKit          3D

 28 30  0  0  0  0  0  0  0  0999 V2000
   -6.5450   -1.4680    2.1290 C   0  0  0  0  0  0  0  0  0  0  0  0
   -5.8690   -0.3390    1.4270 C   0  0  0  0  0  0  0  0  0  0  0  0
   -6.3720    0.9030    1.3700 N   0  0  0  0  0  0  0  0  0  0  0  0
   -5.5180    1.6690    0.6690 C   0  0  0  0  0  0  0  0  0  0  0  0
   -4.4590    0.8750    0.2810 C   0  0  0  0  0  0  0  0  0  0  0  0
   -4.6640   -0.3990    0.7530 C   0  0  0  0  0  0  0  0  0  0  0  0
   -3.7990   -1.6050    0.5930 C   0  0  0  0  0  0  0  0  0  0  0  0
   -4.3510   -2.5030   -0.4210 C   0  0  0  0  0  0  0  0  0  0  0  0
   -4.7790   -3.2390   -1.2380 N   0  0  0  0  0  0  0  0  0  0  0  0
   -3.4110    1.5640   -0.5150 C   0  0  1  0  0  0  0  0  0  0  0  0
   -2.3120    0.7670   -0.9070 N   0  0  0  0  0  0  0  0  0  0  0  0
   -1.0270    1.0010   -0.3700 C   0  0  0  0  0  0  0  0  0  0  0  0
   -0.8260    1.9320    0.4750 O   0  0  0  0  0  0  0  0  0  0  0  0
    0.1290    0.2370   -0.7180 N   0  0  0  0  0  0  0  0  0  0  0  0
    1.4410    0.5160   -0.1350 C   0  0  0  0  0  0  0  0  0  0  0  0
    2.4190   -0.4780   -0.7240 C   0  0  0  0  0  0  0  0  0  0  0  0
    3.7750   -0.1940   -0.1230 C   0  0  0  0  0  0  0  0  0  0  0  0
    4.8120   -1.1150   -0.6330 C   0  0  0  0  0  0  0  0  0  0  0  0
    4.4750   -1.9830   -1.4740 O   0  0  0  0  0  0  0  0  0  0  0  0
    6.1640   -1.0530   -0.2090 N   0  0  0  0  0  0  0  0  0  0  0  0
    7.1500   -1.9760   -0.7350 C   0  0  0  0  0  0  0  0  0  0  0  0
    8.4300   -1.1500   -0.9200 C   0  0  0  0  0  0  0  0  0  0  0  0
    8.9060   -0.7240    0.2970 O   0  0  0  0  0  0  0  0  0  0  0  0
    7.9600   -0.6030    1.2830 C   0  0  0  0  0  0  0  0  0  0  0  0
    6.6260   -0.0780    0.7590 C   0  0  0  0  0  0  0  0  0  0  0  0
   -4.1290    2.2340   -1.6610 C   0  0  0  0  0  0  0  0  0  0  0  0
   -4.9780    3.3440   -1.1100 C   0  0  0  0  0  0  0  0  0  0  0  0
   -5.5000    3.1090    0.2650 C   0  0  0  0  0  0  0  0  0  0  0  0
  1  2  1  0
  2  3  1  0
  2  6  2  0
  3  4  1  0
  4  5  2  0
  4 28  1  0
  5  6  1  0
  5 10  1  0
  6  7  1  0
  7  8  1  0
  8  9  3  0
 10 11  1  6
 10 26  1  0
 11 12  1  0
 12 13  2  0
 12 14  1  0
 14 15  1  0
 15 16  1  0
 16 17  1  0
 17 18  1  0
 18 19  2  0
 18 20  1  0
 20 21  1  0
 20 25  1  0
 21 22  1  0
 22 23  1  0
 23 24  1  0
 24 25  1  0
 26 27  1  0
 27 28  1  0
M  END
