
     RDKit          3D

 23 24  0  0  0  0  0  0  0  0999 V2000
   -4.2400   -1.7310   -2.6470 N   0  0  0  0  0  0  0  0  0  0  0  0
   -4.2910   -0.8940   -1.8670 C   0  0  0  0  0  0  0  0  0  0  0  0
   -4.3620    0.1800   -0.8650 C   0  0  0  0  0  0  0  0  0  0  0  0
   -3.1110    0.8960   -0.9190 N   0  0  0  0  0  0  0  0  0  0  0  0
   -1.8730    0.2310   -0.6600 C   0  0  0  0  0  0  0  0  0  0  0  0
   -1.9500   -0.9880   -0.3900 O   0  0  0  0  0  0  0  0  0  0  0  0
   -0.5660    0.8770   -0.6930 C   0  0  1  0  0  0  0  0  0  0  0  0
    0.4480   -0.1110   -0.3550 N   0  0  0  0  0  0  0  0  0  0  0  0
    0.3930   -0.7640    0.9030 C   0  0  0  0  0  0  0  0  0  0  0  0
   -0.5320   -0.5000    1.7390 O   0  0  0  0  0  0  0  0  0  0  0  0
    1.3820   -1.7600    1.2920 C   0  0  0  0  0  0  0  0  0  0  0  0
    2.4270   -2.1370    0.4870 C   0  0  0  0  0  0  0  0  0  0  0  0
    3.3760   -3.0870    0.8510 C   0  0  0  0  0  0  0  0  0  0  0  0
    3.2360   -3.6650    2.0930 C   0  0  0  0  0  0  0  0  0  0  0  0
    4.5330   -4.9680    2.5990 Br  0  0  0  0  0  0  0  0  0  0  0  0
    2.2000   -3.3020    2.9100 C   0  0  0  0  0  0  0  0  0  0  0  0
    1.2680   -2.3650    2.5430 C   0  0  0  0  0  0  0  0  0  0  0  0
    0.2000   -2.0100    3.4210 N   0  0  0  0  0  0  0  0  0  0  0  0
   -0.3250    1.2370   -2.1610 C   0  0  0  0  0  0  0  0  0  0  0  0
    0.9550    1.9980   -2.3160 C   0  0  0  0  0  0  0  0  0  0  0  0
    0.7090    3.3520   -1.6560 C   0  0  0  0  0  0  0  0  0  0  0  0
    0.5000    3.1270   -0.2070 C   0  0  0  0  0  0  0  0  0  0  0  0
   -0.4280    2.0590    0.2060 C   0  0  0  0  0  0  0  0  0  0  0  0
  1  2  3  0
  2  3  1  0
  3  4  1  0
  4  5  1  0
  5  6  2  0
  5  7  1  0
  7  8  1  1
  7 19  1  0
  7 23  1  0
  8  9  1  0
  9 10  2  0
  9 11  1  0
 11 12  2  0
 11 17  1  0
 12 13  1  0
 13 14  2  0
 14 15  1  0
 14 16  1  0
 16 17  2  0
 17 18  1  0
 19 20  1  0
 20 21  1  0
 21 22  1  0
 22 23  1  0
M  END
