
     RDKit          3D

 28 30  0  0  0  0  0  0  0  0999 V2000
   -4.0580    1.5650    2.3880 C   0  0  0  0  0  0  0  0  0  0  0  0
   -3.4070    1.6990    1.0310 C   0  0  2  0  0  0  0  0  0  0  0  0
   -2.7190    0.4690    0.6930 N   0  0  0  0  0  0  0  0  0  0  0  0
   -3.0210   -0.2870   -0.4620 C   0  0  0  0  0  0  0  0  0  0  0  0
   -3.9550    0.1900   -1.1860 O   0  0  0  0  0  0  0  0  0  0  0  0
   -2.3790   -1.5220   -0.8750 C   0  0  1  0  0  0  0  0  0  0  0  0
   -0.9810   -1.3440   -1.4670 C   0  0  0  0  0  0  0  0  0  0  0  0
   -0.0270   -0.7020   -0.5200 C   0  0  0  0  0  0  0  0  0  0  0  0
    1.3440   -0.5780   -1.1160 C   0  0  0  0  0  0  0  0  0  0  0  0
    1.6140   -0.9790   -2.2770 O   0  0  0  0  0  0  0  0  0  0  0  0
    2.3570    0.0070   -0.3450 N   0  0  0  0  0  0  0  0  0  0  0  0
    3.7120    0.1990   -0.7640 C   0  0  2  0  0  0  0  0  0  0  0  0
    4.9040   -0.6210    0.3490 S   0  0  0  0  0  0  0  0  0  0  0  0
    6.2970    0.5040    0.2840 C   0  0  0  0  0  0  0  0  0  0  0  0
    6.0020    1.6800   -0.1490 C   0  0  0  0  0  0  0  0  0  0  0  0
    4.2790    1.9090   -0.5790 S   0  0  0  0  0  0  0  0  0  0  0  0
    7.2080    2.5460   -0.1720 C   0  0  0  0  0  0  0  0  0  0  0  0
    7.3080    3.7420   -0.5290 O   0  0  0  0  0  0  0  0  0  0  0  0
    8.2920    1.7120    0.3170 C   0  0  0  0  0  0  0  0  0  0  0  0
    9.5110    2.0570    0.4620 O   0  0  0  0  0  0  0  0  0  0  0  0
    7.7010    0.4580    0.5900 N   0  0  0  0  0  0  0  0  0  0  0  0
   -2.4120   -2.6390    0.0970 C   0  0  0  0  0  0  0  0  0  0  0  0
   -3.5840   -3.5020   -0.3020 C   0  0  0  0  0  0  0  0  0  0  0  0
   -4.2470   -2.6370   -1.3760 C   0  0  0  0  0  0  0  0  0  0  0  0
   -3.1430   -2.0450   -1.9700 O   0  0  0  0  0  0  0  0  0  0  0  0
   -2.4350    2.8390    1.1260 C   0  0  0  0  0  0  0  0  0  0  0  0
   -1.2030    2.6710    0.9260 O   0  0  0  0  0  0  0  0  0  0  0  0
   -2.8510    4.1210    1.4380 O   0  0  0  0  0  0  0  0  0  0  0  0
  2  1  1  1
  2  3  1  0
  2 26  1  0
  3  4  1  0
  4  5  2  0
  4  6  1  0
  6  7  1  6
  6 22  1  0
  6 25  1  0
  7  8  1  0
  8  9  1  0
  9 10  2  0
  9 11  1  0
 12 11  1  1
 12 13  1  0
 12 16  1  0
 13 14  1  0
 14 15  2  0
 14 21  1  0
 15 16  1  0
 15 17  1  0
 17 18  2  0
 17 19  1  0
 19 20  2  0
 19 21  1  0
 22 23  1  0
 23 24  1  0
 24 25  1  0
 26 27  2  0
 26 28  1  0
M  END
