
     RDKit          3D

 28 29  0  0  0  0  0  0  0  0999 V2000
   -4.9340   -0.0870   -3.2540 N   0  0  0  0  0  0  0  0  0  0  0  0
   -5.4440    1.1150   -2.7260 C   0  0  0  0  0  0  0  0  0  0  0  0
   -6.2390    1.8020   -3.4500 O   0  0  0  0  0  0  0  0  0  0  0  0
   -5.1060    1.6240   -1.3770 C   0  0  0  0  0  0  0  0  0  0  0  0
   -4.2070    0.7210   -0.7200 N   0  0  0  0  0  0  0  0  0  0  0  0
   -4.5420   -0.6300   -0.4540 C   0  0  0  0  0  0  0  0  0  0  0  0
   -5.6710   -1.0440   -0.8100 O   0  0  0  0  0  0  0  0  0  0  0  0
   -3.5730   -1.5040    0.2240 C   0  0  0  0  0  0  0  0  0  0  0  0
   -2.3670   -0.7540    0.5090 N   0  0  0  0  0  0  0  0  0  0  0  0
   -2.3600   -0.1180    1.7280 O   0  0  0  0  0  0  0  0  0  0  0  0
   -1.4510    0.5130    2.5590 C   0  0  0  0  0  0  0  0  0  0  0  0
   -1.6880    0.3110    3.7860 O   0  0  0  0  0  0  0  0  0  0  0  0
   -0.2650    1.3720    2.3020 C   0  0  0  0  0  0  0  0  0  0  0  0
   -0.0800    1.6670    0.8530 C   0  0  0  0  0  0  0  0  0  0  0  0
    0.5550    0.5690    0.1000 C   0  0  0  0  0  0  0  0  0  0  0  0
    1.8640    0.7010    0.0620 C   0  0  0  0  0  0  0  0  0  0  0  0
    2.8580   -0.4970   -0.7880 S   0  0  0  0  0  0  0  0  0  0  0  0
    3.4310   -1.7880    0.2830 C   0  0  0  0  0  0  0  0  0  0  0  0
    4.6400   -1.9080    0.7320 C   0  0  0  0  0  0  0  0  0  0  0  0
    5.7640   -0.9720    0.4230 C   0  0  0  0  0  0  0  0  0  0  0  0
    6.9700   -1.0970    0.8730 C   0  0  0  0  0  0  0  0  0  0  0  0
    7.9050   -0.1720    0.5150 O   0  0  0  0  0  0  0  0  0  0  0  0
    7.1060    0.9960   -0.4500 S   0  0  0  0  0  0  0  0  0  0  0  0
    7.6720    0.9230   -1.8600 O   0  0  0  0  0  0  0  0  0  0  0  0
    5.4980    0.1870   -0.4570 C   0  0  0  0  0  0  0  0  0  0  0  0
    0.0950   -0.6410   -0.6210 C   0  0  0  0  0  0  0  0  0  0  0  0
   -1.3860   -0.8030   -0.5330 C   0  0  0  0  0  0  0  0  0  0  0  0
   -1.9380   -1.0470   -1.6380 O   0  0  0  0  0  0  0  0  0  0  0  0
  1  2  1  0
  2  3  2  0
  2  4  1  0
  4  5  1  0
  5  6  1  0
  6  7  2  0
  6  8  1  0
  8  9  1  0
  9 10  1  0
  9 27  1  0
 10 11  1  0
 11 12  2  0
 11 13  1  0
 13 14  1  0
 14 15  1  0
 15 16  2  3
 15 26  1  0
 16 17  1  0
 17 18  1  0
 18 19  2  3
 19 20  1  0
 20 21  2  0
 20 25  1  0
 21 22  1  0
 22 23  1  0
 23 24  2  0
 23 25  1  6
 26 27  1  0
 27 28  2  0
M  END
