
     RDKit          3D

 28 29  0  0  0  0  0  0  0  0999 V2000
   -5.9870    4.2060    0.0000 O   0  0  0  0  0  0  0  0  0  0  0  0
   -5.0200    4.5770   -0.6920 C   0  0  0  0  0  0  0  0  0  0  0  0
   -5.0330    5.8710   -1.2420 O   0  0  0  0  0  0  0  0  0  0  0  0
   -3.8730    3.6690   -0.9310 C   0  0  0  0  0  0  0  0  0  0  0  0
   -4.1660    2.0990   -0.0930 S   0  0  0  0  0  0  0  0  0  0  0  0
   -2.7490    1.0130   -0.4030 C   0  0  0  0  0  0  0  0  0  0  0  0
   -2.9650   -0.2800   -0.5660 C   0  0  0  0  0  0  0  0  0  0  0  0
   -4.3220   -0.6950   -0.4780 N   0  0  0  0  0  0  0  0  0  0  0  0
   -4.7310   -2.0120    0.0100 C   0  0  2  0  0  0  0  0  0  0  0  0
   -4.3850   -2.1680    1.4030 N   0  0  0  0  0  0  0  0  0  0  0  0
   -4.8150   -3.4890    1.8240 C   0  0  0  0  0  0  0  0  0  0  0  0
   -4.5070   -3.7010    3.1660 O   0  0  0  0  0  0  0  0  0  0  0  0
   -3.7350   -3.1830   -0.9460 S   0  0  0  0  0  0  0  0  0  0  0  0
   -2.0940   -2.4780   -1.0170 C   0  0  0  0  0  0  0  0  0  0  0  0
   -1.8510   -1.2090   -0.8410 C   0  0  0  0  0  0  0  0  0  0  0  0
   -0.5480   -0.6370   -0.8930 N   0  0  0  0  0  0  0  0  0  0  0  0
    0.6610   -1.3190   -1.1370 C   0  0  0  0  0  0  0  0  0  0  0  0
    0.6660   -2.5440   -1.3350 O   0  0  0  0  0  0  0  0  0  0  0  0
    1.9520   -0.5610   -1.1570 C   0  0  0  0  0  0  0  0  0  0  0  0
    1.9710    0.6700   -0.9610 O   0  0  0  0  0  0  0  0  0  0  0  0
    3.1300   -1.2180   -1.3940 O   0  0  0  0  0  0  0  0  0  0  0  0
    4.4240   -0.6990   -1.4460 C   0  0  0  0  0  0  0  0  0  0  0  0
    4.8730   -0.1250   -0.1510 C   0  0  1  0  0  0  0  0  0  0  0  0
    6.3090    0.4130   -0.2680 C   0  0  0  0  0  0  0  0  0  0  0  0
    6.6570    1.0360    1.0510 C   0  0  0  0  0  0  0  0  0  0  0  0
    5.6930    0.7090    2.1500 C   0  0  0  0  0  0  0  0  0  0  0  0
    4.2520    0.9100    1.7380 C   0  0  0  0  0  0  0  0  0  0  0  0
    4.1270    0.9290    0.3380 O   0  0  0  0  0  0  0  0  0  0  0  0
  1  2  2  0
  2  3  1  0
  2  4  1  0
  4  5  1  0
  5  6  1  0
  6  7  2  3
  7  8  1  0
  7 15  1  0
  8  9  1  0
  9 10  1  1
  9 13  1  0
 10 11  1  0
 11 12  1  0
 13 14  1  0
 14 15  2  0
 15 16  1  0
 16 17  1  0
 17 18  2  0
 17 19  1  0
 19 20  2  0
 19 21  1  0
 21 22  1  0
 23 22  1  6
 23 24  1  0
 23 28  1  0
 24 25  1  0
 25 26  1  0
 26 27  1  0
 27 28  1  0
M  END
