
     RDKit          3D

 28 29  0  0  0  0  0  0  0  0999 V2000
   -4.4540   -2.5790    0.9340 O   0  0  0  0  0  0  0  0  0  0  0  0
   -3.6470   -2.1150    0.0700 C   0  0  0  0  0  0  0  0  0  0  0  0
   -2.6650   -3.0290   -0.5510 C   0  0  0  0  0  0  0  0  0  0  0  0
   -1.7470   -2.2970   -1.3200 O   0  0  0  0  0  0  0  0  0  0  0  0
   -0.8380   -1.4060   -0.7370 C   0  0  0  0  0  0  0  0  0  0  0  0
   -0.8970   -1.3030    0.5310 O   0  0  0  0  0  0  0  0  0  0  0  0
    0.1300   -0.6470   -1.5530 C   0  0  1  0  0  0  0  0  0  0  0  0
   -0.5240    0.6770   -1.9740 C   0  0  0  0  0  0  0  0  0  0  0  0
   -0.8390    1.4540   -0.7290 C   0  0  0  0  0  0  0  0  0  0  0  0
   -1.4820    2.6690   -1.0690 O   0  0  0  0  0  0  0  0  0  0  0  0
    1.2170   -0.2180   -0.6470 N   0  0  0  0  0  0  0  0  0  0  0  0
    2.5680   -0.3240   -1.0630 C   0  0  0  0  0  0  0  0  0  0  0  0
    2.8160   -0.7650   -2.2160 O   0  0  0  0  0  0  0  0  0  0  0  0
    3.6880    0.0360   -0.2610 N   0  0  0  0  0  0  0  0  0  0  0  0
    5.0430   -0.0950   -0.7580 C   0  0  1  0  0  0  0  0  0  0  0  0
    5.7680    1.1810   -0.5630 C   0  0  0  0  0  0  0  0  0  0  0  0
    6.0240    1.4250    0.8880 C   0  0  0  0  0  0  0  0  0  0  0  0
    5.9610   -0.2030    1.5930 S   0  0  1  0  0  0  0  0  0  0  0  0
    7.2410   -0.5590    2.2850 O   0  0  0  0  0  0  0  0  0  0  0  0
    4.7680   -0.4030    2.4710 O   0  0  0  0  0  0  0  0  0  0  0  0
    5.7420   -1.1390    0.0950 C   0  0  0  0  0  0  0  0  0  0  0  0
   -3.7270   -0.7490   -0.2670 N   0  0  0  0  0  0  0  0  0  0  0  0
   -4.6860    0.1090    0.3380 C   0  0  0  0  0  0  0  0  0  0  0  0
   -4.4360    1.1790    1.0580 C   0  0  0  0  0  0  0  0  0  0  0  0
   -5.7280    1.7680    1.4880 C   0  0  0  0  0  0  0  0  0  0  0  0
   -6.7640    0.8620    0.8950 C   0  0  0  0  0  0  0  0  0  0  0  0
   -6.1460   -0.0830    0.2410 C   0  0  0  0  0  0  0  0  0  0  0  0
   -6.9670   -1.4210   -0.6440 S   0  0  0  0  0  0  0  0  0  0  0  0
  1  2  2  0
  2  3  1  0
  2 22  1  0
  3  4  1  0
  4  5  1  0
  5  6  2  0
  5  7  1  0
  7  8  1  1
  7 11  1  0
  8  9  1  0
  9 10  1  0
 11 12  1  0
 12 13  2  0
 12 14  1  0
 15 14  1  1
 15 16  1  0
 15 21  1  0
 16 17  1  0
 18 17  1  6
 18 19  2  0
 18 20  2  0
 18 21  1  0
 22 23  1  0
 23 24  2  0
 23 27  1  0
 24 25  1  0
 25 26  1  0
 26 27  2  0
 27 28  1  0
M  END
