
     RDKit          3D

 16 17  0  0  0  0  0  0  0  0999 V2000
   -4.8210    1.5690    0.9760 C   0  0  0  0  0  0  0  0  0  0  0  0
   -4.1630    0.4130    0.2900 C   0  0  0  0  0  0  0  0  0  0  0  0
   -2.6540    0.5020    0.3740 C   0  0  0  0  0  0  0  0  0  0  0  0
   -2.0000   -0.6430   -0.3050 C   0  0  0  0  0  0  0  0  0  0  0  0
   -2.6880   -1.5580   -0.8730 O   0  0  0  0  0  0  0  0  0  0  0  0
   -0.5510   -0.6990   -0.3100 C   0  0  0  0  0  0  0  0  0  0  0  0
    0.0700   -1.7520   -0.9340 C   0  0  0  0  0  0  0  0  0  0  0  0
    1.4580   -1.8310   -0.9540 C   0  0  0  0  0  0  0  0  0  0  0  0
    2.0640   -2.8980   -1.5870 O   0  0  0  0  0  0  0  0  0  0  0  0
    2.2410   -0.8770   -0.3610 C   0  0  0  0  0  0  0  0  0  0  0  0
    3.6180   -0.6910   -0.2210 C   0  0  0  0  0  0  0  0  0  0  0  0
    3.7320    0.4840    0.4920 C   0  0  0  0  0  0  0  0  0  0  0  0
    5.0510    1.0770    0.8770 C   0  0  0  0  0  0  0  0  0  0  0  0
    2.5270    0.9520    0.7500 O   0  0  0  0  0  0  0  0  0  0  0  0
    1.5990    0.1760    0.2620 C   0  0  0  0  0  0  0  0  0  0  0  0
    0.2100    0.2690    0.2910 C   0  0  0  0  0  0  0  0  0  0  0  0
  1  2  1  0
  2  3  1  0
  3  4  1  0
  4  5  2  0
  4  6  1  0
  6  7  2  0
  6 16  1  0
  7  8  1  0
  8  9  1  0
  8 10  2  0
 10 11  1  0
 10 15  1  0
 11 12  2  0
 12 13  1  0
 12 14  1  0
 14 15  1  0
 15 16  2  0
M  END
