
     RDKit          3D

  8  7  0  0  0  0  0  0  0  0999 V2000
    2.7040    0.6820    0.1450 C   0  0  0  0  0  0  0  0  0  0  0  0
    1.7360   -0.1520   -0.7000 C   0  0  0  0  0  0  0  0  0  0  0  0
    1.1180   -1.1550    0.1210 N   0  0  0  0  0  0  0  0  0  0  0  0
    0.1340   -0.6600    1.0450 C   0  0  0  0  0  0  0  0  0  0  0  0
   -1.0980   -0.2730    0.2700 C   0  0  0  0  0  0  0  0  0  0  0  0
   -1.0990   -0.3870   -0.9800 O   0  0  0  0  0  0  0  0  0  0  0  0
   -2.2380    0.2040    0.8520 O   0  0  0  0  0  0  0  0  0  0  0  0
   -3.3600    0.5280    0.0660 C   0  0  0  0  0  0  0  0  0  0  0  0
  1  2  1  0
  2  3  1  0
  3  4  1  0
  4  5  1  0
  5  6  2  0
  5  7  1  0
  7  8  1  0
M  END
