
     RDKit          3D

  8  8  0  0  0  0  0  0  0  0999 V2000
    1.9440   -0.1660    0.1940 C   0  0  0  0  0  0  0  0  0  0  0  0
    0.5170    0.0290    0.0470 N   0  0  0  0  0  0  0  0  0  0  0  0
   -0.0630    1.3170    0.1200 C   0  0  0  0  0  0  0  0  0  0  0  0
   -1.3640    1.5490    0.0310 C   0  0  0  0  0  0  0  0  0  0  0  0
   -2.2220    0.4790   -0.1440 O   0  0  0  0  0  0  0  0  0  0  0  0
   -1.7410   -0.8250   -0.2270 C   0  0  0  0  0  0  0  0  0  0  0  0
   -2.5280   -1.8140   -0.3500 O   0  0  0  0  0  0  0  0  0  0  0  0
   -0.3030   -1.1280   -0.1760 C   0  0  0  0  0  0  0  0  0  0  0  0
  1  2  1  0
  2  3  1  0
  2  8  1  0
  3  4  2  0
  4  5  1  0
  5  6  1  0
  6  7  2  0
  6  8  1  0
M  END
