
     RDKit          3D

  8  8  0  0  0  0  0  0  0  0999 V2000
    3.2590    0.1500    0.6330 O   0  0  0  0  0  0  0  0  0  0  0  0
    2.1760   -0.5840    0.1300 C   0  0  0  0  0  0  0  0  0  0  0  0
    1.0050    0.3680   -0.1240 C   0  0  0  0  0  0  0  0  0  0  0  0
   -0.1350   -0.3510   -0.6540 N   0  0  0  0  0  0  0  0  0  0  0  0
   -1.1300    0.6330   -1.1320 C   0  0  0  0  0  0  0  0  0  0  0  0
   -2.3900    0.2610   -0.4250 C   0  0  0  0  0  0  0  0  0  0  0  0
   -2.1740   -1.0810   -0.0810 O   0  0  0  0  0  0  0  0  0  0  0  0
   -0.8720   -1.0110    0.4170 C   0  0  0  0  0  0  0  0  0  0  0  0
  1  2  1  0
  2  3  1  0
  3  4  1  0
  4  5  1  0
  4  8  1  0
  5  6  1  0
  6  7  1  0
  7  8  1  0
M  END
