
     RDKit          3D

  8  7  0  0  0  0  0  0  0  0999 V2000
    2.4610   -0.3180   -0.5520 C   0  0  0  0  0  0  0  0  0  0  0  0
    1.7210    0.1940    0.4150 C   0  0  0  0  0  0  0  0  0  0  0  0
    0.3070    0.2260    0.2010 N   0  0  0  0  0  0  0  0  0  0  0  0
   -0.2680    1.4550   -0.2780 C   0  0  0  0  0  0  0  0  0  0  0  0
   -0.3920   -0.9870    0.4900 C   0  0  0  0  0  0  0  0  0  0  0  0
   -1.8400   -0.9540    0.2690 C   0  0  0  0  0  0  0  0  0  0  0  0
   -2.5080   -1.9770    0.5030 O   0  0  0  0  0  0  0  0  0  0  0  0
   -2.4390    0.1930   -0.1880 O   0  0  0  0  0  0  0  0  0  0  0  0
  1  2  2  0
  2  3  1  0
  3  4  1  0
  3  5  1  0
  5  6  1  0
  6  7  2  0
  6  8  1  0
M  END
