
     RDKit          3D

  8  8  0  0  0  0  0  0  0  0999 V2000
    2.6510    0.4550    0.2020 C   0  0  0  0  0  0  0  0  0  0  0  0
    1.9270   -0.7090    0.1900 O   0  0  0  0  0  0  0  0  0  0  0  0
    0.8430   -0.7040   -0.6560 C   0  0  0  0  0  0  0  0  0  0  0  0
   -0.1650    0.3660   -0.3260 C   0  0  2  0  0  0  0  0  0  0  0  0
   -0.7870    0.1190    1.0450 C   0  0  0  0  0  0  0  0  0  0  0  0
   -2.1530    0.6040    0.7880 N   0  0  0  0  0  0  0  0  0  0  0  0
   -2.3680    0.0320   -0.5310 C   0  0  0  0  0  0  0  0  0  0  0  0
   -1.2150    0.2980   -1.2220 O   0  0  0  0  0  0  0  0  0  0  0  0
  1  2  1  0
  2  3  1  0
  4  3  1  6
  4  5  1  0
  4  8  1  0
  5  6  1  0
  6  7  1  0
  7  8  1  0
M  END
