
     RDKit          3D

  8  8  0  0  0  0  0  0  0  0999 V2000
   -2.4440   -0.4120   -0.1120 C   0  0  0  0  0  0  0  0  0  0  0  0
   -1.4290    0.3760    0.5580 N   0  0  0  0  0  0  0  0  0  0  0  0
   -0.1660    0.3530   -0.1900 C   0  0  2  0  0  0  0  0  0  0  0  0
    0.3620   -1.0600   -0.2500 C   0  0  0  0  0  0  0  0  0  0  0  0
    1.5500   -1.1540    0.4630 O   0  0  0  0  0  0  0  0  0  0  0  0
    2.4260   -0.2160   -0.0740 C   0  0  0  0  0  0  0  0  0  0  0  0
    2.0950    1.0680    0.3010 O   0  0  0  0  0  0  0  0  0  0  0  0
    0.7700    1.2620    0.6060 C   0  0  0  0  0  0  0  0  0  0  0  0
  1  2  1  0
  3  2  1  1
  3  4  1  0
  3  8  1  0
  4  5  1  0
  5  6  1  0
  6  7  1  0
  7  8  1  0
M  END
