
     RDKit          3D

  8  8  0  0  0  0  0  0  0  0999 V2000
    2.1730   -0.3370   -0.8630 O   0  0  0  0  0  0  0  0  0  0  0  0
    1.6360   -0.9910    0.2360 C   0  0  0  0  0  0  0  0  0  0  0  0
    0.2940   -0.5650    0.5470 N   0  0  0  0  0  0  0  0  0  0  0  0
    0.1800    0.8230    0.8500 C   0  0  0  0  0  0  0  0  0  0  0  0
   -0.4560    1.5320   -0.3290 C   0  0  0  0  0  0  0  0  0  0  0  0
   -1.7800    1.1510   -0.4110 O   0  0  0  0  0  0  0  0  0  0  0  0
   -1.9650   -0.1830   -0.1500 C   0  0  0  0  0  0  0  0  0  0  0  0
   -0.6920   -1.0000   -0.3910 C   0  0  0  0  0  0  0  0  0  0  0  0
  1  2  1  0
  2  3  1  0
  3  4  1  0
  3  8  1  0
  4  5  1  0
  5  6  1  0
  6  7  1  0
  7  8  1  0
M  END
