
     RDKit          3D

 15 15  0  0  0  0  0  0  0  0999 V2000
   -4.4450    0.4110   -0.2920 C   0  0  0  0  0  0  0  0  0  0  0  0
   -2.9850    0.5540   -0.5150 C   0  0  0  0  0  0  0  0  0  0  0  0
   -2.5500    1.1340   -1.5530 O   0  0  0  0  0  0  0  0  0  0  0  0
   -1.9970    0.0790    0.3700 N   0  0  0  0  0  0  0  0  0  0  0  0
   -0.5910    0.1960    0.1930 C   0  0  1  0  0  0  0  0  0  0  0  0
    0.1370    0.8400    1.2270 N   0  0  0  0  0  0  0  0  0  0  0  0
    1.4840    1.1150    0.7030 C   0  0  0  0  0  0  0  0  0  0  0  0
    2.1890   -0.1390    0.2820 C   0  0  2  0  0  0  0  0  0  0  0  0
    3.3600    0.2650   -0.5490 C   0  0  0  0  0  0  0  0  0  0  0  0
    3.4920   -0.1040   -1.7360 O   0  0  0  0  0  0  0  0  0  0  0  0
    4.3720    1.0820   -0.0340 O   0  0  0  0  0  0  0  0  0  0  0  0
    1.3570   -1.0770   -0.5200 C   0  0  2  0  0  0  0  0  0  0  0  0
    1.2600   -0.6210   -1.8400 O   0  0  0  0  0  0  0  0  0  0  0  0
   -0.0270   -1.2040    0.0280 C   0  0  2  0  0  0  0  0  0  0  0  0
   -0.8490   -1.9590   -0.7900 O   0  0  0  0  0  0  0  0  0  0  0  0
  1  2  1  0
  2  3  2  0
  2  4  1  0
  5  4  1  1
  5  6  1  0
  5 14  1  0
  6  7  1  0
  7  8  1  0
  8  9  1  6
  8 12  1  0
  9 10  2  0
  9 11  1  0
 12 13  1  6
 12 14  1  0
 14 15  1  6
M  CHG  1   6   1
M  END
