
     RDKit          3D

 38 39  0  0  0  0  0  0  0  0999 V2000
    6.6950   -0.1640   -0.7820 C   0  0  0  0  0  0  0  0  0  0  0  0
    5.7770   -0.9960   -0.3740 C   0  0  0  0  0  0  0  0  0  0  0  0
    6.1560   -1.9330    0.6210 O   0  0  0  0  0  0  0  0  0  0  0  0
    5.2700   -2.5600    1.5210 C   0  0  0  0  0  0  0  0  0  0  0  0
    3.9680   -2.4030    1.6730 C   0  0  0  0  0  0  0  0  0  0  0  0
    3.3650   -3.1870    2.6710 O   0  0  0  0  0  0  0  0  0  0  0  0
    2.6630   -2.5850    3.6580 F   0  0  0  0  0  0  0  0  0  0  0  0
    3.0190   -1.5250    0.9590 C   0  0  0  0  0  0  0  0  0  0  0  0
    3.1980   -0.8690   -0.1560 C   0  0  0  0  0  0  0  0  0  0  0  0
    2.1580   -0.0910   -0.6530 N   0  0  0  0  0  0  0  0  0  0  0  0
    1.2290    0.7480    0.0180 C   0  0  1  0  0  0  0  0  0  0  0  0
   -0.0280    0.1330    0.3840 N   0  0  0  0  0  0  0  0  0  0  0  0
   -1.2880    0.7020    0.0360 C   0  0  0  0  0  0  0  0  0  0  0  0
   -1.2570    1.7970   -0.6030 O   0  0  0  0  0  0  0  0  0  0  0  0
   -2.4960    0.0720    0.3880 N   0  0  0  0  0  0  0  0  0  0  0  0
   -2.5580   -1.1840    1.0340 C   0  0  2  0  0  0  0  0  0  0  0  0
   -3.2430   -2.2510    0.1710 C   0  0  0  0  0  0  0  0  0  0  0  0
   -3.4060   -3.3490    1.2290 C   0  0  0  0  0  0  0  0  0  0  0  0
   -3.9730   -2.5890    2.3920 C   0  0  0  0  0  0  0  0  0  0  0  0
   -3.3160   -1.2240    2.3410 C   0  0  0  0  0  0  0  0  0  0  0  0
   -3.7140    0.8320    0.0570 C   0  0  1  0  0  0  0  0  0  0  0  0
   -3.7100    2.2150    0.6720 C   0  0  0  0  0  0  0  0  0  0  0  0
   -3.6040    2.2210    2.0520 O   0  0  0  0  0  0  0  0  0  0  0  0
   -3.7670    1.0470   -1.4110 C   0  0  0  0  0  0  0  0  0  0  0  0
   -2.9240    0.5750   -2.2190 O   0  0  0  0  0  0  0  0  0  0  0  0
   -4.8080    1.8260   -1.9830 N   0  0  0  0  0  0  0  0  0  0  0  0
   -4.9240    2.0950   -3.3730 C   0  0  0  0  0  0  0  0  0  0  0  0
   -5.9680    2.8950   -3.9090 N   0  0  0  0  0  0  0  0  0  0  0  0
   -4.0660    1.6040   -4.1480 O   0  0  0  0  0  0  0  0  0  0  0  0
    1.7600    1.6650    1.0660 C   0  0  1  0  0  0  0  0  0  0  0  0
    2.4070    1.1010    2.1230 O   0  0  0  0  0  0  0  0  0  0  0  0
    2.5540    2.8180    0.4310 C   0  0  0  0  0  0  0  0  0  0  0  0
    2.7840    3.8150    1.3550 O   0  0  0  0  0  0  0  0  0  0  0  0
    4.4500   -0.8970   -0.9680 C   0  0  0  0  0  0  0  0  0  0  0  0
    4.3380   -0.8800   -2.2580 C   0  0  0  0  0  0  0  0  0  0  0  0
    5.4640   -0.9640   -3.2040 C   0  0  1  0  0  0  0  0  0  0  0  0
    6.5020   -1.7670   -2.7790 F   0  0  0  0  0  0  0  0  0  0  0  0
    5.0120   -1.6010   -4.4040 F   0  0  0  0  0  0  0  0  0  0  0  0
  1  2  2  0
  2  3  1  0
  2 34  1  0
  3  4  1  0
  4  5  2  0
  5  6  1  0
  5  8  1  0
  6  7  1  0
  8  9  2  0
  9 10  1  0
  9 34  1  0
 11 10  1  1
 11 12  1  0
 11 30  1  0
 12 13  1  0
 13 14  2  0
 13 15  1  0
 16 15  1  6
 15 21  1  0
 16 17  1  0
 16 20  1  0
 17 18  1  0
 18 19  1  0
 19 20  1  0
 21 22  1  1
 21 24  1  0
 22 23  1  0
 24 25  2  0
 24 26  1  0
 26 27  1  0
 27 28  1  0
 27 29  2  0
 30 31  1  1
 30 32  1  0
 32 33  1  0
 34 35  2  3
 35 36  1  0
 36 37  1  1
 36 38  1  0
M  END
