
     RDKit          3D

 38 42  0  0  0  0  0  0  0  0999 V2000
    8.9020    4.3220    0.7410 N   0  0  0  0  0  0  0  0  0  0  0  0
    7.9120    4.0920   -0.2380 C   0  0  0  0  0  0  0  0  0  0  0  0
    7.7120    4.6390   -1.4590 N   0  0  0  0  0  0  0  0  0  0  0  0
    6.6550    4.1120   -2.0590 N   0  0  0  0  0  0  0  0  0  0  0  0
    6.1090    3.1740   -1.2290 C   0  0  0  0  0  0  0  0  0  0  0  0
    5.0100    2.3220   -1.3630 C   0  0  0  0  0  0  0  0  0  0  0  0
    4.7230    1.4640   -0.3360 C   0  0  0  0  0  0  0  0  0  0  0  0
    3.5790    0.5580   -0.4440 C   0  0  0  0  0  0  0  0  0  0  0  0
    2.7280    0.0920    0.5220 N   0  0  0  0  0  0  0  0  0  0  0  0
    1.8440   -0.6970    0.0320 C   0  0  0  0  0  0  0  0  0  0  0  0
    0.6430   -1.5630    0.5070 C   0  0  2  0  0  0  0  0  0  0  0  0
    1.0010   -2.9060    0.0840 C   0  0  0  0  0  0  0  0  0  0  0  0
    0.2410   -4.1400    0.1310 C   0  0  0  0  0  0  0  0  0  0  0  0
   -0.2590   -4.6270   -1.1030 C   0  0  0  0  0  0  0  0  0  0  0  0
   -0.8720   -5.8430   -1.2350 C   0  0  0  0  0  0  0  0  0  0  0  0
   -1.0190   -6.6410   -0.1230 C   0  0  0  0  0  0  0  0  0  0  0  0
   -0.5570   -6.2030    1.0820 C   0  0  0  0  0  0  0  0  0  0  0  0
    0.0720   -4.9510    1.2060 C   0  0  0  0  0  0  0  0  0  0  0  0
   -0.5060   -0.8470    0.3110 N   0  0  0  0  0  0  0  0  0  0  0  0
   -1.6270   -0.5840    1.1680 C   0  0  0  0  0  0  0  0  0  0  0  0
   -1.6750   -1.1670    2.2790 O   0  0  0  0  0  0  0  0  0  0  0  0
   -2.6600    0.3110    0.7670 N   0  0  0  0  0  0  0  0  0  0  0  0
   -3.9110    0.5080    1.4360 C   0  0  0  0  0  0  0  0  0  0  0  0
   -4.6690    1.6110    0.7840 C   0  0  0  0  0  0  0  0  0  0  0  0
   -4.3360    2.9190    0.7480 C   0  0  0  0  0  0  0  0  0  0  0  0
   -5.1420    3.9420    0.2460 C   0  0  0  0  0  0  0  0  0  0  0  0
   -4.6710    5.6140    0.2390 Cl  0  0  0  0  0  0  0  0  0  0  0  0
   -6.3710    3.5810   -0.2550 C   0  0  0  0  0  0  0  0  0  0  0  0
   -6.7540    2.2290   -0.2350 C   0  0  0  0  0  0  0  0  0  0  0  0
   -5.9430    1.2720    0.2650 C   0  0  0  0  0  0  0  0  0  0  0  0
   -6.3160   -0.1780    0.2520 C   0  0  0  0  0  0  0  0  0  0  0  0
   -7.5450   -0.4850   -0.3680 N   0  0  0  0  0  0  0  0  0  0  0  0
    2.0720   -0.8020   -1.3320 N   0  0  0  0  0  0  0  0  0  0  0  0
    3.1280   -0.0460   -1.6240 C   0  0  0  0  0  0  0  0  0  0  0  0
    3.8870    0.1710   -3.1800 Cl  0  0  0  0  0  0  0  0  0  0  0  0
    5.5160    1.4760    0.7720 C   0  0  0  0  0  0  0  0  0  0  0  0
    6.5980    2.2940    0.9470 C   0  0  0  0  0  0  0  0  0  0  0  0
    6.8820    3.1550   -0.1010 C   0  0  0  0  0  0  0  0  0  0  0  0
  1  2  1  0
  2  3  2  0
  2 38  1  0
  3  4  1  0
  4  5  1  0
  5  6  2  0
  5 38  1  0
  6  7  1  0
  7  8  1  0
  7 36  2  0
  8  9  1  0
  8 34  2  0
  9 10  2  0
 10 11  1  0
 10 33  1  0
 11 12  1  6
 11 19  1  0
 12 13  1  0
 13 14  2  0
 13 18  1  0
 14 15  1  0
 15 16  2  0
 16 17  1  0
 17 18  2  0
 19 20  1  0
 20 21  2  0
 20 22  1  0
 22 23  1  0
 23 24  1  0
 24 25  2  0
 24 30  1  0
 25 26  1  0
 26 27  1  0
 26 28  2  0
 28 29  1  0
 29 30  2  0
 30 31  1  0
 31 32  1  0
 33 34  1  0
 34 35  1  0
 36 37  1  0
 37 38  2  0
M  CHG  1  32   1
M  END
