
     RDKit          3D

 38 39  0  0  0  0  0  0  0  0999 V2000
    4.8610   -1.7260   -2.1410 N   0  0  0  0  0  0  0  0  0  0  0  0
    3.6820   -1.1520   -1.6650 C   0  0  0  0  0  0  0  0  0  0  0  0
    2.8120   -0.6430   -2.3600 O   0  0  0  0  0  0  0  0  0  0  0  0
    3.4740   -1.1570   -0.1540 C   0  0  1  0  0  0  0  0  0  0  0  0
    2.2900   -0.3880    0.1810 N   0  0  0  0  0  0  0  0  0  0  0  0
    2.4520    1.0520    0.2980 C   0  0  0  0  0  0  0  0  0  0  0  0
    3.5830    1.4710    0.0480 O   0  0  0  0  0  0  0  0  0  0  0  0
    1.2950    1.8180    0.6910 C   0  0  0  0  0  0  0  0  0  0  0  0
    1.3610    3.1240    0.8000 C   0  0  0  0  0  0  0  0  0  0  0  0
    2.4800    3.9660    0.5830 C   0  0  0  0  0  0  0  0  0  0  0  0
    3.6340    3.8130    1.3110 C   0  0  0  0  0  0  0  0  0  0  0  0
    4.7520    4.6030    1.0450 C   0  0  0  0  0  0  0  0  0  0  0  0
    5.8870    4.4260    1.7880 F   0  0  0  0  0  0  0  0  0  0  0  0
    4.7140    5.5400    0.0600 C   0  0  0  0  0  0  0  0  0  0  0  0
    3.5310    5.6950   -0.6790 C   0  0  0  0  0  0  0  0  0  0  0  0
    3.4450    6.6250   -1.6810 F   0  0  0  0  0  0  0  0  0  0  0  0
    2.4360    4.9220   -0.4220 C   0  0  0  0  0  0  0  0  0  0  0  0
    0.1300    1.1900    1.0700 N   0  0  0  0  0  0  0  0  0  0  0  0
   -0.8610    0.7290    0.0030 C   0  0  0  0  0  0  0  0  0  0  0  0
   -0.5940    1.0000   -1.1100 O   0  0  0  0  0  0  0  0  0  0  0  0
   -1.8940    0.0660    0.6570 N   0  0  0  0  0  0  0  0  0  0  0  0
   -2.9970    0.0350   -0.6690 C   0  0  0  0  0  0  0  0  0  0  0  0
   -2.6020    0.5590   -1.6580 O   0  0  0  0  0  0  0  0  0  0  0  0
   -4.2150   -0.6010   -0.4170 C   0  0  0  0  0  0  0  0  0  0  0  0
   -5.1800   -0.4370   -1.4420 C   0  0  0  0  0  0  0  0  0  0  0  0
   -6.4580   -0.9130   -1.3370 C   0  0  0  0  0  0  0  0  0  0  0  0
   -7.3410   -0.7010   -2.4010 O   0  0  0  0  0  0  0  0  0  0  0  0
   -6.8650   -1.5820   -0.2100 C   0  0  0  0  0  0  0  0  0  0  0  0
   -8.1990   -2.0390   -0.1830 N   0  0  0  0  0  0  0  0  0  0  0  0
   -5.9580   -1.7590    0.7990 C   0  0  0  0  0  0  0  0  0  0  0  0
   -4.6480   -1.2660    0.6790 C   0  0  0  0  0  0  0  0  0  0  0  0
   -3.8200   -1.5060    1.7410 O   0  0  0  0  0  0  0  0  0  0  0  0
   -4.2240   -2.1870    2.8850 C   0  0  0  0  0  0  0  0  0  0  0  0
   -4.6770   -3.4950    2.6270 F   0  0  0  0  0  0  0  0  0  0  0  0
    3.3380   -2.5560    0.3390 C   0  0  1  0  0  0  0  0  0  0  0  0
    2.2700   -3.1580   -0.3130 O   0  0  0  0  0  0  0  0  0  0  0  0
    4.5950   -3.3590    0.3730 C   0  0  0  0  0  0  0  0  0  0  0  0
    4.3980   -4.5930    1.0210 O   0  0  0  0  0  0  0  0  0  0  0  0
  1  2  1  0
  2  3  2  0
  2  4  1  0
  4  5  1  6
  4 35  1  0
  5  6  1  0
  6  7  2  0
  6  8  1  0
  8  9  2  3
  8 18  1  0
  9 10  1  0
 10 11  2  0
 10 17  1  0
 11 12  1  0
 12 13  1  0
 12 14  2  0
 14 15  1  0
 15 16  1  0
 15 17  2  0
 18 19  1  0
 19 20  2  0
 19 21  1  0
 21 22  1  0
 22 23  2  0
 22 24  1  0
 24 25  2  0
 24 31  1  0
 25 26  1  0
 26 27  1  0
 26 28  2  0
 28 29  1  0
 28 30  1  0
 30 31  2  0
 31 32  1  0
 32 33  1  0
 33 34  1  0
 35 36  1  6
 35 37  1  0
 37 38  1  0
M  END
