
     RDKit          3D

 38 39  0  0  0  0  0  0  0  0999 V2000
    1.4010    0.8510   -2.6040 C   0  0  0  0  0  0  0  0  0  0  0  0
    1.8820    0.2000   -1.2980 C   0  0  1  0  0  0  0  0  0  0  0  0
    1.7250   -1.2720   -1.4780 C   0  0  0  0  0  0  0  0  0  0  0  0
    0.4700   -1.7870   -1.5770 O   0  0  0  0  0  0  0  0  0  0  0  0
   -0.6160   -1.8450   -0.7860 C   0  0  0  0  0  0  0  0  0  0  0  0
   -0.6710   -1.3200    0.4800 C   0  0  0  0  0  0  0  0  0  0  0  0
   -1.8150   -1.3940    1.2860 C   0  0  0  0  0  0  0  0  0  0  0  0
   -2.9410   -2.0140    0.8130 C   0  0  0  0  0  0  0  0  0  0  0  0
   -4.0980   -2.1170    1.5620 O   0  0  0  0  0  0  0  0  0  0  0  0
   -4.3110   -1.6200    2.8520 C   0  0  2  0  0  0  0  0  0  0  0  0
   -4.7110   -2.7520    3.8110 C   0  0  0  0  0  0  0  0  0  0  0  0
   -6.1070   -2.7670    3.8170 O   0  0  0  0  0  0  0  0  0  0  0  0
   -6.6140   -1.8310    2.8860 C   0  0  0  0  0  0  0  0  0  0  0  0
   -7.7690   -1.9160    2.2720 C   0  0  0  0  0  0  0  0  0  0  0  0
   -8.5770   -2.9830    2.5320 F   0  0  0  0  0  0  0  0  0  0  0  0
   -8.2370   -1.0410    1.3600 F   0  0  0  0  0  0  0  0  0  0  0  0
   -5.5660   -0.8240    2.8120 C   0  0  0  0  0  0  0  0  0  0  0  0
   -5.6860    0.4470    2.7110 C   0  0  0  0  0  0  0  0  0  0  0  0
   -4.5140    1.1720    2.6210 F   0  0  0  0  0  0  0  0  0  0  0  0
   -6.9070    1.2760    2.7320 C   0  0  0  0  0  0  0  0  0  0  0  0
   -7.0170    1.9650    1.4620 N   0  0  0  0  0  0  0  0  0  0  0  0
   -2.9020   -2.5590   -0.4820 C   0  0  0  0  0  0  0  0  0  0  0  0
   -1.7790   -2.4830   -1.2660 C   0  0  0  0  0  0  0  0  0  0  0  0
   -1.6890   -3.0140   -2.5710 N   0  0  0  0  0  0  0  0  0  0  0  0
   -2.7260   -3.6970   -3.2440 C   0  0  0  0  0  0  0  0  0  0  0  0
   -2.5120   -4.1970   -4.5860 N   0  0  0  0  0  0  0  0  0  0  0  0
   -3.8500   -3.9080   -2.7530 O   0  0  0  0  0  0  0  0  0  0  0  0
    3.3130    0.5370   -1.2170 N   0  0  0  0  0  0  0  0  0  0  0  0
    3.8270    1.3730   -0.1930 C   0  0  0  0  0  0  0  0  0  0  0  0
    3.0610    1.8410    0.6690 O   0  0  0  0  0  0  0  0  0  0  0  0
    5.2890    1.6720   -0.1740 C   0  0  0  0  0  0  0  0  0  0  0  0
    6.0280    1.1820   -1.0580 O   0  0  0  0  0  0  0  0  0  0  0  0
    5.8420    2.4930    0.8190 N   0  0  0  0  0  0  0  0  0  0  0  0
    7.2090    2.8730    0.9560 C   0  0  0  0  0  0  0  0  0  0  0  0
    7.6750    3.6960   -0.1990 C   0  0  2  0  0  0  0  0  0  0  0  0
    7.5990    3.0390   -1.3840 O   0  0  0  0  0  0  0  0  0  0  0  0
    9.0640    4.2720    0.0500 C   0  0  0  0  0  0  0  0  0  0  0  0
    9.3130    5.1660   -1.0140 O   0  0  0  0  0  0  0  0  0  0  0  0
  2  1  1  6
  2  3  1  0
  2 28  1  0
  3  4  1  0
  4  5  1  0
  5  6  2  0
  5 23  1  0
  6  7  1  0
  7  8  2  0
  8  9  1  0
  8 22  1  0
 10  9  1  6
 10 11  1  0
 10 17  1  0
 11 12  1  0
 12 13  1  0
 13 14  2  3
 13 17  1  0
 14 15  1  0
 14 16  1  0
 17 18  2  3
 18 19  1  0
 18 20  1  0
 20 21  1  0
 22 23  2  0
 23 24  1  0
 24 25  1  0
 25 26  1  0
 25 27  2  0
 28 29  1  0
 29 30  2  0
 29 31  1  0
 31 32  2  0
 31 33  1  0
 33 34  1  0
 34 35  1  0
 35 36  1  6
 35 37  1  0
 37 38  1  0
M  END
