
     RDKit          3D

 38 39  0  0  0  0  0  0  0  0999 V2000
    4.7300   -1.9250    0.5360 C   0  0  0  0  0  0  0  0  0  0  0  0
    4.8560   -0.6890   -0.3370 C   0  0  2  0  0  0  0  0  0  0  0  0
    4.8790    0.5130    0.4700 N   0  0  0  0  0  0  0  0  0  0  0  0
    6.0330    1.3310    0.4990 C   0  0  0  0  0  0  0  0  0  0  0  0
    6.0140    2.5070    1.3070 N   0  0  0  0  0  0  0  0  0  0  0  0
    7.0770    1.0790   -0.1480 O   0  0  0  0  0  0  0  0  0  0  0  0
    3.7770   -0.6030   -1.3510 C   0  0  0  0  0  0  0  0  0  0  0  0
    2.3890   -0.5470   -0.9260 C   0  0  0  0  0  0  0  0  0  0  0  0
    1.5030   -0.4670   -1.8170 O   0  0  0  0  0  0  0  0  0  0  0  0
    2.0120   -0.5770    0.4100 O   0  0  0  0  0  0  0  0  0  0  0  0
    0.6340   -0.5140    0.6740 C   0  0  0  0  0  0  0  0  0  0  0  0
   -0.1480   -1.6400    0.7020 C   0  0  0  0  0  0  0  0  0  0  0  0
   -1.5320   -1.5660    0.9680 C   0  0  0  0  0  0  0  0  0  0  0  0
   -2.1810   -2.8620    1.0220 C   0  0  0  0  0  0  0  0  0  0  0  0
   -1.6230   -3.9210    0.6350 O   0  0  0  0  0  0  0  0  0  0  0  0
   -3.4540   -2.9900    1.5110 O   0  0  0  0  0  0  0  0  0  0  0  0
   -4.0950   -4.2490    1.5710 C   0  0  1  0  0  0  0  0  0  0  0  0
   -3.3730   -5.1270    2.3740 F   0  0  0  0  0  0  0  0  0  0  0  0
   -5.3580   -4.0420    2.0880 F   0  0  0  0  0  0  0  0  0  0  0  0
   -4.1450   -4.7290    0.2660 F   0  0  0  0  0  0  0  0  0  0  0  0
   -2.1110   -0.3530    1.2000 C   0  0  0  0  0  0  0  0  0  0  0  0
   -3.5460   -0.2250    1.4090 C   0  0  0  0  0  0  0  0  0  0  0  0
   -4.4040   -0.1420    0.2000 C   0  0  2  0  0  0  0  0  0  0  0  0
   -5.8850   -0.0440    0.5730 C   0  0  0  0  0  0  0  0  0  0  0  0
   -4.2530   -1.1180   -0.8810 C   0  0  0  0  0  0  0  0  0  0  0  0
   -4.8660   -0.3400   -2.0600 C   0  0  0  0  0  0  0  0  0  0  0  0
   -4.7040    1.0860   -1.6370 C   0  0  0  0  0  0  0  0  0  0  0  0
   -4.1290    1.1240   -0.3760 O   0  0  0  0  0  0  0  0  0  0  0  0
   -1.3290    0.7760    1.1730 C   0  0  0  0  0  0  0  0  0  0  0  0
    0.0080    0.6880    0.9160 C   0  0  0  0  0  0  0  0  0  0  0  0
    0.8430    1.8190    0.8790 O   0  0  0  0  0  0  0  0  0  0  0  0
    0.2690    3.0720    1.1180 C   0  0  0  0  0  0  0  0  0  0  0  0
    1.3270    4.1020    1.0300 C   0  0  0  0  0  0  0  0  0  0  0  0
    1.0330    5.4650    1.2300 N   0  0  0  0  0  0  0  0  0  0  0  0
    2.5300    3.7930    0.7740 O   0  0  0  0  0  0  0  0  0  0  0  0
    4.0870   -0.5750   -2.6280 C   0  0  0  0  0  0  0  0  0  0  0  0
    3.0720   -0.4920   -3.6140 N   0  0  0  0  0  0  0  0  0  0  0  0
    5.4330   -0.6270   -3.0570 N   0  0  0  0  0  0  0  0  0  0  0  0
  2  1  1  1
  2  3  1  0
  2  7  1  0
  3  4  1  0
  4  5  1  0
  4  6  2  0
  7  8  1  0
  7 36  2  3
  8  9  2  0
  8 10  1  0
 10 11  1  0
 11 12  2  0
 11 30  1  0
 12 13  1  0
 13 14  1  0
 13 21  2  0
 14 15  2  0
 14 16  1  0
 16 17  1  0
 17 18  1  1
 17 19  1  0
 17 20  1  0
 21 22  1  0
 21 29  1  0
 22 23  1  0
 23 24  1  1
 23 25  1  0
 23 28  1  0
 25 26  1  0
 26 27  1  0
 27 28  1  0
 29 30  2  0
 30 31  1  0
 31 32  1  0
 32 33  1  0
 33 34  1  0
 33 35  2  0
 36 37  1  0
 36 38  1  0
M  END
