
     RDKit          3D

 41 44  0  0  0  0  0  0  0  0999 V2000
   -7.0860   -1.7120    2.6030 C   0  0  0  0  0  0  0  0  0  0  0  0
   -5.7440   -1.2180    2.1850 C   0  0  0  0  0  0  0  0  0  0  0  0
   -4.8630   -0.6960    3.0930 C   0  0  0  0  0  0  0  0  0  0  0  0
   -3.6670   -0.2630    2.6420 C   0  0  0  0  0  0  0  0  0  0  0  0
   -3.1960   -0.2860    1.2960 C   0  0  0  0  0  0  0  0  0  0  0  0
   -4.0910   -0.8240    0.3760 C   0  0  0  0  0  0  0  0  0  0  0  0
   -5.3360   -1.2630    0.8810 C   0  0  0  0  0  0  0  0  0  0  0  0
   -3.9140   -0.9840   -0.9610 O   0  0  0  0  0  0  0  0  0  0  0  0
   -3.5730   -1.9110   -1.9320 C   0  0  0  0  0  0  0  0  0  0  0  0
   -3.0640   -3.2150   -1.4970 C   0  0  0  0  0  0  0  0  0  0  0  0
   -3.7510   -3.9260   -0.7960 O   0  0  0  0  0  0  0  0  0  0  0  0
   -1.7170   -3.6890   -1.8980 C   0  0  0  0  0  0  0  0  0  0  0  0
   -0.7230   -3.7230   -0.7870 C   0  0  0  0  0  0  0  0  0  0  0  0
    0.5600   -3.0560   -1.0040 C   0  0  0  0  0  0  0  0  0  0  0  0
    1.5940   -3.7380   -1.0790 O   0  0  0  0  0  0  0  0  0  0  0  0
    0.6740   -1.6210   -1.1370 N   0  0  0  0  0  0  0  0  0  0  0  0
    1.9260   -1.0250   -1.0270 C   0  0  0  0  0  0  0  0  0  0  0  0
    2.8020   -1.0120   -2.1130 C   0  0  0  0  0  0  0  0  0  0  0  0
    4.0420   -0.4320   -2.0290 C   0  0  0  0  0  0  0  0  0  0  0  0
    4.4520    0.1530   -0.8710 C   0  0  0  0  0  0  0  0  0  0  0  0
    5.8090    0.7710   -0.8290 C   0  0  0  0  0  0  0  0  0  0  0  0
    3.6230    0.1760    0.2550 C   0  0  0  0  0  0  0  0  0  0  0  0
    4.1240    0.8030    1.4220 N   0  0  0  0  0  0  0  0  0  0  0  0
    3.4790    0.9500    2.6620 C   0  0  0  0  0  0  0  0  0  0  0  0
    2.3340    0.5030    2.8280 O   0  0  0  0  0  0  0  0  0  0  0  0
    4.1210    1.6380    3.8240 C   0  0  1  0  0  0  0  0  0  0  0  0
    5.3990    0.8800    4.1650 C   0  0  0  0  0  0  0  0  0  0  0  0
    4.4730    2.9360    3.5000 F   0  0  0  0  0  0  0  0  0  0  0  0
    2.3930   -0.4150    0.1310 C   0  0  0  0  0  0  0  0  0  0  0  0
   -0.5020   -0.8490   -1.3800 C   0  0  0  0  0  0  0  0  0  0  0  0
   -0.5350    0.5720   -0.9760 C   0  0  0  0  0  0  0  0  0  0  0  0
    0.1670    1.4460   -1.7810 C   0  0  0  0  0  0  0  0  0  0  0  0
    0.2610    2.7930   -1.5430 C   0  0  0  0  0  0  0  0  0  0  0  0
    1.1430    3.8790   -2.5670 S   0  0  1  0  0  0  0  0  0  0  0  0
    0.0720    4.5190   -3.8530 C   0  0  0  0  0  0  0  0  0  0  0  0
    1.6100    5.0430   -1.7490 O   0  0  0  0  0  0  0  0  0  0  0  0
    2.2980    3.1490   -3.1970 O   0  0  0  0  0  0  0  0  0  0  0  0
   -0.3750    3.2980   -0.4430 C   0  0  0  0  0  0  0  0  0  0  0  0
   -1.0630    2.4360    0.3450 C   0  0  0  0  0  0  0  0  0  0  0  0
   -1.1980    1.0340    0.1460 C   0  0  0  0  0  0  0  0  0  0  0  0
   -1.9310    0.3390    1.0990 N   0  0  0  0  0  0  0  0  0  0  0  0
  1  2  1  0
  2  3  2  0
  2  7  1  0
  3  4  1  0
  4  5  2  0
  5  6  1  0
  5 41  1  0
  6  7  2  0
  6  8  1  0
  8  9  1  0
  9 10  1  0
 10 11  2  0
 10 12  1  0
 12 13  1  0
 13 14  1  0
 14 15  2  0
 14 16  1  0
 16 17  1  0
 16 30  1  0
 17 18  2  0
 17 29  1  0
 18 19  1  0
 19 20  2  0
 20 21  1  0
 20 22  1  0
 22 23  1  0
 22 29  2  0
 23 24  1  0
 24 25  2  0
 24 26  1  0
 26 27  1  6
 26 28  1  0
 30 31  1  0
 31 32  2  0
 31 40  1  0
 32 33  1  0
 33 34  1  0
 33 38  2  0
 34 35  1  6
 34 36  2  0
 34 37  2  0
 38 39  1  0
 39 40  2  0
 40 41  1  0
M  END
