
     RDKit          3D

 40 44  0  0  0  0  0  0  0  0999 V2000
   -6.8900   -1.7730    2.0850 C   0  0  0  0  0  0  0  0  0  0  0  0
   -6.1830   -2.4140    0.9150 C   0  0  0  0  0  0  0  0  0  0  0  0
   -6.3220   -1.6170   -0.3440 C   0  0  0  0  0  0  0  0  0  0  0  0
   -7.1630   -1.9640   -1.3470 N   0  0  0  0  0  0  0  0  0  0  0  0
   -7.0700   -1.0630   -2.3460 C   0  0  0  0  0  0  0  0  0  0  0  0
   -6.1200   -0.1210   -1.9190 C   0  0  0  0  0  0  0  0  0  0  0  0
   -5.6530   -0.4550   -0.6880 C   0  0  0  0  0  0  0  0  0  0  0  0
   -4.7040    0.2650    0.1270 C   0  0  0  0  0  0  0  0  0  0  0  0
   -4.7820    0.1430    1.4160 O   0  0  0  0  0  0  0  0  0  0  0  0
   -3.6710    1.1030   -0.3530 N   0  0  0  0  0  0  0  0  0  0  0  0
   -2.8060    1.7710    0.5940 C   0  0  2  0  0  0  0  0  0  0  0  0
   -2.7920    3.2310    0.2880 C   0  0  0  0  0  0  0  0  0  0  0  0
   -1.4440    1.1710    0.6080 C   0  0  0  0  0  0  0  0  0  0  0  0
   -1.2800   -0.1980    0.6210 C   0  0  0  0  0  0  0  0  0  0  0  0
   -0.0280   -0.7710    0.6520 C   0  0  0  0  0  0  0  0  0  0  0  0
    1.1090    0.0340    0.6710 C   0  0  0  0  0  0  0  0  0  0  0  0
    2.4350   -0.5530    0.7220 C   0  0  0  0  0  0  0  0  0  0  0  0
    2.7550   -1.8890    0.7560 C   0  0  0  0  0  0  0  0  0  0  0  0
    4.1510   -1.9820    0.8020 C   0  0  0  0  0  0  0  0  0  0  0  0
    4.9350   -3.1220    0.8470 O   0  0  0  0  0  0  0  0  0  0  0  0
    4.3770   -4.4130    0.8520 C   0  0  0  0  0  0  0  0  0  0  0  0
    4.5830   -0.6680    0.7920 C   0  0  0  0  0  0  0  0  0  0  0  0
    5.9720   -0.2540    0.8320 C   0  0  0  0  0  0  0  0  0  0  0  0
    6.2870    1.0100    0.7850 C   0  0  0  0  0  0  0  0  0  0  0  0
    7.6530    1.5080    0.8220 C   0  0  0  0  0  0  0  0  0  0  0  0
    7.9110    2.7980    0.7720 C   0  0  0  0  0  0  0  0  0  0  0  0
    9.2750    3.3220    0.8070 C   0  0  0  0  0  0  0  0  0  0  0  0
    9.3880    4.6950    0.7470 F   0  0  0  0  0  0  0  0  0  0  0  0
   10.3540    2.5990    0.8890 C   0  0  0  0  0  0  0  0  0  0  0  0
   10.4890    1.1450    0.9630 C   0  0  0  0  0  0  0  0  0  0  0  0
    8.9330    0.2920    0.9350 S   0  0  0  0  0  0  0  0  0  0  0  0
    8.7630   -0.6100    2.1500 O   0  0  0  0  0  0  0  0  0  0  0  0
    3.5520    0.1270    0.7450 O   0  0  0  0  0  0  0  0  0  0  0  0
    0.9090    1.4000    0.6560 C   0  0  0  0  0  0  0  0  0  0  0  0
   -0.3330    1.9210    0.6250 N   0  0  0  0  0  0  0  0  0  0  0  0
   -5.9000    0.9840   -2.8620 C   0  0  0  0  0  0  0  0  0  0  0  0
   -5.7070    2.1120   -2.4010 O   0  0  0  0  0  0  0  0  0  0  0  0
   -5.9190    0.7050   -4.3400 C   0  0  0  0  0  0  0  0  0  0  0  0
   -7.0920   -0.1950   -4.6440 C   0  0  0  0  0  0  0  0  0  0  0  0
   -7.6380   -0.8700   -3.5750 O   0  0  0  0  0  0  0  0  0  0  0  0
  1  2  1  0
  2  3  1  0
  3  4  1  0
  3  7  2  0
  4  5  1  0
  5  6  2  0
  5 40  1  0
  6  7  1  0
  6 36  1  0
  7  8  1  0
  8  9  2  0
  8 10  1  0
 10 11  1  0
 11 12  1  6
 11 13  1  0
 13 14  2  0
 13 35  1  0
 14 15  1  0
 15 16  2  0
 16 17  1  0
 16 34  1  0
 17 18  2  0
 17 33  1  0
 18 19  1  0
 19 20  1  0
 19 22  2  0
 20 21  1  0
 22 23  1  0
 22 33  1  0
 23 24  2  3
 24 25  1  0
 25 26  2  0
 25 31  1  0
 26 27  1  0
 27 28  1  0
 27 29  2  0
 29 30  1  0
 31 30  1  1
 31 32  2  0
 34 35  2  0
 36 37  2  0
 36 38  1  0
 38 39  1  0
 39 40  1  0
M  END
