
     RDKit          3D

 41 44  0  0  0  0  0  0  0  0999 V2000
   -5.5530   -1.2340    2.0040 C   0  0  0  0  0  0  0  0  0  0  0  0
   -4.2710   -0.8940    1.1750 C   0  0  0  0  0  0  0  0  0  0  0  0
   -4.5650    0.0550    0.2810 F   0  0  0  0  0  0  0  0  0  0  0  0
   -3.2030   -1.5680    1.4330 C   0  0  0  0  0  0  0  0  0  0  0  0
   -1.8700   -1.4640    0.8260 C   0  0  0  0  0  0  0  0  0  0  0  0
   -1.0060   -2.3500    1.3030 C   0  0  0  0  0  0  0  0  0  0  0  0
    0.3630   -2.6830    1.0730 C   0  0  0  0  0  0  0  0  0  0  0  0
    1.5260   -2.2340    1.3750 C   0  0  0  0  0  0  0  0  0  0  0  0
    1.9230   -1.0520    2.1780 C   0  0  1  0  0  0  0  0  0  0  0  0
    2.7230   -1.6350    3.3670 C   0  0  0  0  0  0  0  0  0  0  0  0
    2.8750   -0.3600    1.4090 O   0  0  0  0  0  0  0  0  0  0  0  0
    3.4400   -0.6900    0.2270 C   0  0  0  0  0  0  0  0  0  0  0  0
    4.7310   -0.7510    0.1710 O   0  0  0  0  0  0  0  0  0  0  0  0
    2.7080   -0.9840   -0.9930 C   0  0  0  0  0  0  0  0  0  0  0  0
    2.1030    0.2200   -1.5820 N   0  0  0  0  0  0  0  0  0  0  0  0
    2.3680    0.3840   -3.0340 C   0  0  0  0  0  0  0  0  0  0  0  0
    3.6830    1.1200   -3.1950 C   0  0  0  0  0  0  0  0  0  0  0  0
    4.9430    0.6560   -3.3020 C   0  0  0  0  0  0  0  0  0  0  0  0
    5.9510    1.5040   -3.4460 C   0  0  0  0  0  0  0  0  0  0  0  0
    5.7110    2.8570   -3.4850 C   0  0  0  0  0  0  0  0  0  0  0  0
    3.8690    2.8660   -3.2990 S   0  0  0  0  0  0  0  0  0  0  0  0
    1.3720    1.2000   -0.8980 C   0  0  0  0  0  0  0  0  0  0  0  0
    1.8000    2.3920   -1.3640 O   0  0  0  0  0  0  0  0  0  0  0  0
    0.3460    1.2170    0.1110 C   0  0  0  0  0  0  0  0  0  0  0  0
    0.8610    1.8310    1.1810 O   0  0  0  0  0  0  0  0  0  0  0  0
   -0.9840    0.7970    0.2860 N   0  0  0  0  0  0  0  0  0  0  0  0
   -1.9270    1.6970    1.0250 C   0  0  0  0  0  0  0  0  0  0  0  0
   -2.1310    1.5820    2.4470 C   0  0  1  0  0  0  0  0  0  0  0  0
   -0.9820    2.1700    3.2600 C   0  0  0  0  0  0  0  0  0  0  0  0
   -1.7540    2.6810    4.5270 C   0  0  0  0  0  0  0  0  0  0  0  0
   -2.8660    3.3610    3.7400 C   0  0  0  0  0  0  0  0  0  0  0  0
   -3.1590    2.5110    2.7570 O   0  0  0  0  0  0  0  0  0  0  0  0
   -1.6580   -0.4160   -0.1770 C   0  0  1  0  0  0  0  0  0  0  0  0
   -1.3970   -0.8660   -1.5480 C   0  0  0  0  0  0  0  0  0  0  0  0
   -1.3820   -2.1630   -1.7200 C   0  0  0  0  0  0  0  0  0  0  0  0
   -1.1540   -2.9330   -2.9200 N   0  0  0  0  0  0  0  0  0  0  0  0
   -0.7590   -2.4750   -4.1980 C   0  0  0  0  0  0  0  0  0  0  0  0
   -0.6650   -1.2110   -4.6330 C   0  0  0  0  0  0  0  0  0  0  0  0
   -0.9450    0.0040   -3.8820 C   0  0  0  0  0  0  0  0  0  0  0  0
   -1.2500    0.1320   -2.5980 C   0  0  0  0  0  0  0  0  0  0  0  0
   -1.4580    1.4540   -2.2370 O   0  0  0  0  0  0  0  0  0  0  0  0
  1  2  1  0
  2  3  1  0
  2  4  2  3
  4  5  1  0
  5  6  2  0
  5 33  1  0
  6  7  1  0
  7  8  2  0
  8  9  1  0
  9 10  1  1
  9 11  1  0
 11 12  1  0
 12 13  2  0
 12 14  1  0
 14 15  1  0
 15 16  1  0
 15 22  1  0
 16 17  1  0
 17 18  2  0
 17 21  1  0
 18 19  1  0
 19 20  2  0
 20 21  1  0
 22 23  2  0
 22 24  1  0
 24 25  2  0
 24 26  1  0
 26 27  1  0
 26 33  1  0
 28 27  1  6
 28 29  1  0
 28 32  1  0
 29 30  1  0
 30 31  1  0
 31 32  1  0
 33 34  1  6
 34 35  2  0
 34 40  1  0
 35 36  1  0
 36 37  1  0
 37 38  2  0
 38 39  1  0
 39 40  2  0
 40 41  1  0
M  END
