
     RDKit          3D

 41 46  0  0  0  0  0  0  0  0999 V2000
    8.3470    3.8370   -1.3960 N   0  0  0  0  0  0  0  0  0  0  0  0
    7.0570    3.9730   -0.8380 C   0  0  0  0  0  0  0  0  0  0  0  0
    6.4530    5.1460   -0.3930 N   0  0  0  0  0  0  0  0  0  0  0  0
    5.2910    4.8610    0.1220 N   0  0  0  0  0  0  0  0  0  0  0  0
    5.0550    3.5430    0.0500 C   0  0  0  0  0  0  0  0  0  0  0  0
    3.9960    2.7370    0.4570 C   0  0  0  0  0  0  0  0  0  0  0  0
    4.0380    1.3520    0.2530 C   0  0  0  0  0  0  0  0  0  0  0  0
    2.9140    0.5970    0.7860 C   0  0  0  0  0  0  0  0  0  0  0  0
    2.0200   -0.2140    0.2410 N   0  0  0  0  0  0  0  0  0  0  0  0
    1.1410   -0.6980    1.1340 C   0  0  0  0  0  0  0  0  0  0  0  0
   -0.0270   -1.5270    0.9750 C   0  0  2  0  0  0  0  0  0  0  0  0
   -0.0440   -2.9870    1.0160 C   0  0  0  0  0  0  0  0  0  0  0  0
    0.6990   -3.8250    0.1100 C   0  0  0  0  0  0  0  0  0  0  0  0
    0.9490   -3.5850   -1.2070 C   0  0  0  0  0  0  0  0  0  0  0  0
    1.4680   -4.5540   -2.0740 C   0  0  0  0  0  0  0  0  0  0  0  0
    1.7360   -5.8110   -1.5850 C   0  0  0  0  0  0  0  0  0  0  0  0
    1.4970   -6.0640   -0.2720 C   0  0  0  0  0  0  0  0  0  0  0  0
    0.9980   -5.1210    0.5790 C   0  0  0  0  0  0  0  0  0  0  0  0
   -0.9550   -1.0630   -0.0990 N   0  0  0  0  0  0  0  0  0  0  0  0
   -2.3010   -0.9550    0.1900 C   0  0  0  0  0  0  0  0  0  0  0  0
   -2.6440   -1.2810    1.3920 O   0  0  0  0  0  0  0  0  0  0  0  0
   -3.3600   -0.4970   -0.7220 N   0  0  0  0  0  0  0  0  0  0  0  0
   -4.5870   -0.3900   -0.0360 C   0  0  0  0  0  0  0  0  0  0  0  0
   -5.7370    0.3540   -0.4570 C   0  0  0  0  0  0  0  0  0  0  0  0
   -6.7040    0.0750   -1.3610 C   0  0  0  0  0  0  0  0  0  0  0  0
   -7.8790    0.8090   -1.4080 C   0  0  0  0  0  0  0  0  0  0  0  0
   -9.1320    0.4170   -2.5790 Cl  0  0  0  0  0  0  0  0  0  0  0  0
   -8.1240    1.8660   -0.5520 C   0  0  0  0  0  0  0  0  0  0  0  0
   -7.1350    2.1590    0.3810 C   0  0  0  0  0  0  0  0  0  0  0  0
   -5.9790    1.4680    0.4610 C   0  0  0  0  0  0  0  0  0  0  0  0
   -4.7770    1.7490    1.1460 N   0  0  0  0  0  0  0  0  0  0  0  0
   -3.8190    2.5420    0.5400 C   0  0  0  0  0  0  0  0  0  0  0  0
   -2.7200    2.5870    1.2810 N   0  0  0  0  0  0  0  0  0  0  0  0
   -2.9740    1.8430    2.3410 N   0  0  0  0  0  0  0  0  0  0  0  0
   -4.2380    1.3470    2.2300 N   0  0  0  0  0  0  0  0  0  0  0  0
    1.5490   -0.1330    2.3140 N   0  0  0  0  0  0  0  0  0  0  0  0
    2.6120    0.6560    2.1530 C   0  0  0  0  0  0  0  0  0  0  0  0
    3.5050    1.5870    3.3360 Cl  0  0  0  0  0  0  0  0  0  0  0  0
    5.1390    0.8170   -0.3490 C   0  0  0  0  0  0  0  0  0  0  0  0
    6.2050    1.6010   -0.7570 C   0  0  0  0  0  0  0  0  0  0  0  0
    6.1560    2.9700   -0.5520 C   0  0  0  0  0  0  0  0  0  0  0  0
  1  2  1  0
  2  3  2  0
  2 41  1  0
  3  4  1  0
  4  5  1  0
  5  6  2  0
  5 41  1  0
  6  7  1  0
  7  8  1  0
  7 39  2  0
  8  9  1  0
  8 37  2  0
  9 10  2  0
 10 11  1  0
 10 36  1  0
 11 12  1  6
 11 19  1  0
 12 13  1  0
 13 14  2  0
 13 18  1  0
 14 15  1  0
 15 16  2  0
 16 17  1  0
 17 18  2  0
 19 20  1  0
 20 21  2  0
 20 22  1  0
 22 23  1  0
 23 24  1  0
 24 25  2  0
 24 30  1  0
 25 26  1  0
 26 27  1  0
 26 28  2  0
 28 29  1  0
 29 30  2  0
 30 31  1  0
 31 32  1  0
 31 35  1  0
 32 33  2  0
 33 34  1  0
 34 35  2  0
 36 37  1  0
 37 38  1  0
 39 40  1  0
 40 41  2  0
M  END
