
     RDKit          3D

 40 44  0  0  0  0  0  0  0  0999 V2000
   12.4540    1.6570   -0.3530 O   0  0  0  0  0  0  0  0  0  0  0  0
   11.4530    1.2370    0.1720 C   0  0  0  0  0  0  0  0  0  0  0  0
   10.2560    2.0320    0.5170 C   0  0  0  0  0  0  0  0  0  0  0  0
    9.1240    1.0360    0.4880 C   0  0  0  0  0  0  0  0  0  0  0  0
    9.7500   -0.2950    0.2810 C   0  0  0  0  0  0  0  0  0  0  0  0
    9.1470   -1.3980   -0.1040 C   0  0  0  0  0  0  0  0  0  0  0  0
    7.6860   -1.3490   -0.3670 C   0  0  0  0  0  0  0  0  0  0  0  0
    6.6820   -0.8790    0.0160 N   0  0  0  0  0  0  0  0  0  0  0  0
    5.4650   -1.0090   -0.4300 C   0  0  0  0  0  0  0  0  0  0  0  0
    4.2970   -0.3470    0.1760 C   0  0  0  0  0  0  0  0  0  0  0  0
    4.4190    0.4750    1.2980 C   0  0  0  0  0  0  0  0  0  0  0  0
    3.3250    1.0870    1.8660 C   0  0  0  0  0  0  0  0  0  0  0  0
    2.0730    0.8590    1.2800 C   0  0  0  0  0  0  0  0  0  0  0  0
    1.9150    0.0570    0.1780 C   0  0  0  0  0  0  0  0  0  0  0  0
    0.5980   -0.1930   -0.4320 C   0  0  0  0  0  0  0  0  0  0  0  0
    0.5980   -0.6090   -1.6080 O   0  0  0  0  0  0  0  0  0  0  0  0
   -0.6000    0.0140    0.2480 N   0  0  0  0  0  0  0  0  0  0  0  0
   -1.9180   -0.1860   -0.2400 C   0  0  0  0  0  0  0  0  0  0  0  0
   -2.2170   -0.3020   -1.5750 C   0  0  0  0  0  0  0  0  0  0  0  0
   -3.5310   -0.5180   -1.9750 C   0  0  0  0  0  0  0  0  0  0  0  0
   -4.5830   -0.6240   -1.0790 C   0  0  0  0  0  0  0  0  0  0  0  0
   -4.3050   -0.5130    0.2680 C   0  0  0  0  0  0  0  0  0  0  0  0
   -2.9880   -0.2970    0.6440 C   0  0  0  0  0  0  0  0  0  0  0  0
   -5.2780   -0.6120    1.2440 O   0  0  0  0  0  0  0  0  0  0  0  0
   -6.1860   -1.6530    1.4750 C   0  0  0  0  0  0  0  0  0  0  0  0
   -7.1370   -1.2890    2.5900 C   0  0  0  0  0  0  0  0  0  0  0  0
   -6.6840   -1.4100    3.7600 O   0  0  0  0  0  0  0  0  0  0  0  0
   -8.3910   -0.8660    2.2380 O   0  0  0  0  0  0  0  0  0  0  0  0
   -8.7900    0.3300    1.6540 C   0  0  0  0  0  0  0  0  0  0  0  0
   -9.6390    0.1050    0.4340 C   0  0  0  0  0  0  0  0  0  0  0  0
   -9.5000    0.7780   -0.6760 C   0  0  0  0  0  0  0  0  0  0  0  0
   -8.4820    1.8550   -0.8770 C   0  0  0  0  0  0  0  0  0  0  0  0
   -7.1090    1.3190   -1.0990 C   0  0  0  0  0  0  0  0  0  0  0  0
   -7.0820   -0.1030   -1.3190 N   0  0  0  0  0  0  0  0  0  0  0  0
   -5.9080   -0.8040   -1.6550 C   0  0  0  0  0  0  0  0  0  0  0  0
   -5.9670   -1.7110   -2.5680 O   0  0  0  0  0  0  0  0  0  0  0  0
    3.0440   -0.5350   -0.3560 C   0  0  0  0  0  0  0  0  0  0  0  0
    5.3460   -1.8390   -1.5390 C   0  0  0  0  0  0  0  0  0  0  0  0
    7.0230   -2.3600   -1.8350 S   0  0  0  0  0  0  0  0  0  0  0  0
   11.1960   -0.1590    0.5880 C   0  0  0  0  0  0  0  0  0  0  0  0
  1  2  2  0
  2  3  1  0
  2 40  1  0
  3  4  1  0
  4  5  1  0
  5  6  2  3
  5 40  1  0
  6  7  1  0
  7  8  2  0
  7 39  1  0
  8  9  1  0
  9 10  1  0
  9 38  2  0
 10 11  2  0
 10 37  1  0
 11 12  1  0
 12 13  2  0
 13 14  1  0
 14 15  1  0
 14 37  2  0
 15 16  2  0
 15 17  1  0
 17 18  1  0
 18 19  2  0
 18 23  1  0
 19 20  1  0
 20 21  2  0
 21 22  1  0
 21 35  1  0
 22 23  2  0
 22 24  1  0
 24 25  1  0
 25 26  1  0
 26 27  2  0
 26 28  1  0
 28 29  1  0
 29 30  1  0
 30 31  2  0
 31 32  1  0
 32 33  1  0
 33 34  1  0
 34 35  1  0
 35 36  2  0
 38 39  1  0
M  END
