
     RDKit          3D

 40 44  0  0  0  0  0  0  0  0999 V2000
    8.8720    1.5860   -0.0930 C   0  0  0  0  0  0  0  0  0  0  0  0
    7.6090    0.8520    0.1580 C   0  0  0  0  0  0  0  0  0  0  0  0
    7.6250   -0.4820    0.0870 N   0  0  0  0  0  0  0  0  0  0  0  0
    6.4970   -1.2110    0.3070 C   0  0  0  0  0  0  0  0  0  0  0  0
    6.5750   -2.4800    0.2260 O   0  0  0  0  0  0  0  0  0  0  0  0
    5.2930   -0.6110    0.6110 C   0  0  0  0  0  0  0  0  0  0  0  0
    4.1320   -1.4370    0.8330 N   0  0  0  0  0  0  0  0  0  0  0  0
    3.2980   -1.7780   -0.2680 C   0  0  0  0  0  0  0  0  0  0  0  0
    3.6000   -1.3470   -1.4010 O   0  0  0  0  0  0  0  0  0  0  0  0
    2.0730   -2.6320   -0.1330 C   0  0  2  0  0  0  0  0  0  0  0  0
    1.1370   -1.9810    0.8270 C   0  0  0  0  0  0  0  0  0  0  0  0
    2.5370   -3.9340    0.5300 C   0  0  0  0  0  0  0  0  0  0  0  0
    1.5720   -2.9160   -1.4960 C   0  0  0  0  0  0  0  0  0  0  0  0
    0.3790   -3.7600   -1.6770 C   0  0  0  0  0  0  0  0  0  0  0  0
   -0.8930   -3.2320   -1.0840 C   0  0  0  0  0  0  0  0  0  0  0  0
   -1.1580   -1.9710   -1.6920 O   0  0  0  0  0  0  0  0  0  0  0  0
   -2.2990   -1.2370   -1.3280 C   0  0  0  0  0  0  0  0  0  0  0  0
   -3.1860   -1.6780   -0.4010 C   0  0  0  0  0  0  0  0  0  0  0  0
   -4.2990   -0.8940   -0.0880 C   0  0  0  0  0  0  0  0  0  0  0  0
   -4.5510    0.3360   -0.6840 C   0  0  0  0  0  0  0  0  0  0  0  0
   -5.7160    1.0100   -0.2850 C   0  0  0  0  0  0  0  0  0  0  0  0
   -6.1150    2.2150   -0.7900 C   0  0  0  0  0  0  0  0  0  0  0  0
   -5.0900    2.9080   -1.9840 S   0  0  0  0  0  0  0  0  0  0  0  0
   -3.7410    1.9530   -2.3280 C   0  0  0  0  0  0  0  0  0  0  0  0
   -2.8710    2.2810   -3.1690 O   0  0  0  0  0  0  0  0  0  0  0  0
   -3.6570    0.7730   -1.6150 C   0  0  0  0  0  0  0  0  0  0  0  0
   -2.5440   -0.0230   -1.9200 C   0  0  0  0  0  0  0  0  0  0  0  0
   -7.3700    2.9420   -0.4140 C   0  0  0  0  0  0  0  0  0  0  0  0
   -8.2630    2.0230    0.4060 C   0  0  0  0  0  0  0  0  0  0  0  0
   -7.4510    1.3190    1.4450 C   0  0  2  0  0  0  0  0  0  0  0  0
   -6.6900    2.2660    2.3470 C   0  0  0  0  0  0  0  0  0  0  0  0
   -6.5210    0.3400    0.7990 C   0  0  0  0  0  0  0  0  0  0  0  0
    5.2510    0.7610    0.6890 C   0  0  0  0  0  0  0  0  0  0  0  0
    6.4250    1.4770    0.4580 C   0  0  0  0  0  0  0  0  0  0  0  0
    6.0650    2.8660    0.6090 C   0  0  0  0  0  0  0  0  0  0  0  0
    6.8470    3.8310    0.4790 O   0  0  0  0  0  0  0  0  0  0  0  0
    4.6720    2.9660    0.9300 N   0  0  0  0  0  0  0  0  0  0  0  0
    3.9170    4.1720    1.1620 C   0  0  0  0  0  0  0  0  0  0  0  0
    4.1540    1.6450    0.9820 C   0  0  0  0  0  0  0  0  0  0  0  0
    2.9550    1.3570    1.2400 O   0  0  0  0  0  0  0  0  0  0  0  0
  1  2  1  0
  2  3  1  0
  2 34  2  0
  3  4  1  0
  4  5  2  0
  4  6  1  0
  6  7  1  0
  6 33  2  0
  7  8  1  0
  8  9  2  0
  8 10  1  0
 10 11  1  1
 10 12  1  0
 10 13  1  0
 13 14  1  0
 14 15  1  0
 15 16  1  0
 16 17  1  0
 17 18  2  0
 17 27  1  0
 18 19  1  0
 19 20  2  0
 20 21  1  0
 20 26  1  0
 21 22  2  0
 21 32  1  0
 22 23  1  0
 22 28  1  0
 23 24  1  0
 24 25  2  0
 24 26  1  0
 26 27  2  0
 28 29  1  0
 29 30  1  0
 30 31  1  6
 30 32  1  0
 33 34  1  0
 33 39  1  0
 34 35  1  0
 35 36  2  0
 35 37  1  0
 37 38  1  0
 37 39  1  0
 39 40  2  0
M  END
