
     RDKit          3D

 42 46  0  0  0  0  0  0  0  0999 V2000
    0.4440   -4.3440   -1.3740 C   0  0  0  0  0  0  0  0  0  0  0  0
    1.9140   -4.2770   -1.2800 C   0  0  0  0  0  0  0  0  0  0  0  0
    2.5430   -3.0270   -0.9840 C   0  0  0  0  0  0  0  0  0  0  0  0
    2.4030   -1.7970   -0.7420 C   0  0  0  0  0  0  0  0  0  0  0  0
    1.4290   -0.7580   -0.5950 C   0  0  0  0  0  0  0  0  0  0  0  0
    1.9110    0.4580   -0.2690 C   0  0  0  0  0  0  0  0  0  0  0  0
    3.3480    0.6940   -0.0610 C   0  0  0  0  0  0  0  0  0  0  0  0
    4.0910    1.4990   -0.8790 C   0  0  0  0  0  0  0  0  0  0  0  0
    5.4310    1.7850   -0.6430 C   0  0  0  0  0  0  0  0  0  0  0  0
    6.0100    1.2190    0.4700 C   0  0  0  0  0  0  0  0  0  0  0  0
    5.2880    0.3980    1.3230 C   0  0  0  0  0  0  0  0  0  0  0  0
    3.9690    0.1510    1.0410 C   0  0  0  0  0  0  0  0  0  0  0  0
    3.2230   -0.6680    1.8860 O   0  0  0  0  0  0  0  0  0  0  0  0
    3.7990   -1.2610    3.0360 C   0  0  0  0  0  0  0  0  0  0  0  0
    7.4330    1.6330    0.5600 C   0  0  0  0  0  0  0  0  0  0  0  0
    7.6110    2.5290   -0.6280 C   0  0  1  0  0  0  0  0  0  0  0  0
    8.7030    1.9940   -1.5650 C   0  0  0  0  0  0  0  0  0  0  0  0
    6.3830    2.5400   -1.2850 O   0  0  0  0  0  0  0  0  0  0  0  0
   -0.0010   -0.9290   -0.7280 N   0  0  0  0  0  0  0  0  0  0  0  0
   -0.9510    0.0280   -0.2680 C   0  0  0  0  0  0  0  0  0  0  0  0
   -0.5040    1.0430    0.3350 O   0  0  0  0  0  0  0  0  0  0  0  0
   -2.4100   -0.0160   -0.4470 C   0  0  0  0  0  0  0  0  0  0  0  0
   -3.1270    0.8500    0.3390 C   0  0  0  0  0  0  0  0  0  0  0  0
   -2.5500    1.7150    1.3030 C   0  0  0  0  0  0  0  0  0  0  0  0
   -1.4430    1.4320    1.9140 O   0  0  0  0  0  0  0  0  0  0  0  0
   -3.1080    3.0240    1.6910 C   0  0  0  0  0  0  0  0  0  0  0  0
   -4.0840    3.7480    1.2120 C   0  0  0  0  0  0  0  0  0  0  0  0
   -4.2790    5.0300    1.9690 C   0  0  0  0  0  0  0  0  0  0  0  0
   -3.2310    4.9360    2.9940 C   0  0  0  0  0  0  0  0  0  0  0  0
   -2.5770    3.8150    2.8380 C   0  0  0  0  0  0  0  0  0  0  0  0
   -4.6150    0.8460    0.1400 C   0  0  2  0  0  0  0  0  0  0  0  0
   -5.4690    1.1760    1.2470 C   0  0  0  0  0  0  0  0  0  0  0  0
   -6.3590    0.1940    1.4420 C   0  0  0  0  0  0  0  0  0  0  0  0
   -6.0990   -0.8400    0.4550 C   0  0  0  0  0  0  0  0  0  0  0  0
   -6.8420   -2.1520    0.3940 C   0  0  0  0  0  0  0  0  0  0  0  0
   -5.0800   -0.4760   -0.3060 C   0  0  0  0  0  0  0  0  0  0  0  0
   -4.3090   -1.2970   -1.2740 C   0  0  0  0  0  0  0  0  0  0  0  0
   -5.0120   -2.1460   -2.1720 C   0  0  0  0  0  0  0  0  0  0  0  0
   -4.4820   -3.0910   -3.0840 N   0  0  0  0  0  0  0  0  0  0  0  0
   -6.3020   -2.1170   -2.2170 O   0  0  0  0  0  0  0  0  0  0  0  0
   -2.9750   -1.0470   -1.2770 C   0  0  0  0  0  0  0  0  0  0  0  0
   -2.2330   -1.7480   -2.3650 C   0  0  0  0  0  0  0  0  0  0  0  0
  1  2  1  0
  2  3  1  0
  3  4  2  3
  4  5  1  0
  5  6  2  3
  5 19  1  0
  6  7  1  0
  7  8  2  0
  7 12  1  0
  8  9  1  0
  9 10  2  0
  9 18  1  0
 10 11  1  0
 10 15  1  0
 11 12  2  0
 12 13  1  0
 13 14  1  0
 15 16  1  0
 16 17  1  6
 16 18  1  0
 19 20  1  0
 20 21  2  0
 20 22  1  0
 22 23  2  0
 22 41  1  0
 23 24  1  0
 23 31  1  0
 24 25  2  0
 24 26  1  0
 26 27  2  0
 26 30  1  0
 27 28  1  0
 28 29  1  0
 29 30  2  0
 31 32  1  1
 31 36  1  0
 32 33  2  0
 33 34  1  0
 34 35  1  0
 34 36  2  0
 36 37  1  0
 37 38  1  0
 37 41  2  0
 38 39  1  0
 38 40  2  0
 41 42  1  0
M  END
