
     RDKit          3D

 42 44  0  0  0  0  0  0  0  0999 V2000
    4.7920    3.3660    0.5450 C   0  0  0  0  0  0  0  0  0  0  0  0
    4.8680    2.0590   -0.1670 C   0  0  2  0  0  0  0  0  0  0  0  0
    3.7000    1.2560    0.1190 N   0  0  0  0  0  0  0  0  0  0  0  0
    2.9980    0.5640   -0.9070 C   0  0  0  0  0  0  0  0  0  0  0  0
    3.4470    0.6890   -2.0550 O   0  0  0  0  0  0  0  0  0  0  0  0
    1.8530   -0.2250   -0.6500 N   0  0  0  0  0  0  0  0  0  0  0  0
    1.1370   -0.9670   -1.6070 C   0  0  0  0  0  0  0  0  0  0  0  0
    1.6180   -1.2290   -2.8880 C   0  0  0  0  0  0  0  0  0  0  0  0
    0.9250   -2.0160   -3.7770 C   0  0  0  0  0  0  0  0  0  0  0  0
   -0.2740   -2.5780   -3.4410 C   0  0  0  0  0  0  0  0  0  0  0  0
   -0.7770   -2.3240   -2.1510 C   0  0  0  0  0  0  0  0  0  0  0  0
   -1.9780   -2.8550   -1.7790 C   0  0  0  0  0  0  0  0  0  0  0  0
   -2.5070   -2.6110   -0.5280 C   0  0  0  0  0  0  0  0  0  0  0  0
   -1.8590   -1.8320    0.3950 C   0  0  0  0  0  0  0  0  0  0  0  0
   -2.5500   -1.5000    1.9670 S   0  0  1  0  0  0  0  0  0  0  0  0
   -3.3360   -2.6750    2.4820 O   0  0  0  0  0  0  0  0  0  0  0  0
   -1.4400   -1.2620    2.9550 O   0  0  0  0  0  0  0  0  0  0  0  0
   -3.4990   -0.0650    1.9220 N   0  0  0  0  0  0  0  0  0  0  0  0
   -4.6130   -0.1680    1.0070 C   0  0  2  0  0  0  0  0  0  0  0  0
   -4.1670    0.7390   -0.1700 C   0  0  0  0  0  0  0  0  0  0  0  0
   -5.8900    0.3960    1.5250 C   0  0  1  0  0  0  0  0  0  0  0  0
   -6.2120   -0.3550    2.8300 C   0  0  0  0  0  0  0  0  0  0  0  0
   -5.8290    1.8520    1.8410 C   0  0  0  0  0  0  0  0  0  0  0  0
   -7.0220    0.1330    0.6170 C   0  0  0  0  0  0  0  0  0  0  0  0
   -7.9810   -0.5160    1.0590 O   0  0  0  0  0  0  0  0  0  0  0  0
   -7.1490    0.5430   -0.7310 N   0  0  0  0  0  0  0  0  0  0  0  0
   -8.5570    0.6180   -1.1280 C   0  0  0  0  0  0  0  0  0  0  0  0
   -9.0040   -0.6750   -1.7650 C   0  0  0  0  0  0  0  0  0  0  0  0
   -8.2740   -0.9860   -2.8990 O   0  0  0  0  0  0  0  0  0  0  0  0
   -0.6190   -1.2950   -0.0070 C   0  0  0  0  0  0  0  0  0  0  0  0
   -0.0900   -1.5350   -1.2460 C   0  0  0  0  0  0  0  0  0  0  0  0
    6.0790    1.2390    0.2420 C   0  0  0  0  0  0  0  0  0  0  0  0
    5.9080    0.0930    0.7100 O   0  0  0  0  0  0  0  0  0  0  0  0
    7.3960    1.7360    0.1080 N   0  0  0  0  0  0  0  0  0  0  0  0
    8.5770    1.0190    0.4490 C   0  0  0  0  0  0  0  0  0  0  0  0
    8.6770   -0.3390    0.5110 C   0  0  0  0  0  0  0  0  0  0  0  0
    9.8700   -0.9680    0.8720 C   0  0  0  0  0  0  0  0  0  0  0  0
   10.9920   -0.2320    1.1820 C   0  0  0  0  0  0  0  0  0  0  0  0
   12.2360   -0.9010    1.5670 C   0  0  0  0  0  0  0  0  0  0  0  0
   12.2680   -2.1560    1.6060 O   0  0  0  0  0  0  0  0  0  0  0  0
   10.9110    1.1440    1.1260 C   0  0  0  0  0  0  0  0  0  0  0  0
    9.7170    1.7570    0.7640 C   0  0  0  0  0  0  0  0  0  0  0  0
  2  1  1  1
  2  3  1  0
  2 32  1  0
  3  4  1  0
  4  5  2  0
  4  6  1  0
  6  7  1  0
  7  8  2  0
  7 31  1  0
  8  9  1  0
  9 10  2  0
 10 11  1  0
 11 12  2  0
 11 31  1  0
 12 13  1  0
 13 14  2  0
 14 15  1  0
 14 30  1  0
 15 16  2  0
 15 17  2  0
 15 18  1  6
 18 19  1  0
 19 20  1  6
 19 21  1  0
 21 22  1  1
 21 23  1  0
 21 24  1  0
 24 25  2  0
 24 26  1  0
 26 27  1  0
 27 28  1  0
 28 29  1  0
 30 31  2  0
 32 33  2  0
 32 34  1  0
 34 35  1  0
 35 36  2  0
 35 42  1  0
 36 37  1  0
 37 38  2  0
 38 39  1  0
 38 41  1  0
 39 40  2  0
 41 42  2  0
M  CHG  1  26   1
M  END
