
     RDKit          3D

 42 44  0  0  0  0  0  0  0  0999 V2000
   -6.9880   -2.8130    3.2740 C   0  0  0  0  0  0  0  0  0  0  0  0
   -6.7180   -2.0720    1.9790 C   0  0  0  0  0  0  0  0  0  0  0  0
   -5.3580   -2.3870    1.4350 C   0  0  1  0  0  0  0  0  0  0  0  0
   -5.2350   -3.8250    1.1630 N   0  0  0  0  0  0  0  0  0  0  0  0
   -5.0880   -1.6640    0.1530 C   0  0  0  0  0  0  0  0  0  0  0  0
   -5.1700   -0.1450    0.3290 C   0  0  0  0  0  0  0  0  0  0  0  0
   -4.8430    0.4080   -1.0720 C   0  0  2  0  0  0  0  0  0  0  0  0
   -3.5180   -0.0590   -1.3560 N   0  0  0  0  0  0  0  0  0  0  0  0
   -3.2160   -0.9750   -2.3820 C   0  0  0  0  0  0  0  0  0  0  0  0
   -4.1350   -1.4140   -3.0960 O   0  0  0  0  0  0  0  0  0  0  0  0
   -1.7560   -1.3980   -2.5810 C   0  0  0  0  0  0  0  0  0  0  0  0
   -0.9680   -0.7810   -1.6740 O   0  0  0  0  0  0  0  0  0  0  0  0
    0.3340   -0.7250   -1.3260 C   0  0  0  0  0  0  0  0  0  0  0  0
    0.6970    0.1070   -0.2450 C   0  0  0  0  0  0  0  0  0  0  0  0
    1.9910    0.2150    0.1620 C   0  0  0  0  0  0  0  0  0  0  0  0
    3.0480   -0.4830   -0.4550 C   0  0  0  0  0  0  0  0  0  0  0  0
    4.3400   -0.2950    0.0630 N   0  0  0  0  0  0  0  0  0  0  0  0
    5.5210   -0.6400   -0.6100 C   0  0  0  0  0  0  0  0  0  0  0  0
    5.5130   -1.1520   -1.7540 O   0  0  0  0  0  0  0  0  0  0  0  0
    6.8490   -0.4250   -0.0210 C   0  0  0  0  0  0  0  0  0  0  0  0
    7.9810   -0.4950   -0.8170 C   0  0  0  0  0  0  0  0  0  0  0  0
    9.2440   -0.2950   -0.2990 C   0  0  0  0  0  0  0  0  0  0  0  0
   10.7110   -0.3790   -1.3030 S   0  0  0  0  0  0  0  0  0  0  0  0
   11.3360   -2.0790   -1.2930 C   0  0  0  0  0  0  0  0  0  0  0  0
    9.4320   -0.0140    1.0470 C   0  0  0  0  0  0  0  0  0  0  0  0
   10.6580    0.1900    1.5870 N   0  0  0  0  0  0  0  0  0  0  0  0
   10.8200    0.4630    2.8950 C   0  0  0  0  0  0  0  0  0  0  0  0
   11.9870    0.6520    3.3840 O   0  0  0  0  0  0  0  0  0  0  0  0
    9.7380    0.5400    3.7090 N   0  0  0  0  0  0  0  0  0  0  0  0
    8.5150    0.3400    3.1850 C   0  0  0  0  0  0  0  0  0  0  0  0
    7.4880    0.4030    3.9050 O   0  0  0  0  0  0  0  0  0  0  0  0
    8.3180    0.0570    1.8400 C   0  0  0  0  0  0  0  0  0  0  0  0
    7.0490   -0.1450    1.3190 C   0  0  0  0  0  0  0  0  0  0  0  0
    2.6930   -1.2920   -1.5060 C   0  0  0  0  0  0  0  0  0  0  0  0
    1.3580   -1.4020   -1.9230 C   0  0  0  0  0  0  0  0  0  0  0  0
   -4.9300    1.8860   -1.1150 C   0  0  0  0  0  0  0  0  0  0  0  0
   -3.8910    2.5370   -1.4290 O   0  0  0  0  0  0  0  0  0  0  0  0
   -6.0650    2.5920   -0.8350 O   0  0  0  0  0  0  0  0  0  0  0  0
   -6.1550    4.0040   -0.8770 C   0  0  1  0  0  0  0  0  0  0  0  0
   -7.5660    4.3820   -0.4860 C   0  0  0  0  0  0  0  0  0  0  0  0
   -5.1440    4.7120   -0.0450 C   0  0  0  0  0  0  0  0  0  0  0  0
   -5.9730    4.5090   -2.3090 C   0  0  0  0  0  0  0  0  0  0  0  0
  1  2  1  0
  2  3  1  0
  3  4  1  6
  3  5  1  0
  5  6  1  0
  7  6  1  1
  7  8  1  0
  7 36  1  0
  8  9  1  0
  9 10  2  0
  9 11  1  0
 11 12  1  0
 12 13  1  0
 13 14  2  0
 13 35  1  0
 14 15  1  0
 15 16  2  0
 16 17  1  0
 16 34  1  0
 17 18  1  0
 18 19  2  0
 18 20  1  0
 20 21  2  0
 20 33  1  0
 21 22  1  0
 22 23  1  0
 22 25  2  0
 23 24  1  0
 25 26  1  0
 25 32  1  0
 26 27  1  0
 27 28  2  0
 27 29  1  0
 29 30  1  0
 30 31  2  0
 30 32  1  0
 32 33  2  0
 34 35  2  0
 36 37  2  0
 36 38  1  0
 38 39  1  0
 39 40  1  1
 39 41  1  0
 39 42  1  0
M  CHG  1   4   1
M  END
