
     RDKit          3D

 42 46  0  0  0  0  0  0  0  0999 V2000
   -1.9170   -4.3300    0.9980 C   0  0  0  0  0  0  0  0  0  0  0  0
   -2.1070   -3.1480    1.9090 C   0  0  0  0  0  0  0  0  0  0  0  0
   -1.8840   -1.9120    1.2830 O   0  0  0  0  0  0  0  0  0  0  0  0
   -0.6790   -1.5840    0.7160 C   0  0  0  0  0  0  0  0  0  0  0  0
    0.2380   -2.4290    0.7690 O   0  0  0  0  0  0  0  0  0  0  0  0
   -0.4910   -0.2860    0.0800 C   0  0  2  0  0  0  0  0  0  0  0  0
    0.8550   -0.1910   -0.4540 N   0  0  0  0  0  0  0  0  0  0  0  0
    2.0410   -0.2350    0.2910 C   0  0  0  0  0  0  0  0  0  0  0  0
    1.9880   -0.3720    1.5180 O   0  0  0  0  0  0  0  0  0  0  0  0
    3.3110   -0.1230   -0.3710 N   0  0  0  0  0  0  0  0  0  0  0  0
    4.5710   -0.1450    0.3360 C   0  0  0  0  0  0  0  0  0  0  0  0
    5.7150   -0.0090   -0.6570 C   0  0  1  0  0  0  0  0  0  0  0  0
    5.7370   -1.1240   -1.6510 C   0  0  0  0  0  0  0  0  0  0  0  0
    5.5200    1.2100   -1.3180 O   0  0  0  0  0  0  0  0  0  0  0  0
    6.4920    1.4750   -2.2650 C   0  0  0  0  0  0  0  0  0  0  0  0
    7.0290    0.0500    0.0590 C   0  0  0  0  0  0  0  0  0  0  0  0
    7.4570    1.2670    0.6020 C   0  0  0  0  0  0  0  0  0  0  0  0
    8.6810    1.3460    1.2640 C   0  0  0  0  0  0  0  0  0  0  0  0
    9.5010    0.2500    1.4080 C   0  0  0  0  0  0  0  0  0  0  0  0
   10.7930    0.4290    2.1230 C   0  0  0  0  0  0  0  0  0  0  0  0
   11.8430    0.7450    1.2390 O   0  0  0  0  0  0  0  0  0  0  0  0
    9.0710   -0.9400    0.8720 C   0  0  0  0  0  0  0  0  0  0  0  0
    7.8510   -1.0340    0.2080 C   0  0  0  0  0  0  0  0  0  0  0  0
   -0.6980    0.7870    1.1400 C   0  0  0  0  0  0  0  0  0  0  0  0
   -2.1910    0.9830    1.1160 C   0  0  0  0  0  0  0  0  0  0  0  0
   -2.5060    0.8590   -0.3460 C   0  0  0  0  0  0  0  0  0  0  0  0
   -1.5070    0.0950   -0.9130 C   0  0  0  0  0  0  0  0  0  0  0  0
   -1.5780   -0.1550   -2.2610 C   0  0  0  0  0  0  0  0  0  0  0  0
   -2.6320    0.3620   -2.9870 C   0  0  0  0  0  0  0  0  0  0  0  0
   -3.6430    1.1350   -2.4230 C   0  0  0  0  0  0  0  0  0  0  0  0
   -4.6890    1.6200   -3.3230 C   0  0  0  0  0  0  0  0  0  0  0  0
   -3.5750    1.3880   -1.0650 C   0  0  0  0  0  0  0  0  0  0  0  0
   -4.6530    2.1840   -0.4880 C   0  0  0  0  0  0  0  0  0  0  0  0
   -5.7580    1.4250    0.1410 C   0  0  0  0  0  0  0  0  0  0  0  0
   -5.7720    0.9250    1.4140 C   0  0  0  0  0  0  0  0  0  0  0  0
   -6.8470    0.2250    1.9710 C   0  0  0  0  0  0  0  0  0  0  0  0
   -7.9800    0.0090    1.2170 C   0  0  0  0  0  0  0  0  0  0  0  0
   -8.0020    0.4990   -0.0670 C   0  0  0  0  0  0  0  0  0  0  0  0
   -6.9350    1.1830   -0.5960 C   0  0  0  0  0  0  0  0  0  0  0  0
   -9.3360    0.1540   -0.6620 C   0  0  0  0  0  0  0  0  0  0  0  0
  -10.2070    0.1810    0.6080 C   0  0  0  0  0  0  0  0  0  0  0  0
   -9.2900   -0.6840    1.4980 C   0  0  0  0  0  0  0  0  0  0  0  0
  1  2  1  0
  2  3  1  0
  3  4  1  0
  4  5  2  0
  4  6  1  0
  6  7  1  6
  6 24  1  0
  6 27  1  0
  7  8  1  0
  8  9  2  0
  8 10  1  0
 10 11  1  0
 11 12  1  0
 12 13  1  6
 12 14  1  0
 12 16  1  0
 14 15  1  0
 16 17  2  0
 16 23  1  0
 17 18  1  0
 18 19  2  0
 19 20  1  0
 19 22  1  0
 20 21  1  0
 22 23  2  0
 24 25  1  0
 25 26  1  0
 26 27  2  0
 26 32  1  0
 27 28  1  0
 28 29  2  0
 29 30  1  0
 30 31  1  0
 30 32  2  0
 32 33  1  0
 33 34  1  0
 34 35  2  0
 34 39  1  0
 35 36  1  0
 36 37  2  0
 37 38  1  0
 37 42  1  0
 38 39  2  0
 38 40  1  0
 40 41  1  0
 41 42  1  0
M  END
