
     RDKit          3D

 42 46  0  0  0  0  0  0  0  0999 V2000
   -9.6630   -0.6410    0.4910 C   0  0  0  0  0  0  0  0  0  0  0  0
   -8.9770    0.4600   -0.3190 C   0  0  0  0  0  0  0  0  0  0  0  0
   -7.8920    1.1570    0.4140 C   0  0  0  0  0  0  0  0  0  0  0  0
   -6.7660    0.3810    0.8980 C   0  0  0  0  0  0  0  0  0  0  0  0
   -5.7160    0.0090    0.0980 C   0  0  0  0  0  0  0  0  0  0  0  0
   -5.7010    0.3620   -1.3320 C   0  0  0  0  0  0  0  0  0  0  0  0
   -4.5010    0.0000   -1.9340 O   0  0  0  0  0  0  0  0  0  0  0  0
   -3.2480    0.4860   -1.6950 C   0  0  0  0  0  0  0  0  0  0  0  0
   -3.0250    1.4770   -0.7680 C   0  0  0  0  0  0  0  0  0  0  0  0
   -1.7680    1.9800   -0.5150 C   0  0  0  0  0  0  0  0  0  0  0  0
   -0.6480    1.5010   -1.1980 C   0  0  0  0  0  0  0  0  0  0  0  0
   -0.8590    0.5110   -2.1270 C   0  0  0  0  0  0  0  0  0  0  0  0
    0.2620   -0.0300   -2.8880 C   0  0  0  0  0  0  0  0  0  0  0  0
    0.9930   -1.1680   -2.2780 C   0  0  1  0  0  0  0  0  0  0  0  0
    0.1330   -2.3810   -2.0120 C   0  0  0  0  0  0  0  0  0  0  0  0
    2.0300   -1.6300   -3.3060 C   0  0  0  0  0  0  0  0  0  0  0  0
    3.2720   -0.9080   -2.9140 C   0  0  1  0  0  0  0  0  0  0  0  0
    4.4480   -1.7270   -3.4260 C   0  0  0  0  0  0  0  0  0  0  0  0
    3.3910    0.3500   -3.4960 O   0  0  0  0  0  0  0  0  0  0  0  0
    3.2190   -0.8640   -1.4770 N   0  0  0  0  0  0  0  0  0  0  0  0
    4.3990   -0.8380   -0.6420 C   0  0  0  0  0  0  0  0  0  0  0  0
    4.8680    0.5870   -0.3790 C   0  0  2  0  0  0  0  0  0  0  0  0
    5.1860    1.2340   -1.5720 O   0  0  0  0  0  0  0  0  0  0  0  0
    6.0070    0.5440    0.5690 C   0  0  0  0  0  0  0  0  0  0  0  0
    7.2830    0.1900    0.1930 C   0  0  0  0  0  0  0  0  0  0  0  0
    8.3340    0.1600    1.0990 C   0  0  0  0  0  0  0  0  0  0  0  0
    9.7060   -0.2290    0.6580 C   0  0  0  0  0  0  0  0  0  0  0  0
    8.1230    0.4890    2.4240 C   0  0  0  0  0  0  0  0  0  0  0  0
    9.1990    0.4630    3.3720 N   0  0  0  0  0  0  0  0  0  0  0  0
    6.8500    0.8460    2.8180 C   0  0  0  0  0  0  0  0  0  0  0  0
    6.6050    1.2020    4.2350 C   0  0  0  0  0  0  0  0  0  0  0  0
    5.8160    0.8700    1.8960 C   0  0  0  0  0  0  0  0  0  0  0  0
    1.8400   -0.8490   -1.1320 C   0  0  0  0  0  0  0  0  0  0  0  0
    1.4310   -0.5890    0.0250 O   0  0  0  0  0  0  0  0  0  0  0  0
   -2.1190    0.0170   -2.3690 C   0  0  0  0  0  0  0  0  0  0  0  0
   -4.6710   -0.7380    0.6330 C   0  0  0  0  0  0  0  0  0  0  0  0
   -4.6820   -1.1070    1.9630 C   0  0  0  0  0  0  0  0  0  0  0  0
   -5.7210   -0.7490    2.7920 C   0  0  0  0  0  0  0  0  0  0  0  0
   -6.7410   -0.0150    2.2510 C   0  0  0  0  0  0  0  0  0  0  0  0
   -7.7120    0.2640    3.3290 C   0  0  0  0  0  0  0  0  0  0  0  0
   -7.3970   -0.8450    4.3360 C   0  0  0  0  0  0  0  0  0  0  0  0
   -5.9790   -0.9890    4.1610 O   0  0  0  0  0  0  0  0  0  0  0  0
  1  2  1  0
  2  3  1  0
  3  4  1  0
  4  5  2  0
  4 39  1  0
  5  6  1  0
  5 36  1  0
  6  7  1  0
  7  8  1  0
  8  9  2  0
  8 35  1  0
  9 10  1  0
 10 11  2  0
 11 12  1  0
 12 13  1  0
 12 35  2  0
 13 14  1  0
 14 15  1  1
 14 16  1  0
 14 33  1  0
 16 17  1  0
 17 18  1  1
 17 19  1  0
 17 20  1  0
 20 21  1  0
 20 33  1  0
 21 22  1  0
 22 23  1  6
 22 24  1  0
 24 25  2  0
 24 32  1  0
 25 26  1  0
 26 27  1  0
 26 28  2  0
 28 29  1  0
 28 30  1  0
 30 31  1  0
 30 32  2  0
 33 34  2  0
 36 37  2  0
 37 38  1  0
 38 39  2  0
 38 42  1  0
 39 40  1  0
 40 41  1  0
 41 42  1  0
M  END
