
     RDKit          3D

 42 46  0  0  0  0  0  0  0  0999 V2000
    0.7250    4.8690    2.0230 C   0  0  0  0  0  0  0  0  0  0  0  0
   -0.7430    5.0070    1.7200 C   0  0  0  0  0  0  0  0  0  0  0  0
   -1.0150    5.1760    0.3120 N   0  0  0  0  0  0  0  0  0  0  0  0
   -0.7170    4.1800   -0.6570 C   0  0  0  0  0  0  0  0  0  0  0  0
   -0.8490    4.4780   -1.9950 C   0  0  0  0  0  0  0  0  0  0  0  0
   -0.5580    3.5000   -2.9270 C   0  0  0  0  0  0  0  0  0  0  0  0
   -0.1350    2.2260   -2.4940 C   0  0  0  0  0  0  0  0  0  0  0  0
   -0.0010    1.9190   -1.1830 C   0  0  0  0  0  0  0  0  0  0  0  0
    0.4700    0.6350   -0.6770 C   0  0  2  0  0  0  0  0  0  0  0  0
    1.8100    0.9690   -0.1080 O   0  0  0  0  0  0  0  0  0  0  0  0
    0.7750   -0.4380   -1.6670 C   0  0  0  0  0  0  0  0  0  0  0  0
    2.0370   -1.1300   -1.0780 C   0  0  0  0  0  0  0  0  0  0  0  0
    2.9050   -1.5250   -1.9160 C   0  0  0  0  0  0  0  0  0  0  0  0
    4.1510   -2.1540   -2.0750 C   0  0  0  0  0  0  0  0  0  0  0  0
    4.4740   -2.3420   -3.3550 O   0  0  0  0  0  0  0  0  0  0  0  0
    5.1290   -2.6270   -1.1470 C   0  0  0  0  0  0  0  0  0  0  0  0
    6.1220   -3.5030   -1.6740 C   0  0  0  0  0  0  0  0  0  0  0  0
    7.1420   -3.9480   -0.8810 C   0  0  0  0  0  0  0  0  0  0  0  0
    7.2310   -3.5640    0.4270 C   0  0  0  0  0  0  0  0  0  0  0  0
    8.3610   -4.0670    1.2450 C   0  0  0  0  0  0  0  0  0  0  0  0
    6.3110   -2.7250    0.9940 C   0  0  0  0  0  0  0  0  0  0  0  0
    5.2730   -2.2770    0.1690 C   0  0  0  0  0  0  0  0  0  0  0  0
    1.9950   -1.2580    0.3510 C   0  0  0  0  0  0  0  0  0  0  0  0
    0.6400   -1.1510    0.9820 C   0  0  0  0  0  0  0  0  0  0  0  0
   -0.2070    0.0430    0.4950 C   0  0  2  0  0  0  0  0  0  0  0  0
   -1.5330   -0.3940    0.5230 N   0  0  0  0  0  0  0  0  0  0  0  0
   -2.7580   -0.0990   -0.0680 C   0  0  0  0  0  0  0  0  0  0  0  0
   -2.8720    0.2170   -1.4200 C   0  0  0  0  0  0  0  0  0  0  0  0
   -4.0800    0.3830   -2.0630 C   0  0  0  0  0  0  0  0  0  0  0  0
   -4.2470    0.7090   -3.5020 C   0  0  1  0  0  0  0  0  0  0  0  0
   -3.0290    0.4230   -4.3070 C   0  0  0  0  0  0  0  0  0  0  0  0
   -5.3000   -0.0880   -4.0400 O   0  0  0  0  0  0  0  0  0  0  0  0
   -5.2140    0.2170   -1.2960 C   0  0  0  0  0  0  0  0  0  0  0  0
   -5.1440   -0.0920    0.0290 C   0  0  0  0  0  0  0  0  0  0  0  0
   -3.9240   -0.2650    0.7080 C   0  0  0  0  0  0  0  0  0  0  0  0
   -3.9200   -0.5650    2.0120 O   0  0  0  0  0  0  0  0  0  0  0  0
   -3.1840   -0.7430    3.0960 C   0  0  2  0  0  0  0  0  0  0  0  0
   -3.0590   -2.2160    3.5500 C   0  0  0  0  0  0  0  0  0  0  0  0
   -4.3950   -2.4190    4.1830 C   0  0  0  0  0  0  0  0  0  0  0  0
   -4.8180   -1.2100    4.6990 O   0  0  0  0  0  0  0  0  0  0  0  0
   -3.9440   -0.2260    4.3270 C   0  0  0  0  0  0  0  0  0  0  0  0
   -0.2980    2.9150   -0.2570 C   0  0  0  0  0  0  0  0  0  0  0  0
  1  2  1  0
  2  3  1  0
  3  4  1  0
  4  5  2  0
  4 42  1  0
  5  6  1  0
  6  7  2  0
  7  8  1  0
  8  9  1  0
  8 42  2  0
  9 10  1  1
  9 11  1  0
  9 25  1  0
 11 12  1  0
 12 13  2  3
 12 23  1  0
 13 14  1  0
 14 15  2  0
 14 16  1  0
 16 17  2  0
 16 22  1  0
 17 18  1  0
 18 19  2  0
 19 20  1  0
 19 21  1  0
 21 22  2  0
 23 24  1  0
 24 25  1  0
 25 26  1  6
 26 27  1  0
 27 28  2  0
 27 35  1  0
 28 29  1  0
 29 30  1  0
 29 33  2  0
 30 31  1  6
 30 32  1  0
 33 34  1  0
 34 35  2  0
 35 36  1  0
 37 36  1  6
 37 38  1  0
 37 41  1  0
 38 39  1  0
 39 40  1  0
 40 41  1  0
M  END
