
     RDKit          3D

 42 44  0  0  0  0  0  0  0  0999 V2000
   -4.3260    5.2690    1.1170 C   0  0  0  0  0  0  0  0  0  0  0  0
   -4.4740    4.0800    2.0130 C   0  0  0  0  0  0  0  0  0  0  0  0
   -3.1270    3.4590    2.3490 C   0  0  0  0  0  0  0  0  0  0  0  0
   -2.4200    2.9690    1.1930 O   0  0  0  0  0  0  0  0  0  0  0  0
   -2.8830    1.8760    0.5270 C   0  0  0  0  0  0  0  0  0  0  0  0
   -3.9070    1.3230    0.9350 O   0  0  0  0  0  0  0  0  0  0  0  0
   -2.2230    1.2830   -0.6790 C   0  0  0  0  0  0  0  0  0  0  0  0
   -2.6890    0.1770   -1.2260 C   0  0  0  0  0  0  0  0  0  0  0  0
   -4.1860   -0.5290   -0.3960 S   0  0  0  0  0  0  0  0  0  0  0  0
   -5.3800   -0.8110   -1.6840 C   0  0  0  0  0  0  0  0  0  0  0  0
   -6.4530   -1.8090   -1.4380 C   0  0  0  0  0  0  0  0  0  0  0  0
   -7.2920   -1.6080   -0.2910 N   0  0  0  0  0  0  0  0  0  0  0  0
   -6.5920   -1.8360    0.9320 C   0  0  0  0  0  0  0  0  0  0  0  0
   -2.2940   -0.5410   -2.3600 N   0  0  0  0  0  0  0  0  0  0  0  0
   -1.1430   -1.2420   -2.7310 C   0  0  0  0  0  0  0  0  0  0  0  0
   -0.1150   -1.9260   -2.3950 C   0  0  0  0  0  0  0  0  0  0  0  0
    0.6570   -2.5010   -1.3320 C   0  0  0  0  0  0  0  0  0  0  0  0
    0.5980   -3.8210   -1.1290 C   0  0  0  0  0  0  0  0  0  0  0  0
   -0.1900   -4.7760   -1.9020 C   0  0  0  0  0  0  0  0  0  0  0  0
   -1.5330   -4.8490   -2.0750 C   0  0  0  0  0  0  0  0  0  0  0  0
   -1.8050   -5.9280   -2.9110 C   0  0  0  0  0  0  0  0  0  0  0  0
   -0.5990   -6.4680   -3.2130 C   0  0  0  0  0  0  0  0  0  0  0  0
    0.3560   -5.7600   -2.5880 O   0  0  0  0  0  0  0  0  0  0  0  0
    1.7170   -1.8720   -0.4830 C   0  0  0  0  0  0  0  0  0  0  0  0
    1.9930   -0.6580   -0.1740 C   0  0  0  0  0  0  0  0  0  0  0  0
    3.1680   -0.3040    0.7150 C   0  0  0  0  0  0  0  0  0  0  0  0
    4.0320    0.7390    0.3870 C   0  0  0  0  0  0  0  0  0  0  0  0
    4.9720    0.8260    1.3780 C   0  0  0  0  0  0  0  0  0  0  0  0
    6.0400    1.8300    1.5760 C   0  0  0  0  0  0  0  0  0  0  0  0
    7.0790    1.6540    0.6300 N   0  0  0  0  0  0  0  0  0  0  0  0
    7.3880    2.5280   -0.4160 C   0  0  0  0  0  0  0  0  0  0  0  0
    4.6150   -0.1850    2.2600 C   0  0  0  0  0  0  0  0  0  0  0  0
    5.3560   -0.4620    3.4970 C   0  0  0  0  0  0  0  0  0  0  0  0
    5.0650   -1.3720    4.2370 O   0  0  0  0  0  0  0  0  0  0  0  0
    6.4400    0.3500    3.8420 O   0  0  0  0  0  0  0  0  0  0  0  0
    7.2600    0.2720    4.9310 C   0  0  0  0  0  0  0  0  0  0  0  0
    3.5480   -0.8370    1.8420 O   0  0  0  0  0  0  0  0  0  0  0  0
    1.1650    0.5350   -0.4110 C   0  0  0  0  0  0  0  0  0  0  0  0
    0.9460    0.8830   -1.7510 N   0  0  0  0  0  0  0  0  0  0  0  0
   -0.1620    1.7720   -2.1040 C   0  0  0  0  0  0  0  0  0  0  0  0
   -0.1060    2.2350   -3.2830 O   0  0  0  0  0  0  0  0  0  0  0  0
   -1.2150    2.1060   -1.2440 N   0  0  0  0  0  0  0  0  0  0  0  0
  1  2  1  0
  2  3  1  0
  3  4  1  0
  4  5  1  0
  5  6  2  0
  5  7  1  0
  7  8  2  0
  7 42  1  0
  8  9  1  0
  8 14  1  0
  9 10  1  0
 10 11  1  0
 11 12  1  0
 12 13  1  0
 14 15  1  0
 15 16  2  0
 16 17  1  0
 17 18  2  3
 17 24  1  0
 18 19  1  0
 19 20  2  0
 19 23  1  0
 20 21  1  0
 21 22  2  0
 22 23  1  0
 24 25  2  0
 25 26  1  0
 25 38  1  0
 26 27  2  0
 26 37  1  0
 27 28  1  0
 28 29  1  0
 28 32  2  0
 29 30  1  0
 30 31  1  0
 32 33  1  0
 32 37  1  0
 33 34  2  0
 33 35  1  0
 35 36  1  0
 38 39  1  0
 39 40  1  0
 40 41  2  0
 40 42  1  0
M  CHG  1  30   1
M  END
