
     RDKit          3D

 42 46  0  0  0  0  0  0  0  0999 V2000
   10.7520    1.9300    1.3530 C   0  0  0  0  0  0  0  0  0  0  0  0
    9.8500    1.8470    0.2440 O   0  0  0  0  0  0  0  0  0  0  0  0
    8.4840    1.6250    0.4560 C   0  0  0  0  0  0  0  0  0  0  0  0
    8.1370    1.5130    1.6470 O   0  0  0  0  0  0  0  0  0  0  0  0
    7.5530    1.5320   -0.5870 N   0  0  0  0  0  0  0  0  0  0  0  0
    6.1740    1.3070   -0.4520 C   0  0  0  0  0  0  0  0  0  0  0  0
    5.3090    1.4610   -1.5500 C   0  0  0  0  0  0  0  0  0  0  0  0
    3.9510    1.2380   -1.4630 C   0  0  0  0  0  0  0  0  0  0  0  0
    3.3730    0.8550   -0.2960 C   0  0  0  0  0  0  0  0  0  0  0  0
    1.9180    0.6190   -0.1620 C   0  0  0  0  0  0  0  0  0  0  0  0
    1.3160   -0.4190    0.4320 N   0  0  0  0  0  0  0  0  0  0  0  0
   -0.0160   -0.3440    0.4040 C   0  0  0  0  0  0  0  0  0  0  0  0
   -1.0630   -1.2600    0.9310 C   0  0  2  0  0  0  0  0  0  0  0  0
   -0.5700   -2.6030    1.3360 C   0  0  0  0  0  0  0  0  0  0  0  0
    0.0570   -3.4270    0.3060 C   0  0  0  0  0  0  0  0  0  0  0  0
    1.4060   -3.5090    0.1090 C   0  0  0  0  0  0  0  0  0  0  0  0
    1.9010   -4.3010   -0.9020 C   0  0  0  0  0  0  0  0  0  0  0  0
    1.0450   -5.0080   -1.7100 C   0  0  0  0  0  0  0  0  0  0  0  0
   -0.3320   -4.9580   -1.5490 C   0  0  0  0  0  0  0  0  0  0  0  0
   -0.7810   -4.1450   -0.5180 C   0  0  0  0  0  0  0  0  0  0  0  0
   -2.1900   -1.3420    0.0140 N   0  0  0  0  0  0  0  0  0  0  0  0
   -3.4700   -0.8340    0.4370 C   0  0  0  0  0  0  0  0  0  0  0  0
   -3.5680   -0.3360    1.5820 O   0  0  0  0  0  0  0  0  0  0  0  0
   -4.5750   -0.9510   -0.5440 C   0  0  0  0  0  0  0  0  0  0  0  0
   -5.8840   -0.4240   -0.0190 C   0  0  0  0  0  0  0  0  0  0  0  0
   -5.8760    0.9960    0.3720 C   0  0  0  0  0  0  0  0  0  0  0  0
   -5.8780    1.3800    1.7070 C   0  0  0  0  0  0  0  0  0  0  0  0
   -5.8780    2.7040    2.0130 C   0  0  0  0  0  0  0  0  0  0  0  0
   -5.8800    3.1930    3.6950 Cl  0  0  0  0  0  0  0  0  0  0  0  0
   -5.8770    3.7030    1.0520 C   0  0  0  0  0  0  0  0  0  0  0  0
   -5.8760    3.3250   -0.2710 C   0  0  0  0  0  0  0  0  0  0  0  0
   -5.8760    1.9750   -0.5990 C   0  0  0  0  0  0  0  0  0  0  0  0
   -5.8900    1.6690   -1.9800 N   0  0  0  0  0  0  0  0  0  0  0  0
   -6.8670    1.0930   -2.6720 C   0  0  0  0  0  0  0  0  0  0  0  0
   -6.4180    1.0300   -3.9480 N   0  0  0  0  0  0  0  0  0  0  0  0
   -5.2060    1.5510   -4.0330 N   0  0  0  0  0  0  0  0  0  0  0  0
   -4.8910    1.9430   -2.8110 N   0  0  0  0  0  0  0  0  0  0  0  0
   -0.2710    0.8310   -0.2580 N   0  0  0  0  0  0  0  0  0  0  0  0
    0.8850    1.4150   -0.6020 C   0  0  0  0  0  0  0  0  0  0  0  0
    1.0370    2.9270   -1.4570 Cl  0  0  0  0  0  0  0  0  0  0  0  0
    4.1880    0.6930    0.8040 C   0  0  0  0  0  0  0  0  0  0  0  0
    5.5730    0.9210    0.7140 C   0  0  0  0  0  0  0  0  0  0  0  0
  1  2  1  0
  2  3  1  0
  3  4  2  0
  3  5  1  0
  5  6  1  0
  6  7  2  0
  6 42  1  0
  7  8  1  0
  8  9  2  0
  9 10  1  0
  9 41  1  0
 10 11  1  0
 10 39  2  0
 11 12  2  0
 12 13  1  0
 12 38  1  0
 13 14  1  6
 13 21  1  0
 14 15  1  0
 15 16  2  0
 15 20  1  0
 16 17  1  0
 17 18  2  0
 18 19  1  0
 19 20  2  0
 21 22  1  0
 22 23  2  0
 22 24  1  0
 24 25  1  0
 25 26  1  0
 26 27  2  0
 26 32  1  0
 27 28  1  0
 28 29  1  0
 28 30  2  0
 30 31  1  0
 31 32  2  0
 32 33  1  0
 33 34  1  0
 33 37  1  0
 34 35  2  0
 35 36  1  0
 36 37  2  0
 38 39  1  0
 39 40  1  0
 41 42  2  0
M  END
