
     RDKit          3D

 42 46  0  0  0  0  0  0  0  0999 V2000
    0.0130   -4.2820   -2.8020 C   0  0  0  0  0  0  0  0  0  0  0  0
   -0.2060   -3.8010   -1.3660 C   0  0  0  0  0  0  0  0  0  0  0  0
   -0.8540   -2.4690   -1.3070 C   0  0  0  0  0  0  0  0  0  0  0  0
   -2.1760   -2.0920   -1.4320 C   0  0  0  0  0  0  0  0  0  0  0  0
   -3.2770   -2.9510   -1.7920 C   0  0  2  0  0  0  0  0  0  0  0  0
   -3.0070   -4.3860   -1.1140 C   0  0  0  0  0  0  0  0  0  0  0  0
   -3.2210   -3.3840   -3.1090 O   0  0  0  0  0  0  0  0  0  0  0  0
   -4.6040   -2.6770   -1.2390 C   0  0  0  0  0  0  0  0  0  0  0  0
   -4.7480   -2.8230    0.2750 C   0  0  0  0  0  0  0  0  0  0  0  0
   -4.6240   -4.1000    0.7690 O   0  0  0  0  0  0  0  0  0  0  0  0
   -2.2520   -0.7260   -1.3830 N   0  0  0  0  0  0  0  0  0  0  0  0
   -3.2350    0.2880   -1.5180 C   0  0  0  0  0  0  0  0  0  0  0  0
   -3.8520    1.0360   -0.4580 C   0  0  2  0  0  0  0  0  0  0  0  0
   -4.6740    0.4990    0.6370 C   0  0  0  0  0  0  0  0  0  0  0  0
   -5.3710    1.6260    1.3980 C   0  0  0  0  0  0  0  0  0  0  0  0
   -6.0370    1.2810    2.5750 C   0  0  0  0  0  0  0  0  0  0  0  0
   -6.6660    2.2890    3.2570 C   0  0  0  0  0  0  0  0  0  0  0  0
   -6.6530    3.5910    2.8190 C   0  0  0  0  0  0  0  0  0  0  0  0
   -5.9680    3.8880    1.6280 C   0  0  0  0  0  0  0  0  0  0  0  0
   -5.3310    2.8920    0.9270 C   0  0  0  0  0  0  0  0  0  0  0  0
   -4.6170    3.2010   -0.3080 C   0  0  0  0  0  0  0  0  0  0  0  0
   -4.6830    2.0410   -1.1020 O   0  0  0  0  0  0  0  0  0  0  0  0
   -0.9430   -0.2740   -1.2170 C   0  0  0  0  0  0  0  0  0  0  0  0
   -0.4010    1.0040   -1.0990 C   0  0  0  0  0  0  0  0  0  0  0  0
    0.9690    1.2250   -0.9380 C   0  0  0  0  0  0  0  0  0  0  0  0
    1.3960    2.6430   -0.8780 C   0  0  0  0  0  0  0  0  0  0  0  0
    1.8270    0.1860   -0.8870 C   0  0  0  0  0  0  0  0  0  0  0  0
    3.2470    0.2890   -0.6700 C   0  0  0  0  0  0  0  0  0  0  0  0
    3.9740   -0.6820   -1.1150 O   0  0  0  0  0  0  0  0  0  0  0  0
    3.9720    1.3070   -0.0280 N   0  0  0  0  0  0  0  0  0  0  0  0
    5.4330    1.2510    0.0940 C   0  0  1  0  0  0  0  0  0  0  0  0
    6.0910    2.4420   -0.5320 C   0  0  0  0  0  0  0  0  0  0  0  0
    5.7310    1.1630    1.5820 C   0  0  1  0  0  0  0  0  0  0  0  0
    5.1010   -0.0160    2.0300 O   0  0  0  0  0  0  0  0  0  0  0  0
    7.1810    1.1570    1.8440 C   0  0  0  0  0  0  0  0  0  0  0  0
    7.7910    2.2640    2.3640 C   0  0  0  0  0  0  0  0  0  0  0  0
    9.1590    2.2830    2.6190 C   0  0  0  0  0  0  0  0  0  0  0  0
    9.8870    1.1480    2.3330 C   0  0  0  0  0  0  0  0  0  0  0  0
    9.2700    0.0290    1.8080 C   0  0  0  0  0  0  0  0  0  0  0  0
    7.9070    0.0280    1.5600 C   0  0  0  0  0  0  0  0  0  0  0  0
    1.2720   -1.1100   -1.0080 C   0  0  0  0  0  0  0  0  0  0  0  0
   -0.0820   -1.3160   -1.1690 C   0  0  0  0  0  0  0  0  0  0  0  0
  1  2  1  0
  2  3  1  0
  3  4  2  0
  3 42  1  0
  4  5  1  0
  4 11  1  0
  5  6  1  1
  5  7  1  0
  5  8  1  0
  8  9  1  0
  9 10  1  0
 11 12  1  0
 11 23  1  0
 13 12  1  6
 13 14  1  0
 13 22  1  0
 14 15  1  0
 15 16  2  0
 15 20  1  0
 16 17  1  0
 17 18  2  0
 18 19  1  0
 19 20  2  0
 20 21  1  0
 21 22  1  0
 23 24  2  0
 23 42  1  0
 24 25  1  0
 25 26  1  0
 25 27  2  0
 27 28  1  0
 27 41  1  0
 28 29  2  0
 28 30  1  0
 30 31  1  0
 31 32  1  1
 31 33  1  0
 33 34  1  6
 33 35  1  0
 35 36  2  0
 35 40  1  0
 36 37  1  0
 37 38  2  0
 38 39  1  0
 39 40  2  0
 41 42  2  0
M  END
