
     RDKit          3D

 43 47  0  0  0  0  0  0  0  0999 V2000
   -6.9680   -0.9210    2.6650 C   0  0  0  0  0  0  0  0  0  0  0  0
   -6.4120   -0.0440    1.8630 C   0  0  0  0  0  0  0  0  0  0  0  0
   -5.1390    0.5390    2.1650 N   0  0  0  0  0  0  0  0  0  0  0  0
   -4.9140    1.9070    2.4510 C   0  0  0  0  0  0  0  0  0  0  0  0
   -3.6210    1.9320    3.2120 C   0  0  0  0  0  0  0  0  0  0  0  0
   -2.9600    0.5870    2.9870 C   0  0  0  0  0  0  0  0  0  0  0  0
   -3.8870   -0.2380    2.2140 C   0  0  2  0  0  0  0  0  0  0  0  0
   -3.5020   -0.6260    0.8270 C   0  0  0  0  0  0  0  0  0  0  0  0
   -3.3320   -1.9290    0.6070 C   0  0  0  0  0  0  0  0  0  0  0  0
   -3.5200   -2.9170    1.7400 C   0  0  0  0  0  0  0  0  0  0  0  0
   -3.0480   -2.5050   -0.6660 N   0  0  0  0  0  0  0  0  0  0  0  0
   -2.9490   -1.5940   -1.7490 C   0  0  0  0  0  0  0  0  0  0  0  0
   -3.1020   -0.3010   -1.5720 C   0  0  0  0  0  0  0  0  0  0  0  0
   -2.9810    0.5280   -2.7910 C   0  0  0  0  0  0  0  0  0  0  0  0
   -2.5690    1.6860   -2.6760 O   0  0  0  0  0  0  0  0  0  0  0  0
   -3.3420   -0.0050   -4.1280 C   0  0  0  0  0  0  0  0  0  0  0  0
   -3.6890   -1.4840   -4.0480 C   0  0  2  0  0  0  0  0  0  0  0  0
   -5.0780   -1.6860   -3.4620 C   0  0  0  0  0  0  0  0  0  0  0  0
   -2.6610   -2.1000   -3.1250 C   0  0  0  0  0  0  0  0  0  0  0  0
   -3.3050    0.3330   -0.2490 C   0  0  2  0  0  0  0  0  0  0  0  0
   -2.1080    1.2390    0.0090 C   0  0  0  0  0  0  0  0  0  0  0  0
   -2.2610    2.6010    0.0810 C   0  0  0  0  0  0  0  0  0  0  0  0
   -1.1440    3.3950    0.2940 C   0  0  0  0  0  0  0  0  0  0  0  0
    0.1080    2.8540    0.4340 C   0  0  0  0  0  0  0  0  0  0  0  0
    0.2970    1.5030    0.3650 C   0  0  0  0  0  0  0  0  0  0  0  0
    1.5930    0.8420    0.4590 C   0  0  0  0  0  0  0  0  0  0  0  0
    1.6890   -0.2830    1.0420 O   0  0  0  0  0  0  0  0  0  0  0  0
    2.8050    1.4790   -0.1240 C   0  0  0  0  0  0  0  0  0  0  0  0
    2.7070    2.5130   -0.9760 C   0  0  0  0  0  0  0  0  0  0  0  0
    3.8730    2.9920   -1.5460 C   0  0  0  0  0  0  0  0  0  0  0  0
    4.0740    4.1210   -2.5190 C   0  0  0  0  0  0  0  0  0  0  0  0
    5.1250    1.9430   -0.8540 S   0  0  0  0  0  0  0  0  0  0  0  0
    4.0200    0.9470    0.1430 C   0  0  0  0  0  0  0  0  0  0  0  0
    4.4550   -0.1080    0.9760 N   0  0  0  0  0  0  0  0  0  0  0  0
    5.8560   -0.4380    1.0470 C   0  0  0  0  0  0  0  0  0  0  0  0
    6.6850    0.2020    0.3740 O   0  0  0  0  0  0  0  0  0  0  0  0
    6.3100   -1.5520    1.9330 C   0  0  0  0  0  0  0  0  0  0  0  0
    7.7460   -1.6470    1.8100 N   0  0  0  0  0  0  0  0  0  0  0  0
    8.4370   -1.9040    0.6130 C   0  0  0  0  0  0  0  0  0  0  0  0
    7.7770   -2.0660   -0.4370 O   0  0  0  0  0  0  0  0  0  0  0  0
    9.9260   -1.9930    0.5320 C   0  0  0  0  0  0  0  0  0  0  0  0
   10.3770   -2.2600   -0.8630 C   0  0  0  0  0  0  0  0  0  0  0  0
   -0.8500    0.7170    0.1490 C   0  0  0  0  0  0  0  0  0  0  0  0
  1  2  2  0
  2  3  1  0
  3  4  1  0
  3  7  1  0
  4  5  1  0
  5  6  1  0
  6  7  1  0
  7  8  1  6
  8  9  2  0
  8 20  1  0
  9 10  1  0
  9 11  1  0
 11 12  1  0
 12 13  2  0
 12 19  1  0
 13 14  1  0
 13 20  1  0
 14 15  2  0
 14 16  1  0
 16 17  1  0
 17 18  1  1
 17 19  1  0
 20 21  1  1
 21 22  2  0
 21 43  1  0
 22 23  1  0
 23 24  2  0
 24 25  1  0
 25 26  1  0
 25 43  2  0
 26 27  2  0
 26 28  1  0
 28 29  1  0
 28 33  2  0
 29 30  2  0
 30 31  1  0
 30 32  1  0
 32 33  1  0
 33 34  1  0
 34 35  1  0
 35 36  2  0
 35 37  1  0
 37 38  1  0
 38 39  1  0
 39 40  2  0
 39 41  1  0
 41 42  1  0
M  END
