
     RDKit          3D

 36 40  0  0  0  0  0  0  0  0999 V2000
    8.4530    1.4210    0.6350 O   0  0  0  0  0  0  0  0  0  0  0  0
    9.5340    1.0810    0.0880 C   0  0  0  0  0  0  0  0  0  0  0  0
   10.6310    0.8890    0.9290 O   0  0  0  0  0  0  0  0  0  0  0  0
    9.6160    0.8960   -1.3860 C   0  0  0  0  0  0  0  0  0  0  0  0
    9.0060   -0.4090   -1.7910 C   0  0  0  0  0  0  0  0  0  0  0  0
    7.5770   -0.4490   -1.3940 C   0  0  0  0  0  0  0  0  0  0  0  0
    7.1680   -0.9110   -0.1740 C   0  0  0  0  0  0  0  0  0  0  0  0
    5.8310   -0.9630    0.2240 C   0  0  0  0  0  0  0  0  0  0  0  0
    4.8640   -0.5280   -0.6480 C   0  0  0  0  0  0  0  0  0  0  0  0
    3.5410   -0.5440   -0.3470 O   0  0  0  0  0  0  0  0  0  0  0  0
    2.9720   -0.9660    0.8420 C   0  0  1  0  0  0  0  0  0  0  0  0
    2.1350    0.1660    1.3730 C   0  0  0  0  0  0  0  0  0  0  0  0
    0.6880    0.1040    1.1440 C   0  0  0  0  0  0  0  0  0  0  0  0
    0.1510   -0.8880    0.2960 N   0  0  0  0  0  0  0  0  0  0  0  0
   -1.2500   -0.9290    0.0570 C   0  0  0  0  0  0  0  0  0  0  0  0
   -1.7570   -1.8190   -0.7120 O   0  0  0  0  0  0  0  0  0  0  0  0
   -2.1920   -0.0350    0.6160 N   0  0  0  0  0  0  0  0  0  0  0  0
   -3.6330   -0.1520    0.3140 C   0  0  1  0  0  0  0  0  0  0  0  0
   -4.5640    0.1380    1.4590 C   0  0  2  0  0  0  0  0  0  0  0  0
   -5.9280   -0.4210    1.5150 C   0  0  0  0  0  0  0  0  0  0  0  0
   -6.4230   -1.3600    0.6590 C   0  0  0  0  0  0  0  0  0  0  0  0
   -7.7390   -1.8230    0.7710 C   0  0  0  0  0  0  0  0  0  0  0  0
   -8.5770   -1.3460    1.7510 C   0  0  0  0  0  0  0  0  0  0  0  0
   -8.0800   -0.3970    2.6180 C   0  0  0  0  0  0  0  0  0  0  0  0
   -6.7830    0.0500    2.4960 C   0  0  0  0  0  0  0  0  0  0  0  0
   -4.3510    1.1690    0.3960 C   0  0  2  0  0  0  0  0  0  0  0  0
   -5.3940    1.4860   -0.5980 C   0  0  0  0  0  0  0  0  0  0  0  0
   -5.6870    0.6680   -1.6640 C   0  0  0  0  0  0  0  0  0  0  0  0
   -6.6970    1.0450   -2.5280 C   0  0  0  0  0  0  0  0  0  0  0  0
   -7.4300    2.2040   -2.3780 C   0  0  0  0  0  0  0  0  0  0  0  0
   -7.0980    2.9920   -1.2950 C   0  0  0  0  0  0  0  0  0  0  0  0
   -6.1100    2.6700   -0.4060 C   0  0  0  0  0  0  0  0  0  0  0  0
    0.9760   -1.8720   -0.3470 C   0  0  0  0  0  0  0  0  0  0  0  0
    2.1250   -2.2030    0.5820 C   0  0  0  0  0  0  0  0  0  0  0  0
    5.2520   -0.0440   -1.9170 C   0  0  0  0  0  0  0  0  0  0  0  0
    6.5730   -0.0200   -2.2460 C   0  0  0  0  0  0  0  0  0  0  0  0
  1  2  2  0
  2  3  1  0
  2  4  1  0
  4  5  1  0
  5  6  1  0
  6  7  2  0
  6 36  1  0
  7  8  1  0
  8  9  2  0
  9 10  1  0
  9 35  1  0
 11 10  1  6
 11 12  1  0
 11 34  1  0
 12 13  1  0
 13 14  1  0
 14 15  1  0
 14 33  1  0
 15 16  2  0
 15 17  1  0
 18 17  1  1
 18 19  1  0
 18 26  1  0
 19 20  1  6
 19 26  1  0
 20 21  2  0
 20 25  1  0
 21 22  1  0
 22 23  2  0
 23 24  1  0
 24 25  2  0
 26 27  1  6
 27 28  2  0
 27 32  1  0
 28 29  1  0
 29 30  2  0
 30 31  1  0
 31 32  2  0
 33 34  1  0
 35 36  2  0
M  END
