
     RDKit          3D

 43 47  0  0  0  0  0  0  0  0999 V2000
   -6.1780   -2.4180    3.0490 C   0  0  0  0  0  0  0  0  0  0  0  0
   -5.0630   -1.6280    2.4290 C   0  0  0  0  0  0  0  0  0  0  0  0
   -4.2320   -2.4890    1.5340 C   0  0  1  0  0  0  0  0  0  0  0  0
   -4.9030   -3.1260    0.3920 C   0  0  0  0  0  0  0  0  0  0  0  0
   -5.8880   -2.3280   -0.3950 C   0  0  1  0  0  0  0  0  0  0  0  0
   -7.3250   -2.4900    0.0530 C   0  0  0  0  0  0  0  0  0  0  0  0
   -5.5130   -0.9100   -0.5510 C   0  0  0  0  0  0  0  0  0  0  0  0
   -6.5780   -0.1670   -1.0010 C   0  0  0  0  0  0  0  0  0  0  0  0
   -6.3990    1.2070   -1.2020 C   0  0  0  0  0  0  0  0  0  0  0  0
   -7.7490    2.1960   -1.7810 S   0  0  0  0  0  0  0  0  0  0  0  0
   -8.7280    1.2740   -2.4870 O   0  0  0  0  0  0  0  0  0  0  0  0
   -5.1890    1.8340   -0.9620 C   0  0  0  0  0  0  0  0  0  0  0  0
   -4.1280    1.0970   -0.5140 C   0  0  0  0  0  0  0  0  0  0  0  0
   -4.2980   -0.2780   -0.3110 C   0  0  0  0  0  0  0  0  0  0  0  0
   -3.0680   -0.8170    0.1480 N   0  0  0  0  0  0  0  0  0  0  0  0
   -1.8990   -0.3760   -0.4910 C   0  0  0  0  0  0  0  0  0  0  0  0
   -1.9380    0.3460   -1.5180 O   0  0  0  0  0  0  0  0  0  0  0  0
   -0.5320   -0.7530    0.0340 C   0  0  2  0  0  0  0  0  0  0  0  0
   -0.2830   -0.2320    1.4090 C   0  0  0  0  0  0  0  0  0  0  0  0
    0.4800   -0.0940   -0.8620 N   0  0  0  0  0  0  0  0  0  0  0  0
    1.3450   -0.9330   -1.6230 C   0  0  0  0  0  0  0  0  0  0  0  0
    2.6240   -1.3300   -0.9800 C   0  0  0  0  0  0  0  0  0  0  0  0
    3.4930   -0.3230   -0.6020 O   0  0  0  0  0  0  0  0  0  0  0  0
    4.7170   -0.5470    0.0030 C   0  0  0  0  0  0  0  0  0  0  0  0
    5.1760   -1.8300    0.2830 C   0  0  0  0  0  0  0  0  0  0  0  0
    6.4010   -2.0130    0.8870 C   0  0  0  0  0  0  0  0  0  0  0  0
    7.2230   -0.9440    1.2390 C   0  0  0  0  0  0  0  0  0  0  0  0
    6.7720    0.3200    0.9650 C   0  0  0  0  0  0  0  0  0  0  0  0
    5.5340    0.5010    0.3550 C   0  0  0  0  0  0  0  0  0  0  0  0
    7.5790    1.5210    1.3050 C   0  0  0  0  0  0  0  0  0  0  0  0
    8.6930    1.1810    2.2370 C   0  0  0  0  0  0  0  0  0  0  0  0
    9.4480   -0.0630    1.7510 C   0  0  0  0  0  0  0  0  0  0  0  0
    8.4830   -1.1500    1.8600 N   0  0  0  0  0  0  0  0  0  0  0  0
    0.4590    1.2750   -0.8480 C   0  0  0  0  0  0  0  0  0  0  0  0
   -0.4410    1.7880   -0.0370 O   0  0  0  0  0  0  0  0  0  0  0  0
    1.2110    2.2980   -1.5310 C   0  0  0  0  0  0  0  0  0  0  0  0
    2.2200    2.0270   -2.4100 C   0  0  0  0  0  0  0  0  0  0  0  0
    2.9160    3.0640   -3.0530 C   0  0  0  0  0  0  0  0  0  0  0  0
    2.6260    4.3880   -2.8380 C   0  0  0  0  0  0  0  0  0  0  0  0
    3.3380    5.4290   -3.4950 N   0  0  0  0  0  0  0  0  0  0  0  0
    1.6060    4.6390   -1.9490 C   0  0  0  0  0  0  0  0  0  0  0  0
    0.9130    3.6540   -1.3100 C   0  0  0  0  0  0  0  0  0  0  0  0
   -2.8920   -1.8170    1.1940 C   0  0  0  0  0  0  0  0  0  0  0  0
  1  2  1  0
  3  2  1  6
  3  4  1  0
  3 43  1  0
  4  5  1  0
  5  6  1  1
  5  7  1  0
  7  8  2  0
  7 14  1  0
  8  9  1  0
  9 10  1  0
  9 12  2  0
 10 11  2  0
 12 13  1  0
 13 14  2  0
 14 15  1  0
 15 16  1  0
 15 43  1  0
 16 17  2  0
 16 18  1  0
 18 19  1  1
 18 20  1  0
 20 21  1  0
 20 34  1  0
 21 22  1  0
 22 23  1  0
 23 24  1  0
 24 25  2  0
 24 29  1  0
 25 26  1  0
 26 27  2  0
 27 28  1  0
 27 33  1  0
 28 29  2  0
 28 30  1  0
 30 31  1  0
 31 32  1  0
 32 33  1  0
 34 35  2  0
 34 36  1  0
 36 37  2  0
 36 42  1  0
 37 38  1  0
 38 39  2  0
 39 40  1  0
 39 41  1  0
 41 42  2  0
M  END
