
     RDKit          3D

 43 48  0  0  0  0  0  0  0  0999 V2000
    4.1250   -5.7170    1.0010 C   0  0  0  0  0  0  0  0  0  0  0  0
    3.6720   -4.4030    1.2400 O   0  0  0  0  0  0  0  0  0  0  0  0
    3.1020   -3.6780    0.1970 C   0  0  0  0  0  0  0  0  0  0  0  0
    2.9770   -4.2230   -1.0510 C   0  0  0  0  0  0  0  0  0  0  0  0
    2.4050   -3.4780   -2.0700 C   0  0  0  0  0  0  0  0  0  0  0  0
    2.2940   -4.0600   -3.3210 O   0  0  0  0  0  0  0  0  0  0  0  0
    2.7380   -5.3690   -3.5850 C   0  0  0  0  0  0  0  0  0  0  0  0
    1.9690   -2.1950   -1.8150 C   0  0  0  0  0  0  0  0  0  0  0  0
    2.0820   -1.6160   -0.5630 C   0  0  0  0  0  0  0  0  0  0  0  0
    1.6340   -0.2630   -0.2520 C   0  0  2  0  0  0  0  0  0  0  0  0
    0.3250    0.0670   -0.7800 N   0  0  0  0  0  0  0  0  0  0  0  0
   -0.7600    0.4790    0.0410 C   0  0  0  0  0  0  0  0  0  0  0  0
   -0.5210    0.5470    1.2930 O   0  0  0  0  0  0  0  0  0  0  0  0
   -2.0410    0.8020   -0.4560 N   0  0  0  0  0  0  0  0  0  0  0  0
   -3.1240    1.2180    0.3900 C   0  0  0  0  0  0  0  0  0  0  0  0
   -3.4960    0.1460    1.3700 C   0  0  1  0  0  0  0  0  0  0  0  0
   -4.6370    0.6480    2.2740 C   0  0  0  0  0  0  0  0  0  0  0  0
   -5.8160    0.8240    1.4600 N   0  0  0  0  0  0  0  0  0  0  0  0
   -6.4760    2.1100    1.5360 C   0  0  0  0  0  0  0  0  0  0  0  0
   -7.5430    2.3770    0.8160 C   0  0  0  0  0  0  0  0  0  0  0  0
   -8.2190    3.6990    0.8950 C   0  0  0  0  0  0  0  0  0  0  0  0
   -8.0940    1.3530   -0.0840 C   0  0  0  0  0  0  0  0  0  0  0  0
   -6.9600    0.5150   -0.6310 C   0  0  0  0  0  0  0  0  0  0  0  0
   -6.3460   -0.1780    0.5810 C   0  0  1  0  0  0  0  0  0  0  0  0
   -5.3250   -1.1710    0.2170 C   0  0  0  0  0  0  0  0  0  0  0  0
   -5.6860   -2.3080   -0.5090 C   0  0  0  0  0  0  0  0  0  0  0  0
   -4.7410   -3.2440   -0.8230 C   0  0  0  0  0  0  0  0  0  0  0  0
   -3.4370   -3.1270   -0.4600 C   0  0  0  0  0  0  0  0  0  0  0  0
   -3.0840   -1.9880    0.2640 C   0  0  0  0  0  0  0  0  0  0  0  0
   -4.0180   -1.0250    0.5960 C   0  0  0  0  0  0  0  0  0  0  0  0
    2.6030    0.7860   -0.7980 C   0  0  0  0  0  0  0  0  0  0  0  0
    2.5070    1.0950   -2.1470 C   0  0  0  0  0  0  0  0  0  0  0  0
    3.7880    2.3640   -2.4550 S   0  0  0  0  0  0  0  0  0  0  0  0
    4.3330    2.3420   -0.6810 C   0  0  0  0  0  0  0  0  0  0  0  0
    5.4080    3.1940   -0.2150 C   0  0  0  0  0  0  0  0  0  0  0  0
    5.9990    3.9690   -1.0020 O   0  0  0  0  0  0  0  0  0  0  0  0
    5.7610    3.1150    1.1530 N   0  0  0  0  0  0  0  0  0  0  0  0
    6.8320    3.9370    1.7070 C   0  0  0  0  0  0  0  0  0  0  0  0
    8.1040    3.5820    0.9580 C   0  0  2  0  0  0  0  0  0  0  0  0
    9.3680    4.3260    1.3730 C   0  0  0  0  0  0  0  0  0  0  0  0
    8.7050    4.5800    0.0540 C   0  0  0  0  0  0  0  0  0  0  0  0
    3.5430    1.4470   -0.1070 C   0  0  0  0  0  0  0  0  0  0  0  0
    2.6570   -2.3920    0.4220 C   0  0  0  0  0  0  0  0  0  0  0  0
  1  2  1  0
  2  3  1  0
  3  4  2  0
  3 43  1  0
  4  5  1  0
  5  6  1  0
  5  8  2  0
  6  7  1  0
  8  9  1  0
  9 10  1  0
  9 43  2  0
 10 11  1  6
 10 31  1  0
 11 12  1  0
 12 13  2  0
 12 14  1  0
 14 15  1  0
 16 15  1  6
 16 17  1  0
 16 30  1  0
 17 18  1  0
 18 19  1  0
 18 24  1  0
 19 20  2  0
 20 21  1  0
 20 22  1  0
 22 23  1  0
 24 23  1  6
 24 25  1  0
 25 26  2  0
 25 30  1  0
 26 27  1  0
 27 28  2  0
 28 29  1  0
 29 30  2  0
 31 32  2  0
 31 42  1  0
 32 33  1  0
 33 34  1  0
 34 35  1  0
 34 42  2  0
 35 36  2  0
 35 37  1  0
 37 38  1  0
 39 38  1  1
 39 40  1  0
 39 41  1  0
 40 41  1  0
M  END
