
     RDKit          3D

 43 47  0  0  0  0  0  0  0  0999 V2000
    6.9340   -2.8200    1.7010 C   0  0  0  0  0  0  0  0  0  0  0  0
    7.4090   -1.5210    1.3680 N   0  0  0  0  0  0  0  0  0  0  0  0
    7.0990   -1.1180   -0.0130 C   0  0  1  0  0  0  0  0  0  0  0  0
    7.7060   -2.1530   -0.9430 C   0  0  0  0  0  0  0  0  0  0  0  0
    6.5970   -2.6200   -1.8100 C   0  0  0  0  0  0  0  0  0  0  0  0
    5.3500   -2.3420   -0.9860 C   0  0  0  0  0  0  0  0  0  0  0  0
    4.0800   -2.8000   -1.1480 C   0  0  0  0  0  0  0  0  0  0  0  0
    3.0490   -2.0570   -0.5530 C   0  0  0  0  0  0  0  0  0  0  0  0
    3.3470   -0.9350    0.1680 C   0  0  0  0  0  0  0  0  0  0  0  0
    2.3540   -0.0550    0.6230 N   0  0  0  0  0  0  0  0  0  0  0  0
    0.8510   -0.6790    1.3060 S   0  0  1  0  0  0  0  0  0  0  0  0
    0.9000   -2.0640    1.6840 O   0  0  0  0  0  0  0  0  0  0  0  0
    0.6360    0.2140    2.5470 O   0  0  0  0  0  0  0  0  0  0  0  0
   -0.2690   -0.2110    0.1020 N   0  0  0  0  0  0  0  0  0  0  0  0
   -0.5320   -0.7880   -1.1240 C   0  0  0  0  0  0  0  0  0  0  0  0
   -1.4570   -1.3840   -1.7230 C   0  0  0  0  0  0  0  0  0  0  0  0
   -2.6930   -1.6800   -1.0460 C   0  0  0  0  0  0  0  0  0  0  0  0
   -2.5030   -2.0430    0.3090 C   0  0  0  0  0  0  0  0  0  0  0  0
   -3.5640   -2.3760    1.1050 C   0  0  0  0  0  0  0  0  0  0  0  0
   -4.7800   -2.3230    0.5260 C   0  0  0  0  0  0  0  0  0  0  0  0
   -5.0180   -1.9820   -0.7820 C   0  0  0  0  0  0  0  0  0  0  0  0
   -3.9400   -1.6390   -1.5910 C   0  0  0  0  0  0  0  0  0  0  0  0
   -6.3360   -2.2890   -1.3700 C   0  0  0  0  0  0  0  0  0  0  0  0
   -6.7440   -1.7000   -2.3550 O   0  0  0  0  0  0  0  0  0  0  0  0
   -7.2110   -3.2960   -0.6950 C   0  0  0  0  0  0  0  0  0  0  0  0
   -6.6660   -3.7200    0.6500 C   0  0  2  0  0  0  0  0  0  0  0  0
   -7.6760   -4.3700    1.5320 C   0  0  0  0  0  0  0  0  0  0  0  0
   -5.9970   -2.5540    1.3640 C   0  0  0  0  0  0  0  0  0  0  0  0
   -0.6300    1.2110    0.1140 C   0  0  0  0  0  0  0  0  0  0  0  0
   -1.0050    1.9440    1.1950 C   0  0  0  0  0  0  0  0  0  0  0  0
   -0.9250    3.3260    1.1730 C   0  0  0  0  0  0  0  0  0  0  0  0
   -0.4030    4.0310    0.0560 C   0  0  0  0  0  0  0  0  0  0  0  0
   -0.1840    5.4650    0.1860 C   0  0  2  0  0  0  0  0  0  0  0  0
   -0.1780    5.9730    1.4410 O   0  0  0  0  0  0  0  0  0  0  0  0
   -1.2800    6.0940   -0.6170 C   0  0  0  0  0  0  0  0  0  0  0  0
   -1.5960    7.5540   -0.2310 C   0  0  0  0  0  0  0  0  0  0  0  0
   -0.4500    8.4120   -0.0960 C   0  0  0  0  0  0  0  0  0  0  0  0
    0.4530    9.0930    0.0270 N   0  0  0  0  0  0  0  0  0  0  0  0
   -0.0100    3.2660   -1.0310 C   0  0  0  0  0  0  0  0  0  0  0  0
    0.3930    3.9220   -2.3120 C   0  0  0  0  0  0  0  0  0  0  0  0
   -0.1680    2.0100   -0.9020 C   0  0  0  0  0  0  0  0  0  0  0  0
    4.6360   -0.4960    0.3580 C   0  0  0  0  0  0  0  0  0  0  0  0
    5.6540   -1.2550   -0.2510 C   0  0  0  0  0  0  0  0  0  0  0  0
  1  2  1  0
  3  2  1  1
  3  4  1  0
  3 43  1  0
  4  5  1  0
  5  6  1  0
  6  7  2  0
  6 43  1  0
  7  8  1  0
  8  9  2  0
  9 10  1  0
  9 42  1  0
 11 10  1  6
 11 12  2  0
 11 13  2  0
 11 14  1  0
 14 15  1  0
 14 29  1  0
 15 16  2  3
 16 17  1  0
 17 18  2  0
 17 22  1  0
 18 19  1  0
 19 20  2  0
 20 21  1  0
 20 28  1  0
 21 22  2  0
 21 23  1  0
 23 24  2  0
 23 25  1  0
 25 26  1  0
 26 27  1  1
 26 28  1  0
 29 30  2  0
 29 41  1  0
 30 31  1  0
 31 32  2  0
 32 33  1  0
 32 39  1  0
 33 34  1  1
 33 35  1  0
 35 36  1  0
 36 37  1  0
 37 38  3  0
 39 40  1  0
 39 41  2  0
 42 43  2  0
M  END
