
     RDKit          3D

 43 48  0  0  0  0  0  0  0  0999 V2000
   10.0010   -1.7900    1.3680 C   0  0  0  0  0  0  0  0  0  0  0  0
    8.5330   -1.6140    1.4900 C   0  0  0  0  0  0  0  0  0  0  0  0
    7.6900   -2.0690    2.8270 S   0  0  0  0  0  0  0  0  0  0  0  0
    8.5600   -2.8220    4.2300 C   0  0  0  0  0  0  0  0  0  0  0  0
    5.9570   -1.7490    2.7130 N   0  0  0  0  0  0  0  0  0  0  0  0
    5.5180   -1.2060    1.6310 C   0  0  0  0  0  0  0  0  0  0  0  0
    4.0420   -0.9520    1.5770 C   0  0  0  0  0  0  0  0  0  0  0  0
    3.3760   -1.2930    2.5910 O   0  0  0  0  0  0  0  0  0  0  0  0
    3.4170   -0.3730    0.4830 N   0  0  0  0  0  0  0  0  0  0  0  0
    2.0270   -0.0940    0.3730 C   0  0  0  0  0  0  0  0  0  0  0  0
    1.1550   -0.0570    1.4060 C   0  0  0  0  0  0  0  0  0  0  0  0
   -0.1810    0.2130    1.1920 C   0  0  0  0  0  0  0  0  0  0  0  0
   -0.7300    0.4640   -0.0730 C   0  0  0  0  0  0  0  0  0  0  0  0
   -2.1390    0.7050   -0.1700 C   0  0  1  0  0  0  0  0  0  0  0  0
   -2.4890    1.9460   -0.9900 C   0  0  0  0  0  0  0  0  0  0  0  0
   -3.2810    1.9670   -2.0830 C   0  0  0  0  0  0  0  0  0  0  0  0
   -3.5440    3.1630   -2.7170 C   0  0  0  0  0  0  0  0  0  0  0  0
   -4.3640    3.1680   -3.8440 C   0  0  0  0  0  0  0  0  0  0  0  0
   -4.6250    4.3550   -4.4740 C   0  0  0  0  0  0  0  0  0  0  0  0
   -4.1020    5.5470   -4.0290 C   0  0  0  0  0  0  0  0  0  0  0  0
   -3.2850    5.5830   -2.9150 C   0  0  0  0  0  0  0  0  0  0  0  0
   -3.0230    4.3660   -2.2770 C   0  0  0  0  0  0  0  0  0  0  0  0
   -2.2420    4.3360   -1.1980 N   0  0  0  0  0  0  0  0  0  0  0  0
   -1.9830    3.1680   -0.5760 C   0  0  0  0  0  0  0  0  0  0  0  0
   -1.2340    3.2340    0.4390 O   0  0  0  0  0  0  0  0  0  0  0  0
   -3.1140   -0.2960   -0.1680 N   0  0  0  0  0  0  0  0  0  0  0  0
   -3.1790   -1.3120   -1.2010 C   0  0  0  0  0  0  0  0  0  0  0  0
   -2.4620   -2.5950   -0.8330 C   0  0  2  0  0  0  0  0  0  0  0  0
   -1.1330   -2.3460   -0.5980 O   0  0  0  0  0  0  0  0  0  0  0  0
   -2.6150   -3.6330   -1.9330 C   0  0  2  0  0  0  0  0  0  0  0  0
   -1.8990   -4.9350   -1.5770 C   0  0  0  0  0  0  0  0  0  0  0  0
   -1.4860   -4.0920   -2.7470 C   0  0  0  0  0  0  0  0  0  0  0  0
   -4.0990   -0.4220    0.8430 C   0  0  0  0  0  0  0  0  0  0  0  0
   -5.0050   -1.3740    0.5880 O   0  0  0  0  0  0  0  0  0  0  0  0
   -4.3620    0.2400    2.0960 C   0  0  1  0  0  0  0  0  0  0  0  0
   -3.5490   -0.2780    3.3170 C   0  0  0  0  0  0  0  0  0  0  0  0
   -3.6770    1.1690    2.9530 C   0  0  2  0  0  0  0  0  0  0  0  0
   -4.5440    2.0500    3.8770 C   0  0  0  0  0  0  0  0  0  0  0  0
    0.1390    0.4290   -1.1150 C   0  0  0  0  0  0  0  0  0  0  0  0
   -0.2820    0.7000   -2.4710 C   0  0  0  0  0  0  0  0  0  0  0  0
    1.4850    0.1560   -0.8990 C   0  0  0  0  0  0  0  0  0  0  0  0
    6.3900   -0.8610    0.5340 C   0  0  0  0  0  0  0  0  0  0  0  0
    7.6930   -1.0300    0.4570 C   0  0  0  0  0  0  0  0  0  0  0  0
  1  2  1  0
  2  3  2  0
  2 43  1  0
  3  4  1  0
  3  5  1  0
  5  6  2  0
  6  7  1  0
  6 42  1  0
  7  8  2  0
  7  9  1  0
  9 10  1  0
 10 11  2  0
 10 41  1  0
 11 12  1  0
 12 13  2  0
 13 14  1  0
 13 39  1  0
 14 15  1  0
 14 26  1  6
 15 16  2  0
 15 24  1  0
 16 17  1  0
 17 18  2  0
 17 22  1  0
 18 19  1  0
 19 20  2  0
 20 21  1  0
 21 22  2  0
 22 23  1  0
 23 24  1  0
 24 25  2  0
 26 27  1  0
 26 33  1  0
 27 28  1  0
 28 29  1  6
 28 30  1  0
 30 31  1  1
 30 32  1  0
 31 32  1  0
 33 34  2  0
 35 33  1  6
 35 36  1  0
 35 37  1  0
 36 37  1  0
 37 38  1  1
 39 40  1  0
 39 41  2  0
 42 43  2  0
M  END
