
     RDKit          3D

 43 48  0  0  0  0  0  0  0  0999 V2000
   -7.8450   -0.0010   -3.0390 C   0  0  0  0  0  0  0  0  0  0  0  0
   -7.7350   -1.4880   -2.7910 C   0  0  0  0  0  0  0  0  0  0  0  0
   -6.6240   -1.8120   -1.8190 C   0  0  0  0  0  0  0  0  0  0  0  0
   -6.8720   -1.1490   -0.5190 N   0  0  0  0  0  0  0  0  0  0  0  0
   -5.5720   -1.3660    0.2390 C   0  0  2  0  0  0  0  0  0  0  0  0
   -6.0330   -1.9930    1.5420 C   0  0  0  0  0  0  0  0  0  0  0  0
   -7.2800   -1.3370    2.0410 C   0  0  0  0  0  0  0  0  0  0  0  0
   -7.3880    0.1130    1.7160 C   0  0  0  0  0  0  0  0  0  0  0  0
   -6.1870    0.7290    1.1850 C   0  0  0  0  0  0  0  0  0  0  0  0
   -6.0020    2.0750    1.3690 C   0  0  0  0  0  0  0  0  0  0  0  0
   -7.0620    2.8880    2.0250 C   0  0  0  0  0  0  0  0  0  0  0  0
   -4.8840    2.6850    0.9720 N   0  0  0  0  0  0  0  0  0  0  0  0
   -3.8910    2.0040    0.3800 C   0  0  0  0  0  0  0  0  0  0  0  0
   -4.0030    0.6450    0.1610 C   0  0  0  0  0  0  0  0  0  0  0  0
   -5.1500   -0.0010    0.5530 C   0  0  0  0  0  0  0  0  0  0  0  0
   -2.9290   -0.1280   -0.5560 C   0  0  0  0  0  0  0  0  0  0  0  0
   -2.8510   -1.4870   -0.5600 C   0  0  0  0  0  0  0  0  0  0  0  0
   -1.1770   -1.8150   -1.2510 S   0  0  0  0  0  0  0  0  0  0  0  0
   -0.7560   -0.1260   -1.4610 C   0  0  0  0  0  0  0  0  0  0  0  0
    0.5220    0.4060   -2.0030 C   0  0  0  0  0  0  0  0  0  0  0  0
    1.4060   -0.7640   -2.2540 C   0  0  0  0  0  0  0  0  0  0  0  0
    1.8040   -1.5420   -1.1960 O   0  0  0  0  0  0  0  0  0  0  0  0
    2.5590   -1.2240   -0.0880 C   0  0  0  0  0  0  0  0  0  0  0  0
    3.9700   -1.3200   -0.1490 C   0  0  0  0  0  0  0  0  0  0  0  0
    4.4970   -1.8020   -1.4360 C   0  0  0  0  0  0  0  0  0  0  0  0
    4.7610   -1.0330    0.8740 N   0  0  0  0  0  0  0  0  0  0  0  0
    6.1710   -1.0640    0.9270 C   0  0  0  0  0  0  0  0  0  0  0  0
    6.9360    0.1790    0.6880 C   0  0  2  0  0  0  0  0  0  0  0  0
    6.5780    1.1620    1.6480 O   0  0  0  0  0  0  0  0  0  0  0  0
    7.0010    0.7370   -0.6770 C   0  0  0  0  0  0  0  0  0  0  0  0
    8.3890    0.5920   -1.3230 C   0  0  0  0  0  0  0  0  0  0  0  0
    9.4330    1.3270   -0.5470 C   0  0  0  0  0  0  0  0  0  0  0  0
    9.1590    1.1350    0.9300 C   0  0  2  0  0  0  0  0  0  0  0  0
   10.4390    1.1190    1.7370 C   0  0  0  0  0  0  0  0  0  0  0  0
    8.4020   -0.1680    1.0650 C   0  0  0  0  0  0  0  0  0  0  0  0
    4.1150   -0.6310    2.0130 C   0  0  0  0  0  0  0  0  0  0  0  0
    4.7940   -0.3470    3.0150 O   0  0  0  0  0  0  0  0  0  0  0  0
    2.7960   -0.5270    2.1140 N   0  0  0  0  0  0  0  0  0  0  0  0
    1.9640   -0.8190    1.0670 C   0  0  0  0  0  0  0  0  0  0  0  0
    0.7170   -0.6980    1.2370 O   0  0  0  0  0  0  0  0  0  0  0  0
   -1.8830    0.5650   -1.0080 C   0  0  0  0  0  0  0  0  0  0  0  0
   -1.9640    2.0950   -1.1320 C   0  0  0  0  0  0  0  0  0  0  0  0
   -2.6330    2.6960    0.0170 C   0  0  0  0  0  0  0  0  0  0  0  0
  1  2  1  0
  2  3  1  0
  3  4  1  0
  5  4  1  6
  5  6  1  0
  5 15  1  0
  6  7  1  0
  7  8  1  0
  8  9  1  0
  9 10  2  0
  9 15  1  0
 10 11  1  0
 10 12  1  0
 12 13  2  0
 13 14  1  0
 13 43  1  0
 14 15  2  0
 14 16  1  0
 16 17  2  0
 16 41  1  0
 17 18  1  0
 18 19  1  0
 19 20  1  0
 19 41  2  0
 20 21  1  0
 21 22  1  0
 22 23  1  0
 23 24  2  0
 23 39  1  0
 24 25  1  0
 24 26  1  0
 26 27  1  0
 26 36  1  0
 27 28  1  0
 28 29  1  1
 28 30  1  0
 28 35  1  0
 30 31  1  0
 31 32  1  0
 32 33  1  0
 33 34  1  1
 33 35  1  0
 36 37  2  0
 36 38  1  0
 38 39  1  0
 39 40  2  0
 41 42  1  0
 42 43  1  0
M  CHG  1   4   1
M  END
