
     RDKit          3D

 10  9  0  0  0  0  0  0  0  0999 V2000
    2.9070   -0.4080   -1.5620 O   0  0  0  0  0  0  0  0  0  0  0  0
    3.2320    0.1820   -0.3690 C   0  0  0  0  0  0  0  0  0  0  0  0
    2.1170    0.0090    0.6190 C   0  0  0  0  0  0  0  0  0  0  0  0
    0.9130    0.5290    0.3300 O   0  0  0  0  0  0  0  0  0  0  0  0
    0.3100    0.0700   -0.7900 C   0  0  0  0  0  0  0  0  0  0  0  0
   -0.9570    0.6570   -1.0000 O   0  0  0  0  0  0  0  0  0  0  0  0
   -1.8210    0.4030    0.0480 C   0  0  1  0  0  0  0  0  0  0  0  0
   -2.2630    1.5980    0.6110 O   0  0  0  0  0  0  0  0  0  0  0  0
   -3.0190   -0.3690   -0.5190 C   0  0  0  0  0  0  0  0  0  0  0  0
   -3.9110   -0.6460    0.4990 O   0  0  0  0  0  0  0  0  0  0  0  0
  1  2  1  0
  2  3  1  0
  3  4  1  0
  4  5  1  0
  5  6  1  0
  6  7  1  0
  7  8  1  6
  7  9  1  0
  9 10  1  0
M  END
