
     RDKit          3D

 10  9  0  0  0  0  0  0  0  0999 V2000
    2.0870   -1.0900    2.0160 C   0  0  0  0  0  0  0  0  0  0  0  0
    2.3120   -0.0940    0.8920 C   0  0  0  0  0  0  0  0  0  0  0  0
    1.1360    0.2020    0.1950 O   0  0  0  0  0  0  0  0  0  0  0  0
    0.3740   -0.7410   -0.4770 C   0  0  0  0  0  0  0  0  0  0  0  0
    0.7940   -1.9140   -0.4370 O   0  0  0  0  0  0  0  0  0  0  0  0
   -0.8690   -0.4210   -1.2120 C   0  0  1  0  0  0  0  0  0  0  0  0
   -1.3950   -1.5540   -1.7710 O   0  0  0  0  0  0  0  0  0  0  0  0
   -1.7730    0.2770   -0.4170 O   0  0  0  0  0  0  0  0  0  0  0  0
   -2.0120    1.5580   -0.8660 C   0  0  0  0  0  0  0  0  0  0  0  0
   -2.9280    2.1420    0.0130 O   0  0  0  0  0  0  0  0  0  0  0  0
  1  2  1  0
  2  3  1  0
  3  4  1  0
  4  5  2  0
  4  6  1  0
  6  7  1  1
  6  8  1  0
  8  9  1  0
  9 10  1  0
M  END
