
     RDKit          3D

 10  9  0  0  0  0  0  0  0  0999 V2000
    3.7940   -0.0730    0.3270 C   0  0  0  0  0  0  0  0  0  0  0  0
    2.6170   -0.2640   -0.5760 C   0  0  0  0  0  0  0  0  0  0  0  0
    1.4470    0.2350    0.0870 O   0  0  0  0  0  0  0  0  0  0  0  0
    0.2300    0.1670   -0.5520 C   0  0  0  0  0  0  0  0  0  0  0  0
    0.1570   -0.3330   -1.7150 O   0  0  0  0  0  0  0  0  0  0  0  0
   -0.9000    0.6400    0.0680 O   0  0  0  0  0  0  0  0  0  0  0  0
   -2.1690    0.5890   -0.5540 C   0  0  2  0  0  0  0  0  0  0  0  0
   -2.7350    1.8580   -0.6270 O   0  0  0  0  0  0  0  0  0  0  0  0
   -3.0650   -0.2870    0.3120 C   0  0  0  0  0  0  0  0  0  0  0  0
   -2.4890   -1.5550    0.3860 O   0  0  0  0  0  0  0  0  0  0  0  0
  1  2  1  0
  2  3  1  0
  3  4  1  0
  4  5  2  0
  4  6  1  0
  6  7  1  0
  7  8  1  1
  7  9  1  0
  9 10  1  0
M  END
