
     RDKit          3D

 10  9  0  0  0  0  0  0  0  0999 V2000
    0.5340    1.0220    0.2580 O   0  0  0  0  0  0  0  0  0  0  0  0
    0.1750   -0.1660    0.4040 C   0  0  0  0  0  0  0  0  0  0  0  0
   -1.1720   -0.4730    0.3050 O   0  0  0  0  0  0  0  0  0  0  0  0
   -2.0880    0.5710    0.0420 C   0  0  0  0  0  0  0  0  0  0  0  0
   -3.4830   -0.0670   -0.0100 C   0  0  0  0  0  0  0  0  0  0  0  0
   -4.4520    0.9100   -0.2680 O   0  0  0  0  0  0  0  0  0  0  0  0
    1.1570   -1.1080    0.6580 O   0  0  0  0  0  0  0  0  0  0  0  0
    2.5170   -0.8140    0.7600 C   0  0  0  0  0  0  0  0  0  0  0  0
    3.0860   -0.2040   -0.4940 C   0  0  0  0  0  0  0  0  0  0  0  0
    4.4410    0.0510   -0.2900 O   0  0  0  0  0  0  0  0  0  0  0  0
  1  2  2  0
  2  3  1  0
  2  7  1  0
  3  4  1  0
  4  5  1  0
  5  6  1  0
  7  8  1  0
  8  9  1  0
  9 10  1  0
M  END
