
     RDKit          3D

  9  8  0  0  0  0  0  0  0  0999 V2000
    3.0000    0.7640    0.3140 C   0  0  0  0  0  0  0  0  0  0  0  0
    2.0870   -0.2330    0.0920 O   0  0  0  0  0  0  0  0  0  0  0  0
    0.7970    0.1070    0.5020 C   0  0  0  0  0  0  0  0  0  0  0  0
   -0.1710   -0.9740    0.2560 C   0  0  0  0  0  0  0  0  0  0  0  0
    0.0210   -2.1990    0.8550 O   0  0  0  0  0  0  0  0  0  0  0  0
   -1.2190   -0.8150   -0.5190 C   0  0  0  0  0  0  0  0  0  0  0  0
   -2.1420   -1.8350   -0.7580 O   0  0  0  0  0  0  0  0  0  0  0  0
   -1.4960    0.3960   -1.1700 O   0  0  0  0  0  0  0  0  0  0  0  0
   -2.4630    1.2980   -0.6240 C   0  0  0  0  0  0  0  0  0  0  0  0
  1  2  1  0
  2  3  1  0
  3  4  1  0
  4  5  1  0
  4  6  2  3
  6  7  1  0
  6  8  1  0
  8  9  1  0
M  END
