
     RDKit          3D

 12 13  0  0  0  0  0  0  0  0999 V2000
    3.6390    1.3650    0.1530 O   0  0  0  0  0  0  0  0  0  0  0  0
    2.5800    0.6660    0.0980 C   0  0  0  0  0  0  0  0  0  0  0  0
    2.6020   -0.7150    0.1130 C   0  0  0  0  0  0  0  0  0  0  0  0
    1.4630   -1.4770    0.0540 C   0  0  0  0  0  0  0  0  0  0  0  0
    0.2500   -0.8300   -0.0240 C   0  0  0  0  0  0  0  0  0  0  0  0
   -0.9520   -1.5050   -0.0870 C   0  0  0  0  0  0  0  0  0  0  0  0
   -2.1460   -0.8150   -0.1640 C   0  0  0  0  0  0  0  0  0  0  0  0
   -2.1890    0.5650   -0.1810 C   0  0  0  0  0  0  0  0  0  0  0  0
   -3.4000    1.2650   -0.2590 O   0  0  0  0  0  0  0  0  0  0  0  0
   -0.9790    1.2260   -0.1160 C   0  0  0  0  0  0  0  0  0  0  0  0
    0.2410    0.5680   -0.0380 C   0  0  0  0  0  0  0  0  0  0  0  0
    1.3850    1.2620    0.0220 N   0  0  0  0  0  0  0  0  0  0  0  0
  1  2  2  0
  2  3  1  0
  2 12  1  0
  3  4  2  0
  4  5  1  0
  5  6  2  0
  5 11  1  0
  6  7  1  0
  7  8  2  0
  8  9  1  0
  8 10  1  0
 10 11  2  0
 11 12  1  0
M  END
