
     RDKit          3D

 13 14  0  0  0  0  0  0  0  0999 V2000
   -1.7170   -2.0430    0.6900 N   0  0  0  0  0  0  0  0  0  0  0  0
   -1.3670   -0.7350    0.2270 C   0  0  0  0  0  0  0  0  0  0  0  0
   -2.3870    0.1270   -0.1120 C   0  0  0  0  0  0  0  0  0  0  0  0
   -2.0620    1.3870   -0.5590 C   0  0  0  0  0  0  0  0  0  0  0  0
   -3.3720    2.4670   -0.9850 Cl  0  0  0  0  0  0  0  0  0  0  0  0
   -0.7280    1.7570   -0.6560 C   0  0  0  0  0  0  0  0  0  0  0  0
    0.2700    0.8640   -0.3060 C   0  0  0  0  0  0  0  0  0  0  0  0
    1.6510    0.9110   -0.2860 C   0  0  0  0  0  0  0  0  0  0  0  0
    2.1370   -0.2970    0.1640 C   0  0  0  0  0  0  0  0  0  0  0  0
    3.5600   -0.6420    0.3280 C   0  0  0  0  0  0  0  0  0  0  0  0
    3.9060   -1.7710    0.7450 O   0  0  0  0  0  0  0  0  0  0  0  0
    1.0950   -1.0420    0.4050 O   0  0  0  0  0  0  0  0  0  0  0  0
   -0.0270   -0.4070    0.1450 C   0  0  0  0  0  0  0  0  0  0  0  0
  1  2  1  0
  2  3  2  0
  2 13  1  0
  3  4  1  0
  4  5  1  0
  4  6  2  0
  6  7  1  0
  7  8  1  0
  7 13  2  0
  8  9  2  0
  9 10  1  0
  9 12  1  0
 10 11  2  0
 12 13  1  0
M  END
