
     RDKit          3D

 13 14  0  0  0  0  0  0  0  0999 V2000
    4.4620    0.1530    0.5960 O   0  0  0  0  0  0  0  0  0  0  0  0
    3.1100    0.4510    0.3580 C   0  0  0  0  0  0  0  0  0  0  0  0
    2.3590   -0.7100    0.6470 O   0  0  0  0  0  0  0  0  0  0  0  0
    0.9840   -0.7070    0.5010 C   0  0  0  0  0  0  0  0  0  0  0  0
    0.2580   -1.8380    0.7840 C   0  0  0  0  0  0  0  0  0  0  0  0
   -1.1080   -1.7700    0.6170 C   0  0  0  0  0  0  0  0  0  0  0  0
   -1.7790   -0.6580    0.1920 C   0  0  0  0  0  0  0  0  0  0  0  0
   -3.0560   -0.3440   -0.0440 N   0  0  0  0  0  0  0  0  0  0  0  0
   -3.1640    0.9210   -0.4580 C   0  0  0  0  0  0  0  0  0  0  0  0
   -4.6500    1.7310   -0.8740 Cl  0  0  0  0  0  0  0  0  0  0  0  0
   -1.8980    1.4620   -0.4960 C   0  0  0  0  0  0  0  0  0  0  0  0
   -1.0340    0.4750   -0.0900 C   0  0  0  0  0  0  0  0  0  0  0  0
    0.3530    0.4330    0.0710 C   0  0  0  0  0  0  0  0  0  0  0  0
  1  2  1  0
  2  3  1  0
  3  4  1  0
  4  5  2  0
  4 13  1  0
  5  6  1  0
  6  7  2  0
  7  8  1  0
  7 12  1  0
  8  9  1  0
  9 10  1  0
  9 11  2  0
 11 12  1  0
 12 13  2  0
M  END
