
     RDKit          3D

 13 14  0  0  0  0  0  0  0  0999 V2000
   -3.2870    1.7590   -0.0630 O   0  0  0  0  0  0  0  0  0  0  0  0
   -2.1290    0.9640   -0.0280 C   0  0  0  0  0  0  0  0  0  0  0  0
   -0.8690    1.5230   -0.1020 C   0  0  0  0  0  0  0  0  0  0  0  0
    0.2920    0.7830   -0.0710 C   0  0  0  0  0  0  0  0  0  0  0  0
    0.1950   -0.6000    0.0400 C   0  0  0  0  0  0  0  0  0  0  0  0
   -1.0570   -1.1970    0.1160 C   0  0  0  0  0  0  0  0  0  0  0  0
   -2.1920   -0.4180    0.0820 C   0  0  0  0  0  0  0  0  0  0  0  0
   -3.4580   -0.9960    0.1570 O   0  0  0  0  0  0  0  0  0  0  0  0
    1.3630   -1.4010    0.0750 N   0  0  0  0  0  0  0  0  0  0  0  0
    2.6860   -0.8500    0.0000 C   0  0  0  0  0  0  0  0  0  0  0  0
    2.7340    0.6130   -0.1160 C   0  0  0  0  0  0  0  0  0  0  0  0
    4.3010    1.4510   -0.2190 Cl  0  0  0  0  0  0  0  0  0  0  0  0
    1.6290    1.3170   -0.1450 C   0  0  0  0  0  0  0  0  0  0  0  0
  1  2  1  0
  2  3  2  0
  2  7  1  0
  3  4  1  0
  4  5  2  0
  4 13  1  0
  5  6  1  0
  5  9  1  0
  6  7  2  0
  7  8  1  0
  9 10  1  0
 10 11  1  0
 11 12  1  0
 11 13  2  0
M  END
