
     RDKit          3D

 13 14  0  0  0  0  0  0  0  0999 V2000
    4.1690    0.4960   -0.1270 O   0  0  0  0  0  0  0  0  0  0  0  0
    2.9260    0.3130   -0.1030 C   0  0  0  0  0  0  0  0  0  0  0  0
    2.3850   -0.9720   -0.0840 C   0  0  0  0  0  0  0  0  0  0  0  0
    1.0060   -1.1280   -0.0570 C   0  0  0  0  0  0  0  0  0  0  0  0
    0.3640   -2.7420   -0.0350 Cl  0  0  0  0  0  0  0  0  0  0  0  0
    0.2110   -0.0010   -0.0490 C   0  0  0  0  0  0  0  0  0  0  0  0
   -1.2310   -0.1400   -0.0210 C   0  0  0  0  0  0  0  0  0  0  0  0
   -2.1220    0.5510    0.7630 C   0  0  0  0  0  0  0  0  0  0  0  0
   -3.3970    0.0760    0.4420 C   0  0  0  0  0  0  0  0  0  0  0  0
   -3.2470   -0.8420   -0.4800 O   0  0  0  0  0  0  0  0  0  0  0  0
   -1.9760   -1.0030   -0.7850 C   0  0  0  0  0  0  0  0  0  0  0  0
    0.8080    1.2390   -0.0680 C   0  0  0  0  0  0  0  0  0  0  0  0
    2.1410    1.4060   -0.0940 N   0  0  0  0  0  0  0  0  0  0  0  0
  1  2  2  0
  2  3  1  0
  2 13  1  0
  3  4  2  0
  4  5  1  0
  4  6  1  0
  6  7  1  0
  6 12  2  0
  7  8  1  0
  7 11  2  0
  8  9  2  0
  9 10  1  0
 10 11  1  0
 12 13  1  0
M  END
