
     RDKit          3D

 13 14  0  0  0  0  0  0  0  0999 V2000
   -3.3350   -1.6650    0.7770 O   0  0  0  0  0  0  0  0  0  0  0  0
   -2.5620   -0.7610    0.3800 C   0  0  0  0  0  0  0  0  0  0  0  0
   -1.2280   -0.9530    0.3730 C   0  0  0  0  0  0  0  0  0  0  0  0
   -0.3260    0.0290   -0.0610 C   0  0  0  0  0  0  0  0  0  0  0  0
    1.1020   -0.2310   -0.0480 C   0  0  0  0  0  0  0  0  0  0  0  0
    2.1620    0.5430   -0.4110 C   0  0  0  0  0  0  0  0  0  0  0  0
    3.3570   -0.1770   -0.2060 C   0  0  0  0  0  0  0  0  0  0  0  0
    2.9170   -1.3860    0.2870 C   0  0  0  0  0  0  0  0  0  0  0  0
    1.6210   -1.3890    0.3680 O   0  0  0  0  0  0  0  0  0  0  0  0
   -0.8860    1.2020   -0.4800 C   0  0  0  0  0  0  0  0  0  0  0  0
    0.0490    2.5460   -1.0560 Cl  0  0  0  0  0  0  0  0  0  0  0  0
   -2.2690    1.3880   -0.4670 C   0  0  0  0  0  0  0  0  0  0  0  0
   -3.0840    0.4090   -0.0390 N   0  0  0  0  0  0  0  0  0  0  0  0
  1  2  2  0
  2  3  1  0
  2 13  1  0
  3  4  2  0
  4  5  1  0
  4 10  1  0
  5  6  2  0
  5  9  1  0
  6  7  1  0
  7  8  2  0
  8  9  1  0
 10 11  1  0
 10 12  2  0
 12 13  1  0
M  END
