
     RDKit          3D

 12 13  0  0  0  0  0  0  0  0999 V2000
    3.4640   -1.5200    0.4900 O   0  0  0  0  0  0  0  0  0  0  0  0
    2.3390   -0.7580    0.1790 C   0  0  0  0  0  0  0  0  0  0  0  0
    1.0570   -1.1970    0.3980 C   0  0  0  0  0  0  0  0  0  0  0  0
   -0.0660   -0.4510    0.0940 C   0  0  0  0  0  0  0  0  0  0  0  0
    0.0890    0.8100   -0.4630 C   0  0  0  0  0  0  0  0  0  0  0  0
    1.3690    1.2670   -0.6900 C   0  0  0  0  0  0  0  0  0  0  0  0
    2.4820    0.5030   -0.3780 C   0  0  0  0  0  0  0  0  0  0  0  0
    4.1090    1.1220   -0.6840 Cl  0  0  0  0  0  0  0  0  0  0  0  0
   -1.0480    1.5520   -0.7660 O   0  0  0  0  0  0  0  0  0  0  0  0
   -2.2900    1.3020   -0.1240 C   0  0  0  0  0  0  0  0  0  0  0  0
   -2.5720   -0.1570    0.0550 C   0  0  0  0  0  0  0  0  0  0  0  0
   -1.3840   -0.9300    0.3320 N   0  0  0  0  0  0  0  0  0  0  0  0
  1  2  1  0
  2  3  2  0
  2  7  1  0
  3  4  1  0
  4  5  2  0
  4 12  1  0
  5  6  1  0
  5  9  1  0
  6  7  2  0
  7  8  1  0
  9 10  1  0
 10 11  1  0
 11 12  1  0
M  END
