
     RDKit          3D

 13 14  0  0  0  0  0  0  0  0999 V2000
   -3.6730    0.5360   -0.4530 O   0  0  0  0  0  0  0  0  0  0  0  0
   -2.6030   -0.1130   -0.3200 C   0  0  0  0  0  0  0  0  0  0  0  0
   -2.6750   -1.4970   -0.3130 O   0  0  0  0  0  0  0  0  0  0  0  0
   -1.3200    0.5500   -0.1770 C   0  0  0  0  0  0  0  0  0  0  0  0
   -1.1470    1.9190   -0.1720 C   0  0  0  0  0  0  0  0  0  0  0  0
    0.1750    2.1120   -0.0190 N   0  0  0  0  0  0  0  0  0  0  0  0
    0.8290    0.9410    0.0710 C   0  0  0  0  0  0  0  0  0  0  0  0
    2.1580    0.5760    0.2310 C   0  0  0  0  0  0  0  0  0  0  0  0
    2.5600   -0.7470    0.2940 C   0  0  0  0  0  0  0  0  0  0  0  0
    4.2660   -1.1720    0.4990 Cl  0  0  0  0  0  0  0  0  0  0  0  0
    1.6210   -1.7500    0.1950 C   0  0  0  0  0  0  0  0  0  0  0  0
    0.3090   -1.3980    0.0370 C   0  0  0  0  0  0  0  0  0  0  0  0
   -0.1000   -0.0730   -0.0260 C   0  0  0  0  0  0  0  0  0  0  0  0
  1  2  2  0
  2  3  1  0
  2  4  1  0
  4  5  2  0
  4 13  1  0
  5  6  1  0
  6  7  1  0
  7  8  2  0
  7 13  1  0
  8  9  1  0
  9 10  1  0
  9 11  2  0
 11 12  1  0
 12 13  2  0
M  END
