
     RDKit          3D

 13 14  0  0  0  0  0  0  0  0999 V2000
   -3.1360   -0.6910   -0.7810 N   0  0  0  0  0  0  0  0  0  0  0  0
   -1.8530   -0.2200   -0.4100 C   0  0  0  0  0  0  0  0  0  0  0  0
   -0.7270   -1.0180   -0.4260 C   0  0  0  0  0  0  0  0  0  0  0  0
    0.4810   -0.4780   -0.0500 C   0  0  0  0  0  0  0  0  0  0  0  0
    1.6480   -1.2380   -0.0480 C   0  0  0  0  0  0  0  0  0  0  0  0
    2.8410   -0.6630    0.3350 C   0  0  0  0  0  0  0  0  0  0  0  0
    2.8980    0.6610    0.7190 C   0  0  0  0  0  0  0  0  0  0  0  0
    4.0000    1.1900    1.0730 O   0  0  0  0  0  0  0  0  0  0  0  0
    1.7810    1.3420    0.7040 O   0  0  0  0  0  0  0  0  0  0  0  0
    0.6230    0.8390    0.3470 C   0  0  0  0  0  0  0  0  0  0  0  0
   -0.5120    1.6500    0.3660 C   0  0  0  0  0  0  0  0  0  0  0  0
   -1.7160    1.1000   -0.0130 C   0  0  0  0  0  0  0  0  0  0  0  0
   -3.1590    2.1200    0.0070 Cl  0  0  0  0  0  0  0  0  0  0  0  0
  1  2  1  0
  2  3  2  0
  2 12  1  0
  3  4  1  0
  4  5  1  0
  4 10  2  0
  5  6  2  0
  6  7  1  0
  7  8  2  0
  7  9  1  0
  9 10  1  0
 10 11  1  0
 11 12  2  0
 12 13  1  0
M  END
