
     RDKit          3D

 47 51  0  0  0  0  0  0  0  0999 V2000
    8.8120    1.4290   -0.9850 C   0  0  0  0  0  0  0  0  0  0  0  0
    7.8250    0.5510   -0.3510 C   0  0  0  0  0  0  0  0  0  0  0  0
    6.5820    0.9140   -0.5500 O   0  0  0  0  0  0  0  0  0  0  0  0
    8.0070   -0.6250    0.4410 C   0  0  0  0  0  0  0  0  0  0  0  0
    9.2230   -1.1450    0.7620 C   0  0  0  0  0  0  0  0  0  0  0  0
   10.4940   -0.5440    0.3300 C   0  0  0  0  0  0  0  0  0  0  0  0
    9.2750   -2.3090    1.5500 C   0  0  0  0  0  0  0  0  0  0  0  0
    8.1490   -2.9280    2.0020 C   0  0  0  0  0  0  0  0  0  0  0  0
    6.9280   -2.4010    1.6770 C   0  0  0  0  0  0  0  0  0  0  0  0
    5.7060   -3.0890    2.1730 C   0  0  0  0  0  0  0  0  0  0  0  0
    6.8610   -1.2690    0.9100 C   0  0  0  0  0  0  0  0  0  0  0  0
    5.5370   -0.7860    0.6090 N   0  0  0  0  0  0  0  0  0  0  0  0
    4.7560   -1.2300   -0.4760 C   0  0  0  0  0  0  0  0  0  0  0  0
    5.2370   -2.1080   -1.2350 O   0  0  0  0  0  0  0  0  0  0  0  0
    3.4230   -0.7270   -0.7660 C   0  0  0  0  0  0  0  0  0  0  0  0
    2.9740    0.5000   -0.3370 C   0  0  0  0  0  0  0  0  0  0  0  0
    1.6870    0.9400   -0.6270 C   0  0  0  0  0  0  0  0  0  0  0  0
    0.8300    0.1610   -1.3500 C   0  0  0  0  0  0  0  0  0  0  0  0
   -0.5290    0.5700   -1.6970 C   0  0  0  0  0  0  0  0  0  0  0  0
   -1.2710   -0.2200   -2.3320 O   0  0  0  0  0  0  0  0  0  0  0  0
   -1.0620    1.7810   -1.3710 O   0  0  0  0  0  0  0  0  0  0  0  0
   -2.2990    2.3230   -1.5890 C   0  0  0  0  0  0  0  0  0  0  0  0
   -3.4830    1.7960   -0.8630 C   0  0  1  0  0  0  0  0  0  0  0  0
   -3.7980    0.3650   -1.0580 C   0  0  0  0  0  0  0  0  0  0  0  0
   -4.5240   -0.0900   -2.1430 C   0  0  0  0  0  0  0  0  0  0  0  0
   -4.8680   -1.4040   -2.3340 C   0  0  0  0  0  0  0  0  0  0  0  0
   -4.4810   -2.3710   -1.3980 C   0  0  0  0  0  0  0  0  0  0  0  0
   -3.7630   -1.9480   -0.3170 C   0  0  0  0  0  0  0  0  0  0  0  0
   -3.4240   -0.6040   -0.1450 C   0  0  0  0  0  0  0  0  0  0  0  0
   -3.4740   -3.1370    0.5120 C   0  0  0  0  0  0  0  0  0  0  0  0
   -2.6170   -3.1540    1.4360 O   0  0  0  0  0  0  0  0  0  0  0  0
   -4.3600   -4.2280    0.0400 C   0  0  2  0  0  0  0  0  0  0  0  0
   -3.5810   -5.5440    0.0050 C   0  0  0  0  0  0  0  0  0  0  0  0
   -4.4490   -6.5820   -0.4510 N   0  0  0  0  0  0  0  0  0  0  0  0
   -4.7150   -3.8460   -1.3580 C   0  0  1  0  0  0  0  0  0  0  0  0
   -6.2190   -4.1110   -1.5130 C   0  0  0  0  0  0  0  0  0  0  0  0
   -3.6010    2.2310    0.5580 C   0  0  1  0  0  0  0  0  0  0  0  0
   -2.4950    1.8510    1.3480 O   0  0  0  0  0  0  0  0  0  0  0  0
   -3.7850    3.6900    0.7180 C   0  0  2  0  0  0  0  0  0  0  0  0
   -3.8840    4.0690    2.2190 C   0  0  0  0  0  0  0  0  0  0  0  0
   -3.6950    5.5800    2.2530 C   0  0  0  0  0  0  0  0  0  0  0  0
   -4.7210    6.3080    1.4240 C   0  0  0  0  0  0  0  0  0  0  0  0
   -4.7580    5.7920    0.0070 C   0  0  2  0  0  0  0  0  0  0  0  0
   -5.7390    6.4190   -0.7190 O   0  0  0  0  0  0  0  0  0  0  0  0
   -5.0310    4.2780    0.1220 C   0  0  0  0  0  0  0  0  0  0  0  0
    1.2770   -1.0650   -1.7790 C   0  0  0  0  0  0  0  0  0  0  0  0
    2.5700   -1.5230   -1.4950 C   0  0  0  0  0  0  0  0  0  0  0  0
  1  2  1  0
  2  3  2  0
  2  4  1  0
  4  5  2  0
  4 11  1  0
  5  6  1  0
  5  7  1  0
  7  8  2  0
  8  9  1  0
  9 10  1  0
  9 11  2  0
 11 12  1  0
 12 13  1  0
 13 14  2  0
 13 15  1  0
 15 16  2  0
 15 47  1  0
 16 17  1  0
 17 18  2  0
 18 19  1  0
 18 46  1  0
 19 20  2  0
 19 21  1  0
 21 22  1  0
 23 22  1  1
 23 24  1  0
 23 37  1  0
 24 25  2  0
 24 29  1  0
 25 26  1  0
 26 27  2  0
 27 28  1  0
 27 35  1  0
 28 29  2  0
 28 30  1  0
 30 31  2  0
 30 32  1  0
 32 33  1  6
 32 35  1  0
 33 34  1  0
 35 36  1  1
 37 38  1  1
 37 39  1  0
 39 40  1  1
 39 45  1  0
 40 41  1  0
 41 42  1  0
 42 43  1  0
 43 44  1  6
 43 45  1  0
 46 47  2  0
M  END
