
     RDKit          3D

 47 51  0  0  0  0  0  0  0  0999 V2000
    9.4960    2.9550   -1.6640 C   0  0  0  0  0  0  0  0  0  0  0  0
    9.0990    2.6270   -0.3970 O   0  0  0  0  0  0  0  0  0  0  0  0
    8.4780    3.6130    0.3260 C   0  0  0  0  0  0  0  0  0  0  0  0
    7.2000    4.1290   -0.3070 C   0  0  0  0  0  0  0  0  0  0  0  0
    6.2760    3.0180   -0.4350 N   0  0  0  0  0  0  0  0  0  0  0  0
    5.7770    2.2610    0.6420 C   0  0  0  0  0  0  0  0  0  0  0  0
    6.1300    2.5400    1.8000 O   0  0  0  0  0  0  0  0  0  0  0  0
    4.8750    1.1710    0.4870 N   0  0  0  0  0  0  0  0  0  0  0  0
    4.3790    0.4180    1.6240 C   0  0  0  0  0  0  0  0  0  0  0  0
    3.4430   -0.6880    1.1960 C   0  0  1  0  0  0  0  0  0  0  0  0
    3.0750   -1.4580    2.4460 C   0  0  0  0  0  0  0  0  0  0  0  0
    2.1980   -0.1230    0.5740 C   0  0  0  0  0  0  0  0  0  0  0  0
    1.7180   -0.8820   -0.6200 C   0  0  2  0  0  0  0  0  0  0  0  0
    0.2500   -0.7530   -0.7290 C   0  0  0  0  0  0  0  0  0  0  0  0
   -0.3510   -0.3070   -1.7370 O   0  0  0  0  0  0  0  0  0  0  0  0
   -0.5330   -1.1620    0.3810 N   0  0  0  0  0  0  0  0  0  0  0  0
   -1.9660   -1.0390    0.2750 C   0  0  0  0  0  0  0  0  0  0  0  0
   -2.8650   -1.9850   -0.1740 C   0  0  0  0  0  0  0  0  0  0  0  0
   -2.4670   -3.3310   -0.6240 C   0  0  0  0  0  0  0  0  0  0  0  0
   -4.1040   -1.4490   -0.1170 N   0  0  0  0  0  0  0  0  0  0  0  0
   -5.3110   -2.1500   -0.5110 C   0  0  0  0  0  0  0  0  0  0  0  0
   -5.9220   -2.9020    0.6550 C   0  0  0  0  0  0  0  0  0  0  0  0
   -5.0130   -3.8470    1.1530 O   0  0  0  0  0  0  0  0  0  0  0  0
   -4.0370   -0.2060    0.3470 N   0  0  0  0  0  0  0  0  0  0  0  0
   -5.1320    0.6840    0.5440 C   0  0  0  0  0  0  0  0  0  0  0  0
   -5.5910    1.0360    1.7870 C   0  0  0  0  0  0  0  0  0  0  0  0
   -6.6540    1.9010    1.9370 C   0  0  0  0  0  0  0  0  0  0  0  0
   -7.2720    2.4270    0.8210 C   0  0  0  0  0  0  0  0  0  0  0  0
   -6.8430    2.1000   -0.4290 C   0  0  0  0  0  0  0  0  0  0  0  0
   -5.7790    1.2330   -0.5580 C   0  0  0  0  0  0  0  0  0  0  0  0
   -7.4470    2.6180   -1.6800 C   0  0  0  0  0  0  0  0  0  0  0  0
   -8.6830    3.4190   -1.4860 C   0  0  0  0  0  0  0  0  0  0  0  0
   -9.3660    3.2180   -0.1690 C   0  0  2  0  0  0  0  0  0  0  0  0
  -10.3980    4.3360   -0.0350 C   0  0  0  0  0  0  0  0  0  0  0  0
   -8.4160    3.3580    1.0000 C   0  0  0  0  0  0  0  0  0  0  0  0
   -2.7440    0.0690    0.5950 C   0  0  0  0  0  0  0  0  0  0  0  0
   -2.2810    1.1390    1.0410 O   0  0  0  0  0  0  0  0  0  0  0  0
    2.0680   -2.3300   -0.6170 C   0  0  0  0  0  0  0  0  0  0  0  0
    3.4910   -2.5800   -0.2790 C   0  0  0  0  0  0  0  0  0  0  0  0
    4.0180   -3.7360   -0.6000 C   0  0  0  0  0  0  0  0  0  0  0  0
    5.4030   -4.0160   -0.2850 C   0  0  0  0  0  0  0  0  0  0  0  0
    5.9400   -3.5950    0.8990 C   0  0  0  0  0  0  0  0  0  0  0  0
    7.2620   -3.8580    1.1960 C   0  0  0  0  0  0  0  0  0  0  0  0
    8.0210   -4.5500    0.2760 C   0  0  0  0  0  0  0  0  0  0  0  0
    7.5170   -4.9870   -0.9220 C   0  0  0  0  0  0  0  0  0  0  0  0
    6.2010   -4.7140   -1.1940 C   0  0  0  0  0  0  0  0  0  0  0  0
    4.1520   -1.5520    0.3580 O   0  0  0  0  0  0  0  0  0  0  0  0
  1  2  1  0
  2  3  1  0
  3  4  1  0
  4  5  1  0
  5  6  1  0
  6  7  2  0
  6  8  1  0
  8  9  1  0
  9 10  1  0
 10 11  1  1
 10 12  1  0
 10 47  1  0
 12 13  1  0
 13 14  1  1
 13 38  1  0
 14 15  2  0
 14 16  1  0
 16 17  1  0
 17 18  2  0
 17 36  1  0
 18 19  1  0
 18 20  1  0
 20 21  1  0
 20 24  1  0
 21 22  1  0
 22 23  1  0
 24 25  1  0
 24 36  1  0
 25 26  2  0
 25 30  1  0
 26 27  1  0
 27 28  2  0
 28 29  1  0
 28 35  1  0
 29 30  2  0
 29 31  1  0
 31 32  1  0
 32 33  1  0
 33 34  1  1
 33 35  1  0
 36 37  2  0
 38 39  1  0
 39 40  2  3
 39 47  1  0
 40 41  1  0
 41 42  2  0
 41 46  1  0
 42 43  1  0
 43 44  2  0
 44 45  1  0
 45 46  2  0
M  END
