
     RDKit          3D

 47 52  0  0  0  0  0  0  0  0999 V2000
   -0.9290   -2.4180    2.4910 C   0  0  0  0  0  0  0  0  0  0  0  0
   -1.1020   -1.3060    1.5220 C   0  0  1  0  0  0  0  0  0  0  0  0
    0.0310   -0.7060    1.0170 O   0  0  0  0  0  0  0  0  0  0  0  0
    1.1740   -1.2770    0.5420 C   0  0  0  0  0  0  0  0  0  0  0  0
    1.4310   -2.6250    0.4380 C   0  0  0  0  0  0  0  0  0  0  0  0
    2.6440   -3.0800   -0.0650 C   0  0  0  0  0  0  0  0  0  0  0  0
    2.8800   -4.5120   -0.1590 C   0  0  0  0  0  0  0  0  0  0  0  0
    4.0660   -5.0090   -0.7350 N   0  0  0  0  0  0  0  0  0  0  0  0
    2.0230   -5.3050    0.2740 O   0  0  0  0  0  0  0  0  0  0  0  0
    3.5810   -2.1500   -0.4570 C   0  0  0  0  0  0  0  0  0  0  0  0
    3.3610   -0.7900   -0.3680 C   0  0  0  0  0  0  0  0  0  0  0  0
    4.4160    0.1280   -0.8120 C   0  0  0  0  0  0  0  0  0  0  0  0
    5.4360   -0.3400   -1.3640 O   0  0  0  0  0  0  0  0  0  0  0  0
    4.3820    1.5320   -0.6680 N   0  0  0  0  0  0  0  0  0  0  0  0
    5.3850    2.4340   -1.0880 C   0  0  0  0  0  0  0  0  0  0  0  0
    6.7430    2.2710   -0.5000 C   0  0  2  0  0  0  0  0  0  0  0  0
    6.7300    2.4200    1.0080 C   0  0  0  0  0  0  0  0  0  0  0  0
    8.1120    2.5400    1.5810 C   0  0  0  0  0  0  0  0  0  0  0  0
    8.9970    3.4850    0.7950 C   0  0  1  0  0  0  0  0  0  0  0  0
    9.7290    2.6930   -0.2710 C   0  0  0  0  0  0  0  0  0  0  0  0
    8.9610    2.8450   -1.5440 C   0  0  0  0  0  0  0  0  0  0  0  0
    7.6020    3.3800   -1.0780 C   0  0  2  0  0  0  0  0  0  0  0  0
    8.0450    4.3600   -0.0200 C   0  0  0  0  0  0  0  0  0  0  0  0
    2.1680   -0.3690    0.1270 C   0  0  0  0  0  0  0  0  0  0  0  0
   -1.9580   -1.7510    0.2810 C   0  0  2  0  0  0  0  0  0  0  0  0
   -2.0180   -0.5490   -0.5430 C   0  0  0  0  0  0  0  0  0  0  0  0
   -2.7150   -0.4370   -1.8110 C   0  0  0  0  0  0  0  0  0  0  0  0
   -4.1950   -0.4820   -1.7870 C   0  0  0  0  0  0  0  0  0  0  0  0
   -4.7820    0.6590   -1.0190 C   0  0  0  0  0  0  0  0  0  0  0  0
   -5.1130    0.6220    0.3020 C   0  0  0  0  0  0  0  0  0  0  0  0
   -5.6380    1.7280    0.9520 C   0  0  0  0  0  0  0  0  0  0  0  0
   -5.8240    2.8770    0.2400 C   0  0  0  0  0  0  0  0  0  0  0  0
   -5.5080    2.9660   -1.0930 C   0  0  0  0  0  0  0  0  0  0  0  0
   -4.9860    1.8440   -1.7080 C   0  0  0  0  0  0  0  0  0  0  0  0
   -5.7010    4.1450   -1.8170 O   0  0  0  0  0  0  0  0  0  0  0  0
   -6.2040    5.3250   -1.1970 C   0  0  0  0  0  0  0  0  0  0  0  0
   -5.7980    5.3400    0.2690 C   0  0  0  0  0  0  0  0  0  0  0  0
   -6.3890    4.1020    0.9020 C   0  0  1  0  0  0  0  0  0  0  0  0
   -7.7710    4.1330    0.8210 O   0  0  0  0  0  0  0  0  0  0  0  0
   -3.1230   -2.4600    0.7600 C   0  0  0  0  0  0  0  0  0  0  0  0
   -3.5400   -2.2520    1.9490 O   0  0  0  0  0  0  0  0  0  0  0  0
   -3.8110   -3.3530    0.0110 O   0  0  0  0  0  0  0  0  0  0  0  0
   -4.9470   -4.0890    0.3880 C   0  0  1  0  0  0  0  0  0  0  0  0
   -6.1030   -3.9700   -0.5410 C   0  0  0  0  0  0  0  0  0  0  0  0
   -6.9750   -5.1590   -0.1140 C   0  0  0  0  0  0  0  0  0  0  0  0
   -5.9100   -6.2630   -0.1430 C   0  0  0  0  0  0  0  0  0  0  0  0
   -4.6420   -5.5920    0.3430 C   0  0  0  0  0  0  0  0  0  0  0  0
  2  1  1  6
  2  3  1  0
  2 25  1  0
  3  4  1  0
  4  5  2  0
  4 24  1  0
  5  6  1  0
  6  7  1  0
  6 10  2  0
  7  8  1  0
  7  9  2  0
 10 11  1  0
 11 12  1  0
 11 24  2  0
 12 13  2  0
 12 14  1  0
 14 15  1  0
 16 15  1  6
 16 17  1  0
 16 22  1  0
 17 18  1  0
 19 18  1  1
 19 20  1  0
 19 23  1  0
 20 21  1  0
 22 21  1  1
 22 23  1  0
 25 26  1  1
 25 40  1  0
 26 27  1  0
 27 28  1  0
 28 29  1  0
 29 30  2  0
 29 34  1  0
 30 31  1  0
 31 32  2  0
 32 33  1  0
 32 38  1  0
 33 34  2  0
 33 35  1  0
 35 36  1  0
 36 37  1  0
 37 38  1  0
 38 39  1  6
 40 41  2  0
 40 42  1  0
 43 42  1  6
 43 44  1  0
 43 47  1  0
 44 45  1  0
 45 46  1  0
 46 47  1  0
M  END
