
     RDKit          3D

 47 51  0  0  0  0  0  0  0  0999 V2000
   -8.8970   -1.9940    1.6490 C   0  0  0  0  0  0  0  0  0  0  0  0
   -8.6520   -2.8050    0.6630 C   0  0  0  0  0  0  0  0  0  0  0  0
   -7.2860   -3.1940    0.3110 C   0  0  0  0  0  0  0  0  0  0  0  0
   -7.1820   -4.0790   -0.6940 C   0  0  0  0  0  0  0  0  0  0  0  0
   -8.3860   -4.5970   -1.3750 C   0  0  0  0  0  0  0  0  0  0  0  0
   -6.1540   -2.7100    1.1020 C   0  0  0  0  0  0  0  0  0  0  0  0
   -5.8120   -1.4630    1.1250 O   0  0  0  0  0  0  0  0  0  0  0  0
   -5.6480   -0.1640    1.1970 C   0  0  0  0  0  0  0  0  0  0  0  0
   -6.6350    0.7500    1.5170 C   0  0  0  0  0  0  0  0  0  0  0  0
   -6.4020    2.1270    1.5860 C   0  0  0  0  0  0  0  0  0  0  0  0
   -7.5080    3.0510    1.9590 C   0  0  0  0  0  0  0  0  0  0  0  0
   -8.2550    3.5960    0.7970 C   0  0  0  0  0  0  0  0  0  0  0  0
   -7.3650    4.4370   -0.1060 C   0  0  0  0  0  0  0  0  0  0  0  0
   -8.1950    4.8910   -1.1340 O   0  0  0  0  0  0  0  0  0  0  0  0
   -5.1450    2.5510    1.3170 C   0  0  0  0  0  0  0  0  0  0  0  0
   -4.1130    1.6590    0.9850 C   0  0  0  0  0  0  0  0  0  0  0  0
   -4.3300    0.3240    0.9190 C   0  0  0  0  0  0  0  0  0  0  0  0
   -3.3110   -0.6470    0.6390 N   0  0  0  0  0  0  0  0  0  0  0  0
   -2.0770   -0.1160    0.1070 C   0  0  2  0  0  0  0  0  0  0  0  0
   -2.3350    0.3500   -1.2760 N   0  0  0  0  0  0  0  0  0  0  0  0
   -1.2390    1.0450   -1.8470 C   0  0  0  0  0  0  0  0  0  0  0  0
   -1.4030    1.9510   -2.6950 O   0  0  0  0  0  0  0  0  0  0  0  0
    0.1220    0.6750   -1.4230 C   0  0  0  0  0  0  0  0  0  0  0  0
    1.2130    1.3410   -1.8500 C   0  0  0  0  0  0  0  0  0  0  0  0
    2.5300    1.0680   -1.4030 C   0  0  0  0  0  0  0  0  0  0  0  0
    3.5540    1.7660   -1.8460 O   0  0  0  0  0  0  0  0  0  0  0  0
    4.4510    2.4970   -2.3520 C   0  0  0  0  0  0  0  0  0  0  0  0
    5.8480    2.2280   -1.7570 C   0  0  0  0  0  0  0  0  0  0  0  0
    2.6550    0.0360   -0.4660 C   0  0  0  0  0  0  0  0  0  0  0  0
    3.8880   -0.2770   -0.0100 O   0  0  0  0  0  0  0  0  0  0  0  0
    4.2420   -1.2520    0.8990 C   0  0  0  0  0  0  0  0  0  0  0  0
    5.7560   -1.1380    1.0010 C   0  0  0  0  0  0  0  0  0  0  0  0
    6.2830   -0.1240    1.7130 C   0  0  0  0  0  0  0  0  0  0  0  0
    7.6690    0.0090    1.7640 C   0  0  0  0  0  0  0  0  0  0  0  0
    8.4220   -0.9020    1.0830 C   0  0  0  0  0  0  0  0  0  0  0  0
    9.9070   -0.7630    1.1020 C   0  0  1  0  0  0  0  0  0  0  0  0
   10.5740   -1.9390    0.5350 C   0  0  0  0  0  0  0  0  0  0  0  0
   11.5280   -1.5390   -0.3170 C   0  0  0  0  0  0  0  0  0  0  0  0
   11.5970   -0.0780   -0.3970 C   0  0  1  0  0  0  0  0  0  0  0  0
   11.8360    0.4020   -1.6880 O   0  0  0  0  0  0  0  0  0  0  0  0
   10.2180    0.3370    0.0590 C   0  0  0  0  0  0  0  0  0  0  0  0
    7.8970   -1.9540    0.3470 C   0  0  0  0  0  0  0  0  0  0  0  0
    6.5080   -2.0580    0.3180 C   0  0  0  0  0  0  0  0  0  0  0  0
    1.5140   -0.6260   -0.0470 C   0  0  0  0  0  0  0  0  0  0  0  0
    0.2670   -0.3440   -0.4900 C   0  0  0  0  0  0  0  0  0  0  0  0
   -0.9470   -1.0860   -0.0100 C   0  0  2  0  0  0  0  0  0  0  0  0
   -1.3570   -2.0350   -0.9790 O   0  0  0  0  0  0  0  0  0  0  0  0
  1  2  2  0
  2  3  1  0
  3  4  2  3
  3  6  1  0
  4  5  1  0
  6  7  1  0
  7  8  1  0
  8  9  2  0
  8 17  1  0
  9 10  1  0
 10 11  1  0
 10 15  2  0
 11 12  1  0
 12 13  1  0
 13 14  1  0
 15 16  1  0
 16 17  2  0
 17 18  1  0
 19 18  1  6
 19 20  1  0
 19 46  1  0
 20 21  1  0
 21 22  2  0
 21 23  1  0
 23 24  2  0
 23 45  1  0
 24 25  1  0
 25 26  1  0
 25 29  2  0
 26 27  1  0
 27 28  1  0
 29 30  1  0
 29 44  1  0
 30 31  1  0
 31 32  1  0
 32 33  2  0
 32 43  1  0
 33 34  1  0
 34 35  2  0
 36 35  1  6
 35 42  1  0
 36 37  1  0
 36 41  1  0
 37 38  2  0
 38 39  1  0
 39 40  1  6
 39 41  1  0
 42 43  2  0
 44 45  2  0
 45 46  1  0
 46 47  1  6
M  END
