
     RDKit          3D

 47 51  0  0  0  0  0  0  0  0999 V2000
    5.0730    6.4360    2.5060 C   0  0  0  0  0  0  0  0  0  0  0  0
    4.5540    5.1440    2.8530 O   0  0  0  0  0  0  0  0  0  0  0  0
    4.7060    4.0770    1.9670 C   0  0  0  0  0  0  0  0  0  0  0  0
    5.3000    4.3240    0.9050 O   0  0  0  0  0  0  0  0  0  0  0  0
    4.2240    2.7890    2.2360 N   0  0  0  0  0  0  0  0  0  0  0  0
    4.3410    1.6390    1.3890 C   0  0  0  0  0  0  0  0  0  0  0  0
    5.1550    1.5800    0.2980 C   0  0  0  0  0  0  0  0  0  0  0  0
    5.2070    0.4560   -0.4770 C   0  0  0  0  0  0  0  0  0  0  0  0
    4.4390   -0.7050   -0.2150 C   0  0  0  0  0  0  0  0  0  0  0  0
    4.6210   -2.0470   -1.2700 S   0  0  2  0  0  0  0  0  0  0  0  0
    4.8960   -3.3340   -0.4750 O   0  0  0  0  0  0  0  0  0  0  0  0
    5.9790   -1.8710   -1.9810 O   0  0  0  0  0  0  0  0  0  0  0  0
    3.4870   -2.3180   -2.5400 C   0  0  2  0  0  0  0  0  0  0  0  0
    3.5840   -1.1870   -3.5500 C   0  0  0  0  0  0  0  0  0  0  0  0
    2.0870   -2.6620   -2.2680 C   0  0  0  0  0  0  0  0  0  0  0  0
    3.6240   -0.6180    0.8930 C   0  0  0  0  0  0  0  0  0  0  0  0
    2.7950   -1.7580    1.2680 C   0  0  1  0  0  0  0  0  0  0  0  0
    2.4000   -1.7350    2.7670 C   0  0  0  0  0  0  0  0  0  0  0  0
    1.3550   -2.8710    2.7460 C   0  0  0  0  0  0  0  0  0  0  0  0
    0.9090   -2.9440    1.2910 C   0  0  0  0  0  0  0  0  0  0  0  0
    1.3840   -1.6690    0.7900 N   0  0  0  0  0  0  0  0  0  0  0  0
    0.8530   -0.6000    0.1110 C   0  0  0  0  0  0  0  0  0  0  0  0
    1.6540    0.3920   -0.1400 O   0  0  0  0  0  0  0  0  0  0  0  0
   -0.5150   -0.3570   -0.4090 C   0  0  2  0  0  0  0  0  0  0  0  0
   -0.8780    1.0250   -0.2760 N   0  0  0  0  0  0  0  0  0  0  0  0
   -2.0470    1.5720   -0.8150 C   0  0  0  0  0  0  0  0  0  0  0  0
   -2.8420    0.9680   -1.7710 C   0  0  0  0  0  0  0  0  0  0  0  0
   -3.9880    1.5230   -2.2670 C   0  0  0  0  0  0  0  0  0  0  0  0
   -4.4330    2.7670   -1.8230 C   0  0  0  0  0  0  0  0  0  0  0  0
   -3.6690    3.3980   -0.8730 C   0  0  0  0  0  0  0  0  0  0  0  0
   -2.5220    2.8230   -0.3890 C   0  0  0  0  0  0  0  0  0  0  0  0
   -4.1390    4.7040   -0.3840 C   0  0  0  0  0  0  0  0  0  0  0  0
   -3.4760    5.3100    0.4760 O   0  0  0  0  0  0  0  0  0  0  0  0
   -5.3600    5.2460   -0.9190 N   0  0  0  0  0  0  0  0  0  0  0  0
   -6.3140    4.4090   -1.6040 C   0  0  0  0  0  0  0  0  0  0  0  0
   -5.6860    3.3290   -2.4080 C   0  0  0  0  0  0  0  0  0  0  0  0
   -1.5730   -1.2000    0.1340 C   0  0  0  0  0  0  0  0  0  0  0  0
   -2.1740   -0.9970    1.3450 C   0  0  0  0  0  0  0  0  0  0  0  0
   -3.1680   -1.8280    1.7710 C   0  0  0  0  0  0  0  0  0  0  0  0
   -3.6370   -2.8980    1.0560 C   0  0  0  0  0  0  0  0  0  0  0  0
   -4.6420   -3.7610    1.4560 O   0  0  0  0  0  0  0  0  0  0  0  0
   -5.3390   -3.6460    2.6800 C   0  0  0  0  0  0  0  0  0  0  0  0
   -3.0190   -3.1070   -0.1900 C   0  0  0  0  0  0  0  0  0  0  0  0
   -3.4950   -4.1910   -0.9130 O   0  0  0  0  0  0  0  0  0  0  0  0
   -3.0880   -4.6420   -2.1530 C   0  0  0  0  0  0  0  0  0  0  0  0
   -2.0210   -2.2810   -0.6290 C   0  0  0  0  0  0  0  0  0  0  0  0
    3.5700    0.5150    1.6780 C   0  0  0  0  0  0  0  0  0  0  0  0
  1  2  1  0
  2  3  1  0
  3  4  2  0
  3  5  1  0
  5  6  1  0
  6  7  2  0
  6 47  1  0
  7  8  1  0
  8  9  2  0
 10  9  1  1
  9 16  1  0
 10 11  2  0
 10 12  2  0
 10 13  1  0
 13 14  1  1
 13 15  1  0
 17 16  1  1
 16 47  2  0
 17 18  1  0
 17 21  1  0
 18 19  1  0
 19 20  1  0
 20 21  1  0
 21 22  1  0
 22 23  2  0
 22 24  1  0
 24 25  1  1
 24 37  1  0
 25 26  1  0
 26 27  2  0
 26 31  1  0
 27 28  1  0
 28 29  2  0
 29 30  1  0
 29 36  1  0
 30 31  2  0
 30 32  1  0
 32 33  2  0
 32 34  1  0
 34 35  1  0
 35 36  1  0
 37 38  2  0
 37 46  1  0
 38 39  1  0
 39 40  2  0
 40 41  1  0
 40 43  1  0
 41 42  1  0
 43 44  1  0
 43 46  2  0
 44 45  1  0
M  END
