
     RDKit          3D

 47 52  0  0  0  0  0  0  0  0999 V2000
    7.2780    0.6520    5.8530 C   0  0  0  0  0  0  0  0  0  0  0  0
    7.1050    0.1630    4.7770 C   0  0  0  0  0  0  0  0  0  0  0  0
    7.7950   -1.2820    4.8720 O   0  0  0  0  0  0  0  0  0  0  0  0
    6.6280    0.1790    3.4820 C   0  0  0  0  0  0  0  0  0  0  0  0
    6.5160   -0.4930    2.3950 C   0  0  0  0  0  0  0  0  0  0  0  0
    5.8030    0.2680    1.3160 C   0  0  0  0  0  0  0  0  0  0  0  0
    5.4860   -0.1400    0.1400 C   0  0  0  0  0  0  0  0  0  0  0  0
    4.7910    0.6470   -0.9210 C   0  0  2  0  0  0  0  0  0  0  0  0
    5.8550    1.0380   -1.7960 O   0  0  0  0  0  0  0  0  0  0  0  0
    4.1300    1.8520   -0.4050 C   0  0  1  0  0  0  0  0  0  0  0  0
    2.8000    2.1450   -1.0900 C   0  0  0  0  0  0  0  0  0  0  0  0
    1.7870    1.0730   -0.9490 C   0  0  2  0  0  0  0  0  0  0  0  0
    0.5180    1.4510   -1.6990 C   0  0  0  0  0  0  0  0  0  0  0  0
   -0.5230    0.8450   -0.7800 C   0  0  0  0  0  0  0  0  0  0  0  0
   -1.8240    0.4900   -1.0800 C   0  0  0  0  0  0  0  0  0  0  0  0
   -2.6030   -0.0510   -0.0600 C   0  0  0  0  0  0  0  0  0  0  0  0
   -3.9670   -0.5120   -0.3200 C   0  0  1  0  0  0  0  0  0  0  0  0
   -4.8620    0.2390   -1.1710 C   0  0  0  0  0  0  0  0  0  0  0  0
   -5.2740    1.6440   -0.7910 C   0  0  0  0  0  0  0  0  0  0  0  0
   -4.8590    2.1720    0.2780 C   0  0  0  0  0  0  0  0  0  0  0  0
   -4.9310    3.3520    1.0280 C   0  0  0  0  0  0  0  0  0  0  0  0
   -5.6010    4.5590    0.7840 N   0  0  0  0  0  0  0  0  0  0  0  0
   -4.2570    3.3940    2.1850 O   0  0  0  0  0  0  0  0  0  0  0  0
   -6.2560    2.1920   -1.7530 C   0  0  0  0  0  0  0  0  0  0  0  0
   -6.5740    1.4960   -2.8670 C   0  0  0  0  0  0  0  0  0  0  0  0
   -7.5960    2.2560   -3.6740 C   0  0  0  0  0  0  0  0  0  0  0  0
   -7.8130    3.4490   -2.8650 C   0  0  0  0  0  0  0  0  0  0  0  0
   -7.0250    3.3790   -1.7670 C   0  0  0  0  0  0  0  0  0  0  0  0
   -3.8570   -1.9260   -0.8450 C   0  0  0  0  0  0  0  0  0  0  0  0
   -4.3010   -2.3270   -2.0620 C   0  0  0  0  0  0  0  0  0  0  0  0
   -4.1790   -3.6120   -2.5310 C   0  0  0  0  0  0  0  0  0  0  0  0
   -3.5610   -4.5620   -1.7060 C   0  0  0  0  0  0  0  0  0  0  0  0
   -3.4190   -5.9520   -2.1930 C   0  0  0  0  0  0  0  0  0  0  0  0
   -3.1040   -4.1840   -0.4790 C   0  0  0  0  0  0  0  0  0  0  0  0
   -3.2510   -2.8650   -0.0440 C   0  0  0  0  0  0  0  0  0  0  0  0
   -2.0160   -0.1920    1.1880 C   0  0  0  0  0  0  0  0  0  0  0  0
   -0.7270    0.1590    1.4870 C   0  0  0  0  0  0  0  0  0  0  0  0
    0.0460    0.6940    0.4690 C   0  0  0  0  0  0  0  0  0  0  0  0
    1.3510    1.1360    0.4360 O   0  0  0  0  0  0  0  0  0  0  0  0
    4.0710    1.9470    1.0620 C   0  0  0  0  0  0  0  0  0  0  0  0
    5.3950    1.6170    1.5790 O   0  0  0  0  0  0  0  0  0  0  0  0
    6.8820   -1.8470    2.2040 C   0  0  0  0  0  0  0  0  0  0  0  0
    6.7680   -2.7440    3.1920 O   0  0  0  0  0  0  0  0  0  0  0  0
    7.1440   -3.9190    2.8640 C   0  0  0  0  0  0  0  0  0  0  0  0
    7.5420   -3.8470    1.5850 N   0  0  0  0  0  0  0  0  0  0  0  0
    7.3820   -2.5440    1.1660 C   0  0  0  0  0  0  0  0  0  0  0  0
    7.7170   -2.1330   -0.1060 O   0  0  0  0  0  0  0  0  0  0  0  0
  1  2  2  0
  2  3  1  0
  2  4  1  0
  4  5  2  3
  5  6  1  0
  5 42  1  0
  6  7  2  0
  6 41  1  0
  7  8  1  0
  8  9  1  6
  8 10  1  0
 10 11  1  6
 10 40  1  0
 12 11  1  1
 12 13  1  0
 12 39  1  0
 13 14  1  0
 14 15  2  0
 14 38  1  0
 15 16  1  0
 16 17  1  0
 16 36  2  0
 17 18  1  6
 17 29  1  0
 18 19  1  0
 19 20  2  3
 19 24  1  0
 20 21  1  0
 21 22  1  0
 21 23  2  0
 24 25  2  0
 24 28  1  0
 25 26  1  0
 26 27  1  0
 27 28  2  0
 29 30  2  0
 29 35  1  0
 30 31  1  0
 31 32  2  0
 32 33  1  0
 32 34  1  0
 34 35  2  0
 36 37  1  0
 37 38  2  0
 38 39  1  0
 40 41  1  0
 42 43  1  0
 42 46  2  0
 43 44  1  0
 44 45  2  0
 45 46  1  0
 46 47  1  0
M  END
