
     RDKit          3D

 22 23  0  0  0  0  0  0  0  0999 V2000
    5.0130    2.3990   -1.4700 C   0  0  0  0  0  0  0  0  0  0  0  0
    4.7980    1.4180   -0.3700 C   0  0  0  0  0  0  0  0  0  0  0  0
    5.3980    1.5250    1.2610 S   0  0  0  0  0  0  0  0  0  0  0  0
    4.6620   -0.0680    1.8850 C   0  0  0  0  0  0  0  0  0  0  0  0
    4.0480   -0.4790    0.7560 C   0  0  0  0  0  0  0  0  0  0  0  0
    4.0900    0.2210   -0.3740 C   0  0  0  0  0  0  0  0  0  0  0  0
    3.4180   -0.1990   -1.6780 C   0  0  0  0  0  0  0  0  0  0  0  0
    2.5460   -1.7730   -1.4820 S   0  0  0  0  0  0  0  0  0  0  0  0
    1.1920   -1.5000   -0.3600 C   0  0  0  0  0  0  0  0  0  0  0  0
    0.9910   -0.3710    0.1240 O   0  0  0  0  0  0  0  0  0  0  0  0
    0.2970   -2.5470    0.0240 N   0  0  0  0  0  0  0  0  0  0  0  0
   -0.8070   -2.3460    0.9290 C   0  0  0  0  0  0  0  0  0  0  0  0
   -1.7660   -1.3180    0.3790 C   0  0  0  0  0  0  0  0  0  0  0  0
   -1.4970   -0.8110   -0.7210 O   0  0  0  0  0  0  0  0  0  0  0  0
   -2.8720   -0.9580    1.0430 O   0  0  0  0  0  0  0  0  0  0  0  0
   -3.8700   -0.0710    0.7560 C   0  0  0  0  0  0  0  0  0  0  0  0
   -3.8890    0.6340   -0.3390 C   0  0  0  0  0  0  0  0  0  0  0  0
   -4.9690    1.5930   -0.6510 C   0  0  0  0  0  0  0  0  0  0  0  0
   -5.9310    1.6510    0.3400 O   0  0  0  0  0  0  0  0  0  0  0  0
   -5.9180    0.9160    1.4870 C   0  0  0  0  0  0  0  0  0  0  0  0
   -4.9620    0.0660    1.7620 C   0  0  0  0  0  0  0  0  0  0  0  0
   -4.8840   -0.7020    2.8900 O   0  0  0  0  0  0  0  0  0  0  0  0
  1  2  1  0
  2  3  1  0
  2  6  2  0
  3  4  1  0
  4  5  2  0
  5  6  1  0
  6  7  1  0
  7  8  1  0
  8  9  1  0
  9 10  2  0
  9 11  1  0
 11 12  1  0
 12 13  1  0
 13 14  2  0
 13 15  1  0
 15 16  1  0
 16 17  2  0
 16 21  1  0
 17 18  1  0
 18 19  1  0
 19 20  1  0
 20 21  2  0
 21 22  1  0
M  END
