
     RDKit          3D

 22 23  0  0  0  0  0  0  0  0999 V2000
   -0.5820   -6.3370   -1.6020 C   0  0  0  0  0  0  0  0  0  0  0  0
   -1.1760   -4.9860   -1.3790 C   0  0  0  0  0  0  0  0  0  0  0  0
   -0.2520   -3.6350   -2.0540 S   0  0  1  0  0  0  0  0  0  0  0  0
    1.0830   -3.5330   -1.3520 O   0  0  0  0  0  0  0  0  0  0  0  0
   -0.0490   -3.7190   -3.5210 O   0  0  0  0  0  0  0  0  0  0  0  0
   -1.1210   -2.1620   -1.6200 C   0  0  0  0  0  0  0  0  0  0  0  0
   -0.7340   -1.0780   -0.8720 C   0  0  0  0  0  0  0  0  0  0  0  0
   -1.6300   -0.1010   -0.6570 C   0  0  0  0  0  0  0  0  0  0  0  0
   -1.3630    1.0270    0.2420 N   0  0  0  0  0  0  0  0  0  0  0  0
   -0.0690    1.4960    0.5270 C   0  0  0  0  0  0  0  0  0  0  0  0
    0.9310    1.0190   -0.0000 O   0  0  0  0  0  0  0  0  0  0  0  0
    0.1350    2.6230    1.5350 C   0  0  0  0  0  0  0  0  0  0  0  0
    1.0280    3.2090    1.8920 C   0  0  0  0  0  0  0  0  0  0  0  0
    2.3400    3.8180    2.1870 C   0  0  0  0  0  0  0  0  0  0  0  0
    2.6230    4.8070    3.0060 O   0  0  0  0  0  0  0  0  0  0  0  0
    3.8910    5.0890    3.0330 C   0  0  0  0  0  0  0  0  0  0  0  0
    4.5210    4.2320    2.1700 C   0  0  0  0  0  0  0  0  0  0  0  0
    3.5440    3.4100    1.6170 C   0  0  0  0  0  0  0  0  0  0  0  0
    3.8400    2.4460    0.7150 O   0  0  0  0  0  0  0  0  0  0  0  0
   -2.8900   -0.2060   -1.1860 C   0  0  0  0  0  0  0  0  0  0  0  0
   -4.0390    0.6850   -1.1220 C   0  0  0  0  0  0  0  0  0  0  0  0
   -2.8300   -1.8140   -2.0620 S   0  0  0  0  0  0  0  0  0  0  0  0
  1  2  1  0
  3  2  1  1
  3  4  2  0
  3  5  2  0
  3  6  1  0
  6  7  2  0
  6 22  1  0
  7  8  1  0
  8  9  1  0
  8 20  2  0
  9 10  1  0
 10 11  2  0
 10 12  1  0
 12 13  2  3
 13 14  1  0
 14 15  1  0
 14 18  2  0
 15 16  1  0
 16 17  2  0
 17 18  1  0
 18 19  1  0
 20 21  1  0
 20 22  1  0
M  END
