
     RDKit          3D

 22 23  0  0  0  0  0  0  0  0999 V2000
    6.1490    0.6830   -0.6430 C   0  0  0  0  0  0  0  0  0  0  0  0
    5.3670    1.3120    0.4900 C   0  0  0  0  0  0  0  0  0  0  0  0
    3.9660    0.8340    0.3810 C   0  0  0  0  0  0  0  0  0  0  0  0
    2.6000    1.7760   -0.2410 S   0  0  0  0  0  0  0  0  0  0  0  0
    1.3880    0.4580   -0.0090 C   0  0  0  0  0  0  0  0  0  0  0  0
    0.0420    0.6660   -0.3920 N   0  0  0  0  0  0  0  0  0  0  0  0
   -1.0320   -0.0710    0.0630 C   0  0  0  0  0  0  0  0  0  0  0  0
   -0.8980   -0.9920    0.9070 O   0  0  0  0  0  0  0  0  0  0  0  0
   -2.4240    0.1510   -0.3960 C   0  0  0  0  0  0  0  0  0  0  0  0
   -2.7330    1.0630   -1.2660 C   0  0  0  0  0  0  0  0  0  0  0  0
   -4.0680    1.2210   -1.6560 O   0  0  0  0  0  0  0  0  0  0  0  0
   -3.5180   -0.7130    0.1680 C   0  0  0  0  0  0  0  0  0  0  0  0
   -4.7610   -0.3610   -0.3800 O   0  0  0  0  0  0  0  0  0  0  0  0
   -5.8980   -1.0710    0.0390 C   0  0  0  0  0  0  0  0  0  0  0  0
   -7.1890   -0.6880   -0.5440 C   0  0  0  0  0  0  0  0  0  0  0  0
   -5.7450   -1.9920    0.8880 O   0  0  0  0  0  0  0  0  0  0  0  0
    2.1220   -0.6000    0.5180 C   0  0  0  0  0  0  0  0  0  0  0  0
    3.4220   -0.4310    0.7280 C   0  0  0  0  0  0  0  0  0  0  0  0
    4.1750   -1.5800    1.3790 C   0  0  0  0  0  0  0  0  0  0  0  0
    2.7310   -2.3900    2.2320 S   0  0  0  0  0  0  0  0  0  0  0  0
    1.7010   -2.0420    0.7650 C   0  0  0  0  0  0  0  0  0  0  0  0
    0.9370   -2.7930    0.2010 O   0  0  0  0  0  0  0  0  0  0  0  0
  1  2  1  0
  2  3  1  0
  3  4  1  0
  3 18  2  0
  4  5  1  0
  5  6  1  0
  5 17  2  0
  6  7  1  0
  7  8  2  0
  7  9  1  0
  9 10  2  3
  9 12  1  0
 10 11  1  0
 12 13  1  0
 13 14  1  0
 14 15  1  0
 14 16  2  0
 17 18  1  0
 17 21  1  0
 18 19  1  0
 19 20  1  0
 20 21  1  0
 21 22  2  0
M  END
