
     RDKit          3D

 22 23  0  0  0  0  0  0  0  0999 V2000
    0.2610   -2.1350    2.0450 C   0  0  0  0  0  0  0  0  0  0  0  0
    0.7270   -1.7790    0.6440 C   0  0  1  0  0  0  0  0  0  0  0  0
    1.6830   -3.0210    0.3310 C   0  0  0  0  0  0  0  0  0  0  0  0
   -0.3220   -1.8970   -0.3630 C   0  0  0  0  0  0  0  0  0  0  0  0
   -1.3070   -0.8790   -0.4320 N   0  0  0  0  0  0  0  0  0  0  0  0
   -2.3600   -0.9430   -1.4340 C   0  0  0  0  0  0  0  0  0  0  0  0
   -2.3400   -1.9270   -2.2060 O   0  0  0  0  0  0  0  0  0  0  0  0
   -3.3700    0.0980   -1.5080 C   0  0  0  0  0  0  0  0  0  0  0  0
   -3.4130    1.1910   -0.6690 C   0  0  0  0  0  0  0  0  0  0  0  0
   -4.4980    1.9510   -1.0360 C   0  0  0  0  0  0  0  0  0  0  0  0
   -5.0360    3.4820   -0.2910 S   0  0  0  0  0  0  0  0  0  0  0  0
   -5.0750    1.2800   -2.0960 C   0  0  0  0  0  0  0  0  0  0  0  0
   -4.3730    0.2040   -2.3270 O   0  0  0  0  0  0  0  0  0  0  0  0
    1.5500   -0.7100    0.5600 O   0  0  0  0  0  0  0  0  0  0  0  0
    1.5260    0.5710    0.9400 C   0  0  0  0  0  0  0  0  0  0  0  0
    0.5400    0.9970    1.5580 O   0  0  0  0  0  0  0  0  0  0  0  0
    2.6040    1.5200    0.6690 C   0  0  0  0  0  0  0  0  0  0  0  0
    2.5690    3.2410    1.1810 S   0  0  0  0  0  0  0  0  0  0  0  0
    4.1770    3.6420    0.4870 C   0  0  0  0  0  0  0  0  0  0  0  0
    4.6110    2.4580   -0.0710 C   0  0  0  0  0  0  0  0  0  0  0  0
    3.7790    1.3950    0.0430 C   0  0  0  0  0  0  0  0  0  0  0  0
    4.1430    0.1140   -0.5080 O   0  0  0  0  0  0  0  0  0  0  0  0
  2  1  1  1
  2  3  1  0
  2  4  1  0
  2 14  1  0
  4  5  1  0
  5  6  1  0
  6  7  2  0
  6  8  1  0
  8  9  2  0
  8 13  1  0
  9 10  1  0
 10 11  1  0
 10 12  2  0
 12 13  1  0
 14 15  1  0
 15 16  2  0
 15 17  1  0
 17 18  1  0
 17 21  2  0
 18 19  1  0
 19 20  2  0
 20 21  1  0
 21 22  1  0
M  END
