
     RDKit          3D

 22 23  0  0  0  0  0  0  0  0999 V2000
    6.2330    0.5250    1.0470 C   0  0  0  0  0  0  0  0  0  0  0  0
    5.4450    1.1260   -0.0800 C   0  0  1  0  0  0  0  0  0  0  0  0
    6.1310    0.9460   -1.4220 C   0  0  0  0  0  0  0  0  0  0  0  0
    4.0960    0.5620   -0.0570 C   0  0  0  0  0  0  0  0  0  0  0  0
    3.6200   -0.6920   -0.2140 C   0  0  0  0  0  0  0  0  0  0  0  0
    2.3060   -0.9310   -0.1430 C   0  0  0  0  0  0  0  0  0  0  0  0
    1.4720    0.1380    0.0940 C   0  0  0  0  0  0  0  0  0  0  0  0
    0.0110    0.2170    0.2280 C   0  0  0  0  0  0  0  0  0  0  0  0
   -0.4880    1.3290    0.4440 O   0  0  0  0  0  0  0  0  0  0  0  0
   -0.7960   -0.8860    0.1220 O   0  0  0  0  0  0  0  0  0  0  0  0
   -2.1710   -0.8260    0.2450 C   0  0  0  0  0  0  0  0  0  0  0  0
   -2.8300   -0.9710    1.4460 C   0  0  0  0  0  0  0  0  0  0  0  0
   -4.2010   -0.9080    1.5470 C   0  0  0  0  0  0  0  0  0  0  0  0
   -4.9970   -0.6900    0.4170 C   0  0  0  0  0  0  0  0  0  0  0  0
   -6.4000   -0.6240    0.5610 N   0  0  0  0  0  0  0  0  0  0  0  0
   -7.2830    0.6490   -0.1550 S   0  0  2  0  0  0  0  0  0  0  0  0
   -8.7190    0.1970   -0.3840 O   0  0  0  0  0  0  0  0  0  0  0  0
   -6.6430    1.0820   -1.4190 O   0  0  0  0  0  0  0  0  0  0  0  0
   -4.3440   -0.5450   -0.7830 C   0  0  0  0  0  0  0  0  0  0  0  0
   -2.9500   -0.6110   -0.8700 C   0  0  0  0  0  0  0  0  0  0  0  0
   -2.3460   -0.4550   -2.1250 O   0  0  0  0  0  0  0  0  0  0  0  0
    2.6260    1.4940    0.2120 S   0  0  0  0  0  0  0  0  0  0  0  0
  2  1  1  1
  2  3  1  0
  2  4  1  0
  4  5  2  0
  4 22  1  0
  5  6  1  0
  6  7  2  0
  7  8  1  0
  7 22  1  0
  8  9  2  0
  8 10  1  0
 10 11  1  0
 11 12  2  0
 11 20  1  0
 12 13  1  0
 13 14  2  0
 14 15  1  0
 14 19  1  0
 16 15  1  6
 16 17  2  0
 16 18  2  0
 19 20  2  0
 20 21  1  0
M  END
