
     RDKit          3D

 13 14  0  0  0  0  0  0  0  0999 V2000
   -1.1710    0.4370   -1.7100 N   0  0  0  0  0  0  0  0  0  0  0  0
   -0.9760    0.3180   -0.2880 C   0  0  1  0  0  0  0  0  0  0  0  0
   -1.8030    1.3140    0.4420 C   0  0  0  0  0  0  0  0  0  0  0  0
   -2.5290    2.0930   -0.2200 O   0  0  0  0  0  0  0  0  0  0  0  0
   -1.7770    1.3850    1.8280 O   0  0  0  0  0  0  0  0  0  0  0  0
   -1.3840   -1.0700    0.1520 C   0  0  0  0  0  0  0  0  0  0  0  0
   -0.2340   -1.6740    0.8810 C   0  0  0  0  0  0  0  0  0  0  0  0
    0.9070   -0.6930    0.8400 C   0  0  1  0  0  0  0  0  0  0  0  0
    1.5070   -0.4020   -0.4800 C   0  0  2  0  0  0  0  0  0  0  0  0
    2.8960    0.0890   -0.5030 C   0  0  0  0  0  0  0  0  0  0  0  0
    3.6320   -0.1390   -1.4890 O   0  0  0  0  0  0  0  0  0  0  0  0
    3.3750    0.8020    0.5720 O   0  0  0  0  0  0  0  0  0  0  0  0
    0.4640    0.5030    0.1170 C   0  0  1  0  0  0  0  0  0  0  0  0
  2  1  1  6
  2  3  1  0
  2  6  1  0
 13  2  1  6
  3  4  2  0
  3  5  1  0
  6  7  1  0
  8  7  1  6
  8  9  1  0
  8 13  1  0
  9 10  1  1
  9 13  1  0
 10 11  2  0
 10 12  1  0
M  CHG  1   1   1
M  END
