
     RDKit          3D

 22 23  0  0  0  0  0  0  0  0999 V2000
   -4.4990   -2.4570    0.8690 C   0  0  0  0  0  0  0  0  0  0  0  0
   -3.7480   -1.2070    0.6010 C   0  0  0  0  0  0  0  0  0  0  0  0
   -4.3850   -0.0920    0.2770 C   0  0  0  0  0  0  0  0  0  0  0  0
   -5.7480   -0.1390    0.2010 O   0  0  0  0  0  0  0  0  0  0  0  0
   -6.6750    0.8890    0.1940 C   0  0  0  0  0  0  0  0  0  0  0  0
   -5.9500    2.4200   -0.4460 S   0  0  0  0  0  0  0  0  0  0  0  0
   -4.1990    2.2670   -0.3020 C   0  0  0  0  0  0  0  0  0  0  0  0
   -3.6000    1.1110    0.0240 C   0  0  0  0  0  0  0  0  0  0  0  0
   -2.1780    1.0820    0.1220 N   0  0  0  0  0  0  0  0  0  0  0  0
   -1.3460    0.3430   -0.7280 C   0  0  0  0  0  0  0  0  0  0  0  0
   -1.8490   -0.3450   -1.6530 O   0  0  0  0  0  0  0  0  0  0  0  0
    0.1000    0.3930   -0.5120 C   0  0  0  0  0  0  0  0  0  0  0  0
    0.8190    1.0620    0.4130 C   0  0  0  0  0  0  0  0  0  0  0  0
    2.1560    0.9560    0.4190 C   0  0  0  0  0  0  0  0  0  0  0  0
    2.7270    0.1530   -0.5400 C   0  0  0  0  0  0  0  0  0  0  0  0
    4.1240   -0.1590   -0.7890 C   0  0  0  0  0  0  0  0  0  0  0  0
    4.5120   -0.9070   -1.6970 O   0  0  0  0  0  0  0  0  0  0  0  0
    5.0660    0.4140    0.0380 O   0  0  0  0  0  0  0  0  0  0  0  0
    6.4430    0.2160   -0.0680 C   0  0  0  0  0  0  0  0  0  0  0  0
    6.8450   -1.2360    0.0880 C   0  0  0  0  0  0  0  0  0  0  0  0
    8.2420   -1.2750   -0.0410 O   0  0  0  0  0  0  0  0  0  0  0  0
    1.3330   -0.4420   -1.4420 S   0  0  0  0  0  0  0  0  0  0  0  0
  1  2  1  0
  2  3  2  3
  3  4  1  0
  3  8  1  0
  4  5  1  0
  5  6  1  0
  6  7  1  0
  7  8  2  0
  8  9  1  0
  9 10  1  0
 10 11  2  0
 10 12  1  0
 12 13  2  0
 12 22  1  0
 13 14  1  0
 14 15  2  0
 15 16  1  0
 15 22  1  0
 16 17  2  0
 16 18  1  0
 18 19  1  0
 19 20  1  0
 20 21  1  0
M  END
