
     RDKit          3D

 22 22  0  0  0  0  0  0  0  0999 V2000
    6.3080    1.0920    1.8090 C   0  0  0  0  0  0  0  0  0  0  0  0
    5.4920    1.0510    0.5460 C   0  0  0  0  0  0  0  0  0  0  0  0
    4.5640   -0.1460    0.5720 C   0  0  0  0  0  0  0  0  0  0  0  0
    3.7390   -0.2470   -0.6270 C   0  0  0  0  0  0  0  0  0  0  0  0
    2.3980   -0.2210   -0.6870 C   0  0  0  0  0  0  0  0  0  0  0  0
    1.8840   -0.3370   -1.9670 O   0  0  0  0  0  0  0  0  0  0  0  0
    1.5510   -0.0860    0.4450 C   0  0  0  0  0  0  0  0  0  0  0  0
    0.2430   -0.0550    0.4480 C   0  0  0  0  0  0  0  0  0  0  0  0
   -0.6340   -0.1480   -0.6780 C   0  0  0  0  0  0  0  0  0  0  0  0
   -1.9600   -0.1140   -0.6540 C   0  0  0  0  0  0  0  0  0  0  0  0
   -2.6810    0.0270    0.5740 C   0  0  0  0  0  0  0  0  0  0  0  0
   -3.9640    0.0580    0.7870 C   0  0  0  0  0  0  0  0  0  0  0  0
   -5.2780   -0.0740   -0.4040 S   0  0  0  0  0  0  0  0  0  0  0  0
   -6.5300    0.7270    0.6410 C   0  0  0  0  0  0  0  0  0  0  0  0
   -7.5680    1.2650    0.2260 O   0  0  0  0  0  0  0  0  0  0  0  0
   -6.0080    0.5640    1.9410 N   0  0  0  0  0  0  0  0  0  0  0  0
   -4.6740    0.2150    2.0510 C   0  0  0  0  0  0  0  0  0  0  0  0
   -4.0630    0.0320    3.1680 O   0  0  0  0  0  0  0  0  0  0  0  0
   -2.7690   -0.1860   -2.2380 S   0  0  1  0  0  0  0  0  0  0  0  0
   -3.3250   -1.8360   -2.5110 C   0  0  0  0  0  0  0  0  0  0  0  0
   -3.7850    0.8660   -2.3800 O   0  0  0  0  0  0  0  0  0  0  0  0
   -1.6870    0.0510   -3.3130 O   0  0  0  0  0  0  0  0  0  0  0  0
  1  2  1  0
  2  3  1  0
  3  4  1  0
  4  5  2  3
  5  6  1  0
  5  7  1  0
  7  8  2  3
  8  9  1  0
  9 10  2  3
 10 11  1  0
 10 19  1  0
 11 12  2  3
 12 13  1  0
 12 17  1  0
 13 14  1  0
 14 15  2  0
 14 16  1  0
 16 17  1  0
 17 18  2  0
 19 20  1  6
 19 21  2  0
 19 22  2  0
M  END
