
     RDKit          3D

 22 23  0  0  0  0  0  0  0  0999 V2000
    4.9950   -0.8870    1.8690 C   0  0  0  0  0  0  0  0  0  0  0  0
    4.4550   -1.5820    0.9030 C   0  0  0  0  0  0  0  0  0  0  0  0
    5.4800   -2.2550   -0.3790 S   0  0  0  0  0  0  0  0  0  0  0  0
    7.2220   -1.8490   -0.1330 C   0  0  0  0  0  0  0  0  0  0  0  0
    3.0190   -1.8140    0.8610 C   0  0  0  0  0  0  0  0  0  0  0  0
    2.2970   -1.3250    1.7880 O   0  0  0  0  0  0  0  0  0  0  0  0
    2.4000   -2.5390   -0.1330 O   0  0  0  0  0  0  0  0  0  0  0  0
    1.0040   -2.7180   -0.1050 C   0  0  0  0  0  0  0  0  0  0  0  0
    0.3300   -1.4190   -0.1800 C   0  0  0  0  0  0  0  0  0  0  0  0
    1.0110   -0.3710   -0.2740 O   0  0  0  0  0  0  0  0  0  0  0  0
   -1.0910   -1.2630   -0.1520 N   0  0  0  0  0  0  0  0  0  0  0  0
   -1.6730    0.0560   -0.2310 C   0  0  0  0  0  0  0  0  0  0  0  0
   -0.7700    1.5580   -0.3630 S   0  0  0  0  0  0  0  0  0  0  0  0
   -2.1430    2.6210   -0.4020 C   0  0  0  0  0  0  0  0  0  0  0  0
   -2.0910    4.0990   -0.5090 C   0  0  0  0  0  0  0  0  0  0  0  0
   -3.2260    1.7680   -0.3110 C   0  0  0  0  0  0  0  0  0  0  0  0
   -2.9670    0.4650   -0.2250 C   0  0  0  0  0  0  0  0  0  0  0  0
   -4.1230   -0.4770   -0.1630 C   0  0  0  0  0  0  0  0  0  0  0  0
   -3.9470   -1.7370   -0.0750 O   0  0  0  0  0  0  0  0  0  0  0  0
   -5.4070    0.0380   -0.2020 O   0  0  0  0  0  0  0  0  0  0  0  0
   -5.5310    1.2440   -0.9640 C   0  0  0  0  0  0  0  0  0  0  0  0
   -4.6380    2.2330   -0.2690 C   0  0  0  0  0  0  0  0  0  0  0  0
  1  2  2  0
  2  3  1  0
  2  5  1  0
  3  4  1  0
  5  6  2  0
  5  7  1  0
  7  8  1  0
  8  9  1  0
  9 10  2  0
  9 11  1  0
 11 12  1  0
 12 13  1  0
 12 17  2  0
 13 14  1  0
 14 15  1  0
 14 16  2  0
 16 17  1  0
 16 22  1  0
 17 18  1  0
 18 19  2  0
 18 20  1  0
 20 21  1  0
 21 22  1  0
M  END
