
     RDKit          3D

 22 23  0  0  0  0  0  0  0  0999 V2000
   -4.9460   -2.4510    0.8830 C   0  0  0  0  0  0  0  0  0  0  0  0
   -4.6130   -1.3420   -0.0110 C   0  0  0  0  0  0  0  0  0  0  0  0
   -5.0920   -1.2960   -1.6930 S   0  0  0  0  0  0  0  0  0  0  0  0
   -4.3220    0.3420   -2.0650 C   0  0  0  0  0  0  0  0  0  0  0  0
   -3.8020    0.6510   -0.8830 C   0  0  0  0  0  0  0  0  0  0  0  0
   -3.9200   -0.1610    0.1790 C   0  0  0  0  0  0  0  0  0  0  0  0
   -3.3570    0.0790    1.5800 C   0  0  0  0  0  0  0  0  0  0  0  0
   -2.4820    1.6670    1.6170 S   0  0  0  0  0  0  0  0  0  0  0  0
   -1.0710    1.5780    0.5070 C   0  0  0  0  0  0  0  0  0  0  0  0
   -0.8220    0.5560   -0.1490 O   0  0  0  0  0  0  0  0  0  0  0  0
   -0.1710    2.6820    0.3250 N   0  0  0  0  0  0  0  0  0  0  0  0
    0.9400    2.5830   -0.5830 C   0  0  0  0  0  0  0  0  0  0  0  0
    1.8710    1.5100   -0.2430 C   0  0  0  0  0  0  0  0  0  0  0  0
    2.0550    1.0580    0.9210 O   0  0  0  0  0  0  0  0  0  0  0  0
    2.6150    0.9260   -1.2640 O   0  0  0  0  0  0  0  0  0  0  0  0
    3.5160   -0.1020   -0.9650 C   0  0  0  0  0  0  0  0  0  0  0  0
    3.1710   -1.3640   -0.8480 C   0  0  0  0  0  0  0  0  0  0  0  0
    4.0960   -2.4830   -0.5300 C   0  0  0  0  0  0  0  0  0  0  0  0
    5.4190   -2.0600   -0.3720 O   0  0  0  0  0  0  0  0  0  0  0  0
    5.7760   -0.7490   -0.4920 C   0  0  0  0  0  0  0  0  0  0  0  0
    4.9200    0.2310   -0.7730 C   0  0  0  0  0  0  0  0  0  0  0  0
    5.4130    1.5160   -0.8670 O   0  0  0  0  0  0  0  0  0  0  0  0
  1  2  1  0
  2  3  1  0
  2  6  2  0
  3  4  1  0
  4  5  2  0
  5  6  1  0
  6  7  1  0
  7  8  1  0
  8  9  1  0
  9 10  2  0
  9 11  1  0
 11 12  1  0
 12 13  1  0
 13 14  2  0
 13 15  1  0
 15 16  1  0
 16 17  2  0
 16 21  1  0
 17 18  1  0
 18 19  1  0
 19 20  1  0
 20 21  2  0
 21 22  1  0
M  END
