
     RDKit          3D

 16 17  0  0  0  0  0  0  0  0999 V2000
    4.6410   -0.5280    1.3130 C   0  0  0  0  0  0  0  0  0  0  0  0
    3.3260   -0.6410    1.3500 C   0  0  0  0  0  0  0  0  0  0  0  0
    2.5180    0.1190    0.4530 C   0  0  0  0  0  0  0  0  0  0  0  0
    1.2070    0.1480    0.3340 C   0  0  0  0  0  0  0  0  0  0  0  0
    0.3240   -0.5840    1.0850 C   0  0  0  0  0  0  0  0  0  0  0  0
    0.7470   -1.3620    1.9760 O   0  0  0  0  0  0  0  0  0  0  0  0
   -1.0270   -0.4830    0.8830 N   0  0  0  0  0  0  0  0  0  0  0  0
   -1.5630    0.3180   -0.0410 C   0  0  0  0  0  0  0  0  0  0  0  0
   -3.0300    0.4120   -0.2450 C   0  0  0  0  0  0  0  0  0  0  0  0
   -3.7670   -0.5840    0.3180 O   0  0  0  0  0  0  0  0  0  0  0  0
   -3.5170   -1.8520   -0.1290 C   0  0  0  0  0  0  0  0  0  0  0  0
   -0.7090    1.0410   -0.7850 N   0  0  0  0  0  0  0  0  0  0  0  0
   -0.9620    1.9080   -1.7630 N   0  0  0  0  0  0  0  0  0  0  0  0
    0.2050    2.3950   -2.2240 C   0  0  0  0  0  0  0  0  0  0  0  0
    1.2000    1.8220   -1.5220 N   0  0  0  0  0  0  0  0  0  0  0  0
    0.6200    0.9820   -0.6300 C   0  0  0  0  0  0  0  0  0  0  0  0
  1  2  2  0
  2  3  1  0
  3  4  2  3
  4  5  1  0
  4 16  1  0
  5  6  2  0
  5  7  1  0
  7  8  2  0
  8  9  1  0
  8 12  1  0
  9 10  1  0
 10 11  1  0
 12 13  1  0
 12 16  1  0
 13 14  2  0
 14 15  1  0
 15 16  2  0
M  END
