
     RDKit          3D

 16 17  0  0  0  0  0  0  0  0999 V2000
    1.6090    1.9820    1.0710 C   0  0  0  0  0  0  0  0  0  0  0  0
    2.2200    0.7140    0.6150 C   0  0  0  0  0  0  0  0  0  0  0  0
    3.5260    0.4960    0.8870 N   0  0  0  0  0  0  0  0  0  0  0  0
    4.1310   -0.6000    0.5160 N   0  0  0  0  0  0  0  0  0  0  0  0
    3.4360   -1.5510   -0.1610 C   0  0  0  0  0  0  0  0  0  0  0  0
    3.9530   -2.6230   -0.5460 O   0  0  0  0  0  0  0  0  0  0  0  0
    2.1020   -1.3450   -0.4470 C   0  0  0  0  0  0  0  0  0  0  0  0
    1.4160   -2.1840   -1.0660 O   0  0  0  0  0  0  0  0  0  0  0  0
    1.5130   -0.1960   -0.0450 N   0  0  0  0  0  0  0  0  0  0  0  0
    0.1380    0.0130   -0.3410 C   0  0  0  0  0  0  0  0  0  0  0  0
   -0.8120   -0.4850    0.7110 C   0  0  0  0  0  0  0  0  0  0  0  0
   -2.1550   -0.1970    0.2580 N   0  0  0  0  0  0  0  0  0  0  0  0
   -2.9090   -1.0220   -0.4840 C   0  0  0  0  0  0  0  0  0  0  0  0
   -4.1360   -0.4410   -0.7410 C   0  0  0  0  0  0  0  0  0  0  0  0
   -4.1170    0.7900   -0.1240 C   0  0  0  0  0  0  0  0  0  0  0  0
   -2.8620    0.8980    0.4850 C   0  0  0  0  0  0  0  0  0  0  0  0
  1  2  1  0
  2  3  2  0
  2  9  1  0
  3  4  1  0
  4  5  1  0
  5  6  2  0
  5  7  1  0
  7  8  2  0
  7  9  1  0
  9 10  1  0
 10 11  1  0
 11 12  1  0
 12 13  1  0
 12 16  1  0
 13 14  2  0
 14 15  1  0
 15 16  2  0
M  END
