
     RDKit          3D

 16 16  0  0  0  0  0  0  0  0999 V2000
   -4.9760    1.1080    0.1030 C   0  0  0  0  0  0  0  0  0  0  0  0
   -3.8680    0.3870    0.0820 C   0  0  0  0  0  0  0  0  0  0  0  0
   -3.6290   -0.8190    0.8870 C   0  0  0  0  0  0  0  0  0  0  0  0
   -2.1680   -0.9640    0.8440 N   0  0  0  0  0  0  0  0  0  0  0  0
   -1.6820   -0.1840   -0.2420 C   0  0  0  0  0  0  0  0  0  0  0  0
   -0.4910   -0.2100   -0.7360 N   0  0  0  0  0  0  0  0  0  0  0  0
    0.5140   -1.0700   -0.2170 C   0  0  0  0  0  0  0  0  0  0  0  0
    1.7270   -0.6430   -0.1030 N   0  0  0  0  0  0  0  0  0  0  0  0
    2.0650    0.7090   -0.5020 C   0  0  0  0  0  0  0  0  0  0  0  0
    3.4260    1.0960    0.0310 C   0  0  0  0  0  0  0  0  0  0  0  0
    4.4230    0.2350   -0.4580 O   0  0  0  0  0  0  0  0  0  0  0  0
    5.6290    0.6880    0.0990 C   0  0  0  0  0  0  0  0  0  0  0  0
    0.1710   -2.3530    0.1570 O   0  0  0  0  0  0  0  0  0  0  0  0
    0.9290   -3.0180    1.1530 C   0  0  0  0  0  0  0  0  0  0  0  0
   -2.7260    0.6560   -0.7210 N   0  0  0  0  0  0  0  0  0  0  0  0
   -2.5970    1.5910   -1.8210 C   0  0  0  0  0  0  0  0  0  0  0  0
  1  2  2  0
  2  3  1  0
  2 15  1  0
  3  4  1  0
  4  5  1  0
  5  6  2  3
  5 15  1  0
  6  7  1  0
  7  8  2  3
  7 13  1  0
  8  9  1  0
  9 10  1  0
 10 11  1  0
 11 12  1  0
 13 14  1  0
 15 16  1  0
M  END
