
     RDKit          3D

 15 16  0  0  0  0  0  0  0  0999 V2000
   -2.4080   -2.3130    0.2190 C   0  0  0  0  0  0  0  0  0  0  0  0
   -1.3140   -1.4780   -0.4520 C   0  0  0  0  0  0  0  0  0  0  0  0
   -0.5510   -0.8700    0.5450 O   0  0  0  0  0  0  0  0  0  0  0  0
    0.5240   -0.0350    0.3590 C   0  0  0  0  0  0  0  0  0  0  0  0
    1.8150   -0.5410    0.3680 C   0  0  0  0  0  0  0  0  0  0  0  0
    1.9970   -1.9890    0.5790 C   0  0  0  0  0  0  0  0  0  0  0  0
    2.9290    0.2660    0.1850 C   0  0  0  0  0  0  0  0  0  0  0  0
    4.0690   -0.2340    0.2000 O   0  0  0  0  0  0  0  0  0  0  0  0
    2.7170    1.5650   -0.0030 N   0  0  0  0  0  0  0  0  0  0  0  0
    1.4910    2.0970   -0.0180 C   0  0  0  0  0  0  0  0  0  0  0  0
    1.1150    3.3820   -0.1900 N   0  0  0  0  0  0  0  0  0  0  0  0
   -0.2040    3.3930   -0.1170 N   0  0  0  0  0  0  0  0  0  0  0  0
   -0.6460    2.1180    0.0990 C   0  0  0  0  0  0  0  0  0  0  0  0
   -2.0680    1.7040    0.2510 C   0  0  0  0  0  0  0  0  0  0  0  0
    0.4080    1.3050    0.1610 N   0  0  0  0  0  0  0  0  0  0  0  0
  1  2  1  0
  2  3  1  0
  3  4  1  0
  4  5  2  0
  4 15  1  0
  5  6  1  0
  5  7  1  0
  7  8  2  0
  7  9  1  0
  9 10  2  0
 10 11  1  0
 10 15  1  0
 11 12  1  0
 12 13  2  0
 13 14  1  0
 13 15  1  0
M  END
