
     RDKit          3D

 16 17  0  0  0  0  0  0  0  0999 V2000
   -4.4270    0.8710    0.4710 C   0  0  0  0  0  0  0  0  0  0  0  0
   -3.5600   -0.3010    0.1270 C   0  0  1  0  0  0  0  0  0  0  0  0
   -3.9920   -0.9870   -1.1530 C   0  0  0  0  0  0  0  0  0  0  0  0
   -2.1230    0.1510   -0.0890 C   0  0  0  0  0  0  0  0  0  0  0  0
   -1.3150   -0.8850    0.5610 C   0  0  0  0  0  0  0  0  0  0  0  0
   -0.0420   -0.9560    0.6240 N   0  0  0  0  0  0  0  0  0  0  0  0
    0.8250   -0.0280    0.0670 N   0  0  0  0  0  0  0  0  0  0  0  0
    1.0850    1.1690    0.7160 N   0  0  0  0  0  0  0  0  0  0  0  0
    2.3280    1.5230    0.8670 C   0  0  0  0  0  0  0  0  0  0  0  0
    3.4170    0.7500    0.4040 N   0  0  0  0  0  0  0  0  0  0  0  0
    3.7300    0.0340   -0.8110 C   0  0  0  0  0  0  0  0  0  0  0  0
    5.2110    0.2850   -0.4970 C   0  0  0  0  0  0  0  0  0  0  0  0
    4.6940    0.3360    0.9380 C   0  0  0  0  0  0  0  0  0  0  0  0
   -2.2340   -1.8530    1.1420 C   0  0  0  0  0  0  0  0  0  0  0  0
   -1.9970   -3.0080    1.5820 O   0  0  0  0  0  0  0  0  0  0  0  0
   -3.5050   -1.2670    1.1380 O   0  0  0  0  0  0  0  0  0  0  0  0
  2  1  1  1
  2  3  1  0
  2  4  1  0
  2 16  1  0
  4  5  1  0
  5  6  2  3
  5 14  1  0
  6  7  1  0
  7  8  1  0
  8  9  2  3
  9 10  1  0
 10 11  1  0
 10 13  1  0
 11 12  1  0
 12 13  1  0
 14 15  2  0
 14 16  1  0
M  END
