
     RDKit          3D

 16 17  0  0  0  0  0  0  0  0999 V2000
    4.6560   -0.9040    1.0480 C   0  0  0  0  0  0  0  0  0  0  0  0
    4.3400    0.2730    0.1840 C   0  0  0  0  0  0  0  0  0  0  0  0
    2.8820    0.4030    0.0200 C   0  0  0  0  0  0  0  0  0  0  0  0
    1.9470   -0.4390    0.5830 C   0  0  0  0  0  0  0  0  0  0  0  0
    0.7310    0.0060    0.2030 N   0  0  0  0  0  0  0  0  0  0  0  0
   -0.5170   -0.4290    0.4570 C   0  0  0  0  0  0  0  0  0  0  0  0
   -0.6400   -1.4520    1.1900 O   0  0  0  0  0  0  0  0  0  0  0  0
   -1.6240    0.1660   -0.0250 N   0  0  0  0  0  0  0  0  0  0  0  0
   -2.9620   -0.3510    0.2840 C   0  0  2  0  0  0  0  0  0  0  0  0
   -3.4050   -1.3660   -0.7300 C   0  0  0  0  0  0  0  0  0  0  0  0
   -3.9530    0.7440    0.5200 C   0  0  0  0  0  0  0  0  0  0  0  0
   -1.4770    1.2470   -0.7990 C   0  0  0  0  0  0  0  0  0  0  0  0
   -2.4850    1.8170   -1.2590 O   0  0  0  0  0  0  0  0  0  0  0  0
   -0.2400    1.7070   -1.0720 N   0  0  0  0  0  0  0  0  0  0  0  0
    0.8710    1.0940   -0.5760 C   0  0  0  0  0  0  0  0  0  0  0  0
    2.1870    1.3270   -0.6810 N   0  0  0  0  0  0  0  0  0  0  0  0
  1  2  1  0
  2  3  1  0
  3  4  2  0
  3 16  1  0
  4  5  1  0
  5  6  1  0
  5 15  1  0
  6  7  2  0
  6  8  1  0
  8  9  1  0
  8 12  1  0
  9 10  1  6
  9 11  1  0
 12 13  2  0
 12 14  1  0
 14 15  1  0
 15 16  2  0
M  END
