
     RDKit          3D

 22 24  0  0  0  0  0  0  0  0999 V2000
    5.4000   -1.1380   -0.3460 C   0  0  0  0  0  0  0  0  0  0  0  0
    5.0030    0.1740    0.2850 C   0  0  1  0  0  0  0  0  0  0  0  0
    5.1000   -0.0140    1.7850 C   0  0  0  0  0  0  0  0  0  0  0  0
    6.0200    1.2140   -0.1150 C   0  0  0  0  0  0  0  0  0  0  0  0
    3.6800    0.6130   -0.1300 N   0  0  0  0  0  0  0  0  0  0  0  0
    2.5140   -0.1400    0.1330 C   0  0  0  0  0  0  0  0  0  0  0  0
    2.7330   -1.2380    0.7780 O   0  0  0  0  0  0  0  0  0  0  0  0
    1.1570    0.1710   -0.2230 C   0  0  0  0  0  0  0  0  0  0  0  0
    0.1380   -0.5570    0.4230 C   0  0  0  0  0  0  0  0  0  0  0  0
   -1.1720   -0.2770    0.1340 C   0  0  0  0  0  0  0  0  0  0  0  0
   -2.2240   -0.9600    0.7420 C   0  0  0  0  0  0  0  0  0  0  0  0
   -3.5340   -0.6790    0.4550 C   0  0  0  0  0  0  0  0  0  0  0  0
   -3.8440    0.3000   -0.4530 C   0  0  0  0  0  0  0  0  0  0  0  0
   -2.8020    0.9740   -1.0530 C   0  0  0  0  0  0  0  0  0  0  0  0
   -1.4800    0.7000   -0.7730 C   0  0  0  0  0  0  0  0  0  0  0  0
   -0.5160    1.3950   -1.3910 N   0  0  0  0  0  0  0  0  0  0  0  0
    0.8060    1.1380   -1.1230 C   0  0  0  0  0  0  0  0  0  0  0  0
    1.6990    1.7940   -1.7060 O   0  0  0  0  0  0  0  0  0  0  0  0
   -5.2420    0.6540   -0.8050 C   0  0  0  0  0  0  0  0  0  0  0  0
   -6.1900    0.2710    0.2870 C   0  0  0  0  0  0  0  0  0  0  0  0
   -5.9650   -1.1920    0.6220 C   0  0  0  0  0  0  0  0  0  0  0  0
   -4.5890   -1.4640    1.1620 C   0  0  0  0  0  0  0  0  0  0  0  0
  2  1  1  6
  2  3  1  0
  2  4  1  0
  2  5  1  0
  5  6  1  0
  6  7  2  0
  6  8  1  0
  8  9  2  0
  8 17  1  0
  9 10  1  0
 10 11  2  0
 10 15  1  0
 11 12  1  0
 12 13  2  0
 12 22  1  0
 13 14  1  0
 13 19  1  0
 14 15  2  0
 15 16  1  0
 16 17  1  0
 17 18  2  0
 19 20  1  0
 20 21  1  0
 21 22  1  0
M  END
