
     RDKit          3D

 22 24  0  0  0  0  0  0  0  0999 V2000
    5.6040    1.3160   -1.3150 C   0  0  0  0  0  0  0  0  0  0  0  0
    4.4650    0.5210   -0.8530 C   0  0  0  0  0  0  0  0  0  0  0  0
    3.7780   -0.2550   -1.7690 C   0  0  0  0  0  0  0  0  0  0  0  0
    2.6980   -1.0160   -1.3610 C   0  0  0  0  0  0  0  0  0  0  0  0
    2.2760   -1.0240   -0.0360 C   0  0  0  0  0  0  0  0  0  0  0  0
    1.1220   -1.8330    0.4150 C   0  0  0  0  0  0  0  0  0  0  0  0
   -0.0890   -1.1190    0.3260 O   0  0  0  0  0  0  0  0  0  0  0  0
   -1.2840   -1.7010    0.7010 C   0  0  0  0  0  0  0  0  0  0  0  0
   -1.2080   -2.9050    1.1220 O   0  0  0  0  0  0  0  0  0  0  0  0
   -2.5630   -1.0160    0.6320 C   0  0  0  0  0  0  0  0  0  0  0  0
   -2.7860    0.2110    0.2220 C   0  0  0  0  0  0  0  0  0  0  0  0
   -1.7830    1.1170   -0.2420 N   0  0  0  0  0  0  0  0  0  0  0  0
   -4.1960    0.5390    0.3000 C   0  0  0  0  0  0  0  0  0  0  0  0
   -4.9640    1.6640    0.0030 C   0  0  0  0  0  0  0  0  0  0  0  0
   -6.3200    1.6410    0.1980 C   0  0  0  0  0  0  0  0  0  0  0  0
   -6.9220    0.5420    0.6760 N   0  0  0  0  0  0  0  0  0  0  0  0
   -6.2130   -0.5550    0.9720 C   0  0  0  0  0  0  0  0  0  0  0  0
   -4.8650   -0.5620    0.7880 C   0  0  0  0  0  0  0  0  0  0  0  0
   -3.8610   -1.6100    1.0250 C   0  0  0  0  0  0  0  0  0  0  0  0
    2.9970   -0.2320    0.8340 C   0  0  0  0  0  0  0  0  0  0  0  0
    4.0770    0.5350    0.4520 C   0  0  0  0  0  0  0  0  0  0  0  0
    4.8340    1.3760    1.4050 C   0  0  0  0  0  0  0  0  0  0  0  0
  1  2  1  0
  2  3  2  0
  2 21  1  0
  3  4  1  0
  4  5  2  0
  5  6  1  0
  5 20  1  0
  6  7  1  0
  7  8  1  0
  8  9  2  0
  8 10  1  0
 10 11  2  0
 10 19  1  0
 11 12  1  0
 11 13  1  0
 13 14  2  0
 13 18  1  0
 14 15  1  0
 15 16  2  0
 16 17  1  0
 17 18  2  0
 18 19  1  0
 20 21  2  0
 21 22  1  0
M  END
