
     RDKit          3D

 22 24  0  0  0  0  0  0  0  0999 V2000
    6.4440   -2.0560   -2.4300 C   0  0  0  0  0  0  0  0  0  0  0  0
    5.0740   -1.7720   -2.1100 O   0  0  0  0  0  0  0  0  0  0  0  0
    4.7720   -0.7470   -1.2220 C   0  0  0  0  0  0  0  0  0  0  0  0
    5.7430   -0.1140   -0.7440 O   0  0  0  0  0  0  0  0  0  0  0  0
    3.4190   -0.4300   -0.8730 N   0  0  0  0  0  0  0  0  0  0  0  0
    2.3170   -1.1820   -1.4400 C   0  0  0  0  0  0  0  0  0  0  0  0
    1.1140   -0.3100   -1.4010 C   0  0  0  0  0  0  0  0  0  0  0  0
    0.8450    0.4730   -0.3400 C   0  0  0  0  0  0  0  0  0  0  0  0
   -0.3080    1.2930   -0.3320 N   0  0  0  0  0  0  0  0  0  0  0  0
   -1.6000    1.0100    0.1380 C   0  0  0  0  0  0  0  0  0  0  0  0
   -2.6000    1.9890    0.0440 C   0  0  0  0  0  0  0  0  0  0  0  0
   -2.2470    3.2980   -0.5560 C   0  0  0  0  0  0  0  0  0  0  0  0
   -3.8890    1.7960    0.4790 C   0  0  0  0  0  0  0  0  0  0  0  0
   -4.2570    0.6140    1.0340 C   0  0  0  0  0  0  0  0  0  0  0  0
   -5.6600    0.4050    1.5070 C   0  0  0  0  0  0  0  0  0  0  0  0
   -3.3120   -0.3910    1.1530 C   0  0  0  0  0  0  0  0  0  0  0  0
   -2.0060   -0.1990    0.7140 C   0  0  0  0  0  0  0  0  0  0  0  0
   -1.3100   -1.3000    0.9380 C   0  0  0  0  0  0  0  0  0  0  0  0
   -2.2160   -2.2960    1.5740 C   0  0  0  0  0  0  0  0  0  0  0  0
   -3.4900   -1.5820    1.6570 C   0  0  0  0  0  0  0  0  0  0  0  0
    1.8540    0.4260    0.7510 C   0  0  0  0  0  0  0  0  0  0  0  0
    3.2060    0.6650    0.0640 C   0  0  0  0  0  0  0  0  0  0  0  0
  1  2  1  0
  2  3  1  0
  3  4  2  0
  3  5  1  0
  5  6  1  0
  5 22  1  0
  6  7  1  0
  7  8  2  0
  8  9  1  0
  8 21  1  0
  9 10  1  0
 10 11  2  0
 10 17  1  0
 11 12  1  0
 11 13  1  0
 13 14  2  0
 14 15  1  0
 14 16  1  0
 16 17  1  0
 16 20  2  0
 17 18  2  0
 18 19  1  0
 19 20  1  0
 21 22  1  0
M  END
