
     RDKit          3D

 22 24  0  0  0  0  0  0  0  0999 V2000
    0.3280    3.9160   -0.9150 C   0  0  0  0  0  0  0  0  0  0  0  0
   -0.2650    2.9560    0.1020 C   0  0  2  0  0  0  0  0  0  0  0  0
   -1.3930    3.7350    0.7960 C   0  0  0  0  0  0  0  0  0  0  0  0
    0.7570    2.6660    1.1770 C   0  0  0  0  0  0  0  0  0  0  0  0
    1.6820    1.6040    0.8030 C   0  0  0  0  0  0  0  0  0  0  0  0
    2.8950    1.6700    1.1850 O   0  0  0  0  0  0  0  0  0  0  0  0
    1.2210    0.4510   -0.0180 C   0  0  0  0  0  0  0  0  0  0  0  0
    2.1700   -0.6670   -0.0220 C   0  0  1  0  0  0  0  0  0  0  0  0
    2.4220   -1.0270    1.3710 N   0  0  0  0  0  0  0  0  0  0  0  0
    1.8030   -2.3320    1.5060 C   0  0  0  0  0  0  0  0  0  0  0  0
    1.6870   -2.8590    0.1280 C   0  0  0  0  0  0  0  0  0  0  0  0
    1.9070   -1.8640   -0.7510 C   0  0  0  0  0  0  0  0  0  0  0  0
    1.8640   -2.0740   -2.1100 O   0  0  0  0  0  0  0  0  0  0  0  0
    0.0820    0.5650   -0.6130 C   0  0  0  0  0  0  0  0  0  0  0  0
   -0.4230   -0.4940   -1.4140 N   0  0  0  0  0  0  0  0  0  0  0  0
   -1.1980   -1.5320   -0.8640 C   0  0  0  0  0  0  0  0  0  0  0  0
   -1.5260   -1.5870    0.4860 C   0  0  0  0  0  0  0  0  0  0  0  0
   -2.2840   -2.5970    1.0390 C   0  0  0  0  0  0  0  0  0  0  0  0
   -2.7520   -3.6150    0.2340 C   0  0  0  0  0  0  0  0  0  0  0  0
   -2.4430   -3.5890   -1.1110 C   0  0  0  0  0  0  0  0  0  0  0  0
   -1.6830   -2.5680   -1.6420 C   0  0  0  0  0  0  0  0  0  0  0  0
   -0.7980    1.7470   -0.5460 C   0  0  0  0  0  0  0  0  0  0  0  0
  2  1  1  6
  2  3  1  0
  2  4  1  0
  2 22  1  0
  4  5  1  0
  5  6  2  0
  5  7  1  0
  8  7  1  1
  7 14  2  0
  8  9  1  0
  8 12  1  0
  9 10  1  0
 10 11  1  0
 11 12  2  0
 12 13  1  0
 14 15  1  0
 14 22  1  0
 15 16  1  0
 16 17  2  0
 16 21  1  0
 17 18  1  0
 18 19  2  0
 19 20  1  0
 20 21  2  0
M  END
