
     RDKit          3D

 22 24  0  0  0  0  0  0  0  0999 V2000
   -3.6910   -0.8840    1.0870 C   0  0  0  0  0  0  0  0  0  0  0  0
   -3.4280    0.5230    0.7350 C   0  0  0  0  0  0  0  0  0  0  0  0
   -4.4460    1.3990    0.3640 C   0  0  0  0  0  0  0  0  0  0  0  0
   -4.1470    2.7030    0.0440 C   0  0  0  0  0  0  0  0  0  0  0  0
   -5.1080    3.4760   -0.2910 O   0  0  0  0  0  0  0  0  0  0  0  0
   -2.8830    3.1560    0.0820 N   0  0  0  0  0  0  0  0  0  0  0  0
   -1.8860    2.3310    0.4370 C   0  0  0  0  0  0  0  0  0  0  0  0
   -2.1400    1.0040    0.7680 C   0  0  0  0  0  0  0  0  0  0  0  0
   -1.0450    0.1390    1.1460 C   0  0  0  0  0  0  0  0  0  0  0  0
   -1.2110   -1.0910    1.4630 N   0  0  0  0  0  0  0  0  0  0  0  0
   -0.2370   -2.0430    1.8490 C   0  0  0  0  0  0  0  0  0  0  0  0
    1.1860   -1.6010    1.8130 C   0  0  2  0  0  0  0  0  0  0  0  0
    1.3810   -0.5270    2.6650 O   0  0  0  0  0  0  0  0  0  0  0  0
    1.6310   -1.2030    0.4490 C   0  0  0  0  0  0  0  0  0  0  0  0
    0.8990   -1.4790   -0.6850 C   0  0  0  0  0  0  0  0  0  0  0  0
    1.2820   -1.1280   -1.9460 C   0  0  0  0  0  0  0  0  0  0  0  0
    2.4870   -0.4450   -2.1080 C   0  0  0  0  0  0  0  0  0  0  0  0
    3.2400   -0.1530   -1.0030 C   0  0  0  0  0  0  0  0  0  0  0  0
    2.8150   -0.5300    0.2730 C   0  0  0  0  0  0  0  0  0  0  0  0
    4.4380    0.5580   -1.4550 C   0  0  0  0  0  0  0  0  0  0  0  0
    4.4160    0.6920   -2.7600 C   0  0  0  0  0  0  0  0  0  0  0  0
    3.1930    0.0760   -3.2870 C   0  0  0  0  0  0  0  0  0  0  0  0
  1  2  1  0
  2  3  2  0
  2  8  1  0
  3  4  1  0
  4  5  2  0
  4  6  1  0
  6  7  1  0
  7  8  2  0
  8  9  1  0
  9 10  2  3
 10 11  1  0
 11 12  1  0
 12 13  1  1
 12 14  1  0
 14 15  2  0
 14 19  1  0
 15 16  1  0
 16 17  2  0
 17 18  1  0
 17 22  1  0
 18 19  2  0
 18 20  1  0
 20 21  2  0
 21 22  1  0
M  END
