
     RDKit          3D

 10 10  0  0  0  0  0  0  0  0999 V2000
   -0.9260   -0.7740   -2.4960 O   0  0  0  0  0  0  0  0  0  0  0  0
   -1.1160    0.1220   -1.4550 C   0  0  0  0  0  0  0  0  0  0  0  0
    0.1640    0.2800   -0.6910 C   0  0  1  0  0  0  0  0  0  0  0  0
   -0.0050    1.2540    0.4570 C   0  0  1  0  0  0  0  0  0  0  0  0
   -1.1560    2.0080    0.3380 O   0  0  0  0  0  0  0  0  0  0  0  0
    0.0090    0.4810    1.6290 O   0  0  0  0  0  0  0  0  0  0  0  0
    1.1030   -0.3630    1.3270 C   0  0  1  0  0  0  0  0  0  0  0  0
    1.3860   -1.2550    2.3070 O   0  0  0  0  0  0  0  0  0  0  0  0
    0.5260   -1.0090    0.0610 C   0  0  1  0  0  0  0  0  0  0  0  0
   -0.6720   -1.6510    0.3200 O   0  0  0  0  0  0  0  0  0  0  0  0
  1  2  1  0
  3  2  1  1
  3  4  1  0
  3  9  1  0
  4  5  1  6
  4  6  1  0
  6  7  1  0
  7  8  1  1
  7  9  1  0
  9 10  1  1
M  END
