
     RDKit          3D

 22 24  0  0  0  0  0  0  0  0999 V2000
   -2.0890   -3.8890   -0.5580 C   0  0  0  0  0  0  0  0  0  0  0  0
   -1.3260   -2.6400   -0.2970 C   0  0  0  0  0  0  0  0  0  0  0  0
   -0.0010   -2.3400   -0.5230 C   0  0  0  0  0  0  0  0  0  0  0  0
    0.2620   -1.0800   -0.1310 N   0  0  0  0  0  0  0  0  0  0  0  0
    1.5250   -0.4290   -0.2130 C   0  0  0  0  0  0  0  0  0  0  0  0
    1.6330    0.8020   -0.8500 C   0  0  0  0  0  0  0  0  0  0  0  0
    2.8270    1.4540   -0.9460 C   0  0  0  0  0  0  0  0  0  0  0  0
    3.9810    0.9110   -0.4120 C   0  0  0  0  0  0  0  0  0  0  0  0
    5.2630    1.5730   -0.4950 C   0  0  0  0  0  0  0  0  0  0  0  0
    6.4110    0.9780    0.0650 N   0  0  0  0  0  0  0  0  0  0  0  0
    5.3550    2.6760   -1.0670 O   0  0  0  0  0  0  0  0  0  0  0  0
    3.9070   -0.3180    0.2310 C   0  0  0  0  0  0  0  0  0  0  0  0
    2.6840   -0.9460    0.3090 C   0  0  0  0  0  0  0  0  0  0  0  0
   -0.8800   -0.5310    0.3580 C   0  0  0  0  0  0  0  0  0  0  0  0
   -1.8770   -1.4790    0.2650 C   0  0  0  0  0  0  0  0  0  0  0  0
   -3.2070   -1.1350    0.7250 C   0  0  0  0  0  0  0  0  0  0  0  0
   -3.9830   -2.0310    1.0970 O   0  0  0  0  0  0  0  0  0  0  0  0
   -3.6440    0.2720    0.7520 C   0  0  0  0  0  0  0  0  0  0  0  0
   -2.5430    1.2170    0.3110 C   0  0  1  0  0  0  0  0  0  0  0  0
   -2.3700    1.2020   -1.1850 C   0  0  0  0  0  0  0  0  0  0  0  0
   -2.9520    2.6060    0.7540 C   0  0  0  0  0  0  0  0  0  0  0  0
   -1.2290    0.7910    0.9300 C   0  0  0  0  0  0  0  0  0  0  0  0
  1  2  1  0
  2  3  2  0
  2 15  1  0
  3  4  1  0
  4  5  1  0
  4 14  1  0
  5  6  2  0
  5 13  1  0
  6  7  1  0
  7  8  2  0
  8  9  1  0
  8 12  1  0
  9 10  1  0
  9 11  2  0
 12 13  2  0
 14 15  2  0
 14 22  1  0
 15 16  1  0
 16 17  2  0
 16 18  1  0
 18 19  1  0
 19 20  1  6
 19 21  1  0
 19 22  1  0
M  END
