
     RDKit          3D

 20 20  0  0  0  0  0  0  0  0999 V2000
   -3.6280    0.4660   -1.8480 C   0  0  0  0  0  0  0  0  0  0  0  0
   -3.9990    0.9550   -0.4850 C   0  0  0  0  0  0  0  0  0  0  0  0
   -3.6900   -0.0280    0.6200 C   0  0  1  0  0  0  0  0  0  0  0  0
   -4.1000    0.5630    1.9490 C   0  0  0  0  0  0  0  0  0  0  0  0
   -4.5640   -1.2420    0.3780 C   0  0  0  0  0  0  0  0  0  0  0  0
   -5.9530   -0.8460    0.4120 N   0  0  0  0  0  0  0  0  0  0  0  0
   -2.2490   -0.4150    0.5480 C   0  0  0  0  0  0  0  0  0  0  0  0
   -1.3200    0.7530    0.6960 C   0  0  0  0  0  0  0  0  0  0  0  0
    0.0480    0.3240    0.6150 O   0  0  0  0  0  0  0  0  0  0  0  0
    1.0900    1.2020    0.7210 C   0  0  0  0  0  0  0  0  0  0  0  0
    0.8030    2.4270    0.8960 O   0  0  0  0  0  0  0  0  0  0  0  0
    2.5210    0.8050    0.6430 C   0  0  2  0  0  0  0  0  0  0  0  0
    3.1340    1.5850   -0.4970 C   0  0  0  0  0  0  0  0  0  0  0  0
    4.4260    1.0660   -0.8810 N   0  0  0  0  0  0  0  0  0  0  0  0
    4.8700    0.0160    0.0220 C   0  0  2  0  0  0  0  0  0  0  0  0
    6.1370   -0.5870   -0.5270 C   0  0  0  0  0  0  0  0  0  0  0  0
    7.1240    0.4120   -0.6250 O   0  0  0  0  0  0  0  0  0  0  0  0
    3.7900   -1.0350    0.0450 C   0  0  1  0  0  0  0  0  0  0  0  0
    4.2500   -2.1990    0.9300 C   0  0  0  0  0  0  0  0  0  0  0  0
    2.5690   -0.5580    0.4520 O   0  0  0  0  0  0  0  0  0  0  0  0
  1  2  1  0
  2  3  1  0
  3  4  1  1
  3  5  1  0
  3  7  1  0
  5  6  1  0
  7  8  1  0
  8  9  1  0
  9 10  1  0
 10 11  2  0
 12 10  1  6
 12 13  1  0
 12 20  1  0
 13 14  1  0
 14 15  1  0
 15 16  1  6
 15 18  1  0
 16 17  1  0
 18 19  1  1
 18 20  1  0
M  CHG  1   6   1
M  END
