
     RDKit          3D

 20 20  0  0  0  0  0  0  0  0999 V2000
    5.5160   -0.0750    0.0240 C   0  0  0  0  0  0  0  0  0  0  0  0
    4.0320   -0.3340    0.1780 C   0  0  2  0  0  0  0  0  0  0  0  0
    3.3720   -0.1870   -1.1590 C   0  0  0  0  0  0  0  0  0  0  0  0
    1.8620   -0.0430   -1.0590 C   0  0  2  0  0  0  0  0  0  0  0  0
    1.3670   -0.0100   -2.4310 N   0  0  0  0  0  0  0  0  0  0  0  0
    1.5870    1.2590   -0.3680 C   0  0  1  0  0  0  0  0  0  0  0  0
    0.1510    1.4800   -0.0170 C   0  0  0  0  0  0  0  0  0  0  0  0
   -0.4640    0.5620    0.8350 N   0  0  0  0  0  0  0  0  0  0  0  0
   -0.0460    0.5100    2.1840 C   0  0  0  0  0  0  0  0  0  0  0  0
   -1.9050    0.6550    0.7870 C   0  0  2  0  0  0  0  0  0  0  0  0
   -2.5410    0.0330    2.0080 C   0  0  0  0  0  0  0  0  0  0  0  0
   -4.0390    0.1260    1.9630 C   0  0  0  0  0  0  0  0  0  0  0  0
   -4.5440   -0.4710    3.1460 O   0  0  0  0  0  0  0  0  0  0  0  0
   -2.5070    0.1370   -0.4910 C   0  0  0  0  0  0  0  0  0  0  0  0
   -2.1990   -1.3160   -0.7440 C   0  0  0  0  0  0  0  0  0  0  0  0
   -2.8860   -1.6650   -2.0720 C   0  0  0  0  0  0  0  0  0  0  0  0
   -2.3380   -0.8270   -3.0430 O   0  0  0  0  0  0  0  0  0  0  0  0
    2.5300    1.5310    0.7340 C   0  0  0  0  0  0  0  0  0  0  0  0
    2.3940    2.5920    1.3910 O   0  0  0  0  0  0  0  0  0  0  0  0
    3.5370    0.6660    1.0530 O   0  0  0  0  0  0  0  0  0  0  0  0
  2  1  1  6
  2  3  1  0
  2 20  1  0
  3  4  1  0
  4  5  1  6
  4  6  1  0
  6  7  1  1
  6 18  1  0
  7  8  1  0
  8  9  1  0
  8 10  1  0
 10 11  1  1
 10 14  1  0
 11 12  1  0
 12 13  1  0
 14 15  1  0
 15 16  1  0
 16 17  1  0
 18 19  2  0
 18 20  1  0
M  CHG  1   5   1
M  END
