
     RDKit          3D

 20 21  0  0  0  0  0  0  0  0999 V2000
   -0.0400    1.7090    1.9720 N   0  0  0  0  0  0  0  0  0  0  0  0
    0.3750    1.6690    0.5700 C   0  0  0  0  0  0  0  0  0  0  0  0
   -0.0790    0.4350   -0.1500 C   0  0  2  0  0  0  0  0  0  0  0  0
    0.7280    0.0400   -1.2930 C   0  0  0  0  0  0  0  0  0  0  0  0
    2.1330   -0.3800   -1.0900 C   0  0  0  0  0  0  0  0  0  0  0  0
    3.1210    0.5070   -0.4560 C   0  0  0  0  0  0  0  0  0  0  0  0
    4.4820   -0.1890   -0.4770 C   0  0  0  0  0  0  0  0  0  0  0  0
    5.1420   -0.4660    0.6300 C   0  0  0  0  0  0  0  0  0  0  0  0
    6.3820   -1.1010    0.6080 O   0  0  0  0  0  0  0  0  0  0  0  0
    6.9480   -1.4570   -0.6090 C   0  0  0  0  0  0  0  0  0  0  0  0
    6.3040   -1.1870   -1.6860 N   0  0  0  0  0  0  0  0  0  0  0  0
    5.0640   -0.5530   -1.6800 O   0  0  0  0  0  0  0  0  0  0  0  0
   -1.4390    0.3150   -0.2390 O   0  0  0  0  0  0  0  0  0  0  0  0
   -2.0980   -0.6030    0.4790 C   0  0  1  0  0  0  0  0  0  0  0  0
   -3.1700    0.0810    1.2970 C   0  0  0  0  0  0  0  0  0  0  0  0
   -4.1540    0.8210    0.4120 C   0  0  0  0  0  0  0  0  0  0  0  0
   -4.8470   -0.1530   -0.5100 C   0  0  0  0  0  0  0  0  0  0  0  0
   -3.8290   -0.9030   -1.3030 C   0  0  1  0  0  0  0  0  0  0  0  0
   -3.1750   -0.1190   -2.2470 O   0  0  0  0  0  0  0  0  0  0  0  0
   -2.8680   -1.6160   -0.3870 C   0  0  0  0  0  0  0  0  0  0  0  0
  1  2  1  0
  3  2  1  6
  3  4  1  0
  3 13  1  0
  4  5  1  0
  5  6  1  0
  6  7  1  0
  7  8  2  0
  7 12  1  0
  8  9  1  0
  9 10  1  0
 10 11  2  0
 11 12  1  0
 14 13  1  6
 14 15  1  0
 14 20  1  0
 15 16  1  0
 16 17  1  0
 17 18  1  0
 18 19  1  1
 18 20  1  0
M  CHG  1   1   1
M  END
