
     RDKit          3D

 20 20  0  0  0  0  0  0  0  0999 V2000
   -4.0900   -1.8440    0.1080 C   0  0  0  0  0  0  0  0  0  0  0  0
   -2.7070   -1.2280    0.0650 C   0  0  2  0  0  0  0  0  0  0  0  0
   -2.8680    0.2540   -0.1750 C   0  0  0  0  0  0  0  0  0  0  0  0
   -2.6490    1.0730    1.0720 C   0  0  0  0  0  0  0  0  0  0  0  0
   -2.3200    2.4540    0.7090 C   0  0  0  0  0  0  0  0  0  0  0  0
   -1.0990    2.9650    0.5410 C   0  0  0  0  0  0  0  0  0  0  0  0
    0.0610    2.3030    0.6740 O   0  0  0  0  0  0  0  0  0  0  0  0
    0.9320    1.5930   -0.1030 C   0  0  2  0  0  0  0  0  0  0  0  0
    0.8820    1.7820   -1.5560 C   0  0  0  0  0  0  0  0  0  0  0  0
   -0.0650    2.6540   -2.1470 N   0  0  0  0  0  0  0  0  0  0  0  0
    1.6790    1.1710   -2.2860 O   0  0  0  0  0  0  0  0  0  0  0  0
    0.9670    0.0980    0.2330 C   0  0  2  0  0  0  0  0  0  0  0  0
    1.7930   -0.2000    1.4530 C   0  0  0  0  0  0  0  0  0  0  0  0
    3.2260    0.1950    1.3670 C   0  0  0  0  0  0  0  0  0  0  0  0
    3.9560   -0.4940    0.2370 C   0  0  0  0  0  0  0  0  0  0  0  0
    3.9530   -1.9290    0.3720 N   0  0  0  0  0  0  0  0  0  0  0  0
    1.2750   -0.6940   -0.8380 O   0  0  0  0  0  0  0  0  0  0  0  0
    0.2310   -1.2930   -1.4900 C   0  0  0  0  0  0  0  0  0  0  0  0
   -0.6840   -2.1240   -0.6590 C   0  0  0  0  0  0  0  0  0  0  0  0
   -2.0180   -1.8470   -0.9670 O   0  0  0  0  0  0  0  0  0  0  0  0
  2  1  1  6
  2  3  1  0
  2 20  1  0
  3  4  1  0
  4  5  1  0
  5  6  2  0
  6  7  1  0
  7  8  1  0
  8  9  1  6
  8 12  1  0
  9 10  1  0
  9 11  2  0
 12 13  1  1
 12 17  1  0
 13 14  1  0
 14 15  1  0
 15 16  1  0
 17 18  1  0
 18 19  1  0
 19 20  1  0
M  CHG  1  16   1
M  END
