
     RDKit          3D

 20 20  0  0  0  0  0  0  0  0999 V2000
    0.4560   -2.7590    0.7710 C   0  0  0  0  0  0  0  0  0  0  0  0
    0.8540   -1.3960    0.5110 N   0  0  1  0  0  0  0  0  0  0  0  0
    2.1800   -1.4520   -0.0830 C   0  0  0  0  0  0  0  0  0  0  0  0
    3.0860   -0.3700    0.4680 C   0  0  2  0  0  0  0  0  0  0  0  0
    2.5660    0.8810    0.2120 O   0  0  0  0  0  0  0  0  0  0  0  0
    4.4060   -0.5210   -0.2390 C   0  0  0  0  0  0  0  0  0  0  0  0
    5.4290    0.3920    0.1350 N   0  0  0  0  0  0  0  0  0  0  0  0
    5.4260    1.7870    0.0020 C   0  0  0  0  0  0  0  0  0  0  0  0
    4.4600    2.3790   -0.4960 O   0  0  0  0  0  0  0  0  0  0  0  0
    6.5250    2.5460    0.4330 O   0  0  0  0  0  0  0  0  0  0  0  0
    0.0170   -0.7270   -0.4350 C   0  0  0  0  0  0  0  0  0  0  0  0
   -1.4330   -0.7090   -0.1430 C   0  0  1  0  0  0  0  0  0  0  0  0
   -1.8860   -2.0390   -0.0800 O   0  0  0  0  0  0  0  0  0  0  0  0
   -1.7820   -0.0750    1.1780 C   0  0  0  0  0  0  0  0  0  0  0  0
   -3.2330    0.1440    1.3780 C   0  0  0  0  0  0  0  0  0  0  0  0
   -4.0420    0.2880    0.1330 C   0  0  0  0  0  0  0  0  0  0  0  0
   -3.1750    0.9250   -0.9310 C   0  0  2  0  0  0  0  0  0  0  0  0
   -2.6200    2.2490   -0.4890 C   0  0  0  0  0  0  0  0  0  0  0  0
   -4.0140    1.1960   -2.1870 C   0  0  0  0  0  0  0  0  0  0  0  0
   -2.1310   -0.0700   -1.3120 C   0  0  0  0  0  0  0  0  0  0  0  0
  2  1  1  6
  2  3  1  0
  2 11  1  0
  3  4  1  0
  4  5  1  6
  4  6  1  0
  6  7  1  0
  7  8  1  0
  8  9  2  0
  8 10  1  0
 11 12  1  0
 12 13  1  1
 12 14  1  0
 12 20  1  0
 14 15  1  0
 15 16  1  0
 16 17  1  0
 17 18  1  1
 17 19  1  0
 17 20  1  0
M  CHG  1   2   1
M  END
