
     RDKit          3D

 20 21  0  0  0  0  0  0  0  0999 V2000
   -2.7830   -1.3580   -1.5230 N   0  0  0  0  0  0  0  0  0  0  0  0
   -3.0230   -0.9360   -0.1560 C   0  0  2  0  0  0  0  0  0  0  0  0
   -3.9590    0.1930   -0.1200 C   0  0  0  0  0  0  0  0  0  0  0  0
   -3.7230    1.3660    0.4510 C   0  0  0  0  0  0  0  0  0  0  0  0
   -4.8670    2.3510    0.3380 C   0  0  0  0  0  0  0  0  0  0  0  0
   -5.9960    1.6810    0.7320 O   0  0  0  0  0  0  0  0  0  0  0  0
   -6.2880    0.6100    0.0910 O   0  0  0  0  0  0  0  0  0  0  0  0
   -5.3320    0.1110   -0.7500 C   0  0  0  0  0  0  0  0  0  0  0  0
   -1.7040   -0.7040    0.4880 C   0  0  2  0  0  0  0  0  0  0  0  0
   -1.8300   -0.2950    1.7890 O   0  0  0  0  0  0  0  0  0  0  0  0
   -0.7880    0.1150   -0.3670 C   0  0  0  0  0  0  0  0  0  0  0  0
    0.5210    0.3280    0.3420 C   0  0  0  0  0  0  0  0  0  0  0  0
    1.1920   -0.9710    0.6330 C   0  0  0  0  0  0  0  0  0  0  0  0
    2.5260   -0.7850    1.3340 C   0  0  0  0  0  0  0  0  0  0  0  0
    3.4890    0.0190    0.5160 C   0  0  2  0  0  0  0  0  0  0  0  0
    3.8010   -0.6120   -0.8160 C   0  0  0  0  0  0  0  0  0  0  0  0
    4.6020    0.3530   -1.5750 N   0  0  0  0  0  0  0  0  0  0  0  0
    5.6850    0.8640   -0.7320 C   0  0  0  0  0  0  0  0  0  0  0  0
    5.8060   -0.0010    0.4990 C   0  0  0  0  0  0  0  0  0  0  0  0
    4.6650    0.1490    1.2500 O   0  0  0  0  0  0  0  0  0  0  0  0
  2  1  1  6
  2  3  1  0
  2  9  1  0
  3  4  2  0
  3  8  1  0
  4  5  1  0
  5  6  1  0
  6  7  1  0
  7  8  1  0
  9 10  1  1
  9 11  1  0
 11 12  1  0
 12 13  1  0
 13 14  1  0
 15 14  1  1
 15 16  1  0
 15 20  1  0
 16 17  1  0
 17 18  1  0
 18 19  1  0
 19 20  1  0
M  CHG  1   1   1
M  END
