
     RDKit          3D

 30 32  0  0  0  0  0  0  0  0999 V2000
   -0.4470   -2.9180   -1.1410 C   0  0  0  0  0  0  0  0  0  0  0  0
   -1.1050   -1.9500   -0.1480 C   0  0  1  0  0  0  0  0  0  0  0  0
   -1.5000   -2.6110    1.0440 N   0  0  0  0  0  0  0  0  0  0  0  0
   -2.9880   -2.5560    1.1480 C   0  0  0  0  0  0  0  0  0  0  0  0
   -3.4740   -1.1520    0.8580 C   0  0  0  0  0  0  0  0  0  0  0  0
   -3.0670   -0.1770    1.7390 C   0  0  0  0  0  0  0  0  0  0  0  0
   -3.2020    1.1970    1.3900 C   0  0  0  0  0  0  0  0  0  0  0  0
   -3.7280    1.6160    0.1970 C   0  0  0  0  0  0  0  0  0  0  0  0
   -4.1370    0.6150   -0.6310 C   0  0  0  0  0  0  0  0  0  0  0  0
   -4.0240   -0.7890   -0.3240 C   0  0  0  0  0  0  0  0  0  0  0  0
   -4.8340   -1.7260   -1.6880 Cl  0  0  0  0  0  0  0  0  0  0  0  0
   -3.6440    3.0630   -0.2690 C   0  0  0  0  0  0  0  0  0  0  0  0
   -2.2830    3.3980   -0.5330 O   0  0  0  0  0  0  0  0  0  0  0  0
   -1.7720    2.4390   -1.3600 C   0  0  0  0  0  0  0  0  0  0  0  0
   -0.6170    1.7100   -0.6640 C   0  0  0  0  0  0  0  0  0  0  0  0
   -0.5180    0.2610   -1.0610 C   0  0  0  0  0  0  0  0  0  0  0  0
   -0.2720   -0.7160    0.0640 C   0  0  2  0  0  0  0  0  0  0  0  0
    1.1890   -1.1310    0.0840 C   0  0  0  0  0  0  0  0  0  0  0  0
    1.5110   -2.3310    0.0540 O   0  0  0  0  0  0  0  0  0  0  0  0
    2.2000   -0.1540    0.1410 N   0  0  0  0  0  0  0  0  0  0  0  0
    3.6030   -0.3720    0.1650 C   0  0  0  0  0  0  0  0  0  0  0  0
    4.1520   -1.6030    0.1230 C   0  0  0  0  0  0  0  0  0  0  0  0
    5.5360   -1.7720    0.1480 C   0  0  0  0  0  0  0  0  0  0  0  0
    6.3780   -0.6960    0.2150 C   0  0  0  0  0  0  0  0  0  0  0  0
    5.8200    0.5340    0.2570 C   0  0  0  0  0  0  0  0  0  0  0  0
    4.4310    0.7710    0.2360 C   0  0  0  0  0  0  0  0  0  0  0  0
    3.9180    1.9640    0.2770 O   0  0  0  0  0  0  0  0  0  0  0  0
    3.3870    3.1460    0.3180 C   0  0  2  0  0  0  0  0  0  0  0  0
    3.7540    3.9250   -0.7910 F   0  0  0  0  0  0  0  0  0  0  0  0
    3.7960    3.9270    1.4350 F   0  0  0  0  0  0  0  0  0  0  0  0
  2  1  1  6
  2  3  1  0
  2 17  1  0
  3  4  1  0
  4  5  1  0
  5  6  2  0
  5 10  1  0
  6  7  1  0
  7  8  2  0
  8  9  1  0
  8 12  1  0
  9 10  2  0
 10 11  1  0
 12 13  1  0
 13 14  1  0
 14 15  1  0
 15 16  1  0
 16 17  1  0
 17 18  1  6
 18 19  2  0
 18 20  1  0
 20 21  1  0
 21 22  2  0
 21 26  1  0
 22 23  1  0
 23 24  2  0
 24 25  1  0
 25 26  2  0
 26 27  1  0
 27 28  1  0
 28 29  1  6
 28 30  1  0
M  CHG  1   3   1
M  END
