
     RDKit          3D

 30 31  0  0  0  0  0  0  0  0999 V2000
    6.7460    1.6330    0.2170 N   0  0  0  0  0  0  0  0  0  0  0  0
    5.5840    0.9190    0.5280 N   0  0  0  0  0  0  0  0  0  0  0  0
    5.6030   -0.1520    1.2760 C   0  0  0  0  0  0  0  0  0  0  0  0
    7.0920   -0.7810    1.9510 Cl  0  0  0  0  0  0  0  0  0  0  0  0
    4.3670   -0.7490    1.4940 O   0  0  0  0  0  0  0  0  0  0  0  0
    3.3180   -0.6830    0.5150 C   0  0  0  0  0  0  0  0  0  0  0  0
    3.0250    0.6240    0.3100 O   0  0  0  0  0  0  0  0  0  0  0  0
    2.0630    0.9390   -0.5750 C   0  0  2  0  0  0  0  0  0  0  0  0
    1.9400    2.3440   -0.6120 O   0  0  0  0  0  0  0  0  0  0  0  0
    3.3970    3.0660   -1.0850 Cl  0  0  0  0  0  0  0  0  0  0  0  0
    0.7080    0.4140   -0.2500 C   0  0  0  0  0  0  0  0  0  0  0  0
    0.1640    0.1700    0.9070 C   0  0  0  0  0  0  0  0  0  0  0  0
   -1.1710   -0.3430    1.0810 C   0  0  0  0  0  0  0  0  0  0  0  0
   -1.6230   -0.5530    2.2620 O   0  0  0  0  0  0  0  0  0  0  0  0
   -2.0510   -0.6450    0.0660 O   0  0  0  0  0  0  0  0  0  0  0  0
   -3.3190   -1.1320    0.2440 C   0  0  0  0  0  0  0  0  0  0  0  0
   -3.5130   -2.4300    0.2940 C   0  0  0  0  0  0  0  0  0  0  0  0
   -4.7500   -3.0360    0.4700 O   0  0  0  0  0  0  0  0  0  0  0  0
   -4.4290   -0.2090    0.3750 C   0  0  0  0  0  0  0  0  0  0  0  0
   -4.2170    1.0890    0.3260 C   0  0  0  0  0  0  0  0  0  0  0  0
   -5.2540    1.9880    0.4480 O   0  0  0  0  0  0  0  0  0  0  0  0
   -5.8200   -0.6890    0.5660 C   0  0  0  0  0  0  0  0  0  0  0  0
   -6.6980    0.3940    0.6660 O   0  0  0  0  0  0  0  0  0  0  0  0
    0.0860    0.2170   -1.5050 N   0  0  0  0  0  0  0  0  0  0  0  0
    0.9620    0.7030   -2.5210 N   0  0  0  0  0  0  0  0  0  0  0  0
    0.9540   -0.1170   -3.5890 O   0  0  0  0  0  0  0  0  0  0  0  0
    2.1970   -0.3060   -4.0000 O   0  0  0  0  0  0  0  0  0  0  0  0
    3.0300   -0.0180   -2.9580 C   0  0  0  0  0  0  0  0  0  0  0  0
    4.6290   -0.2300   -2.9070 S   0  0  0  0  0  0  0  0  0  0  0  0
    2.2380    0.5070   -1.9150 N   0  0  0  0  0  0  0  0  0  0  0  0
  1  2  1  0
  2  3  2  3
  3  4  1  0
  3  5  1  0
  5  6  1  0
  6  7  1  0
  8  7  1  1
  8  9  1  0
  8 11  1  0
  8 30  1  0
  9 10  1  0
 11 12  2  3
 11 24  1  0
 12 13  1  0
 13 14  2  0
 13 15  1  0
 15 16  1  0
 16 17  2  3
 16 19  1  0
 17 18  1  0
 19 20  2  3
 19 22  1  0
 20 21  1  0
 22 23  1  0
 24 25  1  0
 25 26  1  0
 25 30  1  0
 26 27  1  0
 27 28  1  0
 28 29  2  0
 28 30  1  0
M  END
