
     RDKit          3D

 29 31  0  0  0  0  0  0  0  0999 V2000
    1.1630    4.6590   -0.1550 C   0  0  0  0  0  0  0  0  0  0  0  0
    0.6210    3.5020   -0.8840 N   0  0  0  0  0  0  0  0  0  0  0  0
   -0.2140    2.8200   -0.1240 O   0  0  0  0  0  0  0  0  0  0  0  0
   -0.0010    1.4580   -0.0070 C   0  0  1  0  0  0  0  0  0  0  0  0
   -1.0720    0.9640    0.8370 N   0  0  0  0  0  0  0  0  0  0  0  0
   -1.2720   -0.4390    0.8500 C   0  0  1  0  0  0  0  0  0  0  0  0
   -1.8760   -0.7540    2.0900 O   0  0  0  0  0  0  0  0  0  0  0  0
   -1.1100   -0.4000    3.1190 N   0  0  0  0  0  0  0  0  0  0  0  0
   -1.9210   -0.2540    4.2060 O   0  0  0  0  0  0  0  0  0  0  0  0
   -2.1990   -0.8120   -0.1760 N   0  0  2  0  0  0  0  0  0  0  0  0
   -3.4760   -1.0980    0.3800 N   0  0  0  0  0  0  0  0  0  0  0  0
   -4.2700   -0.0050    0.8650 C   0  0  0  0  0  0  0  0  0  0  0  0
   -3.8300    1.1620    0.7890 O   0  0  0  0  0  0  0  0  0  0  0  0
   -5.8540   -0.3210    1.5590 Cl  0  0  0  0  0  0  0  0  0  0  0  0
   -1.8300   -1.8660   -0.8980 O   0  0  0  0  0  0  0  0  0  0  0  0
   -2.8610   -2.2850   -1.6930 C   0  0  0  0  0  0  0  0  0  0  0  0
   -3.7920   -1.2260   -2.1490 C   0  0  0  0  0  0  0  0  0  0  0  0
   -3.5990    0.0100   -1.5820 O   0  0  0  0  0  0  0  0  0  0  0  0
   -2.4440    0.2140   -1.0540 O   0  0  0  0  0  0  0  0  0  0  0  0
    0.2780   -1.3850    0.8020 S   0  0  0  0  0  0  0  0  0  0  0  0
    1.5050   -0.2910    0.0560 C   0  0  1  0  0  0  0  0  0  0  0  0
    2.7980   -0.6140    0.2290 O   0  0  0  0  0  0  0  0  0  0  0  0
    3.2480   -1.8160   -0.2360 C   0  0  1  0  0  0  0  0  0  0  0  0
    4.3330   -1.5010   -1.2810 C   0  0  0  0  0  0  0  0  0  0  0  0
    3.9340   -2.5490    0.8970 C   0  0  0  0  0  0  0  0  0  0  0  0
    1.0680   -0.0040   -1.3380 C   0  0  0  0  0  0  0  0  0  0  0  0
    0.0560    0.9100   -1.2600 O   0  0  0  0  0  0  0  0  0  0  0  0
    1.2780    1.0850    0.7070 C   0  0  1  0  0  0  0  0  0  0  0  0
    2.3310    1.9220    0.4930 O   0  0  0  0  0  0  0  0  0  0  0  0
  1  2  1  0
  2  3  1  0
  4  3  1  6
  4  5  1  0
  4 27  1  0
  4 28  1  0
  5  6  1  0
  6  7  1  1
  6 10  1  0
  6 20  1  0
  7  8  1  0
  8  9  1  0
 10 11  1  1
 10 15  1  0
 10 19  1  0
 11 12  1  0
 12 13  2  0
 12 14  1  0
 15 16  1  0
 16 17  1  0
 17 18  1  0
 18 19  1  0
 20 21  1  0
 21 22  1  6
 21 26  1  0
 21 28  1  0
 22 23  1  0
 23 24  1  6
 23 25  1  0
 26 27  1  0
 28 29  1  6
M  CHG  2   2   1  10   1
M  END
