
     RDKit          3D

 27 27  0  0  0  0  0  0  0  0999 V2000
    4.8530   -0.5370    2.9820 C   0  0  0  0  0  0  0  0  0  0  0  0
    4.5360   -0.7240    1.7170 C   0  0  0  0  0  0  0  0  0  0  0  0
    3.5430   -0.1050    0.9740 O   0  0  0  0  0  0  0  0  0  0  0  0
    3.5280   -0.5780   -0.3240 C   0  0  0  0  0  0  0  0  0  0  0  0
    2.6020   -0.1360   -1.3790 C   0  0  0  0  0  0  0  0  0  0  0  0
    1.2510   -0.3340   -1.1210 O   0  0  0  0  0  0  0  0  0  0  0  0
    0.5580    0.2280   -0.0660 C   0  0  0  0  0  0  0  0  0  0  0  0
    1.1860    0.9760    0.7190 O   0  0  0  0  0  0  0  0  0  0  0  0
   -0.9040   -0.0560    0.1210 C   0  0  1  0  0  0  0  0  0  0  0  0
   -1.1540   -1.7770    0.4340 Cl  0  0  0  0  0  0  0  0  0  0  0  0
   -1.3370    0.6710    1.2970 N   0  0  0  0  0  0  0  0  0  0  0  0
   -1.2310    0.1400    2.4440 N   0  0  0  0  0  0  0  0  0  0  0  0
   -1.6880    0.9420    3.5490 C   0  0  0  0  0  0  0  0  0  0  0  0
   -2.8150    1.7940    3.3540 N   0  0  0  0  0  0  0  0  0  0  0  0
   -1.0880    0.8660    4.6380 O   0  0  0  0  0  0  0  0  0  0  0  0
   -1.6750    0.4120   -1.1190 C   0  0  2  0  0  0  0  0  0  0  0  0
   -3.0220    0.2110   -0.9690 O   0  0  0  0  0  0  0  0  0  0  0  0
   -3.6660    0.6250   -2.0570 N   0  0  0  0  0  0  0  0  0  0  0  0
   -1.1260   -0.2640   -2.2030 O   0  0  0  0  0  0  0  0  0  0  0  0
   -1.2480   -1.9450   -2.0780 S   0  0  0  0  0  0  0  0  0  0  0  0
   -2.9620   -2.5250   -2.2070 C   0  0  0  0  0  0  0  0  0  0  0  0
   -1.4140    1.8640   -1.2540 C   0  0  0  0  0  0  0  0  0  0  0  0
   -2.4940    2.7860   -1.2160 N   0  0  0  0  0  0  0  0  0  0  0  0
   -0.2560    2.3310   -1.4050 O   0  0  0  0  0  0  0  0  0  0  0  0
    4.4780   -1.4910   -0.4720 C   0  0  0  0  0  0  0  0  0  0  0  0
    5.1830   -1.6540    0.7960 C   0  0  0  0  0  0  0  0  0  0  0  0
    6.1410   -2.4190    1.0630 O   0  0  0  0  0  0  0  0  0  0  0  0
  1  2  2  0
  2  3  1  0
  2 26  1  0
  3  4  1  0
  4  5  1  0
  4 25  2  0
  5  6  1  0
  6  7  1  0
  7  8  2  0
  7  9  1  0
  9 10  1  1
  9 11  1  0
  9 16  1  0
 11 12  2  3
 12 13  1  0
 13 14  1  0
 13 15  2  0
 16 17  1  1
 16 19  1  0
 16 22  1  0
 17 18  1  0
 19 20  1  0
 20 21  1  0
 22 23  1  0
 22 24  2  0
 25 26  1  0
 26 27  2  0
M  END
