
     RDKit          3D

 29 30  0  0  0  0  0  0  0  0999 V2000
    3.8820    1.1820   -2.1640 N   0  0  0  0  0  0  0  0  0  0  0  0
    2.8440    0.9860   -1.2230 C   0  0  0  0  0  0  0  0  0  0  0  0
    2.9660    0.1110   -0.2760 C   0  0  0  0  0  0  0  0  0  0  0  0
    4.1000   -0.7780   -0.0070 C   0  0  0  0  0  0  0  0  0  0  0  0
    5.2190   -0.8870   -0.6450 N   0  0  0  0  0  0  0  0  0  0  0  0
    3.6850   -1.4910    1.1160 O   0  0  0  0  0  0  0  0  0  0  0  0
    2.4160   -1.0890    1.5110 C   0  0  0  0  0  0  0  0  0  0  0  0
    1.6710   -1.6560    2.6900 C   0  0  0  0  0  0  0  0  0  0  0  0
    1.4970   -3.0090    2.4890 O   0  0  0  0  0  0  0  0  0  0  0  0
    1.9240   -0.1450    0.7370 C   0  0  0  0  0  0  0  0  0  0  0  0
    0.6850    0.4820    0.8470 O   0  0  0  0  0  0  0  0  0  0  0  0
   -0.4610    0.0500    0.2390 C   0  0  0  0  0  0  0  0  0  0  0  0
   -0.4030   -0.9810   -0.4660 O   0  0  0  0  0  0  0  0  0  0  0  0
   -1.7760    0.7290    0.3610 C   0  0  1  0  0  0  0  0  0  0  0  0
   -1.7120    2.1560   -0.1410 C   0  0  0  0  0  0  0  0  0  0  0  0
   -0.7530    2.8050    0.6560 O   0  0  0  0  0  0  0  0  0  0  0  0
   -2.8560   -0.0610   -0.2780 C   0  0  0  0  0  0  0  0  0  0  0  0
   -2.5820   -0.7030   -1.5520 N   0  0  0  0  0  0  0  0  0  0  0  0
   -3.3390   -0.7200   -2.5510 C   0  0  0  0  0  0  0  0  0  0  0  0
   -4.5690   -0.0900   -2.5210 O   0  0  0  0  0  0  0  0  0  0  0  0
   -4.6630    1.5270   -1.8770 Cl  0  0  0  0  0  0  0  0  0  0  0  0
   -2.9050   -1.3900   -3.6870 O   0  0  0  0  0  0  0  0  0  0  0  0
   -1.8070   -2.2280   -3.6700 N   0  0  0  0  0  0  0  0  0  0  0  0
   -2.0070   -3.4310   -3.4060 O   0  0  0  0  0  0  0  0  0  0  0  0
   -3.9430   -0.1310    0.3290 N   0  0  0  0  0  0  0  0  0  0  0  0
   -4.1040    0.5240    1.5700 C   0  0  0  0  0  0  0  0  0  0  0  0
   -2.3700    0.7440    2.0370 S   0  0  1  0  0  0  0  0  0  0  0  0
   -1.9250   -0.4380    2.8230 O   0  0  0  0  0  0  0  0  0  0  0  0
   -2.1620    2.0410    2.7100 O   0  0  0  0  0  0  0  0  0  0  0  0
  1  2  1  0
  2  3  2  3
  3  4  1  0
  3 10  1  0
  4  5  2  0
  4  6  1  0
  6  7  1  0
  7  8  1  0
  7 10  2  0
  8  9  1  0
 10 11  1  0
 11 12  1  0
 12 13  2  0
 12 14  1  0
 14 15  1  6
 14 17  1  0
 14 27  1  0
 15 16  1  0
 17 18  1  0
 17 25  2  0
 18 19  2  3
 19 20  1  0
 19 22  1  0
 20 21  1  0
 22 23  1  0
 23 24  2  0
 25 26  1  0
 27 26  1  6
 27 28  2  0
 27 29  2  0
M  CHG  1   5   1
M  END
