
     RDKit          3D

 30 31  0  0  0  0  0  0  0  0999 V2000
   -3.3420    2.4750   -1.2780 C   0  0  0  0  0  0  0  0  0  0  0  0
   -2.6630    1.4300   -0.8310 C   0  0  0  0  0  0  0  0  0  0  0  0
   -3.2260    0.2020   -0.2840 C   0  0  0  0  0  0  0  0  0  0  0  0
   -4.4740   -0.1010   -0.1340 C   0  0  0  0  0  0  0  0  0  0  0  0
   -5.6990   -0.2640   -0.1910 O   0  0  0  0  0  0  0  0  0  0  0  0
   -2.0780   -0.6320    0.0610 N   0  0  0  0  0  0  0  0  0  0  0  0
   -2.2200   -1.6610    1.0720 C   0  0  1  0  0  0  0  0  0  0  0  0
   -3.5370   -2.4030    0.8170 C   0  0  0  0  0  0  0  0  0  0  0  0
   -1.1660   -2.6660    1.1210 C   0  0  0  0  0  0  0  0  0  0  0  0
   -0.3080   -2.7950    0.3140 O   0  0  0  0  0  0  0  0  0  0  0  0
   -2.3520   -1.0000    2.4220 C   0  0  0  0  0  0  0  0  0  0  0  0
   -3.4730   -0.1820    2.4110 O   0  0  0  0  0  0  0  0  0  0  0  0
   -1.0710   -0.1680   -0.7310 N   0  0  2  0  0  0  0  0  0  0  0  0
   -1.2570   -0.6840   -1.9940 O   0  0  0  0  0  0  0  0  0  0  0  0
   -0.1390   -0.4860   -2.6090 O   0  0  0  0  0  0  0  0  0  0  0  0
    0.8380   -0.4910   -1.6480 C   0  0  1  0  0  0  0  0  0  0  0  0
    1.7180   -1.6290   -1.7670 N   0  0  0  0  0  0  0  0  0  0  0  0
    2.4110   -1.8630   -0.8310 O   0  0  0  0  0  0  0  0  0  0  0  0
    1.5750    0.7360   -1.7980 N   0  0  0  0  0  0  0  0  0  0  0  0
    3.1060    0.8770   -1.9380 S   0  0  0  0  0  0  0  0  0  0  0  0
    3.4530    2.5580   -2.0870 O   0  0  0  0  0  0  0  0  0  0  0  0
    3.9830    0.2350   -0.6320 O   0  0  0  0  0  0  0  0  0  0  0  0
    5.2760   -0.0330   -1.1150 C   0  0  1  0  0  0  0  0  0  0  0  0
    6.0770   -0.6040    0.0200 C   0  0  0  0  0  0  0  0  0  0  0  0
    5.1530   -0.9070   -2.1890 O   0  0  0  0  0  0  0  0  0  0  0  0
    6.0400    1.4540   -1.7260 Cl  0  0  0  0  0  0  0  0  0  0  0  0
    0.1840   -0.4710   -0.4330 O   0  0  0  0  0  0  0  0  0  0  0  0
   -1.2650    1.2330   -0.7670 N   0  0  0  0  0  0  0  0  0  0  0  0
   -0.3550    2.2330   -0.7470 O   0  0  0  0  0  0  0  0  0  0  0  0
   -0.4420    2.9980    0.4130 C   0  0  0  0  0  0  0  0  0  0  0  0
  1  2  2  0
  2  3  1  0
  2 28  1  0
  3  4  2  0
  3  6  1  0
  4  5  2  0
  6  7  1  0
  6 13  1  0
  7  8  1  6
  7  9  1  0
  7 11  1  0
  9 10  2  0
 11 12  1  0
 13 14  1  6
 13 27  1  0
 13 28  1  0
 14 15  1  0
 15 16  1  0
 16 17  1  1
 16 19  1  0
 16 27  1  0
 17 18  2  0
 19 20  2  3
 20 21  1  1
 20 22  1  0
 22 23  1  0
 23 24  1  1
 23 25  1  0
 23 26  1  0
 28 29  1  0
 29 30  1  0
M  CHG  1  13   1
M  END
