
     RDKit          3D

 30 33  0  0  0  0  0  0  0  0999 V2000
   -4.0410    0.1710   -2.4710 O   0  0  0  0  0  0  0  0  0  0  0  0
   -3.0430   -0.4000   -1.9470 C   0  0  0  0  0  0  0  0  0  0  0  0
   -1.9840   -0.9990   -2.6760 O   0  0  0  0  0  0  0  0  0  0  0  0
   -0.7750   -0.5650   -1.9840 C   0  0  2  0  0  0  0  0  0  0  0  0
    0.3240   -1.4590   -2.4110 C   0  0  0  0  0  0  0  0  0  0  0  0
    1.6210   -1.2190   -1.9190 N   0  0  1  0  0  0  0  0  0  0  0  0
    2.0510    0.1670   -1.8920 C   0  0  0  0  0  0  0  0  0  0  0  0
    3.5660    0.1220   -1.8230 C   0  0  0  0  0  0  0  0  0  0  0  0
    4.1370   -0.6890   -0.7370 C   0  0  1  0  0  0  0  0  0  0  0  0
    4.4370    0.1330    0.4500 C   0  0  0  0  0  0  0  0  0  0  0  0
    4.0650    1.4420    0.6140 C   0  0  0  0  0  0  0  0  0  0  0  0
    4.3780    2.1630    1.7730 C   0  0  0  0  0  0  0  0  0  0  0  0
    5.0720    1.5780    2.7860 C   0  0  0  0  0  0  0  0  0  0  0  0
    5.4630    0.2580    2.6510 C   0  0  0  0  0  0  0  0  0  0  0  0
    5.1500   -0.4360    1.5120 C   0  0  0  0  0  0  0  0  0  0  0  0
    5.5570   -1.7240    1.4230 F   0  0  0  0  0  0  0  0  0  0  0  0
    3.3250   -1.8580   -0.2870 C   0  0  0  0  0  0  0  0  0  0  0  0
    1.8550   -1.7360   -0.6140 C   0  0  0  0  0  0  0  0  0  0  0  0
   -1.1800   -0.7040   -0.5270 C   0  0  0  0  0  0  0  0  0  0  0  0
   -2.6770   -0.6130   -0.5330 C   0  0  1  0  0  0  0  0  0  0  0  0
   -3.1430    0.4210    0.3580 N   0  0  0  0  0  0  0  0  0  0  0  0
   -4.4880    0.6750    0.6970 C   0  0  0  0  0  0  0  0  0  0  0  0
   -5.4750   -0.1620    0.2440 C   0  0  0  0  0  0  0  0  0  0  0  0
   -6.8220    0.0390    0.5670 C   0  0  0  0  0  0  0  0  0  0  0  0
   -8.0440   -1.0600   -0.0390 Cl  0  0  0  0  0  0  0  0  0  0  0  0
   -7.1470    1.1210    1.3690 C   0  0  0  0  0  0  0  0  0  0  0  0
   -6.1780    1.9760    1.8380 C   0  0  0  0  0  0  0  0  0  0  0  0
   -6.4850    3.0820    2.6540 O   0  0  0  0  0  0  0  0  0  0  0  0
   -4.8630    1.7390    1.4940 C   0  0  0  0  0  0  0  0  0  0  0  0
   -3.9040    2.5740    1.9500 F   0  0  0  0  0  0  0  0  0  0  0  0
  1  2  2  0
  2  3  1  0
  2 20  1  0
  3  4  1  0
  4  5  1  1
  4 19  1  0
  6  5  1  1
  6  7  1  0
  6 18  1  0
  7  8  1  0
  8  9  1  0
  9 10  1  1
  9 17  1  0
 10 11  2  0
 10 15  1  0
 11 12  1  0
 12 13  2  0
 13 14  1  0
 14 15  2  0
 15 16  1  0
 17 18  1  0
 19 20  1  0
 20 21  1  1
 21 22  1  0
 22 23  2  0
 22 29  1  0
 23 24  1  0
 24 25  1  0
 24 26  2  0
 26 27  1  0
 27 28  1  0
 27 29  2  0
 29 30  1  0
M  CHG  1   6   1
M  END
