
     RDKit          3D

 29 32  0  0  0  0  0  0  0  0999 V2000
    6.3910   -1.2290    0.2200 C   0  0  0  0  0  0  0  0  0  0  0  0
    5.0830   -0.9620   -0.4810 C   0  0  0  0  0  0  0  0  0  0  0  0
    3.9770   -1.4440    0.4310 C   0  0  0  0  0  0  0  0  0  0  0  0
    2.6050   -1.2040   -0.2160 C   0  0  1  0  0  0  0  0  0  0  0  0
    1.5870   -1.7150    0.7670 C   0  0  0  0  0  0  0  0  0  0  0  0
    0.2020   -1.5100    0.3530 C   0  0  0  0  0  0  0  0  0  0  0  0
   -0.7260   -2.5070    0.2340 C   0  0  0  0  0  0  0  0  0  0  0  0
   -0.5350   -3.9510    0.5240 C   0  0  0  0  0  0  0  0  0  0  0  0
   -1.8800   -1.8950   -0.2160 C   0  0  0  0  0  0  0  0  0  0  0  0
   -1.6560   -0.5120   -0.3740 C   0  0  0  0  0  0  0  0  0  0  0  0
   -0.3970   -0.3450   -0.0160 N   0  0  0  0  0  0  0  0  0  0  0  0
    0.2400    0.9250   -0.0070 C   0  0  0  0  0  0  0  0  0  0  0  0
   -0.6580    1.9240    0.2650 C   0  0  0  0  0  0  0  0  0  0  0  0
   -0.1730    3.2120    0.2650 C   0  0  0  0  0  0  0  0  0  0  0  0
   -1.3020    4.5100    0.6070 Cl  0  0  0  0  0  0  0  0  0  0  0  0
    1.1580    3.4640    0.0030 C   0  0  0  0  0  0  0  0  0  0  0  0
    1.6700    4.8370    0.0030 C   0  0  0  0  0  0  0  0  0  0  0  0
    0.7700    5.8940    0.2770 N   0  0  0  0  0  0  0  0  0  0  0  0
    2.8670    5.0600   -0.2330 O   0  0  0  0  0  0  0  0  0  0  0  0
    2.0440    2.4140   -0.2670 C   0  0  0  0  0  0  0  0  0  0  0  0
    1.5850    1.1340   -0.2720 C   0  0  0  0  0  0  0  0  0  0  0  0
    2.5430    0.1420   -0.5470 O   0  0  0  0  0  0  0  0  0  0  0  0
   -2.7670    0.2320   -0.8920 C   0  0  0  0  0  0  0  0  0  0  0  0
   -4.0460   -0.1260   -0.1120 C   0  0  2  0  0  0  0  0  0  0  0  0
   -5.1550    0.7340   -0.7030 C   0  0  0  0  0  0  0  0  0  0  0  0
   -3.9520    0.1580    1.3350 C   0  0  0  0  0  0  0  0  0  0  0  0
   -4.3800   -1.5670   -0.3200 C   0  0  0  0  0  0  0  0  0  0  0  0
   -3.1960   -2.4330   -0.5150 C   0  0  0  0  0  0  0  0  0  0  0  0
   -3.3070   -3.6270   -0.9340 O   0  0  0  0  0  0  0  0  0  0  0  0
  1  2  1  0
  2  3  1  0
  4  3  1  1
  4  5  1  0
  4 22  1  0
  5  6  1  0
  6  7  2  0
  6 11  1  0
  7  8  1  0
  7  9  1  0
  9 10  2  0
  9 28  1  0
 10 11  1  0
 10 23  1  0
 11 12  1  0
 12 13  2  0
 12 21  1  0
 13 14  1  0
 14 15  1  0
 14 16  2  0
 16 17  1  0
 16 20  1  0
 17 18  1  0
 17 19  2  0
 20 21  2  0
 21 22  1  0
 23 24  1  0
 24 25  1  6
 24 26  1  0
 24 27  1  0
 27 28  1  0
 28 29  2  0
M  END
