
     RDKit          3D

 30 30  0  0  0  0  0  0  0  0999 V2000
    2.7220    1.1460   -0.9600 C   0  0  0  0  0  0  0  0  0  0  0  0
    2.8280    0.1080    0.1100 C   0  0  1  0  0  0  0  0  0  0  0  0
    2.5400    0.6280    1.5010 C   0  0  0  0  0  0  0  0  0  0  0  0
    3.6730    1.9120    1.9570 S   0  0  1  0  0  0  0  0  0  0  0  0
    3.6180    3.0920    1.0560 O   0  0  0  0  0  0  0  0  0  0  0  0
    3.3630    2.3370    3.3780 O   0  0  0  0  0  0  0  0  0  0  0  0
    5.2350    1.2970    1.9240 O   0  0  0  0  0  0  0  0  0  0  0  0
    1.9440   -1.0020   -0.1760 N   0  0  0  0  0  0  0  0  0  0  0  0
    2.2090   -1.8850   -1.6470 Cl  0  0  0  0  0  0  0  0  0  0  0  0
    0.9550   -1.3500    0.6770 N   0  0  0  0  0  0  0  0  0  0  0  0
   -0.2950   -1.3700    0.6440 C   0  0  0  0  0  0  0  0  0  0  0  0
   -1.1520   -1.9310    2.0640 Cl  0  0  0  0  0  0  0  0  0  0  0  0
   -1.0860   -0.9580   -0.5200 C   0  0  1  0  0  0  0  0  0  0  0  0
   -0.1620   -0.3250   -1.4510 N   0  0  0  0  0  0  0  0  0  0  0  0
   -0.6300   -0.0230   -2.5060 O   0  0  0  0  0  0  0  0  0  0  0  0
   -1.6760   -2.1000   -1.2790 C   0  0  0  0  0  0  0  0  0  0  0  0
   -1.2600   -2.3420   -2.4710 O   0  0  0  0  0  0  0  0  0  0  0  0
   -2.7010   -2.9780   -0.7850 C   0  0  0  0  0  0  0  0  0  0  0  0
   -3.1720   -2.8180    0.3520 O   0  0  0  0  0  0  0  0  0  0  0  0
   -3.1980   -4.0740   -1.6250 C   0  0  0  0  0  0  0  0  0  0  0  0
   -4.2170   -4.8510   -0.9880 N   0  0  0  0  0  0  0  0  0  0  0  0
   -3.8470   -5.8440   -0.4050 O   0  0  0  0  0  0  0  0  0  0  0  0
   -2.1270    0.0940   -0.2150 C   0  0  2  0  0  0  0  0  0  0  0  0
   -3.1580   -0.2250    0.6760 O   0  0  0  0  0  0  0  0  0  0  0  0
   -2.6590    0.8670   -1.3880 C   0  0  0  0  0  0  0  0  0  0  0  0
   -3.3220    0.9170   -2.4490 O   0  0  0  0  0  0  0  0  0  0  0  0
   -1.7870    1.5050   -0.3030 C   0  0  0  0  0  0  0  0  0  0  0  0
   -1.3270    2.7010   -0.1080 N   0  0  0  0  0  0  0  0  0  0  0  0
   -0.5000    2.9700    1.0740 C   0  0  0  0  0  0  0  0  0  0  0  0
   -0.9420    4.0960    1.7610 O   0  0  0  0  0  0  0  0  0  0  0  0
  2  1  1  6
  2  3  1  0
  2  8  1  0
  3  4  1  0
  4  5  2  0
  4  6  2  0
  4  7  1  1
  8  9  1  0
  8 10  1  0
 10 11  2  3
 11 12  1  0
 11 13  1  0
 13 14  1  6
 13 16  1  0
 13 23  1  0
 14 15  2  0
 16 17  2  0
 16 18  1  0
 18 19  2  0
 18 20  1  0
 20 21  1  0
 21 22  2  0
 23 24  1  1
 23 25  1  0
 23 27  1  0
 25 26  2  0
 25 27  1  0
 27 28  2  3
 28 29  1  0
 29 30  1  0
M  CHG  1  28   1
M  END
