
     RDKit          3D

 31 32  0  0  0  0  0  0  0  0999 V2000
    0.7820    1.1190    1.3430 N   0  0  0  0  0  0  0  0  0  0  0  0
    0.2780   -0.1930    1.1020 C   0  0  1  0  0  0  0  0  0  0  0  0
   -1.0210   -0.1180    0.4010 C   0  0  0  0  0  0  0  0  0  0  0  0
   -1.6860   -1.1310    0.0660 O   0  0  0  0  0  0  0  0  0  0  0  0
   -1.5230    1.1350    0.1020 O   0  0  0  0  0  0  0  0  0  0  0  0
   -2.7280    1.3720   -0.5520 C   0  0  0  0  0  0  0  0  0  0  0  0
   -3.8370    0.8020    0.2200 C   0  0  0  0  0  0  0  0  0  0  0  0
   -3.6050    0.2120    1.2960 O   0  0  0  0  0  0  0  0  0  0  0  0
   -5.1480    0.9010   -0.2150 O   0  0  0  0  0  0  0  0  0  0  0  0
   -6.1660    0.3280    0.5810 C   0  0  1  0  0  0  0  0  0  0  0  0
   -7.1350    1.4000    0.9560 C   0  0  0  0  0  0  0  0  0  0  0  0
   -6.9680    2.5810    0.5690 O   0  0  0  0  0  0  0  0  0  0  0  0
   -8.2460    1.1060    1.7450 O   0  0  0  0  0  0  0  0  0  0  0  0
   -6.9230   -0.7050   -0.2310 C   0  0  2  0  0  0  0  0  0  0  0  0
   -7.9090   -1.2440    0.5780 O   0  0  0  0  0  0  0  0  0  0  0  0
   -6.0730   -1.7050   -0.6970 O   0  0  0  0  0  0  0  0  0  0  0  0
   -7.5000   -0.0160   -1.4490 C   0  0  0  0  0  0  0  0  0  0  0  0
   -8.3340    1.0100   -1.0440 O   0  0  0  0  0  0  0  0  0  0  0  0
    1.2950   -1.0130    0.3350 C   0  0  2  0  0  0  0  0  0  0  0  0
    2.4810   -1.2130    1.2440 C   0  0  0  0  0  0  0  0  0  0  0  0
    3.5730   -1.7600    0.6150 O   0  0  0  0  0  0  0  0  0  0  0  0
    3.8160   -1.2250   -0.6410 C   0  0  2  0  0  0  0  0  0  0  0  0
    5.2820   -0.9830   -0.8030 C   0  0  1  0  0  0  0  0  0  0  0  0
    5.5670   -0.4460   -2.0520 O   0  0  0  0  0  0  0  0  0  0  0  0
    5.8820   -0.1090    0.2500 C   0  0  2  0  0  0  0  0  0  0  0  0
    5.3770    1.1890    0.2020 O   0  0  0  0  0  0  0  0  0  0  0  0
    7.3760   -0.0100   -0.0350 C   0  0  1  0  0  0  0  0  0  0  0  0
    8.2150    0.8150    0.8810 C   0  0  0  0  0  0  0  0  0  0  0  0
    8.3270   -0.6920    0.8760 C   0  0  0  0  0  0  0  0  0  0  0  0
    2.9520   -0.0520   -0.9650 C   0  0  0  0  0  0  0  0  0  0  0  0
    1.6190   -0.4730   -0.8880 O   0  0  0  0  0  0  0  0  0  0  0  0
  2  1  1  6
  2  3  1  0
  2 19  1  0
  3  4  2  0
  3  5  1  0
  5  6  1  0
  6  7  1  0
  7  8  2  0
  7  9  1  0
 10  9  1  6
 10 11  1  0
 10 14  1  0
 11 12  2  0
 11 13  1  0
 14 15  1  1
 14 16  1  0
 14 17  1  0
 17 18  1  0
 19 20  1  1
 19 31  1  0
 20 21  1  0
 21 22  1  0
 22 23  1  0
 22 30  1  1
 23 24  1  6
 23 25  1  0
 25 26  1  6
 25 27  1  0
 27 28  1  1
 27 29  1  0
 28 29  1  0
 30 31  1  0
M  END
