
     RDKit          3D

 32 36  0  0  0  0  0  0  0  0999 V2000
   -1.4660   -3.6480   -1.9640 C   0  0  0  0  0  0  0  0  0  0  0  0
   -1.4980   -2.4530   -1.0900 C   0  0  0  0  0  0  0  0  0  0  0  0
   -2.5910   -1.7170   -0.6880 C   0  0  0  0  0  0  0  0  0  0  0  0
   -2.1670   -0.6670    0.1370 C   0  0  0  0  0  0  0  0  0  0  0  0
   -0.8430   -0.8200    0.1930 N   0  0  0  0  0  0  0  0  0  0  0  0
   -0.3980   -1.8710   -0.5240 C   0  0  0  0  0  0  0  0  0  0  0  0
    1.0410   -2.2880   -0.6640 C   0  0  0  0  0  0  0  0  0  0  0  0
    1.9270   -1.2730   -1.2790 C   0  0  0  0  0  0  0  0  0  0  0  0
    2.0150   -0.0130   -0.5960 N   0  0  0  0  0  0  0  0  0  0  0  0
    2.9500    0.9820   -1.0970 C   0  0  0  0  0  0  0  0  0  0  0  0
    4.3450    0.5760   -0.8120 C   0  0  0  0  0  0  0  0  0  0  0  0
    5.5230    1.2110   -1.1420 C   0  0  0  0  0  0  0  0  0  0  0  0
    6.5750    0.4570   -0.6640 C   0  0  0  0  0  0  0  0  0  0  0  0
    5.9680   -0.6250   -0.0530 C   0  0  0  0  0  0  0  0  0  0  0  0
    4.6730   -0.5140   -0.1630 O   0  0  0  0  0  0  0  0  0  0  0  0
    1.2880    0.4080    0.5520 C   0  0  0  0  0  0  0  0  0  0  0  0
    1.9790    1.2680    1.3640 C   0  0  0  0  0  0  0  0  0  0  0  0
    1.3990    1.7540    2.5050 C   0  0  0  0  0  0  0  0  0  0  0  0
    2.1550    2.6640    3.3430 C   0  0  0  0  0  0  0  0  0  0  0  0
    3.4710    3.0370    2.9860 N   0  0  0  0  0  0  0  0  0  0  0  0
    1.6930    3.1600    4.4100 O   0  0  0  0  0  0  0  0  0  0  0  0
    0.1000    1.3860    2.8640 C   0  0  0  0  0  0  0  0  0  0  0  0
   -0.6430    2.0080    4.3240 Cl  0  0  0  0  0  0  0  0  0  0  0  0
   -0.6460    0.5050    2.0640 C   0  0  0  0  0  0  0  0  0  0  0  0
   -0.0180    0.0570    0.9420 C   0  0  0  0  0  0  0  0  0  0  0  0
   -3.1640    0.2850    0.6610 C   0  0  0  0  0  0  0  0  0  0  0  0
   -4.2820    0.4630   -0.4000 C   0  0  2  0  0  0  0  0  0  0  0  0
   -3.7220    0.8030   -1.7380 C   0  0  0  0  0  0  0  0  0  0  0  0
   -5.2100    1.5150    0.1690 C   0  0  0  0  0  0  0  0  0  0  0  0
   -5.0010   -0.8940   -0.4240 C   0  0  0  0  0  0  0  0  0  0  0  0
   -4.0180   -1.8580   -0.9720 C   0  0  0  0  0  0  0  0  0  0  0  0
   -4.3620   -2.8350   -1.7010 O   0  0  0  0  0  0  0  0  0  0  0  0
  1  2  1  0
  2  3  1  0
  2  6  2  0
  3  4  2  0
  3 31  1  0
  4  5  1  0
  4 26  1  0
  5  6  1  0
  5 25  1  0
  6  7  1  0
  7  8  1  0
  8  9  1  0
  9 10  1  0
  9 16  1  0
 10 11  1  0
 11 12  2  0
 11 15  1  0
 12 13  1  0
 13 14  2  0
 14 15  1  0
 16 17  2  0
 16 25  1  0
 17 18  1  0
 18 19  1  0
 18 22  2  0
 19 20  1  0
 19 21  2  0
 22 23  1  0
 22 24  1  0
 24 25  2  0
 26 27  1  0
 27 28  1  6
 27 29  1  0
 27 30  1  0
 30 31  1  0
 31 32  2  0
M  END
