
     RDKit          3D

 33 36  0  0  0  0  0  0  0  0999 V2000
    4.3400    1.2010    2.6910 C   0  0  0  0  0  0  0  0  0  0  0  0
    4.0200    0.3940    1.5860 O   0  0  0  0  0  0  0  0  0  0  0  0
    5.0210   -0.0850    0.7620 C   0  0  0  0  0  0  0  0  0  0  0  0
    6.3440    0.2050    0.9970 C   0  0  0  0  0  0  0  0  0  0  0  0
    7.3600   -0.2790    0.1780 C   0  0  0  0  0  0  0  0  0  0  0  0
    8.7030   -0.0050    0.3880 O   0  0  0  0  0  0  0  0  0  0  0  0
    7.0190   -1.0700   -0.8980 C   0  0  0  0  0  0  0  0  0  0  0  0
    5.6920   -1.3540   -1.1260 C   0  0  0  0  0  0  0  0  0  0  0  0
    4.6590   -0.8820   -0.3220 C   0  0  0  0  0  0  0  0  0  0  0  0
    3.2660   -1.1650   -0.6340 C   0  0  0  0  0  0  0  0  0  0  0  0
    2.3840   -0.2620   -0.9720 C   0  0  0  0  0  0  0  0  0  0  0  0
    1.0370   -0.7200   -1.2390 N   0  0  0  0  0  0  0  0  0  0  0  0
    0.0170   -0.1660   -0.4310 C   0  0  0  0  0  0  0  0  0  0  0  0
    0.3380    0.6840    0.4660 O   0  0  0  0  0  0  0  0  0  0  0  0
   -1.3700   -0.5530   -0.6140 C   0  0  0  0  0  0  0  0  0  0  0  0
   -1.6960   -1.6430   -1.3780 C   0  0  0  0  0  0  0  0  0  0  0  0
   -3.0020   -2.0370   -1.5830 C   0  0  0  0  0  0  0  0  0  0  0  0
   -4.0040   -1.2980   -0.9930 C   0  0  0  0  0  0  0  0  0  0  0  0
   -5.3000   -1.6770   -1.1910 C   0  0  0  0  0  0  0  0  0  0  0  0
   -6.3590   -0.9590   -0.6160 C   0  0  0  0  0  0  0  0  0  0  0  0
   -7.6840   -1.3750   -0.8390 N   0  0  0  0  0  0  0  0  0  0  0  0
   -7.8920   -2.4810   -1.6240 O   0  0  0  0  0  0  0  0  0  0  0  0
   -6.0540    0.1540    0.1650 C   0  0  0  0  0  0  0  0  0  0  0  0
   -7.0670    0.8390    0.7140 N   0  0  0  0  0  0  0  0  0  0  0  0
   -6.8280    1.9240    1.4770 C   0  0  0  0  0  0  0  0  0  0  0  0
   -5.5370    2.3060    1.6780 C   0  0  0  0  0  0  0  0  0  0  0  0
   -4.4650    1.6350    1.1370 C   0  0  0  0  0  0  0  0  0  0  0  0
   -4.7180    0.5300    0.3590 C   0  0  0  0  0  0  0  0  0  0  0  0
   -3.6960   -0.1800   -0.2080 C   0  0  0  0  0  0  0  0  0  0  0  0
   -2.3920    0.1910   -0.0200 C   0  0  0  0  0  0  0  0  0  0  0  0
    2.6310    1.1410   -1.1910 C   0  0  0  0  0  0  0  0  0  0  0  0
    3.9030    1.7150   -1.0960 N   0  0  0  0  0  0  0  0  0  0  0  0
    1.6690    1.8990   -1.4860 O   0  0  0  0  0  0  0  0  0  0  0  0
  1  2  1  0
  2  3  1  0
  3  4  2  0
  3  9  1  0
  4  5  1  0
  5  6  1  0
  5  7  2  0
  7  8  1  0
  8  9  2  0
  9 10  1  0
 10 11  2  3
 11 12  1  0
 11 31  1  0
 12 13  1  0
 13 14  2  0
 13 15  1  0
 15 16  2  0
 15 30  1  0
 16 17  1  0
 17 18  2  0
 18 19  1  0
 18 29  1  0
 19 20  2  0
 20 21  1  0
 20 23  1  0
 21 22  1  0
 23 24  2  0
 23 28  1  0
 24 25  1  0
 25 26  2  0
 26 27  1  0
 27 28  2  0
 28 29  1  0
 29 30  2  0
 31 32  1  0
 31 33  2  0
M  CHG  2  22  -1  24   1
M  END
