
     RDKit          3D

 33 36  0  0  0  0  0  0  0  0999 V2000
   -2.9400   -2.6370   -2.1220 C   0  0  0  0  0  0  0  0  0  0  0  0
   -3.3930   -1.5720   -1.2770 O   0  0  0  0  0  0  0  0  0  0  0  0
   -4.5860   -0.9260   -1.5250 C   0  0  0  0  0  0  0  0  0  0  0  0
   -5.2770   -1.3000   -2.5230 O   0  0  0  0  0  0  0  0  0  0  0  0
   -5.0360    0.1440   -0.6580 C   0  0  0  0  0  0  0  0  0  0  0  0
   -6.3640    0.5860   -0.8020 C   0  0  0  0  0  0  0  0  0  0  0  0
   -6.9360    1.4990    0.0460 C   0  0  0  0  0  0  0  0  0  0  0  0
   -8.3510    1.9080   -0.1870 C   0  0  0  0  0  0  0  0  0  0  0  0
   -6.1740    2.0000    1.0780 C   0  0  0  0  0  0  0  0  0  0  0  0
   -4.8690    1.6000    1.2590 C   0  0  0  0  0  0  0  0  0  0  0  0
   -4.0180    2.1140    2.3580 C   0  0  0  0  0  0  0  0  0  0  0  0
   -4.3180    0.6610    0.3640 C   0  0  0  0  0  0  0  0  0  0  0  0
   -2.9110    0.4040    0.5230 C   0  0  0  0  0  0  0  0  0  0  0  0
   -2.4500    0.1030    1.6720 O   0  0  0  0  0  0  0  0  0  0  0  0
   -1.9930    0.4810   -0.5540 N   0  0  0  0  0  0  0  0  0  0  0  0
   -0.6000    0.2410   -0.4630 C   0  0  0  0  0  0  0  0  0  0  0  0
    0.2770    0.3160   -1.4940 N   0  0  0  0  0  0  0  0  0  0  0  0
    1.5180    0.0330   -1.0820 C   0  0  0  0  0  0  0  0  0  0  0  0
    2.7600   -0.0450   -1.6530 C   0  0  0  0  0  0  0  0  0  0  0  0
    3.8910   -0.3760   -0.9270 C   0  0  0  0  0  0  0  0  0  0  0  0
    5.1300   -0.4410   -1.5630 O   0  0  0  0  0  0  0  0  0  0  0  0
    6.2520   -0.7740   -0.8170 C   0  0  0  0  0  0  0  0  0  0  0  0
    6.6050   -2.1010   -0.7020 C   0  0  0  0  0  0  0  0  0  0  0  0
    7.7150   -2.4440    0.0350 C   0  0  0  0  0  0  0  0  0  0  0  0
    8.4420   -1.4550    0.6350 C   0  0  0  0  0  0  0  0  0  0  0  0
    8.1150   -0.1040    0.5410 C   0  0  0  0  0  0  0  0  0  0  0  0
    8.8840    0.9010    1.1720 N   0  0  0  0  0  0  0  0  0  0  0  0
    8.5240    2.1900    1.0480 O   0  0  0  0  0  0  0  0  0  0  0  0
    7.0040    0.2260   -0.1980 C   0  0  0  0  0  0  0  0  0  0  0  0
    3.7460   -0.6330    0.4210 C   0  0  0  0  0  0  0  0  0  0  0  0
    2.4990   -0.5610    1.0300 C   0  0  0  0  0  0  0  0  0  0  0  0
    1.4020   -0.2310    0.2770 C   0  0  0  0  0  0  0  0  0  0  0  0
    0.0890   -0.0960    0.6320 N   0  0  0  0  0  0  0  0  0  0  0  0
  1  2  1  0
  2  3  1  0
  3  4  2  0
  3  5  1  0
  5  6  2  0
  5 12  1  0
  6  7  1  0
  7  8  1  0
  7  9  2  0
  9 10  1  0
 10 11  1  0
 10 12  2  0
 12 13  1  0
 13 14  2  0
 13 15  1  0
 15 16  1  0
 16 17  1  0
 16 33  2  0
 17 18  1  0
 18 19  2  0
 18 32  1  0
 19 20  1  0
 20 21  1  0
 20 30  2  0
 21 22  1  0
 22 23  2  0
 22 29  1  0
 23 24  1  0
 24 25  2  0
 25 26  1  0
 26 27  1  0
 26 29  2  0
 27 28  1  0
 30 31  1  0
 31 32  2  0
 32 33  1  0
M  CHG  2  28  -1  33   1
M  END
