
     RDKit          3D

 32 32  0  0  0  0  0  0  0  0999 V2000
   -6.2250   -1.2700    0.3670 O   0  0  0  0  0  0  0  0  0  0  0  0
   -5.4540   -1.9240   -0.3640 C   0  0  0  0  0  0  0  0  0  0  0  0
   -6.0830   -3.0180   -1.0110 O   0  0  0  0  0  0  0  0  0  0  0  0
   -4.0300   -1.6370   -0.5730 C   0  0  0  0  0  0  0  0  0  0  0  0
   -3.6390   -0.3380    0.0540 C   0  0  2  0  0  0  0  0  0  0  0  0
   -3.9570   -0.4290    1.4060 O   0  0  0  0  0  0  0  0  0  0  0  0
   -4.1920    0.8840   -0.5550 C   0  0  1  0  0  0  0  0  0  0  0  0
   -5.6010    0.9730   -0.4360 O   0  0  0  0  0  0  0  0  0  0  0  0
   -3.6520    2.2000   -0.1070 C   0  0  0  0  0  0  0  0  0  0  0  0
   -3.8960    2.5280    1.2080 O   0  0  0  0  0  0  0  0  0  0  0  0
   -2.0900   -0.2280    0.0860 C   0  0  1  0  0  0  0  0  0  0  0  0
   -1.8630    0.8870    0.8930 O   0  0  0  0  0  0  0  0  0  0  0  0
   -1.4590   -1.3980    0.7630 C   0  0  0  0  0  0  0  0  0  0  0  0
   -0.8250   -2.4190   -0.0940 C   0  0  0  0  0  0  0  0  0  0  0  0
    0.5180   -2.2230   -0.3530 O   0  0  0  0  0  0  0  0  0  0  0  0
    1.3630   -2.4940    0.6990 C   0  0  0  0  0  0  0  0  0  0  0  0
    2.5280   -1.5140    0.6890 C   0  0  0  0  0  0  0  0  0  0  0  0
    2.4870   -0.6340    1.7280 O   0  0  0  0  0  0  0  0  0  0  0  0
    2.8830    0.6520    1.5100 C   0  0  1  0  0  0  0  0  0  0  0  0
    3.7770    0.9380    2.5860 O   0  0  0  0  0  0  0  0  0  0  0  0
    3.6560    0.9330    0.2770 C   0  0  1  0  0  0  0  0  0  0  0  0
    4.5890   -0.0620    0.0310 O   0  0  0  0  0  0  0  0  0  0  0  0
    5.8950    0.3390    0.0820 C   0  0  0  0  0  0  0  0  0  0  0  0
    6.2880    1.3960   -0.8940 C   0  0  0  0  0  0  0  0  0  0  0  0
    7.6600    1.6640   -0.6780 O   0  0  0  0  0  0  0  0  0  0  0  0
    2.9360    1.2120   -0.9140 N   0  0  0  0  0  0  0  0  0  0  0  0
    1.6680    1.8040   -1.0870 C   0  0  0  0  0  0  0  0  0  0  0  0
    1.5400    2.8100   -1.8730 O   0  0  0  0  0  0  0  0  0  0  0  0
    0.4000    1.3850   -0.4390 C   0  0  0  0  0  0  0  0  0  0  0  0
   -0.5470    1.0440   -1.4320 O   0  0  0  0  0  0  0  0  0  0  0  0
   -1.5390    0.0960   -1.2440 C   0  0  0  0  0  0  0  0  0  0  0  0
   -1.9670   -0.4990   -2.2890 O   0  0  0  0  0  0  0  0  0  0  0  0
  1  2  2  0
  2  3  1  0
  2  4  1  0
  4  5  1  0
  5  6  1  1
  5  7  1  0
  5 11  1  0
  7  8  1  1
  7  9  1  0
  9 10  1  0
 11 12  1  1
 11 13  1  0
 11 31  1  0
 13 14  1  0
 14 15  1  0
 15 16  1  0
 16 17  1  0
 17 18  1  0
 18 19  1  0
 19 20  1  1
 19 21  1  0
 21 22  1  6
 21 26  1  0
 22 23  1  0
 23 24  1  0
 24 25  1  0
 26 27  1  0
 27 28  2  0
 27 29  1  0
 29 30  1  0
 30 31  1  0
 31 32  2  0
M  END
