
     RDKit          3D

 33 36  0  0  0  0  0  0  0  0999 V2000
   -1.9730   -2.1510   -2.0790 C   0  0  0  0  0  0  0  0  0  0  0  0
   -2.1390   -2.0740   -0.8120 C   0  0  0  0  0  0  0  0  0  0  0  0
   -2.5330   -1.1440    0.1820 C   0  0  0  0  0  0  0  0  0  0  0  0
   -2.6740   -1.6710    1.4100 N   0  0  0  0  0  0  0  0  0  0  0  0
   -2.4340   -3.0510    1.6350 C   0  0  0  0  0  0  0  0  0  0  0  0
   -3.0000    0.2170    0.1100 C   0  0  0  0  0  0  0  0  0  0  0  0
   -3.8670    0.5930    1.1660 C   0  0  0  0  0  0  0  0  0  0  0  0
   -4.4140    1.8460    1.2100 C   0  0  0  0  0  0  0  0  0  0  0  0
   -4.1250    2.7480    0.2270 C   0  0  0  0  0  0  0  0  0  0  0  0
   -3.2810    2.3950   -0.7940 C   0  0  0  0  0  0  0  0  0  0  0  0
   -2.9610    3.2850   -1.8150 O   0  0  0  0  0  0  0  0  0  0  0  0
   -2.6930    1.0970   -0.8530 C   0  0  0  0  0  0  0  0  0  0  0  0
   -1.7080    0.9580   -1.8800 C   0  0  0  0  0  0  0  0  0  0  0  0
   -2.0850    1.3810   -3.0410 O   0  0  0  0  0  0  0  0  0  0  0  0
   -0.3580    0.4360   -1.7900 C   0  0  0  0  0  0  0  0  0  0  0  0
    0.2860    0.1420   -0.6240 C   0  0  0  0  0  0  0  0  0  0  0  0
    1.6270   -0.2910   -0.5930 C   0  0  0  0  0  0  0  0  0  0  0  0
    2.1970   -0.5690    0.6160 O   0  0  0  0  0  0  0  0  0  0  0  0
    3.4470   -0.9750    0.9920 C   0  0  0  0  0  0  0  0  0  0  0  0
    4.5860   -0.0490    0.7190 C   0  0  0  0  0  0  0  0  0  0  0  0
    5.8860   -0.6600    1.1920 C   0  0  0  0  0  0  0  0  0  0  0  0
    6.7000   -1.4280    0.4810 N   0  0  0  0  0  0  0  0  0  0  0  0
    7.7410   -1.7750    1.2340 C   0  0  0  0  0  0  0  0  0  0  0  0
    7.5470   -1.1870    2.4610 C   0  0  0  0  0  0  0  0  0  0  0  0
    6.3980   -0.5050    2.4150 N   0  0  0  0  0  0  0  0  0  0  0  0
    5.8580    0.2260    3.4630 O   0  0  0  0  0  0  0  0  0  0  0  0
    2.3180   -0.4250   -1.7660 C   0  0  0  0  0  0  0  0  0  0  0  0
    1.6990   -0.1330   -2.9760 C   0  0  0  0  0  0  0  0  0  0  0  0
    0.3940    0.2840   -2.9580 C   0  0  0  0  0  0  0  0  0  0  0  0
   -0.2510    0.5840   -4.2060 N   0  0  0  0  0  0  0  0  0  0  0  0
   -4.8050    3.9600    0.4770 O   0  0  0  0  0  0  0  0  0  0  0  0
   -5.9560    3.5950    1.2550 C   0  0  0  0  0  0  0  0  0  0  0  0
   -5.3370    2.5470    2.1540 C   0  0  0  0  0  0  0  0  0  0  0  0
  1  2  2  0
  2  3  1  0
  3  4  2  3
  3  6  1  0
  4  5  1  0
  6  7  2  0
  6 12  1  0
  7  8  1  0
  8  9  2  0
  8 33  1  0
  9 10  1  0
  9 31  1  0
 10 11  1  0
 10 12  2  0
 12 13  1  0
 13 14  2  0
 13 15  1  0
 15 16  2  0
 15 29  1  0
 16 17  1  0
 17 18  1  0
 17 27  2  0
 18 19  1  0
 19 20  1  0
 20 21  1  0
 21 22  1  0
 21 25  2  0
 22 23  1  0
 23 24  2  0
 24 25  1  0
 25 26  1  0
 27 28  1  0
 28 29  2  0
 29 30  1  0
 31 32  1  0
 32 33  1  0
M  CHG  2  25   1  26  -1
M  END
