
     RDKit          3D

 30 32  0  0  0  0  0  0  0  0999 V2000
   -6.4770    0.7180   -0.0320 O   0  0  0  0  0  0  0  0  0  0  0  0
   -5.7260   -0.2630   -0.2720 C   0  0  0  0  0  0  0  0  0  0  0  0
   -6.2960   -1.4750   -0.6410 O   0  0  0  0  0  0  0  0  0  0  0  0
   -4.3140   -0.1360   -0.1670 N   0  0  0  0  0  0  0  0  0  0  0  0
   -3.6520   -1.1910    0.1390 C   0  0  0  0  0  0  0  0  0  0  0  0
   -4.2210   -2.4170    0.3680 O   0  0  0  0  0  0  0  0  0  0  0  0
   -3.5450   -3.6120    0.5880 C   0  0  0  0  0  0  0  0  0  0  0  0
   -2.1530   -3.5290    0.0120 C   0  0  0  0  0  0  0  0  0  0  0  0
   -1.5580   -2.3220    0.5980 N   0  0  0  0  0  0  0  0  0  0  0  0
   -2.1610   -1.0890    0.2560 C   0  0  0  0  0  0  0  0  0  0  0  0
   -1.5550    0.0500    0.0740 C   0  0  0  0  0  0  0  0  0  0  0  0
   -0.1910    0.4570    0.1130 C   0  0  0  0  0  0  0  0  0  0  0  0
    0.0260    1.7630   -0.1110 N   0  0  0  0  0  0  0  0  0  0  0  0
   -0.9970    2.6270   -0.3570 O   0  0  0  0  0  0  0  0  0  0  0  0
   -1.6960    3.3490    0.6320 C   0  0  0  0  0  0  0  0  0  0  0  0
   -2.7470    4.1860   -0.0600 C   0  0  1  0  0  0  0  0  0  0  0  0
   -2.1870    5.1720   -1.0510 C   0  0  0  0  0  0  0  0  0  0  0  0
   -2.9780    3.9690   -1.5010 C   0  0  0  0  0  0  0  0  0  0  0  0
    1.0260   -0.3330    0.3210 C   0  0  1  0  0  0  0  0  0  0  0  0
    1.2860   -1.3040   -0.7990 C   0  0  0  0  0  0  0  0  0  0  0  0
    2.1120   -2.3190   -0.3810 O   0  0  0  0  0  0  0  0  0  0  0  0
    3.4130   -2.0050   -0.8340 C   0  0  0  0  0  0  0  0  0  0  0  0
    4.0550   -1.1670    0.2470 C   0  0  1  0  0  0  0  0  0  0  0  0
    5.5650   -1.1020   -0.0050 C   0  0  0  0  0  0  0  0  0  0  0  0
    6.3640   -0.0740    1.3190 P   0  0  0  0  0  0  0  0  0  0  0  0
    7.3330   -1.0960    2.3670 O   0  0  0  0  0  0  0  0  0  0  0  0
    7.3860    1.1490    0.6110 O   0  0  0  0  0  0  0  0  0  0  0  0
    3.5110    0.1920    0.3490 C   0  0  0  0  0  0  0  0  0  0  0  0
    4.3520    1.1200    0.3230 O   0  0  0  0  0  0  0  0  0  0  0  0
    2.1590    0.5770    0.4730 N   0  0  0  0  0  0  0  0  0  0  0  0
  1  2  2  0
  2  3  1  0
  2  4  1  0
  4  5  2  3
  5  6  1  0
  5 10  1  0
  6  7  1  0
  7  8  1  0
  8  9  1  0
  9 10  1  0
 10 11  2  3
 11 12  1  0
 12 13  2  3
 19 12  1  6
 13 14  1  0
 14 15  1  0
 16 15  1  6
 16 17  1  0
 16 18  1  0
 17 18  1  0
 19 20  1  0
 19 30  1  0
 20 21  1  0
 21 22  1  0
 22 23  1  0
 23 24  1  6
 23 28  1  0
 24 25  1  0
 25 26  1  0
 25 27  1  0
 28 29  2  0
 28 30  1  0
M  END
