
     RDKit          3D

 31 33  0  0  0  0  0  0  0  0999 V2000
   -6.1070   -1.6210    2.0490 C   0  0  0  0  0  0  0  0  0  0  0  0
   -5.9110   -0.4750    1.0490 C   0  0  1  0  0  0  0  0  0  0  0  0
   -4.6830    0.2780    1.3380 C   0  0  0  0  0  0  0  0  0  0  0  0
   -4.5180    0.9440    2.3950 O   0  0  0  0  0  0  0  0  0  0  0  0
   -3.7980    0.0920    0.2320 N   0  0  0  0  0  0  0  0  0  0  0  0
   -2.4580    0.4630   -0.2620 C   0  0  0  0  0  0  0  0  0  0  0  0
   -1.5520    1.1220    0.6490 C   0  0  0  0  0  0  0  0  0  0  0  0
   -2.0980    1.7580    1.6600 O   0  0  0  0  0  0  0  0  0  0  0  0
   -0.1650    1.2130    0.6860 N   0  0  0  0  0  0  0  0  0  0  0  0
    0.5330    1.9950    1.7450 C   0  0  0  0  0  0  0  0  0  0  0  0
    2.0110    1.9030    1.5180 C   0  0  0  0  0  0  0  0  0  0  0  0
    2.4020    2.4040    0.2870 O   0  0  0  0  0  0  0  0  0  0  0  0
    4.1110    2.2580    0.1130 P   0  0  0  0  0  0  0  0  0  0  0  0
    4.8870    3.3700    1.1910 O   0  0  0  0  0  0  0  0  0  0  0  0
    4.6280    0.5060    0.4410 C   0  0  1  0  0  0  0  0  0  0  0  0
    4.2370   -0.3710   -0.7140 C   0  0  0  0  0  0  0  0  0  0  0  0
    5.1390   -1.5640   -0.7430 C   0  0  0  0  0  0  0  0  0  0  0  0
    5.8240   -1.8090    0.5830 C   0  0  0  0  0  0  0  0  0  0  0  0
    6.6090   -0.7620    0.9880 O   0  0  0  0  0  0  0  0  0  0  0  0
    6.1580    0.4730    0.5310 C   0  0  0  0  0  0  0  0  0  0  0  0
   -2.3500   -0.1220   -1.4170 C   0  0  0  0  0  0  0  0  0  0  0  0
   -1.2230   -0.0420   -2.3050 C   0  0  0  0  0  0  0  0  0  0  0  0
   -0.0640    0.7480   -2.1680 N   0  0  0  0  0  0  0  0  0  0  0  0
   -1.2350   -0.7690   -3.3700 O   0  0  0  0  0  0  0  0  0  0  0  0
   -3.5260   -0.8880   -1.7770 N   0  0  0  0  0  0  0  0  0  0  0  0
   -3.8340   -1.6540   -2.9180 C   0  0  0  0  0  0  0  0  0  0  0  0
   -4.9820   -2.2430   -2.9530 O   0  0  0  0  0  0  0  0  0  0  0  0
   -3.0870   -1.8850   -4.0420 O   0  0  0  0  0  0  0  0  0  0  0  0
   -4.4550   -0.7280   -0.6780 C   0  0  0  0  0  0  0  0  0  0  0  0
   -5.6580   -1.0740   -0.2550 C   0  0  0  0  0  0  0  0  0  0  0  0
   -6.5640   -1.8950   -0.9510 O   0  0  0  0  0  0  0  0  0  0  0  0
  2  1  1  1
  2  3  1  0
  2 30  1  0
  3  4  2  0
  3  5  1  0
  5  6  1  0
  5 29  1  0
  6  7  1  0
  6 21  2  0
  7  8  2  0
  7  9  1  0
  9 10  1  0
 10 11  1  0
 11 12  1  0
 12 13  1  0
 13 14  1  0
 15 13  1  6
 15 16  1  0
 15 20  1  0
 16 17  1  0
 17 18  1  0
 18 19  1  0
 19 20  1  0
 21 22  1  0
 21 25  1  0
 22 23  1  0
 22 24  2  0
 25 26  1  0
 25 29  1  0
 26 27  2  0
 26 28  1  0
 29 30  2  0
 30 31  1  0
M  END
