
     RDKit          3D

 31 33  0  0  0  0  0  0  0  0999 V2000
   -8.5340   -1.9120    1.3110 N   0  0  0  0  0  0  0  0  0  0  0  0
   -7.4060   -1.3430    0.6640 C   0  0  0  0  0  0  0  0  0  0  0  0
   -7.4340   -0.9240   -0.5060 O   0  0  0  0  0  0  0  0  0  0  0  0
   -6.1770   -1.2500    1.4020 N   0  0  0  0  0  0  0  0  0  0  0  0
   -5.0070   -0.6860    0.8020 C   0  0  1  0  0  0  0  0  0  0  0  0
   -4.2340    0.3170    1.6340 C   0  0  0  0  0  0  0  0  0  0  0  0
   -3.0060   -0.3340    1.2510 N   0  0  0  0  0  0  0  0  0  0  0  0
   -1.6280   -0.0040    1.2240 C   0  0  0  0  0  0  0  0  0  0  0  0
   -0.7490   -0.8110    0.8210 O   0  0  0  0  0  0  0  0  0  0  0  0
   -1.1720    1.2400    1.6440 O   0  0  0  0  0  0  0  0  0  0  0  0
    0.2180    1.5640    1.6110 C   0  0  0  0  0  0  0  0  0  0  0  0
    0.7000    1.4710    0.2630 O   0  0  0  0  0  0  0  0  0  0  0  0
    0.1450    2.2730   -0.7250 C   0  0  0  0  0  0  0  0  0  0  0  0
   -0.7720    3.0580   -0.3740 O   0  0  0  0  0  0  0  0  0  0  0  0
    0.5680    2.2480   -2.1220 C   0  0  2  0  0  0  0  0  0  0  0  0
    0.3790    0.8880   -2.7810 C   0  0  0  0  0  0  0  0  0  0  0  0
    1.6040    0.0940   -2.2620 C   0  0  0  0  0  0  0  0  0  0  0  0
    2.5360    1.0760   -1.7930 N   0  0  0  0  0  0  0  0  0  0  0  0
    3.7080    1.0090   -1.0440 C   0  0  0  0  0  0  0  0  0  0  0  0
    4.2760    2.1360   -0.7530 O   0  0  0  0  0  0  0  0  0  0  0  0
    4.3360   -0.2020   -0.5690 C   0  0  0  0  0  0  0  0  0  0  0  0
    5.4560   -0.0810    0.1630 C   0  0  0  0  0  0  0  0  0  0  0  0
    6.2230   -1.2120    0.7250 C   0  0  1  0  0  0  0  0  0  0  0  0
    7.5390   -1.0530    0.2790 O   0  0  0  0  0  0  0  0  0  0  0  0
    6.1360   -1.0300    2.5830 P   0  0  0  0  0  0  0  0  0  0  0  0
    4.9780   -1.7560    3.3150 O   0  0  0  0  0  0  0  0  0  0  0  0
    5.7030   -2.4630    0.3950 O   0  0  0  0  0  0  0  0  0  0  0  0
    4.5710   -2.6180   -0.3470 C   0  0  0  0  0  0  0  0  0  0  0  0
    3.9160   -1.5670   -0.8090 C   0  0  0  0  0  0  0  0  0  0  0  0
    2.0610    2.3900   -2.3050 C   0  0  0  0  0  0  0  0  0  0  0  0
   -3.7530   -1.5350    0.8740 C   0  0  0  0  0  0  0  0  0  0  0  0
  1  2  1  0
  2  3  2  0
  2  4  1  0
  5  4  1  1
  5  6  1  0
  5 31  1  0
  6  7  1  0
  7  8  1  0
  7 31  1  0
  8  9  2  0
  8 10  1  0
 10 11  1  0
 11 12  1  0
 12 13  1  0
 13 14  2  0
 15 13  1  1
 15 16  1  0
 15 30  1  0
 16 17  1  0
 17 18  1  0
 18 19  1  0
 18 30  1  0
 19 20  2  0
 19 21  1  0
 21 22  2  0
 21 29  1  0
 22 23  1  0
 23 24  1  6
 23 25  1  0
 23 27  1  0
 25 26  2  0
 27 28  1  0
 28 29  2  0
M  END
