
     RDKit          3D

 31 32  0  0  0  0  0  0  0  0999 V2000
    7.5320   -1.4660    1.9880 C   0  0  0  0  0  0  0  0  0  0  0  0
    6.2030   -0.9990    1.4930 C   0  0  0  0  0  0  0  0  0  0  0  0
    6.1260   -0.1890    0.4530 C   0  0  0  0  0  0  0  0  0  0  0  0
    7.3750    0.1960   -0.1310 C   0  0  0  0  0  0  0  0  0  0  0  0
    7.5480    0.9830   -1.1350 C   0  0  0  0  0  0  0  0  0  0  0  0
    8.8450    1.2730   -1.5980 O   0  0  0  0  0  0  0  0  0  0  0  0
   10.0910    0.0800   -1.7600 P   0  0  0  0  0  0  0  0  0  0  0  0
    9.4090   -1.4880   -1.9000 O   0  0  0  0  0  0  0  0  0  0  0  0
   11.3260    0.1810   -0.5720 O   0  0  0  0  0  0  0  0  0  0  0  0
    4.9250    0.3230   -0.1080 C   0  0  0  0  0  0  0  0  0  0  0  0
    4.7320    1.0280   -1.0590 O   0  0  0  0  0  0  0  0  0  0  0  0
    3.5060   -0.1390    0.7010 N   0  0  0  0  0  0  0  0  0  0  0  0
    2.5620    0.4500   -0.2270 C   0  0  0  0  0  0  0  0  0  0  0  0
    2.6400    0.9570   -1.2690 O   0  0  0  0  0  0  0  0  0  0  0  0
    1.3800    0.1890    0.6220 N   0  0  0  0  0  0  0  0  0  0  0  0
    0.1940    0.5060   -0.5740 C   0  0  0  0  0  0  0  0  0  0  0  0
    0.5640    0.7720   -1.6380 O   0  0  0  0  0  0  0  0  0  0  0  0
   -1.0990    0.3720   -0.0120 C   0  0  0  0  0  0  0  0  0  0  0  0
   -1.4150    0.2100    1.1940 O   0  0  0  0  0  0  0  0  0  0  0  0
   -2.1960    0.4190   -0.9040 O   0  0  0  0  0  0  0  0  0  0  0  0
   -3.5150    0.3000   -0.3270 C   0  0  0  0  0  0  0  0  0  0  0  0
   -4.4970    0.2580   -1.4410 C   0  0  0  0  0  0  0  0  0  0  0  0
   -5.8200    0.1940   -0.8530 N   0  0  0  0  0  0  0  0  0  0  0  0
   -6.5140    1.4760   -0.6290 C   0  0  0  0  0  0  0  0  0  0  0  0
   -7.6800    1.1460    0.2870 C   0  0  1  0  0  0  0  0  0  0  0  0
   -8.6880    0.3810   -0.5310 C   0  0  0  0  0  0  0  0  0  0  0  0
   -8.7410   -0.9790    0.1800 C   0  0  0  0  0  0  0  0  0  0  0  0
   -7.3160   -1.0740    0.6690 C   0  0  2  0  0  0  0  0  0  0  0  0
   -7.1780    0.2430    1.3110 N   0  0  0  0  0  0  0  0  0  0  0  0
   -6.4230   -1.0290   -0.5160 C   0  0  0  0  0  0  0  0  0  0  0  0
   -6.2330   -2.0710   -1.1740 O   0  0  0  0  0  0  0  0  0  0  0  0
  1  2  1  0
  2  3  2  3
  3  4  1  0
  3 10  1  0
  4  5  2  3
  5  6  1  0
  6  7  1  0
  7  8  1  0
  7  9  1  0
 10 11  2  0
 10 12  1  0
 12 13  1  0
 13 14  2  0
 13 15  1  0
 15 16  1  0
 16 17  2  0
 16 18  1  0
 18 19  2  0
 18 20  1  0
 20 21  1  0
 21 22  1  0
 22 23  1  0
 23 24  1  0
 23 30  1  0
 25 24  1  6
 25 26  1  0
 25 29  1  0
 26 27  1  0
 28 27  1  6
 28 29  1  0
 28 30  1  0
 30 31  2  0
M  END
