
     RDKit          3D

 31 33  0  0  0  0  0  0  0  0999 V2000
    2.1880    6.2370    0.7460 O   0  0  0  0  0  0  0  0  0  0  0  0
    1.7700    5.1570    0.2810 C   0  0  0  0  0  0  0  0  0  0  0  0
    2.5410    3.9450    0.3990 C   0  0  0  0  0  0  0  0  0  0  0  0
    2.1180    2.7950   -0.0850 C   0  0  0  0  0  0  0  0  0  0  0  0
    2.8810    1.5660    0.0260 C   0  0  0  0  0  0  0  0  0  0  0  0
    2.4750    0.4030   -0.4540 C   0  0  0  0  0  0  0  0  0  0  0  0
    3.2950   -0.8290   -0.3140 C   0  0  0  0  0  0  0  0  0  0  0  0
    4.2590   -0.9810    0.5780 C   0  0  0  0  0  0  0  0  0  0  0  0
    5.0250   -2.2110    0.6650 C   0  0  0  0  0  0  0  0  0  0  0  0
    5.9920   -2.4130    1.5310 N   0  0  0  0  0  0  0  0  0  0  0  0
    6.5290   -3.6610    1.3750 O   0  0  0  0  0  0  0  0  0  0  0  0
    6.1260   -4.0890    0.0800 C   0  0  0  0  0  0  0  0  0  0  0  0
    4.9280   -3.3570   -0.0770 O   0  0  0  0  0  0  0  0  0  0  0  0
    2.8480   -1.7530   -1.2880 N   0  0  0  0  0  0  0  0  0  0  0  0
    1.7860   -1.1230   -2.0130 C   0  0  0  0  0  0  0  0  0  0  0  0
    1.3960   -1.4850   -3.1610 O   0  0  0  0  0  0  0  0  0  0  0  0
    1.2900   -0.0320   -1.1690 C   0  0  1  0  0  0  0  0  0  0  0  0
    0.2070   -0.5970   -0.2730 C   0  0  0  0  0  0  0  0  0  0  0  0
   -0.9050   -0.6710   -1.2030 N   0  0  0  0  0  0  0  0  0  0  0  0
   -1.9910   -1.5970   -1.1580 C   0  0  0  0  0  0  0  0  0  0  0  0
   -3.1590   -1.1180   -0.3760 C   0  0  0  0  0  0  0  0  0  0  0  0
   -4.1890   -1.8130   -0.2380 O   0  0  0  0  0  0  0  0  0  0  0  0
   -3.0890    0.1600    0.2200 N   0  0  0  0  0  0  0  0  0  0  0  0
   -4.1800    0.6970    0.9880 C   0  0  0  0  0  0  0  0  0  0  0  0
   -5.3940    0.8210    0.1060 C   0  0  0  0  0  0  0  0  0  0  0  0
   -6.7590    1.5330    1.1740 P   0  0  0  0  0  0  0  0  0  0  0  0
   -8.1520    1.7750    0.1730 O   0  0  0  0  0  0  0  0  0  0  0  0
   -7.1080    0.3860    2.4230 O   0  0  0  0  0  0  0  0  0  0  0  0
   -0.6630    0.3680   -2.1510 C   0  0  0  0  0  0  0  0  0  0  0  0
   -1.4760    0.6800   -3.0740 O   0  0  0  0  0  0  0  0  0  0  0  0
    0.5870    0.9530   -1.8820 O   0  0  0  0  0  0  0  0  0  0  0  0
  1  2  2  0
  2  3  1  0
  3  4  2  3
  4  5  1  0
  5  6  2  3
  6  7  1  0
  6 17  1  0
  7  8  2  3
  7 14  1  0
  8  9  1  0
  9 10  2  0
  9 13  1  0
 10 11  1  0
 11 12  1  0
 12 13  1  0
 14 15  1  0
 15 16  2  0
 15 17  1  0
 17 18  1  1
 17 31  1  0
 18 19  1  0
 19 20  1  0
 19 29  1  0
 20 21  1  0
 21 22  2  0
 21 23  1  0
 23 24  1  0
 24 25  1  0
 25 26  1  0
 26 27  1  0
 26 28  1  0
 29 30  2  0
 29 31  1  0
M  END
