
     RDKit          3D

 30 32  0  0  0  0  0  0  0  0999 V2000
   -5.1470   -1.5870    0.2550 O   0  0  0  0  0  0  0  0  0  0  0  0
   -4.6980   -0.9170   -0.6830 C   0  0  0  0  0  0  0  0  0  0  0  0
   -4.0150   -1.5700   -1.7740 N   0  0  0  0  0  0  0  0  0  0  0  0
   -3.1480   -0.7320   -2.5280 C   0  0  0  0  0  0  0  0  0  0  0  0
   -2.9710   -0.9190   -3.7410 O   0  0  0  0  0  0  0  0  0  0  0  0
   -2.4810    0.3770   -1.7370 C   0  0  2  0  0  0  0  0  0  0  0  0
   -1.3240   -0.1630   -1.0620 C   0  0  0  0  0  0  0  0  0  0  0  0
   -0.5160   -0.7740   -1.9230 O   0  0  0  0  0  0  0  0  0  0  0  0
   -0.8940   -0.1720    0.2630 N   0  0  0  0  0  0  0  0  0  0  0  0
   -1.6750    0.3450    1.3450 C   0  0  0  0  0  0  0  0  0  0  0  0
   -1.6470   -0.6070    2.5690 C   0  0  0  0  0  0  0  0  0  0  0  0
   -0.3700   -0.9590    2.9190 O   0  0  0  0  0  0  0  0  0  0  0  0
    0.5690   -0.2940    2.1560 C   0  0  0  0  0  0  0  0  0  0  0  0
    0.4630   -0.6990    0.6760 C   0  0  1  0  0  0  0  0  0  0  0  0
    0.4030   -2.1660    0.5490 C   0  0  0  0  0  0  0  0  0  0  0  0
    1.4600   -2.9160    0.9090 O   0  0  0  0  0  0  0  0  0  0  0  0
    1.5070    0.0790   -0.0250 C   0  0  0  0  0  0  0  0  0  0  0  0
    2.8640   -0.0650    0.1230 N   0  0  0  0  0  0  0  0  0  0  0  0
    3.6590   -1.1270   -0.2720 C   0  0  0  0  0  0  0  0  0  0  0  0
    5.1490   -0.7060   -0.2130 C   0  0  0  0  0  0  0  0  0  0  0  0
    5.2840    0.4600   -1.1670 C   0  0  0  0  0  0  0  0  0  0  0  0
    7.0280    1.0790   -1.2410 P   0  0  0  0  0  0  0  0  0  0  0  0
    7.2020    2.5310   -0.3230 O   0  0  0  0  0  0  0  0  0  0  0  0
    8.1300   -0.1200   -0.6350 O   0  0  0  0  0  0  0  0  0  0  0  0
   -3.4810    1.1370   -1.0410 N   0  0  0  0  0  0  0  0  0  0  0  0
   -3.5330    2.4620   -0.5110 C   0  0  0  0  0  0  0  0  0  0  0  0
   -2.6980    3.3530   -0.7560 O   0  0  0  0  0  0  0  0  0  0  0  0
   -4.7150    2.6000    0.3540 C   0  0  0  0  0  0  0  0  0  0  0  0
   -5.3540    1.2320    0.3670 C   0  0  0  0  0  0  0  0  0  0  0  0
   -4.7900    0.5670   -0.8170 C   0  0  2  0  0  0  0  0  0  0  0  0
  1  2  2  0
  2  3  1  0
  2 30  1  0
  3  4  1  0
  4  5  2  0
  4  6  1  0
  6  7  1  1
  6 25  1  0
  7  8  2  0
  7  9  1  0
  9 10  1  0
  9 14  1  0
 10 11  1  0
 11 12  1  0
 12 13  1  0
 13 14  1  0
 14 15  1  1
 14 17  1  0
 15 16  1  0
 17 18  1  0
 18 19  1  0
 19 20  1  0
 20 21  1  0
 21 22  1  0
 22 23  1  0
 22 24  1  0
 25 26  1  0
 25 30  1  0
 26 27  2  0
 26 28  1  0
 28 29  1  0
 30 29  1  1
M  END
