
     RDKit          3D

 31 33  0  0  0  0  0  0  0  0999 V2000
   -5.3760   -2.5770    0.3020 C   0  0  0  0  0  0  0  0  0  0  0  0
   -4.2800   -1.5600    0.3040 C   0  0  0  0  0  0  0  0  0  0  0  0
   -4.5620   -0.2180    0.1830 C   0  0  0  0  0  0  0  0  0  0  0  0
   -3.5220    0.7060    0.1860 C   0  0  0  0  0  0  0  0  0  0  0  0
   -3.8240    2.0100    0.0700 N   0  0  0  0  0  0  0  0  0  0  0  0
   -2.8750    2.9560    0.0680 C   0  0  0  0  0  0  0  0  0  0  0  0
   -3.1080    4.3080   -0.0470 C   0  0  0  0  0  0  0  0  0  0  0  0
   -4.3010    4.6960   -0.1600 O   0  0  0  0  0  0  0  0  0  0  0  0
   -2.1100    5.2180   -0.0420 N   0  0  0  0  0  0  0  0  0  0  0  0
   -0.8530    4.7610    0.0810 C   0  0  0  0  0  0  0  0  0  0  0  0
    0.0660    5.6350    0.0830 O   0  0  0  0  0  0  0  0  0  0  0  0
   -0.5400    3.4510    0.1990 N   0  0  0  0  0  0  0  0  0  0  0  0
   -1.4830    2.4910    0.2010 C   0  0  0  0  0  0  0  0  0  0  0  0
   -1.1830    1.1860    0.3180 N   0  0  0  0  0  0  0  0  0  0  0  0
    0.2140    0.7510    0.4500 C   0  0  0  0  0  0  0  0  0  0  0  0
    0.8510    0.5110   -0.8670 C   0  0  2  0  0  0  0  0  0  0  0  0
    0.3040   -0.4410   -1.6810 O   0  0  0  0  0  0  0  0  0  0  0  0
    2.3250    0.2210   -0.6980 C   0  0  2  0  0  0  0  0  0  0  0  0
    2.8610    0.3260   -2.0040 O   0  0  0  0  0  0  0  0  0  0  0  0
    2.6130   -1.1530   -0.1460 C   0  0  2  0  0  0  0  0  0  0  0  0
    2.1430   -1.3090    1.1420 O   0  0  0  0  0  0  0  0  0  0  0  0
    4.0920   -1.4790   -0.2120 C   0  0  0  0  0  0  0  0  0  0  0  0
    4.8180   -0.6350    0.6270 O   0  0  0  0  0  0  0  0  0  0  0  0
    6.4560   -0.9490    0.5950 P   0  0  1  0  0  0  0  0  0  0  0  0
    7.0700   -0.5990   -0.7640 O   0  0  0  0  0  0  0  0  0  0  0  0
    7.2070    0.0730    1.7220 O   0  0  0  0  0  0  0  0  0  0  0  0
    6.8200   -2.5600    0.9090 O   0  0  0  0  0  0  0  0  0  0  0  0
   -2.1960    0.3030    0.3100 C   0  0  0  0  0  0  0  0  0  0  0  0
   -1.9760   -1.0410    0.4270 C   0  0  0  0  0  0  0  0  0  0  0  0
   -2.9850   -1.9950    0.4280 C   0  0  0  0  0  0  0  0  0  0  0  0
   -2.6480   -3.4500    0.5610 C   0  0  0  0  0  0  0  0  0  0  0  0
  1  2  1  0
  2  3  2  0
  2 30  1  0
  3  4  1  0
  4  5  1  0
  4 28  2  0
  5  6  2  0
  6  7  1  0
  6 13  1  0
  7  8  2  0
  7  9  1  0
  9 10  1  0
 10 11  2  0
 10 12  1  0
 12 13  2  0
 13 14  1  0
 14 15  1  0
 14 28  1  0
 15 16  1  0
 16 17  1  1
 16 18  1  0
 18 19  1  6
 18 20  1  0
 20 21  1  1
 20 22  1  0
 22 23  1  0
 23 24  1  0
 24 25  2  0
 24 26  1  1
 24 27  1  0
 28 29  1  0
 29 30  2  0
 30 31  1  0
M  END
