
     RDKit          3D

 46 49  0  0  0  0  0  0  0  0999 V2000
   -4.4710   -3.5810   -3.8960 C   0  0  0  0  0  0  0  0  0  0  0  0
   -3.9200   -2.5430   -3.0540 N   0  0  0  0  0  0  0  0  0  0  0  0
   -3.8550   -2.6490   -1.6500 C   0  0  0  0  0  0  0  0  0  0  0  0
   -4.3320   -3.7460   -1.1720 O   0  0  0  0  0  0  0  0  0  0  0  0
   -3.3050   -1.6340   -0.7480 C   0  0  1  0  0  0  0  0  0  0  0  0
   -1.9210   -1.3020   -1.2660 C   0  0  0  0  0  0  0  0  0  0  0  0
   -0.8770   -2.3180   -1.1560 C   0  0  2  0  0  0  0  0  0  0  0  0
   -1.0660   -3.4990   -0.2680 C   0  0  0  0  0  0  0  0  0  0  0  0
    0.5210   -1.7310   -0.9900 C   0  0  0  0  0  0  0  0  0  0  0  0
    0.7000   -0.7210    0.0260 C   0  0  1  0  0  0  0  0  0  0  0  0
   -0.3560   -0.6870    1.1260 C   0  0  0  0  0  0  0  0  0  0  0  0
    2.0030   -0.6670    0.7860 C   0  0  1  0  0  0  0  0  0  0  0  0
    3.1410   -0.9330    0.0580 O   0  0  0  0  0  0  0  0  0  0  0  0
    3.9450   -2.0230    0.1240 C   0  0  0  0  0  0  0  0  0  0  0  0
    3.6220   -2.9120    0.9540 O   0  0  0  0  0  0  0  0  0  0  0  0
    5.1290   -2.1250   -0.7520 C   0  0  2  0  0  0  0  0  0  0  0  0
    6.4130   -2.1850    0.0790 C   0  0  0  0  0  0  0  0  0  0  0  0
    6.9060   -0.7440    0.0820 C   0  0  0  0  0  0  0  0  0  0  0  0
    5.9660   -0.0420   -0.8390 C   0  0  1  0  0  0  0  0  0  0  0  0
    6.7460    0.8250   -1.8020 C   0  0  0  0  0  0  0  0  0  0  0  0
    7.3720    1.8850   -1.3240 O   0  0  0  0  0  0  0  0  0  0  0  0
    8.3340    1.8810   -0.3970 C   0  0  0  0  0  0  0  0  0  0  0  0
    5.2920   -1.0470   -1.5790 O   0  0  0  0  0  0  0  0  0  0  0  0
    2.0750    0.4650    1.7820 C   0  0  0  0  0  0  0  0  0  0  0  0
    1.7020    1.7970    1.2750 C   0  0  0  0  0  0  0  0  0  0  0  0
    2.1780    2.0840    0.0150 C   0  0  0  0  0  0  0  0  0  0  0  0
    1.9570    3.2770   -0.6350 C   0  0  0  0  0  0  0  0  0  0  0  0
    2.4840    3.5680   -1.9940 C   0  0  0  0  0  0  0  0  0  0  0  0
    1.2230    4.2370    0.0060 C   0  0  0  0  0  0  0  0  0  0  0  0
    0.7290    4.0030    1.2560 C   0  0  0  0  0  0  0  0  0  0  0  0
    0.9610    2.7680    1.9210 C   0  0  0  0  0  0  0  0  0  0  0  0
    0.4010    2.7070    3.1570 O   0  0  0  0  0  0  0  0  0  0  0  0
   -0.4180    1.8660    3.8770 C   0  0  0  0  0  0  0  0  0  0  0  0
   -1.7170    2.4600    4.3160 C   0  0  0  0  0  0  0  0  0  0  0  0
   -2.7160    2.6170    3.3560 O   0  0  0  0  0  0  0  0  0  0  0  0
   -3.1070    2.0620    2.1450 C   0  0  0  0  0  0  0  0  0  0  0  0
   -3.1300    3.1770    1.2520 C   0  0  0  0  0  0  0  0  0  0  0  0
   -3.4470    3.1120   -0.0530 C   0  0  0  0  0  0  0  0  0  0  0  0
   -3.7560    1.8540   -0.4780 C   0  0  0  0  0  0  0  0  0  0  0  0
   -3.7620    0.6850    0.3300 C   0  0  0  0  0  0  0  0  0  0  0  0
   -3.4360    0.7710    1.6900 C   0  0  0  0  0  0  0  0  0  0  0  0
   -3.5160   -0.3980    2.6790 C   0  0  0  0  0  0  0  0  0  0  0  0
   -4.1030   -0.4090   -0.6570 C   0  0  2  0  0  0  0  0  0  0  0  0
   -5.5990   -0.4610   -0.6880 C   0  0  1  0  0  0  0  0  0  0  0  0
   -6.2230   -0.9970   -1.9500 C   0  0  0  0  0  0  0  0  0  0  0  0
   -6.2280   -1.1140    0.5330 C   0  0  0  0  0  0  0  0  0  0  0  0
  1  2  1  0
  2  3  1  0
  3  4  2  0
  5  3  1  6
  5  6  1  0
  5 43  1  0
  6  7  1  0
  7  8  1  1
  7  9  1  0
  9 10  1  0
 10 11  1  1
 10 12  1  0
 12 13  1  6
 12 24  1  0
 13 14  1  0
 14 15  2  0
 16 14  1  1
 16 17  1  0
 16 23  1  0
 17 18  1  0
 18 19  1  0
 19 20  1  6
 19 23  1  0
 20 21  1  0
 21 22  1  0
 24 25  1  0
 25 26  2  0
 25 31  1  0
 26 27  1  0
 27 28  1  0
 27 29  2  0
 29 30  1  0
 30 31  2  0
 31 32  1  0
 32 33  1  0
 33 34  1  0
 34 35  1  0
 35 36  1  0
 36 37  2  0
 36 41  1  0
 37 38  1  0
 38 39  2  0
 39 40  1  0
 40 41  2  0
 43 40  1  1
 41 42  1  0
 43 44  1  0
 44 45  1  6
 44 46  1  0
M  END
