
     RDKit          3D

 45 51  0  0  0  0  0  0  0  0999 V2000
   -1.3170    1.5420   -2.3350 C   0  0  0  0  0  0  0  0  0  0  0  0
   -1.4670    1.4230   -0.8000 C   0  0  1  0  0  0  0  0  0  0  0  0
   -2.9240    1.6620   -0.5640 C   0  0  0  0  0  0  0  0  0  0  0  0
   -3.4710    1.4690    0.7830 C   0  0  0  0  0  0  0  0  0  0  0  0
   -4.9910    1.2750    0.6510 C   0  0  0  0  0  0  0  0  0  0  0  0
   -5.4750    0.1540    1.5540 C   0  0  0  0  0  0  0  0  0  0  0  0
   -6.2650   -0.7940    0.7130 C   0  0  1  0  0  0  0  0  0  0  0  0
   -5.4980   -1.0200   -0.5520 C   0  0  0  0  0  0  0  0  0  0  0  0
   -4.5180   -1.7310   -0.2670 C   0  0  0  0  0  0  0  0  0  0  0  0
   -3.2020   -2.1870   -0.5830 C   0  0  2  0  0  0  0  0  0  0  0  0
   -2.5000   -1.6720   -1.7690 C   0  0  0  0  0  0  0  0  0  0  0  0
   -1.2070   -0.9780   -1.5790 C   0  0  0  0  0  0  0  0  0  0  0  0
   -1.0640    0.0060   -0.4830 C   0  0  1  0  0  0  0  0  0  0  0  0
    0.3990   -0.0020   -0.0990 C   0  0  0  0  0  0  0  0  0  0  0  0
    0.9220   -1.3130    0.3520 C   0  0  0  0  0  0  0  0  0  0  0  0
    0.1430   -2.2110    0.7200 O   0  0  0  0  0  0  0  0  0  0  0  0
    2.3520   -1.4530    0.3300 N   0  0  0  0  0  0  0  0  0  0  0  0
    2.9240   -2.7770    0.4660 C   0  0  1  0  0  0  0  0  0  0  0  0
    2.5770   -3.4000    1.8020 C   0  0  0  0  0  0  0  0  0  0  0  0
    1.9840   -4.7560    1.5030 C   0  0  0  0  0  0  0  0  0  0  0  0
    2.3440   -5.0460    0.0810 C   0  0  0  0  0  0  0  0  0  0  0  0
    2.4690   -3.7180   -0.6040 C   0  0  2  0  0  0  0  0  0  0  0  0
    3.5230   -3.8710   -1.6880 C   0  0  0  0  0  0  0  0  0  0  0  0
    4.6660   -4.3700   -1.0720 O   0  0  0  0  0  0  0  0  0  0  0  0
    3.2470   -0.3380    0.1840 C   0  0  1  0  0  0  0  0  0  0  0  0
    4.0190    0.0320    1.4210 C   0  0  0  0  0  0  0  0  0  0  0  0
    4.3160    1.5200    1.3050 C   0  0  0  0  0  0  0  0  0  0  0  0
    4.2500    2.0070   -0.1080 C   0  0  1  0  0  0  0  0  0  0  0  0
    5.0120    3.3270   -0.1750 C   0  0  0  0  0  0  0  0  0  0  0  0
    4.0840    4.4830   -0.5850 C   0  0  0  0  0  0  0  0  0  0  0  0
    3.3130    4.9810    0.6250 C   0  0  0  0  0  0  0  0  0  0  0  0
    4.1040    5.0770    1.6080 O   0  0  0  0  0  0  0  0  0  0  0  0
    2.0220    5.2280    0.4980 O   0  0  0  0  0  0  0  0  0  0  0  0
    0.7880    4.7780    0.8870 C   0  0  1  0  0  0  0  0  0  0  0  0
   -0.3030    4.9810   -0.1360 C   0  0  0  0  0  0  0  0  0  0  0  0
   -0.6970    3.8190   -0.9680 C   0  0  0  0  0  0  0  0  0  0  0  0
   -0.5720    2.4830   -0.2550 C   0  0  1  0  0  0  0  0  0  0  0  0
   -0.6290    2.8130    1.1740 C   0  0  0  0  0  0  0  0  0  0  0  0
    0.7240    3.4220    1.5400 C   0  0  0  0  0  0  0  0  0  0  0  0
    4.8880    0.9750   -1.0510 C   0  0  0  0  0  0  0  0  0  0  0  0
    4.1510   -0.3440   -0.9860 C   0  0  0  0  0  0  0  0  0  0  0  0
   -3.4520   -3.7110   -0.6440 C   0  0  0  0  0  0  0  0  0  0  0  0
   -4.5550   -3.9190    0.4080 C   0  0  0  0  0  0  0  0  0  0  0  0
   -4.7890   -2.5300    1.0010 C   0  0  2  0  0  0  0  0  0  0  0  0
   -6.2060   -2.2130    1.3030 C   0  0  0  0  0  0  0  0  0  0  0  0
  2  1  1  6
  2  3  1  0
  2 13  1  0
  2 37  1  0
  3  4  1  0
  4  5  1  0
  5  6  1  0
  7  6  1  1
  7  8  1  0
  7 45  1  0
  8  9  2  0
  9 10  1  0
  9 44  1  0
 10 11  1  6
 10 42  1  0
 11 12  1  0
 13 12  1  6
 13 14  1  0
 14 15  1  0
 15 16  2  0
 15 17  1  0
 18 17  1  6
 17 25  1  0
 18 19  1  0
 18 22  1  0
 19 20  1  0
 20 21  1  0
 21 22  1  0
 22 23  1  6
 23 24  1  0
 25 26  1  0
 25 41  1  6
 26 27  1  0
 27 28  1  0
 28 29  1  1
 28 40  1  0
 29 30  1  0
 30 31  1  0
 31 32  2  0
 31 33  1  0
 33 34  1  0
 34 35  1  0
 34 39  1  6
 35 36  1  0
 36 37  1  0
 37 38  1  1
 38 39  1  0
 40 41  1  0
 42 43  1  0
 44 43  1  6
 44 45  1  0
M  END
