
     RDKit          3D

 46 51  0  0  0  0  0  0  0  0999 V2000
    7.0150    2.4710    0.4020 C   0  0  0  0  0  0  0  0  0  0  0  0
    6.1230    1.6850    1.1310 O   0  0  0  0  0  0  0  0  0  0  0  0
    6.1990    0.3200    1.3270 C   0  0  0  0  0  0  0  0  0  0  0  0
    6.8900   -0.2180    2.4190 C   0  0  0  0  0  0  0  0  0  0  0  0
    7.5620    0.6350    3.3830 C   0  0  0  0  0  0  0  0  0  0  0  0
    6.9280    1.0580    4.3990 O   0  0  0  0  0  0  0  0  0  0  0  0
    8.9160    1.0290    3.2470 N   0  0  0  0  0  0  0  0  0  0  0  0
    9.5130    1.8830    4.2460 C   0  0  0  0  0  0  0  0  0  0  0  0
    9.6750    0.5600    2.1030 C   0  0  0  0  0  0  0  0  0  0  0  0
    6.9320   -1.5850    2.5640 C   0  0  0  0  0  0  0  0  0  0  0  0
    6.3070   -2.4080    1.6490 C   0  0  0  0  0  0  0  0  0  0  0  0
    5.6250   -1.8610    0.5680 C   0  0  0  0  0  0  0  0  0  0  0  0
    5.5780   -0.5040    0.4190 C   0  0  0  0  0  0  0  0  0  0  0  0
    4.8570    0.0930   -0.7180 C   0  0  2  0  0  0  0  0  0  0  0  0
    3.3730   -0.2250   -0.6980 C   0  0  0  0  0  0  0  0  0  0  0  0
    3.1780   -1.2240   -1.7560 C   0  0  1  0  0  0  0  0  0  0  0  0
    1.9980   -0.9160   -2.6010 C   0  0  0  0  0  0  0  0  0  0  0  0
    0.6590   -0.8700   -2.0690 C   0  0  1  0  0  0  0  0  0  0  0  0
    0.1280   -2.1480   -1.4230 C   0  0  0  0  0  0  0  0  0  0  0  0
   -1.2340   -1.6860   -0.9400 C   0  0  0  0  0  0  0  0  0  0  0  0
   -1.3500   -0.2010   -1.1870 C   0  0  1  0  0  0  0  0  0  0  0  0
   -2.0480    0.5020   -0.0470 C   0  0  0  0  0  0  0  0  0  0  0  0
   -3.3380   -0.0550    0.0760 O   0  0  0  0  0  0  0  0  0  0  0  0
   -4.2870    0.0020   -0.9280 C   0  0  0  0  0  0  0  0  0  0  0  0
   -3.9640    0.5860   -1.9870 O   0  0  0  0  0  0  0  0  0  0  0  0
   -5.6480   -0.5810   -0.8300 C   0  0  2  0  0  0  0  0  0  0  0  0
   -6.4130   -0.2350   -2.0610 C   0  0  0  0  0  0  0  0  0  0  0  0
   -7.8910   -0.1510   -1.8920 C   0  0  1  0  0  0  0  0  0  0  0  0
   -8.4700   -1.5620   -1.8770 C   0  0  0  0  0  0  0  0  0  0  0  0
   -8.3460    0.6690   -0.7370 C   0  0  0  0  0  0  0  0  0  0  0  0
   -7.3700    0.8140    0.3810 C   0  0  1  0  0  0  0  0  0  0  0  0
   -6.3230   -0.2440    0.4620 C   0  0  0  0  0  0  0  0  0  0  0  0
   -6.8050    2.0970    0.3680 O   0  0  0  0  0  0  0  0  0  0  0  0
   -6.4650    2.5430    1.6320 C   0  0  0  0  0  0  0  0  0  0  0  0
   -7.7020    2.9990    2.4170 C   0  0  0  0  0  0  0  0  0  0  0  0
   -8.8230    2.0660    1.9800 C   0  0  0  0  0  0  0  0  0  0  0  0
   -8.1600    0.7280    1.6990 C   0  0  1  0  0  0  0  0  0  0  0  0
   -9.1490   -0.3880    1.6770 C   0  0  0  0  0  0  0  0  0  0  0  0
    0.1590    0.2100   -1.1980 C   0  0  1  0  0  0  0  0  0  0  0  0
    0.4920    0.1370    0.1490 O   0  0  0  0  0  0  0  0  0  0  0  0
    4.3980   -1.2130   -2.5920 C   0  0  0  0  0  0  0  0  0  0  0  0
    4.6490   -1.8450   -3.8310 C   0  0  0  0  0  0  0  0  0  0  0  0
    5.8610   -1.7110   -4.4290 C   0  0  0  0  0  0  0  0  0  0  0  0
    6.8450   -0.9610   -3.8340 C   0  0  0  0  0  0  0  0  0  0  0  0
    6.5800   -0.3550   -2.6310 C   0  0  0  0  0  0  0  0  0  0  0  0
    5.3620   -0.4650   -1.9880 C   0  0  0  0  0  0  0  0  0  0  0  0
  1  2  1  0
  2  3  1  0
  3  4  2  0
  3 13  1  0
  4  5  1  0
  4 10  1  0
  5  6  2  0
  5  7  1  0
  7  8  1  0
  7  9  1  0
 10 11  2  0
 11 12  1  0
 12 13  2  0
 14 13  1  1
 14 15  1  0
 14 46  1  0
 15 16  1  0
 16 17  1  6
 16 41  1  0
 18 17  1  1
 18 19  1  0
 18 39  1  0
 19 20  1  0
 20 21  1  0
 21 22  1  1
 21 39  1  0
 22 23  1  0
 23 24  1  0
 24 25  2  0
 26 24  1  6
 26 27  1  0
 26 32  1  0
 27 28  1  0
 28 29  1  1
 28 30  1  0
 31 30  1  6
 31 32  1  0
 31 33  1  0
 31 37  1  0
 33 34  1  0
 34 35  1  0
 35 36  1  0
 36 37  1  0
 37 38  1  6
 39 40  1  1
 41 42  2  0
 41 46  1  0
 42 43  1  0
 43 44  2  0
 44 45  1  0
 45 46  2  0
M  END
