
     RDKit          3D

 47 51  0  0  0  0  0  0  0  0999 V2000
    7.9150    2.9710   -1.8110 C   0  0  0  0  0  0  0  0  0  0  0  0
    7.0570    3.7030   -0.7990 C   0  0  2  0  0  0  0  0  0  0  0  0
    5.8770    4.3610   -1.4240 C   0  0  0  0  0  0  0  0  0  0  0  0
    7.9140    4.6670   -0.1640 O   0  0  0  0  0  0  0  0  0  0  0  0
    8.6280    3.9150    0.7790 C   0  0  0  0  0  0  0  0  0  0  0  0
    9.7110    4.2500    1.3370 O   0  0  0  0  0  0  0  0  0  0  0  0
    7.9750    2.7150    1.0340 O   0  0  0  0  0  0  0  0  0  0  0  0
    6.7330    2.8200    0.3860 C   0  0  2  0  0  0  0  0  0  0  0  0
    6.1660    1.4850   -0.0610 C   0  0  0  0  0  0  0  0  0  0  0  0
    5.8640    0.5880    1.0920 C   0  0  0  0  0  0  0  0  0  0  0  0
    5.3080   -0.7380    0.6690 C   0  0  0  0  0  0  0  0  0  0  0  0
    3.9880   -0.5220   -0.0550 C   0  0  2  0  0  0  0  0  0  0  0  0
    3.1110    0.0890    0.7800 O   0  0  0  0  0  0  0  0  0  0  0  0
    3.4440   -1.8140   -0.6000 C   0  0  0  0  0  0  0  0  0  0  0  0
    3.1730   -2.9070    0.3220 C   0  0  0  0  0  0  0  0  0  0  0  0
    2.1570   -2.9180    1.3690 C   0  0  0  0  0  0  0  0  0  0  0  0
    0.7880   -2.8460    1.0700 N   0  0  0  0  0  0  0  0  0  0  0  0
    0.1250   -4.1100    0.6970 C   0  0  0  0  0  0  0  0  0  0  0  0
    0.4360   -5.1840    1.2560 O   0  0  0  0  0  0  0  0  0  0  0  0
   -0.9280   -4.0610   -0.3710 C   0  0  2  0  0  0  0  0  0  0  0  0
   -0.3030   -3.8480   -1.7140 C   0  0  0  0  0  0  0  0  0  0  0  0
    0.6270   -4.9600   -1.9980 C   0  0  0  0  0  0  0  0  0  0  0  0
    1.2340   -4.9630   -3.0500 O   0  0  0  0  0  0  0  0  0  0  0  0
   -1.9380   -2.9720   -0.0320 C   0  0  2  0  0  0  0  0  0  0  0  0
   -3.3270   -3.5850    0.2120 C   0  0  0  0  0  0  0  0  0  0  0  0
   -2.1240   -1.9760   -1.1160 C   0  0  0  0  0  0  0  0  0  0  0  0
   -1.4920   -2.4240    1.2980 C   0  0  2  0  0  0  0  0  0  0  0  0
   -2.5070   -1.7050    2.0840 C   0  0  0  0  0  0  0  0  0  0  0  0
   -1.9120   -1.3210    3.3980 C   0  0  0  0  0  0  0  0  0  0  0  0
   -0.6280   -0.5900    3.3560 C   0  0  0  0  0  0  0  0  0  0  0  0
    0.0970   -0.6410    2.0400 C   0  0  2  0  0  0  0  0  0  0  0  0
    0.0290    0.7390    1.4330 C   0  0  0  0  0  0  0  0  0  0  0  0
   -1.3960    1.2530    1.2270 C   0  0  0  0  0  0  0  0  0  0  0  0
   -1.2980    2.5920    0.6450 C   0  0  0  0  0  0  0  0  0  0  0  0
   -2.1050    3.1500   -0.2020 C   0  0  0  0  0  0  0  0  0  0  0  0
   -3.3200    2.6840   -0.8220 C   0  0  0  0  0  0  0  0  0  0  0  0
   -3.8410    3.3470   -1.9250 C   0  0  0  0  0  0  0  0  0  0  0  0
   -5.0200    3.0320   -2.5280 C   0  0  0  0  0  0  0  0  0  0  0  0
   -5.7880    1.9890   -2.0490 C   0  0  0  0  0  0  0  0  0  0  0  0
   -5.3070    1.3130   -0.9620 C   0  0  0  0  0  0  0  0  0  0  0  0
   -4.0920    1.6410   -0.3430 C   0  0  0  0  0  0  0  0  0  0  0  0
   -5.9770    0.1580   -0.2740 C   0  0  0  0  0  0  0  0  0  0  0  0
   -7.4200    0.4710    0.0180 C   0  0  0  0  0  0  0  0  0  0  0  0
   -7.8420    1.8190   -0.5250 C   0  0  0  0  0  0  0  0  0  0  0  0
   -8.2570    1.6670   -1.9640 C   0  0  0  0  0  0  0  0  0  0  0  0
   -7.0210    1.8040   -2.8350 C   0  0  0  0  0  0  0  0  0  0  0  0
   -0.1350   -1.7460    1.1320 C   0  0  1  0  0  0  0  0  0  0  0  0
  2  1  1  6
  2  3  1  0
  2  4  1  0
  2  8  1  0
  4  5  1  0
  5  6  2  0
  5  7  1  0
  7  8  1  0
  8  9  1  6
  9 10  1  0
 10 11  1  0
 11 12  1  0
 12 13  1  1
 12 14  1  0
 14 15  1  0
 15 16  1  0
 16 17  1  0
 17 18  1  0
 47 17  1  1
 18 19  2  0
 18 20  1  0
 20 21  1  6
 20 24  1  0
 21 22  1  0
 22 23  2  0
 24 25  1  1
 24 26  1  0
 24 27  1  0
 27 28  1  6
 27 47  1  0
 28 29  1  0
 29 30  1  0
 30 31  1  0
 31 32  1  6
 31 47  1  0
 32 33  1  0
 33 34  1  0
 34 35  2  3
 35 36  1  0
 36 37  2  0
 36 41  1  0
 37 38  1  0
 38 39  2  0
 39 40  1  0
 39 46  1  0
 40 41  2  0
 40 42  1  0
 42 43  1  0
 43 44  1  0
 44 45  1  0
 45 46  1  0
M  END
