
     RDKit          3D

 45 49  0  0  0  0  0  0  0  0999 V2000
   -4.0770   -0.6390   -3.1830 C   0  0  0  0  0  0  0  0  0  0  0  0
   -2.7800   -1.4510   -3.0530 C   0  0  2  0  0  0  0  0  0  0  0  0
   -3.1050   -2.8640   -3.3350 C   0  0  0  0  0  0  0  0  0  0  0  0
   -3.1480   -3.2790   -4.4910 O   0  0  0  0  0  0  0  0  0  0  0  0
   -2.4410   -1.3620   -1.5510 C   0  0  0  0  0  0  0  0  0  0  0  0
   -2.2260    0.0610   -1.1730 C   0  0  2  0  0  0  0  0  0  0  0  0
   -1.1030    0.8090   -1.7510 C   0  0  0  0  0  0  0  0  0  0  0  0
    0.2660    0.4610   -1.4500 C   0  0  0  0  0  0  0  0  0  0  0  0
    1.0430    1.2900   -0.7230 C   0  0  0  0  0  0  0  0  0  0  0  0
    2.3900    0.7870   -0.5020 C   0  0  1  0  0  0  0  0  0  0  0  0
    3.3540    1.7660   -1.1370 C   0  0  0  0  0  0  0  0  0  0  0  0
    2.6360    0.5900    0.9610 C   0  0  0  0  0  0  0  0  0  0  0  0
    3.9380    0.0920    1.3940 C   0  0  0  0  0  0  0  0  0  0  0  0
    5.0250    0.8600    1.0340 O   0  0  0  0  0  0  0  0  0  0  0  0
    6.2310    0.3140    1.5330 C   0  0  2  0  0  0  0  0  0  0  0  0
    6.7270    1.2950    2.5640 C   0  0  0  0  0  0  0  0  0  0  0  0
    8.1930    1.2590    2.8140 C   0  0  0  0  0  0  0  0  0  0  0  0
    8.8670    1.4920    1.4540 C   0  0  0  0  0  0  0  0  0  0  0  0
    8.6040    0.2420    0.6660 C   0  0  1  0  0  0  0  0  0  0  0  0
    9.3410    0.3380   -0.6510 C   0  0  0  0  0  0  0  0  0  0  0  0
    9.0950   -0.9480    1.4620 C   0  0  0  0  0  0  0  0  0  0  0  0
    7.1350    0.1040    0.3720 C   0  0  1  0  0  0  0  0  0  0  0  0
    6.9250   -1.2300   -0.0580 O   0  0  0  0  0  0  0  0  0  0  0  0
    2.4220   -0.4560   -1.3140 C   0  0  0  0  0  0  0  0  0  0  0  0
    3.4420   -1.3530   -1.5810 C   0  0  0  0  0  0  0  0  0  0  0  0
    3.2080   -2.4600   -2.3580 C   0  0  0  0  0  0  0  0  0  0  0  0
    1.9460   -2.6380   -2.8530 C   0  0  0  0  0  0  0  0  0  0  0  0
    0.9190   -1.7690   -2.6080 C   0  0  0  0  0  0  0  0  0  0  0  0
    1.1420   -0.6310   -1.8150 C   0  0  0  0  0  0  0  0  0  0  0  0
   -2.3580    0.2550    0.3330 C   0  0  2  0  0  0  0  0  0  0  0  0
   -1.3950   -0.5460    1.1270 C   0  0  0  0  0  0  0  0  0  0  0  0
   -3.7280    0.0270    0.7780 C   0  0  0  0  0  0  0  0  0  0  0  0
   -3.9500   -1.1360    1.2960 O   0  0  0  0  0  0  0  0  0  0  0  0
   -4.8230    0.9000    0.7170 N   0  0  0  0  0  0  0  0  0  0  0  0
   -4.6460    2.2000    0.1070 C   0  0  0  0  0  0  0  0  0  0  0  0
   -5.5320    2.2580   -1.0760 C   0  0  0  0  0  0  0  0  0  0  0  0
   -6.7230    1.4020   -1.1390 C   0  0  0  0  0  0  0  0  0  0  0  0
   -7.1810    0.7130    0.1100 C   0  0  1  0  0  0  0  0  0  0  0  0
   -7.6510   -0.6670   -0.2590 C   0  0  0  0  0  0  0  0  0  0  0  0
   -7.4820   -1.7270    0.7500 C   0  0  0  0  0  0  0  0  0  0  0  0
   -6.4290   -1.6390    1.6150 O   0  0  0  0  0  0  0  0  0  0  0  0
   -6.3790   -0.3970    2.1870 C   0  0  2  0  0  0  0  0  0  0  0  0
   -5.5050   -0.2730    3.4030 C   0  0  0  0  0  0  0  0  0  0  0  0
   -7.8130   -0.1550    2.7300 C   0  0  0  0  0  0  0  0  0  0  0  0
   -6.1580    0.7150    1.2100 C   0  0  1  0  0  0  0  0  0  0  0  0
  2  1  1  1
  2  3  1  0
  2  5  1  0
  3  4  2  0
  6  5  1  1
  6  7  1  0
  6 30  1  0
  7  8  1  0
  8  9  2  0
  8 29  1  0
  9 10  1  0
 10 11  1  6
 10 12  1  0
 10 24  1  0
 12 13  1  0
 13 14  1  0
 15 14  1  6
 15 16  1  0
 15 22  1  0
 16 17  1  0
 17 18  1  0
 18 19  1  0
 19 20  1  6
 19 21  1  0
 19 22  1  0
 22 23  1  1
 24 25  2  0
 24 29  1  0
 25 26  1  0
 26 27  2  0
 27 28  1  0
 28 29  2  0
 30 31  1  1
 30 32  1  0
 32 33  2  0
 32 34  1  0
 34 35  1  0
 45 34  1  6
 35 36  1  0
 36 37  1  0
 38 37  1  6
 38 39  1  0
 38 45  1  0
 39 40  1  0
 40 41  1  0
 41 42  1  0
 42 43  1  1
 42 44  1  0
 42 45  1  0
M  END
