
     RDKit          3D

 47 52  0  0  0  0  0  0  0  0999 V2000
    6.7520   -6.5650    0.4920 C   0  0  0  0  0  0  0  0  0  0  0  0
    6.6180   -5.1040    0.2120 C   0  0  0  0  0  0  0  0  0  0  0  0
    5.5180   -4.5420    1.0870 C   0  0  2  0  0  0  0  0  0  0  0  0
    4.1970   -5.1870    0.8400 C   0  0  0  0  0  0  0  0  0  0  0  0
    3.2310   -4.0330    0.6200 C   0  0  0  0  0  0  0  0  0  0  0  0
    4.1550   -3.0440   -0.0500 C   0  0  1  0  0  0  0  0  0  0  0  0
    3.5830   -1.8960   -0.7090 C   0  0  0  0  0  0  0  0  0  0  0  0
    2.7420   -0.8900   -0.0420 C   0  0  2  0  0  0  0  0  0  0  0  0
    3.2870   -0.1090    1.0880 C   0  0  0  0  0  0  0  0  0  0  0  0
    4.5380    0.7120    0.7630 C   0  0  0  0  0  0  0  0  0  0  0  0
    4.2180    1.5650   -0.1990 O   0  0  0  0  0  0  0  0  0  0  0  0
    4.9990    2.4340   -0.8140 C   0  0  0  0  0  0  0  0  0  0  0  0
    5.7190    3.5020   -0.0690 C   0  0  2  0  0  0  0  0  0  0  0  0
    6.5020    4.4050   -1.0610 C   0  0  0  0  0  0  0  0  0  0  0  0
    7.8220    4.5120   -0.3280 C   0  0  1  0  0  0  0  0  0  0  0  0
    7.6950    5.0850    1.0440 C   0  0  0  0  0  0  0  0  0  0  0  0
    7.1290    3.9160    1.8490 C   0  0  0  0  0  0  0  0  0  0  0  0
    6.8400    2.9300    0.7210 C   0  0  2  0  0  0  0  0  0  0  0  0
    8.0150    3.1480   -0.0480 O   0  0  0  0  0  0  0  0  0  0  0  0
    1.4840   -1.3820    0.3570 O   0  0  0  0  0  0  0  0  0  0  0  0
    0.2520   -1.1190   -0.0820 C   0  0  0  0  0  0  0  0  0  0  0  0
   -0.0640   -0.2540   -1.0860 C   0  0  0  0  0  0  0  0  0  0  0  0
   -1.3790   -0.0250   -1.4970 C   0  0  0  0  0  0  0  0  0  0  0  0
   -2.4320   -0.6880   -0.8780 C   0  0  0  0  0  0  0  0  0  0  0  0
   -3.8240   -0.5000   -1.3040 C   0  0  0  0  0  0  0  0  0  0  0  0
   -4.5120    0.7100   -0.6660 C   0  0  2  0  0  0  0  0  0  0  0  0
   -3.6670    1.9300   -1.1040 C   0  0  0  0  0  0  0  0  0  0  0  0
   -4.4580    0.6810    0.8080 C   0  0  0  0  0  0  0  0  0  0  0  0
   -5.5530   -0.0430    1.5100 C   0  0  0  0  0  0  0  0  0  0  0  0
   -6.7110   -0.3310    0.6460 C   0  0  0  0  0  0  0  0  0  0  0  0
   -7.7300   -1.0740    1.2410 C   0  0  0  0  0  0  0  0  0  0  0  0
   -8.8740   -1.4180    0.5560 C   0  0  0  0  0  0  0  0  0  0  0  0
   -9.0390   -1.0310   -0.7510 C   0  0  0  0  0  0  0  0  0  0  0  0
  -10.1920   -1.3760   -1.4490 O   0  0  0  0  0  0  0  0  0  0  0  0
  -11.1980   -2.1220   -0.8240 C   0  0  0  0  0  0  0  0  0  0  0  0
   -8.0240   -0.2990   -1.3230 C   0  0  0  0  0  0  0  0  0  0  0  0
   -6.8580    0.0560   -0.6340 C   0  0  0  0  0  0  0  0  0  0  0  0
   -5.8210    0.8500   -1.3390 C   0  0  1  0  0  0  0  0  0  0  0  0
   -6.2990    2.2100   -1.6860 C   0  0  0  0  0  0  0  0  0  0  0  0
   -6.5360    3.1500   -0.5880 C   0  0  0  0  0  0  0  0  0  0  0  0
   -6.5130    2.8930    0.6290 O   0  0  0  0  0  0  0  0  0  0  0  0
   -6.8300    4.5250   -0.9200 N   0  0  0  0  0  0  0  0  0  0  0  0
   -7.0630    5.4520    0.1570 C   0  0  0  0  0  0  0  0  0  0  0  0
   -2.1140   -1.5630    0.1370 C   0  0  0  0  0  0  0  0  0  0  0  0
   -0.8160   -1.7750    0.5260 C   0  0  0  0  0  0  0  0  0  0  0  0
    5.3320   -3.0300    0.8060 C   0  0  1  0  0  0  0  0  0  0  0  0
    5.3330   -2.4270    2.0090 O   0  0  0  0  0  0  0  0  0  0  0  0
  1  2  1  0
  3  2  1  6
  3  4  1  0
  3 46  1  0
  4  5  1  0
  5  6  1  0
  6  7  1  1
  6 46  1  0
  8  7  1  1
  8  9  1  0
  8 20  1  0
  9 10  1  0
 10 11  1  0
 11 12  1  0
 13 12  1  6
 13 14  1  0
 13 18  1  0
 15 14  1  6
 15 16  1  0
 15 19  1  0
 16 17  1  0
 18 17  1  1
 18 19  1  0
 20 21  1  0
 21 22  2  0
 21 45  1  0
 22 23  1  0
 23 24  2  0
 24 25  1  0
 24 44  1  0
 25 26  1  0
 26 27  1  6
 26 28  1  0
 26 38  1  0
 28 29  1  0
 29 30  1  0
 30 31  2  0
 30 37  1  0
 31 32  1  0
 32 33  2  0
 33 34  1  0
 33 36  1  0
 34 35  1  0
 36 37  2  0
 37 38  1  0
 38 39  1  1
 39 40  1  0
 40 41  2  0
 40 42  1  0
 42 43  1  0
 44 45  2  0
 46 47  1  1
M  END
