
     RDKit          3D

 46 51  0  0  0  0  0  0  0  0999 V2000
    1.0800   -1.7920    1.5740 C   0  0  0  0  0  0  0  0  0  0  0  0
    2.1990   -1.0370    0.8680 C   0  0  0  0  0  0  0  0  0  0  0  0
    1.6740   -0.1260   -0.1960 C   0  0  1  0  0  0  0  0  0  0  0  0
    2.8940    0.5670   -0.8210 C   0  0  0  0  0  0  0  0  0  0  0  0
    3.6940   -0.4900   -1.3980 N   0  0  0  0  0  0  0  0  0  0  0  0
    4.9910   -0.8000   -0.9720 C   0  0  0  0  0  0  0  0  0  0  0  0
    5.5460   -1.7920   -1.5670 O   0  0  0  0  0  0  0  0  0  0  0  0
    5.6720   -0.0340    0.0870 C   0  0  1  0  0  0  0  0  0  0  0  0
    6.9520   -0.8380    0.3950 C   0  0  0  0  0  0  0  0  0  0  0  0
    7.9310   -0.4970   -0.7040 C   0  0  0  0  0  0  0  0  0  0  0  0
    8.4100    0.7610   -0.4280 O   0  0  0  0  0  0  0  0  0  0  0  0
    7.4840    1.6970   -0.0680 C   0  0  2  0  0  0  0  0  0  0  0  0
    7.8140    2.9440   -0.9170 C   0  0  0  0  0  0  0  0  0  0  0  0
    9.1740    3.4140   -0.3850 C   0  0  0  0  0  0  0  0  0  0  0  0
    9.8170    2.3900    0.3190 O   0  0  0  0  0  0  0  0  0  0  0  0
    9.2140    2.1710    1.5730 C   0  0  0  0  0  0  0  0  0  0  0  0
    7.7070    2.1920    1.3710 C   0  0  0  0  0  0  0  0  0  0  0  0
    6.0510    1.3610   -0.2760 C   0  0  0  0  0  0  0  0  0  0  0  0
    3.0420   -1.2220   -2.4840 C   0  0  0  0  0  0  0  0  0  0  0  0
    1.7530   -1.8450   -2.0360 C   0  0  0  0  0  0  0  0  0  0  0  0
    0.9150   -0.8430   -1.2730 C   0  0  1  0  0  0  0  0  0  0  0  0
   -0.2150   -1.4310   -0.6910 O   0  0  0  0  0  0  0  0  0  0  0  0
   -1.4680   -1.0890   -1.0880 C   0  0  0  0  0  0  0  0  0  0  0  0
   -1.6190   -0.2420   -1.9820 O   0  0  0  0  0  0  0  0  0  0  0  0
   -2.7330   -1.7190   -0.4750 C   0  0  2  0  0  0  0  0  0  0  0  0
   -2.8870   -3.0300   -1.1170 C   0  0  0  0  0  0  0  0  0  0  0  0
   -3.9640   -3.9800   -0.8420 C   0  0  0  0  0  0  0  0  0  0  0  0
   -5.3320   -3.5700   -1.2180 C   0  0  0  0  0  0  0  0  0  0  0  0
   -6.3390   -4.7050   -0.9220 C   0  0  2  0  0  0  0  0  0  0  0  0
   -5.8760   -5.8950   -1.7590 C   0  0  0  0  0  0  0  0  0  0  0  0
   -7.6660   -4.2580   -1.5030 C   0  0  0  0  0  0  0  0  0  0  0  0
   -3.7880   -0.6990   -0.4830 C   0  0  0  0  0  0  0  0  0  0  0  0
   -3.3680    0.4960    0.3730 C   0  0  1  0  0  0  0  0  0  0  0  0
   -2.2290    1.1330   -0.0080 O   0  0  0  0  0  0  0  0  0  0  0  0
   -4.5310    1.4210    0.5470 C   0  0  0  0  0  0  0  0  0  0  0  0
   -5.7160    1.2280   -0.1340 C   0  0  0  0  0  0  0  0  0  0  0  0
   -6.7980    2.0730   -0.0060 C   0  0  0  0  0  0  0  0  0  0  0  0
   -6.7300    3.1770    0.8370 C   0  0  0  0  0  0  0  0  0  0  0  0
   -5.5680    3.3720    1.5100 C   0  0  0  0  0  0  0  0  0  0  0  0
   -5.5850    4.4640    2.3060 C   0  0  0  0  0  0  0  0  0  0  0  0
   -4.4390    4.7500    3.0410 C   0  0  0  0  0  0  0  0  0  0  0  0
   -3.3330    3.9190    2.9350 C   0  0  0  0  0  0  0  0  0  0  0  0
   -3.3390    2.8030    2.1100 C   0  0  0  0  0  0  0  0  0  0  0  0
   -4.4580    2.5100    1.3820 C   0  0  0  0  0  0  0  0  0  0  0  0
   -6.9030    5.1070    2.1670 C   0  0  0  0  0  0  0  0  0  0  0  0
   -7.6670    4.2560    1.2100 C   0  0  0  0  0  0  0  0  0  0  0  0
  1  2  1  0
  3  2  1  1
  3  4  1  0
  3 21  1  0
  4  5  1  0
  5  6  1  0
  5 19  1  0
  6  7  2  0
  8  6  1  6
  8  9  1  0
  8 18  1  0
  9 10  1  0
 10 11  1  0
 11 12  1  0
 12 13  1  6
 12 17  1  0
 12 18  1  0
 13 14  1  0
 14 15  1  0
 15 16  1  0
 16 17  1  0
 19 20  1  0
 20 21  1  0
 21 22  1  1
 22 23  1  0
 23 24  2  0
 23 25  1  0
 25 26  1  6
 25 32  1  0
 26 27  1  0
 27 28  1  0
 28 29  1  0
 29 30  1  6
 29 31  1  0
 32 33  1  0
 33 34  1  6
 33 35  1  0
 35 36  2  0
 35 44  1  0
 36 37  1  0
 37 38  2  0
 38 39  1  0
 38 46  1  0
 39 40  2  0
 39 44  1  0
 40 41  1  0
 40 45  1  0
 41 42  2  0
 42 43  1  0
 43 44  2  0
 45 46  1  0
M  END
