
     RDKit          3D

 47 52  0  0  0  0  0  0  0  0999 V2000
   -9.3400    2.7570    3.2360 C   0  0  0  0  0  0  0  0  0  0  0  0
   -8.3950    2.2880    2.3200 O   0  0  0  0  0  0  0  0  0  0  0  0
   -7.5810    1.1800    2.4850 C   0  0  0  0  0  0  0  0  0  0  0  0
   -7.6910    0.5290    3.5420 O   0  0  0  0  0  0  0  0  0  0  0  0
   -6.6000    0.7540    1.4510 C   0  0  1  0  0  0  0  0  0  0  0  0
   -5.8720   -0.4520    1.9660 C   0  0  0  0  0  0  0  0  0  0  0  0
   -5.0310   -1.1500    0.9030 C   0  0  0  0  0  0  0  0  0  0  0  0
   -5.1810   -0.4090   -0.4030 C   0  0  1  0  0  0  0  0  0  0  0  0
   -4.1530   -0.7160   -1.4460 C   0  0  1  0  0  0  0  0  0  0  0  0
   -2.7860   -0.2260   -1.1460 C   0  0  1  0  0  0  0  0  0  0  0  0
   -2.1890   -0.9300   -0.0700 O   0  0  0  0  0  0  0  0  0  0  0  0
   -1.7810   -0.0290   -2.2300 C   0  0  0  0  0  0  0  0  0  0  0  0
   -1.1920    1.0920   -1.3790 C   0  0  2  0  0  0  0  0  0  0  0  0
   -0.1460    0.7140   -0.5100 N   0  0  0  0  0  0  0  0  0  0  0  0
    0.7290    1.6830    0.0670 C   0  0  0  0  0  0  0  0  0  0  0  0
    0.5360    2.8950   -0.2050 O   0  0  0  0  0  0  0  0  0  0  0  0
    1.8180    1.3120    0.9530 C   0  0  0  0  0  0  0  0  0  0  0  0
    1.8590    1.7700    2.2730 C   0  0  0  0  0  0  0  0  0  0  0  0
    2.8400    1.3250    3.1340 C   0  0  0  0  0  0  0  0  0  0  0  0
    3.8070    0.4270    2.7400 C   0  0  0  0  0  0  0  0  0  0  0  0
    3.7800   -0.0290    1.4430 C   0  0  0  0  0  0  0  0  0  0  0  0
    4.8110   -0.9420    0.9870 C   0  0  0  0  0  0  0  0  0  0  0  0
    4.9790   -1.0360   -0.2700 O   0  0  0  0  0  0  0  0  0  0  0  0
    5.6690   -1.7580    1.8330 C   0  0  0  0  0  0  0  0  0  0  0  0
    7.1340   -1.7530    1.4970 C   0  0  2  0  0  0  0  0  0  0  0  0
    7.7850   -0.4250    1.5940 C   0  0  0  0  0  0  0  0  0  0  0  0
    7.7500    0.4590    0.3970 C   0  0  1  0  0  0  0  0  0  0  0  0
    8.7040    1.6350    0.7340 C   0  0  0  0  0  0  0  0  0  0  0  0
   10.1070    1.1800    0.6320 C   0  0  0  0  0  0  0  0  0  0  0  0
   10.4390    0.5610   -0.4980 C   0  0  0  0  0  0  0  0  0  0  0  0
    9.3450    0.4210   -1.4970 C   0  0  0  0  0  0  0  0  0  0  0  0
    8.1670   -0.2570   -0.8450 C   0  0  1  0  0  0  0  0  0  0  0  0
    8.5340   -1.7070   -0.6080 C   0  0  0  0  0  0  0  0  0  0  0  0
    7.4600   -2.3750    0.1960 C   0  0  0  0  0  0  0  0  0  0  0  0
    6.8770   -3.3650   -0.1740 O   0  0  0  0  0  0  0  0  0  0  0  0
    2.7800    0.4250    0.5660 C   0  0  0  0  0  0  0  0  0  0  0  0
    2.8160   -0.0480   -0.8620 C   0  0  0  0  0  0  0  0  0  0  0  0
   -2.6100    1.2300   -0.8040 C   0  0  1  0  0  0  0  0  0  0  0  0
   -3.3220    2.2470   -1.6640 C   0  0  0  0  0  0  0  0  0  0  0  0
   -2.5300    1.6230    0.6280 C   0  0  0  0  0  0  0  0  0  0  0  0
   -4.0240   -2.2800   -1.3230 C   0  0  0  0  0  0  0  0  0  0  0  0
   -3.4110   -2.8760   -2.5600 C   0  0  0  0  0  0  0  0  0  0  0  0
   -4.4640   -2.8770   -3.6680 C   0  0  0  0  0  0  0  0  0  0  0  0
   -5.4030   -1.7200   -3.3970 C   0  0  0  0  0  0  0  0  0  0  0  0
   -4.5510   -0.5550   -2.8600 C   0  0  0  0  0  0  0  0  0  0  0  0
   -6.6090   -0.4320   -0.7860 C   0  0  0  0  0  0  0  0  0  0  0  0
   -7.3530    0.5140    0.1830 C   0  0  0  0  0  0  0  0  0  0  0  0
  1  2  1  0
  2  3  1  0
  3  4  2  0
  5  3  1  1
  5  6  1  0
  5 47  1  0
  6  7  1  0
  8  7  1  1
  8  9  1  0
  8 46  1  0
  9 10  1  0
  9 41  1  6
  9 45  1  0
 10 11  1  1
 10 12  1  0
 10 38  1  0
 12 13  1  0
 13 14  1  1
 13 38  1  0
 14 15  1  0
 15 16  2  0
 15 17  1  0
 17 18  2  0
 17 36  1  0
 18 19  1  0
 19 20  2  0
 20 21  1  0
 21 22  1  0
 21 36  2  0
 22 23  2  0
 22 24  1  0
 25 24  1  6
 25 26  1  0
 25 34  1  0
 27 26  1  1
 27 28  1  0
 27 32  1  0
 28 29  1  0
 29 30  2  0
 30 31  1  0
 32 31  1  1
 32 33  1  0
 33 34  1  0
 34 35  2  0
 36 37  1  0
 38 39  1  6
 38 40  1  0
 41 42  1  0
 42 43  1  0
 43 44  1  0
 44 45  1  0
 46 47  1  0
M  END
