
     RDKit          3D

 45 49  0  0  0  0  0  0  0  0999 V2000
   -3.4130   -4.8480    1.4460 C   0  0  0  0  0  0  0  0  0  0  0  0
   -2.0210   -5.3260    1.6210 C   0  0  0  0  0  0  0  0  0  0  0  0
   -1.0930   -4.3950    1.3380 O   0  0  0  0  0  0  0  0  0  0  0  0
   -1.0370   -3.8840    0.0430 C   0  0  2  0  0  0  0  0  0  0  0  0
    0.1590   -4.4360   -0.6630 C   0  0  0  0  0  0  0  0  0  0  0  0
   -0.1440   -5.2530   -1.7170 C   0  0  0  0  0  0  0  0  0  0  0  0
    0.8390   -5.8700   -2.4670 C   0  0  0  0  0  0  0  0  0  0  0  0
    2.1480   -5.6370   -2.1230 C   0  0  0  0  0  0  0  0  0  0  0  0
    2.4390   -4.8090   -1.0560 C   0  0  0  0  0  0  0  0  0  0  0  0
    1.4720   -4.1970   -0.3120 C   0  0  0  0  0  0  0  0  0  0  0  0
    1.9630   -3.3030    0.8000 C   0  0  0  0  0  0  0  0  0  0  0  0
    1.3820   -1.9800    0.4870 N   0  0  0  0  0  0  0  0  0  0  0  0
    2.1830   -0.9130    0.9050 C   0  0  0  0  0  0  0  0  0  0  0  0
    3.2680   -1.1920    1.5330 O   0  0  0  0  0  0  0  0  0  0  0  0
    1.9390    0.5270    0.7100 C   0  0  2  0  0  0  0  0  0  0  0  0
    2.1440    0.8320   -0.7570 C   0  0  0  0  0  0  0  0  0  0  0  0
    2.7180    2.2310   -0.8680 C   0  0  2  0  0  0  0  0  0  0  0  0
    2.6370    2.6620   -2.2980 C   0  0  0  0  0  0  0  0  0  0  0  0
    4.0690    2.1490   -0.5170 O   0  0  0  0  0  0  0  0  0  0  0  0
    4.2370    1.5150    0.7060 C   0  0  1  0  0  0  0  0  0  0  0  0
    5.2350    2.2830    1.5200 C   0  0  0  0  0  0  0  0  0  0  0  0
    4.8350    3.6900    1.7910 C   0  0  2  0  0  0  0  0  0  0  0  0
    4.6380    4.5470    0.5710 C   0  0  0  0  0  0  0  0  0  0  0  0
    5.8850    4.3570    2.6560 C   0  0  0  0  0  0  0  0  0  0  0  0
    2.9650    1.3750    1.4740 C   0  0  0  0  0  0  0  0  0  0  0  0
    0.1790   -1.6450   -0.1610 C   0  0  0  0  0  0  0  0  0  0  0  0
   -1.0730   -2.3940    0.1320 C   0  0  2  0  0  0  0  0  0  0  0  0
   -1.7860   -1.8590    1.3590 C   0  0  0  0  0  0  0  0  0  0  0  0
   -1.2300   -2.2700    2.5410 O   0  0  0  0  0  0  0  0  0  0  0  0
   -2.0190   -1.9790   -1.0340 C   0  0  0  0  0  0  0  0  0  0  0  0
   -2.1410   -0.5680   -1.0520 O   0  0  0  0  0  0  0  0  0  0  0  0
   -2.9060    0.0810   -1.9910 C   0  0  0  0  0  0  0  0  0  0  0  0
   -3.5000   -0.6190   -2.8480 O   0  0  0  0  0  0  0  0  0  0  0  0
   -3.0720    1.5520   -2.0520 C   0  0  1  0  0  0  0  0  0  0  0  0
   -1.7640    2.2610   -2.3260 C   0  0  0  0  0  0  0  0  0  0  0  0
   -4.0660    1.9390   -3.1230 C   0  0  0  0  0  0  0  0  0  0  0  0
   -5.3880    1.7250   -2.4370 C   0  0  0  0  0  0  0  0  0  0  0  0
   -5.0720    2.1290   -1.0370 C   0  0  0  0  0  0  0  0  0  0  0  0
   -5.8650    2.5610    0.0070 C   0  0  0  0  0  0  0  0  0  0  0  0
   -5.3380    2.8860    1.2400 C   0  0  0  0  0  0  0  0  0  0  0  0
   -3.9700    2.7870    1.4750 C   0  0  0  0  0  0  0  0  0  0  0  0
   -3.4410    3.1180    2.7290 O   0  0  0  0  0  0  0  0  0  0  0  0
   -2.0400    2.9900    2.8880 C   0  0  0  0  0  0  0  0  0  0  0  0
   -3.1900    2.3540    0.4220 C   0  0  0  0  0  0  0  0  0  0  0  0
   -3.7150    2.0290   -0.8130 C   0  0  0  0  0  0  0  0  0  0  0  0
  1  2  1  0
  2  3  1  0
  4  3  1  1
  4  5  1  0
  4 27  1  0
  5  6  2  0
  5 10  1  0
  6  7  1  0
  7  8  2  0
  8  9  1  0
  9 10  2  0
 10 11  1  0
 11 12  1  0
 12 13  1  0
 12 26  1  0
 13 14  2  0
 15 13  1  6
 15 16  1  0
 15 25  1  0
 16 17  1  0
 17 18  1  6
 17 19  1  0
 19 20  1  0
 20 21  1  1
 20 25  1  0
 21 22  1  0
 22 23  1  6
 22 24  1  0
 26 27  1  0
 27 28  1  1
 27 30  1  0
 28 29  1  0
 30 31  1  0
 31 32  1  0
 32 33  2  0
 32 34  1  0
 34 35  1  6
 34 36  1  0
 34 45  1  0
 36 37  1  0
 37 38  1  0
 38 39  2  0
 38 45  1  0
 39 40  1  0
 40 41  2  0
 41 42  1  0
 41 44  1  0
 42 43  1  0
 44 45  2  0
M  END
