
     RDKit          3D

 42 45  0  0  0  0  0  0  0  0999 V2000
   -7.9910    3.0840    2.1760 C   0  0  0  0  0  0  0  0  0  0  0  0
   -6.6360    3.3770    1.9080 O   0  0  0  0  0  0  0  0  0  0  0  0
   -5.9150    2.6220    1.0050 C   0  0  0  0  0  0  0  0  0  0  0  0
   -6.4560    1.5560    0.3190 C   0  0  0  0  0  0  0  0  0  0  0  0
   -5.6840    0.8280   -0.5800 C   0  0  0  0  0  0  0  0  0  0  0  0
   -4.3560    1.1660   -0.7980 C   0  0  0  0  0  0  0  0  0  0  0  0
   -3.4120    0.2510   -1.9300 S   0  0  1  0  0  0  0  0  0  0  0  0
   -4.3090   -0.3070   -3.0250 O   0  0  0  0  0  0  0  0  0  0  0  0
   -2.3750    1.0810   -2.6130 O   0  0  0  0  0  0  0  0  0  0  0  0
   -2.7000   -1.1320   -1.1620 N   0  0  0  0  0  0  0  0  0  0  0  0
   -3.5500   -2.1600   -0.5740 C   0  0  0  0  0  0  0  0  0  0  0  0
   -3.9730   -3.1910   -1.5400 C   0  0  0  0  0  0  0  0  0  0  0  0
   -4.7980   -4.2580   -1.1050 N   0  0  0  0  0  0  0  0  0  0  0  0
   -3.6230   -3.1500   -2.7350 O   0  0  0  0  0  0  0  0  0  0  0  0
   -1.2930   -1.2010   -1.1280 C   0  0  0  0  0  0  0  0  0  0  0  0
   -0.6130   -1.7980   -2.1530 C   0  0  0  0  0  0  0  0  0  0  0  0
    0.7880   -1.8610   -2.1310 C   0  0  0  0  0  0  0  0  0  0  0  0
    1.4870   -1.3210   -1.0760 C   0  0  0  0  0  0  0  0  0  0  0  0
    2.9020   -1.3720   -1.0270 N   0  0  0  0  0  0  0  0  0  0  0  0
    3.4990   -2.5120   -0.3700 C   0  0  0  0  0  0  0  0  0  0  0  0
    3.8480   -3.6330   -1.2350 C   0  0  0  0  0  0  0  0  0  0  0  0
    4.4310   -4.7970   -0.6800 N   0  0  0  0  0  0  0  0  0  0  0  0
    3.6550   -3.6190   -2.4660 O   0  0  0  0  0  0  0  0  0  0  0  0
    3.7870   -0.0900   -1.7180 S   0  0  2  0  0  0  0  0  0  0  0  0
    2.9060    0.9200   -2.3970 O   0  0  0  0  0  0  0  0  0  0  0  0
    4.7420   -0.5860   -2.7970 O   0  0  0  0  0  0  0  0  0  0  0  0
    4.7540    0.7720   -0.5540 C   0  0  0  0  0  0  0  0  0  0  0  0
    6.0400    0.3210   -0.3170 C   0  0  0  0  0  0  0  0  0  0  0  0
    6.8610    0.9670    0.5980 C   0  0  0  0  0  0  0  0  0  0  0  0
    6.4400    2.0730    1.3050 C   0  0  0  0  0  0  0  0  0  0  0  0
    7.2470    2.7330    2.2250 O   0  0  0  0  0  0  0  0  0  0  0  0
    6.7290    3.8590    2.9020 C   0  0  0  0  0  0  0  0  0  0  0  0
    5.1400    2.5090    1.0490 C   0  0  0  0  0  0  0  0  0  0  0  0
    4.3260    1.8660    0.1390 C   0  0  0  0  0  0  0  0  0  0  0  0
    0.7590   -0.7300   -0.0690 C   0  0  0  0  0  0  0  0  0  0  0  0
    1.4450   -0.1930    0.9830 C   0  0  0  0  0  0  0  0  0  0  0  0
    0.8040    0.4220    2.0450 C   0  0  0  0  0  0  0  0  0  0  0  0
   -0.5720    0.4730    2.0060 C   0  0  0  0  0  0  0  0  0  0  0  0
   -1.2890   -0.0620    0.9570 C   0  0  0  0  0  0  0  0  0  0  0  0
   -0.6110   -0.6600   -0.0740 C   0  0  0  0  0  0  0  0  0  0  0  0
   -3.8100    2.2260   -0.1190 C   0  0  0  0  0  0  0  0  0  0  0  0
   -4.5760    2.9650    0.7870 C   0  0  0  0  0  0  0  0  0  0  0  0
  1  2  1  0
  2  3  1  0
  3  4  2  0
  3 42  1  0
  4  5  1  0
  5  6  2  0
  6  7  1  0
  6 41  1  0
  7  8  2  0
  7  9  2  0
  7 10  1  1
 10 11  1  0
 10 15  1  0
 11 12  1  0
 12 13  1  0
 12 14  2  0
 15 16  2  0
 15 40  1  0
 16 17  1  0
 17 18  2  0
 18 19  1  0
 18 35  1  0
 19 20  1  0
 24 19  1  1
 20 21  1  0
 21 22  1  0
 21 23  2  0
 24 25  2  0
 24 26  2  0
 24 27  1  0
 27 28  2  0
 27 34  1  0
 28 29  1  0
 29 30  2  0
 30 31  1  0
 30 33  1  0
 31 32  1  0
 33 34  2  0
 35 36  2  0
 35 40  1  0
 36 37  1  0
 37 38  2  0
 38 39  1  0
 39 40  2  0
 41 42  2  0
M  END
