
     RDKit          3D

 42 46  0  0  0  0  0  0  0  0999 V2000
   -1.5140    6.5140   -0.3780 C   0  0  0  0  0  0  0  0  0  0  0  0
   -2.0030    5.5080    0.6240 C   0  0  2  0  0  0  0  0  0  0  0  0
   -1.3600    5.7010    1.9950 C   0  0  0  0  0  0  0  0  0  0  0  0
    0.0020    5.5670    1.8790 O   0  0  0  0  0  0  0  0  0  0  0  0
   -1.6710    4.1540    0.1550 C   0  0  0  0  0  0  0  0  0  0  0  0
   -0.3950    3.7830   -0.1720 C   0  0  0  0  0  0  0  0  0  0  0  0
   -0.0970    2.4880   -0.6120 C   0  0  0  0  0  0  0  0  0  0  0  0
   -1.0890    1.5530   -0.7260 C   0  0  0  0  0  0  0  0  0  0  0  0
   -0.9150    0.1490   -1.1580 C   0  0  1  0  0  0  0  0  0  0  0  0
    0.4690   -0.3130   -1.1540 C   0  0  0  0  0  0  0  0  0  0  0  0
    1.2940    0.2880   -1.9320 O   0  0  0  0  0  0  0  0  0  0  0  0
    1.0360   -1.3250   -0.4210 O   0  0  0  0  0  0  0  0  0  0  0  0
    2.3830   -1.7290   -0.4470 C   0  0  0  0  0  0  0  0  0  0  0  0
    3.3510   -0.7380    0.0070 C   0  0  0  0  0  0  0  0  0  0  0  0
    3.0170    0.4960    0.5270 C   0  0  0  0  0  0  0  0  0  0  0  0
    4.0020    1.3880    0.9690 C   0  0  0  0  0  0  0  0  0  0  0  0
    5.3370    1.0640    0.8980 C   0  0  0  0  0  0  0  0  0  0  0  0
    5.6710   -0.1620    0.3830 C   0  0  0  0  0  0  0  0  0  0  0  0
    4.6880   -1.0330   -0.0490 C   0  0  0  0  0  0  0  0  0  0  0  0
    5.1540   -2.3200   -0.5750 C   0  0  0  0  0  0  0  0  0  0  0  0
    6.0580   -2.8420    0.3180 O   0  0  0  0  0  0  0  0  0  0  0  0
    7.1370   -2.0780    0.6360 C   0  0  0  0  0  0  0  0  0  0  0  0
    7.0780   -0.6420    0.2440 C   0  0  1  0  0  0  0  0  0  0  0  0
    7.5330   -0.5340   -1.0750 O   0  0  0  0  0  0  0  0  0  0  0  0
   -1.8430   -0.7210   -0.4140 N   0  0  0  0  0  0  0  0  0  0  0  0
   -1.8640   -1.9770   -1.0890 C   0  0  0  0  0  0  0  0  0  0  0  0
   -2.3910   -1.9480   -2.4690 C   0  0  0  0  0  0  0  0  0  0  0  0
   -3.2480   -0.9900   -2.9420 C   0  0  0  0  0  0  0  0  0  0  0  0
   -3.7100   -1.0270   -4.2650 C   0  0  0  0  0  0  0  0  0  0  0  0
   -3.3120   -2.0310   -5.1240 C   0  0  0  0  0  0  0  0  0  0  0  0
   -3.7820   -2.0590   -6.4620 N   0  0  0  0  0  0  0  0  0  0  0  0
   -2.4470   -3.0010   -4.6550 C   0  0  0  0  0  0  0  0  0  0  0  0
   -2.0060   -2.9400   -3.3420 C   0  0  0  0  0  0  0  0  0  0  0  0
   -1.5850   -0.6980    0.9690 C   0  0  0  0  0  0  0  0  0  0  0  0
   -2.5490   -1.2470    1.9390 C   0  0  2  0  0  0  0  0  0  0  0  0
   -1.9140   -1.0160    3.3370 C   0  0  0  0  0  0  0  0  0  0  0  0
   -1.1750   -2.2690    3.7150 C   0  0  0  0  0  0  0  0  0  0  0  0
   -2.2100   -3.3050    4.1600 C   0  0  0  0  0  0  0  0  0  0  0  0
   -3.4280   -3.0580    3.3060 C   0  0  0  0  0  0  0  0  0  0  0  0
   -2.9140   -2.6790    1.8910 C   0  0  0  0  0  0  0  0  0  0  0  0
   -2.4000    1.9420   -0.3880 C   0  0  0  0  0  0  0  0  0  0  0  0
   -2.6720    3.2190    0.0420 C   0  0  0  0  0  0  0  0  0  0  0  0
  2  1  1  6
  2  3  1  0
  2  5  1  0
  3  4  1  0
  5  6  2  0
  5 42  1  0
  6  7  1  0
  7  8  2  0
  8  9  1  0
  8 41  1  0
  9 10  1  0
  9 25  1  1
 10 11  2  0
 10 12  1  0
 12 13  1  0
 13 14  1  0
 14 15  2  0
 14 19  1  0
 15 16  1  0
 16 17  2  0
 17 18  1  0
 18 19  2  0
 18 23  1  0
 19 20  1  0
 20 21  1  0
 21 22  1  0
 22 23  1  0
 23 24  1  6
 25 26  1  0
 25 34  1  0
 26 27  1  0
 27 28  2  0
 27 33  1  0
 28 29  1  0
 29 30  2  0
 30 31  1  0
 30 32  1  0
 32 33  2  0
 35 34  1  6
 35 36  1  0
 35 40  1  0
 36 37  1  0
 37 38  1  0
 38 39  1  0
 39 40  1  0
 41 42  2  0
M  END
