
     RDKit          3D

 42 46  0  0  0  0  0  0  0  0999 V2000
   -3.7440    0.0880   -3.9180 C   0  0  0  0  0  0  0  0  0  0  0  0
   -2.4140   -0.5640   -3.6620 C   0  0  0  0  0  0  0  0  0  0  0  0
   -1.9750   -0.7870   -2.4560 C   0  0  0  0  0  0  0  0  0  0  0  0
   -2.6320   -0.4290   -1.2210 C   0  0  0  0  0  0  0  0  0  0  0  0
   -2.0800   -1.0090   -0.1510 O   0  0  0  0  0  0  0  0  0  0  0  0
   -3.7230    0.3870   -0.7980 C   0  0  0  0  0  0  0  0  0  0  0  0
   -4.1310    1.5550   -1.3590 C   0  0  0  0  0  0  0  0  0  0  0  0
   -5.2750    2.2630   -0.9690 C   0  0  0  0  0  0  0  0  0  0  0  0
   -6.0500    1.7850    0.0340 C   0  0  0  0  0  0  0  0  0  0  0  0
   -5.6880    0.6110    0.6430 C   0  0  0  0  0  0  0  0  0  0  0  0
   -4.5700   -0.0710    0.2510 C   0  0  0  0  0  0  0  0  0  0  0  0
   -6.5730    0.1220    1.7510 C   0  0  0  0  0  0  0  0  0  0  0  0
   -8.0260    0.3010    1.4850 C   0  0  1  0  0  0  0  0  0  0  0  0
   -8.7320    0.6580    2.7950 C   0  0  0  0  0  0  0  0  0  0  0  0
   -8.3650    1.3490    0.4540 C   0  0  0  0  0  0  0  0  0  0  0  0
   -7.2860    2.4340    0.5390 C   0  0  0  0  0  0  0  0  0  0  0  0
   -0.7290   -1.6500   -2.3540 C   0  0  2  0  0  0  0  0  0  0  0  0
   -0.1440   -1.6950   -1.0060 C   0  0  0  0  0  0  0  0  0  0  0  0
    0.5470   -0.6480   -0.4280 C   0  0  0  0  0  0  0  0  0  0  0  0
    1.0940   -0.8070    0.8370 C   0  0  0  0  0  0  0  0  0  0  0  0
    0.9800   -1.9740    1.5560 C   0  0  0  0  0  0  0  0  0  0  0  0
    1.4970   -2.1910    2.8140 O   0  0  0  0  0  0  0  0  0  0  0  0
    2.2040   -1.2450    3.5370 C   0  0  0  0  0  0  0  0  0  0  0  0
    3.4490   -0.7460    2.9150 C   0  0  0  0  0  0  0  0  0  0  0  0
    4.2740   -1.5240    2.1390 C   0  0  0  0  0  0  0  0  0  0  0  0
    5.4380   -1.0170    1.5710 C   0  0  0  0  0  0  0  0  0  0  0  0
    5.8220    0.2830    1.7540 C   0  0  0  0  0  0  0  0  0  0  0  0
    7.0510    0.8600    1.1620 C   0  0  0  0  0  0  0  0  0  0  0  0
    7.2690    2.0540    1.4430 O   0  0  0  0  0  0  0  0  0  0  0  0
    7.9190    0.0380    0.3130 C   0  0  1  0  0  0  0  0  0  0  0  0
    7.1620   -0.4960   -0.9010 C   0  0  0  0  0  0  0  0  0  0  0  0
    9.1760    0.6580   -0.1610 C   0  0  0  0  0  0  0  0  0  0  0  0
    9.1000    1.8550   -1.0230 C   0  0  0  0  0  0  0  0  0  0  0  0
    8.4890    2.9570   -0.4730 O   0  0  0  0  0  0  0  0  0  0  0  0
    4.9930    1.0720    2.5340 C   0  0  0  0  0  0  0  0  0  0  0  0
    3.8390    0.5690    3.0980 C   0  0  0  0  0  0  0  0  0  0  0  0
    0.2900   -3.0310    0.9850 C   0  0  0  0  0  0  0  0  0  0  0  0
   -0.2450   -2.8560   -0.2700 C   0  0  0  0  0  0  0  0  0  0  0  0
    0.2060   -1.3140   -3.3560 N   0  0  0  0  0  0  0  0  0  0  0  0
   -0.2610   -1.1100   -4.6740 C   0  0  0  0  0  0  0  0  0  0  0  0
    0.5380   -1.2850   -5.6530 O   0  0  0  0  0  0  0  0  0  0  0  0
   -1.6010   -0.7180   -4.8590 N   0  0  0  0  0  0  0  0  0  0  0  0
  1  2  1  0
  2  3  2  0
  2 42  1  0
  3  4  1  0
  3 17  1  0
  4  5  2  0
  4  6  1  0
  6  7  2  0
  6 11  1  0
  7  8  1  0
  8  9  2  0
  9 10  1  0
  9 16  1  0
 10 11  2  0
 10 12  1  0
 12 13  1  0
 13 14  1  1
 13 15  1  0
 15 16  1  0
 17 18  1  1
 17 39  1  0
 18 19  2  0
 18 38  1  0
 19 20  1  0
 20 21  2  0
 21 22  1  0
 21 37  1  0
 22 23  1  0
 23 24  1  0
 24 25  2  0
 24 36  1  0
 25 26  1  0
 26 27  2  0
 27 28  1  0
 27 35  1  0
 28 29  2  0
 28 30  1  0
 30 31  1  6
 30 32  1  0
 32 33  1  0
 33 34  1  0
 35 36  2  0
 37 38  2  0
 39 40  1  0
 40 41  2  0
 40 42  1  0
M  END
