
     RDKit          3D

 42 46  0  0  0  0  0  0  0  0999 V2000
   -5.2390    3.6570   -2.4510 C   0  0  0  0  0  0  0  0  0  0  0  0
   -6.4040    3.3560   -2.0280 C   0  0  0  0  0  0  0  0  0  0  0  0
   -6.7840    2.3070   -1.0860 C   0  0  0  0  0  0  0  0  0  0  0  0
   -8.0840    2.1990   -0.8580 C   0  0  0  0  0  0  0  0  0  0  0  0
   -8.6890    1.2350    0.0460 C   0  0  0  0  0  0  0  0  0  0  0  0
   -5.8200    1.3730   -0.5120 C   0  0  0  0  0  0  0  0  0  0  0  0
   -6.1670    0.0670   -0.2970 C   0  0  0  0  0  0  0  0  0  0  0  0
   -5.2940   -0.8010    0.3690 C   0  0  0  0  0  0  0  0  0  0  0  0
   -4.0730   -0.3520    0.8110 C   0  0  0  0  0  0  0  0  0  0  0  0
   -3.6800    0.9670    0.6130 C   0  0  0  0  0  0  0  0  0  0  0  0
   -2.3810    1.5050    1.0690 C   0  0  1  0  0  0  0  0  0  0  0  0
   -2.0730    1.2320    2.3990 O   0  0  0  0  0  0  0  0  0  0  0  0
   -1.2670    1.4030    0.1370 C   0  0  0  0  0  0  0  0  0  0  0  0
   -1.3030    2.2310   -0.9950 C   0  0  0  0  0  0  0  0  0  0  0  0
   -0.2950    2.2540   -1.9250 C   0  0  0  0  0  0  0  0  0  0  0  0
    0.7940    1.4400   -1.7500 C   0  0  0  0  0  0  0  0  0  0  0  0
    0.8750    0.6110   -0.6520 C   0  0  0  0  0  0  0  0  0  0  0  0
    2.0840   -0.2140   -0.5180 C   0  0  0  0  0  0  0  0  0  0  0  0
    2.1920   -0.9610    0.4700 O   0  0  0  0  0  0  0  0  0  0  0  0
    3.0910   -0.1870   -1.4390 O   0  0  0  0  0  0  0  0  0  0  0  0
    4.2680   -0.9160   -1.3920 C   0  0  0  0  0  0  0  0  0  0  0  0
    4.3700   -2.2180   -1.7980 C   0  0  0  0  0  0  0  0  0  0  0  0
    5.5650   -2.8510   -1.7170 C   0  0  0  0  0  0  0  0  0  0  0  0
    6.7450   -2.2400   -1.2280 C   0  0  0  0  0  0  0  0  0  0  0  0
    7.8660   -3.0060   -1.1980 O   0  0  0  0  0  0  0  0  0  0  0  0
    6.6610   -0.9450   -0.8210 C   0  0  0  0  0  0  0  0  0  0  0  0
    7.7650   -0.0610   -0.3860 C   0  0  2  0  0  0  0  0  0  0  0  0
    9.0110   -0.6530   -0.0440 C   0  0  0  0  0  0  0  0  0  0  0  0
    9.5840   -0.5920    1.1610 C   0  0  0  0  0  0  0  0  0  0  0  0
    8.8410    0.1570    2.1720 C   0  0  0  0  0  0  0  0  0  0  0  0
    8.7790   -0.2180    3.3490 O   0  0  0  0  0  0  0  0  0  0  0  0
    8.1730    1.4050    1.6470 C   0  0  0  0  0  0  0  0  0  0  0  0
    7.2330    1.0080    0.5560 C   0  0  0  0  0  0  0  0  0  0  0  0
    5.4020   -0.3140   -0.9170 C   0  0  0  0  0  0  0  0  0  0  0  0
   -0.1480    0.6140    0.2530 C   0  0  0  0  0  0  0  0  0  0  0  0
   -4.5930    1.7870   -0.0540 C   0  0  0  0  0  0  0  0  0  0  0  0
   -3.1860   -1.2600    1.4580 N   0  0  0  0  0  0  0  0  0  0  0  0
   -3.5870   -2.5900    1.8530 C   0  0  2  0  0  0  0  0  0  0  0  0
   -2.6530   -3.6280    1.4680 N   0  0  0  0  0  0  0  0  0  0  0  0
   -2.5380   -3.7330    0.0250 C   0  0  0  0  0  0  0  0  0  0  0  0
   -4.8960   -2.9580    1.3290 C   0  0  0  0  0  0  0  0  0  0  0  0
   -5.7020   -2.1720    0.6500 C   0  0  0  0  0  0  0  0  0  0  0  0
  1  2  2  0
  2  3  1  0
  3  4  2  3
  3  6  1  0
  4  5  1  0
  6  7  2  0
  6 36  1  0
  7  8  1  0
  8  9  2  0
  8 42  1  0
  9 10  1  0
  9 37  1  0
 10 11  1  0
 10 36  2  0
 11 12  1  1
 11 13  1  0
 13 14  2  0
 13 35  1  0
 14 15  1  0
 15 16  2  0
 16 17  1  0
 17 18  1  0
 17 35  2  0
 18 19  2  0
 18 20  1  0
 20 21  1  0
 21 22  2  0
 21 34  1  0
 22 23  1  0
 23 24  2  0
 24 25  1  0
 24 26  1  0
 27 26  1  1
 26 34  2  0
 27 28  1  0
 27 33  1  0
 28 29  2  0
 29 30  1  0
 30 31  2  0
 30 32  1  0
 32 33  1  0
 37 38  1  0
 38 39  1  6
 38 41  1  0
 39 40  1  0
 41 42  2  0
M  END
