
     RDKit          3D

 42 46  0  0  0  0  0  0  0  0999 V2000
   -2.9860    6.8330   -0.2340 C   0  0  0  0  0  0  0  0  0  0  0  0
   -2.4510    7.1980   -1.6040 C   0  0  0  0  0  0  0  0  0  0  0  0
   -2.5830    6.0750   -2.5770 C   0  0  0  0  0  0  0  0  0  0  0  0
   -1.8400    4.8590   -2.1400 C   0  0  0  0  0  0  0  0  0  0  0  0
   -2.3040    4.3750   -0.8950 O   0  0  0  0  0  0  0  0  0  0  0  0
   -1.7340    3.2470   -0.3240 C   0  0  0  0  0  0  0  0  0  0  0  0
   -2.1480    2.7350    0.8840 C   0  0  0  0  0  0  0  0  0  0  0  0
   -1.5800    1.6190    1.4420 C   0  0  0  0  0  0  0  0  0  0  0  0
   -0.5650    0.9810    0.7890 C   0  0  0  0  0  0  0  0  0  0  0  0
    0.1020   -0.2290    1.3200 C   0  0  1  0  0  0  0  0  0  0  0  0
    0.7140    0.1280    2.6340 C   0  0  2  0  0  0  0  0  0  0  0  0
    1.6740    1.1850    2.4300 N   0  0  0  0  0  0  0  0  0  0  0  0
    2.9590    0.7860    1.8800 C   0  0  0  0  0  0  0  0  0  0  0  0
    3.4740   -0.3930    2.0210 C   0  0  0  0  0  0  0  0  0  0  0  0
    4.7290   -0.8140    1.4850 C   0  0  0  0  0  0  0  0  0  0  0  0
    5.1580   -2.0130    1.8350 O   0  0  0  0  0  0  0  0  0  0  0  0
    5.6050   -0.1010    0.6060 C   0  0  0  0  0  0  0  0  0  0  0  0
    6.9660   -0.4900    0.5140 C   0  0  0  0  0  0  0  0  0  0  0  0
    7.8400    0.0730   -0.3700 C   0  0  0  0  0  0  0  0  0  0  0  0
    7.4330    1.0680   -1.2340 C   0  0  0  0  0  0  0  0  0  0  0  0
    8.3370    1.7100   -2.2070 C   0  0  0  0  0  0  0  0  0  0  0  0
    6.1390    1.4620   -1.1740 C   0  0  0  0  0  0  0  0  0  0  0  0
    5.2400    0.8810   -0.2650 C   0  0  0  0  0  0  0  0  0  0  0  0
    2.6690   -1.3340    2.7900 N   0  0  0  0  0  0  0  0  0  0  0  0
    1.4190   -0.9490    3.3260 C   0  0  0  0  0  0  0  0  0  0  0  0
    1.0170   -1.5600    4.3480 O   0  0  0  0  0  0  0  0  0  0  0  0
   -0.9340   -1.3170    1.4020 C   0  0  2  0  0  0  0  0  0  0  0  0
   -0.4090   -2.5110    1.8940 O   0  0  0  0  0  0  0  0  0  0  0  0
   -1.4100   -1.5980   -0.0090 C   0  0  0  0  0  0  0  0  0  0  0  0
   -2.4310   -2.6500   -0.0700 C   0  0  0  0  0  0  0  0  0  0  0  0
   -3.7630   -2.3290    0.0260 C   0  0  0  0  0  0  0  0  0  0  0  0
   -4.7480   -3.2960   -0.0280 C   0  0  0  0  0  0  0  0  0  0  0  0
   -4.3540   -4.5930   -0.1810 C   0  0  0  0  0  0  0  0  0  0  0  0
   -3.0170   -4.9300   -0.2790 C   0  0  0  0  0  0  0  0  0  0  0  0
   -2.0700   -3.9540   -0.2220 C   0  0  0  0  0  0  0  0  0  0  0  0
   -2.5840   -6.3140   -0.4420 C   0  0  0  0  0  0  0  0  0  0  0  0
   -1.3770   -6.5880   -0.2840 O   0  0  0  0  0  0  0  0  0  0  0  0
   -3.5810   -7.3640   -0.7910 C   0  0  0  0  0  0  0  0  0  0  0  0
   -4.8690   -6.7220   -1.2330 C   0  0  0  0  0  0  0  0  0  0  0  0
   -5.3380   -5.6850   -0.2480 C   0  0  0  0  0  0  0  0  0  0  0  0
   -0.1360    1.4750   -0.4170 C   0  0  0  0  0  0  0  0  0  0  0  0
   -0.7190    2.6040   -0.9720 C   0  0  0  0  0  0  0  0  0  0  0  0
  1  2  1  0
  2  3  1  0
  3  4  1  0
  4  5  1  0
  5  6  1  0
  6  7  2  0
  6 42  1  0
  7  8  1  0
  8  9  2  0
 10  9  1  1
  9 41  1  0
 10 11  1  0
 10 27  1  0
 11 12  1  6
 11 25  1  0
 12 13  1  0
 13 14  2  0
 14 15  1  0
 14 24  1  0
 15 16  2  0
 15 17  1  0
 17 18  2  0
 17 23  1  0
 18 19  1  0
 19 20  2  0
 20 21  1  0
 20 22  1  0
 22 23  2  0
 24 25  1  0
 25 26  2  0
 27 28  1  6
 27 29  1  0
 29 30  1  0
 30 31  2  0
 30 35  1  0
 31 32  1  0
 32 33  2  0
 33 34  1  0
 33 40  1  0
 34 35  2  0
 34 36  1  0
 36 37  2  0
 36 38  1  0
 38 39  1  0
 39 40  1  0
 41 42  2  0
M  END
