
     RDKit          3D

 42 45  0  0  0  0  0  0  0  0999 V2000
   -0.8120   -8.0030    0.5240 C   0  0  0  0  0  0  0  0  0  0  0  0
   -0.4240   -6.5630    0.5690 C   0  0  0  0  0  0  0  0  0  0  0  0
    0.1210   -6.0150   -0.4780 C   0  0  0  0  0  0  0  0  0  0  0  0
    0.4910   -4.6090   -0.4470 C   0  0  0  0  0  0  0  0  0  0  0  0
    1.7760   -4.2430   -0.7310 C   0  0  0  0  0  0  0  0  0  0  0  0
    2.1060   -2.8760   -0.7080 C   0  0  0  0  0  0  0  0  0  0  0  0
    1.1960   -1.9260   -0.4190 C   0  0  0  0  0  0  0  0  0  0  0  0
    1.4230   -0.4840   -0.4070 C   0  0  1  0  0  0  0  0  0  0  0  0
    1.6390   -0.0610    1.1080 C   0  0  0  0  0  0  0  0  0  0  0  0
    2.7320   -0.0790   -1.0350 C   0  0  0  0  0  0  0  0  0  0  0  0
    3.5450   -0.7510   -1.5960 O   0  0  0  0  0  0  0  0  0  0  0  0
    2.9590    1.3480   -0.8610 N   0  0  0  0  0  0  0  0  0  0  0  0
    4.2110    1.9920   -1.2380 C   0  0  0  0  0  0  0  0  0  0  0  0
    5.2770    1.4970   -0.2760 C   0  0  1  0  0  0  0  0  0  0  0  0
    5.4700    0.1540   -0.3710 O   0  0  0  0  0  0  0  0  0  0  0  0
    6.5090    2.2710   -0.3570 C   0  0  0  0  0  0  0  0  0  0  0  0
    6.6810    3.4720    0.3440 C   0  0  0  0  0  0  0  0  0  0  0  0
    7.8510    4.1850    0.3650 C   0  0  0  0  0  0  0  0  0  0  0  0
    8.9190    3.6990   -0.3410 C   0  0  0  0  0  0  0  0  0  0  0  0
   10.1730    4.4760   -0.2880 C   0  0  0  0  0  0  0  0  0  0  0  0
    8.8030    2.5210   -1.0510 C   0  0  0  0  0  0  0  0  0  0  0  0
    7.6170    1.8190   -1.0570 C   0  0  0  0  0  0  0  0  0  0  0  0
   -0.1430   -2.3500   -0.1260 C   0  0  0  0  0  0  0  0  0  0  0  0
   -0.9780   -1.3510    0.1820 O   0  0  0  0  0  0  0  0  0  0  0  0
   -2.1790   -1.1430    0.7080 C   0  0  1  0  0  0  0  0  0  0  0  0
   -2.0610   -0.2430    1.9380 C   0  0  0  0  0  0  0  0  0  0  0  0
   -3.1820   -0.5190   -0.2040 C   0  0  0  0  0  0  0  0  0  0  0  0
   -3.1800   -0.7030   -1.4420 O   0  0  0  0  0  0  0  0  0  0  0  0
   -4.1640    0.3210    0.3820 N   0  0  0  0  0  0  0  0  0  0  0  0
   -5.2060    0.9680   -0.2940 C   0  0  0  0  0  0  0  0  0  0  0  0
   -5.7790    0.5100   -1.4620 C   0  0  0  0  0  0  0  0  0  0  0  0
   -6.8600    1.1640   -1.9950 C   0  0  0  0  0  0  0  0  0  0  0  0
   -7.4230    2.2920   -1.4090 C   0  0  0  0  0  0  0  0  0  0  0  0
   -6.8560    2.7490   -0.2610 C   0  0  0  0  0  0  0  0  0  0  0  0
   -5.7780    2.1090    0.2880 C   0  0  0  0  0  0  0  0  0  0  0  0
   -5.1110    2.6170    1.5320 C   0  0  0  0  0  0  0  0  0  0  0  0
   -7.5510    4.0110    0.1650 C   0  0  0  0  0  0  0  0  0  0  0  0
   -8.3530    4.4210   -1.0620 C   0  0  0  0  0  0  0  0  0  0  0  0
   -8.6070    3.1220   -1.8000 C   0  0  0  0  0  0  0  0  0  0  0  0
   -0.4640   -3.6460   -0.1460 C   0  0  0  0  0  0  0  0  0  0  0  0
   -0.5980   -5.8300    1.8370 C   0  0  0  0  0  0  0  0  0  0  0  0
   -1.9310   -5.7590    2.1710 O   0  0  0  0  0  0  0  0  0  0  0  0
  1  2  1  0
  2  3  2  3
  2 41  1  0
  3  4  1  0
  4  5  2  0
  4 40  1  0
  5  6  1  0
  6  7  2  0
  7  8  1  0
  7 23  1  0
  8  9  1  1
  8 10  1  0
 10 11  2  0
 10 12  1  0
 12 13  1  0
 13 14  1  0
 14 15  1  6
 14 16  1  0
 16 17  2  0
 16 22  1  0
 17 18  1  0
 18 19  2  0
 19 20  1  0
 19 21  1  0
 21 22  2  0
 23 24  1  0
 23 40  2  0
 24 25  1  0
 25 26  1  1
 25 27  1  0
 27 28  2  0
 27 29  1  0
 29 30  1  0
 30 31  2  0
 30 35  1  0
 31 32  1  0
 32 33  2  0
 33 34  1  0
 33 39  1  0
 34 35  2  0
 34 37  1  0
 35 36  1  0
 37 38  1  0
 38 39  1  0
 41 42  1  0
M  END
