
     RDKit          3D

 42 46  0  0  0  0  0  0  0  0999 V2000
    3.3350   -3.2030    2.0990 C   0  0  0  0  0  0  0  0  0  0  0  0
    2.2160   -3.0790    1.1240 C   0  0  0  0  0  0  0  0  0  0  0  0
    1.4040   -1.9490    1.2700 O   0  0  0  0  0  0  0  0  0  0  0  0
    1.8550   -0.6660    1.1310 C   0  0  0  0  0  0  0  0  0  0  0  0
    3.1950   -0.4070    0.8110 C   0  0  0  0  0  0  0  0  0  0  0  0
    3.7060    0.8530    0.6620 C   0  0  0  0  0  0  0  0  0  0  0  0
    5.0560    1.1590    0.3500 N   0  0  0  0  0  0  0  0  0  0  0  0
    6.1100    0.2300    0.3100 C   0  0  0  0  0  0  0  0  0  0  0  0
    5.9130   -0.9770    0.5620 O   0  0  0  0  0  0  0  0  0  0  0  0
    7.4880    0.6310   -0.0270 C   0  0  0  0  0  0  0  0  0  0  0  0
    7.8570    1.9390   -0.1600 C   0  0  0  0  0  0  0  0  0  0  0  0
    9.1760    2.2860   -0.4860 C   0  0  0  0  0  0  0  0  0  0  0  0
    9.5780    3.7010   -0.6310 C   0  0  0  0  0  0  0  0  0  0  0  0
   10.1210    1.3110   -0.6780 C   0  0  0  0  0  0  0  0  0  0  0  0
    9.7670   -0.0130   -0.5480 C   0  0  0  0  0  0  0  0  0  0  0  0
   10.7540   -1.1050   -0.7450 C   0  0  0  0  0  0  0  0  0  0  0  0
    8.4600   -0.3280   -0.2260 C   0  0  0  0  0  0  0  0  0  0  0  0
    2.7930    1.9100    0.8510 C   0  0  0  0  0  0  0  0  0  0  0  0
    1.4840    1.6490    1.1630 C   0  0  0  0  0  0  0  0  0  0  0  0
    0.9650    0.3570    1.3140 C   0  0  0  0  0  0  0  0  0  0  0  0
   -0.4300    0.1790    1.6140 C   0  0  0  0  0  0  0  0  0  0  0  0
   -1.0760    1.2940    1.8150 O   0  0  0  0  0  0  0  0  0  0  0  0
   -1.2260   -1.0130    1.7290 C   0  0  0  0  0  0  0  0  0  0  0  0
   -1.7490   -1.7080    0.5760 C   0  0  0  0  0  0  0  0  0  0  0  0
   -2.6650   -1.1440   -0.4300 C   0  0  1  0  0  0  0  0  0  0  0  0
   -2.0640    0.0130   -1.1650 C   0  0  0  0  0  0  0  0  0  0  0  0
   -0.8870   -0.4010   -1.8120 O   0  0  0  0  0  0  0  0  0  0  0  0
   -2.8450   -2.2560   -1.4480 C   0  0  0  0  0  0  0  0  0  0  0  0
   -4.0540   -2.2170   -2.2750 C   0  0  0  0  0  0  0  0  0  0  0  0
   -5.3150   -1.9600   -1.4350 C   0  0  0  0  0  0  0  0  0  0  0  0
   -5.0610   -0.5750   -0.8820 C   0  0  1  0  0  0  0  0  0  0  0  0
   -6.2950    0.0520   -0.3590 C   0  0  0  0  0  0  0  0  0  0  0  0
   -6.9460   -0.4930    0.7420 C   0  0  0  0  0  0  0  0  0  0  0  0
   -8.0970    0.0830    1.2370 C   0  0  0  0  0  0  0  0  0  0  0  0
   -8.6250    1.2270    0.6320 C   0  0  0  0  0  0  0  0  0  0  0  0
   -8.0020    1.7900   -0.4600 C   0  0  0  0  0  0  0  0  0  0  0  0
   -6.8460    1.1800   -0.9260 C   0  0  0  0  0  0  0  0  0  0  0  0
   -8.7370    3.0000   -0.9390 C   0  0  0  0  0  0  0  0  0  0  0  0
  -10.0070    2.9570   -0.1580 C   0  0  0  0  0  0  0  0  0  0  0  0
   -9.7680    2.0250    0.9080 N   0  0  0  0  0  0  0  0  0  0  0  0
   -3.9760   -0.6690    0.1400 C   0  0  2  0  0  0  0  0  0  0  0  0
   -3.8570    0.6080    0.6920 O   0  0  0  0  0  0  0  0  0  0  0  0
  1  2  1  0
  2  3  1  0
  3  4  1  0
  4  5  2  0
  4 20  1  0
  5  6  1  0
  6  7  1  0
  6 18  2  0
  7  8  1  0
  8  9  2  0
  8 10  1  0
 10 11  2  0
 10 17  1  0
 11 12  1  0
 12 13  1  0
 12 14  2  0
 14 15  1  0
 15 16  1  0
 15 17  2  0
 18 19  1  0
 19 20  2  0
 20 21  1  0
 21 22  2  0
 21 23  1  0
 23 24  1  0
 25 24  1  1
 25 26  1  0
 25 28  1  0
 25 41  1  0
 26 27  1  0
 28 29  1  0
 29 30  1  0
 30 31  1  0
 31 32  1  1
 31 41  1  0
 32 33  2  0
 32 37  1  0
 33 34  1  0
 34 35  2  0
 35 36  1  0
 35 40  1  0
 36 37  2  0
 36 38  1  0
 38 39  1  0
 39 40  1  0
 41 42  1  6
M  END
