
     RDKit          3D

 42 46  0  0  0  0  0  0  0  0999 V2000
    0.3270    1.9340    1.9640 C   0  0  0  0  0  0  0  0  0  0  0  0
    0.9900    0.5710    2.1160 C   0  0  0  0  0  0  0  0  0  0  0  0
    1.2620    0.0320    0.7920 C   0  0  0  0  0  0  0  0  0  0  0  0
    2.5370    0.0690    0.1890 C   0  0  0  0  0  0  0  0  0  0  0  0
    2.4640   -0.4850   -1.0250 C   0  0  0  0  0  0  0  0  0  0  0  0
    3.4670   -0.6940   -2.0430 C   0  0  0  0  0  0  0  0  0  0  0  0
    4.7010   -0.3870   -2.1710 C   0  0  0  0  0  0  0  0  0  0  0  0
    5.6750    0.3040   -1.3820 C   0  0  0  0  0  0  0  0  0  0  0  0
    6.8630    0.3760   -1.9280 O   0  0  0  0  0  0  0  0  0  0  0  0
    5.5920    0.9030   -0.1690 O   0  0  0  0  0  0  0  0  0  0  0  0
    6.6370    1.5460    0.4880 C   0  0  0  0  0  0  0  0  0  0  0  0
    7.7670    0.6270    0.7680 C   0  0  0  0  0  0  0  0  0  0  0  0
    8.9640    1.1880    1.1820 C   0  0  0  0  0  0  0  0  0  0  0  0
   10.0240    0.3650    1.4500 C   0  0  0  0  0  0  0  0  0  0  0  0
    9.9360   -1.0110    1.3200 C   0  0  0  0  0  0  0  0  0  0  0  0
   11.1350   -1.8670    1.6250 C   0  0  0  0  0  0  0  0  0  0  0  0
    8.7480   -1.5640    0.9100 C   0  0  0  0  0  0  0  0  0  0  0  0
    7.6740   -0.7230    0.6390 C   0  0  0  0  0  0  0  0  0  0  0  0
    1.1830   -0.8560   -1.1710 O   0  0  0  0  0  0  0  0  0  0  0  0
    0.4620   -0.5720   -0.1420 C   0  0  0  0  0  0  0  0  0  0  0  0
   -0.9650   -0.8340    0.0430 C   0  0  1  0  0  0  0  0  0  0  0  0
   -1.6130    0.1720    0.7590 O   0  0  0  0  0  0  0  0  0  0  0  0
   -1.7470   -1.2660   -1.1430 C   0  0  1  0  0  0  0  0  0  0  0  0
   -3.1540   -1.4730   -0.5910 C   0  0  0  0  0  0  0  0  0  0  0  0
   -3.5370   -2.5570   -0.0440 O   0  0  0  0  0  0  0  0  0  0  0  0
   -3.9130   -0.3010   -0.7880 N   0  0  0  0  0  0  0  0  0  0  0  0
   -5.1630    0.0220   -0.2110 C   0  0  0  0  0  0  0  0  0  0  0  0
   -5.1170    0.6080    1.0680 C   0  0  0  0  0  0  0  0  0  0  0  0
   -6.2040    0.9980    1.7590 C   0  0  0  0  0  0  0  0  0  0  0  0
   -6.1010    1.6200    3.1350 C   0  0  0  0  0  0  0  0  0  0  0  0
   -6.1900    0.5820    4.1660 N   0  0  0  0  0  0  0  0  0  0  0  0
   -7.4320    0.8130    1.1810 C   0  0  0  0  0  0  0  0  0  0  0  0
   -7.5100    0.2370   -0.0800 C   0  0  0  0  0  0  0  0  0  0  0  0
   -8.7490    0.0570   -0.6540 C   0  0  0  0  0  0  0  0  0  0  0  0
   -8.9070   -0.4990   -1.8870 C   0  0  0  0  0  0  0  0  0  0  0  0
   -7.7810   -0.8840   -2.5570 C   0  0  0  0  0  0  0  0  0  0  0  0
   -6.4880   -0.7350   -2.0420 C   0  0  0  0  0  0  0  0  0  0  0  0
   -5.3270   -1.2040   -2.8340 C   0  0  0  0  0  0  0  0  0  0  0  0
   -6.3660   -0.1680   -0.7930 C   0  0  0  0  0  0  0  0  0  0  0  0
   -3.1060    0.6050   -1.5680 C   0  0  0  0  0  0  0  0  0  0  0  0
   -2.0600   -0.2550   -2.1770 C   0  0  1  0  0  0  0  0  0  0  0  0
   -0.9070    0.5050   -2.7580 C   0  0  0  0  0  0  0  0  0  0  0  0
  1  2  1  0
  2  3  1  0
  3  4  1  0
  3 20  2  0
  4  5  2  0
  5  6  1  0
  5 19  1  0
  6  7  2  3
  7  8  1  0
  8  9  2  0
  8 10  1  0
 10 11  1  0
 11 12  1  0
 12 13  2  0
 12 18  1  0
 13 14  1  0
 14 15  2  0
 15 16  1  0
 15 17  1  0
 17 18  2  0
 19 20  1  0
 20 21  1  0
 21 22  1  6
 21 23  1  0
 23 24  1  1
 23 41  1  0
 24 25  2  0
 24 26  1  0
 26 27  1  0
 26 40  1  0
 27 28  2  0
 27 39  1  0
 28 29  1  0
 29 30  1  0
 29 32  2  0
 30 31  1  0
 32 33  1  0
 33 34  2  0
 33 39  1  0
 34 35  1  0
 35 36  2  0
 36 37  1  0
 37 38  1  0
 37 39  2  0
 40 41  1  0
 41 42  1  1
M  END
