
     RDKit          3D

 33 35  0  0  0  0  0  0  0  0999 V2000
   -4.4880   -1.5680    2.6980 C   0  0  0  0  0  0  0  0  0  0  0  0
   -4.4950   -0.9380    1.3650 C   0  0  0  0  0  0  0  0  0  0  0  0
   -5.6140   -0.2630    0.9260 C   0  0  0  0  0  0  0  0  0  0  0  0
   -5.5960    0.3180   -0.3270 C   0  0  0  0  0  0  0  0  0  0  0  0
   -6.7100    1.0220   -0.8300 N   0  0  0  0  0  0  0  0  0  0  0  0
   -7.6240    2.1660    0.0590 S   0  0  2  0  0  0  0  0  0  0  0  0
   -6.9210    3.7270   -0.1610 N   0  0  0  0  0  0  0  0  0  0  0  0
   -7.6970    1.8610    1.5150 O   0  0  0  0  0  0  0  0  0  0  0  0
   -9.0160    2.2440   -0.5330 O   0  0  0  0  0  0  0  0  0  0  0  0
   -4.4570    0.2290   -1.1530 C   0  0  0  0  0  0  0  0  0  0  0  0
   -3.3390   -0.4430   -0.7180 C   0  0  0  0  0  0  0  0  0  0  0  0
   -2.1730   -0.5770   -1.4750 N   0  0  0  0  0  0  0  0  0  0  0  0
   -1.8940   -0.0880   -2.7720 C   0  0  0  0  0  0  0  0  0  0  0  0
   -2.7920    0.5610   -3.3560 O   0  0  0  0  0  0  0  0  0  0  0  0
   -0.5700   -0.3260   -3.4480 C   0  0  0  0  0  0  0  0  0  0  0  0
    0.3560   -1.0710   -2.6860 N   0  0  0  0  0  0  0  0  0  0  0  0
    1.0180   -0.3740   -1.6620 C   0  0  0  0  0  0  0  0  0  0  0  0
    0.6760    0.9030   -1.2690 C   0  0  0  0  0  0  0  0  0  0  0  0
    1.3990    1.4940   -0.2540 C   0  0  0  0  0  0  0  0  0  0  0  0
    2.4420    0.8410    0.3660 C   0  0  0  0  0  0  0  0  0  0  0  0
    2.8030   -0.4380   -0.0100 C   0  0  0  0  0  0  0  0  0  0  0  0
    2.0650   -1.0130   -1.0300 C   0  0  0  0  0  0  0  0  0  0  0  0
    3.8610   -1.1060    0.6150 O   0  0  0  0  0  0  0  0  0  0  0  0
    4.9400   -0.3010    1.1210 C   0  0  2  0  0  0  0  0  0  0  0  0
    5.9450   -1.1600    1.8090 C   0  0  0  0  0  0  0  0  0  0  0  0
    7.0790   -0.3460    2.3380 C   0  0  0  0  0  0  0  0  0  0  0  0
    7.8130    0.4090    1.2490 C   0  0  0  0  0  0  0  0  0  0  0  0
    8.3760   -0.4870    0.2530 N   0  0  0  0  0  0  0  0  0  0  0  0
    4.2830    0.6930    2.0140 C   0  0  0  0  0  0  0  0  0  0  0  0
    4.5850    0.9170    3.1960 O   0  0  0  0  0  0  0  0  0  0  0  0
    3.2090    1.4430    1.4230 N   0  0  0  0  0  0  0  0  0  0  0  0
   -3.3880   -1.0170    0.5470 C   0  0  0  0  0  0  0  0  0  0  0  0
   -2.2080   -1.7360    1.0300 C   0  0  0  0  0  0  0  0  0  0  0  0
  1  2  1  0
  2  3  2  0
  2 32  1  0
  3  4  1  0
  4  5  1  0
  4 10  2  0
  5  6  1  0
  6  7  1  1
  6  8  2  0
  6  9  2  0
 10 11  1  0
 11 12  1  0
 11 32  2  0
 12 13  1  0
 13 14  2  0
 13 15  1  0
 15 16  1  0
 16 17  1  0
 17 18  2  0
 17 22  1  0
 18 19  1  0
 19 20  2  0
 20 21  1  0
 20 31  1  0
 21 22  2  0
 21 23  1  0
 23 24  1  0
 24 25  1  1
 24 29  1  0
 25 26  1  0
 26 27  1  0
 27 28  1  0
 29 30  2  0
 29 31  1  0
 32 33  1  0
M  CHG  1  16   1
M  END
