
     RDKit          3D

 32 34  0  0  0  0  0  0  0  0999 V2000
   -5.5630    0.4810   -1.5360 C   0  0  0  0  0  0  0  0  0  0  0  0
   -4.4830    0.0860   -0.4940 C   0  0  1  0  0  0  0  0  0  0  0  0
   -5.2790   -0.3620    0.7020 C   0  0  0  0  0  0  0  0  0  0  0  0
   -3.7620   -1.0680   -1.2000 C   0  0  0  0  0  0  0  0  0  0  0  0
   -3.6310    1.2510   -0.2690 C   0  0  0  0  0  0  0  0  0  0  0  0
   -3.9000    2.4110   -1.0180 C   0  0  0  0  0  0  0  0  0  0  0  0
   -3.1550    3.5580   -0.9030 C   0  0  0  0  0  0  0  0  0  0  0  0
   -2.1160    3.5260   -0.0090 C   0  0  0  0  0  0  0  0  0  0  0  0
   -1.8220    2.4270    0.7350 C   0  0  0  0  0  0  0  0  0  0  0  0
   -2.5840    1.2260    0.6290 C   0  0  0  0  0  0  0  0  0  0  0  0
   -2.2470    0.1950    1.3770 O   0  0  0  0  0  0  0  0  0  0  0  0
   -1.9090   -1.0840    1.4410 C   0  0  0  0  0  0  0  0  0  0  0  0
   -2.8460   -2.0500    1.7650 N   0  0  0  0  0  0  0  0  0  0  0  0
   -2.5630   -3.3350    1.8420 C   0  0  0  0  0  0  0  0  0  0  0  0
   -1.3000   -3.8190    1.6040 C   0  0  0  0  0  0  0  0  0  0  0  0
   -0.3210   -2.8790    1.2740 C   0  0  0  0  0  0  0  0  0  0  0  0
   -0.5940   -1.5410    1.1890 C   0  0  0  0  0  0  0  0  0  0  0  0
    0.3580   -0.5440    0.8540 N   0  0  0  0  0  0  0  0  0  0  0  0
    1.7370   -0.7550    0.5720 C   0  0  0  0  0  0  0  0  0  0  0  0
    2.1920   -1.8990    0.6100 O   0  0  0  0  0  0  0  0  0  0  0  0
    2.6020    0.3160    0.2470 N   0  0  0  0  0  0  0  0  0  0  0  0
    3.9570    0.2740   -0.0520 C   0  0  0  0  0  0  0  0  0  0  0  0
    4.6770   -0.8750   -0.1650 C   0  0  0  0  0  0  0  0  0  0  0  0
    6.0400   -0.8880   -0.4610 C   0  0  0  0  0  0  0  0  0  0  0  0
    6.6860    0.3060   -0.6470 C   0  0  0  0  0  0  0  0  0  0  0  0
    8.0640    0.3000   -0.9460 O   0  0  0  0  0  0  0  0  0  0  0  0
    8.9350    0.3460    0.1790 C   0  0  2  0  0  0  0  0  0  0  0  0
    8.6740    1.5170    0.8870 F   0  0  0  0  0  0  0  0  0  0  0  0
   10.2530    0.2960   -0.1970 F   0  0  0  0  0  0  0  0  0  0  0  0
    8.6640   -0.7650    0.9620 F   0  0  0  0  0  0  0  0  0  0  0  0
    5.9970    1.4940   -0.5420 C   0  0  0  0  0  0  0  0  0  0  0  0
    4.6540    1.4600   -0.2490 C   0  0  0  0  0  0  0  0  0  0  0  0
  2  1  1  6
  2  3  1  0
  2  4  1  0
  2  5  1  0
  5  6  2  0
  5 10  1  0
  6  7  1  0
  7  8  2  0
  8  9  1  0
  9 10  2  0
 10 11  1  0
 11 12  1  0
 12 13  2  0
 12 17  1  0
 13 14  1  0
 14 15  2  0
 15 16  1  0
 16 17  2  0
 17 18  1  0
 18 19  1  0
 19 20  2  0
 19 21  1  0
 21 22  1  0
 22 23  2  0
 22 32  1  0
 23 24  1  0
 24 25  2  0
 25 26  1  0
 25 31  1  0
 26 27  1  0
 27 28  1  1
 27 29  1  0
 27 30  1  0
 31 32  2  0
M  END
