
     RDKit          3D

 33 35  0  0  0  0  0  0  0  0999 V2000
   -7.7970    1.2020    0.2500 C   0  0  0  0  0  0  0  0  0  0  0  0
   -6.3470    1.2470    0.0340 N   0  0  0  0  0  0  0  0  0  0  0  0
   -5.5770    0.1810    0.2990 C   0  0  0  0  0  0  0  0  0  0  0  0
   -6.3110   -0.9640    0.7130 N   0  0  0  0  0  0  0  0  0  0  0  0
   -4.1850    0.1220    0.1090 C   0  0  0  0  0  0  0  0  0  0  0  0
   -3.4160   -0.9940    0.5700 C   0  0  1  0  0  0  0  0  0  0  0  0
   -4.2110   -1.9090    1.3910 C   0  0  0  0  0  0  0  0  0  0  0  0
   -4.1670   -3.1390    0.9890 C   0  0  0  0  0  0  0  0  0  0  0  0
   -3.3340   -3.2840   -0.1900 C   0  0  0  0  0  0  0  0  0  0  0  0
   -2.6490   -1.8870   -0.3020 C   0  0  0  0  0  0  0  0  0  0  0  0
   -3.6230    1.2990   -0.3980 C   0  0  0  0  0  0  0  0  0  0  0  0
   -2.3150    1.4050   -0.6230 C   0  0  0  0  0  0  0  0  0  0  0  0
   -1.2410    0.5480   -0.4110 C   0  0  0  0  0  0  0  0  0  0  0  0
   -0.7510    0.0380   -1.5130 O   0  0  0  0  0  0  0  0  0  0  0  0
   -0.5550    0.1410    0.7400 N   0  0  0  0  0  0  0  0  0  0  0  0
    0.5640   -0.7400    0.5620 N   0  0  0  0  0  0  0  0  0  0  0  0
    1.6590   -0.2230   -0.1320 C   0  0  0  0  0  0  0  0  0  0  0  0
    1.5800    1.0060   -0.4950 O   0  0  0  0  0  0  0  0  0  0  0  0
    2.9030   -0.9950   -0.4980 C   0  0  0  0  0  0  0  0  0  0  0  0
    3.8370    0.0120   -1.1510 C   0  0  0  0  0  0  0  0  0  0  0  0
    4.3940    1.0140   -0.1930 C   0  0  0  0  0  0  0  0  0  0  0  0
    5.4040    0.3560    0.7760 C   0  0  0  0  0  0  0  0  0  0  0  0
    6.5820   -0.1320   -0.0650 C   0  0  0  0  0  0  0  0  0  0  0  0
    7.6030   -0.7730    0.8380 C   0  0  0  0  0  0  0  0  0  0  0  0
    8.8030   -1.2450    0.0250 C   0  0  0  0  0  0  0  0  0  0  0  0
    9.4130   -0.1310   -0.6390 N   0  0  0  0  0  0  0  0  0  0  0  0
   -1.8810    2.6960   -1.1470 C   0  0  0  0  0  0  0  0  0  0  0  0
   -2.7000    3.6810   -1.3800 N   0  0  0  0  0  0  0  0  0  0  0  0
   -4.0030    3.6000   -1.1630 C   0  0  0  0  0  0  0  0  0  0  0  0
   -4.7960    4.5700   -1.3950 O   0  0  0  0  0  0  0  0  0  0  0  0
   -4.4750    2.3960   -0.6640 C   0  0  0  0  0  0  0  0  0  0  0  0
   -5.8260    2.3580   -0.4460 C   0  0  0  0  0  0  0  0  0  0  0  0
   -6.5780    3.3430   -0.6900 O   0  0  0  0  0  0  0  0  0  0  0  0
  1  2  1  0
  2  3  1  0
  2 32  1  0
  3  4  1  0
  3  5  2  0
  6  5  1  6
  5 11  1  0
  6  7  1  0
  6 10  1  0
  7  8  2  0
  8  9  1  0
  9 10  1  0
 11 12  1  0
 11 31  2  0
 12 13  1  0
 12 27  2  0
 13 14  2  0
 13 15  1  0
 15 16  1  0
 16 17  1  0
 17 18  2  0
 17 19  1  0
 19 20  1  0
 20 21  1  0
 21 22  1  0
 22 23  1  0
 23 24  1  0
 24 25  1  0
 25 26  1  0
 27 28  1  0
 28 29  1  0
 29 30  2  0
 29 31  1  0
 31 32  1  0
 32 33  2  0
M  END
