
     RDKit          3D

 33 34  0  0  0  0  0  0  0  0999 V2000
   -6.4410    0.7790   -1.3610 C   0  0  0  0  0  0  0  0  0  0  0  0
   -5.6600   -0.4120   -1.8700 C   0  0  0  0  0  0  0  0  0  0  0  0
   -4.3930   -0.5420   -1.3180 O   0  0  0  0  0  0  0  0  0  0  0  0
   -4.0720   -0.7170    0.0140 C   0  0  0  0  0  0  0  0  0  0  0  0
   -5.0830   -0.7820    0.9390 C   0  0  0  0  0  0  0  0  0  0  0  0
   -4.8080   -0.9580    2.2840 C   0  0  0  0  0  0  0  0  0  0  0  0
   -5.9450   -1.0220    3.2480 C   0  0  0  0  0  0  0  0  0  0  0  0
   -7.1700   -0.8720    2.4960 N   0  0  0  0  0  0  0  0  0  0  0  0
   -3.5060   -1.0650    2.6680 C   0  0  0  0  0  0  0  0  0  0  0  0
   -3.2110   -1.2520    4.1120 C   0  0  0  0  0  0  0  0  0  0  0  0
   -2.4890   -0.9950    1.7060 C   0  0  0  0  0  0  0  0  0  0  0  0
   -2.7220   -0.8250    0.3890 C   0  0  0  0  0  0  0  0  0  0  0  0
   -1.7180   -0.7510   -0.6010 N   0  0  0  0  0  0  0  0  0  0  0  0
   -0.3310   -0.8300   -0.4420 C   0  0  0  0  0  0  0  0  0  0  0  0
    0.1210   -0.9940    0.7460 O   0  0  0  0  0  0  0  0  0  0  0  0
    0.6140   -0.7400   -1.5160 N   0  0  0  0  0  0  0  0  0  0  0  0
    0.1830   -0.5370   -2.8680 C   0  0  0  0  0  0  0  0  0  0  0  0
    0.0490   -1.9270   -3.4730 C   0  0  0  0  0  0  0  0  0  0  0  0
    0.9060   -2.9060   -2.6940 C   0  0  0  0  0  0  0  0  0  0  0  0
    2.3120   -2.6620   -2.8250 N   0  0  0  0  0  0  0  0  0  0  0  0
    2.7950   -1.4370   -2.2810 C   0  0  0  0  0  0  0  0  0  0  0  0
    2.0270   -0.8830   -1.1260 C   0  0  1  0  0  0  0  0  0  0  0  0
    2.4560    0.4840   -0.6920 C   0  0  0  0  0  0  0  0  0  0  0  0
    3.8390    0.6040   -0.2370 C   0  0  0  0  0  0  0  0  0  0  0  0
    4.5990   -0.3940   -0.1810 O   0  0  0  0  0  0  0  0  0  0  0  0
    4.4230    1.8420    0.1730 N   0  0  0  0  0  0  0  0  0  0  0  0
    5.7980    1.9010    0.6160 C   0  0  0  0  0  0  0  0  0  0  0  0
    6.1010    3.3140    0.9730 C   0  0  0  0  0  0  0  0  0  0  0  0
    5.2560    4.2390    0.8770 O   0  0  0  0  0  0  0  0  0  0  0  0
    7.4120    3.5960    1.4370 N   0  0  0  0  0  0  0  0  0  0  0  0
    7.8310    4.8980    1.8140 C   0  0  0  0  0  0  0  0  0  0  0  0
    9.1590    5.1030    2.2740 N   0  0  0  0  0  0  0  0  0  0  0  0
    7.0230    5.8570    1.7380 O   0  0  0  0  0  0  0  0  0  0  0  0
  1  2  1  0
  2  3  1  0
  3  4  1  0
  4  5  2  0
  4 12  1  0
  5  6  1  0
  6  7  1  0
  6  9  2  0
  7  8  1  0
  9 10  1  0
  9 11  1  0
 11 12  2  0
 12 13  1  0
 13 14  1  0
 14 15  2  0
 14 16  1  0
 16 17  1  0
 16 22  1  0
 17 18  1  0
 18 19  1  0
 19 20  1  0
 20 21  1  0
 21 22  1  0
 22 23  1  6
 23 24  1  0
 24 25  2  0
 24 26  1  0
 26 27  1  0
 27 28  1  0
 28 29  2  0
 28 30  1  0
 30 31  1  0
 31 32  1  0
 31 33  2  0
M  CHG  1  20   1
M  END
