
     RDKit          3D

 33 35  0  0  0  0  0  0  0  0999 V2000
   -3.6110   -3.8750   -0.0050 C   0  0  0  0  0  0  0  0  0  0  0  0
   -4.3640   -2.7480    0.6210 C   0  0  0  0  0  0  0  0  0  0  0  0
   -3.5630   -1.5600    0.6990 O   0  0  0  0  0  0  0  0  0  0  0  0
   -4.0680   -0.3950    1.2480 C   0  0  0  0  0  0  0  0  0  0  0  0
   -4.3680   -0.2690    2.5550 C   0  0  0  0  0  0  0  0  0  0  0  0
   -4.8680    1.0730    2.7730 C   0  0  0  0  0  0  0  0  0  0  0  0
   -4.8660    1.7400    1.6080 C   0  0  0  0  0  0  0  0  0  0  0  0
   -5.2930    3.1360    1.3580 C   0  0  0  0  0  0  0  0  0  0  0  0
   -5.1420    3.5090   -0.0110 N   0  0  0  0  0  0  0  0  0  0  0  0
   -4.6510    2.6500   -1.0610 C   0  0  0  0  0  0  0  0  0  0  0  0
   -4.6230    3.1500   -2.2790 C   0  0  0  0  0  0  0  0  0  0  0  0
   -4.1800    2.4210   -3.3440 O   0  0  0  0  0  0  0  0  0  0  0  0
   -4.2570    1.2940   -0.7150 C   0  0  0  0  0  0  0  0  0  0  0  0
   -3.7490    0.3320   -1.6880 C   0  0  0  0  0  0  0  0  0  0  0  0
   -2.4870    0.6590   -2.2850 N   0  0  0  0  0  0  0  0  0  0  0  0
   -1.3130    0.8950   -1.4750 C   0  0  0  0  0  0  0  0  0  0  0  0
   -1.3960    0.8130   -0.2240 O   0  0  0  0  0  0  0  0  0  0  0  0
   -0.0350    1.2310   -2.1660 C   0  0  0  0  0  0  0  0  0  0  0  0
    1.0370    1.4420   -1.2310 N   0  0  0  0  0  0  0  0  0  0  0  0
    1.4640    0.4080   -0.3210 C   0  0  0  0  0  0  0  0  0  0  0  0
    0.8800   -0.6830   -0.3640 O   0  0  0  0  0  0  0  0  0  0  0  0
    2.5320    0.6320    0.6090 N   0  0  0  0  0  0  0  0  0  0  0  0
    3.0060   -0.3620    1.5340 C   0  0  0  0  0  0  0  0  0  0  0  0
    3.5140   -1.5800    0.8610 C   0  0  0  0  0  0  0  0  0  0  0  0
    4.6850   -1.4680   -0.0320 C   0  0  0  0  0  0  0  0  0  0  0  0
    5.9560   -1.0500    0.5320 C   0  0  0  0  0  0  0  0  0  0  0  0
    6.3930    0.2140    0.7940 C   0  0  0  0  0  0  0  0  0  0  0  0
    5.7490    1.5470    0.5420 C   0  0  0  0  0  0  0  0  0  0  0  0
    7.6290    0.1490    1.3480 N   0  0  0  0  0  0  0  0  0  0  0  0
    7.9750   -1.1080    1.4370 N   0  0  0  0  0  0  0  0  0  0  0  0
    7.0040   -1.8980    0.9580 C   0  0  0  0  0  0  0  0  0  0  0  0
    6.9740   -3.3740    0.8660 C   0  0  0  0  0  0  0  0  0  0  0  0
   -4.3590    0.8570    0.5580 C   0  0  0  0  0  0  0  0  0  0  0  0
  1  2  1  0
  2  3  1  0
  3  4  1  0
  4  5  2  0
  4 33  1  0
  5  6  1  0
  6  7  2  0
  7  8  1  0
  7 33  1  0
  8  9  1  0
  9 10  1  0
 10 11  2  3
 10 13  1  0
 11 12  1  0
 13 14  1  0
 13 33  2  0
 14 15  1  0
 15 16  1  0
 16 17  2  0
 16 18  1  0
 18 19  1  0
 19 20  1  0
 20 21  2  0
 20 22  1  0
 22 23  1  0
 23 24  1  0
 24 25  1  0
 25 26  1  0
 26 27  1  0
 26 31  2  0
 27 28  1  0
 27 29  2  0
 29 30  1  0
 30 31  1  0
 31 32  1  0
M  END
