
     RDKit          3D

 33 34  0  0  0  0  0  0  0  0999 V2000
   10.6810   -1.2260    2.1430 N   0  0  0  0  0  0  0  0  0  0  0  0
    9.6520   -0.9620    1.6680 C   0  0  0  0  0  0  0  0  0  0  0  0
    8.3880   -0.6310    1.1090 C   0  0  0  0  0  0  0  0  0  0  0  0
    7.3400   -1.5440    1.0620 C   0  0  0  0  0  0  0  0  0  0  0  0
    6.1240   -1.2110    0.5150 C   0  0  0  0  0  0  0  0  0  0  0  0
    5.8820    0.0610   -0.0180 C   0  0  0  0  0  0  0  0  0  0  0  0
    4.5880    0.3190   -0.5390 N   0  0  0  0  0  0  0  0  0  0  0  0
    4.2540    1.3740   -1.3950 C   0  0  0  0  0  0  0  0  0  0  0  0
    5.1980    2.1870   -1.7500 O   0  0  0  0  0  0  0  0  0  0  0  0
    2.9550    1.7130   -1.9720 C   0  0  2  0  0  0  0  0  0  0  0  0
    2.5860    3.4960   -1.5450 S   0  0  0  0  0  0  0  0  0  0  0  0
    1.6260    3.2720    0.0150 C   0  0  0  0  0  0  0  0  0  0  0  0
    2.0730    2.0330    0.7420 C   0  0  0  0  0  0  0  0  0  0  0  0
    1.9380    0.8500    0.0420 O   0  0  0  0  0  0  0  0  0  0  0  0
    1.8220    0.9940   -1.3050 C   0  0  2  0  0  0  0  0  0  0  0  0
    1.5950   -0.3270   -1.9890 C   0  0  0  0  0  0  0  0  0  0  0  0
    0.5100   -1.1640   -1.4070 C   0  0  0  0  0  0  0  0  0  0  0  0
   -0.7960   -0.5260   -1.4690 C   0  0  0  0  0  0  0  0  0  0  0  0
   -1.0060    0.5710   -2.0200 O   0  0  0  0  0  0  0  0  0  0  0  0
   -1.9390   -1.1750   -0.8660 N   0  0  0  0  0  0  0  0  0  0  0  0
   -3.2200   -0.5310   -0.9340 C   0  0  0  0  0  0  0  0  0  0  0  0
   -4.3320   -1.2320   -0.2330 C   0  0  2  0  0  0  0  0  0  0  0  0
   -5.5990   -0.4000   -0.5400 C   0  0  0  0  0  0  0  0  0  0  0  0
   -5.4960    0.6850   -1.1450 O   0  0  0  0  0  0  0  0  0  0  0  0
   -6.8410   -0.9060   -0.1170 N   0  0  0  0  0  0  0  0  0  0  0  0
   -8.0820   -0.1760   -0.3660 C   0  0  0  0  0  0  0  0  0  0  0  0
   -8.0430    1.1320    0.2640 N   0  0  0  0  0  0  0  0  0  0  0  0
   -4.3080   -1.2090    1.2570 C   0  0  2  0  0  0  0  0  0  0  0  0
   -4.3920    0.1520    1.7850 N   0  0  0  0  0  0  0  0  0  0  0  0
   -3.2830   -1.9810    1.9860 C   0  0  0  0  0  0  0  0  0  0  0  0
   -2.0450   -1.3930    1.9780 O   0  0  0  0  0  0  0  0  0  0  0  0
    6.9090    0.9510    0.0310 C   0  0  0  0  0  0  0  0  0  0  0  0
    8.1540    0.6160    0.5880 C   0  0  0  0  0  0  0  0  0  0  0  0
  1  2  3  0
  2  3  1  0
  3  4  2  0
  3 33  1  0
  4  5  1  0
  5  6  2  0
  6  7  1  0
  6 32  1  0
  7  8  1  0
  8  9  2  0
 10  8  1  1
 10 11  1  0
 10 15  1  0
 11 12  1  0
 12 13  1  0
 13 14  1  0
 14 15  1  0
 15 16  1  6
 16 17  1  0
 17 18  1  0
 18 19  2  0
 18 20  1  0
 20 21  1  0
 22 21  1  6
 22 23  1  0
 22 28  1  0
 23 24  2  0
 23 25  1  0
 25 26  1  0
 26 27  1  0
 28 29  1  6
 28 30  1  0
 30 31  1  0
 32 33  2  0
M  CHG  1  29   1
M  END
