
     RDKit          3D

 12 12  0  0  0  0  0  0  0  0999 V2000
    4.1830    1.1680   -0.4600 O   0  0  0  0  0  0  0  0  0  0  0  0
    3.0820    0.3950    0.2390 S   0  0  2  0  0  0  0  0  0  0  0  0
    2.5830    1.1410    1.4210 O   0  0  0  0  0  0  0  0  0  0  0  0
    3.6510   -1.1400    0.6280 O   0  0  0  0  0  0  0  0  0  0  0  0
    1.7800    0.1860   -0.9560 C   0  0  0  0  0  0  0  0  0  0  0  0
    0.7330   -0.6330   -0.3330 C   0  0  0  0  0  0  0  0  0  0  0  0
   -0.5310   -0.2600   -0.1370 C   0  0  0  0  0  0  0  0  0  0  0  0
   -1.0780    1.0270   -0.5110 C   0  0  0  0  0  0  0  0  0  0  0  0
   -2.3480    1.3110   -0.2770 C   0  0  0  0  0  0  0  0  0  0  0  0
   -3.2710    0.3790    0.3570 C   0  0  0  0  0  0  0  0  0  0  0  0
   -2.8010   -0.8070    0.7120 C   0  0  0  0  0  0  0  0  0  0  0  0
   -1.4510   -1.1780    0.4910 N   0  0  0  0  0  0  0  0  0  0  0  0
  1  2  2  0
  2  3  2  0
  2  4  1  1
  2  5  1  0
  5  6  1  0
  6  7  2  3
  7  8  1  0
  7 12  1  0
  8  9  2  0
  9 10  1  0
 10 11  2  0
 11 12  1  0
M  END
