
     RDKit          3D

 12 12  0  0  0  0  0  0  0  0999 V2000
   -0.1760   -1.7680   -1.1500 N   0  0  0  0  0  0  0  0  0  0  0  0
    0.6830   -1.5540   -0.2190 C   0  0  0  0  0  0  0  0  0  0  0  0
    1.8680   -2.9090    0.1090 S   0  0  0  0  0  0  0  0  0  0  0  0
    1.5320   -4.2030   -0.9580 O   0  0  0  0  0  0  0  0  0  0  0  0
    0.7740   -0.3610    0.5580 C   0  0  0  0  0  0  0  0  0  0  0  0
    1.7910   -0.3140    1.5410 O   0  0  0  0  0  0  0  0  0  0  0  0
    0.0330    0.6870    0.4690 C   0  0  0  0  0  0  0  0  0  0  0  0
   -1.0500    0.8190   -0.4720 C   0  0  0  0  0  0  0  0  0  0  0  0
   -1.8090    1.9280   -0.5420 C   0  0  0  0  0  0  0  0  0  0  0  0
   -1.5300    3.0270    0.3570 C   0  0  0  0  0  0  0  0  0  0  0  0
   -0.5350    2.9310    1.2360 C   0  0  0  0  0  0  0  0  0  0  0  0
    0.2550    1.8030    1.3250 O   0  0  0  0  0  0  0  0  0  0  0  0
  1  2  2  0
  2  3  1  0
  2  5  1  0
  3  4  1  0
  5  6  1  0
  5  7  2  3
  7  8  1  0
  7 12  1  0
  8  9  2  0
  9 10  1  0
 10 11  2  0
 11 12  1  0
M  END
