
     RDKit          3D

 12 13  0  0  0  0  0  0  0  0999 V2000
    4.0820   -0.8470   -0.4760 O   0  0  0  0  0  0  0  0  0  0  0  0
    2.9290   -0.3940   -0.2280 C   0  0  0  0  0  0  0  0  0  0  0  0
    2.7790    1.1020   -0.1450 C   0  0  0  0  0  0  0  0  0  0  0  0
    1.4660    1.4310   -0.5410 O   0  0  0  0  0  0  0  0  0  0  0  0
    0.3690    0.6220   -0.3470 C   0  0  0  0  0  0  0  0  0  0  0  0
    0.4990   -0.6620   -0.0990 C   0  0  0  0  0  0  0  0  0  0  0  0
    1.7960   -1.2220   -0.0290 N   0  0  0  0  0  0  0  0  0  0  0  0
   -0.6860   -1.9550    0.1930 S   0  0  0  0  0  0  0  0  0  0  0  0
   -2.3170   -1.3880    0.5700 C   0  0  0  0  0  0  0  0  0  0  0  0
   -2.6220    0.0200    0.1860 C   0  0  0  0  0  0  0  0  0  0  0  0
   -1.7100    0.9420    0.6350 O   0  0  0  0  0  0  0  0  0  0  0  0
   -0.9380    1.3500   -0.4500 C   0  0  0  0  0  0  0  0  0  0  0  0
  1  2  2  0
  2  3  1  0
  2  7  1  0
  3  4  1  0
  4  5  1  0
  5  6  2  0
  5 12  1  0
  6  7  1  0
  6  8  1  0
  8  9  1  0
  9 10  1  0
 10 11  1  0
 11 12  1  0
M  END
