
     RDKit          3D

 12 13  0  0  0  0  0  0  0  0999 V2000
   -3.2840   -0.3560   -0.4300 C   0  0  0  0  0  0  0  0  0  0  0  0
   -2.0260    0.0150    0.2690 C   0  0  1  0  0  0  0  0  0  0  0  0
   -1.1100   -1.4840    0.8360 S   0  0  0  0  0  0  0  0  0  0  0  0
    0.4970   -0.7380    0.6130 C   0  0  0  0  0  0  0  0  0  0  0  0
    0.3740    0.3020   -0.1700 C   0  0  0  0  0  0  0  0  0  0  0  0
    1.5070    1.0380   -0.4810 O   0  0  0  0  0  0  0  0  0  0  0  0
    2.6750    1.0770    0.3050 C   0  0  0  0  0  0  0  0  0  0  0  0
    2.8880   -0.3130    0.8020 C   0  0  0  0  0  0  0  0  0  0  0  0
    4.0440   -0.7700    0.9180 O   0  0  0  0  0  0  0  0  0  0  0  0
    1.7460   -1.1040    1.1400 N   0  0  0  0  0  0  0  0  0  0  0  0
   -0.9790    0.5550   -0.6280 C   0  0  0  0  0  0  0  0  0  0  0  0
   -1.2980    1.1810   -1.6980 O   0  0  0  0  0  0  0  0  0  0  0  0
  2  1  1  6
  2  3  1  0
  2 11  1  0
  3  4  1  0
  4  5  2  0
  4 10  1  0
  5  6  1  0
  5 11  1  0
  6  7  1  0
  7  8  1  0
  8  9  2  0
  8 10  1  0
 11 12  2  0
M  END
