
     RDKit          3D

 12 13  0  0  0  0  0  0  0  0999 V2000
   -0.1460    3.6480   -0.2010 O   0  0  0  0  0  0  0  0  0  0  0  0
   -0.0180    2.3780   -0.1450 C   0  0  0  0  0  0  0  0  0  0  0  0
   -1.0910    1.5180   -0.4900 N   0  0  0  0  0  0  0  0  0  0  0  0
   -0.9480    0.1150   -0.4750 C   0  0  2  0  0  0  0  0  0  0  0  0
   -1.9690   -0.6560    0.3380 C   0  0  0  0  0  0  0  0  0  0  0  0
   -1.7450   -2.0900   -0.1700 C   0  0  0  0  0  0  0  0  0  0  0  0
    0.0930   -2.1610   -0.0230 S   0  0  0  0  0  0  0  0  0  0  0  0
    0.3560   -0.3770   -0.0090 C   0  0  0  0  0  0  0  0  0  0  0  0
    1.3310    0.4140    0.3170 C   0  0  0  0  0  0  0  0  0  0  0  0
    2.6600   -0.1200    0.7830 C   0  0  0  0  0  0  0  0  0  0  0  0
    3.6490    0.3400   -0.1130 O   0  0  0  0  0  0  0  0  0  0  0  0
    1.1770    1.8070    0.2560 O   0  0  0  0  0  0  0  0  0  0  0  0
  1  2  2  0
  2  3  1  0
  2 12  1  0
  3  4  1  0
  4  5  1  1
  4  8  1  0
  5  6  1  0
  6  7  1  0
  7  8  1  0
  8  9  2  0
  9 10  1  0
  9 12  1  0
 10 11  1  0
M  END
