
     RDKit          3D

 19 19  0  0  0  0  0  0  0  0999 V2000
    5.5440    0.8340   -0.9780 C   0  0  0  0  0  0  0  0  0  0  0  0
    5.7550    0.4580    0.4560 C   0  0  0  0  0  0  0  0  0  0  0  0
    4.7570   -0.6230    0.8930 C   0  0  0  0  0  0  0  0  0  0  0  0
    3.3820   -0.0220    0.6990 C   0  0  0  0  0  0  0  0  0  0  0  0
    2.2980   -1.0050    1.1010 C   0  0  0  0  0  0  0  0  0  0  0  0
    0.9680   -0.2750    0.8560 C   0  0  0  0  0  0  0  0  0  0  0  0
   -0.1280   -1.2080    1.2390 C   0  0  0  0  0  0  0  0  0  0  0  0
   -1.3520   -0.6000    1.0390 O   0  0  0  0  0  0  0  0  0  0  0  0
   -1.5150   -0.3240   -0.3030 C   0  0  1  0  0  0  0  0  0  0  0  0
   -2.6240   -1.0490   -0.7300 O   0  0  0  0  0  0  0  0  0  0  0  0
   -3.7490   -0.7730    0.0650 C   0  0  2  0  0  0  0  0  0  0  0  0
   -4.9260   -1.3940   -0.6570 C   0  0  0  0  0  0  0  0  0  0  0  0
   -6.1230   -1.1960    0.0250 O   0  0  0  0  0  0  0  0  0  0  0  0
   -3.9290    0.7260    0.2330 C   0  0  1  0  0  0  0  0  0  0  0  0
   -3.3630    1.1170    1.4470 O   0  0  0  0  0  0  0  0  0  0  0  0
   -3.1230    1.4270   -0.8560 C   0  0  2  0  0  0  0  0  0  0  0  0
   -3.5250    1.0800   -2.1190 O   0  0  0  0  0  0  0  0  0  0  0  0
   -1.6690    1.1570   -0.5740 C   0  0  2  0  0  0  0  0  0  0  0  0
   -0.8550    1.5990   -1.5990 O   0  0  0  0  0  0  0  0  0  0  0  0
  1  2  1  0
  2  3  1  0
  3  4  1  0
  4  5  1  0
  5  6  1  0
  6  7  1  0
  7  8  1  0
  9  8  1  1
  9 10  1  0
  9 18  1  0
 10 11  1  0
 11 12  1  6
 11 14  1  0
 12 13  1  0
 14 15  1  1
 14 16  1  0
 16 17  1  6
 16 18  1  0
 18 19  1  6
M  END
