
     RDKit          3D

 12 13  0  0  0  0  0  0  0  0999 V2000
    3.6500    0.1340   -0.0150 O   0  0  0  0  0  0  0  0  0  0  0  0
    2.4000    0.2560    0.0570 C   0  0  0  0  0  0  0  0  0  0  0  0
    1.6260   -0.8260   -0.0670 N   0  0  0  0  0  0  0  0  0  0  0  0
    0.2830   -0.6390    0.0200 C   0  0  0  0  0  0  0  0  0  0  0  0
   -0.2620    0.6080    0.2260 C   0  0  0  0  0  0  0  0  0  0  0  0
    0.5390    1.6580    0.3450 O   0  0  0  0  0  0  0  0  0  0  0  0
    1.8400    1.4970    0.2640 C   0  0  0  0  0  0  0  0  0  0  0  0
    2.5950    2.5250    0.3810 O   0  0  0  0  0  0  0  0  0  0  0  0
   -1.7060    0.4300    0.2640 C   0  0  0  0  0  0  0  0  0  0  0  0
   -2.8630    1.7770    0.5120 S   0  0  0  0  0  0  0  0  0  0  0  0
   -2.0060   -0.8450    0.0900 C   0  0  0  0  0  0  0  0  0  0  0  0
   -0.7740   -1.6510   -0.0820 C   0  0  0  0  0  0  0  0  0  0  0  0
  1  2  2  0
  2  3  1  0
  2  7  1  0
  3  4  1  0
  4  5  2  0
  4 12  1  0
  5  6  1  0
  5  9  1  0
  6  7  1  0
  7  8  2  0
  9 10  1  0
  9 11  2  0
 11 12  1  0
M  END
