
     RDKit          3D

 12 13  0  0  0  0  0  0  0  0999 V2000
    0.1630    3.5950   -0.4890 O   0  0  0  0  0  0  0  0  0  0  0  0
    0.1720    2.3210   -0.4430 C   0  0  0  0  0  0  0  0  0  0  0  0
   -1.0580    1.6470   -0.2540 N   0  0  0  0  0  0  0  0  0  0  0  0
   -1.1100    0.2320   -0.2410 C   0  0  2  0  0  0  0  0  0  0  0  0
   -1.6640   -0.4000    1.0120 C   0  0  0  0  0  0  0  0  0  0  0  0
   -1.8980   -1.8520    0.5690 C   0  0  0  0  0  0  0  0  0  0  0  0
   -0.2490   -2.1720   -0.1830 S   0  0  0  0  0  0  0  0  0  0  0  0
    0.2280   -0.4250   -0.3660 C   0  0  0  0  0  0  0  0  0  0  0  0
    1.3390    0.2240   -0.5260 C   0  0  0  0  0  0  0  0  0  0  0  0
    2.6220   -0.5320   -0.6490 C   0  0  0  0  0  0  0  0  0  0  0  0
    3.4730   -0.1490    0.3790 O   0  0  0  0  0  0  0  0  0  0  0  0
    1.3430    1.6120   -0.5730 O   0  0  0  0  0  0  0  0  0  0  0  0
  1  2  2  0
  2  3  1  0
  2 12  1  0
  3  4  1  0
  4  5  1  1
  4  8  1  0
  5  6  1  0
  6  7  1  0
  7  8  1  0
  8  9  2  0
  9 10  1  0
  9 12  1  0
 10 11  1  0
M  END
