
     RDKit          3D

 12 12  0  0  0  0  0  0  0  0999 V2000
   -3.1500    0.9090   -0.0630 C   0  0  0  0  0  0  0  0  0  0  0  0
   -2.2460   -0.0440    0.1000 C   0  0  0  0  0  0  0  0  0  0  0  0
   -2.6560   -1.4170    0.3840 C   0  0  0  0  0  0  0  0  0  0  0  0
   -3.8190   -1.8740    0.5070 O   0  0  0  0  0  0  0  0  0  0  0  0
   -1.1220   -2.3260    0.5210 S   0  0  0  0  0  0  0  0  0  0  0  0
   -0.0680   -0.8910    0.2070 C   0  0  0  0  0  0  0  0  0  0  0  0
    1.3880   -0.9810    0.1840 C   0  0  0  0  0  0  0  0  0  0  0  0
    1.9620   -2.0620    0.3820 O   0  0  0  0  0  0  0  0  0  0  0  0
    2.1810    0.1330   -0.0590 O   0  0  0  0  0  0  0  0  0  0  0  0
    3.5740    0.1280   -0.0970 C   0  0  0  0  0  0  0  0  0  0  0  0
   -0.8290    0.1510    0.0220 C   0  0  0  0  0  0  0  0  0  0  0  0
   -0.1990    1.4280   -0.2480 N   0  0  0  0  0  0  0  0  0  0  0  0
  1  2  2  0
  2  3  1  0
  2 11  1  0
  3  4  2  0
  3  5  1  0
  5  6  1  0
  6  7  1  0
  6 11  2  0
  7  8  2  0
  7  9  1  0
  9 10  1  0
 11 12  1  0
M  END
