
     RDKit          3D

 19 19  0  0  0  0  0  0  0  0999 V2000
    5.4220    1.3870   -1.3350 C   0  0  0  0  0  0  0  0  0  0  0  0
    4.8990   -0.0020   -0.9830 C   0  0  0  0  0  0  0  0  0  0  0  0
    3.5460    0.1690   -0.3490 C   0  0  0  0  0  0  0  0  0  0  0  0
    2.9530   -1.1740    0.0320 C   0  0  0  0  0  0  0  0  0  0  0  0
    1.5850   -0.8960    0.6650 C   0  0  0  0  0  0  0  0  0  0  0  0
    0.9110   -2.1520    1.0790 C   0  0  0  0  0  0  0  0  0  0  0  0
   -0.3930   -2.0040    1.7670 C   0  0  0  0  0  0  0  0  0  0  0  0
   -1.4290   -1.3960    1.1940 O   0  0  0  0  0  0  0  0  0  0  0  0
   -1.4640   -0.0860    0.9010 C   0  0  1  0  0  0  0  0  0  0  0  0
   -1.6390    0.0790   -0.4700 O   0  0  0  0  0  0  0  0  0  0  0  0
   -2.9540   -0.0410   -0.8820 C   0  0  2  0  0  0  0  0  0  0  0  0
   -3.0010   -0.1930   -2.3770 C   0  0  0  0  0  0  0  0  0  0  0  0
   -2.3050   -1.3210   -2.8120 O   0  0  0  0  0  0  0  0  0  0  0  0
   -3.6310    1.2760   -0.5210 C   0  0  1  0  0  0  0  0  0  0  0  0
   -4.9850    1.1280   -0.3350 O   0  0  0  0  0  0  0  0  0  0  0  0
   -2.9470    1.8450    0.7090 C   0  0  2  0  0  0  0  0  0  0  0  0
   -1.7660    2.4560    0.3220 O   0  0  0  0  0  0  0  0  0  0  0  0
   -2.6100    0.6570    1.5880 C   0  0  2  0  0  0  0  0  0  0  0  0
   -2.2120    1.1740    2.8210 O   0  0  0  0  0  0  0  0  0  0  0  0
  1  2  1  0
  2  3  1  0
  3  4  1  0
  4  5  1  0
  5  6  1  0
  6  7  1  0
  7  8  1  0
  9  8  1  6
  9 10  1  0
  9 18  1  0
 10 11  1  0
 11 12  1  6
 11 14  1  0
 12 13  1  0
 14 15  1  1
 14 16  1  0
 16 17  1  6
 16 18  1  0
 18 19  1  1
M  END
