
     RDKit          3D

 12 12  0  0  0  0  0  0  0  0999 V2000
    3.6630    0.7840   -0.2700 N   0  0  0  0  0  0  0  0  0  0  0  0
    3.1980   -0.3770    0.3920 C   0  0  0  0  0  0  0  0  0  0  0  0
    4.2610   -1.4010    1.0760 S   0  0  0  0  0  0  0  0  0  0  0  0
    1.7520   -0.6840    0.4760 C   0  0  0  0  0  0  0  0  0  0  0  0
    1.3770   -1.7200    1.0700 O   0  0  0  0  0  0  0  0  0  0  0  0
    0.8060    0.1170   -0.0670 O   0  0  0  0  0  0  0  0  0  0  0  0
   -0.5470    0.0080   -0.0950 C   0  0  0  0  0  0  0  0  0  0  0  0
   -1.2310    0.9790   -0.7220 C   0  0  0  0  0  0  0  0  0  0  0  0
   -2.7040    0.9960   -0.8330 C   0  0  0  0  0  0  0  0  0  0  0  0
   -3.3580   -0.0790   -0.2350 O   0  0  0  0  0  0  0  0  0  0  0  0
   -2.6740   -1.0720    0.4050 C   0  0  0  0  0  0  0  0  0  0  0  0
   -1.3460   -1.0430    0.4790 C   0  0  0  0  0  0  0  0  0  0  0  0
  1  2  1  0
  2  3  2  0
  2  4  1  0
  4  5  2  0
  4  6  1  0
  6  7  1  0
  7  8  2  0
  7 12  1  0
  8  9  1  0
  9 10  1  0
 10 11  1  0
 11 12  2  0
M  END
