
     RDKit          3D

 12 13  0  0  0  0  0  0  0  0999 V2000
    3.2910    0.1710    0.3050 C   0  0  0  0  0  0  0  0  0  0  0  0
    2.0180   -0.1210   -0.4130 C   0  0  1  0  0  0  0  0  0  0  0  0
    1.1300   -1.5400    0.2810 S   0  0  0  0  0  0  0  0  0  0  0  0
   -0.4920   -0.7700    0.2500 C   0  0  0  0  0  0  0  0  0  0  0  0
   -0.3320    0.4910   -0.0410 C   0  0  0  0  0  0  0  0  0  0  0  0
   -1.5290    1.2410   -0.1040 O   0  0  0  0  0  0  0  0  0  0  0  0
   -2.7610    0.6310   -0.4610 C   0  0  0  0  0  0  0  0  0  0  0  0
   -2.9040   -0.5720    0.4120 C   0  0  0  0  0  0  0  0  0  0  0  0
   -3.9640   -0.8490    1.0320 O   0  0  0  0  0  0  0  0  0  0  0  0
   -1.7410   -1.3940    0.4940 N   0  0  0  0  0  0  0  0  0  0  0  0
    1.0000    0.9400   -0.2540 C   0  0  0  0  0  0  0  0  0  0  0  0
    1.3940    2.1600   -0.3200 O   0  0  0  0  0  0  0  0  0  0  0  0
  2  1  1  1
  2  3  1  0
  2 11  1  0
  3  4  1  0
  4  5  2  0
  4 10  1  0
  5  6  1  0
  5 11  1  0
  6  7  1  0
  7  8  1  0
  8  9  2  0
  8 10  1  0
 11 12  2  0
M  END
