
     RDKit          3D

 12 12  0  0  0  0  0  0  0  0999 V2000
    2.3930   -0.7980   -1.4720 O   0  0  0  0  0  0  0  0  0  0  0  0
    2.9600   -0.1530   -0.2660 S   0  0  1  0  0  0  0  0  0  0  0  0
    3.4790   -1.2380    0.6410 O   0  0  0  0  0  0  0  0  0  0  0  0
    4.2570    0.8620   -0.6130 O   0  0  0  0  0  0  0  0  0  0  0  0
    1.6850    0.7070    0.6240 C   0  0  0  0  0  0  0  0  0  0  0  0
    0.5980   -0.2580    0.8820 C   0  0  0  0  0  0  0  0  0  0  0  0
   -0.6490   -0.1490    0.4670 C   0  0  0  0  0  0  0  0  0  0  0  0
   -1.5990   -1.2210    0.8260 C   0  0  0  0  0  0  0  0  0  0  0  0
   -2.8570   -1.1470    0.4270 C   0  0  0  0  0  0  0  0  0  0  0  0
   -3.3520   -0.0500   -0.3550 C   0  0  0  0  0  0  0  0  0  0  0  0
   -2.5510    0.9410   -0.7090 C   0  0  0  0  0  0  0  0  0  0  0  0
   -1.1730    0.9140   -0.3040 N   0  0  0  0  0  0  0  0  0  0  0  0
  1  2  2  0
  2  3  2  0
  2  4  1  6
  2  5  1  0
  5  6  1  0
  6  7  2  3
  7  8  1  0
  7 12  1  0
  8  9  2  0
  9 10  1  0
 10 11  2  0
 11 12  1  0
M  END
