
     RDKit          3D

 12 13  0  0  0  0  0  0  0  0999 V2000
   -1.2580    2.9340   -0.2830 O   0  0  0  0  0  0  0  0  0  0  0  0
   -0.7680    1.7700   -0.4000 C   0  0  0  0  0  0  0  0  0  0  0  0
    0.6130    1.6510   -0.4560 O   0  0  0  0  0  0  0  0  0  0  0  0
    1.4220    0.5020   -0.2040 C   0  0  0  0  0  0  0  0  0  0  0  0
    2.7160    0.5910   -0.6300 C   0  0  0  0  0  0  0  0  0  0  0  0
    3.4230   -0.9600   -0.1760 S   0  0  0  0  0  0  0  0  0  0  0  0
    1.9320   -1.6330    0.5600 C   0  0  0  0  0  0  0  0  0  0  0  0
    1.0060   -0.6160    0.4010 C   0  0  0  0  0  0  0  0  0  0  0  0
   -0.3320   -0.8790    0.9200 N   0  0  0  0  0  0  0  0  0  0  0  0
   -1.5920   -0.2300    0.7420 C   0  0  0  0  0  0  0  0  0  0  0  0
   -1.7230    0.6290   -0.4680 C   0  0  2  0  0  0  0  0  0  0  0  0
   -1.4290   -0.0810   -1.6350 O   0  0  0  0  0  0  0  0  0  0  0  0
  1  2  2  0
  2  3  1  0
  2 11  1  0
  3  4  1  0
  4  5  2  0
  4  8  1  0
  5  6  1  0
  6  7  1  0
  7  8  2  0
  8  9  1  0
  9 10  1  0
 10 11  1  0
 11 12  1  6
M  END
