
     RDKit          3D

 12 13  0  0  0  0  0  0  0  0999 V2000
    0.1150    3.7800   -0.0390 O   0  0  0  0  0  0  0  0  0  0  0  0
    0.1550    2.4990   -0.0640 C   0  0  0  0  0  0  0  0  0  0  0  0
   -1.0030    1.7380   -0.3480 N   0  0  0  0  0  0  0  0  0  0  0  0
   -0.9500    0.3280   -0.4450 C   0  0  2  0  0  0  0  0  0  0  0  0
   -2.0020   -0.4360    0.2080 C   0  0  0  0  0  0  0  0  0  0  0  0
   -1.7580   -1.8890    0.1950 C   0  0  0  0  0  0  0  0  0  0  0  0
    0.0340   -2.0200   -0.1500 S   0  0  0  0  0  0  0  0  0  0  0  0
    0.3580   -0.2820   -0.1180 C   0  0  0  0  0  0  0  0  0  0  0  0
    1.3970    0.4380    0.1560 C   0  0  0  0  0  0  0  0  0  0  0  0
    2.7400   -0.1540    0.4780 C   0  0  0  0  0  0  0  0  0  0  0  0
    2.6940   -1.5390    0.4370 O   0  0  0  0  0  0  0  0  0  0  0  0
    1.3440    1.8450    0.1890 O   0  0  0  0  0  0  0  0  0  0  0  0
  1  2  2  0
  2  3  1  0
  2 12  1  0
  3  4  1  0
  4  5  1  1
  4  8  1  0
  5  6  1  0
  6  7  1  0
  7  8  1  0
  8  9  2  0
  9 10  1  0
  9 12  1  0
 10 11  1  0
M  END
