
     RDKit          3D

 12 13  0  0  0  0  0  0  0  0999 V2000
    3.4500    1.7480    0.9790 O   0  0  0  0  0  0  0  0  0  0  0  0
    2.5290    0.9480    0.7190 C   0  0  0  0  0  0  0  0  0  0  0  0
    2.7250   -0.2920   -0.0930 C   0  0  0  0  0  0  0  0  0  0  0  0
    1.5910   -0.5560   -0.8430 O   0  0  0  0  0  0  0  0  0  0  0  0
    0.2480   -0.3840   -0.4210 C   0  0  0  0  0  0  0  0  0  0  0  0
    0.1390    0.4740    0.5780 C   0  0  0  0  0  0  0  0  0  0  0  0
    1.2150    1.1580    1.1800 N   0  0  0  0  0  0  0  0  0  0  0  0
   -1.3640    1.0170    1.4510 S   0  0  0  0  0  0  0  0  0  0  0  0
   -2.8760    0.4660    0.4620 C   0  0  0  0  0  0  0  0  0  0  0  0
   -2.2140   -0.3390   -0.4450 C   0  0  0  0  0  0  0  0  0  0  0  0
   -1.9080   -1.1250   -1.4120 O   0  0  0  0  0  0  0  0  0  0  0  0
   -0.5000   -1.2470   -1.2830 C   0  0  0  0  0  0  0  0  0  0  0  0
  1  2  2  0
  2  3  1  0
  2  7  1  0
  3  4  1  0
  4  5  1  0
  5  6  2  0
  5 12  1  0
  6  7  1  0
  6  8  1  0
  8  9  1  0
  9 10  1  0
 10 11  1  0
 11 12  1  0
M  END
