
     RDKit          3D

 12 12  0  0  0  0  0  0  0  0999 V2000
   -3.4420   -0.0720   -0.3380 C   0  0  0  0  0  0  0  0  0  0  0  0
   -2.1540    0.1720   -0.6770 C   0  0  0  0  0  0  0  0  0  0  0  0
   -1.8170    0.7840   -1.9570 C   0  0  0  0  0  0  0  0  0  0  0  0
   -2.5800    1.1540   -2.8770 O   0  0  0  0  0  0  0  0  0  0  0  0
   -0.0340    0.8880   -1.9170 S   0  0  0  0  0  0  0  0  0  0  0  0
    0.1590    0.1570   -0.2990 C   0  0  0  0  0  0  0  0  0  0  0  0
    1.4740   -0.0460    0.3380 C   0  0  0  0  0  0  0  0  0  0  0  0
    1.5490   -0.5640    1.4750 O   0  0  0  0  0  0  0  0  0  0  0  0
    2.6430    0.3230   -0.2880 O   0  0  0  0  0  0  0  0  0  0  0  0
    3.8920    0.1390    0.2980 C   0  0  0  0  0  0  0  0  0  0  0  0
   -1.0230   -0.1290    0.1450 C   0  0  0  0  0  0  0  0  0  0  0  0
   -1.1710   -0.7410    1.4550 N   0  0  0  0  0  0  0  0  0  0  0  0
  1  2  2  0
  2  3  1  0
  2 11  1  0
  3  4  2  0
  3  5  1  0
  5  6  1  0
  6  7  1  0
  6 11  2  0
  7  8  2  0
  7  9  1  0
  9 10  1  0
 11 12  1  0
M  END
