
     RDKit          3D

 12 13  0  0  0  0  0  0  0  0999 V2000
    2.3990   -0.3320   -1.3510 C   0  0  0  0  0  0  0  0  0  0  0  0
    2.2780    0.0630    0.0920 C   0  0  1  0  0  0  0  0  0  0  0  0
    1.3830    1.6750    0.2450 S   0  0  0  0  0  0  0  0  0  0  0  0
   -0.2300    0.9070    0.2920 C   0  0  0  0  0  0  0  0  0  0  0  0
   -0.0700   -0.3510    0.6080 C   0  0  0  0  0  0  0  0  0  0  0  0
   -1.2080   -1.1620    0.7050 O   0  0  0  0  0  0  0  0  0  0  0  0
   -2.5070   -0.6810    0.7710 C   0  0  0  0  0  0  0  0  0  0  0  0
   -2.6550    0.6410    0.1430 C   0  0  0  0  0  0  0  0  0  0  0  0
   -3.7580    1.0380   -0.2930 O   0  0  0  0  0  0  0  0  0  0  0  0
   -1.4920    1.4560    0.0490 N   0  0  0  0  0  0  0  0  0  0  0  0
    1.2900   -0.7660    0.8280 C   0  0  0  0  0  0  0  0  0  0  0  0
    1.7040   -1.7360    1.5620 O   0  0  0  0  0  0  0  0  0  0  0  0
  2  1  1  6
  2  3  1  0
  2 11  1  0
  3  4  1  0
  4  5  2  0
  4 10  1  0
  5  6  1  0
  5 11  1  0
  6  7  1  0
  7  8  1  0
  8  9  2  0
  8 10  1  0
 11 12  2  0
M  END
