
     RDKit          3D

 12 12  0  0  0  0  0  0  0  0999 V2000
    2.3030   -1.2360    1.3430 O   0  0  0  0  0  0  0  0  0  0  0  0
    2.9450   -0.2710    0.3860 S   0  0  2  0  0  0  0  0  0  0  0  0
    3.6080   -1.0980   -0.6910 O   0  0  0  0  0  0  0  0  0  0  0  0
    4.0800    0.6530    1.1630 O   0  0  0  0  0  0  0  0  0  0  0  0
    1.7020    0.7540   -0.4080 C   0  0  0  0  0  0  0  0  0  0  0  0
    0.7130   -0.0940   -1.0870 C   0  0  0  0  0  0  0  0  0  0  0  0
   -0.5790   -0.1430   -0.8510 C   0  0  0  0  0  0  0  0  0  0  0  0
   -1.4700   -1.0260   -1.5890 C   0  0  0  0  0  0  0  0  0  0  0  0
   -2.7880   -1.0570   -1.3300 C   0  0  0  0  0  0  0  0  0  0  0  0
   -3.3300   -0.1920   -0.2930 C   0  0  0  0  0  0  0  0  0  0  0  0
   -2.5710    0.6270    0.4060 C   0  0  0  0  0  0  0  0  0  0  0  0
   -1.1550    0.6770    0.1450 N   0  0  0  0  0  0  0  0  0  0  0  0
  1  2  2  0
  2  3  2  0
  2  4  1  1
  2  5  1  0
  5  6  1  0
  6  7  2  3
  7  8  1  0
  7 12  1  0
  8  9  2  0
  9 10  1  0
 10 11  2  0
 11 12  1  0
M  END
