
     RDKit          3D

 12 13  0  0  0  0  0  0  0  0999 V2000
    2.6850    0.4230    0.5710 C   0  0  0  0  0  0  0  0  0  0  0  0
    1.9860   -0.3580   -0.5100 C   0  0  1  0  0  0  0  0  0  0  0  0
    1.0340   -1.3910    0.0230 C   0  0  0  0  0  0  0  0  0  0  0  0
   -0.2690   -0.6600    0.0100 C   0  0  0  0  0  0  0  0  0  0  0  0
   -1.3800   -1.0080    0.6170 C   0  0  0  0  0  0  0  0  0  0  0  0
   -2.8030   -0.0240    0.4850 S   0  0  1  0  0  0  0  0  0  0  0  0
   -3.9380   -0.7880   -0.1290 O   0  0  0  0  0  0  0  0  0  0  0  0
   -3.2250    0.5170    1.8380 O   0  0  0  0  0  0  0  0  0  0  0  0
   -2.3840    1.3200   -0.5150 N   0  0  0  0  0  0  0  0  0  0  0  0
   -1.0610    1.3840   -1.0150 C   0  0  0  0  0  0  0  0  0  0  0  0
   -0.1130    0.5230   -0.7970 C   0  0  0  0  0  0  0  0  0  0  0  0
    1.2110    0.5460   -1.2710 O   0  0  0  0  0  0  0  0  0  0  0  0
  2  1  1  1
  2  3  1  0
  2 12  1  0
  3  4  1  0
  4  5  2  0
  4 11  1  0
  5  6  1  0
  6  7  2  0
  6  8  2  0
  6  9  1  6
  9 10  1  0
 10 11  2  0
 11 12  1  0
M  END
