
     RDKit          3D

 19 19  0  0  0  0  0  0  0  0999 V2000
    5.7700    0.3900   -1.7980 C   0  0  0  0  0  0  0  0  0  0  0  0
    4.7980    0.5610   -0.6080 C   0  0  0  0  0  0  0  0  0  0  0  0
    4.5120   -0.7550   -0.0150 C   0  0  0  0  0  0  0  0  0  0  0  0
    3.6390   -0.8580    1.1420 C   0  0  0  0  0  0  0  0  0  0  0  0
    2.2160   -0.5420    1.0500 C   0  0  0  0  0  0  0  0  0  0  0  0
    1.8330    0.8220    0.6490 C   0  0  0  0  0  0  0  0  0  0  0  0
    0.2860    0.8650    0.7710 C   0  0  0  0  0  0  0  0  0  0  0  0
   -0.2810   -0.0790   -0.0620 O   0  0  0  0  0  0  0  0  0  0  0  0
   -1.6630   -0.0290    0.0580 C   0  0  1  0  0  0  0  0  0  0  0  0
   -2.1780    0.2120   -1.2090 O   0  0  0  0  0  0  0  0  0  0  0  0
   -3.5340    0.4130   -1.2330 C   0  0  2  0  0  0  0  0  0  0  0  0
   -3.8950    1.8750   -1.1840 C   0  0  0  0  0  0  0  0  0  0  0  0
   -3.3180    2.4770   -2.3030 O   0  0  0  0  0  0  0  0  0  0  0  0
   -4.2460   -0.3830   -0.1530 C   0  0  1  0  0  0  0  0  0  0  0  0
   -5.5460   -0.6290   -0.5810 O   0  0  0  0  0  0  0  0  0  0  0  0
   -3.4610   -1.6930   -0.0410 C   0  0  2  0  0  0  0  0  0  0  0  0
   -4.1730   -2.6670    0.6220 O   0  0  0  0  0  0  0  0  0  0  0  0
   -2.1520   -1.3440    0.6280 C   0  0  2  0  0  0  0  0  0  0  0  0
   -2.4330   -1.2090    2.0060 O   0  0  0  0  0  0  0  0  0  0  0  0
  1  2  1  0
  2  3  1  0
  3  4  1  0
  4  5  1  0
  5  6  1  0
  6  7  1  0
  7  8  1  0
  9  8  1  6
  9 10  1  0
  9 18  1  0
 10 11  1  0
 11 12  1  1
 11 14  1  0
 12 13  1  0
 14 15  1  6
 14 16  1  0
 16 17  1  1
 16 18  1  0
 18 19  1  1
M  END
