
     RDKit          3D

 33 33  0  0  0  0  0  0  0  0999 V2000
   -9.9040   -0.5330    1.3480 C   0  0  0  0  0  0  0  0  0  0  0  0
   -8.4420   -0.6400    1.5490 C   0  0  0  0  0  0  0  0  0  0  0  0
   -7.6500   -0.7160    0.4770 C   0  0  0  0  0  0  0  0  0  0  0  0
   -8.2540   -0.6890   -0.8500 C   0  0  0  0  0  0  0  0  0  0  0  0
   -7.2330   -0.5830   -1.8960 C   0  0  0  0  0  0  0  0  0  0  0  0
   -7.6690   -0.4050   -3.2750 N   0  0  0  0  0  0  0  0  0  0  0  0
   -5.9550   -0.6270   -1.7220 C   0  0  0  0  0  0  0  0  0  0  0  0
   -5.0140   -0.5090   -2.8960 C   0  0  0  0  0  0  0  0  0  0  0  0
   -5.3440   -0.7510   -0.3510 C   0  0  0  0  0  0  0  0  0  0  0  0
   -3.9680   -0.5620   -0.2870 N   0  0  0  0  0  0  0  0  0  0  0  0
   -3.0320   -0.3180    0.6980 C   0  0  0  0  0  0  0  0  0  0  0  0
   -3.3490   -0.1370    1.8580 O   0  0  0  0  0  0  0  0  0  0  0  0
   -1.6040   -0.2590    0.4310 N   0  0  0  0  0  0  0  0  0  0  0  0
   -0.7150    0.0030    1.5340 C   0  0  0  0  0  0  0  0  0  0  0  0
    0.7060    0.1160    1.1700 C   0  0  0  0  0  0  0  0  0  0  0  0
    1.1120    1.2720    0.3470 C   0  0  2  0  0  0  0  0  0  0  0  0
    0.4320    1.3610   -0.9740 C   0  0  0  0  0  0  0  0  0  0  0  0
    1.0430    2.4860   -1.6260 O   0  0  0  0  0  0  0  0  0  0  0  0
    2.5570    1.1220    0.0220 N   0  0  0  0  0  0  0  0  0  0  0  0
    3.3880    1.5480    1.1190 C   0  0  2  0  0  0  0  0  0  0  0  0
    3.8720    2.9460    1.0600 C   0  0  0  0  0  0  0  0  0  0  0  0
    4.7110    3.3300   -0.1070 C   0  0  0  0  0  0  0  0  0  0  0  0
    5.0440    4.8250    0.0780 C   0  0  0  0  0  0  0  0  0  0  0  0
    4.4020    0.4940    1.3820 C   0  0  0  0  0  0  0  0  0  0  0  0
    5.2620    0.1790    0.2650 N   0  0  0  0  0  0  0  0  0  0  0  0
    6.2990   -0.7950    0.3500 C   0  0  0  0  0  0  0  0  0  0  0  0
    6.4260   -1.3710    1.4620 O   0  0  0  0  0  0  0  0  0  0  0  0
    7.1500   -1.1240   -0.7140 N   0  0  0  0  0  0  0  0  0  0  0  0
    8.2060   -2.1120   -0.6430 C   0  0  0  0  0  0  0  0  0  0  0  0
    7.5720   -3.4450   -0.3090 C   0  0  0  0  0  0  0  0  0  0  0  0
    8.6110   -4.5430   -0.2150 C   0  0  0  0  0  0  0  0  0  0  0  0
   -6.1850   -0.8030    0.6400 C   0  0  0  0  0  0  0  0  0  0  0  0
   -5.7290   -1.1540    2.0100 C   0  0  0  0  0  0  0  0  0  0  0  0
  1  2  1  0
  2  3  2  3
  3  4  1  0
  3 32  1  0
  4  5  1  0
  5  6  1  0
  5  7  2  0
  7  8  1  0
  7  9  1  0
  9 10  1  0
  9 32  2  0
 10 11  1  0
 11 12  2  0
 11 13  1  0
 13 14  1  0
 14 15  1  0
 16 15  1  6
 16 17  1  0
 16 19  1  0
 17 18  1  0
 19 20  1  0
 20 21  1  6
 20 24  1  0
 21 22  1  0
 22 23  1  0
 24 25  1  0
 25 26  1  0
 26 27  2  0
 26 28  1  0
 28 29  1  0
 29 30  1  0
 30 31  1  0
 32 33  1  0
M  CHG  1  19   1
M  END
