
     RDKit          3D

 32 34  0  0  0  0  0  0  0  0999 V2000
    2.7800    3.4500   -0.5820 C   0  0  0  0  0  0  0  0  0  0  0  0
    2.0980    2.3640   -1.1040 O   0  0  0  0  0  0  0  0  0  0  0  0
    2.7290    1.2320   -0.7390 N   0  0  0  0  0  0  0  0  0  0  0  0
    4.0800    1.3750   -0.4280 N   0  0  0  0  0  0  0  0  0  0  0  0
    4.7510    0.7190    0.4570 C   0  0  0  0  0  0  0  0  0  0  0  0
    4.3100   -0.3180    1.3560 N   0  0  0  0  0  0  0  0  0  0  0  0
    2.6330   -0.3250    1.9700 S   0  0  0  0  0  0  0  0  0  0  0  0
    1.4770   -0.4780    0.5700 C   0  0  1  0  0  0  0  0  0  0  0  0
    1.1440   -1.8240    0.5330 O   0  0  0  0  0  0  0  0  0  0  0  0
    2.1580   -2.6720    0.3980 N   0  0  0  0  0  0  0  0  0  0  0  0
    0.2110    0.3410    0.9610 C   0  0  1  0  0  0  0  0  0  0  0  0
    0.0340    0.1070    2.3230 F   0  0  0  0  0  0  0  0  0  0  0  0
    0.5670    1.6500    0.8600 F   0  0  0  0  0  0  0  0  0  0  0  0
   -0.9540    0.0020    0.1450 C   0  0  2  0  0  0  0  0  0  0  0  0
   -0.4710   -0.4980   -1.2100 C   0  0  0  0  0  0  0  0  0  0  0  0
    0.8000    0.0860   -1.7040 C   0  0  0  0  0  0  0  0  0  0  0  0
    1.9700   -0.0220   -0.7280 C   0  0  1  0  0  0  0  0  0  0  0  0
    2.9280   -1.0490   -1.3590 C   0  0  0  0  0  0  0  0  0  0  0  0
   -1.9420    1.0750   -0.1530 C   0  0  0  0  0  0  0  0  0  0  0  0
   -1.5690    2.2420   -0.5920 C   0  0  0  0  0  0  0  0  0  0  0  0
   -2.4950    3.3030   -0.8950 C   0  0  0  0  0  0  0  0  0  0  0  0
   -2.1060    4.4430   -1.3150 O   0  0  0  0  0  0  0  0  0  0  0  0
   -3.4160    0.9180    0.0020 C   0  0  0  0  0  0  0  0  0  0  0  0
   -4.0890   -0.2140   -0.1990 C   0  0  0  0  0  0  0  0  0  0  0  0
   -5.4520   -0.1180    0.0040 O   0  0  0  0  0  0  0  0  0  0  0  0
   -3.6200   -1.5540   -0.6000 C   0  0  0  0  0  0  0  0  0  0  0  0
   -2.3320   -1.8430   -0.2320 O   0  0  0  0  0  0  0  0  0  0  0  0
   -1.7760   -1.1520    0.7950 C   0  0  1  0  0  0  0  0  0  0  0  0
   -1.0410   -1.8630    1.7070 O   0  0  0  0  0  0  0  0  0  0  0  0
   -1.6830   -2.8610    2.2940 N   0  0  0  0  0  0  0  0  0  0  0  0
   -2.8330   -0.5910    1.5580 O   0  0  0  0  0  0  0  0  0  0  0  0
   -3.4760   -1.6160    2.0770 O   0  0  0  0  0  0  0  0  0  0  0  0
  1  2  1  0
  2  3  1  0
  3  4  1  0
  3 17  1  0
  4  5  2  0
  5  6  1  0
  6  7  1  0
  7  8  1  0
  8  9  1  6
  8 11  1  0
  8 17  1  0
  9 10  1  0
 11 12  1  1
 11 13  1  0
 11 14  1  0
 14 15  1  6
 14 19  1  0
 14 28  1  0
 15 16  1  0
 16 17  1  0
 17 18  1  6
 19 20  2  3
 19 23  1  0
 20 21  1  0
 21 22  2  0
 23 24  2  0
 24 25  1  0
 24 26  1  0
 26 27  1  0
 27 28  1  0
 28 29  1  1
 28 31  1  0
 29 30  1  0
 31 32  1  0
M  END
