
     RDKit          3D

 32 33  0  0  0  0  0  0  0  0999 V2000
   -4.2300   -0.0900    1.5340 C   0  0  0  0  0  0  0  0  0  0  0  0
   -3.7610   -1.0200    0.7360 C   0  0  0  0  0  0  0  0  0  0  0  0
   -4.5590   -1.7270   -0.1680 O   0  0  0  0  0  0  0  0  0  0  0  0
   -3.7570   -2.6080   -0.8190 O   0  0  0  0  0  0  0  0  0  0  0  0
   -2.5270   -2.2070   -0.6700 O   0  0  0  0  0  0  0  0  0  0  0  0
   -2.4270   -1.5490    0.5550 C   0  0  1  0  0  0  0  0  0  0  0  0
   -1.2840   -0.6210    0.6010 C   0  0  1  0  0  0  0  0  0  0  0  0
   -0.9770   -0.0710    1.9160 C   0  0  0  0  0  0  0  0  0  0  0  0
   -0.9170    1.1550    2.2280 N   0  0  0  0  0  0  0  0  0  0  0  0
   -0.7070   -1.0370    2.9570 N   0  0  0  0  0  0  0  0  0  0  0  0
   -0.0960   -1.5650    0.3540 N   0  0  0  0  0  0  0  0  0  0  0  0
    0.9460   -0.7580    0.0870 C   0  0  0  0  0  0  0  0  0  0  0  0
    2.2000   -1.4310   -0.1180 C   0  0  0  0  0  0  0  0  0  0  0  0
    3.4230   -1.3840   -0.3650 C   0  0  0  0  0  0  0  0  0  0  0  0
    4.3740   -0.4130   -0.6200 O   0  0  0  0  0  0  0  0  0  0  0  0
    5.0520   -0.3070   -1.7550 F   0  0  0  0  0  0  0  0  0  0  0  0
    4.1840   -2.7680   -0.4220 C   0  0  2  0  0  0  0  0  0  0  0  0
    4.6980   -2.8150   -1.7020 O   0  0  0  0  0  0  0  0  0  0  0  0
    3.2980   -3.7590   -0.2260 F   0  0  0  0  0  0  0  0  0  0  0  0
    5.1610   -2.6700    0.6040 N   0  0  0  0  0  0  0  0  0  0  0  0
    4.9770   -2.0540    1.8290 S   0  0  0  0  0  0  0  0  0  0  0  0
    0.4040    0.5190   -0.4470 C   0  0  0  0  0  0  0  0  0  0  0  0
    1.0030    1.6310   -0.6250 C   0  0  0  0  0  0  0  0  0  0  0  0
    2.4790    1.7690   -0.3050 C   0  0  0  0  0  0  0  0  0  0  0  0
    0.3890    2.9650   -0.7440 C   0  0  0  0  0  0  0  0  0  0  0  0
   -0.9520    3.2970   -0.5890 N   0  0  0  0  0  0  0  0  0  0  0  0
    1.1600    3.9520   -1.0240 O   0  0  0  0  0  0  0  0  0  0  0  0
   -1.0510    0.2400   -0.5540 C   0  0  0  0  0  0  0  0  0  0  0  0
   -1.8850    0.6100   -1.4600 C   0  0  0  0  0  0  0  0  0  0  0  0
   -1.8330    1.3880   -2.6320 C   0  0  0  0  0  0  0  0  0  0  0  0
   -2.9080    1.6590   -3.3120 O   0  0  0  0  0  0  0  0  0  0  0  0
   -0.7030    1.9170   -3.1890 O   0  0  0  0  0  0  0  0  0  0  0  0
  1  2  2  0
  2  3  1  0
  2  6  1  0
  3  4  1  0
  4  5  1  0
  6  5  1  6
  6  7  1  0
  7  8  1  1
  7 11  1  0
  7 28  1  0
  8  9  2  0
  8 10  1  0
 11 12  2  0
 12 13  1  0
 12 22  1  0
 13 14  2  3
 14 15  1  0
 14 17  1  0
 15 16  1  0
 17 18  1  6
 17 19  1  0
 17 20  1  0
 20 21  2  0
 22 23  2  3
 22 28  1  0
 23 24  1  0
 23 25  1  0
 25 26  1  0
 25 27  2  0
 28 29  2  3
 29 30  1  0
 30 31  2  0
 30 32  1  0
M  CHG  1  18  -1
M  END
