
     RDKit          3D

 33 33  0  0  0  0  0  0  0  0999 V2000
   -2.6330   -0.4890    3.0620 C   0  0  0  0  0  0  0  0  0  0  0  0
   -2.1120   -0.7950    1.7940 O   0  0  0  0  0  0  0  0  0  0  0  0
   -2.0490    0.0800    0.7350 C   0  0  0  0  0  0  0  0  0  0  0  0
   -2.4790    1.2330    0.8910 O   0  0  0  0  0  0  0  0  0  0  0  0
   -1.4850   -0.3430   -0.5470 C   0  0  2  0  0  0  0  0  0  0  0  0
   -2.5070   -0.2780   -1.6250 C   0  0  0  0  0  0  0  0  0  0  0  0
   -1.1450   -1.8090   -0.4800 N   0  0  0  0  0  0  0  0  0  0  0  0
   -2.2610   -2.5120   -0.3800 O   0  0  0  0  0  0  0  0  0  0  0  0
   -0.3900   -1.9270   -1.6010 N   0  0  0  0  0  0  0  0  0  0  0  0
    0.3340   -3.1260   -1.8190 C   0  0  1  0  0  0  0  0  0  0  0  0
    1.2130   -2.9120   -2.9170 F   0  0  0  0  0  0  0  0  0  0  0  0
    1.0560   -3.6010   -0.7640 F   0  0  0  0  0  0  0  0  0  0  0  0
   -0.5880   -4.1820   -2.3590 C   0  0  0  0  0  0  0  0  0  0  0  0
   -0.1630   -5.4770   -2.4550 F   0  0  0  0  0  0  0  0  0  0  0  0
   -1.8920   -3.8050   -2.7850 S   0  0  0  0  0  0  0  0  0  0  0  0
    0.2850   -0.7950   -1.8470 O   0  0  0  0  0  0  0  0  0  0  0  0
   -0.1170    0.1250   -0.8330 C   0  0  2  0  0  0  0  0  0  0  0  0
    0.7770   -0.2910    0.3270 C   0  0  1  0  0  0  0  0  0  0  0  0
    2.1950   -0.3320   -0.1350 C   0  0  0  0  0  0  0  0  0  0  0  0
    0.6330    0.4410    1.4840 O   0  0  0  0  0  0  0  0  0  0  0  0
    1.4340    0.1190    2.6270 C   0  0  0  0  0  0  0  0  0  0  0  0
    2.1700    1.0640    3.1060 C   0  0  0  0  0  0  0  0  0  0  0  0
    3.0730    1.0690    4.2240 C   0  0  0  0  0  0  0  0  0  0  0  0
    3.7170    2.1480    4.5270 O   0  0  0  0  0  0  0  0  0  0  0  0
    1.3560   -1.2400    3.1560 C   0  0  0  0  0  0  0  0  0  0  0  0
    2.1490   -1.4660    4.2450 O   0  0  0  0  0  0  0  0  0  0  0  0
    0.1460    1.4690   -1.3430 C   0  0  1  0  0  0  0  0  0  0  0  0
   -0.0500    2.6260   -0.4130 C   0  0  0  0  0  0  0  0  0  0  0  0
    1.5300    1.4960   -1.7010 O   0  0  0  0  0  0  0  0  0  0  0  0
   -0.5250    1.7370   -2.5980 N   0  0  0  0  0  0  0  0  0  0  0  0
   -0.4070    3.0270   -3.2210 C   0  0  0  0  0  0  0  0  0  0  0  0
   -1.0600    3.2910   -4.4430 N   0  0  0  0  0  0  0  0  0  0  0  0
    0.2660    3.9650   -2.7240 O   0  0  0  0  0  0  0  0  0  0  0  0
  1  2  1  0
  2  3  1  0
  3  4  2  0
  3  5  1  0
  5  6  1  6
  5  7  1  0
  5 17  1  0
  7  8  1  0
  7  9  1  0
  9 10  1  0
  9 16  1  0
 10 11  1  6
 10 12  1  0
 10 13  1  0
 13 14  1  0
 13 15  2  0
 17 16  1  6
 17 18  1  0
 17 27  1  0
 18 19  1  6
 18 20  1  0
 20 21  1  0
 21 22  2  3
 21 25  1  0
 22 23  1  0
 23 24  2  0
 25 26  1  0
 27 28  1  1
 27 29  1  0
 27 30  1  0
 30 31  1  0
 31 32  1  0
 31 33  2  0
M  CHG  1   8  -1
M  END
