
     RDKit          3D

 30 31  0  0  0  0  0  0  0  0999 V2000
   -3.9200    3.3630    0.6450 C   0  0  0  0  0  0  0  0  0  0  0  0
   -2.7910    2.5960    1.0210 O   0  0  0  0  0  0  0  0  0  0  0  0
   -2.5520    1.3270    0.5010 C   0  0  0  0  0  0  0  0  0  0  0  0
   -3.3940    0.9120   -0.3150 O   0  0  0  0  0  0  0  0  0  0  0  0
   -1.3550    0.5420    0.9150 C   0  0  0  0  0  0  0  0  0  0  0  0
   -1.1820   -0.6340    0.3980 C   0  0  0  0  0  0  0  0  0  0  0  0
   -2.1940   -1.0690   -0.5380 N   0  0  0  0  0  0  0  0  0  0  0  0
   -3.4050   -1.7220   -0.8580 C   0  0  0  0  0  0  0  0  0  0  0  0
   -2.6680   -1.1590   -1.8560 C   0  0  0  0  0  0  0  0  0  0  0  0
   -2.5820   -0.9230   -3.2010 O   0  0  0  0  0  0  0  0  0  0  0  0
   -3.3990   -1.4990   -4.1020 O   0  0  0  0  0  0  0  0  0  0  0  0
   -0.1210   -1.6310    0.5760 C   0  0  2  0  0  0  0  0  0  0  0  0
   -0.6050   -2.6340    1.5390 N   0  0  0  0  0  0  0  0  0  0  0  0
    1.2040   -1.1960    0.9780 C   0  0  0  0  0  0  0  0  0  0  0  0
    1.7800   -1.7820    2.0040 N   0  0  0  0  0  0  0  0  0  0  0  0
    1.9930   -0.1830    0.2920 C   0  0  0  0  0  0  0  0  0  0  0  0
    3.2190    0.2170    0.5820 C   0  0  0  0  0  0  0  0  0  0  0  0
    3.6420    1.2490   -0.3510 C   0  0  0  0  0  0  0  0  0  0  0  0
    4.7690    1.9160   -0.3140 C   0  0  0  0  0  0  0  0  0  0  0  0
    5.7210    1.6850    0.6780 O   0  0  0  0  0  0  0  0  0  0  0  0
    2.5430    1.3760   -1.3260 C   0  0  2  0  0  0  0  0  0  0  0  0
    2.1390    2.7420   -1.4540 N   0  0  0  0  0  0  0  0  0  0  0  0
    1.5260    0.5280   -0.8180 O   0  0  0  0  0  0  0  0  0  0  0  0
    0.0010   -2.4560   -0.7200 C   0  0  0  0  0  0  0  0  0  0  0  0
   -0.3610   -3.8890   -0.7700 C   0  0  0  0  0  0  0  0  0  0  0  0
    0.4060   -1.9050   -1.7180 O   0  0  0  0  0  0  0  0  0  0  0  0
   -0.5150    1.2530    1.9150 C   0  0  1  0  0  0  0  0  0  0  0  0
   -1.4060    1.9860    2.7770 F   0  0  0  0  0  0  0  0  0  0  0  0
    0.1460    0.4600    2.7950 F   0  0  0  0  0  0  0  0  0  0  0  0
    0.2350    2.2450    1.3300 F   0  0  0  0  0  0  0  0  0  0  0  0
  1  2  1  0
  2  3  1  0
  3  4  2  0
  3  5  1  0
  5  6  2  3
  5 27  1  0
  6  7  1  0
  6 12  1  0
  7  8  1  0
  7  9  1  0
  8  9  2  0
  9 10  1  0
 10 11  1  0
 12 13  1  1
 12 14  1  0
 12 24  1  0
 14 15  2  0
 14 16  1  0
 16 17  2  0
 16 23  1  0
 17 18  1  0
 18 19  2  3
 18 21  1  0
 19 20  1  0
 21 22  1  1
 21 23  1  0
 24 25  1  0
 24 26  2  0
 27 28  1  1
 27 29  1  0
 27 30  1  0
M  CHG  1  11  -1
M  END
