
     RDKit          3D

 33 33  0  0  0  0  0  0  0  0999 V2000
   -7.5640   -3.1160    0.7690 C   0  0  0  0  0  0  0  0  0  0  0  0
   -7.6490   -1.9910    0.0950 C   0  0  0  0  0  0  0  0  0  0  0  0
   -8.8690   -1.7880   -0.5940 N   0  0  0  0  0  0  0  0  0  0  0  0
   -6.5610   -0.9970    0.0360 C   0  0  0  0  0  0  0  0  0  0  0  0
   -6.7520    0.0900   -0.6650 C   0  0  0  0  0  0  0  0  0  0  0  0
   -7.9330    0.4980   -1.4400 C   0  0  0  0  0  0  0  0  0  0  0  0
   -5.3500   -1.2770    0.7310 N   0  0  0  0  0  0  0  0  0  0  0  0
   -4.1680   -0.5220    0.7510 C   0  0  0  0  0  0  0  0  0  0  0  0
   -4.0750    0.5310    0.1110 O   0  0  0  0  0  0  0  0  0  0  0  0
   -2.9780   -0.9790    1.5550 C   0  0  0  0  0  0  0  0  0  0  0  0
   -1.7340   -0.1850    1.2390 C   0  0  0  0  0  0  0  0  0  0  0  0
   -1.2790   -0.3500   -0.1740 C   0  0  2  0  0  0  0  0  0  0  0  0
   -0.9800   -1.8220   -0.4180 C   0  0  0  0  0  0  0  0  0  0  0  0
   -0.1710    0.5300   -0.6360 C   0  0  2  0  0  0  0  0  0  0  0  0
   -0.4720    1.9410   -0.4840 N   0  0  0  0  0  0  0  0  0  0  0  0
   -1.6350    2.4270   -1.1330 C   0  0  0  0  0  0  0  0  0  0  0  0
   -2.3870    3.3260   -0.1320 C   0  0  0  0  0  0  0  0  0  0  0  0
   -0.0010    0.3580   -2.1460 C   0  0  0  0  0  0  0  0  0  0  0  0
   -0.2130    1.4290   -3.0000 N   0  0  0  0  0  0  0  0  0  0  0  0
    0.3310   -0.7420   -2.6500 O   0  0  0  0  0  0  0  0  0  0  0  0
    1.1780    0.2520   -0.1230 C   0  0  0  0  0  0  0  0  0  0  0  0
    1.4920   -0.6280    0.8630 C   0  0  0  0  0  0  0  0  0  0  0  0
    2.8110   -0.8310    1.3120 C   0  0  0  0  0  0  0  0  0  0  0  0
    3.8450   -0.1410    0.7670 C   0  0  0  0  0  0  0  0  0  0  0  0
    5.1640   -0.3370    1.2100 O   0  0  0  0  0  0  0  0  0  0  0  0
    6.1930    0.4120    0.5980 C   0  0  0  0  0  0  0  0  0  0  0  0
    7.5460    0.0760    1.1940 C   0  0  1  0  0  0  0  0  0  0  0  0
    7.8760   -1.3960    0.9880 C   0  0  0  0  0  0  0  0  0  0  0  0
    7.9500   -1.7470   -0.4120 N   0  0  0  0  0  0  0  0  0  0  0  0
    8.5590    0.8120    0.5890 O   0  0  0  0  0  0  0  0  0  0  0  0
    9.2920    1.5380    1.5300 C   0  0  0  0  0  0  0  0  0  0  0  0
    3.5570    0.7560   -0.2330 C   0  0  0  0  0  0  0  0  0  0  0  0
    2.2750    0.9540   -0.6720 C   0  0  0  0  0  0  0  0  0  0  0  0
  1  2  2  0
  2  3  1  0
  2  4  1  0
  4  5  2  3
  4  7  1  0
  5  6  1  0
  7  8  1  0
  8  9  2  0
  8 10  1  0
 10 11  1  0
 11 12  1  0
 12 13  1  1
 12 14  1  0
 14 15  1  6
 14 18  1  0
 14 21  1  0
 15 16  1  0
 16 17  1  0
 18 19  1  0
 18 20  2  0
 21 22  2  0
 21 33  1  0
 22 23  1  0
 23 24  2  0
 24 25  1  0
 24 32  1  0
 25 26  1  0
 27 26  1  6
 27 28  1  0
 27 30  1  0
 28 29  1  0
 30 31  1  0
 32 33  2  0
M  CHG  2  15   1  29   1
M  END
