
     RDKit          3D

 32 33  0  0  0  0  0  0  0  0999 V2000
   -5.8070    1.0330    3.7300 C   0  0  0  0  0  0  0  0  0  0  0  0
   -5.6380    0.8410    2.3190 O   0  0  0  0  0  0  0  0  0  0  0  0
   -4.6420    0.0460    1.8170 C   0  0  0  0  0  0  0  0  0  0  0  0
   -3.8700   -0.5180    2.6590 O   0  0  0  0  0  0  0  0  0  0  0  0
   -4.3950   -0.2080    0.3740 C   0  0  2  0  0  0  0  0  0  0  0  0
   -5.3420    0.4950   -0.4400 N   0  0  0  0  0  0  0  0  0  0  0  0
   -4.5360   -1.6960    0.1410 C   0  0  0  0  0  0  0  0  0  0  0  0
   -4.4110   -2.0090   -1.1800 O   0  0  0  0  0  0  0  0  0  0  0  0
   -3.8720   -1.0730   -2.0080 C   0  0  0  0  0  0  0  0  0  0  0  0
   -2.7370   -0.2870   -1.4060 C   0  0  0  0  0  0  0  0  0  0  0  0
   -1.6330    0.0050   -2.0890 C   0  0  0  0  0  0  0  0  0  0  0  0
   -1.5650   -0.4870   -3.5030 C   0  0  0  0  0  0  0  0  0  0  0  0
   -0.5540    0.7610   -1.4510 C   0  0  0  0  0  0  0  0  0  0  0  0
    0.7730    0.0760   -1.4410 C   0  0  1  0  0  0  0  0  0  0  0  0
    1.1570   -0.1570   -2.7540 F   0  0  0  0  0  0  0  0  0  0  0  0
    1.7870    1.0480   -0.8700 C   0  0  0  0  0  0  0  0  0  0  0  0
    3.0640    0.4860   -0.8230 O   0  0  0  0  0  0  0  0  0  0  0  0
    3.9780    1.3090   -0.3270 N   0  0  0  0  0  0  0  0  0  0  0  0
    4.3830    0.9180    1.3750 S   0  0  0  0  0  0  0  0  0  0  0  0
    6.1080    0.3740    1.0170 C   0  0  1  0  0  0  0  0  0  0  0  0
    7.0420    1.4250    1.3060 N   0  0  0  0  0  0  0  0  0  0  0  0
    6.4430   -0.8220    1.7250 N   0  0  0  0  0  0  0  0  0  0  0  0
    6.3540   -0.9280    3.1270 C   0  0  0  0  0  0  0  0  0  0  0  0
    5.9660    0.0510    3.8160 O   0  0  0  0  0  0  0  0  0  0  0  0
    5.9580    0.1270   -0.3470 O   0  0  0  0  0  0  0  0  0  0  0  0
    5.2950    1.1840   -0.9150 C   0  0  1  0  0  0  0  0  0  0  0  0
    5.1470    0.8950   -2.2730 O   0  0  0  0  0  0  0  0  0  0  0  0
    0.8190   -1.2000   -0.6400 C   0  0  2  0  0  0  0  0  0  0  0  0
    0.4990   -1.0370    0.8010 C   0  0  0  0  0  0  0  0  0  0  0  0
    2.0670   -1.8010   -0.7810 O   0  0  0  0  0  0  0  0  0  0  0  0
   -0.0980   -2.1200   -1.1680 F   0  0  0  0  0  0  0  0  0  0  0  0
   -2.9630    0.1420    0.0040 C   0  0  0  0  0  0  0  0  0  0  0  0
  1  2  1  0
  2  3  1  0
  3  4  2  0
  3  5  1  0
  5  6  1  6
  5  7  1  0
  5 32  1  0
  7  8  1  0
  8  9  1  0
  9 10  1  0
 10 11  2  3
 10 32  1  0
 11 12  1  0
 11 13  1  0
 13 14  1  0
 14 15  1  6
 14 16  1  0
 14 28  1  0
 16 17  1  0
 17 18  1  0
 18 19  1  0
 18 26  1  0
 19 20  1  0
 20 21  1  6
 20 22  1  0
 20 25  1  0
 22 23  1  0
 23 24  2  0
 25 26  1  0
 26 27  1  6
 28 29  1  1
 28 30  1  0
 28 31  1  0
M  CHG  1  30  -1
M  END
