
     RDKit          3D

 13 14  0  0  0  0  0  0  0  0999 V2000
    3.4680   -0.9920   -0.8440 C   0  0  0  0  0  0  0  0  0  0  0  0
    2.1960   -0.4040   -0.4410 C   0  0  0  0  0  0  0  0  0  0  0  0
    1.0730   -1.0610   -0.3630 C   0  0  0  0  0  0  0  0  0  0  0  0
   -0.2040   -0.5320    0.0280 C   0  0  0  0  0  0  0  0  0  0  0  0
   -0.3840    0.7090    0.3590 C   0  0  0  0  0  0  0  0  0  0  0  0
   -1.7550    1.1340    0.7450 C   0  0  0  0  0  0  0  0  0  0  0  0
   -2.8060    0.6440   -0.2170 C   0  0  0  0  0  0  0  0  0  0  0  0
   -2.5700   -0.7570   -0.6670 C   0  0  0  0  0  0  0  0  0  0  0  0
   -1.4320   -1.4100    0.0750 C   0  0  0  0  0  0  0  0  0  0  0  0
    0.6210    1.7050    0.3860 N   0  0  0  0  0  0  0  0  0  0  0  0
    2.2100    1.2970   -0.0410 S   0  0  1  0  0  0  0  0  0  0  0  0
    3.1940    1.4880    1.0740 O   0  0  0  0  0  0  0  0  0  0  0  0
    2.6620    2.0290   -1.2950 O   0  0  0  0  0  0  0  0  0  0  0  0
  1  2  1  0
  2  3  2  0
  2 11  1  0
  3  4  1  0
  4  5  2  0
  4  9  1  0
  5  6  1  0
  5 10  1  0
  6  7  1  0
  7  8  1  0
  8  9  1  0
 11 10  1  1
 11 12  2  0
 11 13  2  0
M  END
