
     RDKit          3D

 20 22  0  0  0  0  0  0  0  0999 V2000
    3.7610    0.0110   -1.8070 N   0  0  0  0  0  0  0  0  0  0  0  0
    3.9100    0.8730   -0.6610 C   0  0  2  0  0  0  0  0  0  0  0  0
    5.2680    0.9130   -0.3430 O   0  0  0  0  0  0  0  0  0  0  0  0
    5.5990   -0.2200    0.3590 C   0  0  0  0  0  0  0  0  0  0  0  0
    4.3030   -0.8790    0.8180 C   0  0  0  0  0  0  0  0  0  0  0  0
    3.3340    0.2600    0.5950 C   0  0  2  0  0  0  0  0  0  0  0  0
    1.9340   -0.1400    0.4970 C   0  0  0  0  0  0  0  0  0  0  0  0
    1.5680   -1.3310    0.5830 O   0  0  0  0  0  0  0  0  0  0  0  0
    0.9560    0.8470    0.2960 N   0  0  0  0  0  0  0  0  0  0  0  0
   -0.4130    0.6370    0.1790 N   0  0  0  0  0  0  0  0  0  0  0  0
   -1.2060   -0.0290    1.1230 C   0  0  0  0  0  0  0  0  0  0  0  0
   -0.6070   -0.4570    2.1440 O   0  0  0  0  0  0  0  0  0  0  0  0
   -2.6480   -0.2670    1.0270 C   0  0  0  0  0  0  0  0  0  0  0  0
   -3.5360   -1.1060    2.3150 S   0  0  0  0  0  0  0  0  0  0  0  0
   -5.1110   -1.0440    1.5760 C   0  0  0  0  0  0  0  0  0  0  0  0
   -4.8680   -0.3680    0.3500 C   0  0  0  0  0  0  0  0  0  0  0  0
   -3.6000   -0.0010    0.1320 C   0  0  0  0  0  0  0  0  0  0  0  0
   -3.6260    0.6870   -1.2320 C   0  0  0  0  0  0  0  0  0  0  0  0
   -4.7940    0.0830   -1.8840 N   0  0  0  0  0  0  0  0  0  0  0  0
   -5.7410    0.0570   -0.8160 C   0  0  0  0  0  0  0  0  0  0  0  0
  2  1  1  6
  2  3  1  0
  2  6  1  0
  3  4  1  0
  4  5  1  0
  5  6  1  0
  6  7  1  6
  7  8  2  0
  7  9  1  0
  9 10  1  0
 10 11  1  0
 11 12  2  0
 11 13  1  0
 13 14  1  0
 13 17  2  0
 14 15  1  0
 15 16  2  0
 16 17  1  0
 16 20  1  0
 17 18  1  0
 18 19  1  0
 19 20  1  0
M  END
