
     RDKit          3D

 13 14  0  0  0  0  0  0  0  0999 V2000
    3.7230    1.0880    0.1430 C   0  0  0  0  0  0  0  0  0  0  0  0
    3.5380   -0.3290   -0.2750 C   0  0  1  0  0  0  0  0  0  0  0  0
    2.5160   -1.0070    0.6080 C   0  0  0  0  0  0  0  0  0  0  0  0
    1.2110   -0.6900    0.2060 N   0  0  0  0  0  0  0  0  0  0  0  0
    0.9680   -0.3350   -0.9650 C   0  0  0  0  0  0  0  0  0  0  0  0
   -0.2230    0.0030   -1.5150 O   0  0  0  0  0  0  0  0  0  0  0  0
   -1.4620    0.0330   -0.8680 C   0  0  1  0  0  0  0  0  0  0  0  0
   -1.9020   -1.2720   -0.2980 C   0  0  0  0  0  0  0  0  0  0  0  0
   -3.0580   -0.9950    0.6480 C   0  0  0  0  0  0  0  0  0  0  0  0
   -3.7620    0.1440    0.2780 O   0  0  0  0  0  0  0  0  0  0  0  0
   -3.0310    1.3090    0.4730 C   0  0  0  0  0  0  0  0  0  0  0  0
   -1.5440    1.0700    0.2270 C   0  0  0  0  0  0  0  0  0  0  0  0
    2.5350   -0.3480   -1.8280 S   0  0  0  0  0  0  0  0  0  0  0  0
  2  1  1  1
  2  3  1  0
  2 13  1  0
  3  4  1  0
  4  5  2  0
  5  6  1  0
  5 13  1  0
  7  6  1  1
  7  8  1  0
  7 12  1  0
  8  9  1  0
  9 10  1  0
 10 11  1  0
 11 12  1  0
M  END
