
     RDKit          3D

 13 14  0  0  0  0  0  0  0  0999 V2000
    2.4290   -2.2280    1.3760 O   0  0  0  0  0  0  0  0  0  0  0  0
    2.4070   -1.5800    0.0420 S   0  0  2  0  0  0  0  0  0  0  0  0
    3.2360   -2.3090   -0.9700 O   0  0  0  0  0  0  0  0  0  0  0  0
    3.1650    0.0910    0.2950 C   0  0  0  0  0  0  0  0  0  0  0  0
    2.0080    0.8820    0.3150 C   0  0  0  0  0  0  0  0  0  0  0  0
    0.9000    1.7000    0.2830 C   0  0  0  0  0  0  0  0  0  0  0  0
   -0.3120    0.7350    0.0630 C   0  0  0  0  0  0  0  0  0  0  0  0
   -0.3110   -0.5350   -0.2620 C   0  0  0  0  0  0  0  0  0  0  0  0
   -1.5520   -1.3190   -0.4370 C   0  0  0  0  0  0  0  0  0  0  0  0
   -2.7310   -0.5990    0.1450 C   0  0  0  0  0  0  0  0  0  0  0  0
   -2.6810    0.8190   -0.4430 C   0  0  0  0  0  0  0  0  0  0  0  0
   -1.5450    1.4810    0.2890 C   0  0  0  0  0  0  0  0  0  0  0  0
    0.7910   -1.4300   -0.5190 N   0  0  0  0  0  0  0  0  0  0  0  0
  1  2  2  0
  2  3  2  0
  2  4  1  1
  2 13  1  0
  4  5  1  0
  5  6  1  0
  6  7  1  0
  7  8  2  0
  7 12  1  0
  8  9  1  0
  8 13  1  0
  9 10  1  0
 10 11  1  0
 11 12  1  0
M  END
