
     RDKit          3D

 13 13  0  0  0  0  0  0  0  0999 V2000
   -3.5140   -0.2690    0.1550 C   0  0  0  0  0  0  0  0  0  0  0  0
   -2.2280   -0.3310    0.3740 C   0  0  0  0  0  0  0  0  0  0  0  0
   -1.7020   -1.5870    0.9280 C   0  0  0  0  0  0  0  0  0  0  0  0
   -0.4470   -2.0540    0.8590 C   0  0  0  0  0  0  0  0  0  0  0  0
    0.7060   -1.4240    0.2120 C   0  0  0  0  0  0  0  0  0  0  0  0
    0.9120   -0.2300   -0.3040 C   0  0  0  0  0  0  0  0  0  0  0  0
    2.4970    0.0870   -0.9880 S   0  0  2  0  0  0  0  0  0  0  0  0
    3.5930    0.7500    0.2540 C   0  0  0  0  0  0  0  0  0  0  0  0
    2.4210    0.9890   -2.1720 O   0  0  0  0  0  0  0  0  0  0  0  0
    3.0960   -1.2200   -1.4390 O   0  0  0  0  0  0  0  0  0  0  0  0
   -0.0410    0.8470   -0.3610 N   0  0  0  0  0  0  0  0  0  0  0  0
   -1.4040    0.8310    0.0640 C   0  0  0  0  0  0  0  0  0  0  0  0
   -2.0010    1.9990    0.2000 C   0  0  0  0  0  0  0  0  0  0  0  0
  1  2  2  0
  2  3  1  0
  2 12  1  0
  3  4  2  0
  4  5  1  0
  5  6  2  0
  6  7  1  0
  6 11  1  0
  7  8  1  1
  7  9  2  0
  7 10  2  0
 11 12  1  0
 12 13  2  0
M  END
