
     RDKit          3D

 24 27  0  0  0  0  0  0  0  0999 V2000
   -1.4930    3.6730    1.9010 N   0  0  0  0  0  0  0  0  0  0  0  0
   -0.8690    2.4420    1.5000 C   0  0  0  0  0  0  0  0  0  0  0  0
   -1.2860    1.7370    0.5480 N   0  0  0  0  0  0  0  0  0  0  0  0
   -0.8540    0.5150   -0.0240 C   0  0  1  0  0  0  0  0  0  0  0  0
   -2.0620   -0.3870   -0.0040 C   0  0  0  0  0  0  0  0  0  0  0  0
   -2.6440   -0.9050   -1.1270 C   0  0  0  0  0  0  0  0  0  0  0  0
   -3.7790   -1.7250   -0.9970 C   0  0  0  0  0  0  0  0  0  0  0  0
   -4.2770   -1.9850    0.2570 C   0  0  0  0  0  0  0  0  0  0  0  0
   -5.3570   -2.7640    0.4030 F   0  0  0  0  0  0  0  0  0  0  0  0
   -3.6710   -1.4500    1.3740 C   0  0  0  0  0  0  0  0  0  0  0  0
   -2.5580   -0.6430    1.2790 C   0  0  0  0  0  0  0  0  0  0  0  0
   -1.9730   -0.1110    2.3840 F   0  0  0  0  0  0  0  0  0  0  0  0
   -0.4150    0.6750   -1.4620 C   0  0  0  0  0  0  0  0  0  0  0  0
    0.9930    0.8780   -1.5160 O   0  0  0  0  0  0  0  0  0  0  0  0
    1.6120   -0.3770   -1.3830 C   0  0  1  0  0  0  0  0  0  0  0  0
    3.0460   -0.2360   -1.1120 C   0  0  0  0  0  0  0  0  0  0  0  0
    3.9240    0.6590   -1.7240 C   0  0  0  0  0  0  0  0  0  0  0  0
    5.1390    0.4560   -1.2000 N   0  0  0  0  0  0  0  0  0  0  0  0
    5.0760   -0.5220   -0.2850 N   0  0  0  0  0  0  0  0  0  0  0  0
    3.8060   -0.9520   -0.2230 C   0  0  0  0  0  0  0  0  0  0  0  0
    0.8810   -1.1610   -0.3540 C   0  0  0  0  0  0  0  0  0  0  0  0
    0.2840   -0.1830    0.6760 C   0  0  1  0  0  0  0  0  0  0  0  0
    1.3500    0.6840    1.2520 C   0  0  0  0  0  0  0  0  0  0  0  0
    0.5740    1.8690    2.3830 S   0  0  0  0  0  0  0  0  0  0  0  0
  1  2  1  0
  2  3  2  0
  2 24  1  0
  3  4  1  0
  4  5  1  6
  4 13  1  0
  4 22  1  0
  5  6  2  0
  5 11  1  0
  6  7  1  0
  7  8  2  0
  8  9  1  0
  8 10  1  0
 10 11  2  0
 11 12  1  0
 13 14  1  0
 14 15  1  0
 15 16  1  1
 15 21  1  0
 16 17  1  0
 16 20  2  0
 17 18  2  0
 18 19  1  0
 19 20  1  0
 22 21  1  6
 22 23  1  0
 23 24  1  0
M  END
