
     RDKit          3D

 13 13  0  0  0  0  0  0  0  0999 V2000
    4.5040   -0.6240   -0.4040 C   0  0  0  0  0  0  0  0  0  0  0  0
    3.4800    0.0120    0.1510 C   0  0  0  0  0  0  0  0  0  0  0  0
    2.1510   -0.3500   -0.2140 C   0  0  0  0  0  0  0  0  0  0  0  0
    1.0290    0.2170    0.2740 C   0  0  0  0  0  0  0  0  0  0  0  0
   -0.2770   -0.1920   -0.1320 C   0  0  0  0  0  0  0  0  0  0  0  0
   -1.3000    0.4080    0.3890 C   0  0  0  0  0  0  0  0  0  0  0  0
   -2.7280    0.1850    0.1490 C   0  0  0  0  0  0  0  0  0  0  0  0
   -3.5450    0.8920    0.7720 O   0  0  0  0  0  0  0  0  0  0  0  0
   -3.2070   -0.7670   -0.7310 O   0  0  0  0  0  0  0  0  0  0  0  0
   -4.6050   -0.9670   -0.9490 C   0  0  0  0  0  0  0  0  0  0  0  0
   -0.6850    1.6390    1.5260 S   0  0  0  0  0  0  0  0  0  0  0  0
    1.0350    1.2790    1.2420 C   0  0  0  0  0  0  0  0  0  0  0  0
    1.9970    1.8630    1.7990 N   0  0  0  0  0  0  0  0  0  0  0  0
  1  2  2  0
  2  3  1  0
  3  4  2  3
  4  5  1  0
  4 12  1  0
  5  6  2  0
  6  7  1  0
  6 11  1  0
  7  8  2  0
  7  9  1  0
  9 10  1  0
 11 12  1  0
 12 13  2  0
M  END
