
     RDKit          3D

 13 13  0  0  0  0  0  0  0  0999 V2000
   -3.2480   -2.2170   -0.2720 C   0  0  0  0  0  0  0  0  0  0  0  0
   -2.3110   -1.3140   -0.3920 C   0  0  0  0  0  0  0  0  0  0  0  0
   -1.0450   -1.5170    0.2920 C   0  0  0  0  0  0  0  0  0  0  0  0
   -0.1130   -0.5820    0.1500 C   0  0  0  0  0  0  0  0  0  0  0  0
    1.2220   -0.5330    0.7150 C   0  0  0  0  0  0  0  0  0  0  0  0
    1.9240    0.5230    0.4920 C   0  0  0  0  0  0  0  0  0  0  0  0
    3.2390    0.6780    0.9960 O   0  0  0  0  0  0  0  0  0  0  0  0
    4.3540    0.5590    0.1220 C   0  0  0  0  0  0  0  0  0  0  0  0
    1.3300    1.5640   -0.2960 C   0  0  0  0  0  0  0  0  0  0  0  0
    1.7810    2.7040   -0.5940 N   0  0  0  0  0  0  0  0  0  0  0  0
   -0.2500    0.9270   -0.8080 S   0  0  0  0  0  0  0  0  0  0  0  0
   -2.5430   -0.1670   -1.1780 O   0  0  0  0  0  0  0  0  0  0  0  0
   -3.4670    0.7910   -0.6780 C   0  0  0  0  0  0  0  0  0  0  0  0
  1  2  2  0
  2  3  1  0
  2 12  1  0
  3  4  2  3
  4  5  1  0
  4 11  1  0
  5  6  2  0
  6  7  1  0
  6  9  1  0
  7  8  1  0
  9 10  2  0
  9 11  1  0
 12 13  1  0
M  END
