
     RDKit          3D

 13 14  0  0  0  0  0  0  0  0999 V2000
    3.5290   -0.9900   -0.1630 C   0  0  0  0  0  0  0  0  0  0  0  0
    2.4910   -0.2380    1.0710 S   0  0  0  0  0  0  0  0  0  0  0  0
    3.2520    0.5950    2.0750 O   0  0  0  0  0  0  0  0  0  0  0  0
    1.1330    0.6570    0.3660 C   0  0  0  0  0  0  0  0  0  0  0  0
    1.1120    1.9340    0.0130 N   0  0  0  0  0  0  0  0  0  0  0  0
   -0.1010    2.2270   -0.4790 C   0  0  0  0  0  0  0  0  0  0  0  0
   -0.8700    1.0950   -0.4340 C   0  0  0  0  0  0  0  0  0  0  0  0
   -0.0830    0.1080    0.1010 C   0  0  0  0  0  0  0  0  0  0  0  0
   -0.6600   -1.2580    0.2740 C   0  0  0  0  0  0  0  0  0  0  0  0
   -2.1280   -1.1160    0.6070 C   0  0  0  0  0  0  0  0  0  0  0  0
   -2.8960   -0.4190   -0.4790 C   0  0  0  0  0  0  0  0  0  0  0  0
   -2.2490    0.8570   -0.8390 C   0  0  0  0  0  0  0  0  0  0  0  0
   -2.8900    1.7150   -1.4850 O   0  0  0  0  0  0  0  0  0  0  0  0
  2  1  1  6
  2  3  2  0
  2  4  1  0
  4  5  1  0
  4  8  2  0
  5  6  1  0
  6  7  2  0
  7  8  1  0
  7 12  1  0
  8  9  1  0
  9 10  1  0
 10 11  1  0
 11 12  1  0
 12 13  2  0
M  END
