
     RDKit          3D

 20 22  0  0  0  0  0  0  0  0999 V2000
    1.7040   -1.9770   -1.4970 O   0  0  0  0  0  0  0  0  0  0  0  0
    1.6990   -0.9810   -0.7370 C   0  0  0  0  0  0  0  0  0  0  0  0
    2.9550   -0.3120   -0.4490 C   0  0  0  0  0  0  0  0  0  0  0  0
    3.0720    0.7640    0.3510 N   0  0  0  0  0  0  0  0  0  0  0  0
    4.2350    1.3460    0.5890 N   0  0  0  0  0  0  0  0  0  0  0  0
    5.3580    0.8760    0.0310 C   0  0  0  0  0  0  0  0  0  0  0  0
    6.4440    1.4330    0.2630 O   0  0  0  0  0  0  0  0  0  0  0  0
    5.3160   -0.1940   -0.7780 N   0  0  0  0  0  0  0  0  0  0  0  0
    4.1360   -0.7720   -1.0100 C   0  0  0  0  0  0  0  0  0  0  0  0
    4.0700   -1.7730   -1.7620 O   0  0  0  0  0  0  0  0  0  0  0  0
    0.4710   -0.5440   -0.1850 N   0  0  0  0  0  0  0  0  0  0  0  0
    0.5220    0.6140    0.6880 C   0  0  0  0  0  0  0  0  0  0  0  0
   -0.9140    0.8810    1.1240 C   0  0  0  0  0  0  0  0  0  0  0  0
   -1.7080    0.9630   -0.1520 C   0  0  2  0  0  0  0  0  0  0  0  0
   -3.1540    2.0100   -0.0400 S   0  0  0  0  0  0  0  0  0  0  0  0
   -4.5810    0.8970    0.1320 C   0  0  0  0  0  0  0  0  0  0  0  0
   -4.0200   -0.3190    0.8710 C   0  0  0  0  0  0  0  0  0  0  0  0
   -3.1210   -1.1320    0.0170 C   0  0  0  0  0  0  0  0  0  0  0  0
   -1.9800   -0.4340   -0.6160 C   0  0  2  0  0  0  0  0  0  0  0  0
   -0.7250   -1.2560   -0.5120 C   0  0  0  0  0  0  0  0  0  0  0  0
  1  2  2  0
  2  3  1  0
  2 11  1  0
  3  4  2  0
  3  9  1  0
  4  5  1  0
  5  6  1  0
  6  7  2  0
  6  8  1  0
  8  9  1  0
  9 10  2  0
 11 12  1  0
 11 20  1  0
 12 13  1  0
 14 13  1  1
 14 15  1  0
 14 19  1  0
 15 16  1  0
 16 17  1  0
 17 18  1  0
 19 18  1  1
 19 20  1  0
M  END
