
     RDKit          3D

 23 26  0  0  0  0  0  0  0  0999 V2000
   -6.8320    1.9570    2.6450 Br  0  0  0  0  0  0  0  0  0  0  0  0
   -5.3050    1.2050    1.7500 C   0  0  0  0  0  0  0  0  0  0  0  0
   -5.4340    0.1480    0.8770 C   0  0  0  0  0  0  0  0  0  0  0  0
   -4.3130   -0.3670    0.2520 C   0  0  0  0  0  0  0  0  0  0  0  0
   -3.0530    0.1450    0.4720 C   0  0  0  0  0  0  0  0  0  0  0  0
   -1.8710   -0.3780   -0.1710 N   0  0  0  0  0  0  0  0  0  0  0  0
   -2.0560   -1.4550   -1.0980 C   0  0  0  0  0  0  0  0  0  0  0  0
   -0.9060   -1.7820   -1.9770 C   0  0  0  0  0  0  0  0  0  0  0  0
    0.2590   -0.8300   -1.8460 C   0  0  0  0  0  0  0  0  0  0  0  0
    0.4860   -0.7050   -0.3300 C   0  0  1  0  0  0  0  0  0  0  0  0
    1.8420   -0.2300   -0.0300 C   0  0  0  0  0  0  0  0  0  0  0  0
    2.7400   -0.8940    0.7140 N   0  0  0  0  0  0  0  0  0  0  0  0
    3.8830   -0.1950    0.7990 C   0  0  0  0  0  0  0  0  0  0  0  0
    5.0790   -0.4750    1.4540 C   0  0  0  0  0  0  0  0  0  0  0  0
    6.1020    0.4330    1.3730 C   0  0  0  0  0  0  0  0  0  0  0  0
    5.8890    1.5890    0.6390 C   0  0  0  0  0  0  0  0  0  0  0  0
    7.3450    2.8310    0.5520 Br  0  0  0  0  0  0  0  0  0  0  0  0
    4.7250    1.8410    0.0140 N   0  0  0  0  0  0  0  0  0  0  0  0
    3.7070    0.9610    0.0810 C   0  0  0  0  0  0  0  0  0  0  0  0
    2.4660    0.9050   -0.4040 N   0  0  0  0  0  0  0  0  0  0  0  0
   -0.5930    0.2050    0.1540 C   0  0  0  0  0  0  0  0  0  0  0  0
   -2.9640    1.1810    1.3350 N   0  0  0  0  0  0  0  0  0  0  0  0
   -4.0360    1.7040    1.9580 C   0  0  0  0  0  0  0  0  0  0  0  0
  1  2  1  0
  2  3  2  0
  2 23  1  0
  3  4  1  0
  4  5  2  0
  5  6  1  0
  5 22  1  0
  6  7  1  0
  6 21  1  0
  7  8  1  0
  8  9  1  0
  9 10  1  0
 10 11  1  6
 10 21  1  0
 11 12  2  0
 11 20  1  0
 12 13  1  0
 13 14  2  0
 13 19  1  0
 14 15  1  0
 15 16  2  0
 16 17  1  0
 16 18  1  0
 18 19  2  0
 19 20  1  0
 22 23  2  0
M  END
