
     RDKit          3D

 23 25  0  0  0  0  0  0  0  0999 V2000
   -0.5510    3.4900   -3.0430 C   0  0  0  0  0  0  0  0  0  0  0  0
   -0.8340    2.3780   -2.1600 N   0  0  0  0  0  0  0  0  0  0  0  0
   -0.9020    2.6770   -0.8800 C   0  0  0  0  0  0  0  0  0  0  0  0
   -1.1790    1.5560   -0.0690 N   0  0  0  0  0  0  0  0  0  0  0  0
   -0.3910    0.3300   -0.0740 C   0  0  2  0  0  0  0  0  0  0  0  0
   -1.2610   -0.6060    0.7070 C   0  0  0  0  0  0  0  0  0  0  0  0
   -2.3440   -1.2770   -0.0360 C   0  0  0  0  0  0  0  0  0  0  0  0
   -2.5940   -0.9870   -1.3380 N   0  0  0  0  0  0  0  0  0  0  0  0
   -3.5900   -1.7180   -1.7800 N   0  0  0  0  0  0  0  0  0  0  0  0
   -3.9930   -2.4860   -0.7740 C   0  0  0  0  0  0  0  0  0  0  0  0
   -3.2100   -2.2040    0.3090 N   0  0  0  0  0  0  0  0  0  0  0  0
   -3.3490   -2.8670    1.6040 C   0  0  0  0  0  0  0  0  0  0  0  0
   -1.0180   -0.7950    1.9660 C   0  0  0  0  0  0  0  0  0  0  0  0
    0.1130   -0.1470    2.6310 C   0  0  0  0  0  0  0  0  0  0  0  0
    0.3470   -0.4030    4.5190 Br  0  0  0  0  0  0  0  0  0  0  0  0
    0.9550    0.6030    1.9550 C   0  0  0  0  0  0  0  0  0  0  0  0
    2.3830    1.4910    2.8400 Br  0  0  0  0  0  0  0  0  0  0  0  0
    0.9280    0.3990    0.4900 C   0  0  1  0  0  0  0  0  0  0  0  0
    1.5470   -1.0240    0.2800 C   0  0  0  0  0  0  0  0  0  0  0  0
    2.7730   -1.1410    1.1200 C   0  0  0  0  0  0  0  0  0  0  0  0
    3.8380   -0.2900    0.4540 C   0  0  0  0  0  0  0  0  0  0  0  0
    3.2410    0.5950   -0.5700 C   0  0  0  0  0  0  0  0  0  0  0  0
    1.9350    1.2620   -0.2210 C   0  0  0  0  0  0  0  0  0  0  0  0
  1  2  1  0
  2  3  2  3
  3  4  1  0
  5  4  1  1
  5  6  1  0
  5 18  1  0
  6  7  1  0
  6 13  2  0
  7  8  2  0
  7 11  1  0
  8  9  1  0
  9 10  2  0
 10 11  1  0
 11 12  1  0
 13 14  1  0
 14 15  1  0
 14 16  2  0
 16 17  1  0
 16 18  1  0
 18 19  1  1
 18 23  1  0
 19 20  1  0
 20 21  1  0
 21 22  1  0
 22 23  1  0
M  END
