
     RDKit          3D

 23 26  0  0  0  0  0  0  0  0999 V2000
    3.3180    2.5890    0.1790 C   0  0  0  0  0  0  0  0  0  0  0  0
    2.0450    1.7920    0.1150 C   0  0  0  0  0  0  0  0  0  0  0  0
    0.8770    2.3880    0.2530 C   0  0  0  0  0  0  0  0  0  0  0  0
   -0.4110    1.7290    0.2090 C   0  0  1  0  0  0  0  0  0  0  0  0
   -1.4290    2.4870   -1.2630 Br  0  0  0  0  0  0  0  0  0  0  0  0
   -0.3220    0.2670    0.0040 C   0  0  0  0  0  0  0  0  0  0  0  0
   -1.5410   -0.5540   -0.0460 C   0  0  0  0  0  0  0  0  0  0  0  0
   -1.5820   -1.8520   -0.2260 N   0  0  0  0  0  0  0  0  0  0  0  0
   -2.9510   -2.3240   -0.2190 C   0  0  0  0  0  0  0  0  0  0  0  0
   -3.7040   -1.0640   -0.5820 C   0  0  1  0  0  0  0  0  0  0  0  0
   -5.0510   -0.9640    0.0300 C   0  0  0  0  0  0  0  0  0  0  0  0
   -4.9060    0.0590    1.1360 C   0  0  0  0  0  0  0  0  0  0  0  0
   -3.7660    0.9340    0.6280 C   0  0  0  0  0  0  0  0  0  0  0  0
   -2.8590   -0.0700    0.1070 N   0  0  0  0  0  0  0  0  0  0  0  0
    0.8380   -0.2760   -0.1240 N   0  0  0  0  0  0  0  0  0  0  0  0
    2.0550    0.3890   -0.0840 N   0  0  0  0  0  0  0  0  0  0  0  0
    3.2980   -0.2800   -0.2350 C   0  0  0  0  0  0  0  0  0  0  0  0
    3.2910   -1.6670   -0.4330 C   0  0  0  0  0  0  0  0  0  0  0  0
    4.5030   -2.2930   -0.5760 C   0  0  0  0  0  0  0  0  0  0  0  0
    5.6950   -1.6070   -0.5310 C   0  0  0  0  0  0  0  0  0  0  0  0
    7.3830   -2.4630   -0.7280 Br  0  0  0  0  0  0  0  0  0  0  0  0
    5.6490   -0.2230   -0.3310 C   0  0  0  0  0  0  0  0  0  0  0  0
    4.4600    0.3480   -0.1970 N   0  0  0  0  0  0  0  0  0  0  0  0
  1  2  1  0
  2  3  2  0
  2 16  1  0
  3  4  1  0
  4  5  1  6
  4  6  1  0
  6  7  1  0
  6 15  2  0
  7  8  2  0
  7 14  1  0
  8  9  1  0
 10  9  1  1
 10 11  1  0
 10 14  1  0
 11 12  1  0
 12 13  1  0
 13 14  1  0
 15 16  1  0
 16 17  1  0
 17 18  2  0
 17 23  1  0
 18 19  1  0
 19 20  2  0
 20 21  1  0
 20 22  1  0
 22 23  2  0
M  END
