
     RDKit          3D

 23 26  0  0  0  0  0  0  0  0999 V2000
   -2.9610    3.1760    0.1690 C   0  0  0  0  0  0  0  0  0  0  0  0
   -2.5650    2.7070   -1.2220 C   0  0  0  0  0  0  0  0  0  0  0  0
   -1.4570    1.7810   -1.2090 N   0  0  0  0  0  0  0  0  0  0  0  0
   -1.6800    0.4880   -0.6470 C   0  0  0  0  0  0  0  0  0  0  0  0
   -2.8190   -0.0070   -0.2950 N   0  0  0  0  0  0  0  0  0  0  0  0
   -2.7070   -1.2800    0.2030 C   0  0  2  0  0  0  0  0  0  0  0  0
   -3.0930   -1.6930    1.5890 C   0  0  0  0  0  0  0  0  0  0  0  0
   -2.2730   -2.9660    1.7680 C   0  0  0  0  0  0  0  0  0  0  0  0
   -2.7910   -4.4270    2.8570 Br  0  0  0  0  0  0  0  0  0  0  0  0
   -1.1840   -2.8080    1.0210 C   0  0  0  0  0  0  0  0  0  0  0  0
   -1.1990   -1.4990    0.3380 C   0  0  0  0  0  0  0  0  0  0  0  0
   -0.6520   -0.4710   -0.2430 C   0  0  0  0  0  0  0  0  0  0  0  0
    0.7920   -0.3600   -0.3990 C   0  0  0  0  0  0  0  0  0  0  0  0
    1.2480   -0.0090   -1.6660 C   0  0  0  0  0  0  0  0  0  0  0  0
    2.5620    0.1330   -1.8830 N   0  0  0  0  0  0  0  0  0  0  0  0
    3.4910   -0.0470   -0.9320 C   0  0  0  0  0  0  0  0  0  0  0  0
    4.8480    0.1080   -1.1580 C   0  0  0  0  0  0  0  0  0  0  0  0
    5.6990   -0.0950   -0.1000 C   0  0  0  0  0  0  0  0  0  0  0  0
    5.2110   -0.4400    1.1360 C   0  0  0  0  0  0  0  0  0  0  0  0
    6.3560   -0.7160    2.6280 Br  0  0  0  0  0  0  0  0  0  0  0  0
    3.8880   -0.5780    1.3070 N   0  0  0  0  0  0  0  0  0  0  0  0
    2.9910   -0.3970    0.3200 C   0  0  0  0  0  0  0  0  0  0  0  0
    1.6820   -0.5450    0.5590 N   0  0  0  0  0  0  0  0  0  0  0  0
  1  2  1  0
  2  3  1  0
  3  4  1  0
  4  5  2  0
  4 12  1  0
  5  6  1  0
  6  7  1  1
  6 11  1  0
  7  8  1  0
  8  9  1  0
  8 10  2  0
 10 11  1  0
 11 12  2  0
 12 13  1  0
 13 14  2  0
 13 23  1  0
 14 15  1  0
 15 16  2  0
 16 17  1  0
 16 22  1  0
 17 18  2  0
 18 19  1  0
 19 20  1  0
 19 21  2  0
 21 22  1  0
 22 23  2  0
M  END
