
     RDKit          3D

 22 25  0  0  0  0  0  0  0  0999 V2000
   -1.7380   -1.4210   -2.9040 Br  0  0  0  0  0  0  0  0  0  0  0  0
   -1.0330   -0.9980   -1.1870 C   0  0  0  0  0  0  0  0  0  0  0  0
    0.2630   -1.3850   -0.8330 C   0  0  0  0  0  0  0  0  0  0  0  0
    0.7870   -1.0900    0.3990 C   0  0  0  0  0  0  0  0  0  0  0  0
    2.1470   -1.4950    0.7740 C   0  0  1  0  0  0  0  0  0  0  0  0
    2.6230   -3.1770   -0.0490 Br  0  0  0  0  0  0  0  0  0  0  0  0
    3.1690   -0.4770    0.4320 C   0  0  0  0  0  0  0  0  0  0  0  0
    3.5620    0.5320    1.2720 C   0  0  0  0  0  0  0  0  0  0  0  0
    4.5030    1.4440    0.9170 N   0  0  0  0  0  0  0  0  0  0  0  0
    5.0860    1.3800   -0.2940 C   0  0  0  0  0  0  0  0  0  0  0  0
    4.7000    0.3690   -1.1490 C   0  0  0  0  0  0  0  0  0  0  0  0
    3.7590   -0.5350   -0.7820 N   0  0  0  0  0  0  0  0  0  0  0  0
    0.0350   -0.4150    1.2760 N   0  0  0  0  0  0  0  0  0  0  0  0
   -1.2280   -0.0020    1.0140 C   0  0  0  0  0  0  0  0  0  0  0  0
   -2.1590    0.6770    1.7240 N   0  0  0  0  0  0  0  0  0  0  0  0
   -3.2830    0.8320    0.9810 C   0  0  0  0  0  0  0  0  0  0  0  0
   -4.4890    1.4420    1.2510 C   0  0  0  0  0  0  0  0  0  0  0  0
   -5.4250    1.4370    0.3090 N   0  0  0  0  0  0  0  0  0  0  0  0
   -5.2750    0.8730   -0.8990 C   0  0  0  0  0  0  0  0  0  0  0  0
   -4.0680    0.2420   -1.2180 C   0  0  0  0  0  0  0  0  0  0  0  0
   -3.0730    0.2270   -0.2650 C   0  0  0  0  0  0  0  0  0  0  0  0
   -1.8040   -0.3070   -0.2910 C   0  0  0  0  0  0  0  0  0  0  0  0
  1  2  1  0
  2  3  1  0
  2 22  2  0
  3  4  2  0
  4  5  1  0
  4 13  1  0
  5  6  1  6
  5  7  1  0
  7  8  2  0
  7 12  1  0
  8  9  1  0
  9 10  2  0
 10 11  1  0
 11 12  2  0
 13 14  1  0
 14 15  2  0
 14 22  1  0
 15 16  1  0
 16 17  2  0
 16 21  1  0
 17 18  1  0
 18 19  2  0
 19 20  1  0
 20 21  2  0
 21 22  1  0
M  END
