
     RDKit          3D

 23 25  0  0  0  0  0  0  0  0999 V2000
   -2.8220   -2.3460   -0.6280 C   0  0  0  0  0  0  0  0  0  0  0  0
   -3.6750   -1.3050   -0.6480 C   0  0  0  0  0  0  0  0  0  0  0  0
   -5.2300   -1.4730   -1.7580 Br  0  0  0  0  0  0  0  0  0  0  0  0
   -3.3640   -0.1340    0.1260 C   0  0  0  0  0  0  0  0  0  0  0  0
   -2.0610   -0.0770    0.8960 C   0  0  0  0  0  0  0  0  0  0  0  0
   -0.9810   -0.2100   -0.0400 N   0  0  0  0  0  0  0  0  0  0  0  0
   -0.8470    0.8670   -0.9500 C   0  0  0  0  0  0  0  0  0  0  0  0
   -0.0970    2.0630   -0.4860 C   0  0  0  0  0  0  0  0  0  0  0  0
    0.9530    1.6090    0.5650 C   0  0  0  0  0  0  0  0  0  0  0  0
    1.3790    0.2450    0.1620 C   0  0  1  0  0  0  0  0  0  0  0  0
    2.7320   -0.2130    0.4480 C   0  0  0  0  0  0  0  0  0  0  0  0
    3.1710   -1.5490    0.5270 C   0  0  0  0  0  0  0  0  0  0  0  0
    2.7820   -2.8400    0.4580 C   0  0  0  0  0  0  0  0  0  0  0  0
    3.9090   -3.5940    0.6570 N   0  0  0  0  0  0  0  0  0  0  0  0
    4.9380   -2.8000    0.8390 N   0  0  0  0  0  0  0  0  0  0  0  0
    4.5250   -1.5260    0.7660 C   0  0  0  0  0  0  0  0  0  0  0  0
    4.8720   -0.2630    0.8240 N   0  0  0  0  0  0  0  0  0  0  0  0
    3.8170    0.5350    0.6350 N   0  0  0  0  0  0  0  0  0  0  0  0
    4.0220    1.9920    0.6190 C   0  0  0  0  0  0  0  0  0  0  0  0
    0.2570   -0.6860    0.5610 C   0  0  0  0  0  0  0  0  0  0  0  0
   -4.1630    0.9170    0.1740 C   0  0  0  0  0  0  0  0  0  0  0  0
   -5.4470    1.0790   -0.5120 C   0  0  0  0  0  0  0  0  0  0  0  0
   -3.6070    2.4340    1.2560 Br  0  0  0  0  0  0  0  0  0  0  0  0
  1  2  2  0
  2  3  1  0
  2  4  1  0
  4  5  1  0
  4 21  2  3
  5  6  1  0
  6  7  1  0
  6 20  1  0
  7  8  1  0
  8  9  1  0
  9 10  1  0
 10 11  1  1
 10 20  1  0
 11 12  2  0
 11 18  1  0
 12 13  1  0
 12 16  1  0
 13 14  2  0
 14 15  1  0
 15 16  1  0
 16 17  2  0
 17 18  1  0
 18 19  1  0
 21 22  1  0
 21 23  1  0
M  END
