
     RDKit          3D

 23 26  0  0  0  0  0  0  0  0999 V2000
   -6.4590   -1.2700   -0.2430 Br  0  0  0  0  0  0  0  0  0  0  0  0
   -4.8890   -0.2050   -0.0580 C   0  0  0  0  0  0  0  0  0  0  0  0
   -5.0120    1.1610   -0.0480 C   0  0  0  0  0  0  0  0  0  0  0  0
   -3.8870    1.9480    0.0850 C   0  0  0  0  0  0  0  0  0  0  0  0
   -2.6480    1.3410    0.2060 C   0  0  0  0  0  0  0  0  0  0  0  0
   -2.4960   -0.0300    0.1980 C   0  0  0  0  0  0  0  0  0  0  0  0
   -1.2190   -0.7240    0.3220 C   0  0  2  0  0  0  0  0  0  0  0  0
   -0.0180    0.1810    0.2030 C   0  0  0  0  0  0  0  0  0  0  0  0
    1.1880   -0.6780    0.0560 C   0  0  2  0  0  0  0  0  0  0  0  0
    2.4630    0.0260    0.2400 C   0  0  0  0  0  0  0  0  0  0  0  0
    3.5300   -0.6850    0.7450 C   0  0  0  0  0  0  0  0  0  0  0  0
    4.7760   -0.1240    0.9590 C   0  0  0  0  0  0  0  0  0  0  0  0
    4.9580    1.2070    0.6530 C   0  0  0  0  0  0  0  0  0  0  0  0
    3.8980    1.9360    0.1450 C   0  0  0  0  0  0  0  0  0  0  0  0
    4.1720    3.7760   -0.2710 Br  0  0  0  0  0  0  0  0  0  0  0  0
    2.6690    1.3520   -0.0570 C   0  0  0  0  0  0  0  0  0  0  0  0
    1.1240   -1.2680   -1.2910 N   0  0  0  0  0  0  0  0  0  0  0  0
    1.9440   -1.4030   -2.2890 N   0  0  0  0  0  0  0  0  0  0  0  0
    1.2990   -2.0350   -3.2530 N   0  0  0  0  0  0  0  0  0  0  0  0
    0.0550   -2.3030   -2.8570 N   0  0  0  0  0  0  0  0  0  0  0  0
   -0.0550   -1.8150   -1.6110 C   0  0  0  0  0  0  0  0  0  0  0  0
   -1.1150   -1.7860   -0.6600 N   0  0  0  0  0  0  0  0  0  0  0  0
   -3.6400   -0.7890    0.0640 C   0  0  0  0  0  0  0  0  0  0  0  0
  1  2  1  0
  2  3  2  0
  2 23  1  0
  3  4  1  0
  4  5  2  0
  5  6  1  0
  7  6  1  6
  6 23  2  0
  7  8  1  0
  7 22  1  0
  8  9  1  0
  9 10  1  6
  9 17  1  0
 10 11  2  0
 10 16  1  0
 11 12  1  0
 12 13  2  0
 13 14  1  0
 14 15  1  0
 14 16  2  0
 17 18  1  0
 17 21  1  0
 18 19  2  0
 19 20  1  0
 20 21  2  0
 21 22  1  0
M  END
