
     RDKit          3D

 23 25  0  0  0  0  0  0  0  0999 V2000
    4.1900    3.4860    1.7040 Br  0  0  0  0  0  0  0  0  0  0  0  0
    2.8980    4.2050    0.5040 C   0  0  0  0  0  0  0  0  0  0  0  0
    2.1140    3.4690   -0.1890 N   0  0  0  0  0  0  0  0  0  0  0  0
    2.1750    2.0220   -0.0880 C   0  0  0  0  0  0  0  0  0  0  0  0
    3.8990    1.2870   -0.2580 Br  0  0  0  0  0  0  0  0  0  0  0  0
    1.0880    1.3490    0.0880 C   0  0  0  0  0  0  0  0  0  0  0  0
   -0.0820    2.2230    0.1540 N   0  0  0  0  0  0  0  0  0  0  0  0
   -1.3210    1.9410   -0.3950 N   0  0  0  0  0  0  0  0  0  0  0  0
   -1.9010    0.8050   -0.5780 C   0  0  0  0  0  0  0  0  0  0  0  0
   -3.1350    1.3340   -1.1870 C   0  0  0  0  0  0  0  0  0  0  0  0
   -4.3310    1.2100   -0.2800 C   0  0  0  0  0  0  0  0  0  0  0  0
   -4.5080   -0.1560    0.3150 C   0  0  0  0  0  0  0  0  0  0  0  0
   -4.2140   -1.2310   -0.5560 N   0  0  0  0  0  0  0  0  0  0  0  0
   -3.1500   -1.8590   -0.8750 C   0  0  0  0  0  0  0  0  0  0  0  0
   -1.7090   -1.7910   -0.5120 C   0  0  0  0  0  0  0  0  0  0  0  0
   -1.2920   -0.4460   -0.2010 N   0  0  0  0  0  0  0  0  0  0  0  0
   -0.1610   -0.7700    0.5520 C   0  0  0  0  0  0  0  0  0  0  0  0
    1.1630   -0.1020    0.2060 C   0  0  1  0  0  0  0  0  0  0  0  0
    1.5510   -0.6870   -1.1220 C   0  0  0  0  0  0  0  0  0  0  0  0
    1.9950   -2.1310   -1.0420 C   0  0  0  0  0  0  0  0  0  0  0  0
    3.2430   -2.1670   -0.2350 C   0  0  0  0  0  0  0  0  0  0  0  0
    3.0440   -1.5810    1.1100 C   0  0  0  0  0  0  0  0  0  0  0  0
    2.1560   -0.4300    1.2820 C   0  0  0  0  0  0  0  0  0  0  0  0
  1  2  1  0
  2  3  2  3
  3  4  1  0
  4  5  1  0
  4  6  2  3
  6  7  1  0
  6 18  1  0
  7  8  1  0
  8  9  2  0
  9 10  1  0
  9 16  1  0
 10 11  1  0
 11 12  1  0
 12 13  1  0
 13 14  2  0
 14 15  1  0
 15 16  1  0
 16 17  1  0
 18 17  1  1
 18 19  1  0
 18 23  1  0
 19 20  1  0
 20 21  1  0
 21 22  1  0
 22 23  1  0
M  END
