
     RDKit          3D

 25 27  0  0  0  0  0  0  0  0999 V2000
    5.9670    1.6880   -0.4240 C   0  0  0  0  0  0  0  0  0  0  0  0
    5.0530    1.3230    0.7480 C   0  0  0  0  0  0  0  0  0  0  0  0
    3.6540    1.7120    0.4250 C   0  0  0  0  0  0  0  0  0  0  0  0
    3.5170    3.0440    0.1160 F   0  0  0  0  0  0  0  0  0  0  0  0
    2.6080    0.9530    0.3960 C   0  0  0  0  0  0  0  0  0  0  0  0
    1.3390    1.5980    0.0420 C   0  0  0  0  0  0  0  0  0  0  0  0
    1.1900    3.0530    0.2300 C   0  0  0  0  0  0  0  0  0  0  0  0
    0.2400    0.9770   -0.4310 C   0  0  0  0  0  0  0  0  0  0  0  0
    0.0890   -0.4680   -0.6860 C   0  0  0  0  0  0  0  0  0  0  0  0
   -1.0820   -1.0680   -0.6790 C   0  0  0  0  0  0  0  0  0  0  0  0
   -2.3750   -0.4800   -0.4360 C   0  0  0  0  0  0  0  0  0  0  0  0
   -2.5430    0.7350   -0.1840 O   0  0  0  0  0  0  0  0  0  0  0  0
   -3.5830   -1.2730   -0.4690 N   0  0  0  0  0  0  0  0  0  0  0  0
   -4.8680   -0.6920   -0.2300 C   0  0  0  0  0  0  0  0  0  0  0  0
   -5.2540    0.3900   -1.2030 C   0  0  0  0  0  0  0  0  0  0  0  0
   -6.6280    0.8950   -0.8170 C   0  0  0  0  0  0  0  0  0  0  0  0
   -6.6050    1.4050    0.4680 O   0  0  0  0  0  0  0  0  0  0  0  0
   -0.9070   -2.5340   -0.9690 C   0  0  0  0  0  0  0  0  0  0  0  0
    0.5330   -2.7030   -1.3620 C   0  0  0  0  0  0  0  0  0  0  0  0
    1.1750   -1.4420   -0.9740 C   0  0  2  0  0  0  0  0  0  0  0  0
    2.1050   -1.5270    0.1240 N   0  0  0  0  0  0  0  0  0  0  0  0
    2.5290   -2.6300    0.7660 C   0  0  0  0  0  0  0  0  0  0  0  0
    3.4190   -2.2740    1.7570 C   0  0  0  0  0  0  0  0  0  0  0  0
    3.5230   -0.9440    1.7010 N   0  0  0  0  0  0  0  0  0  0  0  0
    2.7300   -0.4920    0.7150 C   0  0  0  0  0  0  0  0  0  0  0  0
  1  2  1  0
  2  3  1  0
  3  4  1  0
  3  5  2  3
  5  6  1  0
  5 25  1  0
  6  7  1  0
  6  8  2  0
  8  9  1  0
  9 10  2  0
  9 20  1  0
 10 11  1  0
 10 18  1  0
 11 12  2  0
 11 13  1  0
 13 14  1  0
 14 15  1  0
 15 16  1  0
 16 17  1  0
 18 19  1  0
 20 19  1  1
 20 21  1  0
 21 22  1  0
 21 25  1  0
 22 23  2  0
 23 24  1  0
 24 25  2  0
M  END
