
     RDKit          3D

 36 40  0  0  0  0  0  0  0  0999 V2000
   -4.3530   -0.6930    2.9940 C   0  0  0  0  0  0  0  0  0  0  0  0
   -4.8370   -0.7160    1.5610 C   0  0  0  0  0  0  0  0  0  0  0  0
   -4.3440   -1.8930    0.8040 C   0  0  0  0  0  0  0  0  0  0  0  0
   -4.9930   -3.0990    0.9930 C   0  0  0  0  0  0  0  0  0  0  0  0
   -6.1410   -3.2220    1.9260 C   0  0  0  0  0  0  0  0  0  0  0  0
   -4.6100   -4.2480    0.3260 C   0  0  0  0  0  0  0  0  0  0  0  0
   -3.5670   -4.2120   -0.5460 C   0  0  0  0  0  0  0  0  0  0  0  0
   -2.9210   -3.0410   -0.7410 C   0  0  0  0  0  0  0  0  0  0  0  0
   -3.2820   -1.8380   -0.0750 C   0  0  0  0  0  0  0  0  0  0  0  0
   -2.5650   -0.7760   -0.3610 O   0  0  0  0  0  0  0  0  0  0  0  0
   -2.2410    0.4960   -0.2180 C   0  0  2  0  0  0  0  0  0  0  0  0
   -2.4490    1.2240   -1.5770 C   0  0  0  0  0  0  0  0  0  0  0  0
   -2.3340    2.6240   -1.3780 N   0  0  0  0  0  0  0  0  0  0  0  0
   -3.5160    3.3800   -1.4570 C   0  0  1  0  0  0  0  0  0  0  0  0
   -4.5550    3.0390   -0.4140 C   0  0  0  0  0  0  0  0  0  0  0  0
   -3.1960    4.8530   -1.4160 C   0  0  0  0  0  0  0  0  0  0  0  0
   -1.2200    3.1170   -0.7110 C   0  0  0  0  0  0  0  0  0  0  0  0
   -0.3270    2.0160   -0.2450 C   0  0  0  0  0  0  0  0  0  0  0  0
    1.0400    2.2640   -0.0490 C   0  0  0  0  0  0  0  0  0  0  0  0
    1.8790    1.2600    0.3830 C   0  0  0  0  0  0  0  0  0  0  0  0
    1.4310   -0.0180    0.6410 C   0  0  0  0  0  0  0  0  0  0  0  0
    2.2220   -1.0620    1.0730 O   0  0  0  0  0  0  0  0  0  0  0  0
    3.6030   -0.9560    1.1820 C   0  0  0  0  0  0  0  0  0  0  0  0
    4.2530   -1.1200    2.3830 C   0  0  0  0  0  0  0  0  0  0  0  0
    5.6210   -1.0160    2.4940 C   0  0  0  0  0  0  0  0  0  0  0  0
    6.3280   -0.7360    1.3300 C   0  0  0  0  0  0  0  0  0  0  0  0
    5.6930   -0.5710    0.1260 C   0  0  0  0  0  0  0  0  0  0  0  0
    4.3230   -0.6790    0.0350 C   0  0  0  0  0  0  0  0  0  0  0  0
    3.6630   -0.5110   -1.2000 O   0  0  0  0  0  0  0  0  0  0  0  0
    3.4500   -1.6610   -2.0270 C   0  0  0  0  0  0  0  0  0  0  0  0
    6.4660   -0.2730   -1.1110 C   0  0  0  0  0  0  0  0  0  0  0  0
    7.7150    0.5000   -0.8380 C   0  0  0  0  0  0  0  0  0  0  0  0
    8.5210   -0.0130    0.3110 C   0  0  0  0  0  0  0  0  0  0  0  0
    7.7440   -0.6120    1.3540 N   0  0  0  0  0  0  0  0  0  0  0  0
    0.0850   -0.2480    0.4450 C   0  0  0  0  0  0  0  0  0  0  0  0
   -0.7520    0.7360    0.0180 C   0  0  0  0  0  0  0  0  0  0  0  0
  1  2  1  0
  2  3  1  0
  3  4  2  0
  3  9  1  0
  4  5  1  0
  4  6  1  0
  6  7  2  0
  7  8  1  0
  8  9  2  0
  9 10  1  0
 11 10  1  6
 11 12  1  0
 11 36  1  0
 12 13  1  0
 13 14  1  0
 13 17  1  0
 14 15  1  1
 14 16  1  0
 17 18  1  0
 18 19  2  0
 18 36  1  0
 19 20  1  0
 20 21  2  0
 21 22  1  0
 21 35  1  0
 22 23  1  0
 23 24  2  0
 23 28  1  0
 24 25  1  0
 25 26  2  0
 26 27  1  0
 26 34  1  0
 27 28  2  0
 27 31  1  0
 28 29  1  0
 29 30  1  0
 31 32  1  0
 32 33  1  0
 33 34  1  0
 35 36  2  0
M  END
