
     RDKit          3D

 36 40  0  0  0  0  0  0  0  0999 V2000
   10.9190    0.1130    0.4920 N   0  0  0  0  0  0  0  0  0  0  0  0
    9.6350   -0.4550    0.1330 C   0  0  0  0  0  0  0  0  0  0  0  0
    9.4200   -0.7640   -1.1740 N   0  0  0  0  0  0  0  0  0  0  0  0
    8.1320   -0.8180   -1.5940 C   0  0  0  0  0  0  0  0  0  0  0  0
    7.0920   -0.5390   -0.8190 N   0  0  0  0  0  0  0  0  0  0  0  0
    7.2810   -0.2210    0.4770 C   0  0  0  0  0  0  0  0  0  0  0  0
    8.5960   -0.2280    0.9590 C   0  0  0  0  0  0  0  0  0  0  0  0
    8.4580    0.1440    2.2210 N   0  0  0  0  0  0  0  0  0  0  0  0
    7.2570    0.4330    2.5020 C   0  0  0  0  0  0  0  0  0  0  0  0
    6.4310    0.1670    1.4310 N   0  0  0  0  0  0  0  0  0  0  0  0
    5.0300    0.2920    1.4390 C   0  0  1  0  0  0  0  0  0  0  0  0
    4.4030    1.5780    1.0210 C   0  0  0  0  0  0  0  0  0  0  0  0
    3.0060    1.2060    0.6430 C   0  0  0  0  0  0  0  0  0  0  0  0
    3.0360   -0.3770    0.4780 C   0  0  1  0  0  0  0  0  0  0  0  0
    1.9720   -0.5560   -0.5590 C   0  0  0  0  0  0  0  0  0  0  0  0
    1.2700   -1.7630   -0.0860 N   0  0  0  0  0  0  0  0  0  0  0  0
   -0.1880   -0.9790    0.4850 S   0  0  2  0  0  0  0  0  0  0  0  0
    0.3110   -0.4110    1.9180 O   0  0  0  0  0  0  0  0  0  0  0  0
   -1.1310   -2.0650    0.9620 O   0  0  0  0  0  0  0  0  0  0  0  0
   -0.9790    0.2710   -0.2200 N   0  0  0  0  0  0  0  0  0  0  0  0
   -1.6100    0.0040   -1.4400 C   0  0  0  0  0  0  0  0  0  0  0  0
   -1.3470   -1.0510   -2.0940 O   0  0  0  0  0  0  0  0  0  0  0  0
   -2.6620    0.9180   -1.9770 C   0  0  0  0  0  0  0  0  0  0  0  0
   -3.6790    1.0570   -0.8040 C   0  0  0  0  0  0  0  0  0  0  0  0
   -3.9240   -0.2590   -0.1510 C   0  0  0  0  0  0  0  0  0  0  0  0
   -5.3310   -0.7830   -0.2350 C   0  0  0  0  0  0  0  0  0  0  0  0
   -6.2650    0.0960    0.5220 C   0  0  2  0  0  0  0  0  0  0  0  0
   -7.1000   -0.8100    1.8810 S   0  0  0  0  0  0  0  0  0  0  0  0
   -8.8120   -0.2970    1.4430 C   0  0  0  0  0  0  0  0  0  0  0  0
   -8.6430   -0.0160    0.0120 C   0  0  2  0  0  0  0  0  0  0  0  0
   -8.8420   -1.0480   -0.9490 N   0  0  0  0  0  0  0  0  0  0  0  0
   -7.9250   -0.8600   -1.9660 C   0  0  0  0  0  0  0  0  0  0  0  0
   -7.7440   -1.5940   -2.9660 O   0  0  0  0  0  0  0  0  0  0  0  0
   -7.0940    0.2960   -1.6580 N   0  0  0  0  0  0  0  0  0  0  0  0
   -7.3860    0.6930   -0.2730 C   0  0  2  0  0  0  0  0  0  0  0  0
    4.4050   -0.6880    0.4030 C   0  0  0  0  0  0  0  0  0  0  0  0
  1  2  1  0
  2  3  2  0
  2  7  1  0
  3  4  1  0
  4  5  2  0
  5  6  1  0
  6  7  2  0
  6 10  1  0
  7  8  1  0
  8  9  2  0
  9 10  1  0
 11 10  1  6
 11 12  1  0
 11 36  1  0
 12 13  1  0
 13 14  1  0
 14 15  1  6
 14 36  1  0
 15 16  1  0
 17 16  1  6
 17 18  2  0
 17 19  2  0
 17 20  1  0
 20 21  1  0
 21 22  2  0
 21 23  1  0
 23 24  1  0
 24 25  1  0
 25 26  1  0
 27 26  1  6
 27 28  1  0
 27 35  1  0
 28 29  1  0
 30 29  1  1
 30 31  1  0
 30 35  1  0
 31 32  1  0
 32 33  2  0
 32 34  1  0
 35 34  1  6
M  END
