
     RDKit          3D

 36 40  0  0  0  0  0  0  0  0999 V2000
   11.2940   -0.7200   -1.5250 C   0  0  0  0  0  0  0  0  0  0  0  0
   10.8300    0.6440   -1.4210 C   0  0  0  0  0  0  0  0  0  0  0  0
    9.6890    1.1230   -1.0770 C   0  0  0  0  0  0  0  0  0  0  0  0
    8.4980    0.4380   -0.6810 C   0  0  0  0  0  0  0  0  0  0  0  0
    7.3750    1.2260   -0.3560 C   0  0  0  0  0  0  0  0  0  0  0  0
    6.1810    0.6970    0.0370 C   0  0  0  0  0  0  0  0  0  0  0  0
    6.0020   -0.6520    0.1390 C   0  0  0  0  0  0  0  0  0  0  0  0
    4.8460   -1.2840    0.5180 O   0  0  0  0  0  0  0  0  0  0  0  0
    3.6420   -0.7300    0.8400 C   0  0  0  0  0  0  0  0  0  0  0  0
    2.9170    0.0090   -0.2560 C   0  0  0  0  0  0  0  0  0  0  0  0
    1.6490    0.5460    0.2760 N   0  0  0  0  0  0  0  0  0  0  0  0
    1.4720    1.7490    0.8460 C   0  0  0  0  0  0  0  0  0  0  0  0
    0.1310    1.8890    1.2200 C   0  0  0  0  0  0  0  0  0  0  0  0
   -0.5060    0.7260    0.8580 C   0  0  0  0  0  0  0  0  0  0  0  0
   -1.9090    0.3820    1.0340 C   0  0  0  0  0  0  0  0  0  0  0  0
   -2.7570    1.1360    1.5660 O   0  0  0  0  0  0  0  0  0  0  0  0
   -2.4200   -0.8650    0.6040 O   0  0  0  0  0  0  0  0  0  0  0  0
   -3.7790   -1.1940    0.7740 C   0  0  0  0  0  0  0  0  0  0  0  0
   -4.7710   -0.5240   -0.0490 C   0  0  0  0  0  0  0  0  0  0  0  0
   -4.6630    0.3880   -1.0270 C   0  0  0  0  0  0  0  0  0  0  0  0
   -3.4840    1.0130   -1.5790 C   0  0  0  0  0  0  0  0  0  0  0  0
   -3.6340    2.1210   -2.3050 C   0  0  0  0  0  0  0  0  0  0  0  0
   -4.9620    2.6240   -2.5680 C   0  0  0  0  0  0  0  0  0  0  0  0
   -6.0840    2.0050   -2.1810 C   0  0  0  0  0  0  0  0  0  0  0  0
   -5.9770    0.7480   -1.5110 C   0  0  2  0  0  0  0  0  0  0  0  0
   -6.9140    0.2920   -0.5140 C   0  0  0  0  0  0  0  0  0  0  0  0
   -8.2860    0.5260   -0.3380 C   0  0  0  0  0  0  0  0  0  0  0  0
   -8.9340   -0.1580    0.6510 C   0  0  0  0  0  0  0  0  0  0  0  0
   -8.3180   -1.0500    1.4690 C   0  0  0  0  0  0  0  0  0  0  0  0
   -6.9370   -1.2710    1.2770 C   0  0  0  0  0  0  0  0  0  0  0  0
   -6.3710   -2.2800    2.0920 N   0  0  0  0  0  0  0  0  0  0  0  0
   -7.0940   -2.8260    3.2440 C   0  0  0  0  0  0  0  0  0  0  0  0
   -6.2220   -0.6020    0.2910 C   0  0  0  0  0  0  0  0  0  0  0  0
    0.4660   -0.0620    0.2850 C   0  0  0  0  0  0  0  0  0  0  0  0
    7.1010   -1.4520   -0.1770 C   0  0  0  0  0  0  0  0  0  0  0  0
    8.2980   -0.8980   -0.5720 C   0  0  0  0  0  0  0  0  0  0  0  0
  1  2  1  0
  2  3  2  3
  3  4  1  0
  4  5  2  0
  4 36  1  0
  5  6  1  0
  6  7  2  0
  7  8  1  0
  7 35  1  0
  8  9  1  0
  9 10  1  0
 10 11  1  0
 11 12  1  0
 11 34  1  0
 12 13  2  0
 13 14  1  0
 14 15  1  0
 14 34  2  0
 15 16  2  0
 15 17  1  0
 17 18  1  0
 18 19  1  0
 19 20  2  0
 19 33  1  0
 20 21  1  0
 20 25  1  0
 21 22  2  0
 22 23  1  0
 23 24  2  0
 25 24  1  1
 25 26  1  0
 26 27  2  0
 26 33  1  0
 27 28  1  0
 28 29  2  0
 29 30  1  0
 30 31  1  0
 30 33  2  0
 31 32  1  0
 35 36  2  0
M  END
