
     RDKit          3D

 36 40  0  0  0  0  0  0  0  0999 V2000
  -10.3810   -1.0740    2.0460 C   0  0  0  0  0  0  0  0  0  0  0  0
   -9.6590   -0.4370    1.1560 C   0  0  0  0  0  0  0  0  0  0  0  0
   -8.2000   -0.7470    0.9590 C   0  0  0  0  0  0  0  0  0  0  0  0
   -8.0110   -1.2380   -0.4500 C   0  0  0  0  0  0  0  0  0  0  0  0
   -6.5700   -1.5660   -0.7450 C   0  0  0  0  0  0  0  0  0  0  0  0
   -5.7180   -0.4310   -0.5920 N   0  0  0  0  0  0  0  0  0  0  0  0
   -6.0190    0.5470   -1.6170 C   0  0  0  0  0  0  0  0  0  0  0  0
   -5.2800    1.7480   -1.2960 O   0  0  0  0  0  0  0  0  0  0  0  0
   -3.9100    1.5620   -1.2360 C   0  0  0  0  0  0  0  0  0  0  0  0
   -3.0190    2.5910   -1.4910 C   0  0  0  0  0  0  0  0  0  0  0  0
   -1.6650    2.4210   -1.4390 C   0  0  0  0  0  0  0  0  0  0  0  0
   -1.1550    1.1610   -1.1140 C   0  0  0  0  0  0  0  0  0  0  0  0
    0.3170    0.9500   -1.0590 C   0  0  2  0  0  0  0  0  0  0  0  0
    1.0640    2.2160   -1.2340 C   0  0  0  0  0  0  0  0  0  0  0  0
    0.5780    0.2240   -2.2900 O   0  0  0  0  0  0  0  0  0  0  0  0
    0.6720    0.0720    0.0840 C   0  0  0  0  0  0  0  0  0  0  0  0
    2.1420   -0.1360    0.2320 C   0  0  0  0  0  0  0  0  0  0  0  0
    2.8520   -1.1340   -0.1150 N   0  0  0  0  0  0  0  0  0  0  0  0
    4.2350   -0.9660    0.1780 C   0  0  0  0  0  0  0  0  0  0  0  0
    5.1780   -1.8310   -0.0700 C   0  0  0  0  0  0  0  0  0  0  0  0
    6.5880   -1.6870    0.2140 C   0  0  0  0  0  0  0  0  0  0  0  0
    7.5040   -1.0930   -0.6720 C   0  0  0  0  0  0  0  0  0  0  0  0
    8.7390   -1.1360   -0.0730 C   0  0  0  0  0  0  0  0  0  0  0  0
   10.0180   -0.6280   -0.6270 C   0  0  0  0  0  0  0  0  0  0  0  0
    8.5800   -1.7150    1.0910 O   0  0  0  0  0  0  0  0  0  0  0  0
    7.3410   -2.0520    1.2990 C   0  0  0  0  0  0  0  0  0  0  0  0
    6.8240   -2.7260    2.5160 C   0  0  0  0  0  0  0  0  0  0  0  0
    4.3550    0.3430    0.7990 C   0  0  0  0  0  0  0  0  0  0  0  0
    5.4340    1.0300    1.3100 C   0  0  0  0  0  0  0  0  0  0  0  0
    5.2310    2.2890    1.8850 C   0  0  0  0  0  0  0  0  0  0  0  0
    3.9530    2.7810    1.9140 C   0  0  0  0  0  0  0  0  0  0  0  0
    2.8770    2.0880    1.4010 C   0  0  0  0  0  0  0  0  0  0  0  0
    3.0550    0.8510    0.8290 C   0  0  0  0  0  0  0  0  0  0  0  0
   -2.0450    0.1430   -0.8610 C   0  0  0  0  0  0  0  0  0  0  0  0
   -3.4140    0.3310   -0.9180 C   0  0  0  0  0  0  0  0  0  0  0  0
   -4.3070   -0.7980   -0.6310 C   0  0  0  0  0  0  0  0  0  0  0  0
  1  2  2  0
  2  3  1  0
  3  4  1  0
  4  5  1  0
  5  6  1  0
  6  7  1  0
  6 36  1  0
  7  8  1  0
  8  9  1  0
  9 10  2  0
  9 35  1  0
 10 11  1  0
 11 12  2  0
 12 13  1  0
 12 34  1  0
 13 14  1  6
 13 15  1  0
 13 16  1  0
 16 17  1  0
 17 18  2  0
 17 33  1  0
 18 19  1  0
 19 20  2  3
 19 28  1  0
 20 21  1  0
 21 22  1  0
 21 26  2  0
 22 23  2  0
 23 24  1  0
 23 25  1  0
 25 26  1  0
 26 27  1  0
 28 29  2  0
 28 33  1  0
 29 30  1  0
 30 31  2  0
 31 32  1  0
 32 33  2  0
 34 35  2  0
 35 36  1  0
M  END
