
     RDKit          3D

 36 40  0  0  0  0  0  0  0  0999 V2000
  -10.7280    0.7900   -0.2890 C   0  0  0  0  0  0  0  0  0  0  0  0
  -10.5580   -0.6230   -0.7170 C   0  0  0  0  0  0  0  0  0  0  0  0
   -9.6000   -1.4150   -0.3300 C   0  0  0  0  0  0  0  0  0  0  0  0
   -8.5550   -0.9370    0.6140 C   0  0  0  0  0  0  0  0  0  0  0  0
   -7.2630   -1.0280    0.0150 O   0  0  0  0  0  0  0  0  0  0  0  0
   -6.1210   -0.6350    0.6910 C   0  0  0  0  0  0  0  0  0  0  0  0
   -6.1570   -0.1400    1.9770 C   0  0  0  0  0  0  0  0  0  0  0  0
   -4.9940    0.2570    2.6490 C   0  0  0  0  0  0  0  0  0  0  0  0
   -3.7880    0.1500    2.0110 C   0  0  0  0  0  0  0  0  0  0  0  0
   -3.7970   -0.3560    0.7110 C   0  0  0  0  0  0  0  0  0  0  0  0
   -4.9090   -0.7490    0.0360 C   0  0  0  0  0  0  0  0  0  0  0  0
   -2.5030   -0.4860   -0.0660 C   0  0  0  0  0  0  0  0  0  0  0  0
   -1.8110    0.8700   -0.0890 C   0  0  2  0  0  0  0  0  0  0  0  0
   -1.1290    1.0010   -1.3980 C   0  0  0  0  0  0  0  0  0  0  0  0
   -0.0850    0.0040   -1.7070 C   0  0  0  0  0  0  0  0  0  0  0  0
   -0.2590   -1.2030   -2.3200 N   0  0  0  0  0  0  0  0  0  0  0  0
    0.8930   -1.8730   -2.4020 C   0  0  0  0  0  0  0  0  0  0  0  0
    1.8920   -1.1090   -1.8330 C   0  0  0  0  0  0  0  0  0  0  0  0
    3.2610   -1.3060   -1.6720 C   0  0  0  0  0  0  0  0  0  0  0  0
    4.0590   -0.3490   -1.0820 C   0  0  0  0  0  0  0  0  0  0  0  0
    5.4550   -0.5860   -0.9570 N   0  0  0  0  0  0  0  0  0  0  0  0
    6.2980    0.1780   -0.3660 C   0  0  0  0  0  0  0  0  0  0  0  0
    7.6920   -0.2270   -0.3400 C   0  0  0  0  0  0  0  0  0  0  0  0
    8.0690   -1.4030   -0.9330 C   0  0  0  0  0  0  0  0  0  0  0  0
    9.4070   -1.8180   -0.9330 C   0  0  0  0  0  0  0  0  0  0  0  0
   10.3430   -1.0140   -0.3200 C   0  0  0  0  0  0  0  0  0  0  0  0
    9.9930    0.1830    0.2900 C   0  0  0  0  0  0  0  0  0  0  0  0
   11.0040    0.9260    0.8810 O   0  0  0  0  0  0  0  0  0  0  0  0
   10.5950    2.1530    1.4950 C   0  0  0  0  0  0  0  0  0  0  0  0
    8.6820    0.5370    0.2610 C   0  0  0  0  0  0  0  0  0  0  0  0
    3.4580    0.8110   -0.6540 C   0  0  0  0  0  0  0  0  0  0  0  0
    2.0890    0.9870   -0.8230 C   0  0  0  0  0  0  0  0  0  0  0  0
    1.2650    0.0510   -1.4080 C   0  0  0  0  0  0  0  0  0  0  0  0
   -1.1090    1.2300    1.1350 C   0  0  0  0  0  0  0  0  0  0  0  0
   -1.3390    0.3550    2.3500 C   0  0  0  0  0  0  0  0  0  0  0  0
   -2.6810    0.5800    2.7790 O   0  0  0  0  0  0  0  0  0  0  0  0
  1  2  1  0
  2  3  2  3
  3  4  1  0
  4  5  1  0
  5  6  1  0
  6  7  2  0
  6 11  1  0
  7  8  1  0
  8  9  2  0
  9 10  1  0
  9 36  1  0
 10 11  2  0
 10 12  1  0
 12 13  1  0
 13 14  1  6
 13 34  1  0
 14 15  1  0
 15 16  1  0
 15 33  2  0
 16 17  1  0
 17 18  2  0
 18 19  1  0
 18 33  1  0
 19 20  2  0
 20 21  1  0
 20 31  1  0
 21 22  2  3
 22 23  1  0
 23 24  2  0
 23 30  1  0
 24 25  1  0
 25 26  2  0
 26 27  1  0
 27 28  1  0
 27 30  2  0
 28 29  1  0
 31 32  2  0
 32 33  1  0
 34 35  1  0
 35 36  1  0
M  END
