
     RDKit          3D

 36 40  0  0  0  0  0  0  0  0999 V2000
   -4.5130    5.6070    0.8850 C   0  0  0  0  0  0  0  0  0  0  0  0
   -3.6010    4.7570    0.0890 C   0  0  0  0  0  0  0  0  0  0  0  0
   -3.0990    5.2170   -1.1300 C   0  0  0  0  0  0  0  0  0  0  0  0
   -2.2340    4.4230   -1.8640 C   0  0  0  0  0  0  0  0  0  0  0  0
   -1.8620    3.1580   -1.3810 C   0  0  0  0  0  0  0  0  0  0  0  0
   -2.3590    2.7140   -0.1830 C   0  0  0  0  0  0  0  0  0  0  0  0
   -1.9290    1.4390    0.3810 C   0  0  0  0  0  0  0  0  0  0  0  0
   -0.9670    0.7130   -0.1380 C   0  0  0  0  0  0  0  0  0  0  0  0
   -0.5070   -0.5490    0.3720 C   0  0  0  0  0  0  0  0  0  0  0  0
    0.8400   -0.8570    0.1320 C   0  0  0  0  0  0  0  0  0  0  0  0
    1.6110    0.0960   -0.7180 C   0  0  0  0  0  0  0  0  0  0  0  0
    2.8650   -0.0410   -0.9040 O   0  0  0  0  0  0  0  0  0  0  0  0
    4.0830   -0.4180   -1.1770 C   0  0  0  0  0  0  0  0  0  0  0  0
    4.1550   -1.6320   -1.6110 O   0  0  0  0  0  0  0  0  0  0  0  0
    5.2810    0.3530   -1.0600 C   0  0  0  0  0  0  0  0  0  0  0  0
    6.5120    0.0160   -1.3480 C   0  0  0  0  0  0  0  0  0  0  0  0
    7.5600    1.0420   -1.1260 C   0  0  0  0  0  0  0  0  0  0  0  0
    8.8710    0.8820   -1.3790 C   0  0  0  0  0  0  0  0  0  0  0  0
    9.6390    2.0920   -1.0420 C   0  0  0  0  0  0  0  0  0  0  0  0
    8.5580    2.9950   -0.5340 C   0  0  0  0  0  0  0  0  0  0  0  0
    7.4160    2.3620   -0.6020 C   0  0  0  0  0  0  0  0  0  0  0  0
    1.3390   -2.0420    0.6120 C   0  0  0  0  0  0  0  0  0  0  0  0
    0.5310   -2.9260    1.3190 C   0  0  0  0  0  0  0  0  0  0  0  0
   -0.7760   -2.6390    1.5500 C   0  0  0  0  0  0  0  0  0  0  0  0
   -1.7380   -3.3100    2.1730 O   0  0  0  0  0  0  0  0  0  0  0  0
   -2.8630   -2.6570    2.1440 C   0  0  0  0  0  0  0  0  0  0  0  0
   -4.1890   -3.0230    2.7070 C   0  0  0  0  0  0  0  0  0  0  0  0
   -4.6090   -4.3100    2.2520 N   0  0  0  0  0  0  0  0  0  0  0  0
   -4.8500   -4.7120    0.9140 C   0  0  0  0  0  0  0  0  0  0  0  0
   -4.0120   -4.7470   -0.0990 C   0  0  0  0  0  0  0  0  0  0  0  0
   -4.7530   -5.2440   -1.2830 C   0  0  0  0  0  0  0  0  0  0  0  0
   -6.1210   -5.4670   -0.7890 C   0  0  0  0  0  0  0  0  0  0  0  0
   -6.1400   -5.1590    0.4530 N   0  0  0  0  0  0  0  0  0  0  0  0
   -2.6220   -1.4580    1.4470 C   0  0  0  0  0  0  0  0  0  0  0  0
   -1.2990   -1.4230    1.0640 C   0  0  0  0  0  0  0  0  0  0  0  0
   -3.2320    3.5320    0.5430 C   0  0  0  0  0  0  0  0  0  0  0  0
  1  2  1  0
  2  3  2  0
  2 36  1  0
  3  4  1  0
  4  5  2  0
  5  6  1  0
  6  7  1  0
  6 36  2  0
  7  8  2  3
  8  9  1  0
  9 10  1  0
  9 35  2  0
 10 11  1  0
 10 22  2  0
 11 12  1  0
 12 13  1  0
 13 14  2  0
 13 15  1  0
 15 16  2  3
 16 17  1  0
 17 18  2  0
 17 21  1  0
 18 19  1  0
 19 20  1  0
 20 21  2  0
 22 23  1  0
 23 24  2  0
 24 25  1  0
 24 35  1  0
 25 26  1  0
 26 27  1  0
 26 34  2  0
 27 28  1  0
 28 29  1  0
 29 30  2  0
 29 33  1  0
 30 31  1  0
 31 32  1  0
 32 33  2  0
 34 35  1  0
M  END
