
     RDKit          3D

 40 44  0  0  0  0  0  0  0  0999 V2000
   -4.1540    0.2270    2.4380 C   0  0  0  0  0  0  0  0  0  0  0  0
   -3.4030   -0.2270    1.2490 C   0  0  1  0  0  0  0  0  0  0  0  0
   -4.0330   -1.3280    0.4400 C   0  0  1  0  0  0  0  0  0  0  0  0
   -4.1370   -2.5880    1.3160 C   0  0  0  0  0  0  0  0  0  0  0  0
   -4.6350   -3.7670    0.5670 C   0  0  0  0  0  0  0  0  0  0  0  0
   -5.5050   -3.3930   -0.6160 C   0  0  0  0  0  0  0  0  0  0  0  0
   -6.2940   -2.2020   -0.1890 C   0  0  0  0  0  0  0  0  0  0  0  0
   -5.3520   -1.0050   -0.1540 C   0  0  0  0  0  0  0  0  0  0  0  0
   -2.7200    0.8120    0.5010 N   0  0  0  0  0  0  0  0  0  0  0  0
   -3.5360    1.7980   -0.1310 C   0  0  0  0  0  0  0  0  0  0  0  0
   -1.3240    0.7600    0.4190 C   0  0  0  0  0  0  0  0  0  0  0  0
   -0.8190   -0.3340    0.9730 O   0  0  0  0  0  0  0  0  0  0  0  0
   -0.3080    1.6400   -0.1480 C   0  0  0  0  0  0  0  0  0  0  0  0
    0.9900    1.1220   -0.3380 C   0  0  0  0  0  0  0  0  0  0  0  0
    1.4940   -0.1910   -0.2220 N   0  0  0  0  0  0  0  0  0  0  0  0
    2.8880   -0.4310   -0.4340 C   0  0  0  0  0  0  0  0  0  0  0  0
    3.5610    0.5780   -0.7170 O   0  0  0  0  0  0  0  0  0  0  0  0
    3.4350   -1.7680   -0.3190 C   0  0  0  0  0  0  0  0  0  0  0  0
    4.7160   -2.0390   -0.5110 C   0  0  0  0  0  0  0  0  0  0  0  0
    5.7640   -1.0960   -0.8590 C   0  0  0  0  0  0  0  0  0  0  0  0
    6.8100   -1.0820    0.1820 N   0  0  1  0  0  0  0  0  0  0  0  0
    6.2570   -1.3990    1.4670 C   0  0  0  0  0  0  0  0  0  0  0  0
    7.9030   -1.9480   -0.1790 C   0  0  0  0  0  0  0  0  0  0  0  0
    5.0410   -3.5140   -0.3260 C   0  0  0  0  0  0  0  0  0  0  0  0
    4.0770   -4.2810   -1.1890 C   0  0  0  0  0  0  0  0  0  0  0  0
    2.7560   -4.0000   -0.8980 O   0  0  0  0  0  0  0  0  0  0  0  0
    2.6130   -2.9680    0.0250 C   0  0  0  0  0  0  0  0  0  0  0  0
    1.9730    2.4720   -0.8600 S   0  0  0  0  0  0  0  0  0  0  0  0
    0.6520    3.6910   -0.8160 C   0  0  0  0  0  0  0  0  0  0  0  0
    0.6850    5.0480   -1.0870 C   0  0  0  0  0  0  0  0  0  0  0  0
    1.7190    5.6300   -1.4580 O   0  0  0  0  0  0  0  0  0  0  0  0
   -0.4600    5.7810   -0.9420 N   0  0  0  0  0  0  0  0  0  0  0  0
   -0.4820    7.0790   -1.1850 C   0  0  0  0  0  0  0  0  0  0  0  0
   -1.6700    7.7540   -1.0140 C   0  0  0  0  0  0  0  0  0  0  0  0
   -2.7830    7.1190   -0.6110 N   0  0  0  0  0  0  0  0  0  0  0  0
   -2.7170    5.8010   -0.3750 C   0  0  0  0  0  0  0  0  0  0  0  0
   -3.7830    5.2550   -0.0010 O   0  0  0  0  0  0  0  0  0  0  0  0
   -1.5250    5.0730   -0.5370 C   0  0  0  0  0  0  0  0  0  0  0  0
   -1.5420    3.7780   -0.2830 N   0  0  0  0  0  0  0  0  0  0  0  0
   -0.4200    2.9700   -0.4100 C   0  0  0  0  0  0  0  0  0  0  0  0
  2  1  1  6
  2  3  1  0
  2  9  1  0
  3  4  1  1
  3  8  1  0
  4  5  1  0
  5  6  1  0
  6  7  1  0
  7  8  1  0
  9 10  1  0
  9 11  1  0
 11 12  2  0
 11 13  1  0
 13 14  2  0
 13 40  1  0
 14 15  1  0
 14 28  1  0
 15 16  1  0
 16 17  2  0
 16 18  1  0
 18 19  2  0
 18 27  1  0
 19 20  1  0
 19 24  1  0
 20 21  1  0
 21 22  1  1
 21 23  1  0
 24 25  1  0
 25 26  1  0
 26 27  1  0
 28 29  1  0
 29 30  1  0
 29 40  2  0
 30 31  2  0
 30 32  1  0
 32 33  1  0
 32 38  1  0
 33 34  2  0
 34 35  1  0
 35 36  1  0
 36 37  2  0
 36 38  1  0
 38 39  2  0
 39 40  1  0
M  CHG  1  21   1
M  END
