
     RDKit          3D

 40 44  0  0  0  0  0  0  0  0999 V2000
   -8.0470   -2.7770   -2.8990 N   0  0  0  0  0  0  0  0  0  0  0  0
   -6.9350   -2.5430   -2.4410 N   0  0  0  0  0  0  0  0  0  0  0  0
   -5.7640   -2.2540   -2.2430 N   0  0  0  0  0  0  0  0  0  0  0  0
   -5.4230   -0.9630   -1.6850 C   0  0  2  0  0  0  0  0  0  0  0  0
   -4.0210   -0.5890   -2.1880 C   0  0  2  0  0  0  0  0  0  0  0  0
   -3.5400   -1.5200   -3.1060 O   0  0  0  0  0  0  0  0  0  0  0  0
   -3.2160   -0.5450   -0.9240 C   0  0  1  0  0  0  0  0  0  0  0  0
   -2.0910    0.4780   -0.9660 C   0  0  0  0  0  0  0  0  0  0  0  0
   -1.6410    0.5870    0.4300 N   0  0  0  0  0  0  0  0  0  0  0  0
   -0.3580    1.6940    0.6200 S   0  0  2  0  0  0  0  0  0  0  0  0
   -0.7230    2.8620    1.5040 O   0  0  0  0  0  0  0  0  0  0  0  0
   -0.0970    2.3090   -0.7570 O   0  0  0  0  0  0  0  0  0  0  0  0
    1.0990    0.9620    1.1140 N   0  0  0  0  0  0  0  0  0  0  0  0
    1.8790    0.0830    0.3270 C   0  0  0  0  0  0  0  0  0  0  0  0
    1.4780   -0.1900   -0.8400 O   0  0  0  0  0  0  0  0  0  0  0  0
    3.1370   -0.5030    0.8650 C   0  0  0  0  0  0  0  0  0  0  0  0
    3.8240   -1.3980   -0.1080 C   0  0  0  0  0  0  0  0  0  0  0  0
    5.1060   -1.9790    0.4460 C   0  0  0  0  0  0  0  0  0  0  0  0
    6.0980   -0.9140    0.8290 C   0  0  0  0  0  0  0  0  0  0  0  0
    6.4680   -0.0800   -0.3470 C   0  0  2  0  0  0  0  0  0  0  0  0
    7.2320   -1.0390   -1.7010 S   0  0  0  0  0  0  0  0  0  0  0  0
    8.6450    0.0990   -2.0150 C   0  0  0  0  0  0  0  0  0  0  0  0
    8.7800    0.6930   -0.6400 C   0  0  2  0  0  0  0  0  0  0  0  0
    9.4420   -0.1500    0.2960 N   0  0  0  0  0  0  0  0  0  0  0  0
    8.8570    0.1030    1.5630 C   0  0  0  0  0  0  0  0  0  0  0  0
    9.3070   -0.3680    2.6410 O   0  0  0  0  0  0  0  0  0  0  0  0
    7.7130    0.9590    1.3710 N   0  0  0  0  0  0  0  0  0  0  0  0
    7.4440    0.9960   -0.0740 C   0  0  2  0  0  0  0  0  0  0  0  0
   -4.1640   -0.0410   -0.0070 O   0  0  0  0  0  0  0  0  0  0  0  0
   -5.1780   -1.0090   -0.2070 C   0  0  1  0  0  0  0  0  0  0  0  0
   -6.3170   -0.7250    0.6170 N   0  0  0  0  0  0  0  0  0  0  0  0
   -6.8280   -1.5250    1.5610 C   0  0  0  0  0  0  0  0  0  0  0  0
   -7.8880   -0.9510    2.1500 N   0  0  0  0  0  0  0  0  0  0  0  0
   -8.0460    0.2340    1.5630 C   0  0  0  0  0  0  0  0  0  0  0  0
   -8.9710    1.2640    1.7570 C   0  0  0  0  0  0  0  0  0  0  0  0
   -9.9880    1.1330    2.7370 N   0  0  0  0  0  0  0  0  0  0  0  0
   -8.8420    2.3510    0.9780 N   0  0  0  0  0  0  0  0  0  0  0  0
   -7.8720    2.4720    0.0410 C   0  0  0  0  0  0  0  0  0  0  0  0
   -6.9700    1.5010   -0.1680 N   0  0  0  0  0  0  0  0  0  0  0  0
   -7.0840    0.4020    0.6050 C   0  0  0  0  0  0  0  0  0  0  0  0
  1  2  2  0
  2  3  2  0
  4  3  1  6
  4  5  1  0
  4 30  1  0
  5  6  1  6
  5  7  1  0
  7  8  1  6
  7 29  1  0
  8  9  1  0
 10  9  1  6
 10 11  2  0
 10 12  2  0
 10 13  1  0
 13 14  1  0
 14 15  2  0
 14 16  1  0
 16 17  1  0
 17 18  1  0
 18 19  1  0
 20 19  1  1
 20 21  1  0
 20 28  1  0
 21 22  1  0
 23 22  1  6
 23 24  1  0
 23 28  1  0
 24 25  1  0
 25 26  2  0
 25 27  1  0
 28 27  1  1
 29 30  1  0
 30 31  1  1
 31 32  1  0
 31 40  1  0
 32 33  2  0
 33 34  1  0
 34 35  2  0
 34 40  1  0
 35 36  1  0
 35 37  1  0
 37 38  2  0
 38 39  1  0
 39 40  2  0
M  CHG  2   1  -1   2   1
M  END
