
     RDKit          3D

 40 44  0  0  0  0  0  0  0  0999 V2000
    6.6950    1.2200   -3.6500 C   0  0  0  0  0  0  0  0  0  0  0  0
    5.5530    1.5710   -2.7140 C   0  0  2  0  0  0  0  0  0  0  0  0
    5.5450    3.0400   -2.4060 C   0  0  0  0  0  0  0  0  0  0  0  0
    5.7100    0.8170   -1.4170 C   0  0  0  0  0  0  0  0  0  0  0  0
    4.9400   -0.1810   -0.9430 N   0  0  0  0  0  0  0  0  0  0  0  0
    5.4040   -0.5910    0.2470 C   0  0  0  0  0  0  0  0  0  0  0  0
    4.8580   -1.6570    1.1040 C   0  0  0  0  0  0  0  0  0  0  0  0
    5.3870   -1.9260    2.1830 O   0  0  0  0  0  0  0  0  0  0  0  0
    3.7430   -2.3870    0.7330 O   0  0  0  0  0  0  0  0  0  0  0  0
    3.2470   -3.3810    1.5520 C   0  0  2  0  0  0  0  0  0  0  0  0
    3.4460   -4.7740    0.9590 C   0  0  0  0  0  0  0  0  0  0  0  0
    1.8670   -3.1400    1.9360 C   0  0  0  0  0  0  0  0  0  0  0  0
    1.3840   -3.9770    2.8110 O   0  0  0  0  0  0  0  0  0  0  0  0
    0.9620   -2.1390    1.5090 N   0  0  0  0  0  0  0  0  0  0  0  0
   -0.3530   -2.1320    2.1210 C   0  0  0  0  0  0  0  0  0  0  0  0
   -1.0160   -0.8300    1.8900 C   0  0  0  0  0  0  0  0  0  0  0  0
   -0.9820   -0.2920    0.4990 C   0  0  2  0  0  0  0  0  0  0  0  0
   -2.0830   -0.7390   -0.3380 N   0  0  0  0  0  0  0  0  0  0  0  0
   -3.1480    0.0490   -0.5540 C   0  0  0  0  0  0  0  0  0  0  0  0
   -3.1820    1.6630    0.2050 S   0  0  0  0  0  0  0  0  0  0  0  0
   -3.9510    1.6810    1.8240 C   0  0  0  0  0  0  0  0  0  0  0  0
   -3.8810    3.0970    2.3280 C   0  0  0  0  0  0  0  0  0  0  0  0
   -3.2580    3.4560    3.4420 C   0  0  0  0  0  0  0  0  0  0  0  0
   -3.3870    4.9160    3.6340 C   0  0  0  0  0  0  0  0  0  0  0  0
   -4.1740    5.3520    2.4750 C   0  0  0  0  0  0  0  0  0  0  0  0
   -4.4430    4.2970    1.7450 C   0  0  0  0  0  0  0  0  0  0  0  0
   -4.2270   -0.2850   -1.3250 C   0  0  0  0  0  0  0  0  0  0  0  0
   -5.3170    0.5340   -1.5370 C   0  0  0  0  0  0  0  0  0  0  0  0
   -6.3240    0.0540   -2.3370 C   0  0  0  0  0  0  0  0  0  0  0  0
   -6.2930   -1.2020   -2.9320 C   0  0  0  0  0  0  0  0  0  0  0  0
   -7.2500   -1.6140   -3.6640 N   0  0  0  0  0  0  0  0  0  0  0  0
   -5.2350   -1.9870   -2.7220 N   0  0  0  0  0  0  0  0  0  0  0  0
   -4.2130   -1.6070   -1.9620 C   0  0  0  0  0  0  0  0  0  0  0  0
   -3.1320   -2.3570   -1.7190 N   0  0  0  0  0  0  0  0  0  0  0  0
   -2.1190   -1.9460   -0.9470 C   0  0  0  0  0  0  0  0  0  0  0  0
   -1.1730   -2.7290   -0.7990 O   0  0  0  0  0  0  0  0  0  0  0  0
    0.3460   -0.3980   -0.1700 C   0  0  0  0  0  0  0  0  0  0  0  0
    1.3830   -1.2240    0.5080 C   0  0  0  0  0  0  0  0  0  0  0  0
    6.5020    0.1910    0.5050 C   0  0  0  0  0  0  0  0  0  0  0  0
    6.6460    1.0150   -0.5110 O   0  0  0  0  0  0  0  0  0  0  0  0
  2  1  1  6
  2  3  1  0
  2  4  1  0
  4  5  2  0
  4 40  1  0
  5  6  1  0
  6  7  1  0
  6 39  2  0
  7  8  2  0
  7  9  1  0
  9 10  1  0
 10 11  1  6
 10 12  1  0
 12 13  2  0
 12 14  1  0
 14 15  1  0
 14 38  1  0
 15 16  1  0
 16 17  1  0
 17 18  1  6
 17 37  1  0
 18 19  1  0
 18 35  1  0
 19 20  1  0
 19 27  2  0
 20 21  1  0
 21 22  1  0
 22 23  2  0
 22 26  1  0
 23 24  1  0
 24 25  1  0
 25 26  2  0
 27 28  1  0
 27 33  1  0
 28 29  2  0
 29 30  1  0
 30 31  2  0
 30 32  1  0
 32 33  2  0
 33 34  1  0
 34 35  1  0
 35 36  2  0
 37 38  1  0
 39 40  1  0
M  CHG  1  31   1
M  END
