
     RDKit          3D

 40 44  0  0  0  0  0  0  0  0999 V2000
   -3.1010    5.1760    4.7260 C   0  0  0  0  0  0  0  0  0  0  0  0
   -2.4590    4.4480    3.6080 C   0  0  0  0  0  0  0  0  0  0  0  0
   -2.1310    3.1100    3.7330 C   0  0  0  0  0  0  0  0  0  0  0  0
   -1.5300    2.4570    2.6640 C   0  0  0  0  0  0  0  0  0  0  0  0
   -1.2570    3.1160    1.4870 C   0  0  0  0  0  0  0  0  0  0  0  0
   -0.6290    2.4880    0.3240 C   0  0  0  0  0  0  0  0  0  0  0  0
   -0.6180    1.0580    0.5070 O   0  0  0  0  0  0  0  0  0  0  0  0
   -0.0610    0.2410   -0.4530 C   0  0  0  0  0  0  0  0  0  0  0  0
    1.2790    0.1160   -0.3730 C   0  0  0  0  0  0  0  0  0  0  0  0
    2.0850    0.7680    0.6280 C   0  0  0  0  0  0  0  0  0  0  0  0
    3.3860    0.6650    0.7190 C   0  0  0  0  0  0  0  0  0  0  0  0
    4.2070   -0.1180   -0.1740 C   0  0  0  0  0  0  0  0  0  0  0  0
    5.5120   -0.1900   -0.0430 C   0  0  0  0  0  0  0  0  0  0  0  0
    6.3810    0.4670    0.9760 C   0  0  0  0  0  0  0  0  0  0  0  0
    7.5020   -0.5260    1.1400 C   0  0  0  0  0  0  0  0  0  0  0  0
    7.6090   -1.1490   -0.2020 C   0  0  0  0  0  0  0  0  0  0  0  0
    8.6300   -1.8490   -0.8200 C   0  0  0  0  0  0  0  0  0  0  0  0
    8.4660   -2.3380   -2.1090 C   0  0  0  0  0  0  0  0  0  0  0  0
    7.2880   -2.1350   -2.7910 C   0  0  0  0  0  0  0  0  0  0  0  0
    6.2830   -1.4400   -2.1680 C   0  0  0  0  0  0  0  0  0  0  0  0
    6.4260   -0.9430   -0.8830 C   0  0  0  0  0  0  0  0  0  0  0  0
   -0.7310   -0.4620   -1.5000 C   0  0  0  0  0  0  0  0  0  0  0  0
    0.0740   -1.0940   -2.3100 O   0  0  0  0  0  0  0  0  0  0  0  0
   -2.1190   -0.5690   -1.7860 N   0  0  0  0  0  0  0  0  0  0  0  0
   -3.0980   -0.0760   -0.8940 C   0  0  0  0  0  0  0  0  0  0  0  0
   -3.5340   -1.0330    0.1450 C   0  0  1  0  0  0  0  0  0  0  0  0
   -2.5190   -1.3820    1.2150 C   0  0  0  0  0  0  0  0  0  0  0  0
   -3.4530   -2.2430    2.1040 C   0  0  0  0  0  0  0  0  0  0  0  0
   -4.7780   -1.5440    1.8430 C   0  0  0  0  0  0  0  0  0  0  0  0
   -4.5200   -0.4560    1.0030 O   0  0  0  0  0  0  0  0  0  0  0  0
   -2.4470   -1.1000   -3.0820 C   0  0  0  0  0  0  0  0  0  0  0  0
   -2.6960   -2.5160   -3.3060 C   0  0  2  0  0  0  0  0  0  0  0  0
   -2.7870   -2.7530   -4.7330 O   0  0  0  0  0  0  0  0  0  0  0  0
   -4.0990   -2.9400   -2.8610 C   0  0  0  0  0  0  0  0  0  0  0  0
   -3.8730   -4.2370   -2.1870 C   0  0  0  0  0  0  0  0  0  0  0  0
   -2.6010   -4.6870   -2.5060 O   0  0  0  0  0  0  0  0  0  0  0  0
   -1.8250   -3.5400   -2.7210 C   0  0  0  0  0  0  0  0  0  0  0  0
   -1.5990    4.4310    1.4160 N   0  0  0  0  0  0  0  0  0  0  0  0
   -2.1790    5.0880    2.4280 C   0  0  0  0  0  0  0  0  0  0  0  0
   -2.5160    6.5250    2.2570 C   0  0  0  0  0  0  0  0  0  0  0  0
  1  2  1  0
  2  3  2  0
  2 39  1  0
  3  4  1  0
  4  5  2  0
  5  6  1  0
  5 38  1  0
  6  7  1  0
  7  8  1  0
  8  9  2  3
  8 22  1  0
  9 10  1  0
 10 11  2  3
 11 12  1  0
 12 13  2  3
 13 14  1  0
 13 21  1  0
 14 15  1  0
 15 16  1  0
 16 17  2  0
 16 21  1  0
 17 18  1  0
 18 19  2  0
 19 20  1  0
 20 21  2  0
 22 23  2  0
 22 24  1  0
 24 25  1  0
 24 31  1  0
 26 25  1  6
 26 27  1  0
 26 30  1  0
 27 28  1  0
 28 29  1  0
 29 30  1  0
 31 32  1  0
 32 33  1  6
 32 34  1  0
 32 37  1  0
 34 35  1  0
 35 36  1  0
 36 37  1  0
 38 39  2  0
 39 40  1  0
M  END
