
     RDKit          3D

 40 44  0  0  0  0  0  0  0  0999 V2000
   -5.4520   -1.5770    1.9630 C   0  0  0  0  0  0  0  0  0  0  0  0
   -4.9410   -0.5480    1.0020 C   0  0  0  0  0  0  0  0  0  0  0  0
   -4.7180   -1.1340   -0.3860 C   0  0  0  0  0  0  0  0  0  0  0  0
   -3.7210   -2.2230   -0.2400 C   0  0  0  0  0  0  0  0  0  0  0  0
   -4.1620   -3.5200   -0.2640 C   0  0  0  0  0  0  0  0  0  0  0  0
   -3.2860   -4.5520   -0.1270 C   0  0  0  0  0  0  0  0  0  0  0  0
   -3.7650   -5.9790   -0.1530 C   0  0  0  0  0  0  0  0  0  0  0  0
   -1.9510   -4.2960    0.0360 C   0  0  0  0  0  0  0  0  0  0  0  0
   -1.5160   -2.9720    0.0600 C   0  0  0  0  0  0  0  0  0  0  0  0
   -2.3490   -1.8980   -0.0730 C   0  0  0  0  0  0  0  0  0  0  0  0
   -2.0190   -0.6480   -0.0620 O   0  0  0  0  0  0  0  0  0  0  0  0
   -1.0810    0.2910    0.0380 C   0  0  0  0  0  0  0  0  0  0  0  0
    0.2760    0.0580    0.2330 C   0  0  0  0  0  0  0  0  0  0  0  0
    1.2170    1.0750    0.3300 C   0  0  0  0  0  0  0  0  0  0  0  0
    2.6540    0.7640    0.5430 C   0  0  2  0  0  0  0  0  0  0  0  0
    3.2940    0.2110   -0.7170 C   0  0  0  0  0  0  0  0  0  0  0  0
    4.7080    0.0700   -0.4420 N   0  0  0  0  0  0  0  0  0  0  0  0
    5.8530   -0.2920   -1.2050 C   0  0  0  0  0  0  0  0  0  0  0  0
    6.0640   -0.3580   -2.5540 C   0  0  0  0  0  0  0  0  0  0  0  0
    7.2910   -0.7140   -3.0490 C   0  0  0  0  0  0  0  0  0  0  0  0
    8.3520   -1.0180   -2.2360 C   0  0  0  0  0  0  0  0  0  0  0  0
    8.1520   -0.9550   -0.8580 C   0  0  0  0  0  0  0  0  0  0  0  0
    6.9200   -0.5990   -0.3630 C   0  0  0  0  0  0  0  0  0  0  0  0
    6.4590   -0.4790    0.9980 C   0  0  0  0  0  0  0  0  0  0  0  0
    6.9010   -0.9430    2.1350 C   0  0  0  0  0  0  0  0  0  0  0  0
    8.0410   -1.7680    2.4190 C   0  0  0  0  0  0  0  0  0  0  0  0
    8.2670   -2.0850    3.6490 O   0  0  0  0  0  0  0  0  0  0  0  0
    5.1850    0.3470    0.8920 C   0  0  2  0  0  0  0  0  0  0  0  0
    4.2630   -0.1700    1.9600 C   0  0  0  0  0  0  0  0  0  0  0  0
    2.8670   -0.1960    1.5770 N   0  0  0  0  0  0  0  0  0  0  0  0
    0.7500    2.3570    0.2240 C   0  0  0  0  0  0  0  0  0  0  0  0
   -0.5740    2.6390    0.0320 C   0  0  0  0  0  0  0  0  0  0  0  0
   -1.4930    1.6420   -0.0620 C   0  0  0  0  0  0  0  0  0  0  0  0
   -2.8640    1.9110   -0.2600 O   0  0  0  0  0  0  0  0  0  0  0  0
   -3.2370    3.2500   -0.3560 C   0  0  0  0  0  0  0  0  0  0  0  0
   -4.6690    3.4710   -0.5590 C   0  0  0  0  0  0  0  0  0  0  0  0
   -5.4360    2.4780   -0.6320 O   0  0  0  0  0  0  0  0  0  0  0  0
   -5.2270    4.7110   -0.6760 O   0  0  0  0  0  0  0  0  0  0  0  0
   -6.5730    5.0230   -0.8690 C   0  0  0  0  0  0  0  0  0  0  0  0
   -6.6580    6.5560   -0.9360 C   0  0  0  0  0  0  0  0  0  0  0  0
  1  2  1  0
  2  3  1  0
  3  4  1  0
  4  5  2  0
  4 10  1  0
  5  6  1  0
  6  7  1  0
  6  8  2  0
  8  9  1  0
  9 10  2  0
 10 11  1  0
 11 12  1  0
 12 13  2  0
 12 33  1  0
 13 14  1  0
 15 14  1  6
 14 31  2  0
 15 16  1  0
 15 30  1  0
 16 17  1  0
 17 18  1  0
 17 28  1  0
 18 19  2  0
 18 23  1  0
 19 20  1  0
 20 21  2  0
 21 22  1  0
 22 23  2  0
 23 24  1  0
 24 25  2  3
 24 28  1  0
 25 26  1  0
 26 27  2  0
 28 29  1  1
 29 30  1  0
 31 32  1  0
 32 33  2  0
 33 34  1  0
 34 35  1  0
 35 36  1  0
 36 37  2  0
 36 38  1  0
 38 39  1  0
 39 40  1  0
M  END
