
     RDKit          3D

 40 43  0  0  0  0  0  0  0  0999 V2000
   -7.5190   -5.2310    1.7010 C   0  0  0  0  0  0  0  0  0  0  0  0
   -6.7700   -4.0280    1.2360 C   0  0  0  0  0  0  0  0  0  0  0  0
   -5.6170   -3.6440    1.8900 C   0  0  0  0  0  0  0  0  0  0  0  0
   -4.9110   -2.5200    1.4650 C   0  0  0  0  0  0  0  0  0  0  0  0
   -5.3470   -1.7720    0.3860 C   0  0  0  0  0  0  0  0  0  0  0  0
   -4.5370   -0.5790   -0.0220 C   0  0  0  0  0  0  0  0  0  0  0  0
   -3.6050   -0.9990   -0.9200 O   0  0  0  0  0  0  0  0  0  0  0  0
   -2.7800   -0.0590   -1.4490 C   0  0  0  0  0  0  0  0  0  0  0  0
   -1.9530    0.6220   -0.3700 C   0  0  1  0  0  0  0  0  0  0  0  0
   -1.1630   -0.4200    0.3060 C   0  0  1  0  0  0  0  0  0  0  0  0
   -1.2940   -1.6840   -0.3010 O   0  0  0  0  0  0  0  0  0  0  0  0
    0.2770   -0.1910    0.5140 C   0  0  0  0  0  0  0  0  0  0  0  0
    1.1180   -1.1840    0.8920 C   0  0  0  0  0  0  0  0  0  0  0  0
    2.5020   -0.9510    1.0900 C   0  0  0  0  0  0  0  0  0  0  0  0
    3.3120   -2.0450    1.5830 C   0  0  0  0  0  0  0  0  0  0  0  0
    4.5550   -2.2810    1.4810 C   0  0  0  0  0  0  0  0  0  0  0  0
    5.6350   -1.6180    0.8610 C   0  0  0  0  0  0  0  0  0  0  0  0
    5.6690   -0.5740    0.1730 O   0  0  0  0  0  0  0  0  0  0  0  0
    6.9390   -2.1940    1.0120 O   0  0  0  0  0  0  0  0  0  0  0  0
    8.0460   -1.5500    0.3970 C   0  0  1  0  0  0  0  0  0  0  0  0
    8.2260   -0.1430    0.9070 C   0  0  0  0  0  0  0  0  0  0  0  0
    9.2620   -2.3930    0.7250 C   0  0  0  0  0  0  0  0  0  0  0  0
    7.8600   -1.5390   -1.1230 C   0  0  0  0  0  0  0  0  0  0  0  0
    2.9310    0.3300    0.8790 C   0  0  0  0  0  0  0  0  0  0  0  0
    2.0910    1.3700    0.4890 C   0  0  0  0  0  0  0  0  0  0  0  0
    2.6250    2.7310    0.2320 C   0  0  0  0  0  0  0  0  0  0  0  0
    0.7740    1.1100    0.3100 C   0  0  0  0  0  0  0  0  0  0  0  0
   -0.1250    2.1360   -0.0560 N   0  0  0  0  0  0  0  0  0  0  0  0
   -0.1980    3.4830    0.3610 C   0  0  0  0  0  0  0  0  0  0  0  0
    0.4940    4.1600    1.1440 O   0  0  0  0  0  0  0  0  0  0  0  0
   -1.3740    4.0380   -0.3590 C   0  0  1  0  0  0  0  0  0  0  0  0
   -1.1030    5.2500   -1.1740 C   0  0  1  0  0  0  0  0  0  0  0  0
   -0.5680    6.3610   -0.2700 C   0  0  0  0  0  0  0  0  0  0  0  0
   -0.1080    5.0380   -2.2720 C   0  0  0  0  0  0  0  0  0  0  0  0
   -1.9920    2.9460   -1.0750 N   0  0  0  0  0  0  0  0  0  0  0  0
   -1.1880    1.7820   -0.9760 C   0  0  2  0  0  0  0  0  0  0  0  0
   -0.7110    1.3750   -2.3340 C   0  0  0  0  0  0  0  0  0  0  0  0
   -6.4880   -2.1600   -0.2550 C   0  0  0  0  0  0  0  0  0  0  0  0
   -7.1960   -3.2770    0.1630 C   0  0  0  0  0  0  0  0  0  0  0  0
   -8.4300   -3.6730   -0.5490 C   0  0  0  0  0  0  0  0  0  0  0  0
  1  2  1  0
  2  3  2  0
  2 39  1  0
  3  4  1  0
  4  5  2  0
  5  6  1  0
  5 38  1  0
  6  7  1  0
  7  8  1  0
  9  8  1  6
  9 10  1  0
  9 36  1  0
 10 11  1  6
 10 12  1  0
 12 13  2  0
 12 27  1  0
 13 14  1  0
 14 15  1  0
 14 24  2  0
 15 16  2  3
 16 17  1  0
 17 18  2  0
 17 19  1  0
 19 20  1  0
 20 21  1  1
 20 22  1  0
 20 23  1  0
 24 25  1  0
 25 26  1  0
 25 27  2  0
 27 28  1  0
 28 29  1  0
 28 36  1  0
 29 30  2  0
 29 31  1  0
 31 32  1  0
 31 35  1  6
 32 33  1  1
 32 34  1  0
 35 36  1  0
 36 37  1  6
 38 39  2  0
 39 40  1  0
M  END
