
     RDKit          3D

 40 44  0  0  0  0  0  0  0  0999 V2000
   -6.8660    0.5650   -2.2830 C   0  0  0  0  0  0  0  0  0  0  0  0
   -8.0290    0.7330   -1.4020 C   0  0  2  0  0  0  0  0  0  0  0  0
   -8.4000    2.2020   -1.1800 C   0  0  0  0  0  0  0  0  0  0  0  0
   -9.7860    2.2630   -0.5610 C   0  0  0  0  0  0  0  0  0  0  0  0
  -10.1090    1.1990    0.4140 C   0  0  0  0  0  0  0  0  0  0  0  0
   -9.6820   -0.2020    0.0740 C   0  0  0  0  0  0  0  0  0  0  0  0
   -8.1820   -0.0080   -0.2180 N   0  0  0  0  0  0  0  0  0  0  0  0
   -7.3310   -0.6050    0.6640 C   0  0  0  0  0  0  0  0  0  0  0  0
   -7.9170   -1.3820    1.5790 O   0  0  0  0  0  0  0  0  0  0  0  0
   -5.8890   -0.5820    0.8400 C   0  0  0  0  0  0  0  0  0  0  0  0
   -4.8990    0.1800    0.2930 C   0  0  0  0  0  0  0  0  0  0  0  0
   -3.6910   -0.2800    0.8520 C   0  0  0  0  0  0  0  0  0  0  0  0
   -4.0030   -1.2930    1.7080 C   0  0  0  0  0  0  0  0  0  0  0  0
   -3.1010   -2.0680    2.5120 C   0  0  0  0  0  0  0  0  0  0  0  0
   -1.8700   -1.9160    2.7850 C   0  0  0  0  0  0  0  0  0  0  0  0
   -1.0350   -0.8670    2.3400 N   0  0  0  0  0  0  0  0  0  0  0  0
   -1.1180    0.5290    2.6840 C   0  0  0  0  0  0  0  0  0  0  0  0
   -1.9910    1.0190    3.4480 O   0  0  0  0  0  0  0  0  0  0  0  0
   -0.0800    1.2440    2.0370 N   0  0  0  0  0  0  0  0  0  0  0  0
    0.7100    0.3340    1.2510 C   0  0  0  0  0  0  0  0  0  0  0  0
    1.7700    0.6540    0.5360 C   0  0  0  0  0  0  0  0  0  0  0  0
    2.5570   -0.2540   -0.2510 C   0  0  0  0  0  0  0  0  0  0  0  0
    3.8950   -0.4080   -0.3920 C   0  0  0  0  0  0  0  0  0  0  0  0
    4.4090   -1.3100   -1.2150 C   0  0  0  0  0  0  0  0  0  0  0  0
    5.8450   -1.5630   -1.4200 N   0  0  0  0  0  0  0  0  0  0  0  0
    6.8320   -1.2170   -0.4890 C   0  0  0  0  0  0  0  0  0  0  0  0
    6.5050   -0.6750    0.5910 O   0  0  0  0  0  0  0  0  0  0  0  0
    8.2210   -1.4570   -0.7220 N   0  0  0  0  0  0  0  0  0  0  0  0
    8.6550   -2.1050   -1.9420 C   0  0  0  0  0  0  0  0  0  0  0  0
    9.2170   -1.0480    0.2290 C   0  0  0  0  0  0  0  0  0  0  0  0
    9.6740    0.3320   -0.1380 C   0  0  0  0  0  0  0  0  0  0  0  0
   10.9260    0.6640   -0.4580 C   0  0  0  0  0  0  0  0  0  0  0  0
   10.9380    2.1120   -0.7470 C   0  0  0  0  0  0  0  0  0  0  0  0
    9.5730    2.5320   -0.5510 N   0  0  0  0  0  0  0  0  0  0  0  0
    8.8390    1.5150   -0.2010 C   0  0  0  0  0  0  0  0  0  0  0  0
    3.5350   -2.1270   -1.9610 C   0  0  0  0  0  0  0  0  0  0  0  0
    1.8910   -1.5110   -1.3980 S   0  0  0  0  0  0  0  0  0  0  0  0
    0.0920   -0.9620    1.4600 C   0  0  0  0  0  0  0  0  0  0  0  0
    0.4650   -2.0710    0.9500 O   0  0  0  0  0  0  0  0  0  0  0  0
   -5.3040   -1.4170    1.6530 O   0  0  0  0  0  0  0  0  0  0  0  0
  2  1  1  1
  2  3  1  0
  2  7  1  0
  3  4  1  0
  4  5  1  0
  5  6  1  0
  6  7  1  0
  7  8  1  0
  8  9  2  0
  8 10  1  0
 10 11  2  0
 10 40  1  0
 11 12  1  0
 12 13  2  0
 13 14  1  0
 13 40  1  0
 14 15  2  3
 15 16  1  0
 16 17  1  0
 16 38  1  0
 17 18  2  0
 17 19  1  0
 19 20  1  0
 20 21  2  3
 20 38  1  0
 21 22  1  0
 22 23  2  0
 22 37  1  0
 23 24  1  0
 24 25  1  0
 24 36  2  0
 25 26  1  0
 26 27  2  0
 26 28  1  0
 28 29  1  0
 28 30  1  0
 30 31  1  0
 31 32  2  0
 31 35  1  0
 32 33  1  0
 33 34  1  0
 34 35  2  0
 36 37  1  0
 38 39  2  0
M  CHG  1  34   1
M  END
