
     RDKit          3D

 40 44  0  0  0  0  0  0  0  0999 V2000
    6.6320   -2.4160    0.6860 C   0  0  0  0  0  0  0  0  0  0  0  0
    7.6010   -1.2880    0.8460 C   0  0  0  0  0  0  0  0  0  0  0  0
    8.6010   -1.3540    1.7990 C   0  0  0  0  0  0  0  0  0  0  0  0
    9.5460   -0.3750    1.9670 C   0  0  0  0  0  0  0  0  0  0  0  0
    9.4740    0.7130    1.1380 C   0  0  0  0  0  0  0  0  0  0  0  0
    8.4940    0.7990    0.1890 C   0  0  0  0  0  0  0  0  0  0  0  0
    7.5190   -0.2070    0.0150 C   0  0  0  0  0  0  0  0  0  0  0  0
    6.4930    0.0260   -1.0040 C   0  0  0  0  0  0  0  0  0  0  0  0
    5.2170    0.6690   -0.5250 C   0  0  0  0  0  0  0  0  0  0  0  0
    4.4480   -0.0580    0.4940 C   0  0  0  0  0  0  0  0  0  0  0  0
    3.1530    0.5780    0.9550 C   0  0  0  0  0  0  0  0  0  0  0  0
    2.1820    0.7660   -0.0790 N   0  0  0  0  0  0  0  0  0  0  0  0
    1.2510   -0.2900   -0.4110 C   0  0  0  0  0  0  0  0  0  0  0  0
    1.5290   -1.4690   -0.1430 O   0  0  0  0  0  0  0  0  0  0  0  0
   -0.0360    0.0470   -1.0750 C   0  0  2  0  0  0  0  0  0  0  0  0
   -0.6920   -1.1090   -1.7440 C   0  0  1  0  0  0  0  0  0  0  0  0
    0.1830   -1.6390   -2.6930 O   0  0  0  0  0  0  0  0  0  0  0  0
   -1.2510   -2.1060   -0.7880 C   0  0  0  0  0  0  0  0  0  0  0  0
   -2.2710   -1.4350    0.0710 C   0  0  0  0  0  0  0  0  0  0  0  0
   -1.8940   -0.8590    1.2630 C   0  0  0  0  0  0  0  0  0  0  0  0
   -2.8320   -0.2420    2.0610 C   0  0  0  0  0  0  0  0  0  0  0  0
   -4.1730   -0.2150    1.6320 C   0  0  0  0  0  0  0  0  0  0  0  0
   -4.5470   -0.7860    0.4500 C   0  0  0  0  0  0  0  0  0  0  0  0
   -5.9100   -0.7860   -0.0250 C   0  0  0  0  0  0  0  0  0  0  0  0
   -6.2290   -1.1270   -1.1990 O   0  0  0  0  0  0  0  0  0  0  0  0
   -6.9710   -0.3940    0.8320 N   0  0  0  0  0  0  0  0  0  0  0  0
   -8.3350   -0.3960    0.3490 C   0  0  1  0  0  0  0  0  0  0  0  0
   -8.7740   -1.7720   -0.1020 C   0  0  0  0  0  0  0  0  0  0  0  0
   -9.2380    0.0290    1.4860 C   0  0  0  0  0  0  0  0  0  0  0  0
   -9.2320    1.5320    1.3230 C   0  0  0  0  0  0  0  0  0  0  0  0
   -8.8610    1.8340    0.0430 O   0  0  0  0  0  0  0  0  0  0  0  0
   -8.6180    0.6770   -0.6590 C   0  0  0  0  0  0  0  0  0  0  0  0
   -3.5990   -1.4080   -0.3540 C   0  0  0  0  0  0  0  0  0  0  0  0
    0.2100    1.0230   -2.0920 O   0  0  0  0  0  0  0  0  0  0  0  0
    1.0640    2.0820   -1.8170 C   0  0  0  0  0  0  0  0  0  0  0  0
    0.9410    3.2640   -2.5320 C   0  0  0  0  0  0  0  0  0  0  0  0
    1.7510    4.3410   -2.2990 C   0  0  0  0  0  0  0  0  0  0  0  0
    2.7100    4.2030   -1.3110 C   0  0  0  0  0  0  0  0  0  0  0  0
    2.8540    3.0520   -0.5930 C   0  0  0  0  0  0  0  0  0  0  0  0
    2.0410    1.9700   -0.8290 C   0  0  0  0  0  0  0  0  0  0  0  0
  1  2  1  0
  2  3  2  0
  2  7  1  0
  3  4  1  0
  4  5  2  0
  5  6  1  0
  6  7  2  0
  7  8  1  0
  8  9  1  0
  9 10  1  0
 10 11  1  0
 11 12  1  0
 12 13  1  0
 12 40  1  0
 13 14  2  0
 13 15  1  0
 15 16  1  0
 15 34  1  6
 16 17  1  6
 16 18  1  0
 18 19  1  0
 19 20  2  0
 19 33  1  0
 20 21  1  0
 21 22  2  0
 22 23  1  0
 23 24  1  0
 23 33  2  0
 24 25  2  0
 24 26  1  0
 26 27  1  0
 27 28  1  6
 27 29  1  0
 27 32  1  0
 29 30  1  0
 30 31  1  0
 31 32  1  0
 34 35  1  0
 35 36  2  0
 35 40  1  0
 36 37  1  0
 37 38  2  0
 38 39  1  0
 39 40  2  0
M  END
