
     RDKit          3D

 40 44  0  0  0  0  0  0  0  0999 V2000
    8.9680   -2.2120    1.6180 C   0  0  0  0  0  0  0  0  0  0  0  0
    7.8070   -1.3890    1.2550 C   0  0  0  0  0  0  0  0  0  0  0  0
    7.1690   -0.6790    2.2720 C   0  0  0  0  0  0  0  0  0  0  0  0
    7.6400   -0.7670    3.5670 O   0  0  0  0  0  0  0  0  0  0  0  0
    6.0810    0.0970    1.9680 C   0  0  0  0  0  0  0  0  0  0  0  0
    5.6430    0.1600    0.6690 C   0  0  0  0  0  0  0  0  0  0  0  0
    4.4980    0.9840    0.3780 N   0  0  0  0  0  0  0  0  0  0  0  0
    3.3960    0.6520   -0.2940 C   0  0  0  0  0  0  0  0  0  0  0  0
    2.5710    1.7430   -0.3340 C   0  0  0  0  0  0  0  0  0  0  0  0
    1.3150    1.8570   -0.9320 N   0  0  0  0  0  0  0  0  0  0  0  0
    0.1750    1.6770   -0.3760 C   0  0  0  0  0  0  0  0  0  0  0  0
   -0.9930    1.8660   -1.2520 N   0  0  0  0  0  0  0  0  0  0  0  0
   -1.8250    0.9160   -1.5700 C   0  0  0  0  0  0  0  0  0  0  0  0
   -2.8850    1.1320   -2.3770 C   0  0  0  0  0  0  0  0  0  0  0  0
   -3.9510    0.2860   -2.8880 C   0  0  0  0  0  0  0  0  0  0  0  0
   -5.1370    0.2620   -2.0630 N   0  0  1  0  0  0  0  0  0  0  0  0
   -6.1200   -0.5490   -2.7910 C   0  0  0  0  0  0  0  0  0  0  0  0
   -7.3870   -0.7180   -1.9970 C   0  0  0  0  0  0  0  0  0  0  0  0
   -7.3350   -0.1150   -0.6320 C   0  0  0  0  0  0  0  0  0  0  0  0
   -6.0600   -0.5160    0.0730 C   0  0  2  0  0  0  0  0  0  0  0  0
   -6.2450   -1.8650    0.7120 C   0  0  0  0  0  0  0  0  0  0  0  0
   -7.0790   -1.5580    1.9380 C   0  0  0  0  0  0  0  0  0  0  0  0
   -6.9490   -0.0850    2.2010 C   0  0  0  0  0  0  0  0  0  0  0  0
   -5.8690    0.4230    1.2450 C   0  0  0  0  0  0  0  0  0  0  0  0
   -4.8610   -0.4580   -0.8380 C   0  0  0  0  0  0  0  0  0  0  0  0
   -2.7450    2.8770   -2.7690 S   0  0  0  0  0  0  0  0  0  0  0  0
   -1.2170    3.1250   -1.7630 C   0  0  0  0  0  0  0  0  0  0  0  0
   -0.6110    4.1900   -1.6360 O   0  0  0  0  0  0  0  0  0  0  0  0
    0.0450    1.3130    1.0220 C   0  0  1  0  0  0  0  0  0  0  0  0
   -0.7650    2.4160    1.7090 C   0  0  0  0  0  0  0  0  0  0  0  0
   -0.6040   -0.0350    1.2480 C   0  0  0  0  0  0  0  0  0  0  0  0
    1.2800    1.2950    1.6550 O   0  0  0  0  0  0  0  0  0  0  0  0
    3.2090    2.7560    0.3390 C   0  0  0  0  0  0  0  0  0  0  0  0
    4.3760    2.2430    0.7510 N   0  0  0  0  0  0  0  0  0  0  0  0
    6.3000   -0.5540   -0.2970 C   0  0  0  0  0  0  0  0  0  0  0  0
    5.8640   -0.4680   -1.4740 O   0  0  0  0  0  0  0  0  0  0  0  0
    7.3710   -1.3210   -0.0100 N   0  0  0  0  0  0  0  0  0  0  0  0
    8.0090   -2.0460   -1.0880 C   0  0  0  0  0  0  0  0  0  0  0  0
    9.0940   -1.1580   -1.6960 C   0  0  0  0  0  0  0  0  0  0  0  0
    9.7300   -1.8270   -2.7380 O   0  0  0  0  0  0  0  0  0  0  0  0
  1  2  1  0
  2  3  2  0
  2 37  1  0
  3  4  1  0
  3  5  1  0
  5  6  2  0
  6  7  1  0
  6 35  1  0
  7  8  1  0
  7 34  1  0
  8  9  2  0
  9 10  1  0
  9 33  1  0
 10 11  2  3
 11 12  1  0
 11 29  1  0
 12 13  1  0
 12 27  1  0
 13 14  2  0
 14 15  1  0
 14 26  1  0
 16 15  1  6
 16 17  1  0
 16 25  1  0
 17 18  1  0
 18 19  1  0
 20 19  1  6
 20 21  1  0
 20 24  1  0
 20 25  1  0
 21 22  1  0
 22 23  1  0
 23 24  1  0
 26 27  1  0
 27 28  2  0
 29 30  1  1
 29 31  1  0
 29 32  1  0
 33 34  2  0
 35 36  2  0
 35 37  1  0
 37 38  1  0
 38 39  1  0
 39 40  1  0
M  CHG  1  16   1
M  END
