
     RDKit          3D

 39 42  0  0  0  0  0  0  0  0999 V2000
   10.6470    0.9080   -0.9570 O   0  0  0  0  0  0  0  0  0  0  0  0
    9.9920    0.8950    0.1190 C   0  0  0  0  0  0  0  0  0  0  0  0
   10.1380    1.9200    0.9800 F   0  0  0  0  0  0  0  0  0  0  0  0
    9.1050   -0.1580    0.4580 N   0  0  0  0  0  0  0  0  0  0  0  0
    8.8950   -1.2810   -0.4070 C   0  0  0  0  0  0  0  0  0  0  0  0
    7.9210   -2.2950    0.0720 C   0  0  1  0  0  0  0  0  0  0  0  0
    8.2020   -2.8420    1.3180 O   0  0  0  0  0  0  0  0  0  0  0  0
    6.4840   -2.0300   -0.0920 C   0  0  0  0  0  0  0  0  0  0  0  0
    5.9160   -0.7980    0.5510 C   0  0  2  0  0  0  0  0  0  0  0  0
    4.4010   -0.8030    0.2530 C   0  0  0  0  0  0  0  0  0  0  0  0
    3.8500    0.3930    0.8370 N   0  0  0  0  0  0  0  0  0  0  0  0
    2.4810    0.4470    1.1440 C   0  0  0  0  0  0  0  0  0  0  0  0
    1.9250    1.4840    1.6330 O   0  0  0  0  0  0  0  0  0  0  0  0
    1.6010   -0.7200    0.9150 C   0  0  0  0  0  0  0  0  0  0  0  0
    0.1620   -0.4130    1.1710 C   0  0  0  0  0  0  0  0  0  0  0  0
   -0.3880    0.6310    0.3340 N   0  0  0  0  0  0  0  0  0  0  0  0
   -0.3620    0.4660   -1.0780 C   0  0  0  0  0  0  0  0  0  0  0  0
    0.1340   -0.5380   -1.5890 O   0  0  0  0  0  0  0  0  0  0  0  0
   -0.9630    1.5810   -1.8920 C   0  0  0  0  0  0  0  0  0  0  0  0
   -0.1490    2.3980   -2.5730 C   0  0  0  0  0  0  0  0  0  0  0  0
   -0.6600    3.4700   -3.2740 C   0  0  0  0  0  0  0  0  0  0  0  0
   -2.4530    3.3260   -2.9540 S   0  0  0  0  0  0  0  0  0  0  0  0
   -2.2840    1.7830   -1.8790 C   0  0  0  0  0  0  0  0  0  0  0  0
   -3.4710    1.1800   -1.3450 C   0  0  0  0  0  0  0  0  0  0  0  0
   -4.7260    1.7660   -1.4820 C   0  0  0  0  0  0  0  0  0  0  0  0
   -5.8730    1.1690   -1.0060 C   0  0  0  0  0  0  0  0  0  0  0  0
   -5.8610   -0.0500   -0.3590 C   0  0  0  0  0  0  0  0  0  0  0  0
   -6.9650   -0.7040    0.1410 O   0  0  0  0  0  0  0  0  0  0  0  0
   -8.2790   -0.3100    0.0550 C   0  0  2  0  0  0  0  0  0  0  0  0
   -8.7970    0.2640    1.3850 C   0  0  0  0  0  0  0  0  0  0  0  0
   -9.9700   -0.5850    1.7930 C   0  0  0  0  0  0  0  0  0  0  0  0
   -9.7410   -1.9020    1.0590 C   0  0  0  0  0  0  0  0  0  0  0  0
   -9.2520   -1.3870   -0.2700 C   0  0  1  0  0  0  0  0  0  0  0  0
  -10.3350   -0.7530   -0.9250 O   0  0  0  0  0  0  0  0  0  0  0  0
   -4.5980   -0.6410   -0.2190 C   0  0  0  0  0  0  0  0  0  0  0  0
   -3.4620   -0.0280   -0.7040 C   0  0  0  0  0  0  0  0  0  0  0  0
    4.7320    1.4910    1.0850 C   0  0  0  0  0  0  0  0  0  0  0  0
    5.7510    1.4550   -0.0650 C   0  0  0  0  0  0  0  0  0  0  0  0
    6.4700    0.2920   -0.1130 O   0  0  0  0  0  0  0  0  0  0  0  0
  1  2  2  0
  2  3  1  0
  2  4  1  0
  4  5  1  0
  5  6  1  0
  6  7  1  1
  6  8  1  0
  9  8  1  6
  9 10  1  0
  9 39  1  0
 10 11  1  0
 11 12  1  0
 11 37  1  0
 12 13  2  0
 12 14  1  0
 14 15  1  0
 15 16  1  0
 16 17  1  0
 17 18  2  0
 17 19  1  0
 19 20  1  0
 19 23  2  0
 20 21  2  0
 21 22  1  0
 22 23  1  0
 23 24  1  0
 24 25  2  0
 24 36  1  0
 25 26  1  0
 26 27  2  0
 27 28  1  0
 27 35  1  0
 29 28  1  1
 29 30  1  0
 29 33  1  0
 30 31  1  0
 31 32  1  0
 32 33  1  0
 33 34  1  6
 35 36  2  0
 37 38  1  0
 38 39  1  0
M  END
