
     RDKit          3D

 40 43  0  0  0  0  0  0  0  0999 V2000
    2.0080    1.5570   -0.6720 C   0  0  0  0  0  0  0  0  0  0  0  0
    2.4840    0.1270   -0.3570 C   0  0  1  0  0  0  0  0  0  0  0  0
    2.0630   -0.0830    1.1050 C   0  0  0  0  0  0  0  0  0  0  0  0
    1.6940   -0.8700   -1.1430 C   0  0  0  0  0  0  0  0  0  0  0  0
    1.8180   -0.7750   -2.6280 C   0  0  1  0  0  0  0  0  0  0  0  0
    0.9380    0.2360   -3.2670 C   0  0  0  0  0  0  0  0  0  0  0  0
    1.4860    1.0960   -3.9830 O   0  0  0  0  0  0  0  0  0  0  0  0
   -0.4480    0.2730   -3.1130 N   0  0  0  0  0  0  0  0  0  0  0  0
   -1.3970    1.1680   -3.6650 C   0  0  0  0  0  0  0  0  0  0  0  0
   -1.0420    2.1500   -4.5420 C   0  0  0  0  0  0  0  0  0  0  0  0
   -1.9860    3.0210   -5.0940 C   0  0  0  0  0  0  0  0  0  0  0  0
   -3.2890    2.8560   -4.7220 C   0  0  0  0  0  0  0  0  0  0  0  0
   -3.6850    1.8800   -3.8430 C   0  0  0  0  0  0  0  0  0  0  0  0
   -2.7590    1.0250   -3.3010 C   0  0  0  0  0  0  0  0  0  0  0  0
   -3.0210    0.0410   -2.4390 O   0  0  0  0  0  0  0  0  0  0  0  0
   -4.0020   -0.5580   -1.7500 C   0  0  0  0  0  0  0  0  0  0  0  0
   -4.7670    0.1870   -0.7110 C   0  0  2  0  0  0  0  0  0  0  0  0
   -5.4700    1.2870   -1.1160 O   0  0  0  0  0  0  0  0  0  0  0  0
   -3.9020    0.6160    0.4580 C   0  0  1  0  0  0  0  0  0  0  0  0
   -2.7360    1.5120    0.2380 C   0  0  0  0  0  0  0  0  0  0  0  0
   -4.7220    0.9630    1.7030 C   0  0  0  0  0  0  0  0  0  0  0  0
   -3.8410   -0.2900    1.6920 C   0  0  1  0  0  0  0  0  0  0  0  0
   -4.5650   -1.4530    1.6870 O   0  0  0  0  0  0  0  0  0  0  0  0
   -4.0730   -2.4890    2.4310 C   0  0  0  0  0  0  0  0  0  0  0  0
   -3.9320   -2.2420    3.8960 C   0  0  2  0  0  0  0  0  0  0  0  0
   -5.1260   -1.9330    4.5090 F   0  0  0  0  0  0  0  0  0  0  0  0
   -2.9040   -1.3880    4.2290 F   0  0  0  0  0  0  0  0  0  0  0  0
    3.5480   -0.4420   -3.1180 S   0  0  0  0  0  0  0  0  0  0  0  0
    4.4790   -0.5660   -1.5910 C   0  0  0  0  0  0  0  0  0  0  0  0
    5.5890   -1.1480   -1.5060 O   0  0  0  0  0  0  0  0  0  0  0  0
    3.8990    0.0360   -0.4390 N   0  0  0  0  0  0  0  0  0  0  0  0
    4.7620    0.5550    0.6330 C   0  0  0  0  0  0  0  0  0  0  0  0
    5.0400   -0.4720    1.6360 C   0  0  0  0  0  0  0  0  0  0  0  0
    4.7490   -1.8120    1.5480 C   0  0  0  0  0  0  0  0  0  0  0  0
    5.1860   -2.3910    2.7140 C   0  0  0  0  0  0  0  0  0  0  0  0
    5.7330   -1.3850    3.4800 C   0  0  0  0  0  0  0  0  0  0  0  0
    6.3250   -1.5450    4.8100 C   0  0  0  0  0  0  0  0  0  0  0  0
    6.8420   -0.4080    5.4660 N   0  0  0  0  0  0  0  0  0  0  0  0
    6.3790   -2.6560    5.3680 O   0  0  0  0  0  0  0  0  0  0  0  0
    5.6170   -0.2810    2.7930 O   0  0  0  0  0  0  0  0  0  0  0  0
  2  1  1  6
  2  3  1  0
  2  4  1  0
  2 31  1  0
  4  5  1  0
  5  6  1  1
  5 28  1  0
  6  7  2  0
  6  8  1  0
  8  9  1  0
  9 10  2  0
  9 14  1  0
 10 11  1  0
 11 12  2  0
 12 13  1  0
 13 14  2  0
 14 15  1  0
 15 16  1  0
 16 17  1  0
 17 18  1  6
 17 19  1  0
 19 20  1  6
 19 21  1  0
 19 22  1  0
 21 22  1  0
 22 23  1  6
 23 24  1  0
 24 25  1  0
 25 26  1  6
 25 27  1  0
 28 29  1  0
 29 30  2  0
 29 31  1  0
 31 32  1  0
 32 33  1  0
 33 34  2  0
 33 40  1  0
 34 35  1  0
 35 36  2  0
 36 37  1  0
 36 40  1  0
 37 38  1  0
 37 39  2  0
M  END
