
     RDKit          3D

 40 43  0  0  0  0  0  0  0  0999 V2000
   -8.1590    1.5910    3.3880 C   0  0  0  0  0  0  0  0  0  0  0  0
   -6.9980    1.9790    2.6510 O   0  0  0  0  0  0  0  0  0  0  0  0
   -7.0180    2.0590    1.2650 C   0  0  0  0  0  0  0  0  0  0  0  0
   -8.0830    1.7820    0.6730 O   0  0  0  0  0  0  0  0  0  0  0  0
   -5.8100    2.4650    0.5110 C   0  0  1  0  0  0  0  0  0  0  0  0
   -5.4920    3.9320    0.8350 C   0  0  0  0  0  0  0  0  0  0  0  0
   -4.3660    1.4590    0.8560 S   0  0  0  0  0  0  0  0  0  0  0  0
   -4.5650   -0.1830    0.2280 C   0  0  0  0  0  0  0  0  0  0  0  0
   -5.6660   -0.5770   -0.4950 C   0  0  0  0  0  0  0  0  0  0  0  0
   -5.8310   -1.8540   -0.9760 C   0  0  0  0  0  0  0  0  0  0  0  0
   -7.0140   -2.2010   -1.7310 C   0  0  0  0  0  0  0  0  0  0  0  0
   -7.9880   -1.2260   -2.0050 N   0  0  0  0  0  0  0  0  0  0  0  0
   -7.1630   -3.3750   -2.1370 O   0  0  0  0  0  0  0  0  0  0  0  0
   -4.8160   -2.7610   -0.6980 C   0  0  0  0  0  0  0  0  0  0  0  0
   -3.7030   -2.3870    0.0250 C   0  0  0  0  0  0  0  0  0  0  0  0
   -3.5650   -1.1170    0.4890 C   0  0  0  0  0  0  0  0  0  0  0  0
   -2.3570   -0.9890    1.1890 O   0  0  0  0  0  0  0  0  0  0  0  0
   -1.5010   -2.0520    0.8080 C   0  0  2  0  0  0  0  0  0  0  0  0
   -0.8320   -1.6950   -0.4730 C   0  0  0  0  0  0  0  0  0  0  0  0
   -1.0770   -0.5950   -1.0340 O   0  0  0  0  0  0  0  0  0  0  0  0
    0.0990   -2.5520   -1.1220 N   0  0  0  0  0  0  0  0  0  0  0  0
    0.7310   -2.1810   -2.3610 C   0  0  0  0  0  0  0  0  0  0  0  0
    1.5370   -0.9290   -2.2700 C   0  0  0  0  0  0  0  0  0  0  0  0
    2.6510   -0.9920   -1.2820 C   0  0  0  0  0  0  0  0  0  0  0  0
    3.3870    0.3100   -1.2720 C   0  0  0  0  0  0  0  0  0  0  0  0
    2.9690    1.1980   -2.0580 O   0  0  0  0  0  0  0  0  0  0  0  0
    4.4890    0.5090   -0.4180 N   0  0  0  0  0  0  0  0  0  0  0  0
    4.9250   -0.5600    0.4590 C   0  0  0  0  0  0  0  0  0  0  0  0
    6.4200   -0.6650    0.5360 C   0  0  2  0  0  0  0  0  0  0  0  0
    6.8270   -1.1910    1.8990 C   0  0  0  0  0  0  0  0  0  0  0  0
    8.3220   -1.3180    2.0330 C   0  0  2  0  0  0  0  0  0  0  0  0
    8.8730   -0.0510    1.8490 F   0  0  0  0  0  0  0  0  0  0  0  0
    8.8690   -2.2230    1.1820 F   0  0  0  0  0  0  0  0  0  0  0  0
    7.1110    0.4730    0.2670 O   0  0  0  0  0  0  0  0  0  0  0  0
    6.6640    1.3020   -0.7110 C   0  0  0  0  0  0  0  0  0  0  0  0
    5.2360    1.7200   -0.3530 C   0  0  1  0  0  0  0  0  0  0  0  0
    4.7430    2.9400   -1.0300 C   0  0  0  0  0  0  0  0  0  0  0  0
    5.3540    3.7440    0.1370 C   0  0  0  0  0  0  0  0  0  0  0  0
    5.1590    2.4650    0.9680 C   0  0  0  0  0  0  0  0  0  0  0  0
   -2.5060   -3.1550    0.4440 C   0  0  0  0  0  0  0  0  0  0  0  0
  1  2  1  0
  2  3  1  0
  3  4  2  0
  3  5  1  0
  5  6  1  1
  5  7  1  0
  7  8  1  0
  8  9  2  0
  8 16  1  0
  9 10  1  0
 10 11  1  0
 10 14  2  0
 11 12  1  0
 11 13  2  0
 14 15  1  0
 15 16  2  0
 15 40  1  0
 16 17  1  0
 17 18  1  0
 18 19  1  6
 18 40  1  0
 19 20  2  0
 19 21  1  0
 21 22  1  0
 22 23  1  0
 23 24  1  0
 24 25  1  0
 25 26  2  0
 25 27  1  0
 27 28  1  0
 27 36  1  0
 28 29  1  0
 29 30  1  1
 29 34  1  0
 30 31  1  0
 31 32  1  6
 31 33  1  0
 34 35  1  0
 36 35  1  6
 36 37  1  0
 36 39  1  0
 37 38  1  0
 38 39  1  0
M  END
