
     RDKit          3D

 40 44  0  0  0  0  0  0  0  0999 V2000
    3.8710    2.0440   -0.6630 N   0  0  0  0  0  0  0  0  0  0  0  0
    4.5080    1.4720    0.2300 N   0  0  0  0  0  0  0  0  0  0  0  0
    4.7240    0.8550    1.2730 N   0  0  0  0  0  0  0  0  0  0  0  0
    5.2790   -0.4910    1.2660 C   0  0  1  0  0  0  0  0  0  0  0  0
    4.1000   -1.4430    1.2980 C   0  0  2  0  0  0  0  0  0  0  0  0
    4.4020   -2.4910    2.1680 O   0  0  0  0  0  0  0  0  0  0  0  0
    4.0430   -1.9130   -0.1400 C   0  0  1  0  0  0  0  0  0  0  0  0
    2.6090   -1.9460   -0.5690 C   0  0  0  0  0  0  0  0  0  0  0  0
    1.8630   -2.8770    0.1400 O   0  0  0  0  0  0  0  0  0  0  0  0
    0.2620   -2.9000   -0.3570 S   0  0  2  0  0  0  0  0  0  0  0  0
   -0.5070   -3.9330    0.4150 O   0  0  0  0  0  0  0  0  0  0  0  0
    0.1960   -3.3360   -1.8150 O   0  0  0  0  0  0  0  0  0  0  0  0
   -0.5110   -1.3770   -0.1450 N   0  0  0  0  0  0  0  0  0  0  0  0
   -1.8800   -1.3140    0.2330 C   0  0  0  0  0  0  0  0  0  0  0  0
   -2.5320   -2.3900    0.4140 O   0  0  0  0  0  0  0  0  0  0  0  0
   -2.5770   -0.0260    0.4240 C   0  0  0  0  0  0  0  0  0  0  0  0
   -4.0190   -0.2810    0.8140 C   0  0  0  0  0  0  0  0  0  0  0  0
   -4.6650    1.0830    0.9880 C   0  0  0  0  0  0  0  0  0  0  0  0
   -6.1250    0.9660    1.3830 C   0  0  0  0  0  0  0  0  0  0  0  0
   -6.8720    0.2250    0.3250 C   0  0  2  0  0  0  0  0  0  0  0  0
   -6.7680    1.0970   -1.2890 S   0  0  0  0  0  0  0  0  0  0  0  0
   -8.5010    0.8300   -1.8360 C   0  0  0  0  0  0  0  0  0  0  0  0
   -9.0160   -0.0900   -0.7790 C   0  0  2  0  0  0  0  0  0  0  0  0
  -10.4010    0.3310   -0.5080 N   0  0  0  0  0  0  0  0  0  0  0  0
  -10.2310    1.5280    0.2730 C   0  0  0  0  0  0  0  0  0  0  0  0
  -11.0680    2.4530    0.4260 O   0  0  0  0  0  0  0  0  0  0  0  0
   -8.9190    1.5040    0.8690 N   0  0  0  0  0  0  0  0  0  0  0  0
   -8.3610    0.2340    0.5290 C   0  0  2  0  0  0  0  0  0  0  0  0
    4.7820   -0.9610   -0.8710 O   0  0  0  0  0  0  0  0  0  0  0  0
    5.9070   -0.8430   -0.0500 C   0  0  1  0  0  0  0  0  0  0  0  0
    6.8510    0.1090   -0.5360 N   0  0  0  0  0  0  0  0  0  0  0  0
    6.7390    0.7610   -1.7040 C   0  0  0  0  0  0  0  0  0  0  0  0
    7.7860    1.5910   -1.8800 N   0  0  0  0  0  0  0  0  0  0  0  0
    8.5680    1.4580   -0.8030 C   0  0  0  0  0  0  0  0  0  0  0  0
    9.7600    2.0750   -0.4780 C   0  0  0  0  0  0  0  0  0  0  0  0
   10.4060    3.0300   -1.2950 N   0  0  0  0  0  0  0  0  0  0  0  0
   10.3350    1.7420    0.6900 N   0  0  0  0  0  0  0  0  0  0  0  0
    9.7630    0.8320    1.5170 C   0  0  0  0  0  0  0  0  0  0  0  0
    8.6090    0.2490    1.1780 N   0  0  0  0  0  0  0  0  0  0  0  0
    7.9780    0.5260    0.0390 C   0  0  0  0  0  0  0  0  0  0  0  0
  1  2  2  0
  2  3  2  0
  4  3  1  6
  4  5  1  0
  4 30  1  0
  5  6  1  1
  5  7  1  0
  7  8  1  6
  7 29  1  0
  8  9  1  0
  9 10  1  0
 10 11  2  0
 10 12  2  0
 10 13  1  6
 13 14  1  0
 14 15  2  0
 14 16  1  0
 16 17  1  0
 17 18  1  0
 18 19  1  0
 20 19  1  1
 20 21  1  0
 20 28  1  0
 21 22  1  0
 23 22  1  6
 23 24  1  0
 23 28  1  0
 24 25  1  0
 25 26  2  0
 25 27  1  0
 28 27  1  6
 29 30  1  0
 30 31  1  6
 31 32  1  0
 31 40  1  0
 32 33  2  0
 33 34  1  0
 34 35  2  0
 34 40  1  0
 35 36  1  0
 35 37  1  0
 37 38  2  0
 38 39  1  0
 39 40  2  0
M  CHG  2   1  -1   2   1
M  END
