
     RDKit          3D

 40 43  0  0  0  0  0  0  0  0999 V2000
    9.3060    0.0270    1.4350 C   0  0  0  0  0  0  0  0  0  0  0  0
    9.2190    0.4500   -0.0080 C   0  0  0  0  0  0  0  0  0  0  0  0
    8.4600   -0.6430   -0.7730 C   0  0  0  0  0  0  0  0  0  0  0  0
    7.1870   -0.7190   -0.1600 O   0  0  0  0  0  0  0  0  0  0  0  0
    6.2000   -1.5870   -0.5580 C   0  0  0  0  0  0  0  0  0  0  0  0
    6.3890   -2.3760   -1.5100 O   0  0  0  0  0  0  0  0  0  0  0  0
    4.8860   -1.5820    0.1610 C   0  0  0  0  0  0  0  0  0  0  0  0
    3.9590   -0.7240   -0.6630 C   0  0  2  0  0  0  0  0  0  0  0  0
    4.5260    0.5460   -0.7300 F   0  0  0  0  0  0  0  0  0  0  0  0
    2.5620   -0.6340   -0.0720 C   0  0  1  0  0  0  0  0  0  0  0  0
    2.6060   -0.0350    1.3250 C   0  0  0  0  0  0  0  0  0  0  0  0
    1.1880    0.1970    1.7160 C   0  0  0  0  0  0  0  0  0  0  0  0
    0.7120   -0.2130    2.8050 O   0  0  0  0  0  0  0  0  0  0  0  0
    0.3860    0.9120    0.7930 N   0  0  0  0  0  0  0  0  0  0  0  0
    0.6930    0.8400   -0.5850 C   0  0  0  0  0  0  0  0  0  0  0  0
   -0.2310    1.6850   -1.8520 S   0  0  0  0  0  0  0  0  0  0  0  0
   -1.7350    2.4840   -1.3120 C   0  0  2  0  0  0  0  0  0  0  0  0
   -1.4340    3.5010   -0.2540 C   0  0  0  0  0  0  0  0  0  0  0  0
   -2.8820    1.5980   -1.0530 C   0  0  0  0  0  0  0  0  0  0  0  0
   -3.8110    1.6640   -1.8400 O   0  0  0  0  0  0  0  0  0  0  0  0
   -2.9350    0.6960    0.0580 C   0  0  0  0  0  0  0  0  0  0  0  0
   -4.0980   -0.2700    0.1650 C   0  0  2  0  0  0  0  0  0  0  0  0
   -5.4200    0.4280    0.1550 C   0  0  0  0  0  0  0  0  0  0  0  0
   -5.7390    1.4560    1.0120 C   0  0  0  0  0  0  0  0  0  0  0  0
   -6.9770    2.0720    1.0090 C   0  0  0  0  0  0  0  0  0  0  0  0
   -7.9470    1.6590    0.1230 C   0  0  0  0  0  0  0  0  0  0  0  0
   -9.1740    2.2800    0.1300 F   0  0  0  0  0  0  0  0  0  0  0  0
   -7.6690    0.6430   -0.7410 C   0  0  0  0  0  0  0  0  0  0  0  0
   -6.4030    0.0350   -0.7160 C   0  0  0  0  0  0  0  0  0  0  0  0
   -3.9690   -0.6610    1.6480 C   0  0  0  0  0  0  0  0  0  0  0  0
   -3.8220   -1.8430    2.1070 C   0  0  0  0  0  0  0  0  0  0  0  0
   -3.7650   -2.9000    1.2550 O   0  0  0  0  0  0  0  0  0  0  0  0
   -3.8670   -2.6700   -0.1050 C   0  0  0  0  0  0  0  0  0  0  0  0
   -4.0220   -1.4660   -0.6690 C   0  0  0  0  0  0  0  0  0  0  0  0
   -4.0770   -1.7060   -2.1070 C   0  0  0  0  0  0  0  0  0  0  0  0
   -4.2100   -0.8860   -3.0320 O   0  0  0  0  0  0  0  0  0  0  0  0
   -3.9500   -3.0990   -2.3820 N   0  0  0  0  0  0  0  0  0  0  0  0
   -3.8180   -3.7120   -1.1370 C   0  0  0  0  0  0  0  0  0  0  0  0
   -3.6820   -4.9610   -0.9700 O   0  0  0  0  0  0  0  0  0  0  0  0
    1.7080    0.1120   -0.9250 N   0  0  0  0  0  0  0  0  0  0  0  0
  1  2  1  0
  2  3  1  0
  3  4  1  0
  4  5  1  0
  5  6  2  0
  5  7  1  0
  7  8  1  0
  8  9  1  1
  8 10  1  0
 10 11  1  1
 10 40  1  0
 11 12  1  0
 12 13  2  0
 12 14  1  0
 14 15  1  0
 15 16  1  0
 15 40  2  0
 16 17  1  0
 17 18  1  1
 17 19  1  0
 19 20  2  0
 19 21  1  0
 22 21  1  6
 22 23  1  0
 22 30  1  0
 22 34  1  0
 23 24  2  0
 23 29  1  0
 24 25  1  0
 25 26  2  0
 26 27  1  0
 26 28  1  0
 28 29  2  0
 30 31  2  0
 31 32  1  0
 32 33  1  0
 33 34  2  0
 33 38  1  0
 34 35  1  0
 35 36  2  0
 35 37  1  0
 37 38  1  0
 38 39  2  0
M  END
