
     RDKit          3D

 40 42  0  0  0  0  0  0  0  0999 V2000
   -0.5950    5.7260   -1.0850 C   0  0  0  0  0  0  0  0  0  0  0  0
    0.0730    4.6920   -1.5710 C   0  0  0  0  0  0  0  0  0  0  0  0
    1.4830    4.4950   -1.1850 C   0  0  0  0  0  0  0  0  0  0  0  0
    1.7020    3.1840   -0.4700 C   0  0  0  0  0  0  0  0  0  0  0  0
    1.3460    1.9700   -1.2540 C   0  0  1  0  0  0  0  0  0  0  0  0
    2.1000    1.8090   -2.5240 C   0  0  0  0  0  0  0  0  0  0  0  0
    1.6840    0.8130   -0.4140 N   0  0  0  0  0  0  0  0  0  0  0  0
    3.0110    0.5560    0.0230 C   0  0  0  0  0  0  0  0  0  0  0  0
    3.9660    1.2800   -0.2740 O   0  0  0  0  0  0  0  0  0  0  0  0
    3.2910   -0.5620    0.8330 O   0  0  0  0  0  0  0  0  0  0  0  0
    4.6420   -0.7960    1.2630 C   0  0  0  0  0  0  0  0  0  0  0  0
    4.5530   -2.0560    2.1160 C   0  0  2  0  0  0  0  0  0  0  0  0
    3.6550   -1.7210    3.1520 O   0  0  0  0  0  0  0  0  0  0  0  0
    5.8480   -2.4440    2.7070 C   0  0  0  0  0  0  0  0  0  0  0  0
    5.9540   -2.5140    4.0360 C   0  0  0  0  0  0  0  0  0  0  0  0
    7.0190   -2.7650    1.8590 C   0  0  0  0  0  0  0  0  0  0  0  0
    7.3500   -1.6580    1.0920 O   0  0  0  0  0  0  0  0  0  0  0  0
   -0.0570    1.9320   -1.3750 O   0  0  0  0  0  0  0  0  0  0  0  0
   -0.7440    0.9150   -2.0720 C   0  0  0  0  0  0  0  0  0  0  0  0
    0.0010    0.0660   -2.5680 O   0  0  0  0  0  0  0  0  0  0  0  0
   -2.1880    0.9250   -2.1600 C   0  0  0  0  0  0  0  0  0  0  0  0
   -2.9200   -0.3220   -2.4060 C   0  0  0  0  0  0  0  0  0  0  0  0
   -2.9570   -1.3490   -1.3430 C   0  0  2  0  0  0  0  0  0  0  0  0
   -1.7460   -1.9260   -0.8990 N   0  0  0  0  0  0  0  0  0  0  0  0
   -1.8520   -2.9000    0.1840 C   0  0  0  0  0  0  0  0  0  0  0  0
   -0.6260   -3.0330    1.2780 S   0  0  0  0  0  0  0  0  0  0  0  0
   -3.0130   -3.7090    0.2310 N   0  0  0  0  0  0  0  0  0  0  0  0
   -3.9940   -3.5320   -0.7670 C   0  0  0  0  0  0  0  0  0  0  0  0
   -4.9360   -4.3790   -0.7900 O   0  0  0  0  0  0  0  0  0  0  0  0
   -3.9610   -2.4270   -1.7530 C   0  0  1  0  0  0  0  0  0  0  0  0
   -5.2890   -1.7120   -1.6170 C   0  0  0  0  0  0  0  0  0  0  0  0
   -5.0660   -0.9510   -0.3650 C   0  0  0  0  0  0  0  0  0  0  0  0
   -3.7280   -0.7440   -0.1750 C   0  0  0  0  0  0  0  0  0  0  0  0
   -3.2710   -0.0730    0.9270 C   0  0  0  0  0  0  0  0  0  0  0  0
   -4.1590    0.4210    1.8930 C   0  0  0  0  0  0  0  0  0  0  0  0
   -3.6550    1.1460    3.0870 C   0  0  0  0  0  0  0  0  0  0  0  0
   -5.5030    0.2200    1.7120 C   0  0  0  0  0  0  0  0  0  0  0  0
   -6.3850    0.6890    2.6320 F   0  0  0  0  0  0  0  0  0  0  0  0
   -5.9380   -0.4650    0.5820 C   0  0  0  0  0  0  0  0  0  0  0  0
   -7.2550   -0.6450    0.4310 F   0  0  0  0  0  0  0  0  0  0  0  0
  1  2  2  0
  2  3  1  0
  3  4  1  0
  4  5  1  0
  5  6  1  6
  5  7  1  0
  5 18  1  0
  7  8  1  0
  8  9  2  0
  8 10  1  0
 10 11  1  0
 11 12  1  0
 12 13  1  1
 12 14  1  0
 14 15  2  0
 14 16  1  0
 16 17  1  0
 18 19  1  0
 19 20  2  0
 19 21  1  0
 21 22  1  0
 23 22  1  6
 23 24  1  0
 23 30  1  0
 23 33  1  0
 24 25  1  0
 25 26  2  0
 25 27  1  0
 27 28  1  0
 28 29  2  0
 28 30  1  0
 30 31  1  1
 31 32  1  0
 32 33  2  0
 32 39  1  0
 33 34  1  0
 34 35  2  0
 35 36  1  0
 35 37  1  0
 37 38  1  0
 37 39  2  0
 39 40  1  0
M  END
