
     RDKit          3D

 41 46  0  0  0  0  0  0  0  0999 V2000
   -3.8930   -0.4120    2.7910 C   0  0  0  0  0  0  0  0  0  0  0  0
   -3.2640   -1.0980    1.6850 N   0  0  0  0  0  0  0  0  0  0  0  0
   -3.9290   -0.8500    0.4110 C   0  0  1  0  0  0  0  0  0  0  0  0
   -3.1220    0.0650   -0.4180 C   0  0  0  0  0  0  0  0  0  0  0  0
   -2.5780    1.1670    0.1990 C   0  0  0  0  0  0  0  0  0  0  0  0
   -1.7950    2.1050   -0.4760 C   0  0  0  0  0  0  0  0  0  0  0  0
   -1.5500    1.9310   -1.8260 C   0  0  0  0  0  0  0  0  0  0  0  0
   -0.8380    2.9100   -2.6130 C   0  0  0  0  0  0  0  0  0  0  0  0
   -0.3850    4.0960   -2.4300 C   0  0  0  0  0  0  0  0  0  0  0  0
   -0.3030    5.1060   -1.4440 C   0  0  0  0  0  0  0  0  0  0  0  0
    0.3200    6.2380   -1.7400 O   0  0  0  0  0  0  0  0  0  0  0  0
   -0.7790    5.1360   -0.1660 O   0  0  0  0  0  0  0  0  0  0  0  0
   -0.6000    6.2480    0.6750 C   0  0  0  0  0  0  0  0  0  0  0  0
   -2.0830    0.8180   -2.4930 C   0  0  0  0  0  0  0  0  0  0  0  0
   -1.7970    0.5270   -3.9110 C   0  0  0  0  0  0  0  0  0  0  0  0
   -0.5760   -0.2410   -4.1980 C   0  0  0  0  0  0  0  0  0  0  0  0
    0.6970    0.1990   -3.8020 N   0  0  0  0  0  0  0  0  0  0  0  0
    1.6060    0.9690   -4.4450 C   0  0  0  0  0  0  0  0  0  0  0  0
    1.4200    1.4580   -5.5950 O   0  0  0  0  0  0  0  0  0  0  0  0
    2.6380    1.0770   -3.6550 O   0  0  0  0  0  0  0  0  0  0  0  0
    2.4850    0.4340   -2.5280 C   0  0  0  0  0  0  0  0  0  0  0  0
    3.2780    0.2510   -1.3970 C   0  0  0  0  0  0  0  0  0  0  0  0
    2.8630   -0.4960   -0.3220 C   0  0  0  0  0  0  0  0  0  0  0  0
    3.6790   -0.7110    0.8640 C   0  0  0  0  0  0  0  0  0  0  0  0
    3.5710   -1.8800    1.5890 C   0  0  0  0  0  0  0  0  0  0  0  0
    4.3290   -2.1250    2.7150 C   0  0  0  0  0  0  0  0  0  0  0  0
    5.2390   -1.1690    3.1490 C   0  0  0  0  0  0  0  0  0  0  0  0
    5.3660   -0.0020    2.4520 C   0  0  0  0  0  0  0  0  0  0  0  0
    4.5910    0.2090    1.3290 C   0  0  0  0  0  0  0  0  0  0  0  0
    6.3960    0.8320    3.1220 C   0  0  0  0  0  0  0  0  0  0  0  0
    6.3960    0.2950    4.5320 C   0  0  0  0  0  0  0  0  0  0  0  0
    6.1750   -1.1860    4.3150 C   0  0  0  0  0  0  0  0  0  0  0  0
    1.5930   -1.0820   -0.3940 C   0  0  0  0  0  0  0  0  0  0  0  0
    0.8110   -0.8950   -1.5200 C   0  0  0  0  0  0  0  0  0  0  0  0
    1.2390   -0.1430   -2.5940 C   0  0  0  0  0  0  0  0  0  0  0  0
   -2.8550   -0.0690   -1.7390 C   0  0  0  0  0  0  0  0  0  0  0  0
   -4.1320   -2.1990   -0.2420 C   0  0  1  0  0  0  0  0  0  0  0  0
   -2.8160   -2.8820   -0.4650 C   0  0  0  0  0  0  0  0  0  0  0  0
   -2.7870   -4.1180    0.4080 C   0  0  0  0  0  0  0  0  0  0  0  0
   -4.2040   -4.3560    0.8530 C   0  0  0  0  0  0  0  0  0  0  0  0
   -4.9430   -3.0500    0.6800 C   0  0  0  0  0  0  0  0  0  0  0  0
  1  2  1  0
  3  2  1  1
  3  4  1  0
  3 37  1  0
  4  5  2  0
  4 36  1  0
  5  6  1  0
  6  7  2  0
  7  8  1  0
  7 14  1  0
  8  9  2  3
  9 10  1  0
 10 11  2  0
 10 12  1  0
 12 13  1  0
 14 15  1  0
 14 36  2  0
 15 16  1  0
 16 17  1  0
 17 18  1  0
 17 35  1  0
 18 19  2  0
 18 20  1  0
 20 21  1  0
 21 22  2  0
 21 35  1  0
 22 23  1  0
 23 24  1  0
 23 33  2  0
 24 25  2  0
 24 29  1  0
 25 26  1  0
 26 27  2  0
 27 28  1  0
 27 32  1  0
 28 29  2  0
 28 30  1  0
 30 31  1  0
 31 32  1  0
 33 34  1  0
 34 35  2  0
 37 38  1  1
 37 41  1  0
 38 39  1  0
 39 40  1  0
 40 41  1  0
M  CHG  1   2   1
M  END
