
     RDKit          3D

 38 42  0  0  0  0  0  0  0  0999 V2000
    9.2840   -2.5260    1.5950 N   0  0  0  0  0  0  0  0  0  0  0  0
    8.1140   -2.1390    0.8990 C   0  0  0  0  0  0  0  0  0  0  0  0
    7.2460   -3.0100    0.3900 N   0  0  0  0  0  0  0  0  0  0  0  0
    6.1540   -2.5820   -0.2610 C   0  0  0  0  0  0  0  0  0  0  0  0
    5.9320   -1.2650   -0.4020 N   0  0  0  0  0  0  0  0  0  0  0  0
    6.7450   -0.3070    0.0740 C   0  0  0  0  0  0  0  0  0  0  0  0
    7.8750   -0.7840    0.7470 C   0  0  0  0  0  0  0  0  0  0  0  0
    8.5500    0.3110    1.1400 N   0  0  0  0  0  0  0  0  0  0  0  0
    7.8750    1.3990    0.7320 C   0  0  0  0  0  0  0  0  0  0  0  0
    6.7650    1.0250    0.0760 N   0  0  0  0  0  0  0  0  0  0  0  0
    5.7930    1.8960   -0.5080 C   0  0  2  0  0  0  0  0  0  0  0  0
    4.8190    2.2770    0.4150 O   0  0  0  0  0  0  0  0  0  0  0  0
    3.8030    2.8770   -0.3220 C   0  0  2  0  0  0  0  0  0  0  0  0
    2.4300    2.5680    0.2140 C   0  0  0  0  0  0  0  0  0  0  0  0
    2.1870    1.1340    0.1920 N   0  0  0  0  0  0  0  0  0  0  0  0
    0.6320    0.7380    0.7950 S   0  0  2  0  0  0  0  0  0  0  0  0
    0.1640    1.7520    1.8290 O   0  0  0  0  0  0  0  0  0  0  0  0
    0.6610   -0.5960    1.5150 O   0  0  0  0  0  0  0  0  0  0  0  0
   -0.5200    0.7290   -0.4830 N   0  0  0  0  0  0  0  0  0  0  0  0
   -1.8840    0.3420   -0.2570 C   0  0  0  0  0  0  0  0  0  0  0  0
   -2.1550    0.0190    0.9260 O   0  0  0  0  0  0  0  0  0  0  0  0
   -2.7810    0.3670   -1.3950 C   0  0  0  0  0  0  0  0  0  0  0  0
   -4.1400   -0.2430   -1.0220 C   0  0  0  0  0  0  0  0  0  0  0  0
   -3.9760   -1.6770   -0.6670 C   0  0  0  0  0  0  0  0  0  0  0  0
   -5.1740   -2.4660   -0.3080 C   0  0  0  0  0  0  0  0  0  0  0  0
   -5.8930   -2.0480    0.9110 C   0  0  2  0  0  0  0  0  0  0  0  0
   -7.3280   -3.2160    1.1720 S   0  0  0  0  0  0  0  0  0  0  0  0
   -8.6310   -1.9520    1.3780 C   0  0  0  0  0  0  0  0  0  0  0  0
   -7.8070   -0.7860    1.8040 C   0  0  2  0  0  0  0  0  0  0  0  0
   -8.4850    0.4280    1.4060 N   0  0  0  0  0  0  0  0  0  0  0  0
   -8.1630    0.6260    0.0340 C   0  0  0  0  0  0  0  0  0  0  0  0
   -8.6480    1.5280   -0.7160 O   0  0  0  0  0  0  0  0  0  0  0  0
   -7.1950   -0.3780   -0.3480 N   0  0  0  0  0  0  0  0  0  0  0  0
   -6.5850   -0.7560    0.8890 C   0  0  2  0  0  0  0  0  0  0  0  0
    3.8670    2.3110   -1.7290 C   0  0  1  0  0  0  0  0  0  0  0  0
    4.4140    3.2220   -2.6290 O   0  0  0  0  0  0  0  0  0  0  0  0
    4.9260    1.2090   -1.5410 C   0  0  1  0  0  0  0  0  0  0  0  0
    5.5730    0.9310   -2.7030 F   0  0  0  0  0  0  0  0  0  0  0  0
  1  2  1  0
  2  3  2  0
  2  7  1  0
  3  4  1  0
  4  5  2  0
  5  6  1  0
  6  7  2  0
  6 10  1  0
  7  8  1  0
  8  9  2  0
  9 10  1  0
 11 10  1  1
 11 12  1  0
 11 37  1  0
 12 13  1  0
 13 14  1  1
 13 35  1  0
 14 15  1  0
 16 15  1  6
 16 17  2  0
 16 18  2  0
 16 19  1  0
 19 20  1  0
 20 21  2  0
 20 22  1  0
 22 23  1  0
 23 24  1  0
 24 25  1  0
 26 25  1  6
 26 27  1  0
 26 34  1  0
 27 28  1  0
 29 28  1  6
 29 30  1  0
 29 34  1  0
 30 31  1  0
 31 32  2  0
 31 33  1  0
 34 33  1  6
 35 36  1  6
 35 37  1  0
 37 38  1  6
M  END
