
     RDKit          3D

 41 46  0  0  0  0  0  0  0  0999 V2000
    8.4330   -1.2760   -0.3410 C   0  0  0  0  0  0  0  0  0  0  0  0
    7.1570   -1.7590   -0.9530 C   0  0  0  0  0  0  0  0  0  0  0  0
    5.9850   -1.3150   -0.2220 N   0  0  0  0  0  0  0  0  0  0  0  0
    4.7960   -1.8900   -0.7810 C   0  0  0  0  0  0  0  0  0  0  0  0
    4.0270   -2.6940    0.2170 C   0  0  0  0  0  0  0  0  0  0  0  0
    3.5770   -1.9200    1.3840 C   0  0  0  0  0  0  0  0  0  0  0  0
    4.2370   -2.0710    2.5410 N   0  0  0  0  0  0  0  0  0  0  0  0
    3.9140   -1.4160    3.6660 C   0  0  0  0  0  0  0  0  0  0  0  0
    2.8380   -0.5530    3.5760 C   0  0  0  0  0  0  0  0  0  0  0  0
    2.1290   -0.3660    2.4120 C   0  0  0  0  0  0  0  0  0  0  0  0
    2.5170   -1.0720    1.2940 C   0  0  0  0  0  0  0  0  0  0  0  0
    1.8080   -0.8990    0.0830 O   0  0  0  0  0  0  0  0  0  0  0  0
    0.7410   -0.0520   -0.0250 C   0  0  0  0  0  0  0  0  0  0  0  0
    0.9130    1.0760   -0.7510 C   0  0  0  0  0  0  0  0  0  0  0  0
    2.2110    1.3480   -1.3850 C   0  0  0  0  0  0  0  0  0  0  0  0
    2.1220    2.4600   -2.3640 C   0  0  0  0  0  0  0  0  0  0  0  0
    0.7600    2.5490   -3.0240 C   0  0  0  0  0  0  0  0  0  0  0  0
   -0.2910    2.7490   -1.9680 C   0  0  0  0  0  0  0  0  0  0  0  0
   -0.1840    2.0200   -0.8860 C   0  0  0  0  0  0  0  0  0  0  0  0
   -1.2050    2.0950    0.2520 C   0  0  2  0  0  0  0  0  0  0  0  0
   -1.6590    0.6780    0.4180 C   0  0  0  0  0  0  0  0  0  0  0  0
   -2.8840    0.3290    0.3840 C   0  0  0  0  0  0  0  0  0  0  0  0
   -3.4850   -1.0280    0.5320 C   0  0  0  0  0  0  0  0  0  0  0  0
   -4.2750   -1.3880   -0.6780 C   0  0  0  0  0  0  0  0  0  0  0  0
   -4.3400   -0.5730   -1.6160 O   0  0  0  0  0  0  0  0  0  0  0  0
   -4.9580   -2.6570   -0.7730 C   0  0  0  0  0  0  0  0  0  0  0  0
   -4.9350   -3.6090    0.2230 C   0  0  0  0  0  0  0  0  0  0  0  0
   -5.5910   -4.8160    0.1190 C   0  0  0  0  0  0  0  0  0  0  0  0
   -6.3150   -5.1140   -1.0280 C   0  0  0  0  0  0  0  0  0  0  0  0
   -6.3550   -4.1850   -2.0350 C   0  0  0  0  0  0  0  0  0  0  0  0
   -5.6940   -2.9970   -1.9020 C   0  0  0  0  0  0  0  0  0  0  0  0
   -0.5680   -0.2760    0.5840 C   0  0  0  0  0  0  0  0  0  0  0  0
   -0.6870   -1.3320    1.2520 O   0  0  0  0  0  0  0  0  0  0  0  0
   -2.2240    3.0890    0.0090 C   0  0  0  0  0  0  0  0  0  0  0  0
   -3.2120    3.3090    0.9770 C   0  0  0  0  0  0  0  0  0  0  0  0
   -4.2290    4.2190    0.8280 C   0  0  0  0  0  0  0  0  0  0  0  0
   -5.2700    4.4410    1.8630 C   0  0  0  0  0  0  0  0  0  0  0  0
   -4.2440    4.9370   -0.3530 C   0  0  0  0  0  0  0  0  0  0  0  0
   -3.2800    4.7380   -1.3180 C   0  0  0  0  0  0  0  0  0  0  0  0
   -2.2590    3.8210   -1.1610 C   0  0  0  0  0  0  0  0  0  0  0  0
   -1.3000    3.6720   -2.1820 O   0  0  0  0  0  0  0  0  0  0  0  0
  1  2  1  0
  2  3  1  0
  3  4  1  0
  4  5  1  0
  5  6  1  0
  6  7  2  0
  6 11  1  0
  7  8  1  0
  8  9  2  0
  9 10  1  0
 10 11  2  0
 11 12  1  0
 12 13  1  0
 13 14  2  0
 13 32  1  0
 14 15  1  0
 14 19  1  0
 15 16  1  0
 16 17  1  0
 17 18  1  0
 18 19  2  0
 18 41  1  0
 19 20  1  0
 20 21  1  6
 20 34  1  0
 21 22  2  3
 21 32  1  0
 22 23  1  0
 23 24  1  0
 24 25  2  0
 24 26  1  0
 26 27  2  0
 26 31  1  0
 27 28  1  0
 28 29  2  0
 29 30  1  0
 30 31  2  0
 32 33  2  0
 34 35  2  0
 34 40  1  0
 35 36  1  0
 36 37  1  0
 36 38  2  0
 38 39  1  0
 39 40  2  0
 40 41  1  0
M  CHG  1   3   1
M  END
