
     RDKit          3D

 41 46  0  0  0  0  0  0  0  0999 V2000
   -2.7970   -3.1750   -1.5200 C   0  0  0  0  0  0  0  0  0  0  0  0
   -1.4780   -2.6740   -1.4280 O   0  0  0  0  0  0  0  0  0  0  0  0
   -1.3100   -1.3720   -0.9850 C   0  0  0  0  0  0  0  0  0  0  0  0
   -2.3960   -0.5580   -0.6340 C   0  0  0  0  0  0  0  0  0  0  0  0
   -2.1960    0.7250   -0.2000 C   0  0  0  0  0  0  0  0  0  0  0  0
   -3.3350    1.5680    0.2010 C   0  0  0  0  0  0  0  0  0  0  0  0
   -4.6180    1.0370    0.0480 N   0  0  0  0  0  0  0  0  0  0  0  0
   -5.1090    0.8060   -1.2470 C   0  0  0  0  0  0  0  0  0  0  0  0
   -5.8420    1.9740   -1.7130 N   0  0  0  0  0  0  0  0  0  0  0  0
   -6.9060    2.3930   -0.8640 C   0  0  0  0  0  0  0  0  0  0  0  0
   -6.4790    2.4880    0.5830 C   0  0  0  0  0  0  0  0  0  0  0  0
   -5.6250    1.3210    0.9940 C   0  0  1  0  0  0  0  0  0  0  0  0
   -6.3700    0.0890    1.2740 C   0  0  0  0  0  0  0  0  0  0  0  0
   -5.6860   -1.0870    1.4950 C   0  0  0  0  0  0  0  0  0  0  0  0
   -6.3390   -2.2730    1.7620 C   0  0  0  0  0  0  0  0  0  0  0  0
   -7.7110   -2.2880    1.8090 C   0  0  0  0  0  0  0  0  0  0  0  0
   -8.4180   -1.1360    1.5940 C   0  0  0  0  0  0  0  0  0  0  0  0
   -7.7360    0.0470    1.3270 C   0  0  0  0  0  0  0  0  0  0  0  0
   -0.9230    1.2210   -0.1070 C   0  0  0  0  0  0  0  0  0  0  0  0
   -0.6610    2.5210    0.3280 O   0  0  0  0  0  0  0  0  0  0  0  0
   -0.5940    3.6020   -0.5970 C   0  0  0  0  0  0  0  0  0  0  0  0
    0.2150    0.4600   -0.4430 C   0  0  0  0  0  0  0  0  0  0  0  0
    1.4540    0.9940   -0.3310 O   0  0  0  0  0  0  0  0  0  0  0  0
    2.7290    0.5850   -0.5260 C   0  0  0  0  0  0  0  0  0  0  0  0
    3.2080   -0.5320    0.3400 C   0  0  0  0  0  0  0  0  0  0  0  0
    4.6300   -0.8530    0.0130 C   0  0  0  0  0  0  0  0  0  0  0  0
    5.6700   -0.3840    0.7870 C   0  0  0  0  0  0  0  0  0  0  0  0
    7.0040   -0.6370    0.5140 C   0  0  0  0  0  0  0  0  0  0  0  0
    8.0640   -0.1040    1.3760 C   0  0  0  0  0  0  0  0  0  0  0  0
    9.2430   -0.7850    1.5430 C   0  0  0  0  0  0  0  0  0  0  0  0
   10.2600   -0.2880    2.3600 C   0  0  0  0  0  0  0  0  0  0  0  0
   10.1090    0.9070    3.0260 C   0  0  0  0  0  0  0  0  0  0  0  0
    8.9280    1.5960    2.8620 C   0  0  0  0  0  0  0  0  0  0  0  0
    7.9150    1.0910    2.0430 C   0  0  0  0  0  0  0  0  0  0  0  0
    7.2840   -1.3990   -0.5980 C   0  0  0  0  0  0  0  0  0  0  0  0
    6.2890   -1.8910   -1.4020 C   0  0  0  0  0  0  0  0  0  0  0  0
    4.9540   -1.6120   -1.0880 C   0  0  0  0  0  0  0  0  0  0  0  0
    4.1590   -2.3040   -2.1330 C   0  0  0  0  0  0  0  0  0  0  0  0
    5.1390   -2.3500   -3.2950 C   0  0  0  0  0  0  0  0  0  0  0  0
    6.3380   -2.6780   -2.5680 O   0  0  0  0  0  0  0  0  0  0  0  0
   -0.0430   -0.8200   -0.8730 C   0  0  0  0  0  0  0  0  0  0  0  0
  1  2  1  0
  2  3  1  0
  3  4  2  0
  3 41  1  0
  4  5  1  0
  5  6  1  0
  5 19  2  0
  6  7  1  0
  7  8  1  0
  7 12  1  0
  8  9  1  0
  9 10  1  0
 10 11  1  0
 11 12  1  0
 12 13  1  6
 13 14  2  0
 13 18  1  0
 14 15  1  0
 15 16  2  0
 16 17  1  0
 17 18  2  0
 19 20  1  0
 19 22  1  0
 20 21  1  0
 22 23  1  0
 22 41  2  0
 23 24  1  0
 24 25  1  0
 25 26  1  0
 26 27  2  0
 26 37  1  0
 27 28  1  0
 28 29  1  0
 28 35  2  0
 29 30  2  0
 29 34  1  0
 30 31  1  0
 31 32  2  0
 32 33  1  0
 33 34  2  0
 35 36  1  0
 36 37  2  0
 36 40  1  0
 37 38  1  0
 38 39  1  0
 39 40  1  0
M  CHG  1   9   1
M  END
