
     RDKit          3D

 41 45  0  0  0  0  0  0  0  0999 V2000
    6.2820    3.0100    0.4240 C   0  0  0  0  0  0  0  0  0  0  0  0
    4.9350    3.6050    0.2730 C   0  0  0  0  0  0  0  0  0  0  0  0
    3.7640    2.7160    0.5370 C   0  0  0  0  0  0  0  0  0  0  0  0
    3.5860    1.5280   -0.3100 C   0  0  2  0  0  0  0  0  0  0  0  0
    2.3650    0.8070    0.1140 N   0  0  0  0  0  0  0  0  0  0  0  0
    1.5620    0.4270   -1.0320 C   0  0  0  0  0  0  0  0  0  0  0  0
    0.3020   -0.1770   -0.6320 C   0  0  0  0  0  0  0  0  0  0  0  0
   -0.1250   -1.3380   -1.2350 C   0  0  0  0  0  0  0  0  0  0  0  0
   -1.3150   -1.9110   -0.8580 C   0  0  0  0  0  0  0  0  0  0  0  0
   -2.1480   -1.3670    0.1360 C   0  0  0  0  0  0  0  0  0  0  0  0
   -3.3400   -2.0720    0.4370 N   0  0  0  0  0  0  0  0  0  0  0  0
   -4.4660   -2.1640   -0.5020 C   0  0  0  0  0  0  0  0  0  0  0  0
   -5.0520   -3.5800   -0.4160 C   0  0  0  0  0  0  0  0  0  0  0  0
   -5.5520   -3.9080    0.9590 C   0  0  1  0  0  0  0  0  0  0  0  0
   -6.9650   -3.3990    1.1180 C   0  0  0  0  0  0  0  0  0  0  0  0
   -5.4880   -5.4220    1.1160 C   0  0  0  0  0  0  0  0  0  0  0  0
   -4.7620   -3.3240    1.9890 O   0  0  0  0  0  0  0  0  0  0  0  0
   -3.5130   -2.7690    1.6600 C   0  0  0  0  0  0  0  0  0  0  0  0
   -2.5830   -2.9170    2.4790 O   0  0  0  0  0  0  0  0  0  0  0  0
   -1.7190   -0.2150    0.7300 C   0  0  0  0  0  0  0  0  0  0  0  0
   -2.5090    0.4700    1.7730 C   0  0  0  0  0  0  0  0  0  0  0  0
   -3.6220    1.2940    1.2560 C   0  0  0  0  0  0  0  0  0  0  0  0
   -4.9280    0.8800    1.2820 C   0  0  0  0  0  0  0  0  0  0  0  0
   -5.9630    1.6740    0.7850 C   0  0  0  0  0  0  0  0  0  0  0  0
   -5.7020    2.9100    0.2490 C   0  0  0  0  0  0  0  0  0  0  0  0
   -6.8060    3.7830   -0.2910 C   0  0  0  0  0  0  0  0  0  0  0  0
   -4.3890    3.3390    0.2180 C   0  0  0  0  0  0  0  0  0  0  0  0
   -4.1150    4.6900   -0.3680 C   0  0  0  0  0  0  0  0  0  0  0  0
   -3.3680    2.5480    0.7110 C   0  0  0  0  0  0  0  0  0  0  0  0
   -0.5010    0.3620    0.3380 C   0  0  0  0  0  0  0  0  0  0  0  0
    4.6990    0.6080   -0.4970 C   0  0  0  0  0  0  0  0  0  0  0  0
    5.4680    0.7010   -1.6370 C   0  0  0  0  0  0  0  0  0  0  0  0
    6.5320   -0.1360   -1.8950 C   0  0  0  0  0  0  0  0  0  0  0  0
    6.8510   -1.1130   -0.9820 C   0  0  0  0  0  0  0  0  0  0  0  0
    6.1030   -1.2400    0.1770 C   0  0  0  0  0  0  0  0  0  0  0  0
    6.4060   -2.2130    1.1060 O   0  0  0  0  0  0  0  0  0  0  0  0
    5.6290   -2.3220    2.2790 C   0  0  0  0  0  0  0  0  0  0  0  0
    5.0480   -0.3850    0.3970 C   0  0  0  0  0  0  0  0  0  0  0  0
    7.9650   -1.8460   -1.4470 O   0  0  0  0  0  0  0  0  0  0  0  0
    8.6730   -0.9640   -2.3370 C   0  0  0  0  0  0  0  0  0  0  0  0
    7.5100   -0.2700   -3.0060 C   0  0  0  0  0  0  0  0  0  0  0  0
  1  2  1  0
  2  3  1  0
  4  3  1  1
  4  5  1  0
  4 31  1  0
  5  6  1  0
  6  7  1  0
  7  8  2  0
  7 30  1  0
  8  9  1  0
  9 10  2  0
 10 11  1  0
 10 20  1  0
 11 12  1  0
 11 18  1  0
 12 13  1  0
 13 14  1  0
 14 15  1  6
 14 16  1  0
 14 17  1  0
 17 18  1  0
 18 19  2  0
 20 21  1  0
 20 30  2  0
 21 22  1  0
 22 23  2  0
 22 29  1  0
 23 24  1  0
 24 25  2  0
 25 26  1  0
 25 27  1  0
 27 28  1  0
 27 29  2  0
 31 32  2  0
 31 38  1  0
 32 33  1  0
 33 34  2  0
 33 41  1  0
 34 35  1  0
 34 39  1  0
 35 36  1  0
 35 38  2  0
 36 37  1  0
 39 40  1  0
 40 41  1  0
M  CHG  1   5   1
M  END
