
     RDKit          3D

 41 45  0  0  0  0  0  0  0  0999 V2000
   -7.2920    0.1740    2.7960 C   0  0  0  0  0  0  0  0  0  0  0  0
   -6.6210    0.2230    1.6690 C   0  0  0  0  0  0  0  0  0  0  0  0
   -5.1410    0.1560    1.6760 C   0  0  0  0  0  0  0  0  0  0  0  0
   -4.4930    0.2040    0.5380 C   0  0  0  0  0  0  0  0  0  0  0  0
   -5.2810    0.3270   -0.6670 N   0  0  0  0  0  0  0  0  0  0  0  0
   -5.9690   -0.7210   -1.3760 C   0  0  0  0  0  0  0  0  0  0  0  0
   -7.0480   -0.0290   -2.1750 C   0  0  0  0  0  0  0  0  0  0  0  0
   -6.9060    1.4430   -1.8900 C   0  0  0  0  0  0  0  0  0  0  0  0
   -5.4970    1.5660   -1.3750 C   0  0  0  0  0  0  0  0  0  0  0  0
   -3.0190    0.0880    0.4340 C   0  0  0  0  0  0  0  0  0  0  0  0
   -2.4700    0.1730   -0.9140 C   0  0  0  0  0  0  0  0  0  0  0  0
   -1.0180    0.0590   -1.0070 N   0  0  0  0  0  0  0  0  0  0  0  0
   -0.7430   -1.3050   -1.2870 C   0  0  0  0  0  0  0  0  0  0  0  0
    0.6300   -1.8160   -1.1140 C   0  0  0  0  0  0  0  0  0  0  0  0
    0.8360   -3.1880   -1.3970 C   0  0  0  0  0  0  0  0  0  0  0  0
   -0.2720   -3.9080   -1.8340 O   0  0  0  0  0  0  0  0  0  0  0  0
   -0.1650   -5.2790   -2.1400 C   0  0  0  0  0  0  0  0  0  0  0  0
    2.0560   -3.7410   -1.2440 C   0  0  0  0  0  0  0  0  0  0  0  0
    3.1120   -2.9750   -0.8090 C   0  0  0  0  0  0  0  0  0  0  0  0
    2.9250   -1.6370   -0.5300 C   0  0  0  0  0  0  0  0  0  0  0  0
    3.9700   -0.8420   -0.0910 O   0  0  0  0  0  0  0  0  0  0  0  0
    4.8290   -0.1630   -0.9050 C   0  0  0  0  0  0  0  0  0  0  0  0
    4.5810   -0.3260   -2.1650 O   0  0  0  0  0  0  0  0  0  0  0  0
    5.9380    0.6850   -0.5840 C   0  0  0  0  0  0  0  0  0  0  0  0
    6.5950    1.3990   -1.5900 C   0  0  0  0  0  0  0  0  0  0  0  0
    7.6330    2.2210   -1.3010 C   0  0  0  0  0  0  0  0  0  0  0  0
    8.3050    2.9690   -2.4240 C   0  0  0  0  0  0  0  0  0  0  0  0
    8.0560    2.3630   -0.0050 C   0  0  0  0  0  0  0  0  0  0  0  0
    7.4540    1.6880    1.0430 C   0  0  0  0  0  0  0  0  0  0  0  0
    7.9150    1.8590    2.3340 C   0  0  0  0  0  0  0  0  0  0  0  0
    7.2920    1.1690    3.3410 C   0  0  0  0  0  0  0  0  0  0  0  0
    6.2480    0.3390    3.0600 C   0  0  0  0  0  0  0  0  0  0  0  0
    5.7830    0.1650    1.7620 C   0  0  0  0  0  0  0  0  0  0  0  0
    6.3830    0.8450    0.7170 C   0  0  0  0  0  0  0  0  0  0  0  0
    1.6570   -1.0320   -0.6840 C   0  0  0  0  0  0  0  0  0  0  0  0
    1.6220    0.3100   -0.3750 O   0  0  0  0  0  0  0  0  0  0  0  0
    1.9200    1.3680   -1.2580 C   0  0  0  0  0  0  0  0  0  0  0  0
   -2.3870   -0.0720    1.5630 C   0  0  0  0  0  0  0  0  0  0  0  0
   -2.9930   -0.1490    2.8930 C   0  0  0  0  0  0  0  0  0  0  0  0
   -4.4400    0.0720    3.0010 C   0  0  1  0  0  0  0  0  0  0  0  0
   -4.7230    1.3760    3.7330 C   0  0  0  0  0  0  0  0  0  0  0  0
  1  2  2  0
  2  3  1  0
  3  4  2  0
  3 40  1  0
  4  5  1  0
  4 10  1  0
  5  6  1  0
  5  9  1  0
  6  7  1  0
  7  8  1  0
  8  9  1  0
 10 11  1  0
 10 38  2  0
 11 12  1  0
 12 13  1  0
 13 14  1  0
 14 15  2  0
 14 35  1  0
 15 16  1  0
 15 18  1  0
 16 17  1  0
 18 19  2  0
 19 20  1  0
 20 21  1  0
 20 35  2  0
 21 22  1  0
 22 23  2  0
 22 24  1  0
 24 25  2  0
 24 34  1  0
 25 26  1  0
 26 27  1  0
 26 28  2  0
 28 29  1  0
 29 30  2  0
 29 34  1  0
 30 31  1  0
 31 32  2  0
 32 33  1  0
 33 34  2  0
 35 36  1  0
 36 37  1  0
 38 39  1  0
 39 40  1  0
 40 41  1  6
M  CHG  1  12   1
M  END
