
     RDKit          3D

 41 45  0  0  0  0  0  0  0  0999 V2000
   -8.4630   -0.6170   -2.4940 C   0  0  0  0  0  0  0  0  0  0  0  0
   -7.1220   -0.5140   -2.4500 C   0  0  0  0  0  0  0  0  0  0  0  0
   -6.2470   -1.6270   -2.3140 C   0  0  0  0  0  0  0  0  0  0  0  0
   -6.8400   -2.9960   -2.1950 C   0  0  0  0  0  0  0  0  0  0  0  0
   -4.9440   -1.4940   -2.2960 C   0  0  0  0  0  0  0  0  0  0  0  0
   -4.3170   -0.2040   -2.4270 C   0  0  0  0  0  0  0  0  0  0  0  0
   -4.6170    0.6160   -3.5190 C   0  0  0  0  0  0  0  0  0  0  0  0
   -4.0280    1.8590   -3.6180 C   0  0  0  0  0  0  0  0  0  0  0  0
   -3.1500    2.3130   -2.6680 C   0  0  0  0  0  0  0  0  0  0  0  0
   -2.8580    1.4840   -1.5800 C   0  0  0  0  0  0  0  0  0  0  0  0
   -3.4380    0.2490   -1.4750 C   0  0  0  0  0  0  0  0  0  0  0  0
   -3.1670   -0.6140   -0.2860 C   0  0  0  0  0  0  0  0  0  0  0  0
   -2.1640    0.0320    0.4810 O   0  0  0  0  0  0  0  0  0  0  0  0
   -0.8730    0.1930    0.0030 C   0  0  0  0  0  0  0  0  0  0  0  0
   -0.5560   -0.3410   -1.2400 C   0  0  0  0  0  0  0  0  0  0  0  0
    0.7510   -0.1860   -1.7360 C   0  0  0  0  0  0  0  0  0  0  0  0
    1.7040    0.4840   -1.0050 C   0  0  0  0  0  0  0  0  0  0  0  0
    2.9730    0.6150   -1.5400 O   0  0  0  0  0  0  0  0  0  0  0  0
    3.3410    0.0730   -2.7850 C   0  0  0  0  0  0  0  0  0  0  0  0
    3.2540   -1.4060   -2.7190 C   0  0  0  0  0  0  0  0  0  0  0  0
    3.3680   -2.1040   -3.7710 O   0  0  0  0  0  0  0  0  0  0  0  0
    3.0480   -2.0420   -1.4710 N   0  0  0  0  0  0  0  0  0  0  0  0
    2.9730   -3.4900   -1.4730 C   0  0  2  0  0  0  0  0  0  0  0  0
    2.0020   -4.0790   -0.5230 C   0  0  0  0  0  0  0  0  0  0  0  0
    2.5200   -5.5220   -0.4060 C   0  0  0  0  0  0  0  0  0  0  0  0
    4.0090   -5.4390   -0.7020 C   0  0  0  0  0  0  0  0  0  0  0  0
    4.3060   -3.9610   -0.8770 C   0  0  0  0  0  0  0  0  0  0  0  0
    1.3870    1.0200    0.2430 C   0  0  0  0  0  0  0  0  0  0  0  0
    2.0630    1.6880    1.1370 O   0  0  0  0  0  0  0  0  0  0  0  0
    1.3280    1.9910    2.1790 C   0  0  0  0  0  0  0  0  0  0  0  0
    1.7240    2.7330    3.3770 C   0  0  0  0  0  0  0  0  0  0  0  0
    0.8660    2.9390    4.4230 C   0  0  0  0  0  0  0  0  0  0  0  0
    1.1570    3.6450    5.5450 C   0  0  0  0  0  0  0  0  0  0  0  0
    2.4490    4.2090    5.6360 C   0  0  0  0  0  0  0  0  0  0  0  0
    2.7190    4.8990    6.7370 C   0  0  0  0  0  0  0  0  0  0  0  0
    3.3530    4.0370    4.6210 C   0  0  0  0  0  0  0  0  0  0  0  0
    4.5670    4.5500    4.6630 C   0  0  0  0  0  0  0  0  0  0  0  0
    5.5250    4.3560    3.5660 C   0  0  0  0  0  0  0  0  0  0  0  0
    2.9830    3.2980    3.4970 C   0  0  0  0  0  0  0  0  0  0  0  0
    0.1070    1.4790    1.9280 N   0  0  0  0  0  0  0  0  0  0  0  0
    0.0740    0.8550    0.7260 C   0  0  0  0  0  0  0  0  0  0  0  0
  1  2  2  0
  2  3  1  0
  3  4  1  0
  3  5  2  3
  5  6  1  0
  6  7  2  0
  6 11  1  0
  7  8  1  0
  8  9  2  0
  9 10  1  0
 10 11  2  0
 11 12  1  0
 12 13  1  0
 13 14  1  0
 14 15  2  0
 14 41  1  0
 15 16  1  0
 16 17  2  0
 17 18  1  0
 17 28  1  0
 18 19  1  0
 19 20  1  0
 20 21  2  0
 20 22  1  0
 23 22  1  1
 23 24  1  0
 23 27  1  0
 24 25  1  0
 25 26  1  0
 26 27  1  0
 28 29  1  0
 28 41  2  0
 29 30  1  0
 30 31  1  0
 30 40  2  0
 31 32  1  0
 31 39  2  0
 32 33  2  0
 33 34  1  0
 34 35  2  0
 34 36  1  0
 36 37  2  3
 36 39  1  0
 37 38  1  0
 40 41  1  0
M  CHG  1  40   1
M  END
