
     RDKit          3D

 38 41  0  0  0  0  0  0  0  0999 V2000
   -4.1650   -1.2210   -4.9340 C   0  0  0  0  0  0  0  0  0  0  0  0
   -3.0210   -1.2850   -3.9410 C   0  0  0  0  0  0  0  0  0  0  0  0
   -3.1700   -2.3630   -3.0110 N   0  0  0  0  0  0  0  0  0  0  0  0
   -1.9440   -2.5220   -1.8590 S   0  0  2  0  0  0  0  0  0  0  0  0
   -0.5760   -2.7030   -2.5050 O   0  0  0  0  0  0  0  0  0  0  0  0
   -2.2120   -3.7600   -1.0300 O   0  0  0  0  0  0  0  0  0  0  0  0
   -1.8280   -1.0960   -0.8290 C   0  0  0  0  0  0  0  0  0  0  0  0
   -0.9920   -0.1510   -1.1880 C   0  0  0  0  0  0  0  0  0  0  0  0
   -0.7140    1.1020   -0.5280 C   0  0  0  0  0  0  0  0  0  0  0  0
    0.6100    1.3140   -0.1250 C   0  0  0  0  0  0  0  0  0  0  0  0
    1.6470    0.2820   -0.3200 C   0  0  0  0  0  0  0  0  0  0  0  0
    1.4180   -0.8320   -0.8450 O   0  0  0  0  0  0  0  0  0  0  0  0
    2.9550    0.5120    0.0820 O   0  0  0  0  0  0  0  0  0  0  0  0
    4.0210   -0.3760   -0.0470 C   0  0  1  0  0  0  0  0  0  0  0  0
    5.1040    0.2970   -0.8740 C   0  0  0  0  0  0  0  0  0  0  0  0
    5.9530    1.0290    0.1700 C   0  0  0  0  0  0  0  0  0  0  0  0
    5.8090    0.1210    1.3570 C   0  0  0  0  0  0  0  0  0  0  0  0
    6.5780   -0.0340    2.5110 C   0  0  0  0  0  0  0  0  0  0  0  0
    7.6860    0.7620    2.6530 F   0  0  0  0  0  0  0  0  0  0  0  0
    6.2460   -0.9530    3.4830 C   0  0  0  0  0  0  0  0  0  0  0  0
    5.1230   -1.7400    3.3080 C   0  0  0  0  0  0  0  0  0  0  0  0
    4.3390   -1.6150    2.1810 C   0  0  0  0  0  0  0  0  0  0  0  0
    3.1490   -2.4950    2.0570 C   0  0  0  0  0  0  0  0  0  0  0  0
    4.7070   -0.6860    1.2370 C   0  0  0  0  0  0  0  0  0  0  0  0
    0.9050    2.5150    0.4670 C   0  0  0  0  0  0  0  0  0  0  0  0
   -0.0210    3.5090    0.6820 C   0  0  0  0  0  0  0  0  0  0  0  0
    0.3610    4.7890    1.3290 C   0  0  0  0  0  0  0  0  0  0  0  0
   -1.3350    3.3080    0.2850 C   0  0  0  0  0  0  0  0  0  0  0  0
   -2.3970    4.3210    0.4770 C   0  0  0  0  0  0  0  0  0  0  0  0
   -1.6410    2.1000   -0.3130 C   0  0  0  0  0  0  0  0  0  0  0  0
   -3.0520    1.9340   -0.7710 C   0  0  0  0  0  0  0  0  0  0  0  0
   -2.6250   -1.0610    0.4090 C   0  0  1  0  0  0  0  0  0  0  0  0
   -4.1040   -1.0500    0.2120 C   0  0  0  0  0  0  0  0  0  0  0  0
   -4.7950   -2.2450    0.5680 N   0  0  0  0  0  0  0  0  0  0  0  0
   -4.6410   -2.6410    1.9350 C   0  0  0  0  0  0  0  0  0  0  0  0
   -3.2290   -2.8170    2.1410 O   0  0  0  0  0  0  0  0  0  0  0  0
   -2.3090   -2.2370    1.2840 C   0  0  0  0  0  0  0  0  0  0  0  0
   -1.1530   -2.7240    1.2430 O   0  0  0  0  0  0  0  0  0  0  0  0
  1  2  1  0
  2  3  1  0
  4  3  1  6
  4  5  2  0
  4  6  2  0
  4  7  1  0
  7  8  2  3
 32  7  1  6
  8  9  1  0
  9 10  1  0
  9 30  2  0
 10 11  1  0
 10 25  2  0
 11 12  2  0
 11 13  1  0
 14 13  1  1
 14 15  1  0
 14 24  1  0
 15 16  1  0
 16 17  1  0
 17 18  2  0
 17 24  1  0
 18 19  1  0
 18 20  1  0
 20 21  2  0
 21 22  1  0
 22 23  1  0
 22 24  2  0
 25 26  1  0
 26 27  1  0
 26 28  2  0
 28 29  1  0
 28 30  1  0
 30 31  1  0
 32 33  1  0
 32 37  1  0
 33 34  1  0
 34 35  1  0
 35 36  1  0
 36 37  1  0
 37 38  2  0
M  END
