
     RDKit          3D

 38 42  0  0  0  0  0  0  0  0999 V2000
   -4.0020   -6.8270   -1.8780 C   0  0  0  0  0  0  0  0  0  0  0  0
   -3.2690   -5.6120   -1.7500 N   0  0  0  0  0  0  0  0  0  0  0  0
   -3.8640   -4.4850   -1.0940 C   0  0  0  0  0  0  0  0  0  0  0  0
   -5.1410   -4.5510   -0.5770 C   0  0  0  0  0  0  0  0  0  0  0  0
   -5.7010   -3.4650    0.0500 C   0  0  0  0  0  0  0  0  0  0  0  0
   -4.9620   -2.2920    0.1580 C   0  0  0  0  0  0  0  0  0  0  0  0
   -5.4820   -1.2010    0.7700 N   0  0  0  0  0  0  0  0  0  0  0  0
   -4.7460   -0.0600    0.8670 C   0  0  0  0  0  0  0  0  0  0  0  0
   -5.3810    1.0290    1.5240 N   0  0  0  0  0  0  0  0  0  0  0  0
   -3.4720    0.0140    0.3540 C   0  0  0  0  0  0  0  0  0  0  0  0
   -2.7660    1.2340    0.4870 N   0  0  0  0  0  0  0  0  0  0  0  0
   -1.4190    1.3790   -0.0250 C   0  0  0  0  0  0  0  0  0  0  0  0
   -0.9770    0.3980   -0.6690 N   0  0  0  0  0  0  0  0  0  0  0  0
    0.2560    0.1880   -1.2970 C   0  0  0  0  0  0  0  0  0  0  0  0
    1.3460   -0.1890   -0.6530 C   0  0  0  0  0  0  0  0  0  0  0  0
    2.6280   -0.4120   -1.2820 C   0  0  0  0  0  0  0  0  0  0  0  0
    2.8090   -0.2410   -2.6280 C   0  0  0  0  0  0  0  0  0  0  0  0
    4.0540   -0.4640   -3.2310 C   0  0  0  0  0  0  0  0  0  0  0  0
    5.0990   -0.8600   -2.4350 C   0  0  0  0  0  0  0  0  0  0  0  0
    4.9670   -1.0490   -1.0550 C   0  0  0  0  0  0  0  0  0  0  0  0
    6.1100   -1.4640   -0.3320 N   0  0  0  0  0  0  0  0  0  0  0  0
    6.2230   -1.6580    1.0530 C   0  0  0  0  0  0  0  0  0  0  0  0
    7.4850   -2.1040    1.7130 C   0  0  0  0  0  0  0  0  0  0  0  0
    5.2480   -1.4580    1.7940 O   0  0  0  0  0  0  0  0  0  0  0  0
    3.7270   -0.8180   -0.5120 C   0  0  0  0  0  0  0  0  0  0  0  0
   -0.6910    2.6100    0.2370 C   0  0  0  0  0  0  0  0  0  0  0  0
    0.2270    3.1380   -0.6300 C   0  0  0  0  0  0  0  0  0  0  0  0
    0.9350    4.3200   -0.3830 C   0  0  0  0  0  0  0  0  0  0  0  0
    0.6800    4.9840    0.8190 C   0  0  0  0  0  0  0  0  0  0  0  0
    1.3370    6.1440    1.1250 C   0  0  0  0  0  0  0  0  0  0  0  0
    1.1140    6.8310    2.3010 C   0  0  0  0  0  0  0  0  0  0  0  0
    0.1850    6.3020    3.1850 C   0  0  0  0  0  0  0  0  0  0  0  0
   -0.5020    5.1310    2.9160 C   0  0  0  0  0  0  0  0  0  0  0  0
   -0.2380    4.4800    1.7150 C   0  0  0  0  0  0  0  0  0  0  0  0
   -0.9140    3.3120    1.4330 C   0  0  0  0  0  0  0  0  0  0  0  0
   -2.9960   -1.0880   -0.2430 N   0  0  0  0  0  0  0  0  0  0  0  0
   -3.6880   -2.2370   -0.3630 C   0  0  0  0  0  0  0  0  0  0  0  0
   -3.1990   -3.3270   -0.9610 N   0  0  0  0  0  0  0  0  0  0  0  0
  1  2  1  0
  2  3  1  0
  3  4  2  0
  3 38  1  0
  4  5  1  0
  5  6  2  0
  6  7  1  0
  6 37  1  0
  7  8  2  0
  8  9  1  0
  8 10  1  0
 10 11  1  0
 10 36  2  0
 11 12  1  0
 12 13  2  3
 12 26  1  0
 13 14  1  0
 14 15  2  3
 15 16  1  0
 16 17  2  0
 16 25  1  0
 17 18  1  0
 18 19  2  0
 19 20  1  0
 20 21  1  0
 20 25  2  0
 21 22  1  0
 22 23  1  0
 22 24  2  0
 26 27  2  0
 26 35  1  0
 27 28  1  0
 28 29  2  0
 29 30  1  0
 29 34  1  0
 30 31  2  0
 31 32  1  0
 32 33  2  0
 33 34  1  0
 34 35  2  0
 36 37  1  0
 37 38  2  0
M  END
