
     RDKit          3D

 38 42  0  0  0  0  0  0  0  0999 V2000
    8.7040    2.3340   -1.6800 C   0  0  0  0  0  0  0  0  0  0  0  0
    8.5750    1.2450   -0.6670 C   0  0  0  0  0  0  0  0  0  0  0  0
    7.2000    0.7660   -0.5140 N   0  0  0  0  0  0  0  0  0  0  0  0
    6.9750   -0.2590    0.4420 C   0  0  0  0  0  0  0  0  0  0  0  0
    8.0460   -0.7360    1.1760 C   0  0  0  0  0  0  0  0  0  0  0  0
    7.9200   -1.7170    2.1270 C   0  0  0  0  0  0  0  0  0  0  0  0
    6.6610   -2.2150    2.3200 C   0  0  0  0  0  0  0  0  0  0  0  0
    5.5670   -1.7400    1.5800 C   0  0  0  0  0  0  0  0  0  0  0  0
    5.6840   -0.7670    0.6370 C   0  0  0  0  0  0  0  0  0  0  0  0
    4.6270   -0.2660   -0.1410 N   0  0  0  0  0  0  0  0  0  0  0  0
    3.2590   -0.5960   -0.0750 C   0  0  0  0  0  0  0  0  0  0  0  0
    2.8850   -1.4270    0.7660 O   0  0  0  0  0  0  0  0  0  0  0  0
    2.2780   -0.0050   -0.9480 N   0  0  0  0  0  0  0  0  0  0  0  0
    0.9000   -0.3450   -0.8880 C   0  0  0  0  0  0  0  0  0  0  0  0
    0.0450    0.5660   -0.4920 C   0  0  0  0  0  0  0  0  0  0  0  0
   -1.4120    0.3580   -0.3800 C   0  0  0  0  0  0  0  0  0  0  0  0
   -2.1940    1.3190    0.0020 C   0  0  0  0  0  0  0  0  0  0  0  0
   -3.6140    1.3430    0.1850 C   0  0  0  0  0  0  0  0  0  0  0  0
   -4.6140    1.8090   -0.6480 C   0  0  0  0  0  0  0  0  0  0  0  0
   -5.8310    1.6870   -0.0200 C   0  0  0  0  0  0  0  0  0  0  0  0
   -5.5820    1.1540    1.1850 N   0  0  0  0  0  0  0  0  0  0  0  0
   -6.5870    0.8400    2.2130 C   0  0  1  0  0  0  0  0  0  0  0  0
   -7.9080    1.5080    1.9200 C   0  0  0  0  0  0  0  0  0  0  0  0
   -6.7940   -0.6540    2.3110 C   0  0  0  0  0  0  0  0  0  0  0  0
   -4.2830    0.9330    1.3490 C   0  0  0  0  0  0  0  0  0  0  0  0
   -3.6510    0.3510    2.5620 C   0  0  0  0  0  0  0  0  0  0  0  0
   -6.9180    2.1840   -0.9090 C   0  0  0  0  0  0  0  0  0  0  0  0
   -6.2280    2.7810   -2.0980 C   0  0  0  0  0  0  0  0  0  0  0  0
   -4.7900    2.3970   -2.0010 C   0  0  0  0  0  0  0  0  0  0  0  0
   -1.9450   -0.9520   -0.7360 C   0  0  0  0  0  0  0  0  0  0  0  0
   -3.2030   -1.4820   -0.7680 N   0  0  0  0  0  0  0  0  0  0  0  0
   -3.0910   -2.7430   -1.1930 N   0  0  0  0  0  0  0  0  0  0  0  0
   -1.8090   -3.0430   -1.4380 C   0  0  0  0  0  0  0  0  0  0  0  0
   -1.0550   -1.9160   -1.1550 C   0  0  0  0  0  0  0  0  0  0  0  0
    0.3990   -1.6550   -1.2490 C   0  0  0  0  0  0  0  0  0  0  0  0
    1.1020   -2.6030   -1.7000 N   0  0  0  0  0  0  0  0  0  0  0  0
    2.4330   -2.7140   -1.9770 N   0  0  0  0  0  0  0  0  0  0  0  0
    3.1900   -3.8400   -1.4800 C   0  0  0  0  0  0  0  0  0  0  0  0
  1  2  1  0
  2  3  1  0
  3  4  1  0
  4  5  2  0
  4  9  1  0
  5  6  1  0
  6  7  2  0
  7  8  1  0
  8  9  2  0
  9 10  1  0
 10 11  1  0
 11 12  2  0
 11 13  1  0
 13 14  1  0
 14 15  2  0
 14 35  1  0
 15 16  1  0
 16 17  2  3
 16 30  1  0
 17 18  1  0
 18 19  1  0
 18 25  2  0
 19 20  2  0
 19 29  1  0
 20 21  1  0
 20 27  1  0
 21 22  1  0
 21 25  1  0
 22 23  1  6
 22 24  1  0
 25 26  1  0
 27 28  1  0
 28 29  1  0
 30 31  1  0
 30 34  2  0
 31 32  1  0
 32 33  2  0
 33 34  1  0
 34 35  1  0
 35 36  2  3
 36 37  1  0
 37 38  1  0
M  END
