
     RDKit          3D

 38 42  0  0  0  0  0  0  0  0999 V2000
   -8.6180    2.0060    0.9680 C   0  0  0  0  0  0  0  0  0  0  0  0
   -7.2420    1.4740    0.8690 C   0  0  0  0  0  0  0  0  0  0  0  0
   -6.7140    1.0800   -0.3370 C   0  0  0  0  0  0  0  0  0  0  0  0
   -5.4040    0.5700   -0.4310 C   0  0  0  0  0  0  0  0  0  0  0  0
   -4.6300    0.4580    0.6820 C   0  0  0  0  0  0  0  0  0  0  0  0
   -3.3200   -0.0570    0.7150 N   0  0  0  0  0  0  0  0  0  0  0  0
   -2.7540   -0.7770   -0.3490 C   0  0  0  0  0  0  0  0  0  0  0  0
   -3.3490   -1.0290   -1.4090 O   0  0  0  0  0  0  0  0  0  0  0  0
   -1.4010   -1.2860   -0.2760 N   0  0  0  0  0  0  0  0  0  0  0  0
   -0.8030   -2.0130   -1.3240 C   0  0  0  0  0  0  0  0  0  0  0  0
   -0.0590   -1.5140   -2.3710 C   0  0  0  0  0  0  0  0  0  0  0  0
    0.2710   -0.0790   -2.5830 C   0  0  0  0  0  0  0  0  0  0  0  0
    1.3620    0.3610   -1.6640 C   0  0  0  0  0  0  0  0  0  0  0  0
    2.6680    0.2540   -2.0550 C   0  0  0  0  0  0  0  0  0  0  0  0
    3.7030    0.6540   -1.2270 C   0  0  0  0  0  0  0  0  0  0  0  0
    3.4910    1.1720    0.0190 C   0  0  0  0  0  0  0  0  0  0  0  0
    4.4680    1.6810    0.9460 C   0  0  0  0  0  0  0  0  0  0  0  0
    4.0360    2.4630    2.0010 N   0  0  0  0  0  0  0  0  0  0  0  0
    4.8140    2.9790    2.9260 C   0  0  0  0  0  0  0  0  0  0  0  0
    6.1630    2.7610    2.8960 C   0  0  0  0  0  0  0  0  0  0  0  0
    6.6610    1.9900    1.8730 C   0  0  0  0  0  0  0  0  0  0  0  0
    5.7900    1.4460    0.8910 C   0  0  0  0  0  0  0  0  0  0  0  0
    6.4160    0.6000   -0.0450 N   0  0  0  0  0  0  0  0  0  0  0  0
    6.2520   -0.8620   -0.0330 C   0  0  0  0  0  0  0  0  0  0  0  0
    7.3000    1.1540   -1.0480 C   0  0  0  0  0  0  0  0  0  0  0  0
    2.1320    1.2640    0.3790 C   0  0  0  0  0  0  0  0  0  0  0  0
    1.8450    1.7980    1.6720 N   0  0  0  0  0  0  0  0  0  0  0  0
    1.1440    0.8710   -0.4420 N   0  0  0  0  0  0  0  0  0  0  0  0
    0.3380   -2.5280   -3.1820 N   0  0  0  0  0  0  0  0  0  0  0  0
   -0.1520   -3.6620   -2.6500 C   0  0  0  0  0  0  0  0  0  0  0  0
   -0.0600   -4.9500   -3.0470 N   0  0  0  0  0  0  0  0  0  0  0  0
   -0.6500   -5.9460   -2.3330 C   0  0  0  0  0  0  0  0  0  0  0  0
   -1.3620   -5.6840   -1.1850 C   0  0  0  0  0  0  0  0  0  0  0  0
   -1.4740   -4.3790   -0.7550 C   0  0  0  0  0  0  0  0  0  0  0  0
   -0.8620   -3.3870   -1.5020 C   0  0  0  0  0  0  0  0  0  0  0  0
   -5.2030    0.8690    1.8870 C   0  0  0  0  0  0  0  0  0  0  0  0
   -6.4710    1.3680    2.0140 C   0  0  0  0  0  0  0  0  0  0  0  0
   -7.0280    1.7930    3.3430 C   0  0  0  0  0  0  0  0  0  0  0  0
  1  2  1  0
  2  3  2  0
  2 37  1  0
  3  4  1  0
  4  5  2  0
  5  6  1  0
  5 36  1  0
  6  7  1  0
  7  8  2  0
  7  9  1  0
  9 10  1  0
 10 11  2  0
 10 35  1  0
 11 12  1  0
 11 29  1  0
 12 13  1  0
 13 14  2  0
 13 28  1  0
 14 15  1  0
 15 16  2  0
 16 17  1  0
 16 26  1  0
 17 18  2  0
 17 22  1  0
 18 19  1  0
 19 20  2  0
 20 21  1  0
 21 22  2  0
 22 23  1  0
 23 24  1  0
 23 25  1  0
 26 27  1  0
 26 28  2  0
 29 30  1  0
 30 31  2  0
 30 35  1  0
 31 32  1  0
 32 33  2  0
 33 34  1  0
 34 35  2  0
 36 37  2  0
 37 38  1  0
M  END
