
     RDKit          3D

 38 41  0  0  0  0  0  0  0  0999 V2000
    5.6920   -2.6090    4.9690 C   0  0  0  0  0  0  0  0  0  0  0  0
    5.4450   -2.4900    3.5760 O   0  0  0  0  0  0  0  0  0  0  0  0
    4.5710   -1.5470    3.0490 C   0  0  0  0  0  0  0  0  0  0  0  0
    3.9920   -0.7850    3.8540 O   0  0  0  0  0  0  0  0  0  0  0  0
    4.3440   -1.4570    1.6100 C   0  0  0  0  0  0  0  0  0  0  0  0
    4.9790   -2.2920    0.7130 C   0  0  0  0  0  0  0  0  0  0  0  0
    4.7810   -2.2250   -0.6390 C   0  0  0  0  0  0  0  0  0  0  0  0
    3.9020   -1.2750   -1.1290 C   0  0  0  0  0  0  0  0  0  0  0  0
    3.2330   -0.4080   -0.2830 C   0  0  0  0  0  0  0  0  0  0  0  0
    3.4770   -0.5220    1.1040 C   0  0  0  0  0  0  0  0  0  0  0  0
    2.2910    0.6330   -0.5300 N   0  0  0  0  0  0  0  0  0  0  0  0
    1.2360    0.7280    0.3750 C   0  0  0  0  0  0  0  0  0  0  0  0
    1.0490   -0.2190    1.2260 O   0  0  0  0  0  0  0  0  0  0  0  0
    0.2650    1.8480    0.4720 C   0  0  0  0  0  0  0  0  0  0  0  0
   -0.9280    1.6700   -0.3970 C   0  0  1  0  0  0  0  0  0  0  0  0
   -1.7650    0.5060   -0.1910 C   0  0  0  0  0  0  0  0  0  0  0  0
   -2.9420    0.6950    0.2630 O   0  0  0  0  0  0  0  0  0  0  0  0
   -1.4120   -0.8450   -0.4460 N   0  0  0  0  0  0  0  0  0  0  0  0
   -2.3770   -1.8940   -0.1760 C   0  0  2  0  0  0  0  0  0  0  0  0
   -1.8710   -2.9270    0.7780 C   0  0  0  0  0  0  0  0  0  0  0  0
   -3.0010   -3.6610    1.4300 C   0  0  0  0  0  0  0  0  0  0  0  0
   -4.0050   -4.1970    0.4440 C   0  0  0  0  0  0  0  0  0  0  0  0
   -4.6680   -3.2220   -0.2520 O   0  0  0  0  0  0  0  0  0  0  0  0
   -4.1470   -2.9680   -1.5110 C   0  0  0  0  0  0  0  0  0  0  0  0
   -2.6900   -2.6170   -1.4890 C   0  0  0  0  0  0  0  0  0  0  0  0
   -1.8050    2.8980   -0.2230 C   0  0  0  0  0  0  0  0  0  0  0  0
   -2.0470    3.7690   -1.2610 C   0  0  0  0  0  0  0  0  0  0  0  0
   -2.8370    4.8870   -1.1330 C   0  0  0  0  0  0  0  0  0  0  0  0
   -3.4240    5.1730    0.0740 C   0  0  0  0  0  0  0  0  0  0  0  0
   -4.2870    6.3890    0.2230 C   0  0  0  0  0  0  0  0  0  0  0  0
   -3.1970    4.3160    1.1290 C   0  0  0  0  0  0  0  0  0  0  0  0
   -3.7840    4.6170    2.3050 F   0  0  0  0  0  0  0  0  0  0  0  0
   -2.3930    3.1810    0.9920 C   0  0  0  0  0  0  0  0  0  0  0  0
    2.3100    1.5510   -1.6380 C   0  0  0  0  0  0  0  0  0  0  0  0
    2.0700    0.8060   -2.9530 C   0  0  1  0  0  0  0  0  0  0  0  0
    1.3330    1.5310   -3.8570 O   0  0  0  0  0  0  0  0  0  0  0  0
    3.3950    0.3090   -3.5190 C   0  0  0  0  0  0  0  0  0  0  0  0
    3.7760   -1.3340   -2.9160 S   0  0  0  0  0  0  0  0  0  0  0  0
  1  2  1  0
  2  3  1  0
  3  4  2  0
  3  5  1  0
  5  6  2  0
  5 10  1  0
  6  7  1  0
  7  8  2  0
  8  9  1  0
  8 38  1  0
  9 10  2  0
  9 11  1  0
 11 12  1  0
 11 34  1  0
 12 13  2  0
 12 14  1  0
 15 14  1  1
 15 16  1  0
 15 26  1  0
 16 17  2  0
 16 18  1  0
 19 18  1  6
 19 20  1  0
 19 25  1  0
 20 21  1  0
 21 22  1  0
 22 23  1  0
 23 24  1  0
 24 25  1  0
 26 27  2  0
 26 33  1  0
 27 28  1  0
 28 29  2  0
 29 30  1  0
 29 31  1  0
 31 32  1  0
 31 33  2  0
 34 35  1  0
 35 36  1  6
 35 37  1  0
 37 38  1  0
M  END
