
     RDKit          3D

 38 42  0  0  0  0  0  0  0  0999 V2000
   -4.7630    2.8340   -3.8880 C   0  0  0  0  0  0  0  0  0  0  0  0
   -4.4300    1.3750   -4.1080 C   0  0  0  0  0  0  0  0  0  0  0  0
   -3.8450    0.8220   -2.8400 C   0  0  0  0  0  0  0  0  0  0  0  0
   -4.7090    0.2730   -1.9240 C   0  0  0  0  0  0  0  0  0  0  0  0
   -4.2810   -0.2740   -0.7060 C   0  0  0  0  0  0  0  0  0  0  0  0
   -5.2470   -0.8670    0.2040 C   0  0  0  0  0  0  0  0  0  0  0  0
   -6.5390   -1.2220   -0.2340 C   0  0  0  0  0  0  0  0  0  0  0  0
   -7.2490   -1.8110    0.7870 C   0  0  0  0  0  0  0  0  0  0  0  0
   -8.6610   -2.3270    0.7250 C   0  0  0  0  0  0  0  0  0  0  0  0
   -9.5310   -1.2960    1.4390 C   0  0  0  0  0  0  0  0  0  0  0  0
   -6.3970   -1.8210    1.8570 C   0  0  0  0  0  0  0  0  0  0  0  0
   -6.6830   -2.3530    3.2090 C   0  0  0  0  0  0  0  0  0  0  0  0
   -5.2090   -1.2490    1.4770 N   0  0  0  0  0  0  0  0  0  0  0  0
   -2.9170   -0.2290   -0.4750 C   0  0  0  0  0  0  0  0  0  0  0  0
   -2.1560   -0.6510    0.5260 N   0  0  0  0  0  0  0  0  0  0  0  0
   -0.8520   -0.3650    0.2320 C   0  0  0  0  0  0  0  0  0  0  0  0
    0.1060   -0.6730    1.0500 N   0  0  0  0  0  0  0  0  0  0  0  0
    1.4260   -0.3310    0.6470 C   0  0  0  0  0  0  0  0  0  0  0  0
    1.9130    0.9030    0.8760 N   0  0  0  0  0  0  0  0  0  0  0  0
    3.1800    1.2260    0.4840 C   0  0  0  0  0  0  0  0  0  0  0  0
    3.7430    2.5760    0.7210 C   0  0  0  0  0  0  0  0  0  0  0  0
    3.9310    0.2490   -0.1480 C   0  0  0  0  0  0  0  0  0  0  0  0
    5.2380    0.5750   -0.5550 N   0  0  0  0  0  0  0  0  0  0  0  0
    5.5180    1.1340   -1.8830 C   0  0  0  0  0  0  0  0  0  0  0  0
    6.3480    0.3750    0.3080 C   0  0  0  0  0  0  0  0  0  0  0  0
    6.1790   -0.1510    1.5740 C   0  0  0  0  0  0  0  0  0  0  0  0
    7.2540   -0.3530    2.4260 C   0  0  0  0  0  0  0  0  0  0  0  0
    8.5330   -0.0340    2.0320 C   0  0  0  0  0  0  0  0  0  0  0  0
    9.5910   -0.2500    2.9130 O   0  0  0  0  0  0  0  0  0  0  0  0
   10.9280    0.0560    2.5720 C   0  0  0  0  0  0  0  0  0  0  0  0
    8.7250    0.4920    0.7720 C   0  0  0  0  0  0  0  0  0  0  0  0
    7.6420    0.6920   -0.0770 C   0  0  0  0  0  0  0  0  0  0  0  0
    3.4330   -1.0160   -0.3820 C   0  0  0  0  0  0  0  0  0  0  0  0
    4.2180   -1.9990   -1.0290 N   0  0  0  0  0  0  0  0  0  0  0  0
    2.1610   -1.2730    0.0340 N   0  0  0  0  0  0  0  0  0  0  0  0
   -0.7820    0.2360   -0.9540 N   0  0  0  0  0  0  0  0  0  0  0  0
   -2.0410    0.3310   -1.4110 C   0  0  0  0  0  0  0  0  0  0  0  0
   -2.4950    0.8590   -2.5960 C   0  0  0  0  0  0  0  0  0  0  0  0
  1  2  1  0
  2  3  1  0
  3  4  2  0
  3 38  1  0
  4  5  1  0
  5  6  1  0
  5 14  2  0
  6  7  2  0
  6 13  1  0
  7  8  1  0
  8  9  1  0
  8 11  2  0
  9 10  1  0
 11 12  1  0
 11 13  1  0
 14 15  1  0
 14 37  1  0
 15 16  1  0
 16 17  2  3
 16 36  1  0
 17 18  1  0
 18 19  2  0
 18 35  1  0
 19 20  1  0
 20 21  1  0
 20 22  2  0
 22 23  1  0
 22 33  1  0
 23 24  1  0
 23 25  1  0
 25 26  2  0
 25 32  1  0
 26 27  1  0
 27 28  2  0
 28 29  1  0
 28 31  1  0
 29 30  1  0
 31 32  2  0
 33 34  1  0
 33 35  2  0
 36 37  1  0
 37 38  2  0
M  END
