
     RDKit          3D

 37 40  0  0  0  0  0  0  0  0999 V2000
   -5.9400    2.1260   -0.2310 C   0  0  0  0  0  0  0  0  0  0  0  0
   -4.8600    1.1410    0.0400 C   0  0  0  0  0  0  0  0  0  0  0  0
   -4.9370   -0.1940   -0.1930 N   0  0  0  0  0  0  0  0  0  0  0  0
   -3.8210   -0.8160    0.1410 C   0  0  0  0  0  0  0  0  0  0  0  0
   -3.4340   -2.2410    0.0730 C   0  0  0  0  0  0  0  0  0  0  0  0
   -4.5680   -3.1560   -0.3150 C   0  0  2  0  0  0  0  0  0  0  0  0
   -3.9800   -4.5760   -0.3330 C   0  0  0  0  0  0  0  0  0  0  0  0
   -5.0970   -2.9030   -1.6950 C   0  0  0  0  0  0  0  0  0  0  0  0
   -5.6420   -3.1680    0.7450 C   0  0  0  0  0  0  0  0  0  0  0  0
   -2.9520    0.1480    0.6210 C   0  0  0  0  0  0  0  0  0  0  0  0
   -1.6030   -0.0330    1.1210 C   0  0  0  0  0  0  0  0  0  0  0  0
   -1.3650    0.1030    2.3380 O   0  0  0  0  0  0  0  0  0  0  0  0
   -0.5140   -0.3720    0.2200 C   0  0  0  0  0  0  0  0  0  0  0  0
    0.7420   -0.8700    0.5770 C   0  0  0  0  0  0  0  0  0  0  0  0
    1.6110   -1.1150   -0.4040 C   0  0  0  0  0  0  0  0  0  0  0  0
    2.9800   -1.6690   -0.1560 C   0  0  0  0  0  0  0  0  0  0  0  0
    3.1450   -2.7840    0.3740 O   0  0  0  0  0  0  0  0  0  0  0  0
    4.1110   -0.9140   -0.5270 N   0  0  0  0  0  0  0  0  0  0  0  0
    5.4710   -1.3230   -0.3480 C   0  0  1  0  0  0  0  0  0  0  0  0
    6.1860   -1.4950   -1.7000 C   0  0  0  0  0  0  0  0  0  0  0  0
    7.3520   -2.1850   -1.3930 O   0  0  0  0  0  0  0  0  0  0  0  0
    8.2910   -1.4640   -0.7070 C   0  0  0  0  0  0  0  0  0  0  0  0
    7.8140   -0.5400    0.3430 C   0  0  1  0  0  0  0  0  0  0  0  0
    8.3860    0.8350    0.0760 C   0  0  0  0  0  0  0  0  0  0  0  0
    7.9360    1.7960    0.9450 O   0  0  0  0  0  0  0  0  0  0  0  0
    6.9640    1.4000    1.8370 C   0  0  0  0  0  0  0  0  0  0  0  0
    5.8930    0.6000    1.1710 C   0  0  0  0  0  0  0  0  0  0  0  0
    6.3220   -0.4030    0.4030 C   0  0  0  0  0  0  0  0  0  0  0  0
    1.2180   -0.8630   -1.7120 C   0  0  0  0  0  0  0  0  0  0  0  0
   -0.4190   -0.2690   -1.5000 S   0  0  0  0  0  0  0  0  0  0  0  0
   -3.6090    1.3810    0.5570 C   0  0  0  0  0  0  0  0  0  0  0  0
   -3.0310    2.6320    0.9900 C   0  0  0  0  0  0  0  0  0  0  0  0
   -1.8240    2.6310    1.4330 O   0  0  0  0  0  0  0  0  0  0  0  0
   -3.6730    3.9570    0.9890 C   0  0  0  0  0  0  0  0  0  0  0  0
   -3.0860    4.7640   -0.1540 C   0  0  2  0  0  0  0  0  0  0  0  0
   -3.7590    6.1100   -0.1330 C   0  0  0  0  0  0  0  0  0  0  0  0
   -3.2180    4.1700   -1.3820 O   0  0  0  0  0  0  0  0  0  0  0  0
  1  2  1  0
  2  3  1  0
  2 31  2  0
  3  4  1  0
  4  5  1  0
  4 10  2  0
  5  6  1  0
  6  7  1  6
  6  8  1  0
  6  9  1  0
 10 11  1  0
 10 31  1  0
 11 12  2  0
 11 13  1  0
 13 14  2  0
 13 30  1  0
 14 15  1  0
 15 16  1  0
 15 29  2  0
 16 17  2  0
 16 18  1  0
 19 18  1  6
 19 20  1  0
 19 28  1  0
 20 21  1  0
 21 22  1  0
 23 22  1  6
 23 24  1  0
 23 28  1  0
 24 25  1  0
 25 26  1  0
 26 27  1  0
 27 28  2  0
 29 30  1  0
 31 32  1  0
 32 33  2  0
 32 34  1  0
 34 35  1  0
 35 36  1  6
 35 37  1  0
M  END
