
     RDKit          3D

 39 42  0  0  0  0  0  0  0  0999 V2000
   -5.4790    2.6550    0.3820 C   0  0  0  0  0  0  0  0  0  0  0  0
   -4.1590    2.3500   -0.1440 N   0  0  0  0  0  0  0  0  0  0  0  0
   -3.2450    1.5980    0.5750 C   0  0  0  0  0  0  0  0  0  0  0  0
   -3.4390    1.1240    1.6880 O   0  0  0  0  0  0  0  0  0  0  0  0
   -1.8580    1.3370   -0.0590 C   0  0  1  0  0  0  0  0  0  0  0  0
   -1.1400    2.4920    0.5180 C   0  0  2  0  0  0  0  0  0  0  0  0
   -1.9120    3.6820    0.3170 O   0  0  0  0  0  0  0  0  0  0  0  0
    0.3200    2.7660    0.3750 C   0  0  0  0  0  0  0  0  0  0  0  0
    0.7670    3.1400    1.6740 C   0  0  0  0  0  0  0  0  0  0  0  0
    2.0470    3.2910    2.0830 C   0  0  0  0  0  0  0  0  0  0  0  0
    2.4330    3.6880    3.3890 C   0  0  0  0  0  0  0  0  0  0  0  0
    2.7420    4.0210    4.4200 N   0  0  0  0  0  0  0  0  0  0  0  0
    2.9330    3.0300    1.0900 C   0  0  0  0  0  0  0  0  0  0  0  0
    2.5950    2.6480   -0.2290 C   0  0  0  0  0  0  0  0  0  0  0  0
    1.2730    2.5350   -0.6150 C   0  0  0  0  0  0  0  0  0  0  0  0
    0.8580    2.5720   -2.1350 C   0  0  0  0  0  0  0  0  0  0  0  0
    3.8380    2.0660   -0.7930 N   0  0  0  0  0  0  0  0  0  0  0  0
    4.0960    0.6740   -1.1100 C   0  0  0  0  0  0  0  0  0  0  0  0
    5.1320    0.3570   -1.8080 O   0  0  0  0  0  0  0  0  0  0  0  0
    3.3310   -0.4800   -0.7400 N   0  0  0  0  0  0  0  0  0  0  0  0
    4.0390   -1.5560   -0.0430 C   0  0  0  0  0  0  0  0  0  0  0  0
    5.3470   -1.3240    0.3940 C   0  0  0  0  0  0  0  0  0  0  0  0
    6.0690   -2.3010    1.0490 C   0  0  0  0  0  0  0  0  0  0  0  0
    5.5050   -3.5350    1.2850 C   0  0  0  0  0  0  0  0  0  0  0  0
    4.1980   -3.7660    0.8480 C   0  0  0  0  0  0  0  0  0  0  0  0
    3.4840   -2.7900    0.1960 C   0  0  0  0  0  0  0  0  0  0  0  0
    2.1900   -3.0020   -0.2490 O   0  0  0  0  0  0  0  0  0  0  0  0
    1.8410   -2.2650   -1.4370 C   0  0  0  0  0  0  0  0  0  0  0  0
    1.9570   -0.7930   -0.9720 C   0  0  1  0  0  0  0  0  0  0  0  0
    1.0020   -0.5940    0.2280 C   0  0  0  0  0  0  0  0  0  0  0  0
   -0.2700   -0.4650   -0.3140 N   0  0  0  0  0  0  0  0  0  0  0  0
   -1.4870   -0.0880    0.3840 C   0  0  2  0  0  0  0  0  0  0  0  0
   -2.5190   -1.0450   -0.2230 C   0  0  1  0  0  0  0  0  0  0  0  0
   -2.4450   -2.4310    0.2670 C   0  0  0  0  0  0  0  0  0  0  0  0
   -1.2840   -3.3230    0.1400 C   0  0  0  0  0  0  0  0  0  0  0  0
   -1.6710   -4.6200    0.7140 O   0  0  0  0  0  0  0  0  0  0  0  0
   -3.8520   -0.5750   -0.6010 C   0  0  0  0  0  0  0  0  0  0  0  0
   -4.6400   -1.7820   -1.2310 C   0  0  0  0  0  0  0  0  0  0  0  0
   -5.8690   -1.1580   -1.6330 O   0  0  0  0  0  0  0  0  0  0  0  0
  1  2  1  0
  2  3  1  0
  3  4  2  0
  5  3  1  1
  5  6  1  0
  5 32  1  0
  6  7  1  6
  6  8  1  0
  8  9  1  0
  8 15  2  0
  9 10  2  0
 10 11  1  0
 10 13  1  0
 11 12  3  0
 13 14  2  0
 14 15  1  0
 14 17  1  0
 15 16  1  0
 17 18  1  0
 18 19  2  0
 18 20  1  0
 20 21  1  0
 20 29  1  0
 21 22  2  0
 21 26  1  0
 22 23  1  0
 23 24  2  0
 24 25  1  0
 25 26  2  0
 26 27  1  0
 27 28  1  0
 29 28  1  1
 29 30  1  0
 30 31  1  0
 32 31  1  6
 32 33  1  0
 33 34  1  1
 33 37  1  0
 34 35  1  0
 35 36  1  0
 37 38  1  0
 38 39  1  0
M  CHG  1  31   1
M  END
