
     RDKit          3D

 39 43  0  0  0  0  0  0  0  0999 V2000
   -5.1660   -2.2480    1.2370 C   0  0  0  0  0  0  0  0  0  0  0  0
   -4.7190   -1.0390    2.0090 C   0  0  1  0  0  0  0  0  0  0  0  0
   -5.1190   -1.0540    3.3260 O   0  0  0  0  0  0  0  0  0  0  0  0
   -3.1880   -0.9960    1.9180 C   0  0  2  0  0  0  0  0  0  0  0  0
   -2.6820   -0.5120    3.1110 O   0  0  0  0  0  0  0  0  0  0  0  0
   -2.9850   -0.0070    0.7770 C   0  0  1  0  0  0  0  0  0  0  0  0
   -1.9870   -0.6420   -0.1660 C   0  0  0  0  0  0  0  0  0  0  0  0
   -1.7810    0.1460   -1.2970 O   0  0  0  0  0  0  0  0  0  0  0  0
   -0.6680   -0.5890   -2.3220 S   0  0  2  0  0  0  0  0  0  0  0  0
   -0.2930    0.3260   -3.4550 O   0  0  0  0  0  0  0  0  0  0  0  0
   -1.2710   -1.8240   -2.8790 O   0  0  0  0  0  0  0  0  0  0  0  0
    0.7620   -0.9820   -1.4490 N   0  0  0  0  0  0  0  0  0  0  0  0
    1.5530    0.0050   -0.8010 C   0  0  0  0  0  0  0  0  0  0  0  0
    1.1860    1.1960   -0.8760 O   0  0  0  0  0  0  0  0  0  0  0  0
    2.7960   -0.3320   -0.0420 C   0  0  0  0  0  0  0  0  0  0  0  0
    3.3880    0.9180    0.5120 C   0  0  0  0  0  0  0  0  0  0  0  0
    4.6470    0.6930    1.3040 C   0  0  0  0  0  0  0  0  0  0  0  0
    5.6800    0.0670    0.4130 C   0  0  0  0  0  0  0  0  0  0  0  0
    6.9890   -0.1750    1.1840 C   0  0  2  0  0  0  0  0  0  0  0  0
    7.5150    1.4950    1.7430 S   0  0  0  0  0  0  0  0  0  0  0  0
    8.9430    1.6630    0.5960 C   0  0  0  0  0  0  0  0  0  0  0  0
    9.2850    0.2120    0.4010 C   0  0  2  0  0  0  0  0  0  0  0  0
    9.9150    0.1110   -0.8940 N   0  0  0  0  0  0  0  0  0  0  0  0
    8.9010   -0.1170   -1.8580 C   0  0  0  0  0  0  0  0  0  0  0  0
    9.1060   -0.0550   -3.1090 O   0  0  0  0  0  0  0  0  0  0  0  0
    7.6890   -0.4110   -1.1770 N   0  0  0  0  0  0  0  0  0  0  0  0
    8.0210   -0.5690    0.1980 C   0  0  2  0  0  0  0  0  0  0  0  0
   -4.2190    0.1810    0.1860 O   0  0  0  0  0  0  0  0  0  0  0  0
   -5.0720    0.2490    1.2950 C   0  0  1  0  0  0  0  0  0  0  0  0
   -6.4600    0.2830    0.9320 N   0  0  0  0  0  0  0  0  0  0  0  0
   -7.4340   -0.4050    1.5480 C   0  0  0  0  0  0  0  0  0  0  0  0
   -8.5980   -0.1200    0.9320 N   0  0  0  0  0  0  0  0  0  0  0  0
   -8.3920    0.7480   -0.0810 C   0  0  0  0  0  0  0  0  0  0  0  0
   -9.2290    1.3500   -1.0090 C   0  0  0  0  0  0  0  0  0  0  0  0
  -10.6190    1.0340   -0.9440 N   0  0  0  0  0  0  0  0  0  0  0  0
   -8.6950    2.1770   -1.8950 N   0  0  0  0  0  0  0  0  0  0  0  0
   -7.3740    2.4270   -1.8960 C   0  0  0  0  0  0  0  0  0  0  0  0
   -6.5570    1.8470   -0.9990 N   0  0  0  0  0  0  0  0  0  0  0  0
   -7.0150    0.9940   -0.0630 C   0  0  0  0  0  0  0  0  0  0  0  0
  2  1  1  6
  2  3  1  0
  2  4  1  0
  2 29  1  0
  4  5  1  1
  4  6  1  0
  6  7  1  6
  6 28  1  0
  7  8  1  0
  8  9  1  0
  9 10  2  0
  9 11  2  0
  9 12  1  1
 12 13  1  0
 13 14  2  0
 13 15  1  0
 15 16  1  0
 16 17  1  0
 17 18  1  0
 19 18  1  6
 19 20  1  0
 19 27  1  0
 20 21  1  0
 22 21  1  6
 22 23  1  0
 22 27  1  0
 23 24  1  0
 24 25  2  0
 24 26  1  0
 27 26  1  6
 28 29  1  0
 29 30  1  6
 30 31  1  0
 30 39  1  0
 31 32  2  0
 32 33  1  0
 33 34  2  0
 33 39  1  0
 34 35  1  0
 34 36  1  0
 36 37  2  0
 37 38  1  0
 38 39  2  0
M  END
