
     RDKit          3D

 38 41  0  0  0  0  0  0  0  0999 V2000
    1.3270   -2.5960    1.0260 C   0  0  0  0  0  0  0  0  0  0  0  0
    2.0600   -2.2780   -0.2580 C   0  0  1  0  0  0  0  0  0  0  0  0
    1.6730   -1.1790   -0.9500 O   0  0  0  0  0  0  0  0  0  0  0  0
    0.8510   -0.1180   -1.0300 C   0  0  0  0  0  0  0  0  0  0  0  0
   -0.5020   -0.1890   -1.3010 C   0  0  0  0  0  0  0  0  0  0  0  0
   -1.3830    0.9100   -1.3880 C   0  0  0  0  0  0  0  0  0  0  0  0
   -2.6620    0.6790   -1.6570 O   0  0  0  0  0  0  0  0  0  0  0  0
   -3.8880    1.0560   -1.8560 C   0  0  0  0  0  0  0  0  0  0  0  0
   -4.6820    1.7440   -0.7320 C   0  0  1  0  0  0  0  0  0  0  0  0
   -4.1350    3.1140   -0.5280 C   0  0  0  0  0  0  0  0  0  0  0  0
   -6.0720    1.9400   -1.3480 C   0  0  0  0  0  0  0  0  0  0  0  0
   -6.5160    0.6970   -1.7070 O   0  0  0  0  0  0  0  0  0  0  0  0
   -6.7550   -0.0630   -0.5520 C   0  0  2  0  0  0  0  0  0  0  0  0
   -8.1320    0.3410   -0.0760 C   0  0  0  0  0  0  0  0  0  0  0  0
   -8.4070    0.0260    1.2290 O   0  0  0  0  0  0  0  0  0  0  0  0
   -7.5070    0.7900    2.0100 C   0  0  0  0  0  0  0  0  0  0  0  0
   -6.1800    0.0890    1.8940 C   0  0  0  0  0  0  0  0  0  0  0  0
   -5.6900   -0.0120    0.4650 C   0  0  1  0  0  0  0  0  0  0  0  0
   -4.9670   -1.3810    0.4230 C   0  0  0  0  0  0  0  0  0  0  0  0
   -4.6930    0.9030    0.3220 O   0  0  0  0  0  0  0  0  0  0  0  0
   -0.8080    2.1420   -1.1800 C   0  0  0  0  0  0  0  0  0  0  0  0
    0.5180    2.3030   -0.9090 C   0  0  0  0  0  0  0  0  0  0  0  0
    1.3430    1.2010   -0.8330 C   0  0  0  0  0  0  0  0  0  0  0  0
    2.7470    1.5120   -0.5870 C   0  0  0  0  0  0  0  0  0  0  0  0
    3.2550    2.5400   -1.2130 O   0  0  0  0  0  0  0  0  0  0  0  0
    3.6400    0.8810    0.2180 O   0  0  0  0  0  0  0  0  0  0  0  0
    3.5730    0.4500    1.5190 C   0  0  0  0  0  0  0  0  0  0  0  0
    4.7880   -0.2620    1.9310 C   0  0  2  0  0  0  0  0  0  0  0  0
    5.3380    0.6540    2.9330 O   0  0  0  0  0  0  0  0  0  0  0  0
    5.8760   -0.4320    0.8500 C   0  0  0  0  0  0  0  0  0  0  0  0
    7.1160    0.1440    1.4190 C   0  0  0  0  0  0  0  0  0  0  0  0
    8.2980    0.1980    0.8920 O   0  0  0  0  0  0  0  0  0  0  0  0
    5.7130   -1.0060   -0.3050 C   0  0  0  0  0  0  0  0  0  0  0  0
    6.7080   -1.1920   -1.3710 C   0  0  0  0  0  0  0  0  0  0  0  0
    8.0220   -0.8080   -1.4580 N   0  0  0  0  0  0  0  0  0  0  0  0
    4.3940   -1.6150   -0.8120 C   0  0  0  0  0  0  0  0  0  0  0  0
    3.5680   -2.4080    0.0440 C   0  0  2  0  0  0  0  0  0  0  0  0
    3.8050   -3.8250   -0.1600 O   0  0  0  0  0  0  0  0  0  0  0  0
  2  1  1  1
  2  3  1  0
  2 37  1  0
  3  4  1  0
  4  5  2  0
  4 23  1  0
  5  6  1  0
  6  7  1  0
  6 21  2  0
  7  8  1  0
  8  9  1  0
  9 10  1  1
  9 11  1  0
  9 20  1  0
 11 12  1  0
 12 13  1  0
 13 14  1  1
 13 18  1  0
 14 15  1  0
 15 16  1  0
 16 17  1  0
 17 18  1  0
 18 19  1  1
 18 20  1  0
 21 22  1  0
 22 23  2  0
 23 24  1  0
 24 25  2  0
 24 26  1  0
 26 27  1  0
 27 28  1  0
 28 29  1  1
 28 30  1  0
 30 31  1  0
 30 33  2  0
 31 32  1  0
 33 34  1  0
 33 36  1  0
 34 35  1  0
 36 37  1  0
 37 38  1  6
M  CHG  1  35   1
M  END
