
     RDKit          3D

 39 41  0  0  0  0  0  0  0  0999 V2000
    9.4350   -0.2710   -0.9590 C   0  0  0  0  0  0  0  0  0  0  0  0
    8.3430   -0.2210    0.0580 C   0  0  0  0  0  0  0  0  0  0  0  0
    7.0190   -0.7130   -0.4610 C   0  0  0  0  0  0  0  0  0  0  0  0
    6.4990    0.0760   -1.6270 C   0  0  1  0  0  0  0  0  0  0  0  0
    7.3510    0.0470   -2.6950 O   0  0  0  0  0  0  0  0  0  0  0  0
    5.1070   -0.4990   -1.9400 C   0  0  0  0  0  0  0  0  0  0  0  0
    4.3850   -0.4000   -0.7470 O   0  0  0  0  0  0  0  0  0  0  0  0
    3.0750   -0.8060   -0.5510 C   0  0  0  0  0  0  0  0  0  0  0  0
    2.5140   -1.3060   -1.5800 O   0  0  0  0  0  0  0  0  0  0  0  0
    2.3450   -0.6860    0.7390 C   0  0  2  0  0  0  0  0  0  0  0  0
    1.0740   -1.1900    0.6550 O   0  0  0  0  0  0  0  0  0  0  0  0
    0.1970   -1.3990   -0.3550 C   0  0  0  0  0  0  0  0  0  0  0  0
   -0.2150   -2.5480   -0.7510 O   0  0  0  0  0  0  0  0  0  0  0  0
   -0.3880   -0.2770   -1.1200 C   0  0  0  0  0  0  0  0  0  0  0  0
   -1.6980    0.0130   -1.0090 O   0  0  0  0  0  0  0  0  0  0  0  0
   -2.9620   -0.4370   -0.8690 C   0  0  0  0  0  0  0  0  0  0  0  0
   -3.7450   -0.7830   -1.9760 C   0  0  0  0  0  0  0  0  0  0  0  0
   -5.0390   -1.2490   -1.9360 C   0  0  0  0  0  0  0  0  0  0  0  0
   -5.6090   -1.3840   -0.7010 C   0  0  0  0  0  0  0  0  0  0  0  0
   -4.8660   -1.0520    0.4020 C   0  0  0  0  0  0  0  0  0  0  0  0
   -3.5730   -0.5840    0.3880 C   0  0  0  0  0  0  0  0  0  0  0  0
   -2.9300   -0.2360    1.6940 C   0  0  1  0  0  0  0  0  0  0  0  0
   -1.7040   -0.7390    1.9190 O   0  0  0  0  0  0  0  0  0  0  0  0
   -3.1530    1.1850    2.0480 C   0  0  0  0  0  0  0  0  0  0  0  0
   -4.3950    1.7340    1.6180 O   0  0  0  0  0  0  0  0  0  0  0  0
   -2.3760    2.0100    2.6970 C   0  0  0  0  0  0  0  0  0  0  0  0
   -2.8790    3.4380    2.9140 C   0  0  0  0  0  0  0  0  0  0  0  0
   -1.0400    1.7700    3.2630 C   0  0  1  0  0  0  0  0  0  0  0  0
   -0.8590    0.5910    3.9250 O   0  0  0  0  0  0  0  0  0  0  0  0
   -0.0270    2.0490    2.1710 C   0  0  0  0  0  0  0  0  0  0  0  0
    1.2350    2.1340    2.7590 O   0  0  0  0  0  0  0  0  0  0  0  0
    1.8390    0.8930    2.5990 C   0  0  0  0  0  0  0  0  0  0  0  0
    2.4400    0.7480    1.2070 C   0  0  1  0  0  0  0  0  0  0  0  0
    3.8300    1.1490    1.3260 N   0  0  0  0  0  0  0  0  0  0  0  0
   -7.0000   -1.8760   -0.5840 C   0  0  0  0  0  0  0  0  0  0  0  0
   -7.7660   -1.1690   -1.7110 C   0  0  0  0  0  0  0  0  0  0  0  0
   -7.2220   -1.7400   -3.0010 C   0  0  1  0  0  0  0  0  0  0  0  0
   -7.9240   -1.1050   -4.0520 O   0  0  0  0  0  0  0  0  0  0  0  0
   -5.7580   -1.5790   -3.1950 C   0  0  0  0  0  0  0  0  0  0  0  0
  1  2  1  0
  2  3  1  0
  3  4  1  0
  4  5  1  6
  4  6  1  0
  6  7  1  0
  7  8  1  0
  8  9  2  0
 10  8  1  6
 10 11  1  0
 10 33  1  0
 11 12  1  0
 12 13  2  0
 12 14  1  0
 14 15  1  0
 15 16  1  0
 16 17  2  0
 16 21  1  0
 17 18  1  0
 18 19  2  0
 18 39  1  0
 19 20  1  0
 19 35  1  0
 20 21  2  0
 21 22  1  0
 22 23  1  6
 22 24  1  0
 24 25  1  0
 24 26  2  0
 26 27  1  0
 26 28  1  0
 28 29  1  6
 28 30  1  0
 30 31  1  0
 31 32  1  0
 32 33  1  0
 33 34  1  1
 35 36  1  0
 36 37  1  0
 37 38  1  6
 37 39  1  0
M  CHG  1  34   1
M  END
