
     RDKit          3D

 39 42  0  0  0  0  0  0  0  0999 V2000
    5.8750   -1.5950   -1.4940 C   0  0  0  0  0  0  0  0  0  0  0  0
    4.4250   -1.3860   -1.1300 C   0  0  0  0  0  0  0  0  0  0  0  0
    3.7650   -0.2690   -1.1590 O   0  0  0  0  0  0  0  0  0  0  0  0
    2.4830   -0.4410   -0.7690 C   0  0  0  0  0  0  0  0  0  0  0  0
    2.3410   -1.7640   -0.4780 C   0  0  0  0  0  0  0  0  0  0  0  0
    3.5740   -2.3780   -0.7050 C   0  0  0  0  0  0  0  0  0  0  0  0
    3.8340   -3.7270   -0.5210 O   0  0  0  0  0  0  0  0  0  0  0  0
    1.0690   -2.4140    0.0030 C   0  0  2  0  0  0  0  0  0  0  0  0
    1.3140   -3.1020    1.2030 O   0  0  0  0  0  0  0  0  0  0  0  0
    0.5470   -3.3970   -0.9910 C   0  0  0  0  0  0  0  0  0  0  0  0
   -0.4220   -4.2750   -0.5550 O   0  0  0  0  0  0  0  0  0  0  0  0
   -1.7250   -4.1160   -0.2050 C   0  0  0  0  0  0  0  0  0  0  0  0
   -2.6260   -4.7220   -0.8830 O   0  0  0  0  0  0  0  0  0  0  0  0
   -2.2310   -3.2910    0.9130 C   0  0  0  0  0  0  0  0  0  0  0  0
   -3.3540   -2.3420    0.4860 C   0  0  0  0  0  0  0  0  0  0  0  0
   -3.0530   -1.0260    1.1220 C   0  0  2  0  0  0  0  0  0  0  0  0
   -3.5190   -1.1140    2.4560 O   0  0  0  0  0  0  0  0  0  0  0  0
   -3.6890    0.1690    0.5240 C   0  0  2  0  0  0  0  0  0  0  0  0
   -3.4070    1.3490    1.4720 C   0  0  0  0  0  0  0  0  0  0  0  0
   -3.9990    0.9750    2.7030 O   0  0  0  0  0  0  0  0  0  0  0  0
   -5.2320    0.0720    0.5700 C   0  0  0  0  0  0  0  0  0  0  0  0
   -5.6530    1.3750    0.2080 O   0  0  0  0  0  0  0  0  0  0  0  0
   -5.2010    1.7370   -1.0480 C   0  0  0  0  0  0  0  0  0  0  0  0
   -3.7890    1.7880   -1.1290 O   0  0  0  0  0  0  0  0  0  0  0  0
   -3.3620    0.4770   -0.8910 C   0  0  1  0  0  0  0  0  0  0  0  0
   -2.0130    0.1800   -1.3820 C   0  0  0  0  0  0  0  0  0  0  0  0
   -0.9430    1.0440   -0.9650 N   0  0  0  0  0  0  0  0  0  0  0  0
    0.2670    0.5590   -1.6350 C   0  0  1  0  0  0  0  0  0  0  0  0
    0.5470    1.2170   -2.9350 C   0  0  0  0  0  0  0  0  0  0  0  0
    0.7590    2.6860   -2.9280 C   0  0  0  0  0  0  0  0  0  0  0  0
    1.8120    3.1490   -2.1830 O   0  0  0  0  0  0  0  0  0  0  0  0
    1.4540    0.6010   -0.6830 C   0  0  0  0  0  0  0  0  0  0  0  0
    1.5130    1.5620    0.1970 C   0  0  0  0  0  0  0  0  0  0  0  0
    2.4700    1.8520    1.2230 C   0  0  0  0  0  0  0  0  0  0  0  0
    2.2580    2.9780    1.9660 C   0  0  0  0  0  0  0  0  0  0  0  0
    3.3060    3.1980    3.0060 C   0  0  0  0  0  0  0  0  0  0  0  0
    4.6990    2.9450    2.4760 C   0  0  0  0  0  0  0  0  0  0  0  0
    4.7480    1.9590    1.4900 O   0  0  0  0  0  0  0  0  0  0  0  0
    3.6430    1.0980    1.6690 C   0  0  0  0  0  0  0  0  0  0  0  0
  1  2  1  0
  2  3  1  0
  2  6  2  0
  3  4  1  0
  4  5  2  0
  4 32  1  0
  5  6  1  0
  5  8  1  0
  6  7  1  0
  8  9  1  1
  8 10  1  0
 10 11  1  0
 11 12  1  0
 12 13  2  0
 12 14  1  0
 14 15  1  0
 15 16  1  0
 16 17  1  1
 16 18  1  0
 18 19  1  1
 18 21  1  0
 18 25  1  0
 19 20  1  0
 21 22  1  0
 22 23  1  0
 23 24  1  0
 24 25  1  0
 25 26  1  1
 26 27  1  0
 27 28  1  0
 28 29  1  6
 28 32  1  0
 29 30  1  0
 30 31  1  0
 32 33  2  3
 33 34  1  0
 34 35  2  0
 34 39  1  0
 35 36  1  0
 36 37  1  0
 37 38  1  0
 38 39  1  0
M  CHG  1  27   1
M  END
