
     RDKit          3D

 39 42  0  0  0  0  0  0  0  0999 V2000
   -7.7600    2.8300   -0.3690 C   0  0  0  0  0  0  0  0  0  0  0  0
   -7.9620    1.3110   -0.3080 C   0  0  2  0  0  0  0  0  0  0  0  0
   -9.0420    0.9930   -1.1170 O   0  0  0  0  0  0  0  0  0  0  0  0
   -8.1480    0.9510    1.1260 C   0  0  0  0  0  0  0  0  0  0  0  0
   -7.6250   -0.4000    1.5040 C   0  0  0  0  0  0  0  0  0  0  0  0
   -6.1690   -0.5880    1.1760 C   0  0  0  0  0  0  0  0  0  0  0  0
   -5.7350    0.5520    0.3040 C   0  0  1  0  0  0  0  0  0  0  0  0
   -4.3300    0.4640   -0.1380 C   0  0  0  0  0  0  0  0  0  0  0  0
   -4.1050    0.4070   -1.3760 O   0  0  0  0  0  0  0  0  0  0  0  0
   -3.2390    0.4380    0.6970 O   0  0  0  0  0  0  0  0  0  0  0  0
   -1.8900    0.3530    0.2540 C   0  0  2  0  0  0  0  0  0  0  0  0
   -1.1690   -0.8270    0.8540 C   0  0  0  0  0  0  0  0  0  0  0  0
    0.1690   -0.2570    1.2160 C   0  0  1  0  0  0  0  0  0  0  0  0
    0.8970   -1.0420    2.2500 C   0  0  0  0  0  0  0  0  0  0  0  0
    1.8530   -2.0530    1.7730 C   0  0  0  0  0  0  0  0  0  0  0  0
    2.5190   -1.7720    0.4640 C   0  0  2  0  0  0  0  0  0  0  0  0
    3.5850   -0.7480    0.5650 C   0  0  0  0  0  0  0  0  0  0  0  0
    3.8870   -0.1760    1.6330 O   0  0  0  0  0  0  0  0  0  0  0  0
    4.2740   -0.4130   -0.5850 O   0  0  0  0  0  0  0  0  0  0  0  0
    5.2900    0.5290   -0.6280 C   0  0  0  0  0  0  0  0  0  0  0  0
    4.9710    1.8630   -0.9020 C   0  0  0  0  0  0  0  0  0  0  0  0
    5.9320    2.8440   -0.9580 C   0  0  0  0  0  0  0  0  0  0  0  0
    7.2570    2.5360   -0.7440 C   0  0  0  0  0  0  0  0  0  0  0  0
    8.2290    3.5270   -0.8010 O   0  0  0  0  0  0  0  0  0  0  0  0
    7.6010    1.2290   -0.4720 C   0  0  0  0  0  0  0  0  0  0  0  0
    6.6150    0.2430   -0.4180 C   0  0  0  0  0  0  0  0  0  0  0  0
    6.9400   -1.0830   -0.1450 O   0  0  0  0  0  0  0  0  0  0  0  0
    8.3060   -1.4120    0.0790 C   0  0  0  0  0  0  0  0  0  0  0  0
    8.4530   -2.8870    0.3560 C   0  0  0  0  0  0  0  0  0  0  0  0
    9.8700   -3.1390    0.5730 N   0  0  0  0  0  0  0  0  0  0  0  0
    1.5210   -1.2300   -0.5690 C   0  0  0  0  0  0  0  0  0  0  0  0
    1.0290    0.0680    0.0320 C   0  0  1  0  0  0  0  0  0  0  0  0
    0.4610    0.9240   -0.8630 O   0  0  0  0  0  0  0  0  0  0  0  0
   -0.2280    1.0090    1.7710 O   0  0  0  0  0  0  0  0  0  0  0  0
   -1.1760    1.4910    0.8840 C   0  0  0  0  0  0  0  0  0  0  0  0
   -1.3720    2.7140    0.6710 O   0  0  0  0  0  0  0  0  0  0  0  0
   -6.6720    0.6870   -0.8570 C   0  0  1  0  0  0  0  0  0  0  0  0
   -6.9720   -0.6220   -1.5450 C   0  0  0  0  0  0  0  0  0  0  0  0
   -6.1970    1.5660   -1.8350 O   0  0  0  0  0  0  0  0  0  0  0  0
  2  1  1  1
  2  3  1  0
  2  4  1  0
  2 37  1  0
  4  5  1  0
  5  6  1  0
  6  7  1  0
  7  8  1  6
  7 37  1  0
  8  9  2  0
  8 10  1  0
 11 10  1  1
 11 12  1  0
 11 35  1  0
 13 12  1  6
 13 14  1  0
 13 32  1  0
 13 34  1  0
 14 15  1  0
 15 16  1  0
 16 17  1  1
 16 31  1  0
 17 18  2  0
 17 19  1  0
 19 20  1  0
 20 21  2  0
 20 26  1  0
 21 22  1  0
 22 23  2  0
 23 24  1  0
 23 25  1  0
 25 26  2  0
 26 27  1  0
 27 28  1  0
 28 29  1  0
 29 30  1  0
 31 32  1  0
 32 33  1  6
 34 35  1  0
 35 36  2  0
 37 38  1  6
 37 39  1  0
M  CHG  1  30   1
M  END
