
     RDKit          3D

 39 42  0  0  0  0  0  0  0  0999 V2000
    2.2340    4.6650   -0.8650 C   0  0  0  0  0  0  0  0  0  0  0  0
    2.5690    3.2030   -1.0580 C   0  0  0  0  0  0  0  0  0  0  0  0
    3.2870    2.8650   -2.1760 C   0  0  0  0  0  0  0  0  0  0  0  0
    3.6950    1.5680   -2.3130 C   0  0  0  0  0  0  0  0  0  0  0  0
    3.3700    0.6580   -1.3180 C   0  0  0  0  0  0  0  0  0  0  0  0
    3.6440   -0.6090   -1.1830 O   0  0  0  0  0  0  0  0  0  0  0  0
    3.1920   -1.1400   -0.0940 C   0  0  0  0  0  0  0  0  0  0  0  0
    3.3910   -2.5680    0.2750 C   0  0  2  0  0  0  0  0  0  0  0  0
    3.9910   -2.6350    1.5330 O   0  0  0  0  0  0  0  0  0  0  0  0
    4.1780   -3.2710   -0.7730 C   0  0  1  0  0  0  0  0  0  0  0  0
    5.5830   -2.7800   -1.1000 C   0  0  0  0  0  0  0  0  0  0  0  0
    5.3330   -4.1300   -0.4960 C   0  0  0  0  0  0  0  0  0  0  0  0
    2.5150   -0.1080    0.6130 C   0  0  0  0  0  0  0  0  0  0  0  0
    2.6280    1.0040   -0.1670 C   0  0  0  0  0  0  0  0  0  0  0  0
    2.2160    2.2860   -0.0330 C   0  0  0  0  0  0  0  0  0  0  0  0
    1.3720    2.9080    0.9840 C   0  0  0  0  0  0  0  0  0  0  0  0
    1.9510    3.9260    1.7900 O   0  0  0  0  0  0  0  0  0  0  0  0
    0.1020    2.6890    1.2920 C   0  0  0  0  0  0  0  0  0  0  0  0
   -0.5880    3.3950    2.3560 C   0  0  0  0  0  0  0  0  0  0  0  0
   -1.7830    3.1520    2.6040 O   0  0  0  0  0  0  0  0  0  0  0  0
   -0.7980    1.7830    0.4790 C   0  0  0  0  0  0  0  0  0  0  0  0
   -2.1250    1.9550    0.8070 O   0  0  0  0  0  0  0  0  0  0  0  0
   -3.2040    1.1940    0.9790 C   0  0  0  0  0  0  0  0  0  0  0  0
   -3.6970    0.7960    2.0970 O   0  0  0  0  0  0  0  0  0  0  0  0
   -3.9940    0.7010   -0.2230 C   0  0  2  0  0  0  0  0  0  0  0  0
   -5.3690    0.3290    0.1610 C   0  0  0  0  0  0  0  0  0  0  0  0
   -6.2520   -0.1380   -0.8690 N   0  0  0  0  0  0  0  0  0  0  0  0
   -3.2240   -0.4260   -0.8170 C   0  0  2  0  0  0  0  0  0  0  0  0
   -3.4990   -0.6470   -2.2910 C   0  0  0  0  0  0  0  0  0  0  0  0
   -3.1790    0.5180   -2.9930 O   0  0  0  0  0  0  0  0  0  0  0  0
   -3.3040   -1.7300   -0.0730 C   0  0  2  0  0  0  0  0  0  0  0  0
   -3.5620   -1.6450    1.2660 O   0  0  0  0  0  0  0  0  0  0  0  0
   -1.9580   -2.4740   -0.1880 C   0  0  0  0  0  0  0  0  0  0  0  0
   -1.4510   -2.7320    1.0790 O   0  0  0  0  0  0  0  0  0  0  0  0
   -0.2620   -2.0890    1.3080 C   0  0  0  0  0  0  0  0  0  0  0  0
   -0.3550   -1.0880    2.4540 C   0  0  0  0  0  0  0  0  0  0  0  0
    0.7380   -0.1980    2.4980 O   0  0  0  0  0  0  0  0  0  0  0  0
    1.9790   -0.3020    1.9440 C   0  0  0  0  0  0  0  0  0  0  0  0
    2.8870   -0.6690    2.8660 O   0  0  0  0  0  0  0  0  0  0  0  0
  1  2  1  0
  2  3  2  0
  2 15  1  0
  3  4  1  0
  4  5  2  0
  5  6  1  0
  5 14  1  0
  6  7  1  0
  7  8  1  0
  7 13  2  0
  8  9  1  1
  8 10  1  0
 10 11  1  6
 10 12  1  0
 11 12  1  0
 13 14  1  0
 13 38  1  0
 14 15  2  0
 15 16  1  0
 16 17  1  0
 16 18  2  0
 18 19  1  0
 18 21  1  0
 19 20  2  0
 21 22  1  0
 22 23  1  0
 23 24  2  0
 23 25  1  0
 25 26  1  1
 25 28  1  0
 26 27  1  0
 28 29  1  6
 28 31  1  0
 29 30  1  0
 31 32  1  1
 31 33  1  0
 33 34  1  0
 34 35  1  0
 35 36  1  0
 36 37  1  0
 37 38  1  0
 38 39  2  0
M  CHG  1  27   1
M  END
