
     RDKit          3D

 36 40  0  0  0  0  0  0  0  0999 V2000
   -8.0640   -1.9730    0.6170 C   0  0  0  0  0  0  0  0  0  0  0  0
   -7.6060   -0.5620    0.7850 C   0  0  0  0  0  0  0  0  0  0  0  0
   -8.4240    0.3330    1.1160 O   0  0  0  0  0  0  0  0  0  0  0  0
   -6.2190   -0.1780    0.5760 C   0  0  0  0  0  0  0  0  0  0  0  0
   -5.8100    1.1130    0.7320 C   0  0  0  0  0  0  0  0  0  0  0  0
   -4.4750    1.5410    0.5420 C   0  0  0  0  0  0  0  0  0  0  0  0
   -4.1370    2.9490    0.6430 C   0  0  0  0  0  0  0  0  0  0  0  0
   -3.5820    0.5630    0.1840 C   0  0  0  0  0  0  0  0  0  0  0  0
   -2.2780    0.9090   -0.0290 C   0  0  0  0  0  0  0  0  0  0  0  0
   -1.3430   -0.0770   -0.4310 C   0  0  0  0  0  0  0  0  0  0  0  0
   -1.7280   -1.3550   -0.5970 C   0  0  0  0  0  0  0  0  0  0  0  0
   -0.5440   -2.5580   -1.0760 Cl  0  0  0  0  0  0  0  0  0  0  0  0
   -3.0470   -1.7150   -0.3750 C   0  0  0  0  0  0  0  0  0  0  0  0
   -3.3620   -3.0370   -0.5620 O   0  0  0  0  0  0  0  0  0  0  0  0
   -3.9730   -0.7720    0.0130 C   0  0  0  0  0  0  0  0  0  0  0  0
   -5.2850   -1.1160    0.2120 C   0  0  0  0  0  0  0  0  0  0  0  0
    0.0140    0.4450   -0.6920 C   0  0  1  0  0  0  0  0  0  0  0  0
    0.8950   -0.5160   -1.3450 N   0  0  0  0  0  0  0  0  0  0  0  0
    2.0430   -1.0790   -0.7520 C   0  0  0  0  0  0  0  0  0  0  0  0
    2.2850   -0.7030    0.4310 O   0  0  0  0  0  0  0  0  0  0  0  0
    2.8890   -2.0470   -1.5000 C   0  0  0  0  0  0  0  0  0  0  0  0
    3.9970   -2.3900   -0.7310 O   0  0  0  0  0  0  0  0  0  0  0  0
    4.9460   -1.4990   -0.3310 C   0  0  0  0  0  0  0  0  0  0  0  0
    4.8940   -0.1790   -0.6730 C   0  0  0  0  0  0  0  0  0  0  0  0
    5.8800    0.7050   -0.2440 C   0  0  0  0  0  0  0  0  0  0  0  0
    6.9160    0.2350    0.5330 C   0  0  0  0  0  0  0  0  0  0  0  0
    6.9980   -1.0940    0.8970 C   0  0  0  0  0  0  0  0  0  0  0  0
    5.9990   -1.9500    0.4530 C   0  0  0  0  0  0  0  0  0  0  0  0
    8.0490   -1.5370    1.6780 O   0  0  0  0  0  0  0  0  0  0  0  0
    8.8960   -0.6690    2.3740 C   0  0  0  0  0  0  0  0  0  0  0  0
    8.9990    0.6060    1.7890 O   0  0  0  0  0  0  0  0  0  0  0  0
    7.9790    1.1150    1.0130 C   0  0  0  0  0  0  0  0  0  0  0  0
    7.9590    2.3320    0.7150 O   0  0  0  0  0  0  0  0  0  0  0  0
   -0.0630    1.7060   -1.4950 C   0  0  0  0  0  0  0  0  0  0  0  0
   -0.9760    2.7730   -0.9960 C   0  0  0  0  0  0  0  0  0  0  0  0
   -1.7400    2.2170    0.2260 C   0  0  0  0  0  0  0  0  0  0  0  0
  1  2  1  0
  2  3  2  0
  2  4  1  0
  4  5  2  0
  4 16  1  0
  5  6  1  0
  6  7  1  0
  6  8  2  0
  8  9  1  0
  8 15  1  0
  9 10  2  0
  9 36  1  0
 10 11  1  0
 10 17  1  0
 11 12  1  0
 11 13  2  0
 13 14  1  0
 13 15  1  0
 15 16  2  0
 17 18  1  6
 17 34  1  0
 18 19  1  0
 19 20  2  0
 19 21  1  0
 21 22  1  0
 22 23  1  0
 23 24  2  0
 23 28  1  0
 24 25  1  0
 25 26  2  0
 26 27  1  0
 26 32  1  0
 27 28  2  0
 27 29  1  0
 29 30  1  0
 30 31  1  0
 31 32  1  0
 32 33  2  0
 34 35  1  0
 35 36  1  0
M  END
