
     RDKit          3D

 36 40  0  0  0  0  0  0  0  0999 V2000
   -1.3120   -0.0360    4.3900 C   0  0  0  0  0  0  0  0  0  0  0  0
   -1.2690   -0.4240    3.0300 O   0  0  0  0  0  0  0  0  0  0  0  0
   -1.9910    0.2850    2.1050 C   0  0  0  0  0  0  0  0  0  0  0  0
   -2.6650    1.2520    2.4950 O   0  0  0  0  0  0  0  0  0  0  0  0
   -2.0140   -0.0380    0.6540 C   0  0  0  0  0  0  0  0  0  0  0  0
   -2.7280    0.6700   -0.1730 C   0  0  0  0  0  0  0  0  0  0  0  0
   -2.9210    0.5670   -1.6470 C   0  0  0  0  0  0  0  0  0  0  0  0
   -3.1360    2.0180   -2.0690 C   0  0  0  0  0  0  0  0  0  0  0  0
   -3.5400    2.7800   -0.8620 C   0  0  0  0  0  0  0  0  0  0  0  0
   -3.5820    1.7780    0.1760 N   0  0  0  0  0  0  0  0  0  0  0  0
   -1.1630   -1.2090    0.3270 C   0  0  1  0  0  0  0  0  0  0  0  0
   -1.4740   -1.9270   -0.9100 C   0  0  0  0  0  0  0  0  0  0  0  0
   -0.5200   -2.0900   -1.8190 C   0  0  0  0  0  0  0  0  0  0  0  0
   -0.7550   -2.7870   -3.0710 C   0  0  0  0  0  0  0  0  0  0  0  0
    0.5420   -2.9760   -4.2370 Cl  0  0  0  0  0  0  0  0  0  0  0  0
   -1.9360   -3.2930   -3.3650 C   0  0  0  0  0  0  0  0  0  0  0  0
   -2.9710   -3.1620   -2.4710 O   0  0  0  0  0  0  0  0  0  0  0  0
   -2.7640   -2.4960   -1.2590 C   0  0  0  0  0  0  0  0  0  0  0  0
   -3.7870   -2.3930   -0.4060 C   0  0  0  0  0  0  0  0  0  0  0  0
   -5.0420   -2.9070   -0.6700 O   0  0  0  0  0  0  0  0  0  0  0  0
    0.2930   -0.9830    0.5010 C   0  0  0  0  0  0  0  0  0  0  0  0
    1.0350   -2.0240    1.0870 C   0  0  0  0  0  0  0  0  0  0  0  0
    2.3920   -1.9940    1.2580 C   0  0  0  0  0  0  0  0  0  0  0  0
    3.0930   -0.8950    0.8420 C   0  0  0  0  0  0  0  0  0  0  0  0
    2.4220    0.1450    0.2670 C   0  0  0  0  0  0  0  0  0  0  0  0
    1.0200    0.0880    0.1040 C   0  0  0  0  0  0  0  0  0  0  0  0
    0.4110    1.1850   -0.4780 O   0  0  0  0  0  0  0  0  0  0  0  0
    0.1360    2.2750    0.4140 C   0  0  0  0  0  0  0  0  0  0  0  0
    3.0930    1.2860   -0.1720 O   0  0  0  0  0  0  0  0  0  0  0  0
    4.4780    1.3070    0.0050 C   0  0  0  0  0  0  0  0  0  0  0  0
    5.2360    2.3980   -0.3990 C   0  0  0  0  0  0  0  0  0  0  0  0
    6.5990    2.4440   -0.2370 C   0  0  0  0  0  0  0  0  0  0  0  0
    7.2470    1.3800    0.3460 C   0  0  0  0  0  0  0  0  0  0  0  0
    6.5380    0.2740    0.7650 C   0  0  0  0  0  0  0  0  0  0  0  0
    5.1570    0.2570    0.5850 C   0  0  0  0  0  0  0  0  0  0  0  0
    4.4650   -0.8670    1.0150 O   0  0  0  0  0  0  0  0  0  0  0  0
  1  2  1  0
  2  3  1  0
  3  4  2  0
  3  5  1  0
  5  6  2  3
 11  5  1  6
  6  7  1  0
  6 10  1  0
  7  8  1  0
  8  9  1  0
  9 10  1  0
 11 12  1  0
 11 21  1  0
 12 13  2  0
 12 18  1  0
 13 14  1  0
 14 15  1  0
 14 16  2  0
 16 17  1  0
 17 18  1  0
 18 19  2  3
 19 20  1  0
 21 22  2  0
 21 26  1  0
 22 23  1  0
 23 24  2  0
 24 25  1  0
 24 36  1  0
 25 26  2  0
 25 29  1  0
 26 27  1  0
 27 28  1  0
 29 30  1  0
 30 31  2  0
 30 35  1  0
 31 32  1  0
 32 33  2  0
 33 34  1  0
 34 35  2  0
 35 36  1  0
M  END
