
     RDKit          3D

 37 42  0  0  0  0  0  0  0  0999 V2000
   10.7470   -2.0480   -1.0070 C   0  0  0  0  0  0  0  0  0  0  0  0
    9.4970   -1.8670   -1.1850 N   0  0  0  0  0  0  0  0  0  0  0  0
    8.5480   -1.8690   -0.1780 C   0  0  0  0  0  0  0  0  0  0  0  0
    7.3680   -1.3140   -0.1840 C   0  0  0  0  0  0  0  0  0  0  0  0
    6.5400   -1.4520    1.0050 N   0  0  0  0  0  0  0  0  0  0  0  0
    5.2570   -0.8900    1.0890 C   0  0  0  0  0  0  0  0  0  0  0  0
    4.5270   -1.0640    2.2540 C   0  0  0  0  0  0  0  0  0  0  0  0
    3.2560   -0.5130    2.3530 C   0  0  0  0  0  0  0  0  0  0  0  0
    2.7240    0.2000    1.3030 C   0  0  0  0  0  0  0  0  0  0  0  0
    1.4790    0.7450    1.3870 O   0  0  0  0  0  0  0  0  0  0  0  0
    0.8350    1.4850    0.3950 C   0  0  0  0  0  0  0  0  0  0  0  0
   -0.4960    1.8870    0.8940 C   0  0  0  0  0  0  0  0  0  0  0  0
   -0.6630    3.0880    1.5440 C   0  0  0  0  0  0  0  0  0  0  0  0
   -1.9180    3.4740    2.0170 C   0  0  0  0  0  0  0  0  0  0  0  0
   -2.9920    2.6450    1.8300 C   0  0  0  0  0  0  0  0  0  0  0  0
   -2.8510    1.4310    1.1790 C   0  0  0  0  0  0  0  0  0  0  0  0
   -3.9430    0.5560    0.9710 N   0  0  2  0  0  0  0  0  0  0  0  0
   -3.5240   -0.6210    0.2870 C   0  0  0  0  0  0  0  0  0  0  0  0
   -4.6930   -1.5770    0.0310 C   0  0  0  0  0  0  0  0  0  0  0  0
   -5.8010   -0.9080   -0.5950 N   0  0  1  0  0  0  0  0  0  0  0  0
   -6.8780   -1.8470   -0.7650 C   0  0  0  0  0  0  0  0  0  0  0  0
   -8.1470   -1.1470   -1.0610 C   0  0  0  0  0  0  0  0  0  0  0  0
   -9.0480   -0.7140   -0.1730 N   0  0  0  0  0  0  0  0  0  0  0  0
  -10.0840   -0.1200   -0.7910 C   0  0  0  0  0  0  0  0  0  0  0  0
   -9.7920   -0.2010   -2.1090 N   0  0  0  0  0  0  0  0  0  0  0  0
   -8.6330   -0.8150   -2.2720 N   0  0  0  0  0  0  0  0  0  0  0  0
   -6.1850    0.2120    0.2320 C   0  0  0  0  0  0  0  0  0  0  0  0
   -5.0100    1.1800    0.2160 C   0  0  0  0  0  0  0  0  0  0  0  0
   -1.6090    1.0820    0.7270 C   0  0  0  0  0  0  0  0  0  0  0  0
    3.4650    0.3640    0.1500 C   0  0  0  0  0  0  0  0  0  0  0  0
    4.7320   -0.1680    0.0130 C   0  0  0  0  0  0  0  0  0  0  0  0
    5.5310   -0.0110   -1.1870 C   0  0  0  0  0  0  0  0  0  0  0  0
    4.9990    0.7030   -2.2380 C   0  0  0  0  0  0  0  0  0  0  0  0
    5.7410    0.8670   -3.3910 C   0  0  0  0  0  0  0  0  0  0  0  0
    6.9940    0.3280   -3.4960 C   0  0  0  0  0  0  0  0  0  0  0  0
    7.5470   -0.3940   -2.4510 C   0  0  0  0  0  0  0  0  0  0  0  0
    6.8060   -0.5630   -1.2870 C   0  0  0  0  0  0  0  0  0  0  0  0
  1  2  2  0
  2  3  1  0
  3  4  2  3
  4  5  1  0
  4 37  1  0
  5  6  1  0
  6  7  2  0
  6 31  1  0
  7  8  1  0
  8  9  2  0
  9 10  1  0
  9 30  1  0
 10 11  1  0
 11 12  1  0
 12 13  2  0
 12 29  1  0
 13 14  1  0
 14 15  2  0
 15 16  1  0
 17 16  1  6
 16 29  2  0
 17 18  1  0
 17 28  1  0
 18 19  1  0
 19 20  1  0
 20 21  1  1
 20 27  1  0
 21 22  1  0
 22 23  1  0
 22 26  2  0
 23 24  2  0
 24 25  1  0
 25 26  1  0
 27 28  1  0
 30 31  2  0
 31 32  1  0
 32 33  2  0
 32 37  1  0
 33 34  1  0
 34 35  2  0
 35 36  1  0
 36 37  2  0
M  CHG  2  17   1  20   1
M  END
