
     RDKit          3D

 37 41  0  0  0  0  0  0  0  0999 V2000
   -4.8650    4.7130   -2.0840 C   0  0  0  0  0  0  0  0  0  0  0  0
   -3.9160    3.5050   -1.8720 C   0  0  0  0  0  0  0  0  0  0  0  0
   -4.6460    2.4810   -1.1410 C   0  0  0  0  0  0  0  0  0  0  0  0
   -5.8760    2.2250   -0.9800 N   0  0  0  0  0  0  0  0  0  0  0  0
   -6.0940    1.2500   -0.2240 N   0  0  0  0  0  0  0  0  0  0  0  0
   -4.8620    0.7520    0.2120 C   0  0  0  0  0  0  0  0  0  0  0  0
   -4.9180   -0.4030    1.1680 C   0  0  0  0  0  0  0  0  0  0  0  0
   -3.8560    1.4750   -0.3160 C   0  0  0  0  0  0  0  0  0  0  0  0
   -2.4620    1.5790   -0.3510 C   0  0  0  0  0  0  0  0  0  0  0  0
   -1.4250    0.8510    0.2240 N   0  0  1  0  0  0  0  0  0  0  0  0
   -1.0210   -0.3980   -0.2710 C   0  0  0  0  0  0  0  0  0  0  0  0
   -2.0540   -1.4610   -0.0250 C   0  0  0  0  0  0  0  0  0  0  0  0
   -1.5780   -2.7680   -0.5070 N   0  0  0  0  0  0  0  0  0  0  0  0
   -2.6420   -3.6600   -0.0260 C   0  0  1  0  0  0  0  0  0  0  0  0
   -3.0850   -4.6720   -1.0180 C   0  0  0  0  0  0  0  0  0  0  0  0
   -2.1760   -4.2290    1.3010 C   0  0  0  0  0  0  0  0  0  0  0  0
   -0.3640    1.8530    0.3970 C   0  0  0  0  0  0  0  0  0  0  0  0
    0.9520    1.6290    0.9110 C   0  0  0  0  0  0  0  0  0  0  0  0
    1.8550    0.6550    0.6430 C   0  0  0  0  0  0  0  0  0  0  0  0
    3.1750    0.7240    1.1660 C   0  0  0  0  0  0  0  0  0  0  0  0
    3.5520    1.7160    1.9280 N   0  0  0  0  0  0  0  0  0  0  0  0
    2.7230    2.7110    2.2410 C   0  0  0  0  0  0  0  0  0  0  0  0
    3.0990    3.6650    2.9860 O   0  0  0  0  0  0  0  0  0  0  0  0
    1.4310    2.7150    1.7600 C   0  0  0  0  0  0  0  0  0  0  0  0
    0.4680    3.6450    2.0650 C   0  0  0  0  0  0  0  0  0  0  0  0
   -0.4670    4.5730    2.3560 N   0  0  0  0  0  0  0  0  0  0  0  0
    4.9300    1.4440    2.4090 C   0  0  0  0  0  0  0  0  0  0  0  0
    5.4380    0.5090    1.3880 C   0  0  0  0  0  0  0  0  0  0  0  0
    6.7030    0.1100    1.0440 C   0  0  0  0  0  0  0  0  0  0  0  0
    6.8210   -0.9270    0.0670 C   0  0  0  0  0  0  0  0  0  0  0  0
    8.1130   -1.3390   -0.2640 C   0  0  0  0  0  0  0  0  0  0  0  0
    8.1750   -2.4040   -1.2370 C   0  0  0  0  0  0  0  0  0  0  0  0
    7.0560   -2.8930   -1.7190 C   0  0  0  0  0  0  0  0  0  0  0  0
    5.8160   -2.4990   -1.4070 C   0  0  0  0  0  0  0  0  0  0  0  0
    5.6970   -1.4110   -0.4190 C   0  0  0  0  0  0  0  0  0  0  0  0
    4.4320   -1.0950   -0.1700 N   0  0  0  0  0  0  0  0  0  0  0  0
    4.3400   -0.0670    0.7970 C   0  0  0  0  0  0  0  0  0  0  0  0
  1  2  1  0
  2  3  1  0
  3  4  1  0
  3  8  2  0
  4  5  1  0
  5  6  2  0
  6  7  1  0
  6  8  1  0
  8  9  1  0
 10  9  1  6
 10 11  1  0
 10 17  1  0
 11 12  1  0
 12 13  1  0
 13 14  1  0
 14 15  1  6
 14 16  1  0
 17 18  1  0
 18 19  1  0
 18 24  2  0
 19 20  2  0
 20 21  1  0
 20 37  1  0
 21 22  1  0
 21 27  1  0
 22 23  2  0
 22 24  1  0
 24 25  1  0
 25 26  3  0
 27 28  1  0
 28 29  2  0
 28 37  1  0
 29 30  1  0
 30 31  2  0
 30 35  1  0
 31 32  1  0
 32 33  2  0
 33 34  1  0
 34 35  2  0
 35 36  1  0
 36 37  2  0
M  CHG  2  10   1  13   1
M  END
