
     RDKit          3D

 36 40  0  0  0  0  0  0  0  0999 V2000
   -7.2980   -2.5840   -1.9050 C   0  0  0  0  0  0  0  0  0  0  0  0
   -6.8390   -1.2720   -2.0790 O   0  0  0  0  0  0  0  0  0  0  0  0
   -5.8140   -0.7610   -1.3230 C   0  0  0  0  0  0  0  0  0  0  0  0
   -5.1970   -1.5210   -0.3640 C   0  0  0  0  0  0  0  0  0  0  0  0
   -4.1500   -1.0080    0.4120 C   0  0  0  0  0  0  0  0  0  0  0  0
   -3.7150    0.2950    0.2190 C   0  0  0  0  0  0  0  0  0  0  0  0
   -2.6940    0.8700    0.9400 C   0  0  0  0  0  0  0  0  0  0  0  0
   -2.0000    0.1450    1.9590 C   0  0  0  0  0  0  0  0  0  0  0  0
   -2.1500   -1.0040    2.3650 O   0  0  0  0  0  0  0  0  0  0  0  0
   -0.9690    0.8640    2.6130 O   0  0  0  0  0  0  0  0  0  0  0  0
   -0.1890    0.2910    3.6430 C   0  0  2  0  0  0  0  0  0  0  0  0
   -0.4660    1.1480    4.8880 C   0  0  0  0  0  0  0  0  0  0  0  0
    1.2600    0.4960    3.3090 C   0  0  0  0  0  0  0  0  0  0  0  0
    1.5980   -0.1470    2.0220 C   0  0  0  0  0  0  0  0  0  0  0  0
    0.7580   -0.7730    1.3380 O   0  0  0  0  0  0  0  0  0  0  0  0
    2.9510   -0.0520    1.5300 N   0  0  0  0  0  0  0  0  0  0  0  0
    3.3440   -0.6380    0.3190 C   0  0  0  0  0  0  0  0  0  0  0  0
    2.4020   -1.2590   -0.3000 O   0  0  0  0  0  0  0  0  0  0  0  0
    4.6700   -0.6060   -0.2710 C   0  0  0  0  0  0  0  0  0  0  0  0
    4.8500   -1.2620   -1.4970 C   0  0  0  0  0  0  0  0  0  0  0  0
    6.0430   -1.3070   -2.1540 C   0  0  0  0  0  0  0  0  0  0  0  0
    7.1130   -0.6800   -1.5870 C   0  0  0  0  0  0  0  0  0  0  0  0
    7.0140   -0.0250   -0.4040 C   0  0  0  0  0  0  0  0  0  0  0  0
    5.7700    0.0040    0.2520 C   0  0  0  0  0  0  0  0  0  0  0  0
    5.6680    0.6700    1.4560 O   0  0  0  0  0  0  0  0  0  0  0  0
    8.2680   -0.8750   -2.4890 C   0  0  0  0  0  0  0  0  0  0  0  0
    7.7240   -1.2850   -3.7020 O   0  0  0  0  0  0  0  0  0  0  0  0
    6.5330   -1.9060   -3.4280 C   0  0  0  0  0  0  0  0  0  0  0  0
   -2.3610    2.1830    0.6420 C   0  0  0  0  0  0  0  0  0  0  0  0
   -2.9990    2.9340   -0.3350 C   0  0  0  0  0  0  0  0  0  0  0  0
   -2.5500    4.5870   -0.6800 Cl  0  0  0  0  0  0  0  0  0  0  0  0
   -4.0280    2.3470   -1.0580 C   0  0  0  0  0  0  0  0  0  0  0  0
   -4.3470    1.0480   -0.7530 C   0  0  0  0  0  0  0  0  0  0  0  0
   -5.3700    0.5580   -1.5170 C   0  0  0  0  0  0  0  0  0  0  0  0
   -5.8000    1.6160   -2.4360 C   0  0  0  0  0  0  0  0  0  0  0  0
   -4.9280    2.7900   -2.1430 C   0  0  0  0  0  0  0  0  0  0  0  0
  1  2  1  0
  2  3  1  0
  3  4  2  0
  3 34  1  0
  4  5  1  0
  5  6  2  0
  6  7  1  0
  6 33  1  0
  7  8  1  0
  7 29  2  0
  8  9  2  0
  8 10  1  0
 10 11  1  0
 11 12  1  1
 11 13  1  0
 13 14  1  0
 14 15  2  0
 14 16  1  0
 16 17  1  0
 17 18  2  0
 17 19  1  0
 19 20  2  0
 19 24  1  0
 20 21  1  0
 21 22  2  0
 21 28  1  0
 22 23  1  0
 22 26  1  0
 23 24  2  0
 24 25  1  0
 26 27  1  0
 27 28  1  0
 29 30  1  0
 30 31  1  0
 30 32  2  0
 32 33  1  0
 32 36  1  0
 33 34  2  0
 34 35  1  0
 35 36  1  0
M  END
