
     RDKit          3D

 37 41  0  0  0  0  0  0  0  0999 V2000
   10.0400    1.4910    1.7270 N   0  0  0  0  0  0  0  0  0  0  0  0
    8.9980    0.8680    0.9760 C   0  0  0  0  0  0  0  0  0  0  0  0
    9.3480    0.0170    0.0050 N   0  0  0  0  0  0  0  0  0  0  0  0
    8.3780   -0.5810   -0.7320 C   0  0  0  0  0  0  0  0  0  0  0  0
    7.0950   -0.3090   -0.4750 N   0  0  0  0  0  0  0  0  0  0  0  0
    6.7300    0.5330    0.4890 C   0  0  0  0  0  0  0  0  0  0  0  0
    7.6690    1.1390    1.2240 C   0  0  0  0  0  0  0  0  0  0  0  0
    7.0720    1.9740    2.0970 N   0  0  0  0  0  0  0  0  0  0  0  0
    5.7750    1.8540    1.9050 C   0  0  0  0  0  0  0  0  0  0  0  0
    5.5150    0.9660    0.9030 N   0  0  0  0  0  0  0  0  0  0  0  0
    4.2110    0.6880    0.3710 C   0  0  1  0  0  0  0  0  0  0  0  0
    4.3010    0.5250   -1.1100 C   0  0  0  0  0  0  0  0  0  0  0  0
    4.1140   -0.7480   -1.6790 N   0  0  0  0  0  0  0  0  0  0  0  0
    3.9400   -1.8420   -0.7230 C   0  0  0  0  0  0  0  0  0  0  0  0
    3.0460   -1.2690    0.3290 C   0  0  1  0  0  0  0  0  0  0  0  0
    2.1340   -2.2670    0.9340 C   0  0  0  0  0  0  0  0  0  0  0  0
    1.7570   -3.0930   -0.1920 O   0  0  0  0  0  0  0  0  0  0  0  0
    0.0800   -3.3530   -0.0900 S   0  0  2  0  0  0  0  0  0  0  0  0
   -0.4070   -4.4270    0.6820 O   0  0  0  0  0  0  0  0  0  0  0  0
   -0.3380   -3.4910   -1.5830 O   0  0  0  0  0  0  0  0  0  0  0  0
   -0.4480   -1.7210    0.3310 N   0  0  0  0  0  0  0  0  0  0  0  0
   -1.1730   -0.9360   -0.5750 C   0  0  0  0  0  0  0  0  0  0  0  0
   -1.5310   -1.4400   -1.7010 O   0  0  0  0  0  0  0  0  0  0  0  0
   -1.5380    0.4770   -0.2630 C   0  0  0  0  0  0  0  0  0  0  0  0
   -2.8500    0.7380   -0.9460 C   0  0  0  0  0  0  0  0  0  0  0  0
   -3.9330   -0.1760   -0.3250 C   0  0  0  0  0  0  0  0  0  0  0  0
   -4.9850    0.8000    0.1650 C   0  0  0  0  0  0  0  0  0  0  0  0
   -6.1800    0.1450    0.7460 C   0  0  2  0  0  0  0  0  0  0  0  0
   -7.0180   -0.9430   -0.4580 S   0  0  0  0  0  0  0  0  0  0  0  0
   -8.7060   -0.3270   -0.2370 C   0  0  0  0  0  0  0  0  0  0  0  0
   -8.5840    0.3920    1.0960 C   0  0  2  0  0  0  0  0  0  0  0  0
   -9.5150    1.5140    1.0160 N   0  0  0  0  0  0  0  0  0  0  0  0
   -8.8920    2.4080    0.1150 C   0  0  0  0  0  0  0  0  0  0  0  0
   -9.5160    3.3760   -0.4160 O   0  0  0  0  0  0  0  0  0  0  0  0
   -7.5410    2.0260   -0.0800 N   0  0  0  0  0  0  0  0  0  0  0  0
   -7.2580    1.1400    1.0370 C   0  0  2  0  0  0  0  0  0  0  0  0
    3.6720   -0.3680    1.0800 O   0  0  0  0  0  0  0  0  0  0  0  0
  1  2  1  0
  2  3  2  0
  2  7  1  0
  3  4  1  0
  4  5  2  0
  5  6  1  0
  6  7  2  0
  6 10  1  0
  7  8  1  0
  8  9  2  0
  9 10  1  0
 11 10  1  1
 11 12  1  0
 11 37  1  0
 12 13  1  0
 13 14  1  0
 14 15  1  0
 15 16  1  1
 15 37  1  0
 16 17  1  0
 17 18  1  0
 18 19  2  0
 18 20  2  0
 18 21  1  1
 21 22  1  0
 22 23  2  0
 22 24  1  0
 24 25  1  0
 25 26  1  0
 26 27  1  0
 28 27  1  6
 28 29  1  0
 28 36  1  0
 29 30  1  0
 31 30  1  6
 31 32  1  0
 31 36  1  0
 32 33  1  0
 33 34  2  0
 33 35  1  0
 36 35  1  6
M  CHG  1  13   1
M  END
