
     RDKit          3D

 36 40  0  0  0  0  0  0  0  0999 V2000
   -3.2400    2.9700   -4.5730 C   0  0  0  0  0  0  0  0  0  0  0  0
   -4.0380    3.9440   -3.7750 C   0  0  0  0  0  0  0  0  0  0  0  0
   -4.9810    3.3920   -2.9130 O   0  0  0  0  0  0  0  0  0  0  0  0
   -4.7620    2.5290   -1.8740 C   0  0  0  0  0  0  0  0  0  0  0  0
   -3.4770    2.1220   -1.5990 C   0  0  0  0  0  0  0  0  0  0  0  0
   -3.1570    1.2430   -0.5590 C   0  0  0  0  0  0  0  0  0  0  0  0
   -1.7810    0.8520   -0.3210 C   0  0  0  0  0  0  0  0  0  0  0  0
   -0.9180    1.3210   -1.0870 O   0  0  0  0  0  0  0  0  0  0  0  0
   -1.3950   -0.0170    0.7200 N   0  0  0  0  0  0  0  0  0  0  0  0
   -0.0840   -0.4510    1.0200 C   0  0  0  0  0  0  0  0  0  0  0  0
    0.0640   -1.1710    2.2150 C   0  0  0  0  0  0  0  0  0  0  0  0
    1.3170   -1.6240    2.5520 C   0  0  0  0  0  0  0  0  0  0  0  0
    2.4290   -1.4000    1.7670 C   0  0  0  0  0  0  0  0  0  0  0  0
    2.3080   -0.6950    0.5900 C   0  0  0  0  0  0  0  0  0  0  0  0
    1.0310   -0.2400    0.2580 C   0  0  0  0  0  0  0  0  0  0  0  0
    3.4040   -0.4510   -0.2230 O   0  0  0  0  0  0  0  0  0  0  0  0
    4.6760   -0.9070    0.1140 C   0  0  0  0  0  0  0  0  0  0  0  0
    5.7820   -0.6740   -0.6840 C   0  0  0  0  0  0  0  0  0  0  0  0
    7.0370   -1.1260   -0.3490 C   0  0  0  0  0  0  0  0  0  0  0  0
    7.1860   -1.8320    0.8210 C   0  0  0  0  0  0  0  0  0  0  0  0
    6.0650   -2.0690    1.6300 C   0  0  0  0  0  0  0  0  0  0  0  0
    4.8100   -1.6140    1.2910 C   0  0  0  0  0  0  0  0  0  0  0  0
    3.6980   -1.8600    2.1120 O   0  0  0  0  0  0  0  0  0  0  0  0
    8.5080   -2.3340    1.2230 C   0  0  0  0  0  0  0  0  0  0  0  0
    9.5040   -2.1340    0.3080 O   0  0  0  0  0  0  0  0  0  0  0  0
    9.4240   -0.8570   -0.2510 C   0  0  0  0  0  0  0  0  0  0  0  0
    8.2350   -0.8900   -1.1860 C   0  0  0  0  0  0  0  0  0  0  0  0
   -4.2260    0.8040    0.1840 C   0  0  0  0  0  0  0  0  0  0  0  0
   -5.5380    1.2110   -0.0860 C   0  0  0  0  0  0  0  0  0  0  0  0
   -6.6880    0.7260    0.7450 C   0  0  2  0  0  0  0  0  0  0  0  0
   -7.2380    1.8080    1.4610 O   0  0  0  0  0  0  0  0  0  0  0  0
   -6.2760   -0.3560    1.7180 C   0  0  0  0  0  0  0  0  0  0  0  0
   -5.7610   -1.4190    1.0160 O   0  0  0  0  0  0  0  0  0  0  0  0
   -5.3480   -2.4790    1.7850 C   0  0  0  0  0  0  0  0  0  0  0  0
   -5.8150    2.0770   -1.1180 C   0  0  0  0  0  0  0  0  0  0  0  0
   -7.4700    2.5580   -1.4180 Cl  0  0  0  0  0  0  0  0  0  0  0  0
  1  2  1  0
  2  3  1  0
  3  4  1  0
  4  5  2  0
  4 35  1  0
  5  6  1  0
  6  7  1  0
  6 28  2  0
  7  8  2  0
  7  9  1  0
  9 10  1  0
 10 11  2  0
 10 15  1  0
 11 12  1  0
 12 13  2  0
 13 14  1  0
 13 23  1  0
 14 15  2  0
 14 16  1  0
 16 17  1  0
 17 18  2  0
 17 22  1  0
 18 19  1  0
 19 20  2  0
 19 27  1  0
 20 21  1  0
 20 24  1  0
 21 22  2  0
 22 23  1  0
 24 25  1  0
 25 26  1  0
 26 27  1  0
 28 29  1  0
 29 30  1  0
 29 35  2  0
 30 31  1  1
 30 32  1  0
 32 33  1  0
 33 34  1  0
 35 36  1  0
M  END
