
     RDKit          3D

 37 41  0  0  0  0  0  0  0  0999 V2000
    8.4650    1.5330   -0.9330 C   0  0  0  0  0  0  0  0  0  0  0  0
    8.3850    1.1090    0.5390 C   0  0  1  0  0  0  0  0  0  0  0  0
    9.2700   -0.0520    0.7650 C   0  0  0  0  0  0  0  0  0  0  0  0
    8.9910    2.2790    1.3390 C   0  0  0  0  0  0  0  0  0  0  0  0
    7.0320    1.0090    0.9380 N   0  0  0  0  0  0  0  0  0  0  0  0
    6.3880   -0.2670    0.8000 C   0  0  2  0  0  0  0  0  0  0  0  0
    6.3870   -0.8600   -0.5550 C   0  0  0  0  0  0  0  0  0  0  0  0
    5.2940   -0.4610   -1.4770 C   0  0  0  0  0  0  0  0  0  0  0  0
    4.2480    0.4520   -0.8840 C   0  0  0  0  0  0  0  0  0  0  0  0
    3.9540   -0.0340    0.4390 N   0  0  0  0  0  0  0  0  0  0  0  0
    2.6410   -0.3970    0.8250 C   0  0  0  0  0  0  0  0  0  0  0  0
    2.3910   -0.6120    2.1870 C   0  0  0  0  0  0  0  0  0  0  0  0
    1.1390   -0.9760    2.6110 C   0  0  0  0  0  0  0  0  0  0  0  0
    0.1170   -1.1320    1.6930 C   0  0  0  0  0  0  0  0  0  0  0  0
    0.3100   -0.9330    0.3450 C   0  0  0  0  0  0  0  0  0  0  0  0
   -0.7700   -1.1030   -0.6290 C   0  0  0  0  0  0  0  0  0  0  0  0
   -0.7050   -0.9350   -1.9590 N   0  0  0  0  0  0  0  0  0  0  0  0
   -1.9010   -1.1880   -2.4630 N   0  0  0  0  0  0  0  0  0  0  0  0
   -2.7330   -1.5210   -1.4410 C   0  0  0  0  0  0  0  0  0  0  0  0
   -4.1800   -1.8840   -1.5540 C   0  0  0  0  0  0  0  0  0  0  0  0
   -4.7100   -2.1720   -0.1710 C   0  0  0  0  0  0  0  0  0  0  0  0
   -6.1650   -2.5570   -0.1880 C   0  0  0  0  0  0  0  0  0  0  0  0
   -6.9340   -1.4310   -0.7730 C   0  0  0  0  0  0  0  0  0  0  0  0
   -7.1820   -1.3190   -2.0880 N   0  0  0  0  0  0  0  0  0  0  0  0
   -7.8770   -0.3150   -2.6470 C   0  0  0  0  0  0  0  0  0  0  0  0
   -8.3650    0.6670   -1.7790 C   0  0  0  0  0  0  0  0  0  0  0  0
   -8.1250    0.5730   -0.4380 C   0  0  0  0  0  0  0  0  0  0  0  0
   -7.4200   -0.4650    0.0350 N   0  0  0  0  0  0  0  0  0  0  0  0
   -8.6530    1.6170    0.4240 C   0  0  0  0  0  0  0  0  0  0  0  0
   -8.4660    1.6030    1.7400 C   0  0  0  0  0  0  0  0  0  0  0  0
   -7.7400    0.5770    2.4020 N   0  0  0  0  0  0  0  0  0  0  0  0
   -9.4050    2.7000   -0.1840 C   0  0  0  0  0  0  0  0  0  0  0  0
   -9.6230    2.7720   -1.4630 C   0  0  0  0  0  0  0  0  0  0  0  0
   -9.1290    1.7660   -2.4030 C   0  0  0  0  0  0  0  0  0  0  0  0
   -1.9860   -1.4490   -0.3670 O   0  0  0  0  0  0  0  0  0  0  0  0
    1.5870   -0.5650   -0.0570 C   0  0  0  0  0  0  0  0  0  0  0  0
    5.0150   -0.1710    1.4150 C   0  0  0  0  0  0  0  0  0  0  0  0
  2  1  1  6
  2  3  1  0
  2  4  1  0
  2  5  1  0
  6  5  1  6
  6  7  1  0
  6 37  1  0
  7  8  1  0
  8  9  1  0
  9 10  1  0
 10 11  1  0
 10 37  1  0
 11 12  2  0
 11 36  1  0
 12 13  1  0
 13 14  2  0
 14 15  1  0
 15 16  1  0
 15 36  2  0
 16 17  2  0
 16 35  1  0
 17 18  1  0
 18 19  2  0
 19 20  1  0
 19 35  1  0
 20 21  1  0
 21 22  1  0
 22 23  1  0
 23 24  2  0
 23 28  1  0
 24 25  1  0
 25 26  2  0
 26 27  1  0
 26 34  1  0
 27 28  2  0
 27 29  1  0
 29 30  2  3
 29 32  1  0
 30 31  1  0
 32 33  2  0
 33 34  1  0
M  CHG  2   5   1  31   1
M  END
