
     RDKit          3D

 37 42  0  0  0  0  0  0  0  0999 V2000
   -4.2260    4.0800    1.5910 C   0  0  0  0  0  0  0  0  0  0  0  0
   -3.3350    2.8450    1.3480 C   0  0  0  0  0  0  0  0  0  0  0  0
   -3.7840    2.1620    0.0780 C   0  0  0  0  0  0  0  0  0  0  0  0
   -3.0430    0.9710   -0.2580 N   0  0  0  0  0  0  0  0  0  0  0  0
   -3.6210   -0.3550   -0.1260 C   0  0  0  0  0  0  0  0  0  0  0  0
   -4.8860   -0.3060   -0.0870 N   0  0  0  0  0  0  0  0  0  0  0  0
   -5.9050   -1.3240    0.0350 C   0  0  0  0  0  0  0  0  0  0  0  0
   -7.1440   -0.7670    0.0660 C   0  0  0  0  0  0  0  0  0  0  0  0
   -8.2530   -1.5920    0.1850 C   0  0  0  0  0  0  0  0  0  0  0  0
   -8.0410   -2.9390    0.2660 C   0  0  0  0  0  0  0  0  0  0  0  0
   -6.8070   -3.5330    0.2390 C   0  0  0  0  0  0  0  0  0  0  0  0
   -5.7110   -2.6870    0.1200 C   0  0  0  0  0  0  0  0  0  0  0  0
   -4.4630   -3.3610    0.1070 N   0  0  0  0  0  0  0  0  0  0  0  0
   -3.1260   -2.8340    0.0410 C   0  0  0  0  0  0  0  0  0  0  0  0
   -2.7850   -1.5670   -0.0570 C   0  0  0  0  0  0  0  0  0  0  0  0
   -1.3300   -1.4070   -0.1370 C   0  0  0  0  0  0  0  0  0  0  0  0
   -0.4950   -2.4750    0.0990 C   0  0  0  0  0  0  0  0  0  0  0  0
    0.8720   -2.2540    0.1780 C   0  0  0  0  0  0  0  0  0  0  0  0
    1.8150   -3.3820    0.4310 C   0  0  0  0  0  0  0  0  0  0  0  0
    1.3990   -0.9860    0.0240 C   0  0  0  0  0  0  0  0  0  0  0  0
    2.8120   -0.8290    0.1250 N   0  0  0  0  0  0  0  0  0  0  0  0
    3.5340    0.3550   -0.0760 C   0  0  0  0  0  0  0  0  0  0  0  0
    2.9840    1.4240   -0.3760 O   0  0  0  0  0  0  0  0  0  0  0  0
    5.0070    0.4050    0.0560 C   0  0  0  0  0  0  0  0  0  0  0  0
    5.7390   -0.5390    0.7270 C   0  0  0  0  0  0  0  0  0  0  0  0
    7.1230   -0.4610    0.8030 C   0  0  0  0  0  0  0  0  0  0  0  0
    7.8070    0.5650    0.2090 C   0  0  0  0  0  0  0  0  0  0  0  0
    7.0850    1.5510   -0.4890 C   0  0  0  0  0  0  0  0  0  0  0  0
    5.7270    1.4410   -0.5420 C   0  0  0  0  0  0  0  0  0  0  0  0
    7.8640    2.5330   -1.0460 O   0  0  0  0  0  0  0  0  0  0  0  0
    9.0810    2.2090   -1.6820 C   0  0  0  0  0  0  0  0  0  0  0  0
    9.9120    1.3440   -0.7980 C   0  0  0  0  0  0  0  0  0  0  0  0
    9.1750    0.7470    0.2160 O   0  0  0  0  0  0  0  0  0  0  0  0
    0.5660    0.0710   -0.2130 C   0  0  0  0  0  0  0  0  0  0  0  0
   -0.8240   -0.1360   -0.2990 C   0  0  0  0  0  0  0  0  0  0  0  0
   -1.6870    0.9830   -0.7130 C   0  0  2  0  0  0  0  0  0  0  0  0
   -0.9630    2.2940   -0.6490 C   0  0  0  0  0  0  0  0  0  0  0  0
  1  2  1  0
  2  3  1  0
  3  4  1  0
  4  5  1  0
  4 36  1  0
  5  6  2  0
  5 15  1  0
  6  7  1  0
  7  8  2  0
  7 12  1  0
  8  9  1  0
  9 10  2  0
 10 11  1  0
 11 12  2  0
 12 13  1  0
 13 14  1  0
 14 15  2  0
 15 16  1  0
 16 17  2  0
 16 35  1  0
 17 18  1  0
 18 19  1  0
 18 20  2  0
 20 21  1  0
 20 34  1  0
 21 22  1  0
 22 23  2  0
 22 24  1  0
 24 25  2  0
 24 29  1  0
 25 26  1  0
 26 27  2  0
 27 28  1  0
 27 33  1  0
 28 29  2  0
 28 30  1  0
 30 31  1  0
 31 32  1  0
 32 33  1  0
 34 35  2  0
 35 36  1  0
 36 37  1  1
M  CHG  1   6   1
M  END
