
     RDKit          3D

 36 40  0  0  0  0  0  0  0  0999 V2000
    5.0890    1.0420   -4.4440 C   0  0  0  0  0  0  0  0  0  0  0  0
    3.6300    0.9520   -4.1030 C   0  0  0  0  0  0  0  0  0  0  0  0
    3.4580    0.8360   -2.7170 O   0  0  0  0  0  0  0  0  0  0  0  0
    2.1790    0.7410   -2.1920 C   0  0  0  0  0  0  0  0  0  0  0  0
    1.0930    0.7620   -3.0790 C   0  0  0  0  0  0  0  0  0  0  0  0
   -0.1900    0.6700   -2.5790 C   0  0  0  0  0  0  0  0  0  0  0  0
   -0.4340    0.5550   -1.2260 C   0  0  0  0  0  0  0  0  0  0  0  0
   -1.7450    0.4680   -0.8070 O   0  0  0  0  0  0  0  0  0  0  0  0
   -2.4820   -0.6910   -0.7690 C   0  0  0  0  0  0  0  0  0  0  0  0
   -1.8620   -1.7060   -1.1560 O   0  0  0  0  0  0  0  0  0  0  0  0
   -3.8620   -0.7780   -0.3280 C   0  0  0  0  0  0  0  0  0  0  0  0
   -4.6300   -1.8540   -0.2750 C   0  0  0  0  0  0  0  0  0  0  0  0
   -4.2650   -3.2550   -0.6620 C   0  0  0  0  0  0  0  0  0  0  0  0
   -4.3060   -4.1940    0.4000 N   0  0  0  0  0  0  0  0  0  0  0  0
   -5.6150   -4.4860    0.8540 C   0  0  0  0  0  0  0  0  0  0  0  0
   -5.9270   -1.5310    0.2010 N   0  0  0  0  0  0  0  0  0  0  0  0
   -5.9340   -0.1270    0.4580 C   0  0  0  0  0  0  0  0  0  0  0  0
   -6.9450    0.5430    0.9070 N   0  0  0  0  0  0  0  0  0  0  0  0
   -7.0120    1.9480    1.1820 C   0  0  0  0  0  0  0  0  0  0  0  0
   -5.9030    2.5490    1.9470 C   0  0  0  0  0  0  0  0  0  0  0  0
   -4.5290    2.0670    1.6970 C   0  0  0  0  0  0  0  0  0  0  0  0
   -4.2320    1.7110    0.2510 C   0  0  0  0  0  0  0  0  0  0  0  0
   -4.6310    0.3200    0.1190 N   0  0  0  0  0  0  0  0  0  0  0  0
    0.6480    0.5370   -0.4010 C   0  0  0  0  0  0  0  0  0  0  0  0
    1.9840    0.6280   -0.8330 C   0  0  0  0  0  0  0  0  0  0  0  0
    2.9850    0.6010    0.1040 O   0  0  0  0  0  0  0  0  0  0  0  0
    4.3350    0.6250    0.0520 C   0  0  1  0  0  0  0  0  0  0  0  0
    4.9400    1.9700    0.4860 C   0  0  0  0  0  0  0  0  0  0  0  0
    4.5400    2.2600    1.8990 C   0  0  0  0  0  0  0  0  0  0  0  0
    5.4240    1.3810    2.7910 C   0  0  0  0  0  0  0  0  0  0  0  0
    5.4300    0.0020    2.2440 C   0  0  0  0  0  0  0  0  0  0  0  0
    5.9690   -0.9900    3.0490 C   0  0  0  0  0  0  0  0  0  0  0  0
    6.0300   -2.3190    2.6490 C   0  0  0  0  0  0  0  0  0  0  0  0
    5.5360   -2.6740    1.4010 C   0  0  0  0  0  0  0  0  0  0  0  0
    5.0060   -1.6680    0.6200 C   0  0  0  0  0  0  0  0  0  0  0  0
    4.9500   -0.3610    1.0230 C   0  0  0  0  0  0  0  0  0  0  0  0
  1  2  1  0
  2  3  1  0
  3  4  1  0
  4  5  2  0
  4 25  1  0
  5  6  1  0
  6  7  2  0
  7  8  1  0
  7 24  1  0
  8  9  1  0
  9 10  2  0
  9 11  1  0
 11 12  2  0
 11 23  1  0
 12 13  1  0
 12 16  1  0
 13 14  1  0
 14 15  1  0
 16 17  1  0
 17 18  2  0
 17 23  1  0
 18 19  1  0
 19 20  1  0
 20 21  1  0
 21 22  1  0
 22 23  1  0
 24 25  2  0
 25 26  1  0
 27 26  1  1
 27 28  1  0
 27 36  1  0
 28 29  1  0
 29 30  1  0
 30 31  1  0
 31 32  2  0
 31 36  1  0
 32 33  1  0
 33 34  2  0
 34 35  1  0
 35 36  2  0
M  END
