
     RDKit          3D

 37 42  0  0  0  0  0  0  0  0999 V2000
   -6.3990    2.8450   -0.9580 C   0  0  0  0  0  0  0  0  0  0  0  0
   -6.3620    2.7620    0.5680 C   0  0  0  0  0  0  0  0  0  0  0  0
   -6.3020    1.3270    0.9480 C   0  0  0  0  0  0  0  0  0  0  0  0
   -7.3840    0.6280    1.4330 C   0  0  0  0  0  0  0  0  0  0  0  0
   -7.3130   -0.7090    1.7810 C   0  0  0  0  0  0  0  0  0  0  0  0
   -6.1210   -1.3970    1.6480 C   0  0  0  0  0  0  0  0  0  0  0  0
   -5.9890   -2.7810    1.9950 N   0  0  0  0  0  0  0  0  0  0  0  0
   -5.0400   -0.6950    1.1630 C   0  0  0  0  0  0  0  0  0  0  0  0
   -5.0940    0.6500    0.8080 C   0  0  0  0  0  0  0  0  0  0  0  0
   -4.0290    1.3500    0.3310 O   0  0  0  0  0  0  0  0  0  0  0  0
   -2.7280    0.9060    0.0880 C   0  0  0  0  0  0  0  0  0  0  0  0
   -2.5630   -0.1080   -0.9400 C   0  0  0  0  0  0  0  0  0  0  0  0
   -3.6810   -0.4820   -1.6880 C   0  0  0  0  0  0  0  0  0  0  0  0
   -3.5620   -1.4070   -2.6980 C   0  0  0  0  0  0  0  0  0  0  0  0
   -2.3330   -1.9470   -2.9510 C   0  0  0  0  0  0  0  0  0  0  0  0
   -1.2280   -1.5750   -2.2110 C   0  0  0  0  0  0  0  0  0  0  0  0
   -1.3220   -0.6410   -1.1830 C   0  0  0  0  0  0  0  0  0  0  0  0
   -0.1790   -0.2370   -0.3750 C   0  0  1  0  0  0  0  0  0  0  0  0
    1.1300   -0.8900   -0.8310 C   0  0  0  0  0  0  0  0  0  0  0  0
    2.2010   -0.3140   -0.0730 N   0  0  0  0  0  0  0  0  0  0  0  0
    3.5460   -0.5460   -0.5060 C   0  0  0  0  0  0  0  0  0  0  0  0
    3.7770   -1.2600   -1.6110 N   0  0  0  0  0  0  0  0  0  0  0  0
    4.9800   -1.5330   -2.0990 C   0  0  0  0  0  0  0  0  0  0  0  0
    6.0880   -1.0480   -1.4260 C   0  0  0  0  0  0  0  0  0  0  0  0
    5.8290   -0.3140   -0.2900 C   0  0  0  0  0  0  0  0  0  0  0  0
    4.5980   -0.0570    0.1770 N   0  0  0  0  0  0  0  0  0  0  0  0
    7.0100    0.2050    0.4330 C   0  0  0  0  0  0  0  0  0  0  0  0
    6.8030    0.9440    1.5780 C   0  0  0  0  0  0  0  0  0  0  0  0
    7.8640    1.4500    2.2930 C   0  0  0  0  0  0  0  0  0  0  0  0
    9.1520    1.2130    1.8540 C   0  0  0  0  0  0  0  0  0  0  0  0
    9.3520    0.4750    0.7100 C   0  0  0  0  0  0  0  0  0  0  0  0
    8.2890   -0.0350   -0.0110 C   0  0  0  0  0  0  0  0  0  0  0  0
    8.5420   -0.8240   -1.2380 C   0  0  0  0  0  0  0  0  0  0  0  0
    7.3870   -1.2890   -1.8720 O   0  0  0  0  0  0  0  0  0  0  0  0
    1.9680    0.4880    1.1000 C   0  0  0  0  0  0  0  0  0  0  0  0
    0.7200    1.3320    1.0060 C   0  0  0  0  0  0  0  0  0  0  0  0
   -0.0230    1.1030   -0.1430 O   0  0  0  0  0  0  0  0  0  0  0  0
  1  2  1  0
  2  3  1  0
  3  4  2  0
  3  9  1  0
  4  5  1  0
  5  6  2  0
  6  7  1  0
  6  8  1  0
  8  9  2  0
  9 10  1  0
 10 11  1  0
 11 12  1  0
 12 13  2  0
 12 17  1  0
 13 14  1  0
 14 15  2  0
 15 16  1  0
 16 17  2  0
 18 17  1  6
 18 19  1  0
 18 37  1  0
 19 20  1  0
 20 21  1  0
 20 35  1  0
 21 22  2  0
 21 26  1  0
 22 23  1  0
 23 24  2  0
 24 25  1  0
 24 34  1  0
 25 26  2  0
 25 27  1  0
 27 28  2  0
 27 32  1  0
 28 29  1  0
 29 30  2  0
 30 31  1  0
 31 32  2  0
 32 33  1  0
 33 34  1  0
 35 36  1  0
 36 37  1  0
M  CHG  1   7   1
M  END
