
     RDKit          3D

 37 41  0  0  0  0  0  0  0  0999 V2000
  -10.1150   -1.7960   -1.8440 N   0  0  0  0  0  0  0  0  0  0  0  0
   -9.6470   -1.1640   -0.6630 C   0  0  0  0  0  0  0  0  0  0  0  0
  -10.4100   -0.9460    0.4100 N   0  0  0  0  0  0  0  0  0  0  0  0
   -9.9200   -0.3420    1.5000 C   0  0  0  0  0  0  0  0  0  0  0  0
   -8.6300    0.0660    1.5420 N   0  0  0  0  0  0  0  0  0  0  0  0
   -7.8080   -0.1210    0.4980 C   0  0  0  0  0  0  0  0  0  0  0  0
   -8.3240   -0.7480   -0.6270 C   0  0  0  0  0  0  0  0  0  0  0  0
   -7.3140   -0.8120   -1.5130 N   0  0  0  0  0  0  0  0  0  0  0  0
   -6.2290   -0.2520   -0.9610 C   0  0  0  0  0  0  0  0  0  0  0  0
   -6.5030    0.1830    0.2790 N   0  0  0  0  0  0  0  0  0  0  0  0
   -5.6680    0.8470    1.2490 C   0  0  2  0  0  0  0  0  0  0  0  0
   -4.7170    1.5990    0.5570 O   0  0  0  0  0  0  0  0  0  0  0  0
   -3.6440    1.7390    1.4380 C   0  0  2  0  0  0  0  0  0  0  0  0
   -2.4160    2.0500    0.6180 C   0  0  0  0  0  0  0  0  0  0  0  0
   -2.1520    0.9770   -0.3120 N   0  0  0  0  0  0  0  0  0  0  0  0
   -0.7410    1.3320   -1.2530 S   0  0  2  0  0  0  0  0  0  0  0  0
   -0.6430    2.8120   -1.3910 O   0  0  0  0  0  0  0  0  0  0  0  0
   -0.8170    0.6660   -2.5900 O   0  0  0  0  0  0  0  0  0  0  0  0
    0.6760    0.7650   -0.4340 N   0  0  0  0  0  0  0  0  0  0  0  0
    1.9290    1.3760   -0.6360 C   0  0  0  0  0  0  0  0  0  0  0  0
    1.9930    2.3610   -1.4420 O   0  0  0  0  0  0  0  0  0  0  0  0
    3.1400    0.8860    0.0700 C   0  0  0  0  0  0  0  0  0  0  0  0
    4.3410    1.6980   -0.3070 C   0  0  0  0  0  0  0  0  0  0  0  0
    5.5870    1.2560    0.3840 C   0  0  0  0  0  0  0  0  0  0  0  0
    5.9250   -0.1830    0.0600 C   0  0  0  0  0  0  0  0  0  0  0  0
    7.1970   -0.4980    0.8160 C   0  0  2  0  0  0  0  0  0  0  0  0
    8.4940    0.6450    0.2380 S   0  0  0  0  0  0  0  0  0  0  0  0
    9.5590   -0.5720   -0.6300 C   0  0  0  0  0  0  0  0  0  0  0  0
    8.6890   -1.7740   -0.6480 C   0  0  2  0  0  0  0  0  0  0  0  0
    7.8220   -1.8820   -1.7870 N   0  0  0  0  0  0  0  0  0  0  0  0
    6.7750   -2.7600   -1.3680 C   0  0  0  0  0  0  0  0  0  0  0  0
    6.0240   -3.4780   -2.0970 O   0  0  0  0  0  0  0  0  0  0  0  0
    6.7050   -2.6980    0.0510 N   0  0  0  0  0  0  0  0  0  0  0  0
    7.7910   -1.8230    0.5200 C   0  0  2  0  0  0  0  0  0  0  0  0
   -3.4800    0.4320    2.1570 C   0  0  0  0  0  0  0  0  0  0  0  0
   -4.8870   -0.1600    2.0560 C   0  0  1  0  0  0  0  0  0  0  0  0
   -5.4030   -0.2350    3.3290 O   0  0  0  0  0  0  0  0  0  0  0  0
  1  2  1  0
  2  3  2  0
  2  7  1  0
  3  4  1  0
  4  5  2  0
  5  6  1  0
  6  7  2  0
  6 10  1  0
  7  8  1  0
  8  9  2  0
  9 10  1  0
 11 10  1  6
 11 12  1  0
 11 36  1  0
 12 13  1  0
 13 14  1  6
 13 35  1  0
 14 15  1  0
 16 15  1  1
 16 17  2  0
 16 18  2  0
 16 19  1  0
 19 20  1  0
 20 21  2  0
 20 22  1  0
 22 23  1  0
 23 24  1  0
 24 25  1  0
 26 25  1  6
 26 27  1  0
 26 34  1  0
 27 28  1  0
 29 28  1  6
 29 30  1  0
 29 34  1  0
 30 31  1  0
 31 32  2  0
 31 33  1  0
 34 33  1  6
 35 36  1  0
 36 37  1  1
M  END
