
     RDKit          3D

 36 40  0  0  0  0  0  0  0  0999 V2000
   10.5820   -1.3950   -1.2870 C   0  0  0  0  0  0  0  0  0  0  0  0
    9.2070   -1.1870   -0.7700 C   0  0  0  0  0  0  0  0  0  0  0  0
    9.0600   -0.8360    0.5490 C   0  0  0  0  0  0  0  0  0  0  0  0
    7.8310   -0.6300    1.0880 C   0  0  0  0  0  0  0  0  0  0  0  0
    6.6820   -0.7680    0.3210 C   0  0  0  0  0  0  0  0  0  0  0  0
    6.8320   -1.1190   -0.9960 C   0  0  0  0  0  0  0  0  0  0  0  0
    8.0950   -1.3330   -1.5630 C   0  0  0  0  0  0  0  0  0  0  0  0
    5.4850   -1.1870   -1.5350 C   0  0  0  0  0  0  0  0  0  0  0  0
    5.1910   -1.4820   -2.7300 O   0  0  0  0  0  0  0  0  0  0  0  0
    4.5350   -0.8750   -0.5300 N   0  0  0  0  0  0  0  0  0  0  0  0
    3.0930   -0.8450   -0.7130 C   0  0  0  0  0  0  0  0  0  0  0  0
    2.4000   -0.5410    0.3150 N   0  0  0  0  0  0  0  0  0  0  0  0
    0.9910   -0.4600    0.3360 C   0  0  0  0  0  0  0  0  0  0  0  0
    0.2460   -1.5860    0.2160 C   0  0  0  0  0  0  0  0  0  0  0  0
   -1.1080   -1.5190    0.2380 C   0  0  0  0  0  0  0  0  0  0  0  0
   -1.7530   -0.2530    0.3890 C   0  0  0  0  0  0  0  0  0  0  0  0
   -3.1280   -0.3740    0.6010 N   0  0  0  0  0  0  0  0  0  0  0  0
   -3.8660   -1.3020   -0.2050 C   0  0  0  0  0  0  0  0  0  0  0  0
   -3.4050   -2.0190   -1.1000 O   0  0  0  0  0  0  0  0  0  0  0  0
   -5.3230   -1.4160    0.0570 C   0  0  0  0  0  0  0  0  0  0  0  0
   -6.0780   -2.2460   -0.6390 C   0  0  0  0  0  0  0  0  0  0  0  0
   -7.5200   -2.3970   -0.4200 C   0  0  1  0  0  0  0  0  0  0  0  0
   -7.7590   -3.8320    0.0460 C   0  0  0  0  0  0  0  0  0  0  0  0
   -8.0330   -1.4980    0.6850 C   0  0  0  0  0  0  0  0  0  0  0  0
   -1.0430    0.8940    0.5060 C   0  0  0  0  0  0  0  0  0  0  0  0
   -1.6530    2.1510    0.5870 C   0  0  0  0  0  0  0  0  0  0  0  0
   -0.7710    3.2390    0.6420 C   0  0  0  0  0  0  0  0  0  0  0  0
    0.5940    3.1060    0.6220 C   0  0  0  0  0  0  0  0  0  0  0  0
    1.1620    1.8750    0.5400 C   0  0  0  0  0  0  0  0  0  0  0  0
    0.3530    0.7690    0.4780 C   0  0  0  0  0  0  0  0  0  0  0  0
   -1.1950    4.5860    0.7160 O   0  0  0  0  0  0  0  0  0  0  0  0
   -2.1440    5.2540   -0.1220 C   0  0  0  0  0  0  0  0  0  0  0  0
   -3.0630    4.1570   -0.6900 C   0  0  0  0  0  0  0  0  0  0  0  0
   -3.6340    3.4290    0.4140 N   0  0  0  0  0  0  0  0  0  0  0  0
   -3.1010    2.0700    0.5820 C   0  0  0  0  0  0  0  0  0  0  0  0
    5.2490   -0.5980    0.6800 C   0  0  0  0  0  0  0  0  0  0  0  0
  1  2  1  0
  2  3  2  0
  2  7  1  0
  3  4  1  0
  4  5  2  0
  5  6  1  0
  5 36  1  0
  6  7  2  0
  6  8  1  0
  8  9  2  0
  8 10  1  0
 10 11  1  0
 10 36  1  0
 11 12  2  3
 12 13  1  0
 13 14  2  0
 13 30  1  0
 14 15  1  0
 15 16  2  0
 16 17  1  0
 16 25  1  0
 17 18  1  0
 18 19  2  0
 18 20  1  0
 20 21  2  3
 21 22  1  0
 22 23  1  1
 22 24  1  0
 25 26  2  0
 25 30  1  0
 26 27  1  0
 26 35  1  0
 27 28  2  0
 27 31  1  0
 28 29  1  0
 29 30  2  0
 31 32  1  0
 32 33  1  0
 33 34  1  0
 34 35  1  0
M  CHG  1  34   1
M  END
