
     RDKit          3D

 34 37  0  0  0  0  0  0  0  0999 V2000
    7.1350   -2.8630    0.0680 C   0  0  0  0  0  0  0  0  0  0  0  0
    5.7860   -2.3040   -0.1800 N   0  0  0  0  0  0  0  0  0  0  0  0
    5.5810   -0.9450    0.0150 C   0  0  0  0  0  0  0  0  0  0  0  0
    6.6280   -0.0580   -0.0710 C   0  0  0  0  0  0  0  0  0  0  0  0
    6.4100    1.3410    0.0770 C   0  0  0  0  0  0  0  0  0  0  0  0
    5.1370    1.7490    0.2950 C   0  0  0  0  0  0  0  0  0  0  0  0
    4.1300    0.8100    0.3720 C   0  0  0  0  0  0  0  0  0  0  0  0
    4.2590   -0.5000    0.2630 C   0  0  0  0  0  0  0  0  0  0  0  0
    3.2550   -1.4670    0.4330 N   0  0  0  0  0  0  0  0  0  0  0  0
    2.0320   -1.2130    1.0460 C   0  0  0  0  0  0  0  0  0  0  0  0
    1.6920   -0.1190    1.4820 O   0  0  0  0  0  0  0  0  0  0  0  0
    1.0800   -2.2870    1.2120 N   0  0  0  0  0  0  0  0  0  0  0  0
   -0.1500   -2.2410    1.8430 C   0  0  0  0  0  0  0  0  0  0  0  0
   -1.3160   -1.5140    1.3550 C   0  0  0  0  0  0  0  0  0  0  0  0
   -2.0100   -1.8940    0.3010 C   0  0  0  0  0  0  0  0  0  0  0  0
   -3.1630   -1.2790   -0.0840 C   0  0  0  0  0  0  0  0  0  0  0  0
   -3.7430   -0.1680    0.5900 C   0  0  0  0  0  0  0  0  0  0  0  0
   -4.8360    0.3160    0.1560 O   0  0  0  0  0  0  0  0  0  0  0  0
   -5.7350    0.9190   -0.5470 C   0  0  0  0  0  0  0  0  0  0  0  0
   -5.1390    1.6030   -1.8930 C   0  0  0  0  0  0  0  0  0  0  0  0
   -6.1390    2.1970   -2.6020 C   0  0  0  0  0  0  0  0  0  0  0  0
   -7.4560    2.3220   -2.4030 C   0  0  0  0  0  0  0  0  0  0  0  0
   -8.4420    2.7320   -3.2830 C   0  0  0  0  0  0  0  0  0  0  0  0
   -9.3270    3.1050   -4.1020 N   0  0  0  0  0  0  0  0  0  0  0  0
   -7.9810    1.7000   -1.1260 C   0  0  0  0  0  0  0  0  0  0  0  0
   -9.5970    1.8570   -0.7540 Cl  0  0  0  0  0  0  0  0  0  0  0  0
   -6.8900    1.1700   -0.5840 C   0  0  0  0  0  0  0  0  0  0  0  0
   -7.5310    0.4220    0.7430 O   0  0  0  0  0  0  0  0  0  0  0  0
   -7.9740   -0.7930    0.0730 C   0  0  0  0  0  0  0  0  0  0  0  0
   -2.9420    0.2340    1.7520 C   0  0  0  0  0  0  0  0  0  0  0  0
   -1.8210   -0.4130    2.0830 C   0  0  0  0  0  0  0  0  0  0  0  0
    5.2080    3.5600    0.3650 S   0  0  0  0  0  0  0  0  0  0  0  0
    7.0200    3.6410    0.6810 C   0  0  0  0  0  0  0  0  0  0  0  0
    7.4690    2.3450    0.0570 C   0  0  0  0  0  0  0  0  0  0  0  0
  1  2  1  0
  2  3  1  0
  3  4  2  0
  3  8  1  0
  4  5  1  0
  5  6  2  0
  5 34  1  0
  6  7  1  0
  6 32  1  0
  7  8  2  0
  8  9  1  0
  9 10  1  0
 10 11  2  0
 10 12  1  0
 12 13  1  0
 13 14  1  0
 14 15  2  0
 14 31  1  0
 15 16  1  0
 16 17  2  0
 17 18  1  0
 17 30  1  0
 18 19  1  0
 19 20  2  0
 19 27  1  0
 20 21  1  0
 21 22  2  0
 22 23  1  0
 22 25  1  0
 23 24  3  0
 25 26  1  0
 25 27  2  0
 27 28  1  0
 28 29  1  0
 30 31  2  0
 32 33  1  0
 33 34  1  0
M  END
