
     RDKit          3D

 34 37  0  0  0  0  0  0  0  0999 V2000
   10.9200    0.1220   -1.3430 C   0  0  0  0  0  0  0  0  0  0  0  0
    9.4710   -0.3440   -0.9330 C   0  0  0  0  0  0  0  0  0  0  0  0
    8.8650   -1.1760   -0.4710 N   0  0  0  0  0  0  0  0  0  0  0  0
    7.5880   -1.2270   -0.1820 C   0  0  0  0  0  0  0  0  0  0  0  0
    6.9080   -2.4390    0.3970 C   0  0  0  0  0  0  0  0  0  0  0  0
    6.8300   -0.1180   -0.4610 C   0  0  0  0  0  0  0  0  0  0  0  0
    5.5500    0.4280   -0.2040 C   0  0  0  0  0  0  0  0  0  0  0  0
    4.3670   -0.2680   -0.6200 N   0  0  0  0  0  0  0  0  0  0  0  0
    3.0940    0.3590   -0.2890 C   0  0  0  0  0  0  0  0  0  0  0  0
    3.1670    1.4520    0.2930 O   0  0  0  0  0  0  0  0  0  0  0  0
    1.8560   -0.1800   -0.5800 N   0  0  0  0  0  0  0  0  0  0  0  0
    0.5410    0.3860   -0.2010 C   0  0  1  0  0  0  0  0  0  0  0  0
   -0.5520   -0.3750   -0.7990 C   0  0  0  0  0  0  0  0  0  0  0  0
   -0.3550   -1.3750   -1.4370 O   0  0  0  0  0  0  0  0  0  0  0  0
   -1.8690    0.1020   -0.5460 N   0  0  0  0  0  0  0  0  0  0  0  0
   -3.0720   -0.7030   -0.9230 C   0  0  0  0  0  0  0  0  0  0  0  0
   -4.2920    0.0150   -0.5590 C   0  0  0  0  0  0  0  0  0  0  0  0
   -4.2860    1.4060   -0.6400 C   0  0  0  0  0  0  0  0  0  0  0  0
   -5.4780    2.1460   -0.5000 C   0  0  0  0  0  0  0  0  0  0  0  0
   -6.6580    1.5120   -0.2650 C   0  0  0  0  0  0  0  0  0  0  0  0
   -7.9550    2.1740   -0.0480 C   0  0  0  0  0  0  0  0  0  0  0  0
   -6.6880    0.1250   -0.1780 C   0  0  0  0  0  0  0  0  0  0  0  0
   -7.8390   -0.5500    0.1870 C   0  0  0  0  0  0  0  0  0  0  0  0
   -7.8560   -1.9380    0.4020 C   0  0  0  0  0  0  0  0  0  0  0  0
   -9.0680   -2.5480    0.7780 O   0  0  0  0  0  0  0  0  0  0  0  0
   -6.6920   -2.6220    0.2420 C   0  0  0  0  0  0  0  0  0  0  0  0
   -6.6240   -4.3540    0.5440 Cl  0  0  0  0  0  0  0  0  0  0  0  0
   -5.5130   -1.9970   -0.1180 C   0  0  0  0  0  0  0  0  0  0  0  0
   -5.5380   -0.6030   -0.3250 C   0  0  0  0  0  0  0  0  0  0  0  0
    0.4240   -0.3520    1.2550 C   0  0  0  0  0  0  0  0  0  0  0  0
    1.0160    0.6270    2.1790 C   0  0  0  0  0  0  0  0  0  0  0  0
    0.6280    1.9700    1.6220 C   0  0  0  0  0  0  0  0  0  0  0  0
    0.4960    1.7500    0.1800 C   0  0  0  0  0  0  0  0  0  0  0  0
    8.1150    0.9510   -1.1800 S   0  0  0  0  0  0  0  0  0  0  0  0
  1  2  1  0
  2  3  2  0
  2 34  1  0
  3  4  1  0
  4  5  1  0
  4  6  2  0
  6  7  1  0
  6 34  1  0
  7  8  1  0
  8  9  1  0
  9 10  2  0
  9 11  1  0
 12 11  1  6
 12 13  1  0
 12 30  1  0
 12 33  1  0
 13 14  2  0
 13 15  1  0
 15 16  1  0
 16 17  1  0
 17 18  2  0
 17 29  1  0
 18 19  1  0
 19 20  2  0
 20 21  1  0
 20 22  1  0
 22 23  2  0
 22 29  1  0
 23 24  1  0
 24 25  1  0
 24 26  2  0
 26 27  1  0
 26 28  1  0
 28 29  2  0
 30 31  1  0
 31 32  1  0
 32 33  1  0
M  END
