
     RDKit          3D

 34 37  0  0  0  0  0  0  0  0999 V2000
   -6.5660    3.3940    0.0270 C   0  0  0  0  0  0  0  0  0  0  0  0
   -6.7140    2.0300    0.7470 C   0  0  2  0  0  0  0  0  0  0  0  0
   -5.7740    1.0880    0.1930 C   0  0  0  0  0  0  0  0  0  0  0  0
   -5.7590   -0.0800   -0.4170 C   0  0  0  0  0  0  0  0  0  0  0  0
   -4.4290   -0.6460   -0.8050 C   0  0  0  0  0  0  0  0  0  0  0  0
   -4.2080   -1.9950   -0.1750 C   0  0  0  0  0  0  0  0  0  0  0  0
   -2.9100   -2.5340   -0.5730 N   0  0  0  0  0  0  0  0  0  0  0  0
   -1.6910   -1.9160   -0.2340 C   0  0  0  0  0  0  0  0  0  0  0  0
   -1.6990   -0.8750    0.4630 O   0  0  0  0  0  0  0  0  0  0  0  0
   -0.4220   -2.3990   -0.6380 N   0  0  0  0  0  0  0  0  0  0  0  0
    0.8200   -1.8050   -0.2770 C   0  0  0  0  0  0  0  0  0  0  0  0
    1.8750   -1.7320   -1.1720 C   0  0  0  0  0  0  0  0  0  0  0  0
    3.0960   -1.1890   -0.8170 C   0  0  0  0  0  0  0  0  0  0  0  0
    3.2610   -0.7000    0.4900 C   0  0  0  0  0  0  0  0  0  0  0  0
    2.2400   -0.7560    1.4080 C   0  0  0  0  0  0  0  0  0  0  0  0
    1.0260   -1.3150    0.9930 C   0  0  0  0  0  0  0  0  0  0  0  0
    2.7070   -0.2270    2.7210 C   0  0  0  0  0  0  0  0  0  0  0  0
    4.0620    0.2830    2.4160 C   0  0  0  0  0  0  0  0  0  0  0  0
    4.8400    0.9360    3.1990 O   0  0  0  0  0  0  0  0  0  0  0  0
    4.3930   -0.0680    1.0840 N   0  0  0  0  0  0  0  0  0  0  0  0
    5.6450    0.1710    0.4100 C   0  0  0  0  0  0  0  0  0  0  0  0
    6.7640   -0.5560    0.7410 C   0  0  0  0  0  0  0  0  0  0  0  0
    7.9850   -0.3490    0.1130 C   0  0  0  0  0  0  0  0  0  0  0  0
    8.0950    0.6150   -0.8760 C   0  0  0  0  0  0  0  0  0  0  0  0
    9.3490    0.8740   -1.5640 C   0  0  0  0  0  0  0  0  0  0  0  0
    9.5490    2.0930   -2.2970 N   0  0  0  0  0  0  0  0  0  0  0  0
   10.2930    0.0490   -1.5410 O   0  0  0  0  0  0  0  0  0  0  0  0
    6.9770    1.3560   -1.2190 C   0  0  0  0  0  0  0  0  0  0  0  0
    5.7670    1.1280   -0.5750 C   0  0  0  0  0  0  0  0  0  0  0  0
   -6.9270   -0.8810   -0.7380 C   0  0  0  0  0  0  0  0  0  0  0  0
   -6.6990   -1.9700   -2.1210 Cl  0  0  0  0  0  0  0  0  0  0  0  0
   -8.1310   -0.9490   -0.1910 C   0  0  0  0  0  0  0  0  0  0  0  0
   -8.6210    0.0610    1.2310 S   0  0  0  0  0  0  0  0  0  0  0  0
   -8.1430    1.7390    0.8070 C   0  0  0  0  0  0  0  0  0  0  0  0
  2  1  1  6
  2  3  1  0
  2 34  1  0
  3  4  2  0
  4  5  1  0
  4 30  1  0
  5  6  1  0
  6  7  1  0
  7  8  1  0
  8  9  2  0
  8 10  1  0
 10 11  1  0
 11 12  2  0
 11 16  1  0
 12 13  1  0
 13 14  2  0
 14 15  1  0
 14 20  1  0
 15 16  2  0
 15 17  1  0
 17 18  1  0
 18 19  2  0
 18 20  1  0
 20 21  1  0
 21 22  2  0
 21 29  1  0
 22 23  1  0
 23 24  2  0
 24 25  1  0
 24 28  1  0
 25 26  1  0
 25 27  2  0
 28 29  2  0
 30 31  1  0
 30 32  2  0
 32 33  1  0
 33 34  1  0
M  END
