
     RDKit          3D

 34 37  0  0  0  0  0  0  0  0999 V2000
    6.1450    2.7460    2.1580 C   0  0  0  0  0  0  0  0  0  0  0  0
    5.6960    1.6400    3.0800 C   0  0  0  0  0  0  0  0  0  0  0  0
    4.4580    1.0950    2.5650 N   0  0  0  0  0  0  0  0  0  0  0  0
    4.4020    0.5100    1.2560 C   0  0  0  0  0  0  0  0  0  0  0  0
    5.4370    0.4780    0.5660 O   0  0  0  0  0  0  0  0  0  0  0  0
    3.2020   -0.0300    0.7300 N   0  0  0  0  0  0  0  0  0  0  0  0
    2.9950   -0.6410   -0.5090 C   0  0  0  0  0  0  0  0  0  0  0  0
    4.0690   -1.1150   -1.2630 C   0  0  0  0  0  0  0  0  0  0  0  0
    3.8940   -1.8110   -2.4660 C   0  0  0  0  0  0  0  0  0  0  0  0
    2.6260   -2.0410   -2.9310 C   0  0  0  0  0  0  0  0  0  0  0  0
    1.5740   -1.5750   -2.1910 C   0  0  0  0  0  0  0  0  0  0  0  0
    1.7400   -0.8730   -0.9790 C   0  0  0  0  0  0  0  0  0  0  0  0
    0.5180   -0.3930   -0.3360 C   0  0  1  0  0  0  0  0  0  0  0  0
    0.5950    0.7890    0.4650 N   0  0  0  0  0  0  0  0  0  0  0  0
   -0.3810    0.5470    1.8940 S   0  0  1  0  0  0  0  0  0  0  0  0
    0.0550   -0.6610    2.6620 O   0  0  0  0  0  0  0  0  0  0  0  0
   -0.2990    1.7440    2.8030 O   0  0  0  0  0  0  0  0  0  0  0  0
   -2.0660    0.2890    1.4810 C   0  0  0  0  0  0  0  0  0  0  0  0
   -2.9030    1.2980    1.3390 C   0  0  0  0  0  0  0  0  0  0  0  0
   -2.1810    2.9040    1.5970 Cl  0  0  0  0  0  0  0  0  0  0  0  0
   -4.3300    1.2120    0.9950 C   0  0  0  0  0  0  0  0  0  0  0  0
   -4.8040   -0.1740    0.7990 C   0  0  0  0  0  0  0  0  0  0  0  0
   -6.1440   -0.4130    0.4630 C   0  0  0  0  0  0  0  0  0  0  0  0
   -6.6120   -1.6870    0.2770 C   0  0  0  0  0  0  0  0  0  0  0  0
   -5.7550   -2.7510    0.4210 C   0  0  0  0  0  0  0  0  0  0  0  0
   -4.4410   -2.5120    0.7510 C   0  0  0  0  0  0  0  0  0  0  0  0
   -3.9340   -1.2210    0.9480 C   0  0  0  0  0  0  0  0  0  0  0  0
   -2.5700   -1.0240    1.2860 N   0  0  0  0  0  0  0  0  0  0  0  0
   -0.4050   -0.0150   -1.4920 C   0  0  0  0  0  0  0  0  0  0  0  0
   -1.4700   -0.8000   -1.8220 C   0  0  0  0  0  0  0  0  0  0  0  0
   -2.3160   -0.4530   -2.8830 C   0  0  0  0  0  0  0  0  0  0  0  0
   -2.0700    0.7000   -3.6080 C   0  0  0  0  0  0  0  0  0  0  0  0
   -1.0000    1.4870   -3.2740 C   0  0  0  0  0  0  0  0  0  0  0  0
   -0.1770    1.1190   -2.2170 C   0  0  0  0  0  0  0  0  0  0  0  0
  1  2  1  0
  2  3  1  0
  3  4  1  0
  4  5  2  0
  4  6  1  0
  6  7  1  0
  7  8  2  0
  7 12  1  0
  8  9  1  0
  9 10  2  0
 10 11  1  0
 11 12  2  0
 12 13  1  0
 13 14  1  1
 13 29  1  0
 15 14  1  6
 15 16  2  0
 15 17  2  0
 15 18  1  0
 18 19  2  0
 18 28  1  0
 19 20  1  0
 19 21  1  0
 21 22  1  0
 22 23  2  0
 22 27  1  0
 23 24  1  0
 24 25  2  0
 25 26  1  0
 26 27  2  0
 27 28  1  0
 29 30  2  0
 29 34  1  0
 30 31  1  0
 31 32  2  0
 32 33  1  0
 33 34  2  0
M  END
