
     RDKit          3D

 34 37  0  0  0  0  0  0  0  0999 V2000
   10.7590    0.1050    0.9510 C   0  0  0  0  0  0  0  0  0  0  0  0
    9.3300   -0.1470    0.6320 C   0  0  0  0  0  0  0  0  0  0  0  0
    8.3640    0.7220    1.0920 C   0  0  0  0  0  0  0  0  0  0  0  0
    7.0170    0.4650    0.7780 C   0  0  0  0  0  0  0  0  0  0  0  0
    6.5980   -0.6000    0.0410 C   0  0  0  0  0  0  0  0  0  0  0  0
    5.2760   -0.9340   -0.3090 N   0  0  0  0  0  0  0  0  0  0  0  0
    4.1230   -0.1620    0.0420 C   0  0  0  0  0  0  0  0  0  0  0  0
    4.2400    0.8690    0.6920 O   0  0  0  0  0  0  0  0  0  0  0  0
    2.8470   -0.5870   -0.3590 N   0  0  0  0  0  0  0  0  0  0  0  0
    1.6070    0.0520   -0.1050 C   0  0  0  0  0  0  0  0  0  0  0  0
    0.4270   -0.6400   -0.4250 C   0  0  0  0  0  0  0  0  0  0  0  0
   -0.8290   -0.1170   -0.2320 C   0  0  0  0  0  0  0  0  0  0  0  0
   -0.9200    1.1400    0.2990 C   0  0  0  0  0  0  0  0  0  0  0  0
   -2.2490    1.7430    0.5200 C   0  0  0  0  0  0  0  0  0  0  0  0
   -2.7540    1.3950    1.8360 N   0  0  0  0  0  0  0  0  0  0  0  0
   -4.3250    2.1150    2.0850 S   0  0  2  0  0  0  0  0  0  0  0  0
   -4.1670    3.5920    1.9600 O   0  0  0  0  0  0  0  0  0  0  0  0
   -4.8270    1.8060    3.4620 O   0  0  0  0  0  0  0  0  0  0  0  0
   -5.4330    1.4720    0.8770 C   0  0  0  0  0  0  0  0  0  0  0  0
   -5.5820    2.0870   -0.3520 C   0  0  0  0  0  0  0  0  0  0  0  0
   -6.4560    1.5800   -1.3080 C   0  0  0  0  0  0  0  0  0  0  0  0
   -7.2030    0.4500   -1.0660 C   0  0  0  0  0  0  0  0  0  0  0  0
   -7.0570   -0.1660    0.1590 C   0  0  0  0  0  0  0  0  0  0  0  0
   -6.1870    0.3390    1.1080 C   0  0  0  0  0  0  0  0  0  0  0  0
   -7.8700   -1.3850    0.4080 C   0  0  0  0  0  0  0  0  0  0  0  0
   -7.9160   -2.1250   -0.8500 N   0  0  0  0  0  0  0  0  0  0  0  0
   -8.7330   -1.3640   -1.7760 C   0  0  0  0  0  0  0  0  0  0  0  0
   -8.1110   -0.0370   -2.1210 C   0  0  0  0  0  0  0  0  0  0  0  0
    0.1900    1.8740    0.6350 C   0  0  0  0  0  0  0  0  0  0  0  0
    1.4410    1.2970    0.4190 C   0  0  0  0  0  0  0  0  0  0  0  0
    7.6160   -1.4590   -0.4070 C   0  0  0  0  0  0  0  0  0  0  0  0
    7.2450   -2.6470   -1.2300 C   0  0  0  0  0  0  0  0  0  0  0  0
    6.5300   -3.8900   -0.1650 Cl  0  0  0  0  0  0  0  0  0  0  0  0
    8.9510   -1.2390   -0.1190 C   0  0  0  0  0  0  0  0  0  0  0  0
  1  2  1  0
  2  3  2  0
  2 34  1  0
  3  4  1  0
  4  5  2  0
  5  6  1  0
  5 31  1  0
  6  7  1  0
  7  8  2  0
  7  9  1  0
  9 10  1  0
 10 11  2  0
 10 30  1  0
 11 12  1  0
 12 13  2  0
 13 14  1  0
 13 29  1  0
 14 15  1  0
 16 15  1  6
 16 17  2  0
 16 18  2  0
 16 19  1  0
 19 20  2  0
 19 24  1  0
 20 21  1  0
 21 22  2  0
 22 23  1  0
 22 28  1  0
 23 24  2  0
 23 25  1  0
 25 26  1  0
 26 27  1  0
 27 28  1  0
 29 30  2  0
 31 32  1  0
 31 34  2  0
 32 33  1  0
M  END
