
     RDKit          3D

 34 37  0  0  0  0  0  0  0  0999 V2000
   -9.9490   -2.6220    0.2640 N   0  0  0  0  0  0  0  0  0  0  0  0
   -9.3930   -1.3530    0.6100 C   0  0  0  0  0  0  0  0  0  0  0  0
  -10.0620   -0.5540    1.4480 N   0  0  0  0  0  0  0  0  0  0  0  0
   -9.5630    0.6540    1.7920 C   0  0  0  0  0  0  0  0  0  0  0  0
   -8.3770    1.0180    1.2620 N   0  0  0  0  0  0  0  0  0  0  0  0
   -7.6670    0.2530    0.4170 C   0  0  0  0  0  0  0  0  0  0  0  0
   -8.1820   -0.9780    0.0700 C   0  0  0  0  0  0  0  0  0  0  0  0
   -7.3060   -1.5370   -0.7690 N   0  0  0  0  0  0  0  0  0  0  0  0
   -6.2870   -0.6810   -0.9340 C   0  0  0  0  0  0  0  0  0  0  0  0
   -6.4870    0.4290   -0.2140 N   0  0  0  0  0  0  0  0  0  0  0  0
   -5.6530    1.5990   -0.0910 C   0  0  0  0  0  0  0  0  0  0  0  0
   -4.7280    1.5010    0.9440 O   0  0  0  0  0  0  0  0  0  0  0  0
   -3.8570    0.4360    0.7810 C   0  0  0  0  0  0  0  0  0  0  0  0
   -3.0150    0.5040   -0.4630 C   0  0  0  0  0  0  0  0  0  0  0  0
   -2.1940   -0.7000   -0.4660 N   0  0  0  0  0  0  0  0  0  0  0  0
   -1.1580   -0.8390   -1.7980 S   0  0  1  0  0  0  0  0  0  0  0  0
   -1.4230   -2.2040   -2.4350 O   0  0  0  0  0  0  0  0  0  0  0  0
   -1.5090    0.2390   -2.8080 O   0  0  0  0  0  0  0  0  0  0  0  0
    0.4760   -0.7430   -1.3280 N   0  0  0  0  0  0  0  0  0  0  0  0
    0.9890    0.2170   -0.4320 C   0  0  0  0  0  0  0  0  0  0  0  0
    0.2660    1.0690    0.0900 O   0  0  0  0  0  0  0  0  0  0  0  0
    2.4360    0.1640   -0.1450 C   0  0  0  0  0  0  0  0  0  0  0  0
    2.7760    1.1980    0.8920 C   0  0  0  0  0  0  0  0  0  0  0  0
    4.2650    1.1460    1.1570 C   0  0  0  0  0  0  0  0  0  0  0  0
    5.0630    1.4700   -0.0690 C   0  0  0  0  0  0  0  0  0  0  0  0
    6.5400    1.3890    0.2870 C   0  0  2  0  0  0  0  0  0  0  0  0
    7.5380    1.8000   -1.2080 S   0  0  0  0  0  0  0  0  0  0  0  0
    8.6530    0.3670   -1.1910 C   0  0  0  0  0  0  0  0  0  0  0  0
    8.4660   -0.1180    0.2380 C   0  0  2  0  0  0  0  0  0  0  0  0
    8.6370   -1.5490    0.1810 N   0  0  0  0  0  0  0  0  0  0  0  0
    7.3870   -2.0860   -0.2190 C   0  0  0  0  0  0  0  0  0  0  0  0
    7.1100   -3.2800   -0.5810 O   0  0  0  0  0  0  0  0  0  0  0  0
    6.4060   -1.0460   -0.1630 N   0  0  0  0  0  0  0  0  0  0  0  0
    6.9970    0.0080    0.5710 C   0  0  2  0  0  0  0  0  0  0  0  0
  1  2  1  0
  2  3  2  0
  2  7  1  0
  3  4  1  0
  4  5  2  0
  5  6  1  0
  6  7  2  0
  6 10  1  0
  7  8  1  0
  8  9  2  0
  9 10  1  0
 10 11  1  0
 11 12  1  0
 12 13  1  0
 13 14  1  0
 14 15  1  0
 16 15  1  1
 16 17  2  0
 16 18  2  0
 16 19  1  0
 19 20  1  0
 20 21  2  0
 20 22  1  0
 22 23  1  0
 23 24  1  0
 24 25  1  0
 26 25  1  6
 26 27  1  0
 26 34  1  0
 27 28  1  0
 29 28  1  6
 29 30  1  0
 29 34  1  0
 30 31  1  0
 31 32  2  0
 31 33  1  0
 34 33  1  6
M  END
