
     RDKit          3D

 34 37  0  0  0  0  0  0  0  0999 V2000
   -2.3760   -1.7590   -1.9380 C   0  0  0  0  0  0  0  0  0  0  0  0
   -2.1170   -0.5310   -1.6140 C   0  0  0  0  0  0  0  0  0  0  0  0
   -2.9020    0.2600   -0.7190 C   0  0  0  0  0  0  0  0  0  0  0  0
   -2.6010    1.5420   -0.4630 C   0  0  0  0  0  0  0  0  0  0  0  0
   -3.5290    2.1520    0.4580 N   0  0  0  0  0  0  0  0  0  0  0  0
   -4.9300    1.9230    0.2050 C   0  0  0  0  0  0  0  0  0  0  0  0
   -5.3000    0.4500    0.0820 C   0  0  2  0  0  0  0  0  0  0  0  0
   -6.1530    0.0340    1.2550 C   0  0  0  0  0  0  0  0  0  0  0  0
   -5.7090   -1.7200    1.3100 S   0  0  0  0  0  0  0  0  0  0  0  0
   -4.0080   -1.4670    0.6670 C   0  0  0  0  0  0  0  0  0  0  0  0
   -2.9260   -2.3480    1.1220 C   0  0  0  0  0  0  0  0  0  0  0  0
   -3.3060   -3.4330    1.6170 O   0  0  0  0  0  0  0  0  0  0  0  0
   -1.5450   -2.1370    1.0880 N   0  0  0  0  0  0  0  0  0  0  0  0
   -0.4910   -2.9690    1.5100 C   0  0  0  0  0  0  0  0  0  0  0  0
   -0.7040   -4.1310    2.2190 C   0  0  0  0  0  0  0  0  0  0  0  0
    0.3180   -4.9440    2.7010 C   0  0  0  0  0  0  0  0  0  0  0  0
    1.5910   -4.5800    2.4630 C   0  0  0  0  0  0  0  0  0  0  0  0
    1.8450   -3.4210    1.7540 C   0  0  0  0  0  0  0  0  0  0  0  0
    0.8450   -2.6070    1.2710 C   0  0  0  0  0  0  0  0  0  0  0  0
    1.0770   -1.4610    0.4880 N   0  0  0  0  0  0  0  0  0  0  0  0
    2.3220   -0.8000    0.3460 C   0  0  0  0  0  0  0  0  0  0  0  0
    3.3260   -1.2260    0.9510 O   0  0  0  0  0  0  0  0  0  0  0  0
    2.4380    0.4040   -0.5230 C   0  0  0  0  0  0  0  0  0  0  0  0
    1.4360    0.7850   -1.1250 O   0  0  0  0  0  0  0  0  0  0  0  0
    3.6580    1.0900   -0.6530 N   0  0  0  0  0  0  0  0  0  0  0  0
    3.9260    2.2290   -1.4310 C   0  0  0  0  0  0  0  0  0  0  0  0
    2.9980    2.8090   -2.2570 C   0  0  0  0  0  0  0  0  0  0  0  0
    3.2810    3.9330   -3.0350 C   0  0  0  0  0  0  0  0  0  0  0  0
    4.5250    4.4910   -2.9850 C   0  0  0  0  0  0  0  0  0  0  0  0
    5.4720    3.9350   -2.1690 C   0  0  0  0  0  0  0  0  0  0  0  0
    7.0690    4.6770   -2.1240 Cl  0  0  0  0  0  0  0  0  0  0  0  0
    5.1870    2.8330   -1.4100 C   0  0  0  0  0  0  0  0  0  0  0  0
    6.2300    2.2460   -0.5240 C   0  0  0  0  0  0  0  0  0  0  0  0
   -4.0690   -0.3530    0.0190 C   0  0  0  0  0  0  0  0  0  0  0  0
  1  2  2  0
  2  3  1  0
  3  4  2  0
  3 34  1  0
  4  5  1  0
  5  6  1  0
  7  6  1  1
  7  8  1  0
  7 34  1  0
  8  9  1  0
  9 10  1  0
 10 11  1  0
 10 34  2  0
 11 12  2  0
 11 13  1  0
 13 14  1  0
 14 15  2  0
 14 19  1  0
 15 16  1  0
 16 17  2  0
 17 18  1  0
 18 19  2  0
 19 20  1  0
 20 21  1  0
 21 22  2  0
 21 23  1  0
 23 24  2  0
 23 25  1  0
 25 26  1  0
 26 27  2  0
 26 32  1  0
 27 28  1  0
 28 29  2  0
 29 30  1  0
 30 31  1  0
 30 32  2  0
 32 33  1  0
M  END
