
     RDKit          3D

 34 37  0  0  0  0  0  0  0  0999 V2000
    6.9430    1.3870    3.1420 C   0  0  0  0  0  0  0  0  0  0  0  0
    5.9300    1.1860    2.0640 C   0  0  0  0  0  0  0  0  0  0  0  0
    4.8580    0.3600    2.2380 C   0  0  0  0  0  0  0  0  0  0  0  0
    3.9030    0.1690    1.2280 C   0  0  0  0  0  0  0  0  0  0  0  0
    3.9920    0.7980    0.0120 C   0  0  0  0  0  0  0  0  0  0  0  0
    3.1270    0.6800   -1.0770 N   0  0  0  0  0  0  0  0  0  0  0  0
    1.9010   -0.0480   -1.0810 C   0  0  0  0  0  0  0  0  0  0  0  0
    1.5270   -0.6340   -0.0550 O   0  0  0  0  0  0  0  0  0  0  0  0
    1.0960   -0.1100   -2.2530 N   0  0  0  0  0  0  0  0  0  0  0  0
   -0.1350   -0.7900   -2.3460 C   0  0  0  0  0  0  0  0  0  0  0  0
   -0.6000   -1.1270   -3.6330 C   0  0  0  0  0  0  0  0  0  0  0  0
   -1.7970   -1.7660   -3.8470 C   0  0  0  0  0  0  0  0  0  0  0  0
   -2.6130   -2.1150   -2.7950 C   0  0  0  0  0  0  0  0  0  0  0  0
   -3.9040   -2.8020   -3.0220 C   0  0  0  0  0  0  0  0  0  0  0  0
   -3.8130   -4.5280   -2.6200 Cl  0  0  0  0  0  0  0  0  0  0  0  0
   -2.1760   -1.7940   -1.5260 C   0  0  0  0  0  0  0  0  0  0  0  0
   -2.9880   -2.1260   -0.4230 N   0  0  0  0  0  0  0  0  0  0  0  0
   -2.5620   -1.7830    1.2030 S   0  0  2  0  0  0  0  0  0  0  0  0
   -1.1670   -2.4290    1.3070 O   0  0  0  0  0  0  0  0  0  0  0  0
   -3.2970   -2.6100    2.2120 O   0  0  0  0  0  0  0  0  0  0  0  0
   -2.3640   -0.1270    1.5800 C   0  0  0  0  0  0  0  0  0  0  0  0
   -1.2460    0.4640    2.1410 C   0  0  0  0  0  0  0  0  0  0  0  0
   -1.4180    1.7590    2.3280 N   0  0  0  0  0  0  0  0  0  0  0  0
   -2.6330    2.0710    1.9050 C   0  0  0  0  0  0  0  0  0  0  0  0
   -3.2660    3.2860    1.8870 C   0  0  0  0  0  0  0  0  0  0  0  0
   -4.5510    3.3930    1.3910 C   0  0  0  0  0  0  0  0  0  0  0  0
   -5.1580    2.2580    0.9250 C   0  0  0  0  0  0  0  0  0  0  0  0
   -4.5460    1.0210    0.9300 C   0  0  0  0  0  0  0  0  0  0  0  0
   -5.1990   -0.2020    0.4190 C   0  0  0  0  0  0  0  0  0  0  0  0
   -3.2680    0.9180    1.4250 C   0  0  0  0  0  0  0  0  0  0  0  0
   -0.9560   -1.1420   -1.3040 C   0  0  0  0  0  0  0  0  0  0  0  0
    5.1020    1.6430   -0.1480 C   0  0  0  0  0  0  0  0  0  0  0  0
    5.2900    2.3870   -1.4370 C   0  0  0  0  0  0  0  0  0  0  0  0
    6.0320    1.8260    0.8460 C   0  0  0  0  0  0  0  0  0  0  0  0
  1  2  1  0
  2  3  2  0
  2 34  1  0
  3  4  1  0
  4  5  2  0
  5  6  1  0
  5 32  1  0
  6  7  1  0
  7  8  2  0
  7  9  1  0
  9 10  1  0
 10 11  2  0
 10 31  1  0
 11 12  1  0
 12 13  2  0
 13 14  1  0
 13 16  1  0
 14 15  1  0
 16 17  1  0
 16 31  2  0
 18 17  1  6
 18 19  2  0
 18 20  2  0
 18 21  1  0
 21 22  2  0
 21 30  1  0
 22 23  1  0
 23 24  1  0
 24 25  2  0
 24 30  1  0
 25 26  1  0
 26 27  2  0
 27 28  1  0
 28 29  1  0
 28 30  2  0
 32 33  1  0
 32 34  2  0
M  END
