
     RDKit          3D

 27 30  0  0  0  0  0  0  0  0999 V2000
    5.4640   -3.3100   -1.5010 C   0  0  0  0  0  0  0  0  0  0  0  0
    4.6460   -2.2710   -1.3580 C   0  0  0  0  0  0  0  0  0  0  0  0
    3.8860   -2.0870   -0.1150 C   0  0  0  0  0  0  0  0  0  0  0  0
    2.4610   -2.0790   -0.2950 N   0  0  0  0  0  0  0  0  0  0  0  0
    1.7630   -3.2850   -0.6910 C   0  0  0  0  0  0  0  0  0  0  0  0
    1.7120   -0.8910   -0.0870 C   0  0  0  0  0  0  0  0  0  0  0  0
    2.3220    0.2510    0.2840 N   0  0  0  0  0  0  0  0  0  0  0  0
    1.6390    1.3910    0.4910 C   0  0  0  0  0  0  0  0  0  0  0  0
    2.2830    2.6290    0.8940 C   0  0  0  0  0  0  0  0  0  0  0  0
    1.5250    3.7610    1.0880 C   0  0  0  0  0  0  0  0  0  0  0  0
    2.1640    4.9000    1.4640 N   0  0  0  0  0  0  0  0  0  0  0  0
    3.4920    4.9370    1.6440 C   0  0  0  0  0  0  0  0  0  0  0  0
    4.2310    3.7930    1.4440 C   0  0  0  0  0  0  0  0  0  0  0  0
    3.6030    2.6530    1.0690 N   0  0  0  0  0  0  0  0  0  0  0  0
    0.3100    1.3550    0.3130 N   0  0  0  0  0  0  0  0  0  0  0  0
   -0.3580    0.2560   -0.0540 C   0  0  0  0  0  0  0  0  0  0  0  0
   -1.7660    0.2360   -0.2350 N   0  0  0  0  0  0  0  0  0  0  0  0
   -2.4290   -1.0110   -0.6340 C   0  0  0  0  0  0  0  0  0  0  0  0
   -3.6120   -1.1240    0.2910 C   0  0  0  0  0  0  0  0  0  0  0  0
   -4.1530   -2.0930    0.9850 C   0  0  0  0  0  0  0  0  0  0  0  0
   -5.3170   -1.5610    1.7050 C   0  0  0  0  0  0  0  0  0  0  0  0
   -5.3880   -0.1640    1.3480 N   0  0  0  0  0  0  0  0  0  0  0  0
   -4.4080    0.0660    0.5410 C   0  0  0  0  0  0  0  0  0  0  0  0
   -3.9750    1.3300   -0.1630 C   0  0  2  0  0  0  0  0  0  0  0  0
   -4.4690    1.3700   -1.5890 C   0  0  0  0  0  0  0  0  0  0  0  0
   -2.4990    1.4530   -0.0160 C   0  0  0  0  0  0  0  0  0  0  0  0
    0.3720   -0.8590   -0.2480 N   0  0  0  0  0  0  0  0  0  0  0  0
  1  2  2  0
  2  3  1  0
  3  4  1  0
  4  5  1  0
  4  6  1  0
  6  7  2  0
  6 27  1  0
  7  8  1  0
  8  9  1  0
  8 15  2  0
  9 10  2  0
  9 14  1  0
 10 11  1  0
 11 12  2  0
 12 13  1  0
 13 14  2  0
 15 16  1  0
 16 17  1  0
 16 27  2  0
 17 18  1  0
 17 26  1  0
 18 19  1  0
 19 20  2  0
 19 23  1  0
 20 21  1  0
 21 22  1  0
 22 23  2  0
 23 24  1  0
 24 25  1  6
 24 26  1  0
M  END
