
     RDKit          3D

 27 30  0  0  0  0  0  0  0  0999 V2000
   -1.2100    2.0730    2.8050 C   0  0  0  0  0  0  0  0  0  0  0  0
   -1.4030    2.4780    1.5960 N   0  0  0  0  0  0  0  0  0  0  0  0
   -2.2140    1.7510    0.7130 C   0  0  0  0  0  0  0  0  0  0  0  0
   -3.3510    2.3910    0.4240 C   0  0  0  0  0  0  0  0  0  0  0  0
   -4.5140    2.1310   -0.3950 C   0  0  0  0  0  0  0  0  0  0  0  0
   -5.0200    0.9930   -0.8750 C   0  0  0  0  0  0  0  0  0  0  0  0
   -4.6620   -0.4230   -0.8050 C   0  0  0  0  0  0  0  0  0  0  0  0
   -3.5170   -1.0730   -0.5500 C   0  0  0  0  0  0  0  0  0  0  0  0
   -4.1220   -2.4060   -0.6970 C   0  0  0  0  0  0  0  0  0  0  0  0
   -3.3240   -3.3120   -1.4700 N   0  0  0  0  0  0  0  0  0  0  0  0
   -1.9260   -3.5840   -1.3610 C   0  0  0  0  0  0  0  0  0  0  0  0
   -0.9720   -2.8480   -0.9240 N   0  0  0  0  0  0  0  0  0  0  0  0
   -1.0760   -1.5230   -0.4180 C   0  0  0  0  0  0  0  0  0  0  0  0
    0.0640   -0.8400   -0.0080 C   0  0  0  0  0  0  0  0  0  0  0  0
    1.4410   -1.3830   -0.0460 C   0  0  0  0  0  0  0  0  0  0  0  0
    2.4120   -0.4460    0.4420 N   0  0  0  0  0  0  0  0  0  0  0  0
    2.3180    0.0470    1.7870 C   0  0  0  0  0  0  0  0  0  0  0  0
    3.4530   -0.0140   -0.4010 C   0  0  0  0  0  0  0  0  0  0  0  0
    4.4220    0.8890    0.0060 C   0  0  0  0  0  0  0  0  0  0  0  0
    5.3850    1.2410   -0.8880 C   0  0  0  0  0  0  0  0  0  0  0  0
    6.4380    2.2090   -0.4750 C   0  0  0  0  0  0  0  0  0  0  0  0
    5.4220    0.7500   -2.1270 N   0  0  0  0  0  0  0  0  0  0  0  0
    4.4860   -0.1280   -2.5360 C   0  0  0  0  0  0  0  0  0  0  0  0
    3.5460   -0.4710   -1.6620 N   0  0  0  0  0  0  0  0  0  0  0  0
   -0.3470    0.3500    0.4050 N   0  0  0  0  0  0  0  0  0  0  0  0
   -1.6860    0.4520    0.2750 C   0  0  0  0  0  0  0  0  0  0  0  0
   -2.1650   -0.7140   -0.2400 N   0  0  0  0  0  0  0  0  0  0  0  0
  1  2  2  0
  2  3  1  0
  3  4  2  0
  3 26  1  0
  4  5  1  0
  5  6  2  0
  6  7  1  0
  7  8  2  0
  8  9  1  0
  8 27  1  0
  9 10  1  0
 10 11  1  0
 11 12  2  0
 12 13  1  0
 13 14  2  0
 13 27  1  0
 14 15  1  0
 14 25  1  0
 15 16  1  0
 16 17  1  0
 16 18  1  0
 18 19  2  0
 18 24  1  0
 19 20  1  0
 20 21  1  0
 20 22  2  0
 22 23  1  0
 23 24  2  0
 25 26  2  0
 26 27  1  0
M  END
