
     RDKit          3D

 27 30  0  0  0  0  0  0  0  0999 V2000
    7.5190   -1.1940    0.7950 C   0  0  0  0  0  0  0  0  0  0  0  0
    7.1880   -0.4580   -0.4220 N   0  0  0  0  0  0  0  0  0  0  0  0
    7.5630    0.9640   -0.4570 C   0  0  0  0  0  0  0  0  0  0  0  0
    6.5930   -1.0420   -1.4590 N   0  0  0  0  0  0  0  0  0  0  0  0
    5.4520   -1.2730   -1.9090 C   0  0  0  0  0  0  0  0  0  0  0  0
    4.2030   -0.8950   -1.3060 C   0  0  0  0  0  0  0  0  0  0  0  0
    4.1240   -0.2100   -0.1230 C   0  0  0  0  0  0  0  0  0  0  0  0
    2.9050    0.1560    0.4590 C   0  0  0  0  0  0  0  0  0  0  0  0
    1.7540   -0.1890   -0.1870 C   0  0  0  0  0  0  0  0  0  0  0  0
    0.4730    0.1780    0.3940 C   0  0  0  0  0  0  0  0  0  0  0  0
    0.2710    0.8570    1.5610 C   0  0  0  0  0  0  0  0  0  0  0  0
   -1.0880    0.9980    1.7480 C   0  0  0  0  0  0  0  0  0  0  0  0
   -1.6870    0.4100    0.7030 N   0  0  0  0  0  0  0  0  0  0  0  0
   -3.1020    0.3330    0.5100 C   0  0  0  0  0  0  0  0  0  0  0  0
   -3.9690    0.8770    1.4210 C   0  0  0  0  0  0  0  0  0  0  0  0
   -5.3210    0.7710    1.1790 C   0  0  0  0  0  0  0  0  0  0  0  0
   -5.8200    0.1410    0.0590 C   0  0  0  0  0  0  0  0  0  0  0  0
   -7.2300    0.0750   -0.1150 N   0  0  0  0  0  0  0  0  0  0  0  0
   -7.8550    0.0980   -1.3060 C   0  0  0  0  0  0  0  0  0  0  0  0
   -9.2190    0.0170   -1.1050 C   0  0  0  0  0  0  0  0  0  0  0  0
   -9.3920   -0.0560    0.2600 C   0  0  0  0  0  0  0  0  0  0  0  0
   -8.1760   -0.0180    0.8050 N   0  0  0  0  0  0  0  0  0  0  0  0
   -4.9320   -0.3770   -0.8050 N   0  0  0  0  0  0  0  0  0  0  0  0
   -3.6010   -0.2980   -0.6110 C   0  0  0  0  0  0  0  0  0  0  0  0
   -0.7680   -0.0720   -0.0930 N   0  0  0  0  0  0  0  0  0  0  0  0
    1.8390   -0.8720   -1.3670 C   0  0  0  0  0  0  0  0  0  0  0  0
    3.0110   -1.1990   -1.8840 N   0  0  0  0  0  0  0  0  0  0  0  0
  1  2  1  0
  2  3  1  0
  2  4  1  0
  4  5  2  3
  5  6  1  0
  6  7  2  0
  6 27  1  0
  7  8  1  0
  8  9  2  0
  9 10  1  0
  9 26  1  0
 10 11  1  0
 10 25  2  0
 11 12  2  0
 12 13  1  0
 13 14  1  0
 13 25  1  0
 14 15  2  0
 14 24  1  0
 15 16  1  0
 16 17  2  0
 17 18  1  0
 17 23  1  0
 18 19  1  0
 18 22  1  0
 19 20  2  0
 20 21  1  0
 21 22  2  0
 23 24  2  0
 26 27  2  0
M  END
