
     RDKit          3D

 27 30  0  0  0  0  0  0  0  0999 V2000
    6.3530    1.3830    1.5310 C   0  0  0  0  0  0  0  0  0  0  0  0
    5.4660    0.3590    0.9130 C   0  0  0  0  0  0  0  0  0  0  0  0
    4.1870    0.4600    0.4660 C   0  0  0  0  0  0  0  0  0  0  0  0
    3.8150   -0.7370   -0.0080 N   0  0  0  0  0  0  0  0  0  0  0  0
    2.5510   -1.1200   -0.5900 C   0  0  0  0  0  0  0  0  0  0  0  0
    1.5650   -1.6190    0.4800 C   0  0  0  0  0  0  0  0  0  0  0  0
    0.3180   -1.9990   -0.1180 N   0  0  0  0  0  0  0  0  0  0  0  0
    0.0030   -3.2490   -0.5710 C   0  0  0  0  0  0  0  0  0  0  0  0
   -1.2530   -3.2110   -1.0640 N   0  0  0  0  0  0  0  0  0  0  0  0
   -1.7000   -1.9270   -0.9080 C   0  0  0  0  0  0  0  0  0  0  0  0
   -3.0060   -1.4220   -1.2980 C   0  0  0  0  0  0  0  0  0  0  0  0
   -3.4550   -1.3750   -2.5970 C   0  0  0  0  0  0  0  0  0  0  0  0
   -4.7040   -0.8520   -2.5850 N   0  0  0  0  0  0  0  0  0  0  0  0
   -5.0370   -0.5800   -1.3450 N   0  0  0  0  0  0  0  0  0  0  0  0
   -6.3120   -0.0070   -0.9580 C   0  0  0  0  0  0  0  0  0  0  0  0
   -4.0140   -0.9160   -0.5040 C   0  0  0  0  0  0  0  0  0  0  0  0
   -0.7160   -1.1790   -0.3190 C   0  0  0  0  0  0  0  0  0  0  0  0
   -0.7670    0.2360    0.0100 C   0  0  0  0  0  0  0  0  0  0  0  0
   -0.8170    1.1790   -0.9930 C   0  0  0  0  0  0  0  0  0  0  0  0
   -0.8660    2.5080   -0.6780 C   0  0  0  0  0  0  0  0  0  0  0  0
   -0.8670    2.9550    0.6260 C   0  0  0  0  0  0  0  0  0  0  0  0
   -0.9140    4.3600    0.8750 C   0  0  0  0  0  0  0  0  0  0  0  0
   -0.9430    5.5110    1.0970 N   0  0  0  0  0  0  0  0  0  0  0  0
   -0.8180    2.0240    1.6640 C   0  0  0  0  0  0  0  0  0  0  0  0
   -0.7690    0.6910    1.3070 C   0  0  0  0  0  0  0  0  0  0  0  0
    4.8480   -1.5830    0.1390 N   0  0  0  0  0  0  0  0  0  0  0  0
    5.8360   -0.9090    0.6950 N   0  0  0  0  0  0  0  0  0  0  0  0
  1  2  1  0
  2  3  2  0
  2 27  1  0
  3  4  1  0
  4  5  1  0
  4 26  1  0
  5  6  1  0
  6  7  1  0
  7  8  1  0
  7 17  1  0
  8  9  2  0
  9 10  1  0
 10 11  1  0
 10 17  2  0
 11 12  1  0
 11 16  2  0
 12 13  2  0
 13 14  1  0
 14 15  1  0
 14 16  1  0
 17 18  1  0
 18 19  2  0
 18 25  1  0
 19 20  1  0
 20 21  2  0
 21 22  1  0
 21 24  1  0
 22 23  3  0
 24 25  2  0
 26 27  2  0
M  END
