
     RDKit          3D

 27 30  0  0  0  0  0  0  0  0999 V2000
   -3.3720   -1.0290   -2.4240 C   0  0  0  0  0  0  0  0  0  0  0  0
   -3.2340   -1.7450   -1.1350 C   0  0  0  0  0  0  0  0  0  0  0  0
   -4.1780   -2.6060   -0.6280 N   0  0  0  0  0  0  0  0  0  0  0  0
   -3.7120   -3.1250    0.4930 N   0  0  0  0  0  0  0  0  0  0  0  0
   -4.4590   -4.0790    1.2910 C   0  0  0  0  0  0  0  0  0  0  0  0
   -2.4910   -2.6240    0.7290 C   0  0  0  0  0  0  0  0  0  0  0  0
   -2.1450   -1.7310   -0.2930 C   0  0  0  0  0  0  0  0  0  0  0  0
   -0.9240   -0.9560   -0.3130 C   0  0  0  0  0  0  0  0  0  0  0  0
   -0.6290    0.2410   -1.0900 C   0  0  0  0  0  0  0  0  0  0  0  0
   -1.1980    1.4860   -0.5660 C   0  0  0  0  0  0  0  0  0  0  0  0
   -0.4240    2.5470   -0.2530 C   0  0  0  0  0  0  0  0  0  0  0  0
   -1.2470    3.6480    0.2480 C   0  0  0  0  0  0  0  0  0  0  0  0
   -2.6120    3.1220    0.2170 C   0  0  0  0  0  0  0  0  0  0  0  0
   -2.5460    1.8820   -0.2560 C   0  0  0  0  0  0  0  0  0  0  0  0
   -0.0140   -1.2990    0.5700 N   0  0  0  0  0  0  0  0  0  0  0  0
    1.2140   -0.6270    0.6550 C   0  0  0  0  0  0  0  0  0  0  0  0
    2.3320   -0.7700   -0.0950 N   0  0  0  0  0  0  0  0  0  0  0  0
    3.2920    0.0750    0.3220 C   0  0  0  0  0  0  0  0  0  0  0  0
    4.6390    0.2580   -0.1930 C   0  0  0  0  0  0  0  0  0  0  0  0
    5.4770    1.1860    0.3780 C   0  0  0  0  0  0  0  0  0  0  0  0
    6.7220    1.4200   -0.0250 N   0  0  0  0  0  0  0  0  0  0  0  0
    7.2070    0.7130   -1.0560 C   0  0  0  0  0  0  0  0  0  0  0  0
    6.3900   -0.2370   -1.6630 C   0  0  0  0  0  0  0  0  0  0  0  0
    5.1180   -0.4560   -1.2280 N   0  0  0  0  0  0  0  0  0  0  0  0
    2.7400    0.7430    1.3450 N   0  0  0  0  0  0  0  0  0  0  0  0
    1.5000    0.3350    1.5560 N   0  0  0  0  0  0  0  0  0  0  0  0
    0.5650    0.8160    2.5780 C   0  0  0  0  0  0  0  0  0  0  0  0
  1  2  1  0
  2  3  2  0
  2  7  1  0
  3  4  1  0
  4  5  1  0
  4  6  1  0
  6  7  2  0
  7  8  1  0
  8  9  1  0
  8 15  2  3
  9 10  1  0
 10 11  2  0
 10 14  1  0
 11 12  1  0
 12 13  1  0
 13 14  2  0
 15 16  1  0
 16 17  2  0
 16 26  1  0
 17 18  1  0
 18 19  1  0
 18 25  2  0
 19 20  2  0
 19 24  1  0
 20 21  1  0
 21 22  2  0
 22 23  1  0
 23 24  2  0
 25 26  1  0
 26 27  1  0
M  END
