
     RDKit          3D

 27 30  0  0  0  0  0  0  0  0999 V2000
    8.5020    2.3090   -0.1940 C   0  0  0  0  0  0  0  0  0  0  0  0
    7.1790    1.6390   -0.2250 C   0  0  0  0  0  0  0  0  0  0  0  0
    7.0890    0.2800   -0.3650 C   0  0  0  0  0  0  0  0  0  0  0  0
    5.8540   -0.3950   -0.3960 C   0  0  0  0  0  0  0  0  0  0  0  0
    4.7090    0.3180   -0.2840 C   0  0  0  0  0  0  0  0  0  0  0  0
    3.3630   -0.2440   -0.2790 C   0  0  0  0  0  0  0  0  0  0  0  0
    2.2170    0.5190   -0.1740 N   0  0  0  0  0  0  0  0  0  0  0  0
    1.1350   -0.2260   -0.1780 C   0  0  0  0  0  0  0  0  0  0  0  0
   -0.2410    0.3010   -0.0610 C   0  0  0  0  0  0  0  0  0  0  0  0
   -0.4630    1.6490    0.0860 C   0  0  0  0  0  0  0  0  0  0  0  0
   -1.6800    2.1580    0.2170 N   0  0  0  0  0  0  0  0  0  0  0  0
   -2.6980    1.3160    0.2010 N   0  0  0  0  0  0  0  0  0  0  0  0
   -2.5540   -0.0110    0.0610 C   0  0  0  0  0  0  0  0  0  0  0  0
   -3.6920   -0.8550    0.0760 N   0  0  0  0  0  0  0  0  0  0  0  0
   -3.8990   -1.7460    1.1830 C   0  0  0  0  0  0  0  0  0  0  0  0
   -4.6310   -0.8090   -1.0070 C   0  0  0  0  0  0  0  0  0  0  0  0
   -5.9520   -0.2470   -0.5510 C   0  0  0  0  0  0  0  0  0  0  0  0
   -7.0920   -0.9040   -0.6180 C   0  0  0  0  0  0  0  0  0  0  0  0
   -8.1780   -0.0530   -0.0860 C   0  0  0  0  0  0  0  0  0  0  0  0
   -7.4820    1.1940    0.2930 C   0  0  0  0  0  0  0  0  0  0  0  0
   -6.2080    1.0550    0.0180 C   0  0  0  0  0  0  0  0  0  0  0  0
   -1.2990   -0.5210   -0.0730 N   0  0  0  0  0  0  0  0  0  0  0  0
    1.5500   -1.4850   -0.2860 N   0  0  0  0  0  0  0  0  0  0  0  0
    2.9190   -1.4760   -0.3470 N   0  0  0  0  0  0  0  0  0  0  0  0
    3.7010   -2.6950   -0.4660 C   0  0  0  0  0  0  0  0  0  0  0  0
    4.8490    1.7110   -0.1430 C   0  0  0  0  0  0  0  0  0  0  0  0
    6.0250    2.3360   -0.1150 N   0  0  0  0  0  0  0  0  0  0  0  0
  1  2  1  0
  2  3  2  0
  2 27  1  0
  3  4  1  0
  4  5  2  0
  5  6  1  0
  5 26  1  0
  6  7  2  0
  6 24  1  0
  7  8  1  0
  8  9  1  0
  8 23  2  0
  9 10  2  0
  9 22  1  0
 10 11  1  0
 11 12  2  0
 12 13  1  0
 13 14  1  0
 13 22  2  0
 14 15  1  0
 14 16  1  0
 16 17  1  0
 17 18  2  0
 17 21  1  0
 18 19  1  0
 19 20  1  0
 20 21  2  0
 23 24  1  0
 24 25  1  0
 26 27  2  0
M  END
