
     RDKit          3D

 26 28  0  0  0  0  0  0  0  0999 V2000
    8.6470   -1.6580   -1.0630 C   0  0  0  0  0  0  0  0  0  0  0  0
    7.4860   -1.0120   -1.2540 C   0  0  0  0  0  0  0  0  0  0  0  0
    6.6750   -0.6460   -0.1100 C   0  0  0  0  0  0  0  0  0  0  0  0
    5.5360   -0.0230   -0.1490 C   0  0  0  0  0  0  0  0  0  0  0  0
    4.8060    0.2920    1.0950 C   0  0  0  0  0  0  0  0  0  0  0  0
    3.4730    0.3900    0.9830 C   0  0  0  0  0  0  0  0  0  0  0  0
    2.6990    0.6980    2.1600 N   0  0  0  0  0  0  0  0  0  0  0  0
    1.2710    0.5990    2.2310 C   0  0  0  0  0  0  0  0  0  0  0  0
    0.6820    0.6200    0.8750 C   0  0  0  0  0  0  0  0  0  0  0  0
   -0.5620    0.9290    0.7430 N   0  0  0  0  0  0  0  0  0  0  0  0
   -1.3550    1.2360    1.8030 N   0  0  0  0  0  0  0  0  0  0  0  0
   -2.5770    1.1550    1.9020 C   0  0  0  0  0  0  0  0  0  0  0  0
   -3.5300    0.7030    0.9010 C   0  0  0  0  0  0  0  0  0  0  0  0
   -3.1870    0.2820   -0.3560 C   0  0  0  0  0  0  0  0  0  0  0  0
   -4.1750   -0.1380   -1.2570 C   0  0  0  0  0  0  0  0  0  0  0  0
   -5.5130   -0.1460   -0.9280 C   0  0  0  0  0  0  0  0  0  0  0  0
   -6.4450   -0.5730   -1.8630 O   0  0  0  0  0  0  0  0  0  0  0  0
   -6.0400   -0.9920   -3.1330 C   0  0  0  0  0  0  0  0  0  0  0  0
   -5.8790    0.2740    0.3330 C   0  0  0  0  0  0  0  0  0  0  0  0
   -7.2290    0.2590    0.6480 O   0  0  0  0  0  0  0  0  0  0  0  0
   -7.7310    0.6650    1.9050 C   0  0  0  0  0  0  0  0  0  0  0  0
   -4.8990    0.6780    1.1920 C   0  0  0  0  0  0  0  0  0  0  0  0
    1.4450    0.3080   -0.3210 C   0  0  0  0  0  0  0  0  0  0  0  0
    2.7690    0.1990   -0.2690 C   0  0  0  0  0  0  0  0  0  0  0  0
    3.5180   -0.1360   -1.4940 C   0  0  0  0  0  0  0  0  0  0  0  0
    4.9060    0.4080   -1.4160 C   0  0  0  0  0  0  0  0  0  0  0  0
  1  2  2  0
  2  3  1  0
  3  4  2  3
  4  5  1  0
  4 26  1  0
  5  6  2  0
  6  7  1  0
  6 24  1  0
  7  8  1  0
  8  9  1  0
  9 10  2  3
  9 23  1  0
 10 11  1  0
 11 12  2  3
 12 13  1  0
 13 14  2  0
 13 22  1  0
 14 15  1  0
 15 16  2  0
 16 17  1  0
 16 19  1  0
 17 18  1  0
 19 20  1  0
 19 22  2  0
 20 21  1  0
 23 24  2  0
 24 25  1  0
 25 26  1  0
M  END
