
     RDKit          3D

 26 29  0  0  0  0  0  0  0  0999 V2000
   -5.3240   -2.4610    0.1630 C   0  0  0  0  0  0  0  0  0  0  0  0
   -5.5630   -0.9960    0.5290 C   0  0  2  0  0  0  0  0  0  0  0  0
   -6.1450   -0.3300   -0.6760 C   0  0  0  0  0  0  0  0  0  0  0  0
   -5.0650    0.4020   -1.4600 C   0  0  0  0  0  0  0  0  0  0  0  0
   -4.4530    1.3740   -0.5000 C   0  0  0  0  0  0  0  0  0  0  0  0
   -4.1120    0.9450    0.7270 C   0  0  0  0  0  0  0  0  0  0  0  0
   -3.4990    1.8640    1.7270 C   0  0  0  0  0  0  0  0  0  0  0  0
   -2.1130    1.3500    2.1370 C   0  0  0  0  0  0  0  0  0  0  0  0
   -1.2950    1.3110    0.8650 C   0  0  0  0  0  0  0  0  0  0  0  0
    0.0310    0.8420    1.1290 O   0  0  0  0  0  0  0  0  0  0  0  0
    0.9040    0.7500    0.0540 C   0  0  0  0  0  0  0  0  0  0  0  0
    0.5430    1.0910   -1.2400 C   0  0  0  0  0  0  0  0  0  0  0  0
    1.4100    1.0010   -2.3080 C   0  0  0  0  0  0  0  0  0  0  0  0
    2.6980    0.5490   -2.0730 C   0  0  0  0  0  0  0  0  0  0  0  0
    3.1040    0.1970   -0.8020 C   0  0  0  0  0  0  0  0  0  0  0  0
    4.4750   -0.2810   -0.5690 C   0  0  0  0  0  0  0  0  0  0  0  0
    5.4400   -0.4190   -1.5440 C   0  0  0  0  0  0  0  0  0  0  0  0
    6.5680   -0.8860   -0.9340 C   0  0  0  0  0  0  0  0  0  0  0  0
    7.7720   -1.1850   -1.4200 N   0  0  0  0  0  0  0  0  0  0  0  0
    8.7400   -1.6350   -0.6110 C   0  0  0  0  0  0  0  0  0  0  0  0
    8.4280   -1.7690    0.7270 C   0  0  0  0  0  0  0  0  0  0  0  0
    7.2160   -1.4700    1.2270 N   0  0  0  0  0  0  0  0  0  0  0  0
    6.2650   -1.0200    0.3930 C   0  0  0  0  0  0  0  0  0  0  0  0
    4.9840   -0.6490    0.6080 N   0  0  0  0  0  0  0  0  0  0  0  0
    2.1990    0.3060    0.2320 C   0  0  0  0  0  0  0  0  0  0  0  0
   -4.3690   -0.3910    0.9880 O   0  0  0  0  0  0  0  0  0  0  0  0
  2  1  1  6
  2  3  1  0
  2 26  1  0
  3  4  1  0
  4  5  1  0
  5  6  2  0
  6  7  1  0
  6 26  1  0
  7  8  1  0
  8  9  1  0
  9 10  1  0
 10 11  1  0
 11 12  2  0
 11 25  1  0
 12 13  1  0
 13 14  2  0
 14 15  1  0
 15 16  1  0
 15 25  2  0
 16 17  2  0
 16 24  1  0
 17 18  1  0
 18 19  2  0
 18 23  1  0
 19 20  1  0
 20 21  2  0
 21 22  1  0
 22 23  2  0
 23 24  1  0
M  END
