
     RDKit          3D

 26 29  0  0  0  0  0  0  0  0999 V2000
   -5.9690    1.6620   -0.2770 C   0  0  0  0  0  0  0  0  0  0  0  0
   -6.6040    0.3010   -0.2170 C   0  0  0  0  0  0  0  0  0  0  0  0
   -6.0230   -0.6620   -1.0310 O   0  0  0  0  0  0  0  0  0  0  0  0
   -4.7230   -1.1130   -0.9720 C   0  0  0  0  0  0  0  0  0  0  0  0
   -4.2510   -2.0900   -1.8550 C   0  0  0  0  0  0  0  0  0  0  0  0
   -2.9450   -2.5140   -1.7630 C   0  0  0  0  0  0  0  0  0  0  0  0
   -2.0800   -2.0010   -0.8200 C   0  0  0  0  0  0  0  0  0  0  0  0
   -2.5150   -1.0380    0.0640 C   0  0  0  0  0  0  0  0  0  0  0  0
   -1.7000   -0.4220    1.1120 C   0  0  0  0  0  0  0  0  0  0  0  0
   -0.8770    0.6760    0.7330 N   0  0  0  0  0  0  0  0  0  0  0  0
   -1.3350    1.9320    0.7480 C   0  0  0  0  0  0  0  0  0  0  0  0
   -2.5060    2.1420    1.1020 O   0  0  0  0  0  0  0  0  0  0  0  0
   -0.5070    2.9990    0.3730 C   0  0  0  0  0  0  0  0  0  0  0  0
    0.7950    2.7980   -0.0220 C   0  0  0  0  0  0  0  0  0  0  0  0
    1.2560    1.5040   -0.0340 C   0  0  0  0  0  0  0  0  0  0  0  0
    2.5030    0.9940   -0.3690 C   0  0  0  0  0  0  0  0  0  0  0  0
    2.4280   -0.3340   -0.2000 N   0  0  0  0  0  0  0  0  0  0  0  0
    3.4880   -1.2580   -0.4310 C   0  0  0  0  0  0  0  0  0  0  0  0
    4.7290   -1.0310   -0.0610 C   0  0  0  0  0  0  0  0  0  0  0  0
    5.2770    0.1690    0.6410 C   0  0  0  0  0  0  0  0  0  0  0  0
    6.4480   -0.4540    1.3940 C   0  0  0  0  0  0  0  0  0  0  0  0
    7.0370   -1.3450    0.2990 C   0  0  0  0  0  0  0  0  0  0  0  0
    5.8170   -1.9160   -0.2670 N   0  0  0  0  0  0  0  0  0  0  0  0
    1.1720   -0.6610    0.2300 C   0  0  0  0  0  0  0  0  0  0  0  0
    0.4100    0.4670    0.3440 C   0  0  0  0  0  0  0  0  0  0  0  0
   -3.8300   -0.6290   -0.0480 C   0  0  0  0  0  0  0  0  0  0  0  0
  1  2  1  0
  2  3  1  0
  3  4  1  0
  4  5  2  0
  4 26  1  0
  5  6  1  0
  6  7  2  0
  7  8  1  0
  8  9  1  0
  8 26  2  0
  9 10  1  0
 10 11  1  0
 10 25  1  0
 11 12  2  0
 11 13  1  0
 13 14  2  0
 14 15  1  0
 15 16  2  0
 15 25  1  0
 16 17  1  0
 17 18  1  0
 17 24  1  0
 18 19  2  3
 19 20  1  0
 19 23  1  0
 20 21  1  0
 21 22  1  0
 22 23  1  0
 24 25  2  0
M  END
