
     RDKit          3D

 26 28  0  0  0  0  0  0  0  0999 V2000
    7.1840    2.8530   -0.4930 C   0  0  0  0  0  0  0  0  0  0  0  0
    5.9270    2.0800   -0.2250 C   0  0  0  0  0  0  0  0  0  0  0  0
    5.1010    1.7310   -1.2730 C   0  0  0  0  0  0  0  0  0  0  0  0
    3.9450    1.0210   -1.0360 C   0  0  0  0  0  0  0  0  0  0  0  0
    3.5800    0.6420    0.2290 C   0  0  0  0  0  0  0  0  0  0  0  0
    2.3500   -0.1100    0.4540 C   0  0  0  0  0  0  0  0  0  0  0  0
    1.6040   -0.4180   -0.5490 N   0  0  0  0  0  0  0  0  0  0  0  0
    0.4010   -1.1420   -0.4180 C   0  0  0  0  0  0  0  0  0  0  0  0
   -0.7820   -0.5900   -0.8470 C   0  0  0  0  0  0  0  0  0  0  0  0
   -1.9930   -1.2630   -0.7390 C   0  0  0  0  0  0  0  0  0  0  0  0
   -3.2130   -0.7080   -1.1940 N   0  0  0  0  0  0  0  0  0  0  0  0
   -3.4080    0.6190   -1.7070 C   0  0  0  0  0  0  0  0  0  0  0  0
   -3.2730    1.6980   -0.6900 C   0  0  0  0  0  0  0  0  0  0  0  0
   -4.2290    1.5750    0.3950 N   0  0  0  0  0  0  0  0  0  0  0  0
   -4.0420    2.6530    1.3440 C   0  0  0  0  0  0  0  0  0  0  0  0
   -5.5810    1.4510   -0.0580 C   0  0  0  0  0  0  0  0  0  0  0  0
   -1.9510   -2.5360   -0.1720 C   0  0  0  0  0  0  0  0  0  0  0  0
   -0.7990   -3.1100    0.2610 C   0  0  0  0  0  0  0  0  0  0  0  0
    0.4020   -2.3990    0.1350 C   0  0  0  0  0  0  0  0  0  0  0  0
   -0.8370   -4.3820    0.8150 O   0  0  0  0  0  0  0  0  0  0  0  0
   -2.0800   -4.8430    1.3260 C   0  0  0  0  0  0  0  0  0  0  0  0
   -3.1110   -4.6310    0.2300 C   0  0  0  0  0  0  0  0  0  0  0  0
   -3.1420   -3.2480   -0.0450 O   0  0  0  0  0  0  0  0  0  0  0  0
    4.4010    0.9870    1.2810 C   0  0  0  0  0  0  0  0  0  0  0  0
    4.0110    0.5770    2.6690 C   0  0  0  0  0  0  0  0  0  0  0  0
    5.5620    1.7000    1.0430 C   0  0  0  0  0  0  0  0  0  0  0  0
  1  2  1  0
  2  3  2  0
  2 26  1  0
  3  4  1  0
  4  5  2  0
  5  6  1  0
  5 24  1  0
  6  7  2  3
  7  8  1  0
  8  9  2  0
  8 19  1  0
  9 10  1  0
 10 11  1  0
 10 17  2  0
 11 12  1  0
 12 13  1  0
 13 14  1  0
 14 15  1  0
 14 16  1  0
 17 18  1  0
 17 23  1  0
 18 19  2  0
 18 20  1  0
 20 21  1  0
 21 22  1  0
 22 23  1  0
 24 25  1  0
 24 26  2  0
M  END
