
     RDKit          3D

 36 38  0  0  0  0  0  0  0  0999 V2000
   -2.7160   -2.1850   -2.6060 C   0  0  0  0  0  0  0  0  0  0  0  0
   -3.0240   -0.9180   -1.7700 C   0  0  2  0  0  0  0  0  0  0  0  0
   -2.9480    0.2210   -2.7810 C   0  0  0  0  0  0  0  0  0  0  0  0
   -1.9190   -0.8400   -0.7730 C   0  0  0  0  0  0  0  0  0  0  0  0
   -0.6610   -0.7340   -1.4870 N   0  0  0  0  0  0  0  0  0  0  0  0
    0.5840   -0.6420   -0.7910 C   0  0  0  0  0  0  0  0  0  0  0  0
    0.5420   -0.6560    0.4530 O   0  0  0  0  0  0  0  0  0  0  0  0
    1.7710   -0.5410   -1.5570 N   0  0  0  0  0  0  0  0  0  0  0  0
    3.0470   -0.4460   -0.8880 C   0  0  0  0  0  0  0  0  0  0  0  0
    3.3310   -1.6410   -0.0280 C   0  0  0  0  0  0  0  0  0  0  0  0
    4.3320   -1.5830    0.8490 N   0  0  0  0  0  0  0  0  0  0  0  0
    4.6930   -2.5710    1.6710 C   0  0  0  0  0  0  0  0  0  0  0  0
    5.7660   -2.5270    2.6230 C   0  0  0  0  0  0  0  0  0  0  0  0
    6.0010   -4.0280    3.5870 Cl  0  0  0  0  0  0  0  0  0  0  0  0
    6.5800   -1.5740    2.8860 C   0  0  0  0  0  0  0  0  0  0  0  0
    6.6620   -0.2600    2.3030 C   0  0  0  0  0  0  0  0  0  0  0  0
    7.5810    0.5640    2.7290 O   0  0  0  0  0  0  0  0  0  0  0  0
    5.8520    0.2380    1.3150 O   0  0  0  0  0  0  0  0  0  0  0  0
    6.0070    1.5150    0.8170 C   0  0  0  0  0  0  0  0  0  0  0  0
    5.3170    2.5730    1.3700 C   0  0  0  0  0  0  0  0  0  0  0  0
    5.5080    3.8480    0.8300 C   0  0  0  0  0  0  0  0  0  0  0  0
    6.3640    4.0620   -0.2340 C   0  0  0  0  0  0  0  0  0  0  0  0
    7.0390    2.9680   -0.7600 C   0  0  0  0  0  0  0  0  0  0  0  0
    6.8780    1.6990   -0.2570 C   0  0  0  0  0  0  0  0  0  0  0  0
    7.7630    0.3660   -0.9720 Cl  0  0  0  0  0  0  0  0  0  0  0  0
    3.8980   -3.7310    1.5300 C   0  0  0  0  0  0  0  0  0  0  0  0
    2.8710   -3.7880    0.6290 C   0  0  0  0  0  0  0  0  0  0  0  0
    2.5990   -2.7350   -0.1450 N   0  0  0  0  0  0  0  0  0  0  0  0
   -4.3770   -1.1450   -1.2430 C   0  0  0  0  0  0  0  0  0  0  0  0
   -5.0270   -0.2100   -0.4330 N   0  0  2  0  0  0  0  0  0  0  0  0
   -5.5120    0.9840   -1.0900 C   0  0  0  0  0  0  0  0  0  0  0  0
   -6.6460    1.5260   -0.2410 C   0  0  0  0  0  0  0  0  0  0  0  0
   -6.3210    1.6710    1.2030 C   0  0  2  0  0  0  0  0  0  0  0  0
   -5.6480    2.9740    1.5310 C   0  0  0  0  0  0  0  0  0  0  0  0
   -5.5170    0.5250    1.7820 C   0  0  0  0  0  0  0  0  0  0  0  0
   -4.3840    0.1840    0.7920 C   0  0  0  0  0  0  0  0  0  0  0  0
  2  1  1  6
  2  3  1  0
  2  4  1  0
  2 29  1  0
  4  5  1  0
  5  6  1  0
  6  7  2  0
  6  8  1  0
  8  9  1  0
  9 10  1  0
 10 11  2  0
 10 28  1  0
 11 12  1  0
 12 13  1  0
 12 26  2  0
 13 14  1  0
 13 15  2  3
 15 16  1  0
 16 17  2  0
 16 18  1  0
 18 19  1  0
 19 20  2  0
 19 24  1  0
 20 21  1  0
 21 22  2  0
 22 23  1  0
 23 24  2  0
 24 25  1  0
 26 27  1  0
 27 28  2  0
 30 29  1  6
 30 31  1  0
 30 36  1  0
 31 32  1  0
 32 33  1  0
 33 34  1  6
 33 35  1  0
 35 36  1  0
M  CHG  2  28   1  30   1
M  END
