
     RDKit          3D

 36 40  0  0  0  0  0  0  0  0999 V2000
    8.9750    0.0390   -0.0580 C   0  0  0  0  0  0  0  0  0  0  0  0
    7.5940    0.2180   -0.6300 C   0  0  0  0  0  0  0  0  0  0  0  0
    7.1250   -0.9570   -1.2760 N   0  0  0  0  0  0  0  0  0  0  0  0
    8.0760   -1.6750   -2.0620 C   0  0  0  0  0  0  0  0  0  0  0  0
    6.1390   -1.9580   -0.3030 S   0  0  2  0  0  0  0  0  0  0  0  0
    6.5610   -1.8090    1.1230 O   0  0  0  0  0  0  0  0  0  0  0  0
    6.4170   -3.4210   -0.6570 O   0  0  0  0  0  0  0  0  0  0  0  0
    4.4760   -1.6410   -0.4580 N   0  0  0  0  0  0  0  0  0  0  0  0
    3.6600   -0.8000    0.3280 C   0  0  0  0  0  0  0  0  0  0  0  0
    4.0760   -0.1940    1.5090 C   0  0  0  0  0  0  0  0  0  0  0  0
    3.2170    0.6040    2.2660 C   0  0  0  0  0  0  0  0  0  0  0  0
    1.9150    0.8210    1.8670 C   0  0  0  0  0  0  0  0  0  0  0  0
    1.0510    1.5800    2.5820 F   0  0  0  0  0  0  0  0  0  0  0  0
    1.4840    0.2330    0.7030 C   0  0  0  0  0  0  0  0  0  0  0  0
    0.0950    0.4280    0.2380 C   0  0  0  0  0  0  0  0  0  0  0  0
   -0.5310   -0.5600   -0.2420 O   0  0  0  0  0  0  0  0  0  0  0  0
   -0.5670    1.7130    0.3180 C   0  0  0  0  0  0  0  0  0  0  0  0
   -0.0900    2.9950    0.4460 C   0  0  0  0  0  0  0  0  0  0  0  0
   -1.1040    3.8750    0.4830 N   0  0  0  0  0  0  0  0  0  0  0  0
   -2.2840    3.2120    0.3800 C   0  0  0  0  0  0  0  0  0  0  0  0
   -3.5700    3.6180    0.3670 N   0  0  0  0  0  0  0  0  0  0  0  0
   -4.5410    2.7130    0.2520 C   0  0  0  0  0  0  0  0  0  0  0  0
   -4.3110    1.3650    0.1450 C   0  0  0  0  0  0  0  0  0  0  0  0
   -5.3600    0.3600    0.0370 C   0  0  0  0  0  0  0  0  0  0  0  0
   -6.5510    0.6580   -0.5840 C   0  0  0  0  0  0  0  0  0  0  0  0
   -7.5080   -0.2740   -0.6770 N   0  0  0  0  0  0  0  0  0  0  0  0
   -7.3550   -1.5110   -0.1820 C   0  0  0  0  0  0  0  0  0  0  0  0
   -8.4460   -2.5410   -0.2740 C   0  0  2  0  0  0  0  0  0  0  0  0
   -9.4940   -2.3640   -1.2770 C   0  0  0  0  0  0  0  0  0  0  0  0
   -9.8070   -2.1590    0.1930 C   0  0  0  0  0  0  0  0  0  0  0  0
   -6.1880   -1.7960    0.4230 N   0  0  0  0  0  0  0  0  0  0  0  0
   -5.1960   -0.9130    0.5480 C   0  0  0  0  0  0  0  0  0  0  0  0
   -2.9750    0.9530    0.1600 C   0  0  0  0  0  0  0  0  0  0  0  0
   -1.9630    1.8710    0.2770 C   0  0  0  0  0  0  0  0  0  0  0  0
    2.3380   -0.5530   -0.0380 C   0  0  0  0  0  0  0  0  0  0  0  0
    1.8880   -1.1240   -1.1810 F   0  0  0  0  0  0  0  0  0  0  0  0
  1  2  1  0
  2  3  1  0
  3  4  1  0
  3  5  1  0
  5  6  2  0
  5  7  2  0
  5  8  1  1
  8  9  1  0
  9 10  2  0
  9 35  1  0
 10 11  1  0
 11 12  2  0
 12 13  1  0
 12 14  1  0
 14 15  1  0
 14 35  2  0
 15 16  2  0
 15 17  1  0
 17 18  2  0
 17 34  1  0
 18 19  1  0
 19 20  1  0
 20 21  2  0
 20 34  1  0
 21 22  1  0
 22 23  2  0
 23 24  1  0
 23 33  1  0
 24 25  2  0
 24 32  1  0
 25 26  1  0
 26 27  2  0
 28 27  1  6
 27 31  1  0
 28 29  1  0
 28 30  1  0
 29 30  1  0
 31 32  2  0
 33 34  2  0
 35 36  1  0
M  END
