
     RDKit          3D

 36 39  0  0  0  0  0  0  0  0999 V2000
    3.4720   -3.3150    1.1150 C   0  0  0  0  0  0  0  0  0  0  0  0
    3.8050   -1.8470    1.1330 C   0  0  0  0  0  0  0  0  0  0  0  0
    3.1700   -1.0570    0.3390 C   0  0  0  0  0  0  0  0  0  0  0  0
    2.1400   -1.5840   -0.5590 C   0  0  0  0  0  0  0  0  0  0  0  0
    1.0790   -0.9680   -0.9680 C   0  0  0  0  0  0  0  0  0  0  0  0
   -0.1070   -1.4930   -0.8450 C   0  0  0  0  0  0  0  0  0  0  0  0
   -0.5710   -1.9850    0.5130 C   0  0  0  0  0  0  0  0  0  0  0  0
   -1.6850   -1.4260    1.0350 N   0  0  0  0  0  0  0  0  0  0  0  0
   -2.8500   -1.0790    1.1200 C   0  0  0  0  0  0  0  0  0  0  0  0
   -3.5240   -0.3510    2.1850 N   0  0  0  0  0  0  0  0  0  0  0  0
   -4.7070   -1.0880    2.7220 C   0  0  0  0  0  0  0  0  0  0  0  0
   -3.1670    0.8870    2.7010 N   0  0  0  0  0  0  0  0  0  0  0  0
   -3.0290    2.1370    1.9570 C   0  0  0  0  0  0  0  0  0  0  0  0
   -2.8220    3.1320    2.7660 O   0  0  0  0  0  0  0  0  0  0  0  0
   -3.1330    2.1120    0.4970 C   0  0  0  0  0  0  0  0  0  0  0  0
   -4.2650    2.0290   -0.3590 C   0  0  0  0  0  0  0  0  0  0  0  0
   -3.7410    1.9170   -1.6090 C   0  0  0  0  0  0  0  0  0  0  0  0
   -2.4050    1.9370   -1.4790 N   0  0  0  0  0  0  0  0  0  0  0  0
   -2.0530    2.0470   -0.2750 N   0  0  0  0  0  0  0  0  0  0  0  0
   -0.6060    1.9630    0.0680 C   0  0  0  0  0  0  0  0  0  0  0  0
    0.3240    2.2940   -0.8740 C   0  0  0  0  0  0  0  0  0  0  0  0
    1.6970    1.8900   -0.7430 C   0  0  0  0  0  0  0  0  0  0  0  0
    2.1260    1.1670    0.3250 C   0  0  0  0  0  0  0  0  0  0  0  0
    1.2150    0.8540    1.2900 C   0  0  0  0  0  0  0  0  0  0  0  0
   -0.1590    1.2600    1.1490 C   0  0  0  0  0  0  0  0  0  0  0  0
    3.4620    0.4370    0.3760 C   0  0  1  0  0  0  0  0  0  0  0  0
    4.4390    0.9140    1.2470 N   0  0  0  0  0  0  0  0  0  0  0  0
    5.8030    0.6410    0.9910 C   0  0  0  0  0  0  0  0  0  0  0  0
    6.1890    1.4670   -0.2460 C   0  0  0  0  0  0  0  0  0  0  0  0
   -4.0480    1.7070   -3.0120 C   0  0  0  0  0  0  0  0  0  0  0  0
   -4.6430    2.3690   -3.8940 O   0  0  0  0  0  0  0  0  0  0  0  0
   -3.5470    0.4150   -3.5620 N   0  0  0  0  0  0  0  0  0  0  0  0
   -3.0310   -0.5790   -2.6600 C   0  0  0  0  0  0  0  0  0  0  0  0
   -1.5580   -0.7880   -2.7850 C   0  0  2  0  0  0  0  0  0  0  0  0
   -1.4020   -1.4540   -4.0410 O   0  0  0  0  0  0  0  0  0  0  0  0
   -1.0080   -1.6520   -1.8580 O   0  0  0  0  0  0  0  0  0  0  0  0
  1  2  1  0
  2  3  2  3
  3  4  1  0
  3 26  1  0
  4  5  2  0
  5  6  2  0
  6  7  1  0
  6 36  1  0
  7  8  1  0
  8  9  2  0
  9 10  1  0
 10 11  1  0
 10 12  1  0
 12 13  1  0
 13 14  2  0
 13 15  1  0
 15 16  2  0
 15 19  1  0
 16 17  1  0
 17 18  2  0
 17 30  1  0
 18 19  1  0
 19 20  1  0
 20 21  2  0
 20 25  1  0
 21 22  1  0
 22 23  2  0
 23 24  1  0
 23 26  1  0
 24 25  2  0
 26 27  1  1
 27 28  1  0
 28 29  1  0
 30 31  2  0
 30 32  1  0
 32 33  1  0
 33 34  1  0
 34 35  1  6
 34 36  1  0
M  END
