
     RDKit          3D

 36 39  0  0  0  0  0  0  0  0999 V2000
    4.8320   -3.0880    1.7890 C   0  0  0  0  0  0  0  0  0  0  0  0
    3.5580   -2.7470    1.0500 C   0  0  0  0  0  0  0  0  0  0  0  0
    2.7490   -3.8020    0.7370 C   0  0  0  0  0  0  0  0  0  0  0  0
    1.6000   -3.4790    0.0690 C   0  0  0  0  0  0  0  0  0  0  0  0
    1.2610   -2.1440   -0.2820 C   0  0  0  0  0  0  0  0  0  0  0  0
    2.0960   -1.1020    0.0440 C   0  0  0  0  0  0  0  0  0  0  0  0
    3.2610   -1.3980    0.7200 C   0  0  0  0  0  0  0  0  0  0  0  0
    4.3230   -0.5130    1.2290 C   0  0  0  0  0  0  0  0  0  0  0  0
    4.7720    0.6710    0.7520 C   0  0  0  0  0  0  0  0  0  0  0  0
    4.2100    1.2200   -0.3780 N   0  0  0  0  0  0  0  0  0  0  0  0
    3.7280    2.2060   -0.9230 C   0  0  0  0  0  0  0  0  0  0  0  0
    3.2870    2.0510   -2.2850 O   0  0  0  0  0  0  0  0  0  0  0  0
    3.5060    3.5680   -0.4400 C   0  0  0  0  0  0  0  0  0  0  0  0
    2.9900    3.9380    0.7020 C   0  0  0  0  0  0  0  0  0  0  0  0
    2.5070    3.0650    1.7770 C   0  0  0  0  0  0  0  0  0  0  0  0
    2.9830    3.3070    2.9550 O   0  0  0  0  0  0  0  0  0  0  0  0
    1.5750    1.9990    1.6220 N   0  0  0  0  0  0  0  0  0  0  0  0
    0.2240    2.2180    1.0910 C   0  0  0  0  0  0  0  0  0  0  0  0
    0.1250    2.0470   -0.2470 N   0  0  0  0  0  0  0  0  0  0  0  0
   -0.9880    2.1670   -0.9720 C   0  0  0  0  0  0  0  0  0  0  0  0
   -2.2050    2.4940   -0.3860 C   0  0  0  0  0  0  0  0  0  0  0  0
   -2.0800    2.6650    0.9820 C   0  0  0  0  0  0  0  0  0  0  0  0
   -2.9790    2.9710    1.9000 O   0  0  0  0  0  0  0  0  0  0  0  0
   -0.8940    2.5310    1.7020 N   0  0  0  0  0  0  0  0  0  0  0  0
   -3.4490    2.5800   -1.1900 C   0  0  0  0  0  0  0  0  0  0  0  0
   -3.9730    3.6830   -1.7480 O   0  0  0  0  0  0  0  0  0  0  0  0
   -4.1230    1.2910   -1.3500 N   0  0  0  0  0  0  0  0  0  0  0  0
   -4.0570    0.4300   -2.5010 C   0  0  0  0  0  0  0  0  0  0  0  0
   -4.1880   -1.0110   -2.0630 C   0  0  0  0  0  0  0  0  0  0  0  0
   -3.5900   -1.2340   -0.8300 N   0  0  0  0  0  0  0  0  0  0  0  0
   -4.0640   -0.4710    0.2650 C   0  0  0  0  0  0  0  0  0  0  0  0
   -4.9310    0.6970   -0.2670 C   0  0  0  0  0  0  0  0  0  0  0  0
   -2.4380   -1.9840   -0.6620 C   0  0  2  0  0  0  0  0  0  0  0  0
   -2.4180   -2.6400    0.7080 C   0  0  0  0  0  0  0  0  0  0  0  0
   -1.1480   -1.2850   -0.8470 C   0  0  0  0  0  0  0  0  0  0  0  0
   -0.0110   -2.1630   -0.9600 N   0  0  0  0  0  0  0  0  0  0  0  0
  1  2  1  0
  2  3  2  0
  2  7  1  0
  3  4  1  0
  4  5  2  0
  5  6  1  0
  5 36  1  0
  6  7  2  0
  7  8  1  0
  8  9  2  0
  9 10  1  0
 10 11  2  0
 11 12  1  0
 11 13  1  0
 13 14  2  0
 14 15  1  0
 15 16  2  0
 15 17  1  0
 17 18  1  0
 18 19  2  0
 18 24  1  0
 19 20  1  0
 20 21  2  0
 21 22  1  0
 21 25  1  0
 22 23  2  0
 22 24  1  0
 25 26  2  0
 25 27  1  0
 27 28  1  0
 27 32  1  0
 28 29  1  0
 29 30  1  0
 30 31  1  0
 30 33  1  0
 31 32  1  0
 33 34  1  1
 33 35  1  0
 35 36  1  0
M  END
