
     RDKit          3D

 36 39  0  0  0  0  0  0  0  0999 V2000
    4.5310    1.8080    0.9330 C   0  0  0  0  0  0  0  0  0  0  0  0
    3.5480    1.4500   -0.1950 C   0  0  0  0  0  0  0  0  0  0  0  0
    3.8090    0.0410   -0.4720 C   0  0  0  0  0  0  0  0  0  0  0  0
    3.1470   -0.6230   -1.4310 C   0  0  0  0  0  0  0  0  0  0  0  0
    2.2300    0.0930   -2.1450 C   0  0  0  0  0  0  0  0  0  0  0  0
    1.9410    1.4530   -1.9160 C   0  0  0  0  0  0  0  0  0  0  0  0
    2.6010    2.1490   -0.9190 C   0  0  0  0  0  0  0  0  0  0  0  0
    2.0790    3.5100   -0.5710 N   0  0  0  0  0  0  0  0  0  0  0  0
    1.0210    3.6100    0.4420 C   0  0  0  0  0  0  0  0  0  0  0  0
    0.7010    4.8120    0.8120 O   0  0  0  0  0  0  0  0  0  0  0  0
    0.3040    2.5730    1.0730 N   0  0  0  0  0  0  0  0  0  0  0  0
    0.3840    2.5030    2.5570 C   0  0  0  0  0  0  0  0  0  0  0  0
   -0.5560    1.5310    0.4780 C   0  0  2  0  0  0  0  0  0  0  0  0
    0.0630    0.1970    0.5590 C   0  0  0  0  0  0  0  0  0  0  0  0
    1.0740    0.3340    1.3880 O   0  0  0  0  0  0  0  0  0  0  0  0
   -0.1920   -1.0770   -0.0210 N   0  0  0  0  0  0  0  0  0  0  0  0
   -0.8440   -2.2070    0.6020 C   0  0  0  0  0  0  0  0  0  0  0  0
   -2.2130   -2.3060    0.7650 C   0  0  0  0  0  0  0  0  0  0  0  0
   -2.4720   -3.4760    1.3710 N   0  0  0  0  0  0  0  0  0  0  0  0
   -1.3680   -4.1310    1.6080 N   0  0  0  0  0  0  0  0  0  0  0  0
   -0.3250   -3.3660    1.1420 C   0  0  0  0  0  0  0  0  0  0  0  0
    1.0660   -3.7520    1.2620 N   0  0  0  0  0  0  0  0  0  0  0  0
    1.4930   -4.9370    1.9970 C   0  0  0  0  0  0  0  0  0  0  0  0
    2.1750   -2.9850    0.6950 C   0  0  0  0  0  0  0  0  0  0  0  0
    2.3260   -2.8100   -0.5290 N   0  0  0  0  0  0  0  0  0  0  0  0
    3.2310   -2.1440   -1.4650 C   0  0  0  0  0  0  0  0  0  0  0  0
    3.9440   -2.9500   -2.1660 O   0  0  0  0  0  0  0  0  0  0  0  0
   -3.2420   -1.3170    0.3650 C   0  0  0  0  0  0  0  0  0  0  0  0
   -3.7890   -1.6220   -1.0080 C   0  0  0  0  0  0  0  0  0  0  0  0
   -4.5410   -0.5830   -1.6780 C   0  0  0  0  0  0  0  0  0  0  0  0
   -5.7170   -0.9540   -2.0900 O   0  0  0  0  0  0  0  0  0  0  0  0
   -4.2410    0.7930   -1.9800 C   0  0  0  0  0  0  0  0  0  0  0  0
   -3.1520    1.4680   -2.0190 C   0  0  0  0  0  0  0  0  0  0  0  0
   -1.7320    1.0620   -1.7530 C   0  0  0  0  0  0  0  0  0  0  0  0
   -1.2610    2.0090   -0.7070 C   0  0  1  0  0  0  0  0  0  0  0  0
   -2.3500    2.9730   -0.2580 C   0  0  0  0  0  0  0  0  0  0  0  0
  1  2  1  0
  2  3  1  0
  2  7  2  0
  3  4  2  0
  4  5  1  0
  4 26  1  0
  5  6  2  0
  6  7  1  0
  7  8  1  0
  8  9  1  0
  9 10  2  0
  9 11  1  0
 11 12  1  0
 13 11  1  6
 13 14  1  0
 13 35  1  0
 14 15  2  0
 14 16  1  0
 16 17  1  0
 17 18  1  0
 17 21  2  0
 18 19  2  0
 18 28  1  0
 19 20  1  0
 20 21  1  0
 21 22  1  0
 22 23  1  0
 22 24  1  0
 24 25  2  0
 25 26  1  0
 26 27  2  0
 28 29  1  0
 29 30  1  0
 30 31  2  0
 30 32  1  0
 32 33  2  0
 33 34  1  0
 34 35  1  0
 35 36  1  1
M  END
