
     RDKit          3D

 36 39  0  0  0  0  0  0  0  0999 V2000
   -1.6860    1.8310   -1.0510 C   0  0  0  0  0  0  0  0  0  0  0  0
   -3.0150    1.6240   -0.5130 N   0  0  0  0  0  0  0  0  0  0  0  0
   -3.2690    0.5310    0.2430 C   0  0  0  0  0  0  0  0  0  0  0  0
   -2.4370   -0.2790    0.6120 N   0  0  0  0  0  0  0  0  0  0  0  0
   -1.1030   -0.5940    0.5670 C   0  0  0  0  0  0  0  0  0  0  0  0
   -0.7260   -1.6220   -0.3960 N   0  0  2  0  0  0  0  0  0  0  0  0
   -0.9040   -2.9500    0.1760 C   0  0  0  0  0  0  0  0  0  0  0  0
    0.5870   -1.3960   -0.8710 C   0  0  0  0  0  0  0  0  0  0  0  0
    1.6220   -1.0980    0.1120 C   0  0  0  0  0  0  0  0  0  0  0  0
    1.5110   -1.0040    1.3500 O   0  0  0  0  0  0  0  0  0  0  0  0
    2.9180   -0.8860   -0.3960 O   0  0  0  0  0  0  0  0  0  0  0  0
    4.0080   -0.5880    0.4540 C   0  0  1  0  0  0  0  0  0  0  0  0
    5.0710   -1.6530    0.3600 C   0  0  0  0  0  0  0  0  0  0  0  0
    6.4330   -1.2200    0.7260 C   0  0  0  0  0  0  0  0  0  0  0  0
    6.8540    0.1570    0.4290 C   0  0  1  0  0  0  0  0  0  0  0  0
    7.5050    0.4170   -0.8920 C   0  0  0  0  0  0  0  0  0  0  0  0
    6.7640    0.1300   -2.0590 N   0  0  0  0  0  0  0  0  0  0  0  0
    5.7830    1.1610    0.7630 C   0  0  0  0  0  0  0  0  0  0  0  0
    4.5100    0.7750    0.1060 C   0  0  0  0  0  0  0  0  0  0  0  0
   -4.5580    0.3080    0.7020 N   0  0  0  0  0  0  0  0  0  0  0  0
   -4.7580   -0.8540    1.4850 C   0  0  0  0  0  0  0  0  0  0  0  0
   -5.5290   -1.8840    0.9760 C   0  0  0  0  0  0  0  0  0  0  0  0
   -5.7820   -3.0540    1.6580 C   0  0  0  0  0  0  0  0  0  0  0  0
   -5.2290   -3.1910    2.9150 C   0  0  0  0  0  0  0  0  0  0  0  0
   -4.4560   -2.1710    3.4390 C   0  0  0  0  0  0  0  0  0  0  0  0
   -4.2190   -1.0180    2.7400 C   0  0  0  0  0  0  0  0  0  0  0  0
   -3.2430    0.2930    3.3750 Cl  0  0  0  0  0  0  0  0  0  0  0  0
   -5.5210    1.1720    0.3940 C   0  0  0  0  0  0  0  0  0  0  0  0
   -6.7010    0.9370    0.8310 O   0  0  0  0  0  0  0  0  0  0  0  0
   -5.3020    2.2940   -0.3680 C   0  0  0  0  0  0  0  0  0  0  0  0
   -6.2860    3.1940   -0.6760 C   0  0  0  0  0  0  0  0  0  0  0  0
   -6.0690    4.3240   -1.4230 C   0  0  0  0  0  0  0  0  0  0  0  0
   -4.7930    4.5450   -1.8750 C   0  0  0  0  0  0  0  0  0  0  0  0
   -4.3820    5.9450   -2.8340 Cl  0  0  0  0  0  0  0  0  0  0  0  0
   -3.7800    3.6420   -1.5730 C   0  0  0  0  0  0  0  0  0  0  0  0
   -3.9950    2.4910   -0.8160 C   0  0  0  0  0  0  0  0  0  0  0  0
  1  2  1  0
  2  3  1  0
  2 36  1  0
  3  4  2  3
  3 20  1  0
  4  5  1  0
  5  6  1  0
  6  7  1  1
  6  8  1  0
  8  9  1  0
  9 10  2  0
  9 11  1  0
 12 11  1  6
 12 13  1  0
 12 19  1  0
 13 14  1  0
 14 15  1  0
 15 16  1  6
 15 18  1  0
 16 17  1  0
 18 19  1  0
 20 21  1  0
 20 28  1  0
 21 22  2  0
 21 26  1  0
 22 23  1  0
 23 24  2  0
 24 25  1  0
 25 26  2  0
 26 27  1  0
 28 29  2  0
 28 30  1  0
 30 31  2  0
 30 36  1  0
 31 32  1  0
 32 33  2  0
 33 34  1  0
 33 35  1  0
 35 36  2  0
M  CHG  2   6   1  17   1
M  END
