
     RDKit          3D

 36 39  0  0  0  0  0  0  0  0999 V2000
   -6.3670    2.9110   -0.1160 C   0  0  0  0  0  0  0  0  0  0  0  0
   -6.1950    1.4540    0.3160 C   0  0  2  0  0  0  0  0  0  0  0  0
   -5.2420    0.8570   -0.5730 O   0  0  0  0  0  0  0  0  0  0  0  0
   -4.0660    0.2780   -0.1320 C   0  0  0  0  0  0  0  0  0  0  0  0
   -3.8430    0.2880    1.1060 O   0  0  0  0  0  0  0  0  0  0  0  0
   -3.1040   -0.3320   -1.0940 C   0  0  0  0  0  0  0  0  0  0  0  0
   -1.9230   -0.8930   -0.4180 C   0  0  0  0  0  0  0  0  0  0  0  0
   -1.9870   -2.2010    0.0150 C   0  0  0  0  0  0  0  0  0  0  0  0
   -0.9200   -2.7760    0.6500 C   0  0  0  0  0  0  0  0  0  0  0  0
    0.2130   -2.0400    0.8520 C   0  0  0  0  0  0  0  0  0  0  0  0
    0.2990   -0.7310    0.4270 C   0  0  0  0  0  0  0  0  0  0  0  0
    1.4930    0.0630    0.6340 N   0  0  0  0  0  0  0  0  0  0  0  0
    1.3640    1.3800    0.1140 C   0  0  0  0  0  0  0  0  0  0  0  0
    2.5160    2.2950    0.2730 C   0  0  0  0  0  0  0  0  0  0  0  0
    3.8210    1.8000   -0.2880 C   0  0  0  0  0  0  0  0  0  0  0  0
    4.2800    0.6080    0.4110 N   0  0  0  0  0  0  0  0  0  0  0  0
    5.3670   -0.0470   -0.2640 C   0  0  0  0  0  0  0  0  0  0  0  0
    5.8260    0.4210   -1.3350 O   0  0  0  0  0  0  0  0  0  0  0  0
    5.9580   -1.2260    0.2360 N   0  0  0  0  0  0  0  0  0  0  0  0
    7.0460   -1.9730   -0.3200 C   0  0  0  0  0  0  0  0  0  0  0  0
    8.3290   -1.2630   -0.3970 C   0  0  0  0  0  0  0  0  0  0  0  0
    9.4400   -1.6510    0.2770 C   0  0  0  0  0  0  0  0  0  0  0  0
   10.4880   -0.7010   -0.0560 C   0  0  0  0  0  0  0  0  0  0  0  0
   12.2020   -0.7220    0.1520 Cl  0  0  0  0  0  0  0  0  0  0  0  0
    9.8150    0.3000   -0.6110 C   0  0  0  0  0  0  0  0  0  0  0  0
    8.7210   -0.1440   -1.1620 N   0  0  0  0  0  0  0  0  0  0  0  0
    3.7500    0.1020    1.6270 C   0  0  0  0  0  0  0  0  0  0  0  0
    2.5120   -0.7000    1.3220 C   0  0  0  0  0  0  0  0  0  0  0  0
   -0.7840   -0.2200   -0.1920 N   0  0  0  0  0  0  0  0  0  0  0  0
   -7.5160    0.7870    0.1360 C   0  0  0  0  0  0  0  0  0  0  0  0
   -7.9340    0.5720   -1.1580 C   0  0  0  0  0  0  0  0  0  0  0  0
   -9.1450   -0.0410   -1.4450 C   0  0  0  0  0  0  0  0  0  0  0  0
   -9.9650   -0.4540   -0.4130 C   0  0  0  0  0  0  0  0  0  0  0  0
  -11.4710   -1.2170   -0.8050 Cl  0  0  0  0  0  0  0  0  0  0  0  0
   -9.5460   -0.2400    0.8910 C   0  0  0  0  0  0  0  0  0  0  0  0
   -8.3310    0.3760    1.1440 C   0  0  0  0  0  0  0  0  0  0  0  0
  2  1  1  6
  2  3  1  0
  2 30  1  0
  3  4  1  0
  4  5  2  0
  4  6  1  0
  6  7  1  0
  7  8  2  0
  7 29  1  0
  8  9  1  0
  9 10  2  0
 10 11  1  0
 11 12  1  0
 11 29  2  0
 12 13  1  0
 12 28  1  0
 13 14  1  0
 14 15  1  0
 15 16  1  0
 16 17  1  0
 16 27  1  0
 17 18  2  0
 17 19  1  0
 19 20  1  0
 20 21  1  0
 21 22  2  0
 21 26  1  0
 22 23  1  0
 23 24  1  0
 23 25  2  0
 25 26  2  0
 27 28  1  0
 30 31  2  0
 30 36  1  0
 31 32  1  0
 32 33  2  0
 33 34  1  0
 33 35  1  0
 35 36  2  0
M  CHG  2  26   1  29   1
M  END
