
     RDKit          3D

 15 14  0  0  0  0  0  0  0  0999 V2000
   -4.0850    0.9420   -1.1460 O   0  0  0  0  0  0  0  0  0  0  0  0
   -4.0290   -0.2820   -0.8450 C   0  0  0  0  0  0  0  0  0  0  0  0
   -3.2500   -0.6670    0.2370 O   0  0  0  0  0  0  0  0  0  0  0  0
   -2.5360    0.2970    0.9840 C   0  0  1  0  0  0  0  0  0  0  0  0
   -2.9910    0.2340    2.2990 O   0  0  0  0  0  0  0  0  0  0  0  0
   -1.0750   -0.0550    0.9290 C   0  0  0  0  0  0  0  0  0  0  0  0
   -0.4510   -0.3500    1.9940 O   0  0  0  0  0  0  0  0  0  0  0  0
   -0.3890   -0.0630   -0.2750 O   0  0  0  0  0  0  0  0  0  0  0  0
    0.9610   -0.3910   -0.3060 C   0  0  0  0  0  0  0  0  0  0  0  0
    1.5260   -0.6740    0.7760 O   0  0  0  0  0  0  0  0  0  0  0  0
    1.7450   -0.4170   -1.5570 C   0  0  0  0  0  0  0  0  0  0  0  0
    3.0770   -0.7670   -1.2550 O   0  0  0  0  0  0  0  0  0  0  0  0
    3.8480    0.0100   -0.4210 C   0  0  0  0  0  0  0  0  0  0  0  0
    3.3730    1.0450    0.0800 O   0  0  0  0  0  0  0  0  0  0  0  0
    5.1790   -0.3260   -0.1080 O   0  0  0  0  0  0  0  0  0  0  0  0
  1  2  2  0
  2  3  1  0
  3  4  1  0
  4  5  1  1
  4  6  1  0
  6  7  2  0
  6  8  1  0
  8  9  1  0
  9 10  2  0
  9 11  1  0
 11 12  1  0
 12 13  1  0
 13 14  2  0
 13 15  1  0
M  END
