
     RDKit          3D

 15 14  0  0  0  0  0  0  0  0999 V2000
    4.2730    0.6600    0.3400 O   0  0  0  0  0  0  0  0  0  0  0  0
    4.2360   -0.5860    0.5710 C   0  0  0  0  0  0  0  0  0  0  0  0
    5.4240   -1.3190    0.5440 O   0  0  0  0  0  0  0  0  0  0  0  0
    3.0050   -1.1450    0.8390 O   0  0  0  0  0  0  0  0  0  0  0  0
    1.8830   -0.3550    0.8470 O   0  0  0  0  0  0  0  0  0  0  0  0
    0.6840   -0.8470    0.3740 C   0  0  0  0  0  0  0  0  0  0  0  0
    0.6570   -2.0160   -0.0550 O   0  0  0  0  0  0  0  0  0  0  0  0
   -0.5770   -0.0610    0.3460 C   0  0  1  0  0  0  0  0  0  0  0  0
   -1.5960   -0.7960   -0.1710 O   0  0  0  0  0  0  0  0  0  0  0  0
   -2.1760   -0.3850   -1.3300 C   0  0  0  0  0  0  0  0  0  0  0  0
   -2.8040    0.9720   -1.1380 C   0  0  0  0  0  0  0  0  0  0  0  0
   -3.4130    1.4210   -2.3220 O   0  0  0  0  0  0  0  0  0  0  0  0
   -0.8820    0.5300    1.6740 C   0  0  0  0  0  0  0  0  0  0  0  0
   -1.9870    0.3530    2.2460 O   0  0  0  0  0  0  0  0  0  0  0  0
    0.0460    1.3100    2.3470 O   0  0  0  0  0  0  0  0  0  0  0  0
  1  2  2  0
  2  3  1  0
  2  4  1  0
  4  5  1  0
  5  6  1  0
  6  7  2  0
  6  8  1  0
  8  9  1  1
  8 13  1  0
  9 10  1  0
 10 11  1  0
 11 12  1  0
 13 14  2  0
 13 15  1  0
M  END
