
     RDKit          3D

 15 14  0  0  0  0  0  0  0  0999 V2000
    5.7790    0.1800   -0.7120 O   0  0  0  0  0  0  0  0  0  0  0  0
    5.2420    0.9130    0.1450 C   0  0  0  0  0  0  0  0  0  0  0  0
    4.0040    0.5140    0.6380 O   0  0  0  0  0  0  0  0  0  0  0  0
    3.3720   -0.6560    0.2030 C   0  0  1  0  0  0  0  0  0  0  0  0
    3.1390   -1.5480    1.2480 O   0  0  0  0  0  0  0  0  0  0  0  0
    2.0640   -0.2770   -0.4040 C   0  0  0  0  0  0  0  0  0  0  0  0
    2.0720    0.5170   -1.3560 O   0  0  0  0  0  0  0  0  0  0  0  0
    0.8600   -0.7880    0.0690 O   0  0  0  0  0  0  0  0  0  0  0  0
   -0.2570   -0.3850   -0.5450 O   0  0  0  0  0  0  0  0  0  0  0  0
   -1.3670   -0.4840    0.2990 C   0  0  0  0  0  0  0  0  0  0  0  0
   -2.5660   -0.0060   -0.4920 C   0  0  0  0  0  0  0  0  0  0  0  0
   -3.7420   -0.0740    0.2980 O   0  0  0  0  0  0  0  0  0  0  0  0
   -4.9690    0.3100   -0.2080 C   0  0  0  0  0  0  0  0  0  0  0  0
   -5.0510    0.7280   -1.3860 O   0  0  0  0  0  0  0  0  0  0  0  0
   -6.1390    0.2500    0.5550 O   0  0  0  0  0  0  0  0  0  0  0  0
  1  2  2  0
  2  3  1  0
  3  4  1  0
  4  5  1  1
  4  6  1  0
  6  7  2  0
  6  8  1  0
  8  9  1  0
  9 10  1  0
 10 11  1  0
 11 12  1  0
 12 13  1  0
 13 14  2  0
 13 15  1  0
M  END
