
     RDKit          3D

 15 14  0  0  0  0  0  0  0  0999 V2000
   -1.0110   -2.0170    0.7650 C   0  0  0  0  0  0  0  0  0  0  0  0
   -1.3500   -0.6480    0.1870 C   0  0  2  0  0  0  0  0  0  0  0  0
   -2.4340   -0.8030   -0.6620 O   0  0  0  0  0  0  0  0  0  0  0  0
   -3.5230   -0.0600   -0.2500 C   0  0  0  0  0  0  0  0  0  0  0  0
   -3.2440    1.3070   -0.2020 O   0  0  0  0  0  0  0  0  0  0  0  0
   -4.2570    2.0130    0.1830 O   0  0  0  0  0  0  0  0  0  0  0  0
   -0.1740   -0.1670   -0.5630 C   0  0  0  0  0  0  0  0  0  0  0  0
   -0.2930    0.0310   -1.7980 O   0  0  0  0  0  0  0  0  0  0  0  0
    1.0550    0.0790    0.0230 O   0  0  0  0  0  0  0  0  0  0  0  0
    2.1260    0.5360   -0.7550 C   0  0  0  0  0  0  0  0  0  0  0  0
    1.9190    0.7050   -1.9800 O   0  0  0  0  0  0  0  0  0  0  0  0
    3.4480    0.8070   -0.1580 C   0  0  2  0  0  0  0  0  0  0  0  0
    4.3060    1.2430   -1.1580 O   0  0  0  0  0  0  0  0  0  0  0  0
    3.9580   -0.4200    0.3020 O   0  0  0  0  0  0  0  0  0  0  0  0
    4.2380   -0.3410    1.5800 O   0  0  0  0  0  0  0  0  0  0  0  0
  2  1  1  6
  2  3  1  0
  2  7  1  0
  3  4  1  0
  4  5  1  0
  5  6  1  0
  7  8  2  0
  7  9  1  0
  9 10  1  0
 10 11  2  0
 10 12  1  0
 12 13  1  6
 12 14  1  0
 14 15  1  0
M  END
