
     RDKit          3D

 15 14  0  0  0  0  0  0  0  0999 V2000
    2.9340    1.9720   -0.3860 C   0  0  0  0  0  0  0  0  0  0  0  0
    2.4070    0.5660   -0.2800 C   0  0  2  0  0  0  0  0  0  0  0  0
    0.9940    0.6720    0.2490 C   0  0  0  0  0  0  0  0  0  0  0  0
    0.2960   -0.4820   -0.1620 O   0  0  0  0  0  0  0  0  0  0  0  0
   -0.8510   -0.1260   -0.5350 O   0  0  0  0  0  0  0  0  0  0  0  0
   -1.9810   -0.3230    0.0800 C   0  0  2  0  0  0  0  0  0  0  0  0
   -2.5660   -1.7060   -0.2980 C   0  0  0  0  0  0  0  0  0  0  0  0
   -3.9320   -1.6020   -0.0470 O   0  0  0  0  0  0  0  0  0  0  0  0
   -4.2950   -2.2680    1.0010 O   0  0  0  0  0  0  0  0  0  0  0  0
   -2.9970    0.7500   -0.0440 C   0  0  0  0  0  0  0  0  0  0  0  0
   -4.1890    0.4690    0.1730 O   0  0  0  0  0  0  0  0  0  0  0  0
   -2.5800    2.0280   -0.4680 O   0  0  0  0  0  0  0  0  0  0  0  0
    3.2070   -0.2430    0.4350 O   0  0  0  0  0  0  0  0  0  0  0  0
    3.9820   -0.9990   -0.3250 O   0  0  0  0  0  0  0  0  0  0  0  0
    4.3280   -2.1000    0.2990 O   0  0  0  0  0  0  0  0  0  0  0  0
  2  1  1  1
  2  3  1  0
  2 13  1  0
  3  4  1  0
  4  5  1  0
  5  6  1  0
  6  7  1  6
  6 10  1  0
  7  8  1  0
  8  9  1  0
 10 11  2  0
 10 12  1  0
 13 14  1  0
 14 15  1  0
M  END
