
     RDKit          3D

 27 28  0  0  0  0  0  0  0  0999 V2000
   -5.9340   -1.7580    0.8140 O   0  0  0  0  0  0  0  0  0  0  0  0
   -4.6720   -1.3810    1.2000 C   0  0  0  0  0  0  0  0  0  0  0  0
   -4.1710   -0.1500    0.4790 C   0  0  1  0  0  0  0  0  0  0  0  0
   -2.8820    0.0760    0.9560 O   0  0  0  0  0  0  0  0  0  0  0  0
   -1.9660    0.2980   -0.0040 C   0  0  2  0  0  0  0  0  0  0  0  0
   -0.7190    0.5320    0.5830 O   0  0  0  0  0  0  0  0  0  0  0  0
    0.2600   -0.0320   -0.2180 C   0  0  1  0  0  0  0  0  0  0  0  0
    1.3020    0.8350   -0.3430 O   0  0  0  0  0  0  0  0  0  0  0  0
    2.4110    0.4730    0.2850 C   0  0  2  0  0  0  0  0  0  0  0  0
    3.5650   -0.1500   -0.4310 C   0  0  0  0  0  0  0  0  0  0  0  0
    4.2220    0.7890   -1.2280 O   0  0  0  0  0  0  0  0  0  0  0  0
    5.7490    0.9650   -0.4790 P   0  0  0  0  0  0  0  0  0  0  0  0
    5.9080   -0.5230   -0.3910 O   0  0  0  0  0  0  0  0  0  0  0  0
    5.6060    1.3120    1.1240 O   0  0  0  0  0  0  0  0  0  0  0  0
    5.5780    2.4440   -1.0130 O   0  0  0  0  0  0  0  0  0  0  0  0
    2.2470   -0.1390    1.6660 C   0  0  1  0  0  0  0  0  0  0  0  0
    1.6030    0.7200    2.4990 O   0  0  0  0  0  0  0  0  0  0  0  0
    1.5140   -1.4240    1.4950 C   0  0  2  0  0  0  0  0  0  0  0  0
    2.4460   -2.4780    1.2800 O   0  0  0  0  0  0  0  0  0  0  0  0
    0.5980   -1.4110    0.3150 C   0  0  1  0  0  0  0  0  0  0  0  0
   -0.5970   -1.9810    0.7210 O   0  0  0  0  0  0  0  0  0  0  0  0
   -2.4020    1.4910   -0.8800 C   0  0  2  0  0  0  0  0  0  0  0  0
   -2.6560    2.6210   -0.1630 O   0  0  0  0  0  0  0  0  0  0  0  0
   -3.6380    0.9800   -1.6090 C   0  0  1  0  0  0  0  0  0  0  0  0
   -3.3440    0.6800   -2.9570 O   0  0  0  0  0  0  0  0  0  0  0  0
   -4.2050   -0.2710   -1.0110 C   0  0  2  0  0  0  0  0  0  0  0  0
   -5.5640   -0.3420   -1.3710 O   0  0  0  0  0  0  0  0  0  0  0  0
  1  2  1  0
  3  2  1  1
  3  4  1  0
  3 26  1  0
  4  5  1  0
  5  6  1  1
  5 22  1  0
  7  6  1  1
  7  8  1  0
  7 20  1  0
  8  9  1  0
  9 10  1  6
  9 16  1  0
 10 11  1  0
 11 12  1  0
 12 13  1  0
 12 14  1  0
 12 15  1  0
 16 17  1  1
 16 18  1  0
 18 19  1  6
 18 20  1  0
 20 21  1  1
 22 23  1  1
 22 24  1  0
 24 25  1  6
 24 26  1  0
 26 27  1  6
M  END
