
     RDKit          3D

 15 14  0  0  0  0  0  0  0  0999 V2000
   -3.6160   -0.9680   -1.3360 O   0  0  0  0  0  0  0  0  0  0  0  0
   -4.0730   -0.5020   -0.2730 C   0  0  0  0  0  0  0  0  0  0  0  0
   -5.4400   -0.1270   -0.2740 O   0  0  0  0  0  0  0  0  0  0  0  0
   -3.2900   -0.3620    0.8290 O   0  0  0  0  0  0  0  0  0  0  0  0
   -1.9600   -0.6840    0.9190 C   0  0  0  0  0  0  0  0  0  0  0  0
   -1.0770    0.1740    0.0600 C   0  0  2  0  0  0  0  0  0  0  0  0
   -1.3510    0.1030   -1.2720 O   0  0  0  0  0  0  0  0  0  0  0  0
   -1.5780    1.2760   -1.8300 O   0  0  0  0  0  0  0  0  0  0  0  0
    0.3530   -0.1700    0.3550 C   0  0  0  0  0  0  0  0  0  0  0  0
    0.7350   -0.1450    1.5300 O   0  0  0  0  0  0  0  0  0  0  0  0
    1.1850   -0.5000   -0.6720 O   0  0  0  0  0  0  0  0  0  0  0  0
    2.5330   -0.8350   -0.5280 C   0  0  0  0  0  0  0  0  0  0  0  0
    3.2860    0.3190    0.0600 C   0  0  0  0  0  0  0  0  0  0  0  0
    4.6430    0.0170    0.2170 O   0  0  0  0  0  0  0  0  0  0  0  0
    5.2790    1.0400    0.7320 O   0  0  0  0  0  0  0  0  0  0  0  0
  1  2  2  0
  2  3  1  0
  2  4  1  0
  4  5  1  0
  6  5  1  1
  6  7  1  0
  6  9  1  0
  7  8  1  0
  9 10  2  0
  9 11  1  0
 11 12  1  0
 12 13  1  0
 13 14  1  0
 14 15  1  0
M  END
