
     RDKit          3D

 13 12  0  0  0  0  0  0  0  0999 V2000
   -4.1720    1.4710   -0.3710 C   0  0  0  0  0  0  0  0  0  0  0  0
   -3.0280    0.7170   -0.0080 O   0  0  0  0  0  0  0  0  0  0  0  0
   -2.6210   -0.4080   -0.6850 C   0  0  0  0  0  0  0  0  0  0  0  0
   -3.2950   -0.7860   -1.6740 O   0  0  0  0  0  0  0  0  0  0  0  0
   -1.4060   -1.1220   -0.2170 C   0  0  0  0  0  0  0  0  0  0  0  0
   -0.8780   -0.4860    0.8780 O   0  0  0  0  0  0  0  0  0  0  0  0
    0.2370   -1.0320    1.4370 C   0  0  0  0  0  0  0  0  0  0  0  0
    1.3680   -1.0770    0.4490 C   0  0  0  0  0  0  0  0  0  0  0  0
    1.7190    0.6780   -0.0920 P   0  0  0  0  0  0  0  0  0  0  0  0
    3.4090    1.0600    0.1210 O   0  0  0  0  0  0  0  0  0  0  0  0
    4.2040   -0.0390   -0.2750 C   0  0  0  0  0  0  0  0  0  0  0  0
    1.2580    0.9120   -1.7490 O   0  0  0  0  0  0  0  0  0  0  0  0
    0.7400    2.1190   -1.8700 O   0  0  0  0  0  0  0  0  0  0  0  0
  1  2  1  0
  2  3  1  0
  3  4  2  0
  3  5  1  0
  5  6  1  0
  6  7  1  0
  7  8  1  0
  8  9  1  0
  9 10  1  0
  9 12  1  0
 10 11  1  0
 12 13  1  0
M  END
