
     RDKit          3D

 15 14  0  0  0  0  0  0  0  0999 V2000
    2.1800    1.2730    0.6070 O   0  0  0  0  0  0  0  0  0  0  0  0
    2.2400    0.2690   -0.1170 C   0  0  0  0  0  0  0  0  0  0  0  0
    3.6750   -0.0540   -0.5180 C   0  0  0  0  0  0  0  0  0  0  0  0
    3.8500    1.2160   -1.2060 O   0  0  0  0  0  0  0  0  0  0  0  0
    4.8730    1.7880   -0.6130 O   0  0  0  0  0  0  0  0  0  0  0  0
    1.1420   -0.4440   -0.4740 O   0  0  0  0  0  0  0  0  0  0  0  0
   -0.0430    0.0660   -0.0020 C   0  0  0  0  0  0  0  0  0  0  0  0
    0.0300    1.1370    0.7210 O   0  0  0  0  0  0  0  0  0  0  0  0
   -1.4060   -0.5080   -0.1970 C   0  0  1  0  0  0  0  0  0  0  0  0
   -1.6300   -1.0970   -1.4080 O   0  0  0  0  0  0  0  0  0  0  0  0
   -1.2940   -1.7580    0.8090 C   0  0  0  0  0  0  0  0  0  0  0  0
   -2.2680   -2.6450    0.5000 O   0  0  0  0  0  0  0  0  0  0  0  0
   -2.4220    0.4490    0.2620 C   0  0  0  0  0  0  0  0  0  0  0  0
   -2.5530    1.4890   -0.6280 O   0  0  0  0  0  0  0  0  0  0  0  0
   -3.3870    2.4110   -0.4220 O   0  0  0  0  0  0  0  0  0  0  0  0
  1  2  2  0
  2  3  1  0
  2  6  1  0
  3  4  1  0
  4  5  1  0
  6  7  1  0
  7  8  2  0
  7  9  1  0
  9 10  1  6
  9 11  1  0
  9 13  1  0
 11 12  1  0
 13 14  1  0
 14 15  1  0
M  END
