
     RDKit          3D

 12 11  0  0  0  0  0  0  0  0999 V2000
   -0.1740   -3.7290    1.5000 C   0  0  0  0  0  0  0  0  0  0  0  0
   -0.4960   -3.9120    0.0730 C   0  0  0  0  0  0  0  0  0  0  0  0
   -0.8590   -2.8920   -0.6590 C   0  0  0  0  0  0  0  0  0  0  0  0
   -1.1770   -3.1360   -2.1160 C   0  0  0  0  0  0  0  0  0  0  0  0
   -0.9440   -1.5590   -0.0560 C   0  0  0  0  0  0  0  0  0  0  0  0
   -0.0330   -0.5400   -0.6980 C   0  0  0  0  0  0  0  0  0  0  0  0
   -0.2640    0.7740    0.0620 C   0  0  1  0  0  0  0  0  0  0  0  0
    0.0450    0.6170    1.4100 O   0  0  0  0  0  0  0  0  0  0  0  0
    0.6330    1.8620   -0.4760 C   0  0  0  0  0  0  0  0  0  0  0  0
    0.3620    3.0160    0.2510 O   0  0  0  0  0  0  0  0  0  0  0  0
    1.1760    4.0460   -0.2210 C   0  0  0  0  0  0  0  0  0  0  0  0
    0.8760    5.2880    0.5710 C   0  0  0  0  0  0  0  0  0  0  0  0
  1  2  1  0
  2  3  2  3
  3  4  1  0
  3  5  1  0
  5  6  1  0
  6  7  1  0
  7  8  1  1
  7  9  1  0
  9 10  1  0
 10 11  1  0
 11 12  1  0
M  END
