
     RDKit          3D

 12 11  0  0  0  0  0  0  0  0999 V2000
   -2.6990   -2.0750   -1.5080 C   0  0  0  0  0  0  0  0  0  0  0  0
   -3.0450   -1.2270   -0.6200 C   0  0  0  0  0  0  0  0  0  0  0  0
   -2.3610   -0.2170    0.1420 C   0  0  0  0  0  0  0  0  0  0  0  0
   -0.9720    0.1270    0.0900 C   0  0  0  0  0  0  0  0  0  0  0  0
    0.0200   -0.3420   -0.6170 C   0  0  0  0  0  0  0  0  0  0  0  0
    1.3710    0.2690   -0.4090 C   0  0  0  0  0  0  0  0  0  0  0  0
    1.4470    1.1870    0.4300 O   0  0  0  0  0  0  0  0  0  0  0  0
    2.4500   -0.1960   -1.1370 O   0  0  0  0  0  0  0  0  0  0  0  0
    3.7080    0.4340   -0.8860 C   0  0  0  0  0  0  0  0  0  0  0  0
    4.7900   -0.1660   -1.7400 C   0  0  0  0  0  0  0  0  0  0  0  0
   -3.1650    0.4810    1.0140 C   0  0  0  0  0  0  0  0  0  0  0  0
   -2.5790    1.5370    1.8460 C   0  0  0  0  0  0  0  0  0  0  0  0
  1  2  2  0
  2  3  1  0
  3  4  1  0
  3 11  2  3
  4  5  2  3
  5  6  1  0
  6  7  2  0
  6  8  1  0
  8  9  1  0
  9 10  1  0
 11 12  1  0
M  END
