
     RDKit          3D

 12 12  0  0  0  0  0  0  0  0999 V2000
    2.2960    2.4460    0.2540 C   0  0  0  0  0  0  0  0  0  0  0  0
    2.6430    1.2120   -0.0560 C   0  0  0  0  0  0  0  0  0  0  0  0
    4.0010    0.7670   -0.3660 C   0  0  0  0  0  0  0  0  0  0  0  0
    3.9040   -0.5210   -0.6160 C   0  0  0  0  0  0  0  0  0  0  0  0
    2.5220   -0.9660   -0.4850 C   0  0  0  0  0  0  0  0  0  0  0  0
    1.7500    0.0630   -0.1480 C   0  0  0  0  0  0  0  0  0  0  0  0
    0.3800    0.0920    0.0780 O   0  0  0  0  0  0  0  0  0  0  0  0
   -0.2650   -1.1310    0.3390 C   0  0  0  0  0  0  0  0  0  0  0  0
   -1.7440   -0.9540    0.5650 C   0  0  0  0  0  0  0  0  0  0  0  0
   -2.3430   -0.3440   -0.6750 C   0  0  0  0  0  0  0  0  0  0  0  0
   -3.8440   -0.1370   -0.5140 C   0  0  0  0  0  0  0  0  0  0  0  0
   -4.1070    0.7140    0.5570 O   0  0  0  0  0  0  0  0  0  0  0  0
  1  2  2  0
  2  3  1  0
  2  6  1  0
  3  4  2  0
  4  5  1  0
  5  6  2  0
  6  7  1  0
  7  8  1  0
  8  9  1  0
  9 10  1  0
 10 11  1  0
 11 12  1  0
M  END
