
     RDKit          3D

 12 11  0  0  0  0  0  0  0  0999 V2000
   -4.3920   -0.1970   -0.5250 C   0  0  0  0  0  0  0  0  0  0  0  0
   -2.9770   -0.4930   -0.9200 C   0  0  0  0  0  0  0  0  0  0  0  0
   -2.0500   -0.1540    0.2430 C   0  0  1  0  0  0  0  0  0  0  0  0
   -2.4200   -0.9850    1.4490 C   0  0  0  0  0  0  0  0  0  0  0  0
   -0.6270   -0.4030   -0.1600 C   0  0  0  0  0  0  0  0  0  0  0  0
    0.2200    0.6020   -0.1650 C   0  0  0  0  0  0  0  0  0  0  0  0
   -0.1890    1.9810    0.2170 C   0  0  0  0  0  0  0  0  0  0  0  0
    1.6560    0.3720   -0.5680 C   0  0  0  0  0  0  0  0  0  0  0  0
    2.4540    0.7230    0.4980 O   0  0  0  0  0  0  0  0  0  0  0  0
    3.7850    0.5810    0.2510 C   0  0  0  0  0  0  0  0  0  0  0  0
    4.2250   -0.8150   -0.0820 C   0  0  0  0  0  0  0  0  0  0  0  0
    5.6100   -0.8240   -0.3070 O   0  0  0  0  0  0  0  0  0  0  0  0
  1  2  1  0
  2  3  1  0
  3  4  1  1
  3  5  1  0
  5  6  2  3
  6  7  1  0
  6  8  1  0
  8  9  1  0
  9 10  1  0
 10 11  1  0
 11 12  1  0
M  END
