
     RDKit          3D

 19 21  0  0  0  0  0  0  0  0999 V2000
    3.0110   -2.0300    0.1300 C   0  0  0  0  0  0  0  0  0  0  0  0
    1.8660   -1.2330    0.1740 O   0  0  0  0  0  0  0  0  0  0  0  0
    1.8260    0.1330    0.0010 C   0  0  0  0  0  0  0  0  0  0  0  0
    2.9740    0.8850   -0.2360 C   0  0  0  0  0  0  0  0  0  0  0  0
    2.9240    2.2640   -0.4110 C   0  0  0  0  0  0  0  0  0  0  0  0
    1.6990    2.8810   -0.3520 C   0  0  0  0  0  0  0  0  0  0  0  0
    1.4920    4.7850   -0.5730 Br  0  0  0  0  0  0  0  0  0  0  0  0
    0.5930    2.1460   -0.1240 C   0  0  0  0  0  0  0  0  0  0  0  0
    0.5970    0.7500    0.0650 C   0  0  0  0  0  0  0  0  0  0  0  0
   -0.6650    0.1250    0.3700 C   0  0  0  0  0  0  0  0  0  0  0  0
   -1.0120   -0.3310    1.5790 N   0  0  0  0  0  0  0  0  0  0  0  0
   -2.1840   -0.9560    1.8070 C   0  0  0  0  0  0  0  0  0  0  0  0
   -2.6280   -1.4170    3.0670 N   0  0  0  0  0  0  0  0  0  0  0  0
   -3.0730   -1.1510    0.7810 N   0  0  0  0  0  0  0  0  0  0  0  0
   -2.7640   -0.7060   -0.4610 C   0  0  0  0  0  0  0  0  0  0  0  0
   -3.4200   -0.7770   -1.6460 N   0  0  0  0  0  0  0  0  0  0  0  0
   -2.6650   -0.2040   -2.5820 C   0  0  0  0  0  0  0  0  0  0  0  0
   -1.5330    0.2290   -1.9800 N   0  0  0  0  0  0  0  0  0  0  0  0
   -1.5590   -0.0690   -0.6580 C   0  0  0  0  0  0  0  0  0  0  0  0
  1  2  1  0
  2  3  1  0
  3  4  2  0
  3  9  1  0
  4  5  1  0
  5  6  2  0
  6  7  1  0
  6  8  1  0
  8  9  2  0
  9 10  1  0
 10 11  2  0
 10 19  1  0
 11 12  1  0
 12 13  1  0
 12 14  2  0
 14 15  1  0
 15 16  1  0
 15 19  2  0
 16 17  1  0
 17 18  2  0
 18 19  1  0
M  END
