
     RDKit          3D

 10  9  0  0  0  0  0  0  0  0999 V2000
   -4.0290    0.0330    1.2340 O   0  0  0  0  0  0  0  0  0  0  0  0
   -3.0410   -0.6700    0.5120 C   0  0  0  0  0  0  0  0  0  0  0  0
   -1.9490    0.2880    0.0570 C   0  0  0  0  0  0  0  0  0  0  0  0
   -0.9910   -0.4340   -0.6020 O   0  0  0  0  0  0  0  0  0  0  0  0
    0.1270    0.2440   -0.9850 C   0  0  0  0  0  0  0  0  0  0  0  0
    1.1760    0.2670   -0.0030 C   0  0  1  0  0  0  0  0  0  0  0  0
    1.5430   -1.0560    0.4490 O   0  0  0  0  0  0  0  0  0  0  0  0
    2.5270    0.7610   -0.6720 C   0  0  0  0  0  0  0  0  0  0  0  0
    3.1980    1.2660    0.4150 O   0  0  0  0  0  0  0  0  0  0  0  0
    3.6650    0.3160    1.1520 O   0  0  0  0  0  0  0  0  0  0  0  0
  1  2  1  0
  2  3  1  0
  3  4  1  0
  4  5  1  0
  5  6  1  0
  6  7  1  6
  6  8  1  0
  8  9  1  0
  9 10  1  0
M  END
