
     RDKit          3D

 23 23  0  0  0  0  0  0  0  0999 V2000
    6.5100   -1.6120    0.6600 C   0  0  0  0  0  0  0  0  0  0  0  0
    5.6580   -0.7210   -0.2470 C   0  0  1  0  0  0  0  0  0  0  0  0
    6.4780    0.4020   -0.8200 C   0  0  0  0  0  0  0  0  0  0  0  0
    5.2050   -1.5330   -1.2900 O   0  0  0  0  0  0  0  0  0  0  0  0
    4.4730   -0.2300    0.4860 C   0  0  0  0  0  0  0  0  0  0  0  0
    3.2840   -0.1000   -0.0400 C   0  0  0  0  0  0  0  0  0  0  0  0
    3.0950   -0.4410   -1.3770 O   0  0  0  0  0  0  0  0  0  0  0  0
    2.1650    0.3880    0.7370 C   0  0  0  0  0  0  0  0  0  0  0  0
    2.3490    0.6910    1.9410 O   0  0  0  0  0  0  0  0  0  0  0  0
    0.8870    0.5390    0.2130 O   0  0  0  0  0  0  0  0  0  0  0  0
   -0.1360    1.0230    1.0510 C   0  0  0  0  0  0  0  0  0  0  0  0
   -1.4410    1.1000    0.2460 C   0  0  2  0  0  0  0  0  0  0  0  0
   -2.4940    1.6060    1.1380 C   0  0  0  0  0  0  0  0  0  0  0  0
   -3.8400    1.3300    0.7520 N   0  0  0  0  0  0  0  0  0  0  0  0
   -4.0090    1.0110   -0.6310 C   0  0  2  0  0  0  0  0  0  0  0  0
   -5.2810    1.6010   -1.2100 C   0  0  0  0  0  0  0  0  0  0  0  0
   -6.4070    1.1270   -0.5420 O   0  0  0  0  0  0  0  0  0  0  0  0
   -4.0520   -0.5000   -0.7380 C   0  0  0  0  0  0  0  0  0  0  0  0
   -2.8230   -1.0050    0.0120 C   0  0  2  0  0  0  0  0  0  0  0  0
   -2.5780   -2.4500   -0.4490 C   0  0  0  0  0  0  0  0  0  0  0  0
   -3.0290   -1.0530    1.4600 C   0  0  0  0  0  0  0  0  0  0  0  0
   -4.1320   -1.0490    1.9390 O   0  0  0  0  0  0  0  0  0  0  0  0
   -1.6550   -0.1860   -0.4330 C   0  0  0  0  0  0  0  0  0  0  0  0
  2  1  1  1
  2  3  1  0
  2  4  1  0
  2  5  1  0
  5  6  2  3
  6  7  1  0
  6  8  1  0
  8  9  2  0
  8 10  1  0
 10 11  1  0
 12 11  1  1
 12 13  1  0
 12 23  1  0
 13 14  1  0
 14 15  1  0
 15 16  1  1
 15 18  1  0
 16 17  1  0
 18 19  1  0
 19 20  1  6
 19 21  1  0
 19 23  1  0
 21 22  2  0
M  END
