
     RDKit          3D

 20 23  0  0  0  0  0  0  0  0999 V2000
    3.3150   -2.8580    0.1820 N   0  0  0  0  0  0  0  0  0  0  0  0
    2.7440   -1.5830    0.1520 C   0  0  0  0  0  0  0  0  0  0  0  0
    1.4080   -1.4200   -0.0920 N   0  0  0  0  0  0  0  0  0  0  0  0
    0.8610   -0.2000   -0.1210 C   0  0  0  0  0  0  0  0  0  0  0  0
   -0.5510    0.0080   -0.3760 C   0  0  0  0  0  0  0  0  0  0  0  0
   -0.9840    0.8750   -1.3880 C   0  0  0  0  0  0  0  0  0  0  0  0
   -2.2960    1.1140   -1.6690 C   0  0  0  0  0  0  0  0  0  0  0  0
   -2.6690    2.3390   -3.0970 Br  0  0  0  0  0  0  0  0  0  0  0  0
   -3.2730    0.5010   -0.9550 C   0  0  0  0  0  0  0  0  0  0  0  0
   -2.9020   -0.3610    0.0520 C   0  0  0  0  0  0  0  0  0  0  0  0
   -3.6550   -1.1110    0.9260 C   0  0  0  0  0  0  0  0  0  0  0  0
   -2.7440   -1.7870    1.7160 C   0  0  0  0  0  0  0  0  0  0  0  0
   -1.5310   -1.4530    1.3280 O   0  0  0  0  0  0  0  0  0  0  0  0
   -1.5570   -0.6090    0.3430 C   0  0  0  0  0  0  0  0  0  0  0  0
    1.6760    0.8940    0.1000 C   0  0  0  0  0  0  0  0  0  0  0  0
    1.4630    2.2260    0.1400 N   0  0  0  0  0  0  0  0  0  0  0  0
    2.6030    2.9000    0.3970 C   0  0  0  0  0  0  0  0  0  0  0  0
    3.5690    1.9680    0.5230 N   0  0  0  0  0  0  0  0  0  0  0  0
    3.0360    0.7450    0.3480 C   0  0  0  0  0  0  0  0  0  0  0  0
    3.5440   -0.5120    0.3680 N   0  0  0  0  0  0  0  0  0  0  0  0
  1  2  1  0
  2  3  2  0
  2 20  1  0
  3  4  1  0
  4  5  1  0
  4 15  2  0
  5  6  2  0
  5 14  1  0
  6  7  1  0
  7  8  1  0
  7  9  2  0
  9 10  1  0
 10 11  1  0
 10 14  2  0
 11 12  2  0
 12 13  1  0
 13 14  1  0
 15 16  1  0
 15 19  1  0
 16 17  1  0
 17 18  2  0
 18 19  1  0
 19 20  2  0
M  END
