
     RDKit          3D

 23 25  0  0  0  0  0  0  0  0999 V2000
    1.5530    1.1240    0.3040 C   0  0  0  0  0  0  0  0  0  0  0  0
    1.9970   -0.2320   -0.1090 C   0  0  0  0  0  0  0  0  0  0  0  0
    3.2990   -0.4830   -0.0910 C   0  0  0  0  0  0  0  0  0  0  0  0
    4.2800    0.5410    0.3220 C   0  0  0  0  0  0  0  0  0  0  0  0
    5.5840    0.3670    0.3650 C   0  0  0  0  0  0  0  0  0  0  0  0
    6.2260    1.4950    0.7870 O   0  0  0  0  0  0  0  0  0  0  0  0
    5.2410    2.5080    0.8730 C   0  0  0  0  0  0  0  0  0  0  0  0
    4.0240    1.8250    0.7260 O   0  0  0  0  0  0  0  0  0  0  0  0
    3.7510   -1.7390   -0.4710 O   0  0  0  0  0  0  0  0  0  0  0  0
    2.9330   -2.7890   -0.8810 C   0  0  0  0  0  0  0  0  0  0  0  0
    1.4820   -2.4310   -0.8740 C   0  0  0  0  0  0  0  0  0  0  0  0
    1.0410   -1.2480   -0.5180 C   0  0  0  0  0  0  0  0  0  0  0  0
   -0.3510   -0.9360   -0.5220 N   0  0  0  0  0  0  0  0  0  0  0  0
   -1.2110   -1.1120    0.5870 C   0  0  2  0  0  0  0  0  0  0  0  0
   -1.2690   -2.6010    0.9680 C   0  0  0  0  0  0  0  0  0  0  0  0
   -2.6120   -0.6870    0.2960 C   0  0  0  0  0  0  0  0  0  0  0  0
   -2.8360    0.7230   -0.0750 C   0  0  1  0  0  0  0  0  0  0  0  0
   -2.4020    1.6180    0.9010 O   0  0  0  0  0  0  0  0  0  0  0  0
   -2.5190    1.1840   -1.4420 C   0  0  0  0  0  0  0  0  0  0  0  0
   -3.4630    2.1660   -1.7700 O   0  0  0  0  0  0  0  0  0  0  0  0
   -4.4630    2.1810   -0.8400 C   0  0  0  0  0  0  0  0  0  0  0  0
   -4.3990    0.8540   -0.1670 C   0  0  2  0  0  0  0  0  0  0  0  0
   -4.9630    0.7880    1.0730 O   0  0  0  0  0  0  0  0  0  0  0  0
  1  2  1  0
  2  3  2  0
  2 12  1  0
  3  4  1  0
  3  9  1  0
  4  5  2  0
  4  8  1  0
  5  6  1  0
  6  7  1  0
  7  8  1  0
  9 10  1  0
 10 11  1  0
 11 12  2  0
 12 13  1  0
 13 14  1  0
 14 15  1  6
 14 16  1  0
 16 17  1  0
 17 18  1  1
 17 19  1  0
 17 22  1  0
 19 20  1  0
 20 21  1  0
 21 22  1  0
 22 23  1  1
M  END
