
     RDKit          3D

 23 24  0  0  0  0  0  0  0  0999 V2000
    5.9000    0.0210    0.8070 C   0  0  0  0  0  0  0  0  0  0  0  0
    4.5150   -0.3250    1.0000 N   0  0  0  0  0  0  0  0  0  0  0  0
    3.5600    0.0790   -0.0040 C   0  0  0  0  0  0  0  0  0  0  0  0
    4.0070    0.7100   -0.9850 O   0  0  0  0  0  0  0  0  0  0  0  0
    2.1060   -0.2760    0.1830 C   0  0  0  0  0  0  0  0  0  0  0  0
    1.3270    0.3240   -0.9160 C   0  0  2  0  0  0  0  0  0  0  0  0
    1.8380   -0.1670   -2.1240 O   0  0  0  0  0  0  0  0  0  0  0  0
    1.4890    1.8150   -0.9210 C   0  0  0  0  0  0  0  0  0  0  0  0
    1.3670    2.2220    0.4130 O   0  0  0  0  0  0  0  0  0  0  0  0
    0.0370    2.3730    0.6820 C   0  0  0  0  0  0  0  0  0  0  0  0
   -0.6410    1.1510    1.2400 C   0  0  0  0  0  0  0  0  0  0  0  0
   -0.8450    0.0190    0.3180 C   0  0  1  0  0  0  0  0  0  0  0  0
   -0.0500   -1.0210    1.0230 O   0  0  0  0  0  0  0  0  0  0  0  0
   -2.1840   -0.6240    0.3810 C   0  0  0  0  0  0  0  0  0  0  0  0
   -3.1490   -0.1970   -0.3820 C   0  0  0  0  0  0  0  0  0  0  0  0
   -3.0220    0.9120   -1.3110 C   0  0  0  0  0  0  0  0  0  0  0  0
   -3.2630    0.4740   -2.6100 O   0  0  0  0  0  0  0  0  0  0  0  0
   -4.4710   -0.8880   -0.3780 C   0  0  0  0  0  0  0  0  0  0  0  0
   -4.6890   -1.5880    0.7850 O   0  0  0  0  0  0  0  0  0  0  0  0
   -3.7080   -2.0580    1.5890 C   0  0  0  0  0  0  0  0  0  0  0  0
   -2.4880   -1.6220    1.4330 C   0  0  0  0  0  0  0  0  0  0  0  0
   -0.1500   -0.0560   -0.9710 C   0  0  2  0  0  0  0  0  0  0  0  0
   -0.1430   -1.5430   -1.4010 C   0  0  0  0  0  0  0  0  0  0  0  0
  1  2  1  0
  2  3  1  0
  3  4  2  0
  3  5  1  0
  5  6  1  0
  6  7  1  6
  6  8  1  0
  6 22  1  0
  8  9  1  0
  9 10  1  0
 10 11  1  0
 11 12  1  0
 12 13  1  1
 12 14  1  0
 12 22  1  0
 14 15  2  0
 14 21  1  0
 15 16  1  0
 15 18  1  0
 16 17  1  0
 18 19  1  0
 19 20  1  0
 20 21  2  0
 22 23  1  1
M  END
