
     RDKit          3D

 23 24  0  0  0  0  0  0  0  0999 V2000
    5.0980   -0.7450   -1.1740 C   0  0  0  0  0  0  0  0  0  0  0  0
    5.0630   -0.0440    0.1120 C   0  0  0  0  0  0  0  0  0  0  0  0
    6.3220    0.5610    0.4890 O   0  0  0  0  0  0  0  0  0  0  0  0
    4.1230    0.1320    0.9630 C   0  0  0  0  0  0  0  0  0  0  0  0
    4.4980    0.9450    2.2170 C   0  0  0  0  0  0  0  0  0  0  0  0
    3.6950    2.0620    2.2700 O   0  0  0  0  0  0  0  0  0  0  0  0
    2.7610   -0.3440    0.8860 C   0  0  0  0  0  0  0  0  0  0  0  0
    2.0500    0.0050    1.9100 O   0  0  0  0  0  0  0  0  0  0  0  0
    2.1300   -1.0990   -0.1030 N   0  0  0  0  0  0  0  0  0  0  0  0
    0.7810   -1.5450   -0.1970 C   0  0  0  0  0  0  0  0  0  0  0  0
   -0.3340   -0.5950   -0.4050 C   0  0  1  0  0  0  0  0  0  0  0  0
   -0.0990    0.1700   -1.7010 C   0  0  0  0  0  0  0  0  0  0  0  0
   -1.0990    1.0860   -1.9860 O   0  0  0  0  0  0  0  0  0  0  0  0
   -1.6110   -1.4450   -0.7570 C   0  0  0  0  0  0  0  0  0  0  0  0
   -2.5690   -0.5450   -1.1380 O   0  0  0  0  0  0  0  0  0  0  0  0
   -3.0390    0.2440   -0.1300 C   0  0  1  0  0  0  0  0  0  0  0  0
   -4.0570    1.2720   -0.6560 C   0  0  0  0  0  0  0  0  0  0  0  0
   -5.2980    0.4650   -0.9540 C   0  0  0  0  0  0  0  0  0  0  0  0
   -5.1110   -0.8230   -0.1670 C   0  0  0  0  0  0  0  0  0  0  0  0
   -3.9480   -0.5630    0.7680 C   0  0  0  0  0  0  0  0  0  0  0  0
   -2.0170    1.0250    0.5950 C   0  0  0  0  0  0  0  0  0  0  0  0
   -0.7290    0.2260    0.7450 C   0  0  1  0  0  0  0  0  0  0  0  0
   -0.9140   -0.5140    1.9210 O   0  0  0  0  0  0  0  0  0  0  0  0
  1  2  1  0
  2  3  1  0
  2  4  2  3
  4  5  1  0
  4  7  1  0
  5  6  1  0
  7  8  2  0
  7  9  1  0
  9 10  1  0
 11 10  1  1
 11 12  1  0
 11 14  1  0
 11 22  1  0
 12 13  1  0
 14 15  1  0
 15 16  1  0
 16 17  1  6
 16 20  1  0
 16 21  1  0
 17 18  1  0
 18 19  1  0
 19 20  1  0
 21 22  1  0
 22 23  1  1
M  END
