
     RDKit          3D

 23 24  0  0  0  0  0  0  0  0999 V2000
    5.6190   -0.0630    1.3700 C   0  0  0  0  0  0  0  0  0  0  0  0
    5.0970    0.4390    0.2780 C   0  0  0  0  0  0  0  0  0  0  0  0
    5.5950    1.5420   -0.4840 N   0  0  0  0  0  0  0  0  0  0  0  0
    4.7260    1.7580   -1.6010 C   0  0  0  0  0  0  0  0  0  0  0  0
    3.6860    0.7340   -1.4690 C   0  0  0  0  0  0  0  0  0  0  0  0
    3.8740   -0.0250   -0.4130 C   0  0  0  0  0  0  0  0  0  0  0  0
    3.1330   -1.1040    0.0810 O   0  0  0  0  0  0  0  0  0  0  0  0
    2.2260   -0.8440    1.1260 C   0  0  0  0  0  0  0  0  0  0  0  0
    1.1770    0.1280    0.7260 C   0  0  0  0  0  0  0  0  0  0  0  0
    0.3080   -0.3020   -0.4120 C   0  0  0  0  0  0  0  0  0  0  0  0
   -0.4700   -1.5590   -0.1650 C   0  0  2  0  0  0  0  0  0  0  0  0
   -1.2810   -1.8390   -1.4120 C   0  0  0  0  0  0  0  0  0  0  0  0
   -2.6830   -1.9620   -1.1240 O   0  0  0  0  0  0  0  0  0  0  0  0
   -3.2910   -1.0150   -0.3260 C   0  0  0  0  0  0  0  0  0  0  0  0
   -4.4860   -0.5320   -0.5980 C   0  0  0  0  0  0  0  0  0  0  0  0
   -5.1820    0.4800    0.2200 C   0  0  0  0  0  0  0  0  0  0  0  0
   -5.4950    1.7070   -0.5010 C   0  0  0  0  0  0  0  0  0  0  0  0
   -5.1780    1.8320   -1.7030 O   0  0  0  0  0  0  0  0  0  0  0  0
   -6.1450    2.7510    0.1220 O   0  0  0  0  0  0  0  0  0  0  0  0
   -2.5380   -0.5590    0.8620 C   0  0  2  0  0  0  0  0  0  0  0  0
   -2.1220    0.7640    0.7680 O   0  0  0  0  0  0  0  0  0  0  0  0
   -1.3720   -1.5130    1.0280 C   0  0  2  0  0  0  0  0  0  0  0  0
   -0.7750   -1.2630    2.2250 O   0  0  0  0  0  0  0  0  0  0  0  0
  1  2  2  0
  2  3  1  0
  2  6  1  0
  3  4  1  0
  4  5  1  0
  5  6  2  0
  6  7  1  0
  7  8  1  0
  8  9  1  0
  9 10  1  0
 11 10  1  6
 11 12  1  0
 11 22  1  0
 12 13  1  0
 13 14  1  0
 14 15  2  3
 14 20  1  0
 15 16  1  0
 16 17  1  0
 17 18  2  0
 17 19  1  0
 20 21  1  6
 20 22  1  0
 22 23  1  1
M  END
