
     RDKit          3D

 10  9  0  0  0  0  0  0  0  0999 V2000
    4.1210   -0.5600    0.5110 O   0  0  0  0  0  0  0  0  0  0  0  0
    3.0070   -0.6530    0.0290 C   0  0  0  0  0  0  0  0  0  0  0  0
    2.0450    0.4500    0.2960 C   0  0  2  0  0  0  0  0  0  0  0  0
    2.6090    1.4390    1.0850 O   0  0  0  0  0  0  0  0  0  0  0  0
    0.8930   -0.0670    0.8410 O   0  0  0  0  0  0  0  0  0  0  0  0
   -0.1610    0.1660   -0.0110 C   0  0  0  0  0  0  0  0  0  0  0  0
   -1.4710   -0.3900    0.5490 C   0  0  2  0  0  0  0  0  0  0  0  0
   -1.3660   -1.7610    0.7390 O   0  0  0  0  0  0  0  0  0  0  0  0
   -2.5560   -0.1440   -0.5060 C   0  0  0  0  0  0  0  0  0  0  0  0
   -2.6510    1.2410   -0.6860 O   0  0  0  0  0  0  0  0  0  0  0  0
  1  2  2  0
  2  3  1  0
  3  4  1  1
  3  5  1  0
  5  6  1  0
  6  7  1  0
  7  8  1  6
  7  9  1  0
  9 10  1  0
M  END
