
     RDKit          3D

  5  4  0  0  0  0  0  0  0  0999 V2000
    2.6470   -0.2730    0.5820 C   0  0  0  0  0  0  0  0  0  0  0  0
    1.6890    0.4060    0.0470 N   0  0  0  0  0  0  0  0  0  0  0  0
    0.4160   -0.1300   -0.0570 N   0  0  0  0  0  0  0  0  0  0  0  0
   -0.7520    0.7320   -0.2470 C   0  0  0  0  0  0  0  0  0  0  0  0
   -2.0060   -0.1100   -0.3280 C   0  0  0  0  0  0  0  0  0  0  0  0
  1  2  2  0
  2  3  1  0
  3  4  1  0
  4  5  1  0
M  END
