
     RDKit          3D

  5  4  0  0  0  0  0  0  0  0999 V2000
   -1.8050    0.1140    0.5230 C   0  0  0  0  0  0  0  0  0  0  0  0
   -1.1350   -0.0050   -0.8140 C   0  0  0  0  0  0  0  0  0  0  0  0
    0.2750   -0.0730   -0.6980 N   0  0  0  0  0  0  0  0  0  0  0  0
    0.9120    0.0350    0.3640 N   0  0  0  0  0  0  0  0  0  0  0  0
    2.3500   -0.0650    0.2530 C   0  0  0  0  0  0  0  0  0  0  0  0
  1  2  1  0
  2  3  1  0
  3  4  2  3
  4  5  1  0
M  END
