
     RDKit          3D

  5  4  0  0  0  0  0  0  0  0999 V2000
    2.0050   -0.0220   -0.2800 C   0  0  0  0  0  0  0  0  0  0  0  0
    0.8510   -0.6000   -0.5450 C   0  0  0  0  0  0  0  0  0  0  0  0
   -0.3160   -0.1820    0.1640 N   0  0  0  0  0  0  0  0  0  0  0  0
   -1.1400    0.8240   -0.4850 C   0  0  0  0  0  0  0  0  0  0  0  0
   -0.6440   -0.7120    1.4120 N   0  0  0  0  0  0  0  0  0  0  0  0
  1  2  2  0
  2  3  1  0
  3  4  1  0
  3  5  1  0
M  END
