
     RDKit          3D

  5  4  0  0  0  0  0  0  0  0999 V2000
    2.4800    1.1990    0.5520 N   0  0  0  0  0  0  0  0  0  0  0  0
    1.6800    0.3630    0.4810 C   0  0  0  0  0  0  0  0  0  0  0  0
    0.6820   -0.7170    0.3960 C   0  0  0  0  0  0  0  0  0  0  0  0
   -0.5130   -0.2440   -0.4450 C   0  0  0  0  0  0  0  0  0  0  0  0
   -1.1310    0.9000    0.1360 N   0  0  0  0  0  0  0  0  0  0  0  0
  1  2  3  0
  2  3  1  0
  3  4  1  0
  4  5  1  0
M  END
