
     RDKit          3D

  5  4  0  0  0  0  0  0  0  0999 V2000
   -1.6430    0.3060   -0.0770 C   0  0  0  0  0  0  0  0  0  0  0  0
   -0.1270    0.3910   -1.0460 S   0  0  0  0  0  0  0  0  0  0  0  0
    1.2360   -0.5060   -0.3060 C   0  0  0  0  0  0  0  0  0  0  0  0
    1.5850    0.1990    0.9560 C   0  0  0  0  0  0  0  0  0  0  0  0
    1.8620    0.7560    1.9160 N   0  0  0  0  0  0  0  0  0  0  0  0
  1  2  1  0
  2  3  1  0
  3  4  1  0
  4  5  3  0
M  END
