
     RDKit          3D

  5  5  0  0  0  0  0  0  0  0999 V2000
    0.0380    0.8080   -0.1550 C   0  0  0  0  0  0  0  0  0  0  0  0
    1.1190   -0.2450    0.1430 C   0  0  0  0  0  0  0  0  0  0  0  0
    0.5670   -1.3490   -0.5900 N   0  0  0  0  0  0  0  0  0  0  0  0
   -0.6660   -1.2880   -0.6430 N   0  0  0  0  0  0  0  0  0  0  0  0
   -1.1610   -0.1270    0.0490 C   0  0  0  0  0  0  0  0  0  0  0  0
  1  2  1  0
  1  5  1  0
  2  3  1  0
  3  4  2  0
  4  5  1  0
M  END
