
     RDKit          3D

  5  4  0  0  0  0  0  0  0  0999 V2000
    1.3520   -1.0580   -0.2270 C   0  0  0  0  0  0  0  0  0  0  0  0
    0.3110   -0.0970    0.0300 N   0  0  0  0  0  0  0  0  0  0  0  0
    0.6290    1.2960   -0.0080 C   0  0  0  0  0  0  0  0  0  0  0  0
   -1.0030   -0.5700    0.3140 C   0  0  0  0  0  0  0  0  0  0  0  0
   -2.0520    0.1290    0.0540 N   0  0  0  0  0  0  0  0  0  0  0  0
  1  2  1  0
  2  3  1  0
  2  4  1  0
  4  5  2  0
M  CHG  1   5   1
M  END
