
     RDKit          3D

 11 11  0  0  0  0  0  0  0  0999 V2000
   -3.2840    0.3540   -0.7040 O   0  0  0  0  0  0  0  0  0  0  0  0
   -2.7180   -0.0370    0.5020 C   0  0  0  0  0  0  0  0  0  0  0  0
   -1.2690   -0.4240    0.3650 C   0  0  2  0  0  0  0  0  0  0  0  0
   -0.4600    0.7670   -0.1260 C   0  0  0  0  0  0  0  0  0  0  0  0
    0.9940    0.3420    0.0280 C   0  0  2  0  0  0  0  0  0  0  0  0
    1.1410   -0.1430    1.3190 O   0  0  0  0  0  0  0  0  0  0  0  0
    1.9420    1.4660   -0.2790 C   0  0  0  0  0  0  0  0  0  0  0  0
    3.2340    1.0090   -0.1350 O   0  0  0  0  0  0  0  0  0  0  0  0
    1.1720   -0.8330   -0.9120 C   0  0  0  0  0  0  0  0  0  0  0  0
    0.2400   -1.9290   -0.3760 C   0  0  0  0  0  0  0  0  0  0  0  0
   -1.0600   -1.4760   -0.5000 O   0  0  0  0  0  0  0  0  0  0  0  0
  1  2  1  0
  3  2  1  6
  3  4  1  0
  3 11  1  0
  4  5  1  0
  5  6  1  1
  5  7  1  0
  5  9  1  0
  7  8  1  0
  9 10  1  0
 10 11  1  0
M  END
