
     RDKit          3D

 12 12  0  0  0  0  0  0  0  0999 V2000
    3.4230   -0.8680    0.6210 O   0  0  0  0  0  0  0  0  0  0  0  0
    2.4610   -0.5610   -0.1300 C   0  0  0  0  0  0  0  0  0  0  0  0
    2.7560   -0.3460   -1.4700 O   0  0  0  0  0  0  0  0  0  0  0  0
    1.0700   -0.4330    0.3870 C   0  0  1  0  0  0  0  0  0  0  0  0
    0.6180    0.9650    0.1240 C   0  0  0  0  0  0  0  0  0  0  0  0
   -0.8450    1.1930    0.3140 C   0  0  1  0  0  0  0  0  0  0  0  0
   -1.1490    2.4870   -0.1060 O   0  0  0  0  0  0  0  0  0  0  0  0
   -1.5740    0.1640   -0.5360 C   0  0  2  0  0  0  0  0  0  0  0  0
   -2.9280    0.3820   -0.5740 O   0  0  0  0  0  0  0  0  0  0  0  0
   -1.2600   -1.1810    0.1320 C   0  0  2  0  0  0  0  0  0  0  0  0
   -1.4660   -0.9760    1.5020 O   0  0  0  0  0  0  0  0  0  0  0  0
    0.1740   -1.4900   -0.1780 C   0  0  0  0  0  0  0  0  0  0  0  0
  1  2  2  0
  2  3  1  0
  4  2  1  6
  4  5  1  0
  4 12  1  0
  5  6  1  0
  6  7  1  6
  6  8  1  0
  8  9  1  1
  8 10  1  0
 10 11  1  1
 10 12  1  0
M  END
