
     RDKit          3D

 12 12  0  0  0  0  0  0  0  0999 V2000
    1.0300    2.2880    0.7890 O   0  0  0  0  0  0  0  0  0  0  0  0
    1.4110    0.9580    0.9030 C   0  0  0  0  0  0  0  0  0  0  0  0
    0.9540    0.0920   -0.2240 C   0  0  1  0  0  0  0  0  0  0  0  0
    1.4910    0.5880   -1.4090 O   0  0  0  0  0  0  0  0  0  0  0  0
    1.5640   -1.3060   -0.0460 C   0  0  0  0  0  0  0  0  0  0  0  0
    1.1810   -2.0430   -1.1620 O   0  0  0  0  0  0  0  0  0  0  0  0
   -0.5030   -0.0840   -0.3780 C   0  0  1  0  0  0  0  0  0  0  0  0
   -0.6970   -1.0050   -1.4370 O   0  0  0  0  0  0  0  0  0  0  0  0
   -1.1960   -0.6670    0.8180 C   0  0  0  0  0  0  0  0  0  0  0  0
   -2.4610    0.1730    0.9240 C   0  0  0  0  0  0  0  0  0  0  0  0
   -2.6140    0.8000   -0.3210 O   0  0  0  0  0  0  0  0  0  0  0  0
   -1.3020    1.1170   -0.7260 C   0  0  0  0  0  0  0  0  0  0  0  0
  1  2  1  0
  2  3  1  0
  3  4  1  6
  3  5  1  0
  3  7  1  0
  5  6  1  0
  7  8  1  6
  7  9  1  0
  7 12  1  0
  9 10  1  0
 10 11  1  0
 11 12  1  0
M  END
