
     RDKit          3D

 12 12  0  0  0  0  0  0  0  0999 V2000
    3.9090   -0.3880   -0.7010 O   0  0  0  0  0  0  0  0  0  0  0  0
    3.2160    0.4730   -0.0750 C   0  0  0  0  0  0  0  0  0  0  0  0
    3.9060    1.5420    0.4650 O   0  0  0  0  0  0  0  0  0  0  0  0
    1.8510    0.3650    0.0700 O   0  0  0  0  0  0  0  0  0  0  0  0
    1.1700   -0.7200   -0.4810 C   0  0  0  0  0  0  0  0  0  0  0  0
   -0.3020   -0.6450   -0.2100 C   0  0  1  0  0  0  0  0  0  0  0  0
   -0.9950   -1.7060   -0.7440 O   0  0  0  0  0  0  0  0  0  0  0  0
   -0.6210   -0.4570    1.2580 C   0  0  0  0  0  0  0  0  0  0  0  0
   -2.0910   -0.0780    1.1960 C   0  0  0  0  0  0  0  0  0  0  0  0
   -2.3220    0.4810   -0.1930 C   0  0  0  0  0  0  0  0  0  0  0  0
   -0.9290    0.6280   -0.7450 C   0  0  2  0  0  0  0  0  0  0  0  0
   -0.8700    0.7380   -2.1070 O   0  0  0  0  0  0  0  0  0  0  0  0
  1  2  2  0
  2  3  1  0
  2  4  1  0
  4  5  1  0
  5  6  1  0
  6  7  1  6
  6  8  1  0
  6 11  1  0
  8  9  1  0
  9 10  1  0
 10 11  1  0
 11 12  1  6
M  END
