
     RDKit          3D

 11 11  0  0  0  0  0  0  0  0999 V2000
    3.2250   -0.6880    0.0450 O   0  0  0  0  0  0  0  0  0  0  0  0
    2.0330   -0.9630    0.6650 C   0  0  0  0  0  0  0  0  0  0  0  0
    0.8400   -0.3530   -0.0860 C   0  0  2  0  0  0  0  0  0  0  0  0
    0.8870   -0.9460   -1.3700 O   0  0  0  0  0  0  0  0  0  0  0  0
    0.9900    1.1080   -0.1750 C   0  0  0  0  0  0  0  0  0  0  0  0
   -0.2190    1.9410   -0.1000 C   0  0  0  0  0  0  0  0  0  0  0  0
   -1.2550    1.4820    0.6500 O   0  0  0  0  0  0  0  0  0  0  0  0
   -2.1760    0.7180   -0.0850 C   0  0  0  0  0  0  0  0  0  0  0  0
   -1.5610   -0.6140   -0.3820 C   0  0  2  0  0  0  0  0  0  0  0  0
   -2.4890   -1.6630   -0.3040 O   0  0  0  0  0  0  0  0  0  0  0  0
   -0.3930   -0.8500    0.5790 C   0  0  0  0  0  0  0  0  0  0  0  0
  1  2  1  0
  2  3  1  0
  3  4  1  6
  3  5  1  0
  3 11  1  0
  5  6  1  0
  6  7  1  0
  7  8  1  0
  8  9  1  0
  9 10  1  1
  9 11  1  0
M  END
