
     RDKit          3D

 17 18  0  0  0  0  0  0  0  0999 V2000
   -3.4670    0.6440   -1.7710 C   0  0  0  0  0  0  0  0  0  0  0  0
   -3.2760    0.6600   -0.4610 C   0  0  0  0  0  0  0  0  0  0  0  0
   -4.2800    0.9770    0.4370 O   0  0  0  0  0  0  0  0  0  0  0  0
   -4.0600    0.9890    1.8070 C   0  0  0  0  0  0  0  0  0  0  0  0
   -2.8620    0.6910    2.2730 C   0  0  0  0  0  0  0  0  0  0  0  0
   -1.7680    0.3500    1.3660 C   0  0  0  0  0  0  0  0  0  0  0  0
   -1.9640    0.3350    0.0550 C   0  0  0  0  0  0  0  0  0  0  0  0
   -0.8650   -0.0090   -0.8830 C   0  0  0  0  0  0  0  0  0  0  0  0
    0.3080   -0.2860   -0.1570 O   0  0  0  0  0  0  0  0  0  0  0  0
    1.4640   -0.6330   -0.8490 C   0  0  0  0  0  0  0  0  0  0  0  0
    1.4170   -0.6850   -2.0950 O   0  0  0  0  0  0  0  0  0  0  0  0
    2.6810   -0.9180   -0.0460 C   0  0  2  0  0  0  0  0  0  0  0  0
    3.0060    0.3490    0.7070 C   0  0  0  0  0  0  0  0  0  0  0  0
    4.8250    0.1640    0.9000 S   0  0  0  0  0  0  0  0  0  0  0  0
    5.0370   -1.1420   -0.3200 C   0  0  0  0  0  0  0  0  0  0  0  0
    6.0700   -1.7960   -0.5800 O   0  0  0  0  0  0  0  0  0  0  0  0
    3.7510   -1.2510   -0.9160 N   0  0  0  0  0  0  0  0  0  0  0  0
  1  2  2  0
  2  3  1  0
  2  7  1  0
  3  4  1  0
  4  5  2  0
  5  6  1  0
  6  7  2  0
  7  8  1  0
  8  9  1  0
  9 10  1  0
 10 11  2  0
 12 10  1  6
 12 13  1  0
 12 17  1  0
 13 14  1  0
 14 15  1  0
 15 16  2  0
 15 17  1  0
M  END
