
     RDKit          3D

 12 12  0  0  0  0  0  0  0  0999 V2000
    3.8440    0.6030    0.3970 O   0  0  0  0  0  0  0  0  0  0  0  0
    2.7730   -0.2820    0.3770 C   0  0  2  0  0  0  0  0  0  0  0  0
    3.1010   -1.2870   -0.5420 O   0  0  0  0  0  0  0  0  0  0  0  0
    1.5230    0.4370   -0.0630 C   0  0  0  0  0  0  0  0  0  0  0  0
    0.3350   -0.4990   -0.0960 C   0  0  2  0  0  0  0  0  0  0  0  0
    0.5770   -1.5260   -0.9750 O   0  0  0  0  0  0  0  0  0  0  0  0
   -0.9280    0.2630   -0.4160 C   0  0  1  0  0  0  0  0  0  0  0  0
   -0.8960    0.8350   -1.6720 O   0  0  0  0  0  0  0  0  0  0  0  0
   -2.1550   -0.6110   -0.3340 C   0  0  0  0  0  0  0  0  0  0  0  0
   -3.1510    0.3140    0.3320 C   0  0  0  0  0  0  0  0  0  0  0  0
   -2.5840    1.5870    0.3180 O   0  0  0  0  0  0  0  0  0  0  0  0
   -1.2460    1.2890    0.6500 C   0  0  0  0  0  0  0  0  0  0  0  0
  2  1  1  6
  2  3  1  0
  2  4  1  0
  4  5  1  0
  5  6  1  6
  5  7  1  0
  7  8  1  6
  7  9  1  0
  7 12  1  0
  9 10  1  0
 10 11  1  0
 11 12  1  0
M  END
