
     RDKit          3D

 39 43  0  0  0  0  0  0  0  0999 V2000
    8.0000    5.1150    1.1900 C   0  0  0  0  0  0  0  0  0  0  0  0
    7.1380    4.0740    0.7670 O   0  0  0  0  0  0  0  0  0  0  0  0
    7.3500    2.7550    1.0960 C   0  0  0  0  0  0  0  0  0  0  0  0
    8.3410    2.4350    1.7990 O   0  0  0  0  0  0  0  0  0  0  0  0
    6.4390    1.7160    0.6400 C   0  0  0  0  0  0  0  0  0  0  0  0
    5.3010    1.8640   -0.1370 C   0  0  0  0  0  0  0  0  0  0  0  0
    4.7410    0.6370   -0.3320 N   0  0  0  0  0  0  0  0  0  0  0  0
    5.5120   -0.2620    0.3090 C   0  0  0  0  0  0  0  0  0  0  0  0
    5.3060   -1.7290    0.3830 C   0  0  0  0  0  0  0  0  0  0  0  0
    4.1740   -2.1650   -0.4070 N   0  0  0  0  0  0  0  0  0  0  0  0
    2.8490   -1.7160   -0.1900 C   0  0  0  0  0  0  0  0  0  0  0  0
    2.6420   -0.8970    0.7340 O   0  0  0  0  0  0  0  0  0  0  0  0
    1.7360   -2.2040   -1.0370 C   0  0  2  0  0  0  0  0  0  0  0  0
    2.0550   -2.0470   -2.5230 C   0  0  0  0  0  0  0  0  0  0  0  0
    0.5010   -1.6580   -0.6920 O   0  0  0  0  0  0  0  0  0  0  0  0
   -0.5990   -2.3600   -0.2810 C   0  0  0  0  0  0  0  0  0  0  0  0
   -0.5130   -3.6070   -0.2000 O   0  0  0  0  0  0  0  0  0  0  0  0
   -1.8870   -1.7230    0.0720 C   0  0  0  0  0  0  0  0  0  0  0  0
   -1.9330   -0.4110   -0.0280 C   0  0  0  0  0  0  0  0  0  0  0  0
   -3.1120    0.3490    0.2800 C   0  0  0  0  0  0  0  0  0  0  0  0
   -3.2080    1.7120    0.1920 C   0  0  0  0  0  0  0  0  0  0  0  0
   -4.3710    2.3910    0.5010 C   0  0  0  0  0  0  0  0  0  0  0  0
   -5.4850    1.7000    0.9160 C   0  0  0  0  0  0  0  0  0  0  0  0
   -5.3870    0.3360    1.0040 C   0  0  0  0  0  0  0  0  0  0  0  0
   -4.2260   -0.3750    0.6980 C   0  0  0  0  0  0  0  0  0  0  0  0
   -4.1400   -1.7180    0.7890 O   0  0  0  0  0  0  0  0  0  0  0  0
   -3.0460   -2.4900    0.5030 C   0  0  1  0  0  0  0  0  0  0  0  0
   -3.3770   -3.5920   -0.4790 C   0  0  0  0  0  0  0  0  0  0  0  0
   -2.9710   -4.9130   -0.2010 C   0  0  0  0  0  0  0  0  0  0  0  0
   -3.5830   -5.8390   -1.6440 S   0  0  0  0  0  0  0  0  0  0  0  0
   -4.3060   -4.2600   -2.4100 C   0  0  0  0  0  0  0  0  0  0  0  0
   -5.0120   -4.4230   -3.7520 C   0  0  0  0  0  0  0  0  0  0  0  0
   -4.0190   -3.4920   -1.6170 N   0  0  0  0  0  0  0  0  0  0  0  0
   -6.7800    2.3660    1.2670 C   0  0  0  0  0  0  0  0  0  0  0  0
   -6.5380    3.8190    1.5520 C   0  0  0  0  0  0  0  0  0  0  0  0
   -5.8170    4.3940    0.3300 C   0  0  0  0  0  0  0  0  0  0  0  0
   -4.4110    3.8600    0.3860 C   0  0  0  0  0  0  0  0  0  0  0  0
    6.5190    0.3960    0.8830 N   0  0  0  0  0  0  0  0  0  0  0  0
    7.5760   -0.2300    1.6730 C   0  0  0  0  0  0  0  0  0  0  0  0
  1  2  1  0
  2  3  1  0
  3  4  2  0
  3  5  1  0
  5  6  2  0
  5 38  1  0
  6  7  1  0
  7  8  2  0
  8  9  1  0
  8 38  1  0
  9 10  1  0
 10 11  1  0
 11 12  2  0
 11 13  1  0
 13 14  1  6
 13 15  1  0
 15 16  1  0
 16 17  2  0
 16 18  1  0
 18 19  2  0
 18 27  1  0
 19 20  1  0
 20 21  2  0
 20 25  1  0
 21 22  1  0
 22 23  2  0
 22 37  1  0
 23 24  1  0
 23 34  1  0
 24 25  2  0
 25 26  1  0
 26 27  1  0
 27 28  1  6
 28 29  2  0
 28 33  1  0
 29 30  1  0
 30 31  1  0
 31 32  1  0
 31 33  2  0
 34 35  1  0
 35 36  1  0
 36 37  1  0
 38 39  1  0
M  END
