
     RDKit          3D

 39 43  0  0  0  0  0  0  0  0999 V2000
   -0.2290   -1.9840   -3.5170 C   0  0  0  0  0  0  0  0  0  0  0  0
   -0.3760   -1.8330   -2.1010 O   0  0  0  0  0  0  0  0  0  0  0  0
   -1.6040   -1.4450   -1.5720 C   0  0  0  0  0  0  0  0  0  0  0  0
   -2.5150   -1.2530   -2.4320 O   0  0  0  0  0  0  0  0  0  0  0  0
   -1.7460   -1.2990   -0.1390 C   0  0  0  0  0  0  0  0  0  0  0  0
   -0.6690   -1.4080    0.6800 C   0  0  0  0  0  0  0  0  0  0  0  0
    0.9340   -1.7980    0.1490 S   0  0  1  0  0  0  0  0  0  0  0  0
    1.8450   -1.9420    1.3740 O   0  0  0  0  0  0  0  0  0  0  0  0
    0.9870   -3.1680   -0.5060 O   0  0  0  0  0  0  0  0  0  0  0  0
    1.5350   -0.5740   -0.8770 N   0  0  0  0  0  0  0  0  0  0  0  0
    1.6120    0.7050   -0.2640 C   0  0  0  0  0  0  0  0  0  0  0  0
    2.5990   -0.9740   -1.7150 C   0  0  0  0  0  0  0  0  0  0  0  0
    3.9700   -1.0950   -1.1950 C   0  0  0  0  0  0  0  0  0  0  0  0
    4.5240    0.1710   -0.6640 C   0  0  0  0  0  0  0  0  0  0  0  0
    5.9850   -0.0290   -0.1870 C   0  0  2  0  0  0  0  0  0  0  0  0
    5.9940   -1.0900    0.9210 C   0  0  0  0  0  0  0  0  0  0  0  0
    6.7720   -0.4890    2.0970 C   0  0  0  0  0  0  0  0  0  0  0  0
    7.4660    0.6700    1.4370 C   0  0  0  0  0  0  0  0  0  0  0  0
    8.5100    1.4140    1.2760 C   0  0  0  0  0  0  0  0  0  0  0  0
    8.2340    2.4460    0.2860 C   0  0  0  0  0  0  0  0  0  0  0  0
    6.9860    2.3140   -0.1470 C   0  0  0  0  0  0  0  0  0  0  0  0
    6.3740    1.2200    0.5290 C   0  0  1  0  0  0  0  0  0  0  0  0
   -0.8460   -1.1600    2.0600 C   0  0  0  0  0  0  0  0  0  0  0  0
   -2.0820   -0.8270    2.4900 C   0  0  0  0  0  0  0  0  0  0  0  0
   -2.2560   -0.5990    3.7320 O   0  0  0  0  0  0  0  0  0  0  0  0
   -3.1630   -0.7230    1.6430 N   0  0  0  0  0  0  0  0  0  0  0  0
   -4.4070   -0.4220    2.2930 C   0  0  0  0  0  0  0  0  0  0  0  0
   -3.0460   -0.9450    0.3510 C   0  0  0  0  0  0  0  0  0  0  0  0
   -4.1230   -0.9950   -0.5380 N   0  0  0  0  0  0  0  0  0  0  0  0
   -5.3680   -0.3200   -0.3810 C   0  0  0  0  0  0  0  0  0  0  0  0
   -5.3320    0.9480   -0.0630 N   0  0  0  0  0  0  0  0  0  0  0  0
   -6.5040    1.6980    0.1130 C   0  0  0  0  0  0  0  0  0  0  0  0
   -6.4740    3.0490    0.4540 C   0  0  0  0  0  0  0  0  0  0  0  0
   -7.6280    3.7790    0.6260 C   0  0  0  0  0  0  0  0  0  0  0  0
   -8.8500    3.1710    0.4600 C   0  0  0  0  0  0  0  0  0  0  0  0
   -8.8720    1.8370    0.1230 C   0  0  0  0  0  0  0  0  0  0  0  0
   -7.7150    1.0820   -0.0550 C   0  0  0  0  0  0  0  0  0  0  0  0
   -7.7780   -0.2580   -0.3940 O   0  0  0  0  0  0  0  0  0  0  0  0
   -6.6330   -1.0450   -0.6190 C   0  0  0  0  0  0  0  0  0  0  0  0
  1  2  1  0
  2  3  1  0
  3  4  2  0
  3  5  1  0
  5  6  1  0
  5 28  2  0
  6  7  1  0
  6 23  2  0
  7  8  2  0
  7  9  2  0
  7 10  1  6
 10 11  1  0
 10 12  1  0
 12 13  1  0
 13 14  1  0
 15 14  1  1
 15 16  1  0
 15 22  1  0
 16 17  1  0
 17 18  1  0
 18 19  2  0
 18 22  1  0
 19 20  1  0
 20 21  2  0
 22 21  1  6
 23 24  1  0
 24 25  2  0
 24 26  1  0
 26 27  1  0
 26 28  1  0
 28 29  1  0
 29 30  1  0
 30 31  2  0
 30 39  1  0
 31 32  1  0
 32 33  2  0
 32 37  1  0
 33 34  1  0
 34 35  2  0
 35 36  1  0
 36 37  2  0
 37 38  1  0
 38 39  1  0
M  END
