
     RDKit          3D

 39 43  0  0  0  0  0  0  0  0999 V2000
   10.5000    2.2390    0.5380 C   0  0  0  0  0  0  0  0  0  0  0  0
    9.6150    1.0120    0.4800 C   0  0  0  0  0  0  0  0  0  0  0  0
   10.1630   -0.0480    0.2660 O   0  0  0  0  0  0  0  0  0  0  0  0
    8.2390    1.1030    0.6640 N   0  0  0  0  0  0  0  0  0  0  0  0
    7.2320    0.1290    0.6940 C   0  0  0  0  0  0  0  0  0  0  0  0
    5.9560    0.5020    0.4140 O   0  0  0  0  0  0  0  0  0  0  0  0
    5.1510   -0.4950    0.4800 C   0  0  0  0  0  0  0  0  0  0  0  0
    3.7400   -0.3530    0.2190 N   0  0  0  0  0  0  0  0  0  0  0  0
    2.8330   -0.1530    1.2740 C   0  0  0  0  0  0  0  0  0  0  0  0
    2.9850   -0.2040    2.5060 O   0  0  0  0  0  0  0  0  0  0  0  0
    1.2680    0.2240    0.4800 S   0  0  0  0  0  0  0  0  0  0  0  0
    1.7710   -0.2400   -1.1580 C   0  0  0  0  0  0  0  0  0  0  0  0
    1.0060   -0.3950   -2.1880 C   0  0  0  0  0  0  0  0  0  0  0  0
   -0.4500   -0.1770   -2.0420 C   0  0  0  0  0  0  0  0  0  0  0  0
   -1.1240    0.5110   -3.0430 C   0  0  0  0  0  0  0  0  0  0  0  0
   -2.4790    0.7290   -2.9770 C   0  0  0  0  0  0  0  0  0  0  0  0
   -3.1150    0.2510   -1.9090 N   0  0  0  0  0  0  0  0  0  0  0  0
   -2.5230   -0.4180   -0.9140 C   0  0  0  0  0  0  0  0  0  0  0  0
   -3.2890   -0.8910    0.1900 O   0  0  0  0  0  0  0  0  0  0  0  0
   -4.6720   -0.6420    0.1860 C   0  0  0  0  0  0  0  0  0  0  0  0
   -5.0080    0.3050    1.0230 C   0  0  0  0  0  0  0  0  0  0  0  0
   -3.8300    0.7080    1.6170 C   0  0  0  0  0  0  0  0  0  0  0  0
   -3.8980    1.7190    2.5530 C   0  0  0  0  0  0  0  0  0  0  0  0
   -5.1040    2.3010    2.8760 C   0  0  0  0  0  0  0  0  0  0  0  0
   -6.2720    1.9010    2.2860 C   0  0  0  0  0  0  0  0  0  0  0  0
   -6.2280    0.8920    1.3470 C   0  0  0  0  0  0  0  0  0  0  0  0
   -7.4800    0.7260    0.9240 C   0  0  0  0  0  0  0  0  0  0  0  0
   -8.2350   -0.0750   -0.0240 C   0  0  0  0  0  0  0  0  0  0  0  0
   -7.8850   -1.0380   -0.8600 C   0  0  0  0  0  0  0  0  0  0  0  0
   -6.6220   -1.7070   -1.1960 C   0  0  0  0  0  0  0  0  0  0  0  0
   -5.3920   -1.5140   -0.7580 C   0  0  0  0  0  0  0  0  0  0  0  0
   -4.4270   -2.4690   -1.3750 C   0  0  0  0  0  0  0  0  0  0  0  0
   -1.1710   -0.6370   -0.9770 C   0  0  0  0  0  0  0  0  0  0  0  0
    3.2100   -0.4030   -1.0650 C   0  0  0  0  0  0  0  0  0  0  0  0
    3.9010   -0.5790   -2.1380 O   0  0  0  0  0  0  0  0  0  0  0  0
    5.8460   -1.5520    0.8030 N   0  0  0  0  0  0  0  0  0  0  0  0
    7.1910   -1.1790    0.9530 C   0  0  0  0  0  0  0  0  0  0  0  0
    8.1510   -2.1300    1.4660 C   0  0  0  0  0  0  0  0  0  0  0  0
    9.2690   -1.8660    1.8750 O   0  0  0  0  0  0  0  0  0  0  0  0
  1  2  1  0
  2  3  2  0
  2  4  1  0
  4  5  1  0
  5  6  1  0
  5 37  2  0
  6  7  1  0
  7  8  1  0
  7 36  2  0
  8  9  1  0
  8 34  1  0
  9 10  2  0
  9 11  1  0
 11 12  1  0
 12 13  2  3
 12 34  1  0
 13 14  1  0
 14 15  2  0
 14 33  1  0
 15 16  1  0
 16 17  2  0
 17 18  1  0
 18 19  1  0
 18 33  2  0
 19 20  1  0
 20 21  2  0
 20 31  1  0
 21 22  1  0
 21 26  1  0
 22 23  2  0
 23 24  1  0
 24 25  2  0
 25 26  1  0
 26 27  2  0
 27 28  1  0
 28 29  2  0
 29 30  1  0
 30 31  2  0
 31 32  1  0
 34 35  2  0
 36 37  1  0
 37 38  1  0
 38 39  2  0
M  END
