
     RDKit          3D

 39 43  0  0  0  0  0  0  0  0999 V2000
   -1.9700   -2.9100    0.4210 C   0  0  0  0  0  0  0  0  0  0  0  0
   -1.2850   -1.8400    0.0420 O   0  0  0  0  0  0  0  0  0  0  0  0
   -1.1450   -0.7750   -0.7250 C   0  0  0  0  0  0  0  0  0  0  0  0
    0.2120   -0.1720   -0.8740 C   0  0  0  0  0  0  0  0  0  0  0  0
    0.3780    0.8430   -1.5940 O   0  0  0  0  0  0  0  0  0  0  0  0
    1.3040   -0.7390   -0.2070 N   0  0  0  0  0  0  0  0  0  0  0  0
    1.2470   -1.9100    0.6040 C   0  0  0  0  0  0  0  0  0  0  0  0
    2.5660   -2.4080    1.0670 C   0  0  0  0  0  0  0  0  0  0  0  0
    3.5960   -1.3700    1.4520 C   0  0  0  0  0  0  0  0  0  0  0  0
    3.1280   -0.0130    1.1490 C   0  0  1  0  0  0  0  0  0  0  0  0
    1.9780    0.3210    1.9000 O   0  0  0  0  0  0  0  0  0  0  0  0
    4.0640    1.1120    1.2120 C   0  0  0  0  0  0  0  0  0  0  0  0
    5.3360    0.9830    0.5600 N   0  0  0  0  0  0  0  0  0  0  0  0
    5.8740    2.3630    0.3410 C   0  0  0  0  0  0  0  0  0  0  0  0
    6.8310    2.2980   -0.8160 C   0  0  0  0  0  0  0  0  0  0  0  0
    8.1570    1.7480   -0.3470 C   0  0  0  0  0  0  0  0  0  0  0  0
    8.0170    0.3200   -0.1790 N   0  0  0  0  0  0  0  0  0  0  0  0
    8.7050   -0.4830   -1.1220 C   0  0  0  0  0  0  0  0  0  0  0  0
    8.6720   -1.7390   -1.0950 O   0  0  0  0  0  0  0  0  0  0  0  0
    7.2800   -0.4560    0.8090 C   0  0  0  0  0  0  0  0  0  0  0  0
    6.2760    0.3710    1.5260 C   0  0  0  0  0  0  0  0  0  0  0  0
    2.6060   -0.0720   -0.3170 C   0  0  0  0  0  0  0  0  0  0  0  0
   -2.1210   -0.1750   -1.3890 C   0  0  0  0  0  0  0  0  0  0  0  0
   -1.9110    1.0250   -2.2360 C   0  0  0  0  0  0  0  0  0  0  0  0
   -3.4730   -0.7250   -1.3510 C   0  0  0  0  0  0  0  0  0  0  0  0
   -3.8040   -1.9620   -1.7280 C   0  0  0  0  0  0  0  0  0  0  0  0
   -5.6250   -2.0190   -1.3790 S   0  0  0  0  0  0  0  0  0  0  0  0
   -5.5810   -0.2580   -0.7550 C   0  0  0  0  0  0  0  0  0  0  0  0
   -6.8450    0.3570   -0.2710 C   0  0  0  0  0  0  0  0  0  0  0  0
   -6.9110    1.6290    0.1800 C   0  0  0  0  0  0  0  0  0  0  0  0
   -8.2240    1.8460    0.5400 C   0  0  0  0  0  0  0  0  0  0  0  0
   -8.9040    0.6780    0.2860 C   0  0  0  0  0  0  0  0  0  0  0  0
  -10.3360    0.4130    0.5070 C   0  0  0  0  0  0  0  0  0  0  0  0
  -11.2450    1.2970    1.0070 C   0  0  0  0  0  0  0  0  0  0  0  0
  -12.4690    0.6750    1.0600 C   0  0  0  0  0  0  0  0  0  0  0  0
  -12.2570   -0.6090    0.5740 C   0  0  0  0  0  0  0  0  0  0  0  0
  -11.0050   -0.6870    0.2750 O   0  0  0  0  0  0  0  0  0  0  0  0
   -8.0210   -0.1650   -0.1950 O   0  0  0  0  0  0  0  0  0  0  0  0
   -4.4940   -0.0020   -0.8840 N   0  0  0  0  0  0  0  0  0  0  0  0
  1  2  1  0
  2  3  1  0
  3  4  1  0
  3 23  2  3
  4  5  2  0
  4  6  1  0
  6  7  1  0
  6 22  1  0
  7  8  1  0
  8  9  1  0
  9 10  1  0
 10 11  1  1
 10 12  1  0
 10 22  1  0
 12 13  1  0
 13 14  1  0
 13 21  1  0
 14 15  1  0
 15 16  1  0
 16 17  1  0
 17 18  1  0
 17 20  1  0
 18 19  2  0
 20 21  1  0
 23 24  1  0
 23 25  1  0
 25 26  2  0
 25 39  1  0
 26 27  1  0
 27 28  1  0
 28 29  1  0
 28 39  2  0
 29 30  2  0
 29 38  1  0
 30 31  1  0
 31 32  2  0
 32 33  1  0
 32 38  1  0
 33 34  2  0
 33 37  1  0
 34 35  1  0
 35 36  2  0
 36 37  1  0
M  END
