
     RDKit          3D

 39 43  0  0  0  0  0  0  0  0999 V2000
   10.9290   -0.4960   -0.0140 C   0  0  0  0  0  0  0  0  0  0  0  0
   11.6820    0.5660    0.7900 C   0  0  0  0  0  0  0  0  0  0  0  0
   11.3740    1.9680    0.1860 C   0  0  0  0  0  0  0  0  0  0  0  0
    9.8690    2.1400    0.3260 C   0  0  0  0  0  0  0  0  0  0  0  0
    9.2380    2.9290    1.3320 C   0  0  0  0  0  0  0  0  0  0  0  0
    7.8460    2.7620    1.0350 C   0  0  0  0  0  0  0  0  0  0  0  0
    7.7140    1.9670   -0.0200 C   0  0  0  0  0  0  0  0  0  0  0  0
    6.5480    1.4280   -0.7610 C   0  0  0  0  0  0  0  0  0  0  0  0
    6.8020    1.0810   -2.0800 N   0  0  0  0  0  0  0  0  0  0  0  0
    5.6720    0.6580   -2.5700 C   0  0  0  0  0  0  0  0  0  0  0  0
    4.7140    0.7420   -1.5220 C   0  0  0  0  0  0  0  0  0  0  0  0
    3.3540    0.3170   -1.8750 C   0  0  0  0  0  0  0  0  0  0  0  0
    2.3240   -0.0300   -0.9050 N   0  0  0  0  0  0  0  0  0  0  0  0
    1.2210   -0.3690   -1.6080 C   0  0  0  0  0  0  0  0  0  0  0  0
   -0.1200   -0.6670   -1.2250 C   0  0  0  0  0  0  0  0  0  0  0  0
   -0.9040   -1.0410   -2.2170 O   0  0  0  0  0  0  0  0  0  0  0  0
   -0.6960   -0.5950    0.0600 C   0  0  0  0  0  0  0  0  0  0  0  0
   -1.2040   -0.5270    1.2310 C   0  0  0  0  0  0  0  0  0  0  0  0
   -1.7170   -0.4400    2.4130 C   0  0  0  0  0  0  0  0  0  0  0  0
   -3.1610   -0.7000    2.4300 N   0  0  0  0  0  0  0  0  0  0  0  0
   -4.0080    0.2440    1.6340 C   0  0  0  0  0  0  0  0  0  0  0  0
   -3.3610    1.1610    1.1000 O   0  0  0  0  0  0  0  0  0  0  0  0
   -5.4110   -0.0400    1.5850 C   0  0  0  0  0  0  0  0  0  0  0  0
   -6.3390    0.7890    0.8500 N   0  0  0  0  0  0  0  0  0  0  0  0
   -7.6270    0.0420    1.0150 C   0  0  0  0  0  0  0  0  0  0  0  0
   -7.7510   -0.8780   -0.1410 C   0  0  1  0  0  0  0  0  0  0  0  0
   -8.7530   -1.9400    0.1180 C   0  0  0  0  0  0  0  0  0  0  0  0
   -9.0880   -2.9490   -0.7020 C   0  0  0  0  0  0  0  0  0  0  0  0
   -9.9350   -3.9070   -0.3340 C   0  0  0  0  0  0  0  0  0  0  0  0
  -10.5020   -3.8230    0.9670 C   0  0  0  0  0  0  0  0  0  0  0  0
   -9.6950   -2.3100    1.5520 S   0  0  0  0  0  0  0  0  0  0  0  0
   -8.0150   -0.1810   -1.2780 O   0  0  0  0  0  0  0  0  0  0  0  0
   -7.1670    0.9110   -1.4430 C   0  0  0  0  0  0  0  0  0  0  0  0
   -5.9800    0.9280   -0.5190 C   0  0  2  0  0  0  0  0  0  0  0  0
   -4.9200    0.0510   -1.0740 C   0  0  0  0  0  0  0  0  0  0  0  0
    1.6120   -0.2320   -3.0160 C   0  0  0  0  0  0  0  0  0  0  0  0
    2.7770    0.1410   -2.9500 O   0  0  0  0  0  0  0  0  0  0  0  0
    5.3120    1.2060   -0.4990 O   0  0  0  0  0  0  0  0  0  0  0  0
    8.9750    1.6560   -0.3660 O   0  0  0  0  0  0  0  0  0  0  0  0
  1  2  1  0
  2  3  1  0
  3  4  1  0
  4  5  2  0
  4 39  1  0
  5  6  1  0
  6  7  2  0
  7  8  1  0
  7 39  1  0
  8  9  2  0
  8 38  1  0
  9 10  1  0
 10 11  2  0
 11 12  1  0
 11 38  1  0
 12 13  2  0
 12 37  1  0
 13 14  1  0
 14 15  1  0
 14 36  2  0
 15 16  2  0
 15 17  1  0
 17 18  3  0
 18 19  1  0
 19 20  1  0
 20 21  1  0
 21 22  2  0
 21 23  1  0
 23 24  1  0
 24 25  1  0
 24 34  1  0
 25 26  1  0
 26 27  1  1
 26 32  1  0
 27 28  2  0
 27 31  1  0
 28 29  1  0
 29 30  2  0
 30 31  1  0
 32 33  1  0
 33 34  1  0
 34 35  1  6
 36 37  1  0
M  END
