
     RDKit          3D

 39 43  0  0  0  0  0  0  0  0999 V2000
   -8.9350   -0.2770    0.7010 C   0  0  0  0  0  0  0  0  0  0  0  0
   -8.2130   -0.6130   -0.3360 C   0  0  0  0  0  0  0  0  0  0  0  0
   -6.8580   -1.2060   -0.1000 C   0  0  0  0  0  0  0  0  0  0  0  0
   -5.8630   -0.7400   -1.1200 C   0  0  2  0  0  0  0  0  0  0  0  0
   -4.8850    0.2460   -0.4560 C   0  0  1  0  0  0  0  0  0  0  0  0
   -4.1510   -0.4230    0.7020 C   0  0  0  0  0  0  0  0  0  0  0  0
   -2.7830    0.1460    0.6030 N   0  0  0  0  0  0  0  0  0  0  0  0
   -2.0070    0.4810    1.7260 C   0  0  0  0  0  0  0  0  0  0  0  0
   -0.8730    1.1490    1.8220 C   0  0  0  0  0  0  0  0  0  0  0  0
   -0.0490    1.7760    0.7810 C   0  0  0  0  0  0  0  0  0  0  0  0
    1.2720    1.1190    0.5990 C   0  0  0  0  0  0  0  0  0  0  0  0
    1.5420    0.0970    1.2660 O   0  0  0  0  0  0  0  0  0  0  0  0
    2.2330    1.6250   -0.3150 N   0  0  0  0  0  0  0  0  0  0  0  0
    3.5160    0.9700   -0.4810 C   0  0  0  0  0  0  0  0  0  0  0  0
    4.5730    1.6710   -0.2020 C   0  0  0  0  0  0  0  0  0  0  0  0
    5.9390    1.1500   -0.3160 C   0  0  0  0  0  0  0  0  0  0  0  0
    6.3190   -0.0510    0.1290 N   0  0  0  0  0  0  0  0  0  0  0  0
    7.5440   -0.5750    0.0470 C   0  0  0  0  0  0  0  0  0  0  0  0
    8.5730    0.1890   -0.5680 C   0  0  0  0  0  0  0  0  0  0  0  0
    9.8560   -0.1870   -0.7330 C   0  0  0  0  0  0  0  0  0  0  0  0
   10.4680   -1.5200   -0.2910 C   0  0  0  0  0  0  0  0  0  0  0  0
   10.7020    0.7040   -1.3580 C   0  0  0  0  0  0  0  0  0  0  0  0
    9.6190    2.0920   -1.7030 S   0  0  0  0  0  0  0  0  0  0  0  0
    8.1730    1.3960   -1.0100 C   0  0  0  0  0  0  0  0  0  0  0  0
    6.9060    1.8830   -0.9000 N   0  0  0  0  0  0  0  0  0  0  0  0
    3.4810   -0.3810   -0.9580 C   0  0  0  0  0  0  0  0  0  0  0  0
    2.3280   -0.9110   -1.1920 O   0  0  0  0  0  0  0  0  0  0  0  0
    4.5340   -1.2220   -1.2140 O   0  0  0  0  0  0  0  0  0  0  0  0
    4.3910   -2.5480   -1.6900 C   0  0  0  0  0  0  0  0  0  0  0  0
   -0.4250    1.2250    3.2720 C   0  0  0  0  0  0  0  0  0  0  0  0
   -1.1920    0.1360    3.9550 C   0  0  0  0  0  0  0  0  0  0  0  0
   -2.4270    0.0630    3.1330 C   0  0  0  0  0  0  0  0  0  0  0  0
   -2.6200    0.2660   -0.7790 C   0  0  0  0  0  0  0  0  0  0  0  0
   -1.5720    0.0710   -1.4180 O   0  0  0  0  0  0  0  0  0  0  0  0
   -3.8630    0.6430   -1.3250 O   0  0  0  0  0  0  0  0  0  0  0  0
   -6.4540   -0.0130   -2.2930 C   0  0  0  0  0  0  0  0  0  0  0  0
   -7.7250   -0.4630   -2.6880 O   0  0  0  0  0  0  0  0  0  0  0  0
   -8.7140   -0.4140   -1.6770 C   0  0  0  0  0  0  0  0  0  0  0  0
   -9.9770   -0.2090   -1.9110 C   0  0  0  0  0  0  0  0  0  0  0  0
  1  2  2  0
  2  3  1  0
  2 38  1  0
  4  3  1  1
  4  5  1  0
  4 36  1  0
  5  6  1  1
  5 35  1  0
  6  7  1  0
  7  8  1  0
  7 33  1  0
  8  9  2  0
  8 32  1  0
  9 10  1  0
  9 30  1  0
 10 11  1  0
 11 12  2  0
 11 13  1  0
 13 14  1  0
 14 15  2  3
 14 26  1  0
 15 16  1  0
 16 17  2  0
 16 25  1  0
 17 18  1  0
 18 19  2  0
 19 20  1  0
 19 24  1  0
 20 21  1  0
 20 22  2  0
 22 23  1  0
 23 24  1  0
 24 25  2  0
 26 27  2  0
 26 28  1  0
 28 29  1  0
 30 31  1  0
 31 32  1  0
 33 34  2  0
 33 35  1  0
 36 37  1  0
 37 38  1  0
 38 39  2  0
M  END
