
     RDKit          3D

 22 24  0  0  0  0  0  0  0  0999 V2000
   -3.1670    2.3450    0.4200 C   0  0  0  0  0  0  0  0  0  0  0  0
   -2.8000    1.4320   -0.7310 C   0  0  0  0  0  0  0  0  0  0  0  0
   -1.4000    1.1930   -0.8070 N   0  0  0  0  0  0  0  0  0  0  0  0
   -0.7780    0.1590   -0.2800 C   0  0  0  0  0  0  0  0  0  0  0  0
   -1.3370   -0.9660    0.3900 N   0  0  0  0  0  0  0  0  0  0  0  0
   -2.6360   -1.3490    0.7130 C   0  0  2  0  0  0  0  0  0  0  0  0
   -3.3630   -0.6190    1.7870 C   0  0  0  0  0  0  0  0  0  0  0  0
   -2.6120   -2.8620    1.1930 C   0  0  0  0  0  0  0  0  0  0  0  0
    0.5900    0.1010   -0.4010 N   0  0  0  0  0  0  0  0  0  0  0  0
    1.3930    1.0070   -1.0170 C   0  0  0  0  0  0  0  0  0  0  0  0
    2.7150    0.9580   -1.1410 C   0  0  0  0  0  0  0  0  0  0  0  0
    3.5910   -0.1490   -0.6000 C   0  0  0  0  0  0  0  0  0  0  0  0
    3.4340   -0.6310    0.6690 C   0  0  0  0  0  0  0  0  0  0  0  0
    4.2590   -1.6470    1.1080 C   0  0  0  0  0  0  0  0  0  0  0  0
    5.2170   -2.1560    0.2740 C   0  0  0  0  0  0  0  0  0  0  0  0
    5.3780   -1.6860   -0.9760 N   0  0  0  0  0  0  0  0  0  0  0  0
    4.5590   -0.6810   -1.4050 C   0  0  0  0  0  0  0  0  0  0  0  0
    3.3770    1.9790   -1.8100 C   0  0  0  0  0  0  0  0  0  0  0  0
    1.9580    3.0940   -2.2940 S   0  0  0  0  0  0  0  0  0  0  0  0
    0.6610    2.0610   -1.5450 C   0  0  0  0  0  0  0  0  0  0  0  0
   -0.6570    2.1740   -1.4610 C   0  0  0  0  0  0  0  0  0  0  0  0
   -1.2400    3.1630   -1.9680 O   0  0  0  0  0  0  0  0  0  0  0  0
  1  2  1  0
  2  3  1  0
  3  4  1  0
  3 21  1  0
  4  5  1  0
  4  9  2  0
  5  6  1  0
  6  7  1  1
  6  8  1  0
  9 10  1  0
 10 11  1  0
 10 20  2  0
 11 12  1  0
 11 18  2  0
 12 13  2  0
 12 17  1  0
 13 14  1  0
 14 15  2  0
 15 16  1  0
 16 17  2  0
 18 19  1  0
 19 20  1  0
 20 21  1  0
 21 22  2  0
M  END
