
     RDKit          3D

 22 24  0  0  0  0  0  0  0  0999 V2000
    7.8700   -0.5480    1.8310 C   0  0  0  0  0  0  0  0  0  0  0  0
    7.2110    0.9880    1.1720 S   0  0  0  0  0  0  0  0  0  0  0  0
    5.4390    0.8650    0.8470 C   0  0  0  0  0  0  0  0  0  0  0  0
    5.1330   -0.1100   -0.2520 C   0  0  0  0  0  0  0  0  0  0  0  0
    3.6780   -0.1910   -0.5010 C   0  0  0  0  0  0  0  0  0  0  0  0
    2.7330    0.5420    0.1900 C   0  0  0  0  0  0  0  0  0  0  0  0
    1.5130    0.2090   -0.3060 C   0  0  0  0  0  0  0  0  0  0  0  0
    0.2120    0.7160    0.1050 C   0  0  0  0  0  0  0  0  0  0  0  0
    0.0870    1.6620    1.0990 C   0  0  0  0  0  0  0  0  0  0  0  0
   -1.1750    2.0780    1.4220 C   0  0  0  0  0  0  0  0  0  0  0  0
   -2.3000    1.6250    0.8340 N   0  0  0  0  0  0  0  0  0  0  0  0
   -2.1930    0.6960   -0.1440 C   0  0  0  0  0  0  0  0  0  0  0  0
   -3.3930    0.2210   -0.7650 N   0  0  0  0  0  0  0  0  0  0  0  0
   -4.6300    0.8730   -0.3720 C   0  0  0  0  0  0  0  0  0  0  0  0
   -5.6930   -0.0580    0.1000 C   0  0  0  0  0  0  0  0  0  0  0  0
   -5.2290   -1.4370    0.4290 C   0  0  0  0  0  0  0  0  0  0  0  0
   -4.8380   -2.2060   -0.6290 O   0  0  0  0  0  0  0  0  0  0  0  0
   -4.6500   -1.5270   -1.8140 C   0  0  0  0  0  0  0  0  0  0  0  0
   -3.2730   -0.8570   -1.7200 C   0  0  0  0  0  0  0  0  0  0  0  0
   -0.9570    0.2510   -0.5000 C   0  0  0  0  0  0  0  0  0  0  0  0
    1.7240   -0.7000   -1.2690 N   0  0  0  0  0  0  0  0  0  0  0  0
    3.0180   -0.9500   -1.3980 N   0  0  0  0  0  0  0  0  0  0  0  0
  1  2  1  0
  2  3  1  0
  3  4  1  0
  4  5  1  0
  5  6  1  0
  5 22  2  0
  6  7  2  0
  7  8  1  0
  7 21  1  0
  8  9  2  0
  8 20  1  0
  9 10  1  0
 10 11  2  0
 11 12  1  0
 12 13  1  0
 12 20  2  0
 13 14  1  0
 13 19  1  0
 14 15  1  0
 15 16  1  0
 16 17  1  0
 17 18  1  0
 18 19  1  0
 21 22  1  0
M  END
