
     RDKit          3D

 22 24  0  0  0  0  0  0  0  0999 V2000
   -1.3370    1.1460   -3.4480 C   0  0  0  0  0  0  0  0  0  0  0  0
   -0.6440    0.8690   -2.1220 C   0  0  0  0  0  0  0  0  0  0  0  0
   -1.3550    0.2220   -1.2140 C   0  0  0  0  0  0  0  0  0  0  0  0
   -2.6720   -0.2370   -1.3440 O   0  0  0  0  0  0  0  0  0  0  0  0
   -3.0700   -0.8570   -0.2050 N   0  0  0  0  0  0  0  0  0  0  0  0
   -2.1940   -0.8910    0.7130 C   0  0  0  0  0  0  0  0  0  0  0  0
   -2.2870   -1.4870    2.0820 C   0  0  0  0  0  0  0  0  0  0  0  0
   -1.3120   -1.5070    2.9930 C   0  0  0  0  0  0  0  0  0  0  0  0
   -1.4930   -2.0800    4.1860 C   0  0  0  0  0  0  0  0  0  0  0  0
   -3.1850   -2.6870    4.1230 S   0  0  0  0  0  0  0  0  0  0  0  0
   -3.4770   -2.0840    2.4380 C   0  0  0  0  0  0  0  0  0  0  0  0
   -4.7560   -2.2460    1.6830 C   0  0  0  0  0  0  0  0  0  0  0  0
   -0.9940   -0.1870    0.1370 C   0  0  0  0  0  0  0  0  0  0  0  0
    0.0180   -0.0310    0.7990 N   0  0  0  0  0  0  0  0  0  0  0  0
    1.1760    0.4260    0.8900 N   0  0  0  0  0  0  0  0  0  0  0  0
    2.4940    0.9460    0.9930 C   0  0  0  0  0  0  0  0  0  0  0  0
    3.2160    1.1060   -0.2820 C   0  0  0  0  0  0  0  0  0  0  0  0
    3.6490    0.0020   -1.0250 C   0  0  0  0  0  0  0  0  0  0  0  0
    4.3220    0.1390   -2.2090 C   0  0  0  0  0  0  0  0  0  0  0  0
    4.5840    1.3710   -2.6900 N   0  0  0  0  0  0  0  0  0  0  0  0
    4.1910    2.4770   -2.0180 C   0  0  0  0  0  0  0  0  0  0  0  0
    3.5120    2.3490   -0.8210 C   0  0  0  0  0  0  0  0  0  0  0  0
  1  2  1  0
  2  3  2  3
  3  4  1  0
  3 13  1  0
  4  5  1  0
  5  6  2  0
  6  7  1  0
  6 13  1  0
  7  8  1  0
  7 11  2  0
  8  9  2  0
  9 10  1  0
 10 11  1  0
 11 12  1  0
 13 14  2  3
 14 15  1  0
 15 16  1  0
 16 17  1  0
 17 18  2  0
 17 22  1  0
 18 19  1  0
 19 20  2  0
 20 21  1  0
 21 22  2  0
M  END
