
     RDKit          3D

 22 24  0  0  0  0  0  0  0  0999 V2000
    6.2440   -2.7120   -1.0510 C   0  0  0  0  0  0  0  0  0  0  0  0
    5.2050   -2.5780   -0.0980 O   0  0  0  0  0  0  0  0  0  0  0  0
    4.4770   -1.4020   -0.0690 C   0  0  0  0  0  0  0  0  0  0  0  0
    4.7610   -0.5000   -0.8820 O   0  0  0  0  0  0  0  0  0  0  0  0
    3.4140   -1.1580    0.8420 N   0  0  0  0  0  0  0  0  0  0  0  0
    2.7140    0.0730    0.8110 C   0  0  0  0  0  0  0  0  0  0  0  0
    1.4120    0.1130    0.5820 C   0  0  0  0  0  0  0  0  0  0  0  0
    0.6560    1.3790    0.5440 C   0  0  0  0  0  0  0  0  0  0  0  0
   -0.6360    1.3540    0.3120 C   0  0  0  0  0  0  0  0  0  0  0  0
   -1.4130   -0.2400    0.0530 S   0  0  0  0  0  0  0  0  0  0  0  0
   -3.1600    0.0400   -0.2470 C   0  0  0  0  0  0  0  0  0  0  0  0
   -3.9250   -1.1810   -0.4770 C   0  0  0  0  0  0  0  0  0  0  0  0
   -3.4340   -2.4080   -0.4760 C   0  0  0  0  0  0  0  0  0  0  0  0
   -4.5310   -3.3820   -0.7490 C   0  0  0  0  0  0  0  0  0  0  0  0
   -5.7000   -2.4960   -0.8980 C   0  0  0  0  0  0  0  0  0  0  0  0
   -5.3540   -1.2410   -0.7430 C   0  0  0  0  0  0  0  0  0  0  0  0
   -1.3990    2.6170    0.2640 C   0  0  0  0  0  0  0  0  0  0  0  0
   -0.7310    3.6150    1.1750 C   0  0  0  0  0  0  0  0  0  0  0  0
    0.7050    3.8460    0.7480 C   0  0  0  0  0  0  0  0  0  0  0  0
    1.3860    2.5670    0.7650 N   0  0  0  0  0  0  0  0  0  0  0  0
    2.7560    2.4760    1.0020 N   0  0  0  0  0  0  0  0  0  0  0  0
    3.4000    1.3360    1.0300 C   0  0  0  0  0  0  0  0  0  0  0  0
  1  2  1  0
  2  3  1  0
  3  4  2  0
  3  5  1  0
  5  6  1  0
  6  7  2  0
  6 22  1  0
  7  8  1  0
  8  9  2  0
  8 20  1  0
  9 10  1  0
  9 17  1  0
 10 11  1  0
 11 12  1  0
 12 13  2  0
 12 16  1  0
 13 14  1  0
 14 15  1  0
 15 16  2  0
 17 18  1  0
 18 19  1  0
 19 20  1  0
 20 21  1  0
 21 22  2  0
M  END
