
     RDKit          3D

 11 11  0  0  0  0  0  0  0  0999 V2000
   -2.5400    0.7980    0.3680 N   0  0  0  0  0  0  0  0  0  0  0  0
   -2.0790   -0.2180   -0.5510 C   0  0  0  0  0  0  0  0  0  0  0  0
   -0.6310   -0.5730   -0.3050 C   0  0  2  0  0  0  0  0  0  0  0  0
   -0.3940   -1.1560    1.0490 C   0  0  0  0  0  0  0  0  0  0  0  0
    0.9620   -0.9910    1.4100 O   0  0  0  0  0  0  0  0  0  0  0  0
    1.7570   -1.0450    0.2420 C   0  0  0  0  0  0  0  0  0  0  0  0
    1.4620    0.1180   -0.6780 C   0  0  2  0  0  0  0  0  0  0  0  0
    2.3970    1.2230   -0.5360 C   0  0  0  0  0  0  0  0  0  0  0  0
    3.6240    1.0470   -0.6820 O   0  0  0  0  0  0  0  0  0  0  0  0
    1.9430    2.4900   -0.2360 O   0  0  0  0  0  0  0  0  0  0  0  0
    0.1480    0.5580   -0.4700 O   0  0  0  0  0  0  0  0  0  0  0  0
  1  2  1  0
  3  2  1  1
  3  4  1  0
  3 11  1  0
  4  5  1  0
  5  6  1  0
  6  7  1  0
  7  8  1  1
  7 11  1  0
  8  9  2  0
  8 10  1  0
M  CHG  1   1   1
M  END
