
     RDKit          3D

 10 10  0  0  0  0  0  0  0  0999 V2000
   -1.9320    1.2290   -0.5100 N   0  0  0  0  0  0  0  0  0  0  0  0
   -1.1150    0.0250   -0.6940 C   0  0  2  0  0  0  0  0  0  0  0  0
   -1.6970   -1.0500    0.1300 C   0  0  0  0  0  0  0  0  0  0  0  0
   -1.7070   -0.6920    1.4660 O   0  0  0  0  0  0  0  0  0  0  0  0
    0.2910    0.3820   -0.5030 C   0  0  1  0  0  0  0  0  0  0  0  0
    0.6490    0.9480    0.8500 C   0  0  0  0  0  0  0  0  0  0  0  0
    2.0400    1.0470    0.7200 O   0  0  0  0  0  0  0  0  0  0  0  0
    2.3960   -0.2430    0.3110 C   0  0  2  0  0  0  0  0  0  0  0  0
    3.6540   -0.2890   -0.2430 O   0  0  0  0  0  0  0  0  0  0  0  0
    1.3110   -0.6760   -0.6860 C   0  0  0  0  0  0  0  0  0  0  0  0
  2  1  1  1
  2  3  1  0
  2  5  1  0
  3  4  1  0
  5  6  1  1
  5 10  1  0
  6  7  1  0
  7  8  1  0
  8  9  1  6
  8 10  1  0
M  CHG  1   1   1
M  END
