
     RDKit          3D

 11 11  0  0  0  0  0  0  0  0999 V2000
   -1.4410   -0.1850    1.1730 N   0  0  0  0  0  0  0  0  0  0  0  0
   -0.5400   -0.1240    0.0260 C   0  0  1  0  0  0  0  0  0  0  0  0
   -1.2880   -0.7550   -1.1570 C   0  0  0  0  0  0  0  0  0  0  0  0
   -2.4570   -0.0460   -1.4160 O   0  0  0  0  0  0  0  0  0  0  0  0
   -0.2180    1.3220   -0.2800 C   0  0  0  0  0  0  0  0  0  0  0  0
    0.8900    1.3770   -1.1690 O   0  0  0  0  0  0  0  0  0  0  0  0
    2.0390    0.7100   -0.7610 C   0  0  0  0  0  0  0  0  0  0  0  0
    3.1290    0.7810   -1.3740 O   0  0  0  0  0  0  0  0  0  0  0  0
    1.9340   -0.1220    0.4660 C   0  0  1  0  0  0  0  0  0  0  0  0
    1.9810    0.6600    1.6140 O   0  0  0  0  0  0  0  0  0  0  0  0
    0.6700   -0.9290    0.3610 C   0  0  0  0  0  0  0  0  0  0  0  0
  2  1  1  1
  2  3  1  0
  2  5  1  0
  2 11  1  0
  3  4  1  0
  5  6  1  0
  6  7  1  0
  7  8  2  0
  7  9  1  0
  9 10  1  1
  9 11  1  0
M  CHG  1   1   1
M  END
