
     RDKit          3D

 16 17  0  0  0  0  0  0  0  0999 V2000
   -1.4170   -2.4510    0.8830 F   0  0  0  0  0  0  0  0  0  0  0  0
   -1.9740   -1.8710   -0.2390 C   0  0  1  0  0  0  0  0  0  0  0  0
   -1.4650   -2.3460   -1.4250 F   0  0  0  0  0  0  0  0  0  0  0  0
   -3.3170   -2.3070   -0.2440 F   0  0  0  0  0  0  0  0  0  0  0  0
   -1.9790   -0.3930   -0.1560 C   0  0  0  0  0  0  0  0  0  0  0  0
   -3.2300    0.2350   -0.2840 C   0  0  0  0  0  0  0  0  0  0  0  0
   -3.3070    1.5920   -0.2310 C   0  0  0  0  0  0  0  0  0  0  0  0
   -2.1510    2.3170   -0.0530 C   0  0  0  0  0  0  0  0  0  0  0  0
   -0.9680    1.6960    0.0670 N   0  0  0  0  0  0  0  0  0  0  0  0
   -0.8450    0.3570    0.0210 C   0  0  0  0  0  0  0  0  0  0  0  0
    0.4070   -0.2320    0.1610 N   0  0  0  0  0  0  0  0  0  0  0  0
    1.0690   -0.9820   -0.8630 C   0  0  0  0  0  0  0  0  0  0  0  0
    2.5400   -0.5990   -0.8580 C   0  0  0  0  0  0  0  0  0  0  0  0
    2.6600    0.7200   -0.2880 N   0  0  0  0  0  0  0  0  0  0  0  0
    2.4830    0.5710    1.1510 C   0  0  0  0  0  0  0  0  0  0  0  0
    1.1380   -0.0850    1.4370 C   0  0  0  0  0  0  0  0  0  0  0  0
  2  1  1  1
  2  3  1  0
  2  4  1  0
  2  5  1  0
  5  6  2  0
  5 10  1  0
  6  7  1  0
  7  8  2  0
  8  9  1  0
  9 10  2  0
 10 11  1  0
 11 12  1  0
 11 16  1  0
 12 13  1  0
 13 14  1  0
 14 15  1  0
 15 16  1  0
M  CHG  1  14   1
M  END
