
     RDKit          3D

 10 10  0  0  0  0  0  0  0  0999 V2000
   -1.0040    1.6380    0.2650 N   0  0  0  0  0  0  0  0  0  0  0  0
    0.0290    0.6630    0.4170 C   0  0  2  0  0  0  0  0  0  0  0  0
    1.3210    1.1430   -0.1990 C   0  0  0  0  0  0  0  0  0  0  0  0
    2.3780    0.1130    0.1150 C   0  0  0  0  0  0  0  0  0  0  0  0
    1.9060   -1.0030    0.7460 O   0  0  0  0  0  0  0  0  0  0  0  0
    0.8360   -1.6130    0.1370 C   0  0  0  0  0  0  0  0  0  0  0  0
   -0.2890   -0.6740   -0.1890 C   0  0  2  0  0  0  0  0  0  0  0  0
   -0.4230   -0.6320   -1.5670 O   0  0  0  0  0  0  0  0  0  0  0  0
   -1.6100   -1.1470    0.3820 C   0  0  0  0  0  0  0  0  0  0  0  0
   -2.6330   -0.2750    0.0310 O   0  0  0  0  0  0  0  0  0  0  0  0
  2  1  1  6
  2  3  1  0
  2  7  1  0
  3  4  1  0
  4  5  1  0
  5  6  1  0
  6  7  1  0
  7  8  1  6
  7  9  1  0
  9 10  1  0
M  CHG  1   1   1
M  END
