
     RDKit          3D

 11 11  0  0  0  0  0  0  0  0999 V2000
   -2.0090    1.5380    0.5430 N   0  0  0  0  0  0  0  0  0  0  0  0
   -1.4510    0.3010    1.0090 C   0  0  0  0  0  0  0  0  0  0  0  0
   -0.5520   -0.3780    0.0220 C   0  0  1  0  0  0  0  0  0  0  0  0
   -0.1010   -1.5530    0.6300 O   0  0  0  0  0  0  0  0  0  0  0  0
   -1.2900   -0.8120   -1.2310 C   0  0  0  0  0  0  0  0  0  0  0  0
   -2.3400   -1.6310   -0.8170 O   0  0  0  0  0  0  0  0  0  0  0  0
    0.6800    0.4370   -0.2990 C   0  0  1  0  0  0  0  0  0  0  0  0
    1.3320    0.6930    0.8870 O   0  0  0  0  0  0  0  0  0  0  0  0
    2.5970    0.1210    0.8090 C   0  0  0  0  0  0  0  0  0  0  0  0
    2.7930    0.1410   -0.7130 C   0  0  0  0  0  0  0  0  0  0  0  0
    1.5180   -0.3390   -1.0890 O   0  0  0  0  0  0  0  0  0  0  0  0
  1  2  1  0
  2  3  1  0
  3  4  1  1
  3  5  1  0
  3  7  1  0
  5  6  1  0
  7  8  1  1
  7 11  1  0
  8  9  1  0
  9 10  1  0
 10 11  1  0
M  CHG  1   1   1
M  END
