
     RDKit          3D

 10 10  0  0  0  0  0  0  0  0999 V2000
    2.5040   -0.3950   -0.4480 N   0  0  0  0  0  0  0  0  0  0  0  0
    1.2660   -0.2610   -1.1510 C   0  0  0  0  0  0  0  0  0  0  0  0
    0.1350    0.2270   -0.2600 C   0  0  2  0  0  0  0  0  0  0  0  0
    0.4640    1.5890    0.3250 C   0  0  0  0  0  0  0  0  0  0  0  0
   -0.5500    2.0390    1.1660 O   0  0  0  0  0  0  0  0  0  0  0  0
   -0.0560   -0.8110    0.8110 C   0  0  0  0  0  0  0  0  0  0  0  0
   -1.4040   -1.4100    0.3770 C   0  0  0  0  0  0  0  0  0  0  0  0
   -2.0490   -0.1320   -0.1680 C   0  0  2  0  0  0  0  0  0  0  0  0
   -3.2030   -0.4210   -0.8790 O   0  0  0  0  0  0  0  0  0  0  0  0
   -1.0280    0.3390   -0.9770 O   0  0  0  0  0  0  0  0  0  0  0  0
  1  2  1  0
  3  2  1  6
  3  4  1  0
  3  6  1  0
  3 10  1  0
  4  5  1  0
  6  7  1  0
  7  8  1  0
  8  9  1  6
  8 10  1  0
M  CHG  1   1   1
M  END
