
     RDKit          3D

 11 11  0  0  0  0  0  0  0  0999 V2000
   -0.3710   -0.6050    1.8770 N   0  0  0  0  0  0  0  0  0  0  0  0
   -0.0490   -0.6690    0.4860 C   0  0  1  0  0  0  0  0  0  0  0  0
   -1.2750   -0.8080   -0.3720 C   0  0  0  0  0  0  0  0  0  0  0  0
   -2.2410    0.3310   -0.2250 C   0  0  1  0  0  0  0  0  0  0  0  0
   -1.7060    1.5520   -0.5580 O   0  0  0  0  0  0  0  0  0  0  0  0
   -3.3170    0.0780   -1.0810 O   0  0  0  0  0  0  0  0  0  0  0  0
    0.8340    0.4840    0.0420 C   0  0  1  0  0  0  0  0  0  0  0  0
    2.1960    0.2370    0.6840 C   0  0  0  0  0  0  0  0  0  0  0  0
    3.0470    0.8150   -0.2500 O   0  0  0  0  0  0  0  0  0  0  0  0
    2.4750    0.4900   -1.4760 C   0  0  0  0  0  0  0  0  0  0  0  0
    1.1200    0.3860   -1.2990 O   0  0  0  0  0  0  0  0  0  0  0  0
  2  1  1  1
  2  3  1  0
  2  7  1  0
  3  4  1  0
  4  5  1  6
  4  6  1  0
  7  8  1  1
  7 11  1  0
  8  9  1  0
  9 10  1  0
 10 11  1  0
M  CHG  1   1   1
M  END
