
     RDKit          3D

 26 29  0  0  0  0  0  0  0  0999 V2000
    1.2550   -2.2710   -1.2040 N   0  0  0  0  0  0  0  0  0  0  0  0
    2.3010   -1.3460   -0.9350 C   0  0  0  0  0  0  0  0  0  0  0  0
    3.4530   -1.7950   -1.3050 O   0  0  0  0  0  0  0  0  0  0  0  0
    2.1270   -0.0800   -0.3310 C   0  0  0  0  0  0  0  0  0  0  0  0
    0.7550    0.4040    0.0230 C   0  0  0  0  0  0  0  0  0  0  0  0
   -0.3430   -0.1690   -0.2200 C   0  0  0  0  0  0  0  0  0  0  0  0
   -1.6150    0.4830    0.2220 C   0  0  0  0  0  0  0  0  0  0  0  0
   -1.6270    1.6930    0.8780 C   0  0  0  0  0  0  0  0  0  0  0  0
   -2.8440    2.2750    1.2790 C   0  0  0  0  0  0  0  0  0  0  0  0
   -2.8010    3.8160    2.1100 Cl  0  0  0  0  0  0  0  0  0  0  0  0
   -4.0060    1.6190    1.0060 C   0  0  0  0  0  0  0  0  0  0  0  0
   -4.0160    0.3940    0.3440 C   0  0  0  0  0  0  0  0  0  0  0  0
   -2.7980   -0.1700   -0.0470 C   0  0  0  0  0  0  0  0  0  0  0  0
   -2.8350   -1.3730   -0.6950 C   0  0  0  0  0  0  0  0  0  0  0  0
   -4.0350   -2.0590   -0.9810 C   0  0  0  0  0  0  0  0  0  0  0  0
   -5.1930   -1.4490   -0.5690 C   0  0  0  0  0  0  0  0  0  0  0  0
   -6.5090   -1.8500   -0.6920 C   0  0  0  0  0  0  0  0  0  0  0  0
   -7.2810   -0.8680   -0.1070 C   0  0  0  0  0  0  0  0  0  0  0  0
   -6.4790    0.1030    0.3610 N   0  0  0  0  0  0  0  0  0  0  0  0
   -5.1980   -0.2430    0.0830 C   0  0  0  0  0  0  0  0  0  0  0  0
    3.0970    0.7310    0.0300 C   0  0  0  0  0  0  0  0  0  0  0  0
    4.5210    0.7280    0.0020 C   0  0  0  0  0  0  0  0  0  0  0  0
    5.2600    1.7860    0.4490 C   0  0  0  0  0  0  0  0  0  0  0  0
    6.6800    1.5520    0.3160 C   0  0  0  0  0  0  0  0  0  0  0  0
    6.8070    0.1560    0.1240 N   0  0  0  0  0  0  0  0  0  0  0  0
    5.5100   -0.2900   -0.3940 C   0  0  0  0  0  0  0  0  0  0  0  0
  1  2  1  0
  2  3  2  0
  2  4  1  0
  4  5  1  0
  4 21  2  3
  5  6  2  3
  6  7  1  0
  7  8  2  0
  7 13  1  0
  8  9  1  0
  9 10  1  0
  9 11  2  0
 11 12  1  0
 12 13  2  0
 12 20  1  0
 13 14  1  0
 14 15  2  0
 15 16  1  0
 16 17  1  0
 16 20  2  0
 17 18  2  0
 18 19  1  0
 19 20  1  0
 21 22  1  0
 22 23  2  0
 22 26  1  0
 23 24  1  0
 24 25  1  0
 25 26  1  0
M  CHG  1  25   1
M  END
