
     RDKit          3D

 12 12  0  0  0  0  0  0  0  0999 V2000
    3.9210    0.1960    0.8500 C   0  0  0  0  0  0  0  0  0  0  0  0
    2.5770    0.4800    0.3450 N   0  0  0  0  0  0  0  0  0  0  0  0
    2.0030    1.6930    0.2640 C   0  0  0  0  0  0  0  0  0  0  0  0
    0.7660    1.5560   -0.2500 N   0  0  0  0  0  0  0  0  0  0  0  0
    0.5110    0.2600   -0.5100 C   0  0  0  0  0  0  0  0  0  0  0  0
   -0.7170   -0.3560   -1.0780 C   0  0  0  0  0  0  0  0  0  0  0  0
   -1.7120   -0.7540   -0.0120 C   0  0  2  0  0  0  0  0  0  0  0  0
   -2.8480   -1.3330   -0.6880 N   0  0  0  0  0  0  0  0  0  0  0  0
   -2.1320    0.4750    0.6890 C   0  0  0  0  0  0  0  0  0  0  0  0
   -1.3380    1.1750    1.3600 O   0  0  0  0  0  0  0  0  0  0  0  0
   -3.4510    0.8760    0.6090 O   0  0  0  0  0  0  0  0  0  0  0  0
    1.6770   -0.4030   -0.1240 C   0  0  0  0  0  0  0  0  0  0  0  0
  1  2  1  0
  2  3  1  0
  2 12  1  0
  3  4  2  0
  4  5  1  0
  5  6  1  0
  5 12  2  0
  6  7  1  0
  7  8  1  6
  7  9  1  0
  9 10  2  0
  9 11  1  0
M  CHG  1   8   1
M  END
