
     RDKit          3D

 26 29  0  0  0  0  0  0  0  0999 V2000
   -6.0440    1.4830    0.0200 C   0  0  0  0  0  0  0  0  0  0  0  0
   -4.5820    1.3150   -0.1540 C   0  0  0  0  0  0  0  0  0  0  0  0
   -4.0840    0.0460   -0.3400 C   0  0  0  0  0  0  0  0  0  0  0  0
   -2.7200   -0.1990   -0.5170 C   0  0  0  0  0  0  0  0  0  0  0  0
   -2.2470   -1.5770   -0.7830 C   0  0  0  0  0  0  0  0  0  0  0  0
   -3.3450   -2.5350   -0.7440 N   0  0  0  0  0  0  0  0  0  0  0  0
   -1.9060    0.9120   -0.4910 C   0  0  0  0  0  0  0  0  0  0  0  0
   -0.4690    0.7980   -0.6110 C   0  0  0  0  0  0  0  0  0  0  0  0
    0.3130    0.2760    0.3070 C   0  0  0  0  0  0  0  0  0  0  0  0
   -0.1340   -0.2730    1.6090 C   0  0  0  0  0  0  0  0  0  0  0  0
    0.4980   -1.5490    1.8060 N   0  0  0  0  0  0  0  0  0  0  0  0
    1.9110   -1.6210    1.5790 C   0  0  0  0  0  0  0  0  0  0  0  0
    2.5980   -2.5050    2.1820 O   0  0  0  0  0  0  0  0  0  0  0  0
    2.5120   -0.6750    0.6620 C   0  0  0  0  0  0  0  0  0  0  0  0
    1.7810    0.2210    0.0560 C   0  0  0  0  0  0  0  0  0  0  0  0
    2.5830    1.0880   -0.8370 C   0  0  2  0  0  0  0  0  0  0  0  0
    2.1480    0.7890   -2.2140 N   0  0  0  0  0  0  0  0  0  0  0  0
    3.9530    0.5760   -0.6720 C   0  0  0  0  0  0  0  0  0  0  0  0
    5.1750    0.9400   -1.2190 C   0  0  0  0  0  0  0  0  0  0  0  0
    6.3030    0.2470   -0.8650 C   0  0  0  0  0  0  0  0  0  0  0  0
    6.2380   -0.8110    0.0330 C   0  0  0  0  0  0  0  0  0  0  0  0
    5.0410   -1.1950    0.5920 C   0  0  0  0  0  0  0  0  0  0  0  0
    3.9040   -0.4710    0.2130 C   0  0  0  0  0  0  0  0  0  0  0  0
   -2.4020    2.2020   -0.3030 C   0  0  0  0  0  0  0  0  0  0  0  0
   -3.7460    2.3940   -0.1350 C   0  0  0  0  0  0  0  0  0  0  0  0
   -4.3760    4.0360    0.1010 Cl  0  0  0  0  0  0  0  0  0  0  0  0
  1  2  1  0
  2  3  2  0
  2 25  1  0
  3  4  1  0
  4  5  1  0
  4  7  2  0
  5  6  1  0
  7  8  1  0
  7 24  1  0
  8  9  2  3
  9 10  1  0
  9 15  1  0
 10 11  1  0
 11 12  1  0
 12 13  2  0
 12 14  1  0
 14 15  2  0
 14 23  1  0
 15 16  1  0
 16 17  1  6
 16 18  1  0
 18 19  2  0
 18 23  1  0
 19 20  1  0
 20 21  2  0
 21 22  1  0
 22 23  2  0
 24 25  2  0
 25 26  1  0
M  CHG  1   6   1
M  END
