
     RDKit          3D

 26 29  0  0  0  0  0  0  0  0999 V2000
   -4.2400    2.4840    0.6150 C   0  0  0  0  0  0  0  0  0  0  0  0
   -3.4150    1.3090    0.1920 C   0  0  0  0  0  0  0  0  0  0  0  0
   -3.6070    0.7220   -1.0240 C   0  0  0  0  0  0  0  0  0  0  0  0
   -2.7950   -0.2610   -1.5270 C   0  0  0  0  0  0  0  0  0  0  0  0
   -3.1410   -0.9250   -2.6760 C   0  0  0  0  0  0  0  0  0  0  0  0
   -2.4550   -2.0170   -3.1360 C   0  0  0  0  0  0  0  0  0  0  0  0
   -1.3650   -2.4420   -2.3740 C   0  0  0  0  0  0  0  0  0  0  0  0
   -0.9890   -1.7900   -1.2030 C   0  0  0  0  0  0  0  0  0  0  0  0
   -1.6950   -0.6940   -0.7750 C   0  0  0  0  0  0  0  0  0  0  0  0
   -1.4620   -0.1190    0.4380 C   0  0  0  0  0  0  0  0  0  0  0  0
   -0.3440   -0.4060    1.1970 C   0  0  0  0  0  0  0  0  0  0  0  0
    0.8340   -1.0150    0.4560 C   0  0  2  0  0  0  0  0  0  0  0  0
    1.3010   -2.2770    0.9820 N   0  0  0  0  0  0  0  0  0  0  0  0
    1.9570   -0.0930    1.1040 C   0  0  0  0  0  0  0  0  0  0  0  0
    3.2760   -0.2280    0.5120 C   0  0  0  0  0  0  0  0  0  0  0  0
    4.3190   -1.0050    0.8820 C   0  0  0  0  0  0  0  0  0  0  0  0
    5.3440   -0.6350    0.1030 N   0  0  0  0  0  0  0  0  0  0  0  0
    4.9750    0.3230   -0.7200 N   0  0  0  0  0  0  0  0  0  0  0  0
    3.6730    0.6300   -0.5280 C   0  0  0  0  0  0  0  0  0  0  0  0
    2.7920    1.5000   -1.3700 C   0  0  0  0  0  0  0  0  0  0  0  0
    2.8270    2.8490   -1.1040 O   0  0  0  0  0  0  0  0  0  0  0  0
   -0.1290    0.2000    2.3900 C   0  0  0  0  0  0  0  0  0  0  0  0
   -0.9990    1.1740    2.9450 C   0  0  0  0  0  0  0  0  0  0  0  0
   -2.0740    1.4650    2.1660 C   0  0  0  0  0  0  0  0  0  0  0  0
   -3.2040    2.6470    2.8660 Cl  0  0  0  0  0  0  0  0  0  0  0  0
   -2.3320    0.9020    0.9820 C   0  0  0  0  0  0  0  0  0  0  0  0
  1  2  1  0
  2  3  2  0
  2 26  1  0
  3  4  1  0
  4  5  2  0
  4  9  1  0
  5  6  1  0
  6  7  2  0
  7  8  1  0
  8  9  2  0
  9 10  1  0
 10 11  2  0
 10 26  1  0
 11 12  1  0
 11 22  1  0
 12 13  1  1
 12 14  1  0
 14 15  1  0
 15 16  2  0
 15 19  1  0
 16 17  1  0
 17 18  1  0
 18 19  2  0
 19 20  1  0
 20 21  1  0
 22 23  2  0
 23 24  1  0
 24 25  1  0
 24 26  2  0
M  CHG  1  13   1
M  END
