
     RDKit          3D

 26 29  0  0  0  0  0  0  0  0999 V2000
    3.0190   -2.8910    2.3310 N   0  0  0  0  0  0  0  0  0  0  0  0
    2.4550   -1.6340    1.9150 C   0  0  2  0  0  0  0  0  0  0  0  0
    1.0230   -1.9110    1.4960 C   0  0  0  0  0  0  0  0  0  0  0  0
    0.5890   -3.0800    1.5680 O   0  0  0  0  0  0  0  0  0  0  0  0
    0.1960   -0.8800    1.0340 N   0  0  0  0  0  0  0  0  0  0  0  0
   -1.1500   -1.0010    0.6140 C   0  0  0  0  0  0  0  0  0  0  0  0
   -1.8940   -2.1490    0.5820 C   0  0  0  0  0  0  0  0  0  0  0  0
   -3.2130   -2.1750    0.1530 C   0  0  0  0  0  0  0  0  0  0  0  0
   -3.8650   -1.0230   -0.2730 C   0  0  0  0  0  0  0  0  0  0  0  0
   -3.1370    0.1360   -0.2480 C   0  0  0  0  0  0  0  0  0  0  0  0
   -1.8090    0.1390    0.1880 C   0  0  0  0  0  0  0  0  0  0  0  0
   -0.9220    1.6650    0.1980 Cl  0  0  0  0  0  0  0  0  0  0  0  0
   -3.7280    1.4530   -0.6820 C   0  0  2  0  0  0  0  0  0  0  0  0
   -4.1500    2.2480    0.4290 N   0  0  0  0  0  0  0  0  0  0  0  0
   -4.9090    1.1290   -1.5650 C   0  0  0  0  0  0  0  0  0  0  0  0
   -5.8680    0.2650   -0.7360 C   0  0  0  0  0  0  0  0  0  0  0  0
   -5.2910   -1.1250   -0.7250 C   0  0  0  0  0  0  0  0  0  0  0  0
    3.2040   -0.9780    0.8450 C   0  0  0  0  0  0  0  0  0  0  0  0
    3.6510   -1.6860   -0.2510 C   0  0  0  0  0  0  0  0  0  0  0  0
    4.3600   -1.0130   -1.2420 C   0  0  0  0  0  0  0  0  0  0  0  0
    4.6070    0.3430   -1.1230 C   0  0  0  0  0  0  0  0  0  0  0  0
    4.1640    1.0590   -0.0310 C   0  0  0  0  0  0  0  0  0  0  0  0
    3.4670    0.3820    0.9380 C   0  0  0  0  0  0  0  0  0  0  0  0
    4.5630    2.4770   -0.1580 C   0  0  0  0  0  0  0  0  0  0  0  0
    4.7170    2.6060   -1.6690 C   0  0  0  0  0  0  0  0  0  0  0  0
    5.3380    1.2780   -2.0430 C   0  0  0  0  0  0  0  0  0  0  0  0
  2  1  1  6
  2  3  1  0
  2 18  1  0
  3  4  2  0
  3  5  1  0
  5  6  1  0
  6  7  2  0
  6 11  1  0
  7  8  1  0
  8  9  2  0
  9 10  1  0
  9 17  1  0
 10 11  2  0
 10 13  1  0
 11 12  1  0
 13 14  1  1
 13 15  1  0
 15 16  1  0
 16 17  1  0
 18 19  2  0
 18 23  1  0
 19 20  1  0
 20 21  2  0
 21 22  1  0
 21 26  1  0
 22 23  2  0
 22 24  1  0
 24 25  1  0
 25 26  1  0
M  CHG  1  14   1
M  END
