
     RDKit          3D

 26 28  0  0  0  0  0  0  0  0999 V2000
    4.3850    2.4650    1.3950 C   0  0  0  0  0  0  0  0  0  0  0  0
    3.9030    1.4570    0.7070 C   0  0  0  0  0  0  0  0  0  0  0  0
    3.9800    1.4770   -0.7550 C   0  0  0  0  0  0  0  0  0  0  0  0
    3.8970    0.1810   -1.4590 C   0  0  0  0  0  0  0  0  0  0  0  0
    3.2460   -0.9550   -0.7180 C   0  0  0  0  0  0  0  0  0  0  0  0
    2.5350   -0.5970    0.5290 C   0  0  2  0  0  0  0  0  0  0  0  0
    1.1510   -0.0790    0.3070 N   0  0  0  0  0  0  0  0  0  0  0  0
    0.4860   -1.0970   -0.3600 C   0  0  0  0  0  0  0  0  0  0  0  0
   -0.8110   -1.1140   -0.9820 C   0  0  0  0  0  0  0  0  0  0  0  0
   -0.7490   -1.4020   -2.4090 C   0  0  0  0  0  0  0  0  0  0  0  0
    0.4940   -1.0900   -2.9940 N   0  0  0  0  0  0  0  0  0  0  0  0
   -1.8610   -1.6720   -3.1130 C   0  0  0  0  0  0  0  0  0  0  0  0
   -3.1270   -1.6810   -2.4960 C   0  0  0  0  0  0  0  0  0  0  0  0
   -3.1770   -1.3980   -1.1520 C   0  0  0  0  0  0  0  0  0  0  0  0
   -1.9970   -1.1160   -0.4260 C   0  0  0  0  0  0  0  0  0  0  0  0
   -2.2120   -0.8800    0.9870 N   0  0  0  0  0  0  0  0  0  0  0  0
   -3.3020    0.0700    1.1480 C   0  0  0  0  0  0  0  0  0  0  0  0
   -3.4420    1.0290    0.1280 C   0  0  0  0  0  0  0  0  0  0  0  0
   -4.3340    2.0690    0.1620 C   0  0  0  0  0  0  0  0  0  0  0  0
   -5.1470    2.1470    1.2840 C   0  0  0  0  0  0  0  0  0  0  0  0
   -5.0190    1.2210    2.2950 C   0  0  0  0  0  0  0  0  0  0  0  0
   -4.0890    0.1620    2.2360 C   0  0  0  0  0  0  0  0  0  0  0  0
   -3.9990   -0.7340    3.2690 O   0  0  0  0  0  0  0  0  0  0  0  0
    3.3400    0.2950    1.3550 C   0  0  0  0  0  0  0  0  0  0  0  0
    3.6250    0.0610    2.6190 C   0  0  0  0  0  0  0  0  0  0  0  0
    2.9450   -1.3570    3.4020 Cl  0  0  0  0  0  0  0  0  0  0  0  0
  1  2  2  0
  2  3  1  0
  2 24  1  0
  3  4  1  0
  4  5  1  0
  5  6  1  0
  6  7  1  6
  6 24  1  0
  7  8  1  0
  8  9  1  0
  9 10  2  0
  9 15  1  0
 10 11  1  0
 10 12  1  0
 12 13  2  0
 13 14  1  0
 14 15  2  0
 15 16  1  0
 16 17  1  0
 17 18  2  0
 17 22  1  0
 18 19  1  0
 19 20  2  0
 20 21  1  0
 21 22  2  0
 22 23  1  0
 24 25  2  3
 25 26  1  0
M  CHG  1   7   1
M  END
