
     RDKit          3D

 26 29  0  0  0  0  0  0  0  0999 V2000
   -7.5350   -0.7990   -0.8760 C   0  0  0  0  0  0  0  0  0  0  0  0
   -6.1360   -0.3260   -0.6010 C   0  0  0  0  0  0  0  0  0  0  0  0
   -5.2470   -1.1650   -0.1300 C   0  0  0  0  0  0  0  0  0  0  0  0
   -3.8940   -0.7240    0.1400 C   0  0  0  0  0  0  0  0  0  0  0  0
   -2.9980   -1.6690    0.6400 C   0  0  0  0  0  0  0  0  0  0  0  0
   -1.7080   -1.2450    0.8950 C   0  0  0  0  0  0  0  0  0  0  0  0
   -1.2590    0.0260    0.6910 C   0  0  0  0  0  0  0  0  0  0  0  0
    0.0470    0.5150    0.9200 N   0  0  0  0  0  0  0  0  0  0  0  0
    1.2020   -0.2380    1.2730 C   0  0  0  0  0  0  0  0  0  0  0  0
    1.0800   -1.4620    1.3970 O   0  0  0  0  0  0  0  0  0  0  0  0
    2.5110    0.4110    1.4870 C   0  0  2  0  0  0  0  0  0  0  0  0
    2.4300    1.8540    1.3400 N   0  0  0  0  0  0  0  0  0  0  0  0
    3.6720   -0.1530    0.8020 C   0  0  0  0  0  0  0  0  0  0  0  0
    4.3900    0.7060   -0.0480 C   0  0  0  0  0  0  0  0  0  0  0  0
    5.4710    0.2810   -0.7940 C   0  0  0  0  0  0  0  0  0  0  0  0
    6.3020    0.9150   -1.6660 N   0  0  0  0  0  0  0  0  0  0  0  0
    7.2130    0.0500   -2.1370 C   0  0  0  0  0  0  0  0  0  0  0  0
    6.9950   -1.1770   -1.5790 C   0  0  0  0  0  0  0  0  0  0  0  0
    5.8910   -1.0180   -0.7300 C   0  0  0  0  0  0  0  0  0  0  0  0
    5.2130   -1.8750    0.0880 C   0  0  0  0  0  0  0  0  0  0  0  0
    4.1250   -1.4390    0.8370 C   0  0  0  0  0  0  0  0  0  0  0  0
    3.3730   -2.6020    1.9130 Cl  0  0  0  0  0  0  0  0  0  0  0  0
   -2.2150    0.9210    0.1870 C   0  0  0  0  0  0  0  0  0  0  0  0
   -3.5140    0.5680   -0.0890 C   0  0  0  0  0  0  0  0  0  0  0  0
   -4.4800    1.5550   -0.6200 C   0  0  0  0  0  0  0  0  0  0  0  0
   -5.8430    1.0770   -0.8840 C   0  0  0  0  0  0  0  0  0  0  0  0
  1  2  1  0
  2  3  2  0
  2 26  1  0
  3  4  1  0
  4  5  2  0
  4 24  1  0
  5  6  1  0
  6  7  2  0
  7  8  1  0
  7 23  1  0
  8  9  1  0
  9 10  2  0
  9 11  1  0
 11 12  1  6
 11 13  1  0
 13 14  2  0
 13 21  1  0
 14 15  1  0
 15 16  1  0
 15 19  2  0
 16 17  1  0
 17 18  2  0
 18 19  1  0
 19 20  1  0
 20 21  2  0
 21 22  1  0
 23 24  2  0
 24 25  1  0
 25 26  1  0
M  CHG  1  12   1
M  END
