
     RDKit          3D

 26 29  0  0  0  0  0  0  0  0999 V2000
    5.4350    1.6050    2.1510 N   0  0  0  0  0  0  0  0  0  0  0  0
    4.6230    1.5160    0.9860 C   0  0  0  0  0  0  0  0  0  0  0  0
    5.0320    2.0720   -0.2150 C   0  0  0  0  0  0  0  0  0  0  0  0
    4.2510    1.9830   -1.3390 C   0  0  0  0  0  0  0  0  0  0  0  0
    3.0210    1.3380   -1.3340 C   0  0  0  0  0  0  0  0  0  0  0  0
    2.5990    0.7780   -0.1410 C   0  0  0  0  0  0  0  0  0  0  0  0
    1.3680    0.1360   -0.1530 O   0  0  0  0  0  0  0  0  0  0  0  0
    1.3750   -1.2390   -0.3840 C   0  0  0  0  0  0  0  0  0  0  0  0
    2.5490   -1.9520   -0.6050 C   0  0  0  0  0  0  0  0  0  0  0  0
    2.5250   -3.3130   -0.8270 C   0  0  0  0  0  0  0  0  0  0  0  0
    4.0390   -4.1460   -1.0980 Cl  0  0  0  0  0  0  0  0  0  0  0  0
    1.3080   -3.9730   -0.8300 C   0  0  0  0  0  0  0  0  0  0  0  0
    0.1580   -3.2470   -0.6090 C   0  0  0  0  0  0  0  0  0  0  0  0
    0.1570   -1.8830   -0.3830 C   0  0  0  0  0  0  0  0  0  0  0  0
   -1.1050   -1.1950   -0.1830 C   0  0  0  0  0  0  0  0  0  0  0  0
   -1.4010   -0.0570   -0.9060 C   0  0  0  0  0  0  0  0  0  0  0  0
   -2.5990    0.6060   -0.7450 C   0  0  0  0  0  0  0  0  0  0  0  0
   -3.4960    0.0960    0.1640 C   0  0  0  0  0  0  0  0  0  0  0  0
   -3.1960   -1.0630    0.9000 C   0  0  0  0  0  0  0  0  0  0  0  0
   -2.0080   -1.7120    0.7340 C   0  0  0  0  0  0  0  0  0  0  0  0
   -1.6470   -2.8820    1.4510 N   0  0  0  0  0  0  0  0  0  0  0  0
   -4.7830    0.7650    0.3680 C   0  0  0  0  0  0  0  0  0  0  0  0
   -4.8890    2.1630   -0.1640 C   0  0  0  0  0  0  0  0  0  0  0  0
   -3.6040    2.7010   -0.5200 N   0  0  0  0  0  0  0  0  0  0  0  0
   -2.9610    1.8340   -1.5040 C   0  0  0  0  0  0  0  0  0  0  0  0
    3.3920    0.8730    0.9830 C   0  0  0  0  0  0  0  0  0  0  0  0
  1  2  1  0
  2  3  2  0
  2 26  1  0
  3  4  1  0
  4  5  2  0
  5  6  1  0
  6  7  1  0
  6 26  2  0
  7  8  1  0
  8  9  2  0
  8 14  1  0
  9 10  1  0
 10 11  1  0
 10 12  2  0
 12 13  1  0
 13 14  2  0
 14 15  1  0
 15 16  2  0
 15 20  1  0
 16 17  1  0
 17 18  2  0
 17 25  1  0
 18 19  1  0
 18 22  1  0
 19 20  2  0
 20 21  1  0
 22 23  1  0
 23 24  1  0
 24 25  1  0
M  CHG  1  24   1
M  END
