
     RDKit          3D

 26 27  0  0  0  0  0  0  0  0999 V2000
    7.7310   -1.8820   -0.2740 N   0  0  0  0  0  0  0  0  0  0  0  0
    6.7160   -0.8860   -0.5910 C   0  0  2  0  0  0  0  0  0  0  0  0
    7.4050    0.4580   -0.6290 C   0  0  0  0  0  0  0  0  0  0  0  0
    8.3930    0.4400   -1.6050 O   0  0  0  0  0  0  0  0  0  0  0  0
    5.6580   -0.9590    0.4580 C   0  0  0  0  0  0  0  0  0  0  0  0
    4.5880   -0.0160    0.2560 N   0  0  0  0  0  0  0  0  0  0  0  0
    3.4670    0.1000    1.1220 C   0  0  0  0  0  0  0  0  0  0  0  0
    3.4600   -0.7010    2.1200 O   0  0  0  0  0  0  0  0  0  0  0  0
    2.3940    1.0530    0.9070 C   0  0  0  0  0  0  0  0  0  0  0  0
    2.4200    1.8330   -0.0670 O   0  0  0  0  0  0  0  0  0  0  0  0
    1.3050    1.1040    1.8050 N   0  0  0  0  0  0  0  0  0  0  0  0
    0.1980    2.0220    1.6620 C   0  0  0  0  0  0  0  0  0  0  0  0
   -0.6730    1.5020    0.5520 C   0  0  0  0  0  0  0  0  0  0  0  0
   -0.4690    0.4050   -0.1940 N   0  0  0  0  0  0  0  0  0  0  0  0
   -1.4240    0.2360   -1.0870 N   0  0  0  0  0  0  0  0  0  0  0  0
   -2.2610    1.2800   -0.8810 C   0  0  0  0  0  0  0  0  0  0  0  0
   -3.7370    1.5130   -1.8590 S   0  0  0  0  0  0  0  0  0  0  0  0
   -5.1640    0.6730   -1.1310 C   0  0  2  0  0  0  0  0  0  0  0  0
   -5.4910    1.3430    0.1760 C   0  0  0  0  0  0  0  0  0  0  0  0
   -6.5660    0.5820    0.9360 C   0  0  0  0  0  0  0  0  0  0  0  0
   -6.0960   -0.6380    1.3630 O   0  0  0  0  0  0  0  0  0  0  0  0
   -6.5590   -1.6770    0.5750 C   0  0  0  0  0  0  0  0  0  0  0  0
   -6.0500   -1.6460   -0.8300 C   0  0  1  0  0  0  0  0  0  0  0  0
   -7.0240   -1.2220   -1.7320 O   0  0  0  0  0  0  0  0  0  0  0  0
   -4.8310   -0.7860   -0.9660 C   0  0  0  0  0  0  0  0  0  0  0  0
   -1.8160    2.0550    0.1110 N   0  0  0  0  0  0  0  0  0  0  0  0
  2  1  1  1
  2  3  1  0
  2  5  1  0
  3  4  1  0
  5  6  1  0
  6  7  1  0
  7  8  2  0
  7  9  1  0
  9 10  2  0
  9 11  1  0
 11 12  1  0
 12 13  1  0
 13 14  2  0
 13 26  1  0
 14 15  1  0
 15 16  1  0
 16 17  1  0
 16 26  2  0
 18 17  1  1
 18 19  1  0
 18 25  1  0
 19 20  1  0
 20 21  1  0
 21 22  1  0
 22 23  1  0
 23 24  1  6
 23 25  1  0
M  CHG  1   1   1
M  END
