
     RDKit          3D

  8  7  0  0  0  0  0  0  0  0999 V2000
   -1.1000   -2.3440    0.1600 C   0  0  0  0  0  0  0  0  0  0  0  0
   -0.6720   -1.1240   -0.1250 C   0  0  0  0  0  0  0  0  0  0  0  0
   -1.2810   -0.4310   -1.2600 C   0  0  0  0  0  0  0  0  0  0  0  0
    0.3610   -0.5480    0.6870 C   0  0  0  0  0  0  0  0  0  0  0  0
    0.8110   -1.4090    1.7470 O   0  0  0  0  0  0  0  0  0  0  0  0
    0.9590    0.5990    0.6410 C   0  0  0  0  0  0  0  0  0  0  0  0
    0.8040    1.7150   -0.2450 C   0  0  0  0  0  0  0  0  0  0  0  0
    1.5120    2.7810   -0.1130 N   0  0  0  0  0  0  0  0  0  0  0  0
  1  2  2  0
  2  3  1  0
  2  4  1  0
  4  5  1  0
  4  6  2  3
  6  7  1  0
  7  8  2  0
M  CHG  1   8   1
M  END
