
     RDKit          3D

  8  7  0  0  0  0  0  0  0  0999 V2000
    1.4570   -0.1730    2.0140 C   0  0  0  0  0  0  0  0  0  0  0  0
    0.9920   -0.1360    0.7700 C   0  0  0  0  0  0  0  0  0  0  0  0
    2.0080   -0.0710   -0.3260 C   0  0  0  0  0  0  0  0  0  0  0  0
    1.9140   -1.1600   -1.1910 O   0  0  0  0  0  0  0  0  0  0  0  0
   -0.4620   -0.1570    0.4580 C   0  0  2  0  0  0  0  0  0  0  0  0
   -0.8750   -1.4160   -0.2150 C   0  0  0  0  0  0  0  0  0  0  0  0
   -0.8310    1.0920   -0.2920 C   0  0  0  0  0  0  0  0  0  0  0  0
   -2.2070    1.1800   -0.6460 N   0  0  0  0  0  0  0  0  0  0  0  0
  1  2  2  0
  2  3  1  0
  2  5  1  0
  3  4  1  0
  5  6  1  6
  5  7  1  0
  7  8  1  0
M  CHG  1   8   1
M  END
