
     RDKit          3D

  8  7  0  0  0  0  0  0  0  0999 V2000
    4.4190   -0.1560    0.2010 C   0  0  0  0  0  0  0  0  0  0  0  0
    3.1730   -0.7240   -0.1740 O   0  0  0  0  0  0  0  0  0  0  0  0
    1.9960   -0.2020    0.3450 C   0  0  0  0  0  0  0  0  0  0  0  0
    0.8350   -0.3170   -0.2740 C   0  0  0  0  0  0  0  0  0  0  0  0
   -0.3750    0.2440    0.3030 C   0  0  0  0  0  0  0  0  0  0  0  0
   -1.5420    0.1440   -0.2900 C   0  0  0  0  0  0  0  0  0  0  0  0
   -2.7450    0.7370    0.3460 C   0  0  0  0  0  0  0  0  0  0  0  0
   -3.6810   -0.3580    0.5710 N   0  0  0  0  0  0  0  0  0  0  0  0
  1  2  1  0
  2  3  1  0
  3  4  2  3
  4  5  1  0
  5  6  2  3
  6  7  1  0
  7  8  1  0
M  CHG  1   8   1
M  END
