
     RDKit          3D

 26 27  0  0  0  0  0  0  0  0999 V2000
    5.5620   -0.5490    0.0850 C   0  0  0  0  0  0  0  0  0  0  0  0
    4.8440   -1.8980    0.2530 C   0  0  0  0  0  0  0  0  0  0  0  0
    3.3850   -1.7070    0.0460 C   0  0  2  0  0  0  0  0  0  0  0  0
    2.9460   -0.6950    1.1150 C   0  0  0  0  0  0  0  0  0  0  0  0
    1.5550   -0.4330    0.9810 C   0  0  0  0  0  0  0  0  0  0  0  0
    0.7930   -1.1170    0.1700 O   0  0  0  0  0  0  0  0  0  0  0  0
    0.7820    0.5370    1.6200 N   0  0  0  0  0  0  0  0  0  0  0  0
   -0.6270    0.4650    1.3380 C   0  0  0  0  0  0  0  0  0  0  0  0
   -1.0830    1.4930    0.9430 N   0  0  0  0  0  0  0  0  0  0  0  0
   -2.4410    1.7470    0.5550 C   0  0  1  0  0  0  0  0  0  0  0  0
   -2.5100    3.2420    0.4730 C   0  0  0  0  0  0  0  0  0  0  0  0
   -1.5200    3.7790   -0.4570 N   0  0  0  0  0  0  0  0  0  0  0  0
   -2.7350    1.0700   -0.7490 C   0  0  0  0  0  0  0  0  0  0  0  0
   -3.1200    1.7460   -1.7910 C   0  0  0  0  0  0  0  0  0  0  0  0
   -3.3870    1.0130   -3.0450 C   0  0  0  0  0  0  0  0  0  0  0  0
   -3.5620   -0.6660   -2.4450 S   0  0  0  0  0  0  0  0  0  0  0  0
   -5.0110   -1.0110   -2.1420 O   0  0  0  0  0  0  0  0  0  0  0  0
   -2.6440   -0.3970   -0.8890 C   0  0  0  0  0  0  0  0  0  0  0  0
   -3.3040    1.2390    1.6020 N   0  0  0  0  0  0  0  0  0  0  0  0
   -2.9170   -0.0370    2.1640 C   0  0  0  0  0  0  0  0  0  0  0  0
   -3.7670   -0.7490    2.7470 O   0  0  0  0  0  0  0  0  0  0  0  0
   -1.5670   -0.4310    2.0270 N   0  0  0  0  0  0  0  0  0  0  0  0
    2.7310   -2.9870    0.2240 N   0  0  0  0  0  0  0  0  0  0  0  0
    2.0180   -3.5750   -0.8520 C   0  0  0  0  0  0  0  0  0  0  0  0
    1.9180   -3.0300   -1.9900 O   0  0  0  0  0  0  0  0  0  0  0  0
    1.3780   -4.8050   -0.7120 O   0  0  0  0  0  0  0  0  0  0  0  0
  1  2  1  0
  3  2  1  1
  3  4  1  0
  3 23  1  0
  4  5  1  0
  5  6  2  0
  5  7  1  0
  7  8  1  0
  8  9  2  0
  8 22  1  0
  9 10  1  0
 10 11  1  6
 10 13  1  0
 10 19  1  0
 11 12  1  0
 13 14  2  0
 13 18  1  0
 14 15  1  0
 16 15  1  6
 16 17  2  0
 16 18  1  0
 19 20  1  0
 20 21  2  0
 20 22  1  0
 23 24  1  0
 24 25  2  0
 24 26  1  0
M  CHG  1  12   1
M  END
