
     RDKit          3D

  8  7  0  0  0  0  0  0  0  0999 V2000
    2.7720    0.8620   -0.6230 C   0  0  0  0  0  0  0  0  0  0  0  0
    1.8270   -0.0540   -0.6610 C   0  0  0  0  0  0  0  0  0  0  0  0
    0.9970   -0.2990    0.5190 C   0  0  0  0  0  0  0  0  0  0  0  0
   -0.4690   -0.0700    0.2920 C   0  0  1  0  0  0  0  0  0  0  0  0
   -1.1630   -0.3710    1.6160 C   0  0  0  0  0  0  0  0  0  0  0  0
   -0.7840    1.2660   -0.1120 N   0  0  0  0  0  0  0  0  0  0  0  0
   -0.9780   -1.0400   -0.7590 C   0  0  0  0  0  0  0  0  0  0  0  0
   -2.3530   -0.9080   -0.8940 O   0  0  0  0  0  0  0  0  0  0  0  0
  1  2  2  0
  2  3  1  0
  3  4  1  0
  4  5  1  1
  4  6  1  0
  4  7  1  0
  7  8  1  0
M  CHG  1   6   1
M  END
