
     RDKit          3D

 12 12  0  0  0  0  0  0  0  0999 V2000
    3.3870   -0.6610   -0.4060 N   0  0  0  0  0  0  0  0  0  0  0  0
    2.8910    0.5560    0.1330 C   0  0  0  0  0  0  0  0  0  0  0  0
    1.5830    0.5320    0.8210 C   0  0  0  0  0  0  0  0  0  0  0  0
    0.4120    0.1190    0.0180 C   0  0  1  0  0  0  0  0  0  0  0  0
    0.2840    1.0020   -1.0790 O   0  0  0  0  0  0  0  0  0  0  0  0
    0.4040   -1.3110   -0.3980 C   0  0  0  0  0  0  0  0  0  0  0  0
   -0.7690   -1.9740   -0.0320 O   0  0  0  0  0  0  0  0  0  0  0  0
   -1.9320   -1.4070   -0.4510 C   0  0  0  0  0  0  0  0  0  0  0  0
   -1.9750    0.0690   -0.2250 C   0  0  1  0  0  0  0  0  0  0  0  0
   -3.3310    0.5750    0.1730 C   0  0  0  0  0  0  0  0  0  0  0  0
   -3.2880    1.9540    0.3640 O   0  0  0  0  0  0  0  0  0  0  0  0
   -0.9090    0.3910    0.7990 C   0  0  0  0  0  0  0  0  0  0  0  0
  1  2  1  0
  2  3  1  0
  3  4  1  0
  4  5  1  6
  4  6  1  0
  4 12  1  0
  6  7  1  0
  7  8  1  0
  8  9  1  0
  9 10  1  1
  9 12  1  0
 10 11  1  0
M  CHG  1   1   1
M  END
