
     RDKit          3D

 11 11  0  0  0  0  0  0  0  0999 V2000
   -2.1160    1.5350    0.5130 N   0  0  0  0  0  0  0  0  0  0  0  0
   -1.5470    0.7120   -0.5560 C   0  0  1  0  0  0  0  0  0  0  0  0
   -0.0820    0.6400   -0.3980 C   0  0  0  0  0  0  0  0  0  0  0  0
    0.5600   -0.3560    0.1880 C   0  0  0  0  0  0  0  0  0  0  0  0
    2.0370   -0.4120    0.3390 C   0  0  1  0  0  0  0  0  0  0  0  0
    2.4810   -1.4990   -0.4490 O   0  0  0  0  0  0  0  0  0  0  0  0
    2.7290    0.8010   -0.2310 C   0  0  0  0  0  0  0  0  0  0  0  0
    2.4100    1.9630    0.4350 O   0  0  0  0  0  0  0  0  0  0  0  0
   -0.2750   -1.4730    0.7130 C   0  0  0  0  0  0  0  0  0  0  0  0
   -1.3040   -1.7790   -0.3540 C   0  0  0  0  0  0  0  0  0  0  0  0
   -2.2390   -0.6130   -0.5090 C   0  0  0  0  0  0  0  0  0  0  0  0
  2  1  1  1
  2  3  1  0
  2 11  1  0
  3  4  2  0
  4  5  1  0
  4  9  1  0
  5  6  1  6
  5  7  1  0
  7  8  1  0
  9 10  1  0
 10 11  1  0
M  CHG  1   1   1
M  END
