
     RDKit          3D

 12 12  0  0  0  0  0  0  0  0999 V2000
   -3.6020    0.2560   -0.8940 N   0  0  0  0  0  0  0  0  0  0  0  0
   -2.2040    0.2340   -1.2430 C   0  0  0  0  0  0  0  0  0  0  0  0
   -1.2980    0.1610   -0.0520 C   0  0  1  0  0  0  0  0  0  0  0  0
   -1.4960   -1.0470    0.7990 C   0  0  0  0  0  0  0  0  0  0  0  0
   -0.9070   -0.8030    2.0340 O   0  0  0  0  0  0  0  0  0  0  0  0
    0.2620   -0.0650    1.9370 C   0  0  0  0  0  0  0  0  0  0  0  0
    0.9790   -0.2960    0.6220 C   0  0  2  0  0  0  0  0  0  0  0  0
    1.3370   -1.6470    0.5540 O   0  0  0  0  0  0  0  0  0  0  0  0
    2.2400    0.5110    0.6120 C   0  0  0  0  0  0  0  0  0  0  0  0
    2.9420    0.2630   -0.7110 C   0  0  0  0  0  0  0  0  0  0  0  0
    4.1220    1.0150   -0.7240 O   0  0  0  0  0  0  0  0  0  0  0  0
    0.1330    0.1160   -0.5480 C   0  0  0  0  0  0  0  0  0  0  0  0
  1  2  1  0
  3  2  1  6
  3  4  1  0
  3 12  1  0
  4  5  1  0
  5  6  1  0
  6  7  1  0
  7  8  1  6
  7  9  1  0
  7 12  1  0
  9 10  1  0
 10 11  1  0
M  CHG  1   1   1
M  END
