
     RDKit          3D

 10 11  0  0  0  0  0  0  0  0999 V2000
   -1.5110    1.7640   -0.7560 C   0  0  0  0  0  0  0  0  0  0  0  0
   -1.4500    0.2740   -0.7970 C   0  0  2  0  0  0  0  0  0  0  0  0
   -1.5400   -0.3390    0.6350 C   0  0  0  0  0  0  0  0  0  0  0  0
   -0.3920   -0.5740   -0.3300 C   0  0  1  0  0  0  0  0  0  0  0  0
   -0.4110   -2.0220   -0.8640 C   0  0  0  0  0  0  0  0  0  0  0  0
    0.9680   -0.1440    0.0330 C   0  0  0  0  0  0  0  0  0  0  0  0
    1.5190    1.0580    0.0080 C   0  0  0  0  0  0  0  0  0  0  0  0
    2.9170    1.0020    0.4640 C   0  0  0  0  0  0  0  0  0  0  0  0
    3.1030   -0.2610    0.7460 C   0  0  0  0  0  0  0  0  0  0  0  0
    2.0470   -1.0110    0.5190 C   0  0  0  0  0  0  0  0  0  0  0  0
  2  1  1  1
  2  3  1  0
  2  4  1  0
  3  4  1  0
  4  5  1  6
  4  6  1  0
  6  7  2  0
  6 10  1  0
  7  8  1  0
  8  9  2  0
  9 10  2  0
M  END
