
     RDKit          3D

 12 12  0  0  0  0  0  0  0  0999 V2000
   -3.9200    0.0560    0.8130 N   0  0  0  0  0  0  0  0  0  0  0  0
   -2.7180   -0.4270    0.1620 C   0  0  0  0  0  0  0  0  0  0  0  0
   -1.7990    0.7470   -0.0860 C   0  0  0  0  0  0  0  0  0  0  0  0
   -0.5150    0.3150   -0.7680 C   0  0  2  0  0  0  0  0  0  0  0  0
    0.1670   -0.6650    0.1220 C   0  0  0  0  0  0  0  0  0  0  0  0
    1.6650   -0.5940    0.0810 C   0  0  2  0  0  0  0  0  0  0  0  0
    2.2170   -1.8660    0.2200 O   0  0  0  0  0  0  0  0  0  0  0  0
    2.2360    0.2720    1.1720 C   0  0  0  0  0  0  0  0  0  0  0  0
    3.6230    0.3050    1.0130 O   0  0  0  0  0  0  0  0  0  0  0  0
    2.0370   -0.0850   -1.2980 C   0  0  0  0  0  0  0  0  0  0  0  0
    1.4910    1.3110   -1.4150 C   0  0  0  0  0  0  0  0  0  0  0  0
    0.1790    1.4400   -1.0810 O   0  0  0  0  0  0  0  0  0  0  0  0
  1  2  1  0
  2  3  1  0
  4  3  1  1
  4  5  1  0
  4 12  1  0
  5  6  1  0
  6  7  1  1
  6  8  1  0
  6 10  1  0
  8  9  1  0
 10 11  1  0
 11 12  1  0
M  CHG  1   1   1
M  END
