
     RDKit          3D

 12 12  0  0  0  0  0  0  0  0999 V2000
    3.4640   -0.7950    0.3410 N   0  0  0  0  0  0  0  0  0  0  0  0
    3.1440    0.5650   -0.0210 C   0  0  0  0  0  0  0  0  0  0  0  0
    1.7890    0.9940    0.4580 C   0  0  1  0  0  0  0  0  0  0  0  0
    1.6090    2.3240    0.0410 O   0  0  0  0  0  0  0  0  0  0  0  0
    0.6650    0.1930   -0.1150 C   0  0  0  0  0  0  0  0  0  0  0  0
   -0.5490    0.7430    0.3930 O   0  0  0  0  0  0  0  0  0  0  0  0
   -1.7930    0.2740    0.0910 C   0  0  0  0  0  0  0  0  0  0  0  0
   -2.9090    0.9680    0.1320 C   0  0  0  0  0  0  0  0  0  0  0  0
   -4.0550    0.1110   -0.2650 C   0  0  0  0  0  0  0  0  0  0  0  0
   -3.4210   -1.1990   -0.5450 C   0  0  0  0  0  0  0  0  0  0  0  0
   -2.1190   -1.0750   -0.3310 C   0  0  0  0  0  0  0  0  0  0  0  0
   -1.2130   -2.1160   -0.4980 O   0  0  0  0  0  0  0  0  0  0  0  0
  1  2  1  0
  2  3  1  0
  3  4  1  6
  3  5  1  0
  5  6  1  0
  6  7  1  0
  7  8  2  0
  7 11  1  0
  8  9  1  0
  9 10  1  0
 10 11  2  0
 11 12  1  0
M  CHG  1   1   1
M  END
