
     RDKit          3D

 12 12  0  0  0  0  0  0  0  0999 V2000
    2.0090    1.4270    0.7960 N   0  0  0  0  0  0  0  0  0  0  0  0
    1.8510    0.1260    0.1890 C   0  0  0  0  0  0  0  0  0  0  0  0
    0.5910    0.0250   -0.6280 C   0  0  1  0  0  0  0  0  0  0  0  0
    0.6260    0.9690   -1.6380 O   0  0  0  0  0  0  0  0  0  0  0  0
    0.4930   -1.3490   -1.2290 C   0  0  0  0  0  0  0  0  0  0  0  0
    0.2840   -2.4090   -0.1790 C   0  0  0  0  0  0  0  0  0  0  0  0
   -0.8430   -2.0940    0.7580 C   0  0  0  0  0  0  0  0  0  0  0  0
   -0.7280   -0.7140    1.3640 C   0  0  0  0  0  0  0  0  0  0  0  0
   -0.6560    0.2610    0.1900 C   0  0  1  0  0  0  0  0  0  0  0  0
   -0.7980    1.5660    0.5900 O   0  0  0  0  0  0  0  0  0  0  0  0
   -1.9520    2.1340    0.0600 C   0  0  0  0  0  0  0  0  0  0  0  0
   -1.9090    2.1120   -1.3490 O   0  0  0  0  0  0  0  0  0  0  0  0
  1  2  1  0
  2  3  1  0
  3  4  1  6
  3  5  1  0
  3  9  1  0
  5  6  1  0
  6  7  1  0
  7  8  1  0
  8  9  1  0
  9 10  1  1
 10 11  1  0
 11 12  1  0
M  CHG  1   1   1
M  END
