
     RDKit          3D

 12 12  0  0  0  0  0  0  0  0999 V2000
   -3.8250    0.2290   -0.0680 N   0  0  0  0  0  0  0  0  0  0  0  0
   -2.4820   -0.3080   -0.0210 C   0  0  0  0  0  0  0  0  0  0  0  0
   -1.4870    0.5170   -0.1680 C   0  0  0  0  0  0  0  0  0  0  0  0
   -0.0660    0.2270   -0.1600 C   0  0  0  0  0  0  0  0  0  0  0  0
    0.8580    1.2820   -0.3390 C   0  0  0  0  0  0  0  0  0  0  0  0
    2.2140    1.0590   -0.3390 C   0  0  0  0  0  0  0  0  0  0  0  0
    3.0840    2.1170   -0.5170 O   0  0  0  0  0  0  0  0  0  0  0  0
    2.7030   -0.2210   -0.1620 C   0  0  0  0  0  0  0  0  0  0  0  0
    4.0870   -0.4350   -0.1640 O   0  0  0  0  0  0  0  0  0  0  0  0
    1.8140   -1.2550    0.0130 C   0  0  0  0  0  0  0  0  0  0  0  0
    0.4220   -1.0400    0.0150 C   0  0  0  0  0  0  0  0  0  0  0  0
   -0.4250   -2.1190    0.1960 O   0  0  0  0  0  0  0  0  0  0  0  0
  1  2  1  0
  2  3  2  3
  3  4  1  0
  4  5  2  0
  4 11  1  0
  5  6  1  0
  6  7  1  0
  6  8  2  0
  8  9  1  0
  8 10  1  0
 10 11  2  0
 11 12  1  0
M  CHG  1   1   1
M  END
