
     RDKit          3D

 12 12  0  0  0  0  0  0  0  0999 V2000
    3.6360    0.0960    0.7230 C   0  0  0  0  0  0  0  0  0  0  0  0
    2.4370   -0.5790    0.1890 C   0  0  0  0  0  0  0  0  0  0  0  0
    1.3820    0.1230   -0.1450 C   0  0  0  0  0  0  0  0  0  0  0  0
    1.4210    1.4980    0.0140 O   0  0  0  0  0  0  0  0  0  0  0  0
    0.1350   -0.4590   -0.6880 C   0  0  1  0  0  0  0  0  0  0  0  0
    0.2180   -1.9050   -0.8060 N   0  0  0  0  0  0  0  0  0  0  0  0
   -1.0760   -0.1440    0.1490 C   0  0  1  0  0  0  0  0  0  0  0  0
   -0.9960   -0.7020    1.4200 O   0  0  0  0  0  0  0  0  0  0  0  0
   -1.2730    1.3590    0.2960 C   0  0  0  0  0  0  0  0  0  0  0  0
   -2.7910    1.4520    0.2750 C   0  0  0  0  0  0  0  0  0  0  0  0
   -3.1300    0.5550   -0.7080 O   0  0  0  0  0  0  0  0  0  0  0  0
   -2.3070   -0.5490   -0.5960 C   0  0  0  0  0  0  0  0  0  0  0  0
  1  2  1  0
  2  3  2  3
  3  4  1  0
  3  5  1  0
  5  6  1  1
  5  7  1  0
  7  8  1  1
  7  9  1  0
  7 12  1  0
  9 10  1  0
 10 11  1  0
 11 12  1  0
M  CHG  1   6   1
M  END
