
     RDKit          3D

 27 28  0  0  0  0  0  0  0  0999 V2000
   -2.5820   -3.6670   -0.6420 C   0  0  0  0  0  0  0  0  0  0  0  0
   -2.6760   -1.8750   -0.4210 S   0  0  1  0  0  0  0  0  0  0  0  0
   -3.3870   -1.3740   -1.6400 O   0  0  0  0  0  0  0  0  0  0  0  0
   -3.4600   -1.6470    0.8510 O   0  0  0  0  0  0  0  0  0  0  0  0
   -1.0700   -1.2010   -0.2110 C   0  0  0  0  0  0  0  0  0  0  0  0
   -1.1270    0.2550   -0.0370 C   0  0  0  0  0  0  0  0  0  0  0  0
   -2.3590    0.8960   -0.0410 C   0  0  0  0  0  0  0  0  0  0  0  0
   -2.5170    2.2580    0.1160 C   0  0  0  0  0  0  0  0  0  0  0  0
   -3.7950    2.8110    0.0980 O   0  0  0  0  0  0  0  0  0  0  0  0
   -4.5720    2.9670    1.2670 C   0  0  1  0  0  0  0  0  0  0  0  0
   -3.9820    3.7670    2.2080 F   0  0  0  0  0  0  0  0  0  0  0  0
   -5.8200    3.4100    0.8750 F   0  0  0  0  0  0  0  0  0  0  0  0
   -4.7720    1.6820    1.7860 F   0  0  0  0  0  0  0  0  0  0  0  0
   -1.3920    3.0430    0.2870 C   0  0  0  0  0  0  0  0  0  0  0  0
   -0.1640    2.4230    0.2940 C   0  0  0  0  0  0  0  0  0  0  0  0
   -0.0100    1.0390    0.1340 C   0  0  0  0  0  0  0  0  0  0  0  0
    1.2870    0.4960    0.1510 N   0  0  0  0  0  0  0  0  0  0  0  0
    1.7780   -0.3920    1.1630 C   0  0  0  0  0  0  0  0  0  0  0  0
    2.4060   -1.6260    0.5590 C   0  0  0  0  0  0  0  0  0  0  0  0
    3.5170   -1.1620   -0.3170 C   0  0  0  0  0  0  0  0  0  0  0  0
    4.4410   -1.9930   -0.7500 C   0  0  0  0  0  0  0  0  0  0  0  0
    5.4630   -1.6430   -1.5420 F   0  0  0  0  0  0  0  0  0  0  0  0
    3.5480    0.2420   -0.6700 C   0  0  0  0  0  0  0  0  0  0  0  0
    4.6660    0.9450   -0.7330 C   0  0  0  0  0  0  0  0  0  0  0  0
    4.6370    2.2710   -1.0770 F   0  0  0  0  0  0  0  0  0  0  0  0
    5.8980    0.4710   -0.4550 F   0  0  0  0  0  0  0  0  0  0  0  0
    2.2130    0.8740   -0.9290 C   0  0  0  0  0  0  0  0  0  0  0  0
  2  1  1  6
  2  3  2  0
  2  4  2  0
  2  5  1  0
  5  6  1  0
  6  7  2  0
  6 16  1  0
  7  8  1  0
  8  9  1  0
  8 14  2  0
  9 10  1  0
 10 11  1  1
 10 12  1  0
 10 13  1  0
 14 15  1  0
 15 16  2  0
 16 17  1  0
 17 18  1  0
 17 27  1  0
 18 19  1  0
 19 20  1  0
 20 21  2  3
 20 23  1  0
 21 22  1  0
 23 24  2  3
 23 27  1  0
 24 25  1  0
 24 26  1  0
M  END
