
     RDKit          3D

 27 28  0  0  0  0  0  0  0  0999 V2000
    0.0950   -3.1010    1.2470 C   0  0  0  0  0  0  0  0  0  0  0  0
   -0.6590   -2.0820    1.1030 O   0  0  0  0  0  0  0  0  0  0  0  0
   -1.1810   -0.9220    0.8150 C   0  0  0  0  0  0  0  0  0  0  0  0
   -0.4060    0.0110    0.2320 C   0  0  0  0  0  0  0  0  0  0  0  0
    0.9500   -0.3450   -0.0310 N   0  0  0  0  0  0  0  0  0  0  0  0
    1.9470    0.4360   -0.6210 C   0  0  0  0  0  0  0  0  0  0  0  0
    1.7610    1.5860   -1.0050 O   0  0  0  0  0  0  0  0  0  0  0  0
    3.3010   -0.1200   -0.8070 C   0  0  0  0  0  0  0  0  0  0  0  0
    4.2380    0.6180   -1.3640 C   0  0  0  0  0  0  0  0  0  0  0  0
    5.6210    0.1680   -1.5990 C   0  0  0  0  0  0  0  0  0  0  0  0
    5.8940   -1.2420   -1.1440 C   0  0  2  0  0  0  0  0  0  0  0  0
    5.1010   -2.1800   -1.7760 F   0  0  0  0  0  0  0  0  0  0  0  0
    5.6950   -1.3210    0.2360 F   0  0  0  0  0  0  0  0  0  0  0  0
    7.2420   -1.5560   -1.3520 F   0  0  0  0  0  0  0  0  0  0  0  0
   -0.9980    1.2820   -0.0780 C   0  0  0  0  0  0  0  0  0  0  0  0
   -0.3520    2.2100   -0.6210 O   0  0  0  0  0  0  0  0  0  0  0  0
   -2.4180    1.4940    0.2580 C   0  0  0  0  0  0  0  0  0  0  0  0
   -3.1660    0.5510    0.8370 C   0  0  0  0  0  0  0  0  0  0  0  0
   -2.6300   -0.6150    1.1240 C   0  0  0  0  0  0  0  0  0  0  0  0
   -3.4090   -1.5860    1.7220 C   0  0  0  0  0  0  0  0  0  0  0  0
   -4.9840   -0.7900    1.8830 S   0  0  0  0  0  0  0  0  0  0  0  0
   -4.5020    0.7570    1.1520 C   0  0  0  0  0  0  0  0  0  0  0  0
   -5.3530    1.7560    1.0190 C   0  0  0  0  0  0  0  0  0  0  0  0
   -5.2940    3.0940    0.4890 C   0  0  1  0  0  0  0  0  0  0  0  0
   -6.5920    3.7080    0.5650 F   0  0  0  0  0  0  0  0  0  0  0  0
   -4.4200    3.9580    1.1130 F   0  0  0  0  0  0  0  0  0  0  0  0
   -5.0250    3.1030   -0.8630 F   0  0  0  0  0  0  0  0  0  0  0  0
  1  2  1  0
  2  3  1  0
  3  4  2  0
  3 19  1  0
  4  5  1  0
  4 15  1  0
  5  6  1  0
  6  7  2  0
  6  8  1  0
  8  9  2  3
  9 10  1  0
 10 11  1  0
 11 12  1  6
 11 13  1  0
 11 14  1  0
 15 16  2  0
 15 17  1  0
 17 18  2  0
 18 19  1  0
 18 22  1  0
 19 20  2  0
 20 21  1  0
 21 22  1  0
 22 23  2  3
 23 24  1  0
 24 25  1  6
 24 26  1  0
 24 27  1  0
M  END
