
     RDKit          3D

  9  9  0  0  0  0  0  0  0  0999 V2000
    2.5710    1.0110   -0.2880 O   0  0  0  0  0  0  0  0  0  0  0  0
    2.4610   -0.2470    0.2730 C   0  0  0  0  0  0  0  0  0  0  0  0
    1.1520   -0.3480    1.0110 C   0  0  0  0  0  0  0  0  0  0  0  0
    0.0010   -0.1610    0.2400 N   0  0  0  0  0  0  0  0  0  0  0  0
   -0.2650    1.1120   -0.2900 C   0  0  0  0  0  0  0  0  0  0  0  0
   -1.7740    1.3040   -0.3350 C   0  0  0  0  0  0  0  0  0  0  0  0
   -2.3420    0.2570   -1.0660 O   0  0  0  0  0  0  0  0  0  0  0  0
   -2.1840   -0.9160   -0.3420 C   0  0  0  0  0  0  0  0  0  0  0  0
   -0.7090   -1.2730   -0.2300 C   0  0  0  0  0  0  0  0  0  0  0  0
  1  2  1  0
  2  3  1  0
  3  4  1  0
  4  5  1  0
  4  9  1  0
  5  6  1  0
  6  7  1  0
  7  8  1  0
  8  9  1  0
M  END
