
     RDKit          3D

 27 28  0  0  0  0  0  0  0  0999 V2000
   -4.7470    2.0360   -2.6100 C   0  0  0  0  0  0  0  0  0  0  0  0
   -3.7710    1.3480   -1.7250 C   0  0  0  0  0  0  0  0  0  0  0  0
   -4.1410    0.8050   -0.5660 C   0  0  0  0  0  0  0  0  0  0  0  0
   -5.3980    0.7740   -0.0020 O   0  0  0  0  0  0  0  0  0  0  0  0
   -5.3730    0.1120    1.2180 C   0  0  0  0  0  0  0  0  0  0  0  0
   -3.9680   -0.2900    1.3990 C   0  0  0  0  0  0  0  0  0  0  0  0
   -3.4810   -1.0450    2.6050 C   0  0  2  0  0  0  0  0  0  0  0  0
   -3.7320   -0.2840    3.7380 F   0  0  0  0  0  0  0  0  0  0  0  0
   -2.1280   -1.2590    2.4780 F   0  0  0  0  0  0  0  0  0  0  0  0
   -4.1280   -2.2660    2.7060 F   0  0  0  0  0  0  0  0  0  0  0  0
   -3.2610    0.1130    0.3640 C   0  0  0  0  0  0  0  0  0  0  0  0
   -1.8780   -0.0950    0.1950 O   0  0  0  0  0  0  0  0  0  0  0  0
   -1.4750   -1.2080   -0.5610 C   0  0  0  0  0  0  0  0  0  0  0  0
    0.0430   -1.3050   -0.6580 C   0  0  0  0  0  0  0  0  0  0  0  0
    0.5320   -2.2350   -1.2930 O   0  0  0  0  0  0  0  0  0  0  0  0
    0.8410   -0.3550   -0.0370 N   0  0  0  0  0  0  0  0  0  0  0  0
    2.2180   -0.1340    0.0750 C   0  0  0  0  0  0  0  0  0  0  0  0
    2.7370    1.3010    1.1440 S   0  0  0  0  0  0  0  0  0  0  0  0
    4.4350    1.1160    0.9200 C   0  0  0  0  0  0  0  0  0  0  0  0
    5.4670    1.9950    1.5400 C   0  0  0  0  0  0  0  0  0  0  0  0
    4.5430    0.0540    0.1040 C   0  0  0  0  0  0  0  0  0  0  0  0
    5.9590   -0.3820   -0.2920 C   0  0  0  0  0  0  0  0  0  0  0  0
    3.4250   -0.5830   -0.3270 C   0  0  0  0  0  0  0  0  0  0  0  0
    3.4950   -1.7810   -1.2700 C   0  0  2  0  0  0  0  0  0  0  0  0
    4.8440   -2.0770   -1.5660 F   0  0  0  0  0  0  0  0  0  0  0  0
    2.8480   -1.5290   -2.4490 F   0  0  0  0  0  0  0  0  0  0  0  0
    3.0470   -2.9000   -0.6580 F   0  0  0  0  0  0  0  0  0  0  0  0
  1  2  1  0
  2  3  2  3
  3  4  1  0
  3 11  1  0
  4  5  1  0
  5  6  1  0
  6  7  1  0
  6 11  2  0
  7  8  1  1
  7  9  1  0
  7 10  1  0
 11 12  1  0
 12 13  1  0
 13 14  1  0
 14 15  2  0
 14 16  1  0
 16 17  1  0
 17 18  1  0
 17 23  2  0
 18 19  1  0
 19 20  1  0
 19 21  2  0
 21 22  1  0
 21 23  1  0
 23 24  1  0
 24 25  1  6
 24 26  1  0
 24 27  1  0
M  END
