
     RDKit          3D

 27 28  0  0  0  0  0  0  0  0999 V2000
    2.3240   -1.2560   -1.8870 O   0  0  0  0  0  0  0  0  0  0  0  0
    2.9090   -0.8640   -0.8110 C   0  0  0  0  0  0  0  0  0  0  0  0
    4.1920   -1.5440   -0.6150 C   0  0  0  0  0  0  0  0  0  0  0  0
    5.3660   -0.7470    0.4580 S   0  0  0  0  0  0  0  0  0  0  0  0
    5.1900    1.0170    0.4830 C   0  0  0  0  0  0  0  0  0  0  0  0
    6.4850    1.7640    0.5040 C   0  0  1  0  0  0  0  0  0  0  0  0
    7.1710    1.3850    1.6490 F   0  0  0  0  0  0  0  0  0  0  0  0
    7.2160    1.4850   -0.6350 F   0  0  0  0  0  0  0  0  0  0  0  0
    6.2960    3.1250    0.5790 F   0  0  0  0  0  0  0  0  0  0  0  0
    4.0910    1.7380    0.4850 C   0  0  0  0  0  0  0  0  0  0  0  0
    2.7200    1.2190    0.4660 C   0  0  0  0  0  0  0  0  0  0  0  0
    2.1900    0.1260   -0.0700 C   0  0  0  0  0  0  0  0  0  0  0  0
    0.7600   -0.0530    0.1090 C   0  0  0  0  0  0  0  0  0  0  0  0
    0.1720    0.8940    0.7420 O   0  0  0  0  0  0  0  0  0  0  0  0
   -0.0080   -1.1450   -0.3390 N   0  0  0  0  0  0  0  0  0  0  0  0
   -1.4000   -1.3220   -0.1800 C   0  0  0  0  0  0  0  0  0  0  0  0
   -1.9630   -2.5650   -0.4970 C   0  0  0  0  0  0  0  0  0  0  0  0
   -3.3080   -2.8250   -0.3850 C   0  0  0  0  0  0  0  0  0  0  0  0
   -3.7920   -4.0510   -0.7100 F   0  0  0  0  0  0  0  0  0  0  0  0
   -4.1530   -1.8450    0.0540 C   0  0  0  0  0  0  0  0  0  0  0  0
   -3.6560   -0.6110    0.3790 C   0  0  0  0  0  0  0  0  0  0  0  0
   -4.5690    0.4580    0.8560 C   0  0  0  0  0  0  0  0  0  0  0  0
   -5.0370    1.1930   -0.2300 O   0  0  0  0  0  0  0  0  0  0  0  0
   -5.8940    2.2070    0.1420 C   0  0  2  0  0  0  0  0  0  0  0  0
   -7.1120    2.1620   -0.5090 F   0  0  0  0  0  0  0  0  0  0  0  0
   -5.2950    3.4080   -0.2590 F   0  0  0  0  0  0  0  0  0  0  0  0
   -2.2840   -0.3770    0.2540 C   0  0  0  0  0  0  0  0  0  0  0  0
  1  2  2  0
  2  3  1  0
  2 12  1  0
  3  4  1  0
  4  5  1  0
  5  6  1  0
  5 10  2  0
  6  7  1  1
  6  8  1  0
  6  9  1  0
 10 11  1  0
 11 12  2  0
 12 13  1  0
 13 14  2  0
 13 15  1  0
 15 16  1  0
 16 17  2  0
 16 27  1  0
 17 18  1  0
 18 19  1  0
 18 20  2  0
 20 21  1  0
 21 22  1  0
 21 27  2  0
 22 23  1  0
 23 24  1  0
 24 25  1  6
 24 26  1  0
M  END
