
     RDKit          3D

 27 28  0  0  0  0  0  0  0  0999 V2000
    3.5750   -1.4310    1.3860 C   0  0  0  0  0  0  0  0  0  0  0  0
    3.8040   -0.5520    0.4200 C   0  0  0  0  0  0  0  0  0  0  0  0
    5.0630   -0.4150   -0.3120 C   0  0  0  0  0  0  0  0  0  0  0  0
    6.2650   -0.8360    0.0330 C   0  0  0  0  0  0  0  0  0  0  0  0
    7.3000   -0.6040   -0.7960 F   0  0  0  0  0  0  0  0  0  0  0  0
    4.7090    0.3220   -1.5750 C   0  0  1  0  0  0  0  0  0  0  0  0
    5.7920    1.0900   -1.9150 F   0  0  0  0  0  0  0  0  0  0  0  0
    4.3950   -0.5320   -2.5930 F   0  0  0  0  0  0  0  0  0  0  0  0
    3.5600    1.1350   -1.1080 C   0  0  0  0  0  0  0  0  0  0  0  0
    3.1890    2.6010   -1.7100 S   0  0  0  0  0  0  0  0  0  0  0  0
    2.8810    0.4100   -0.0770 N   0  0  0  0  0  0  0  0  0  0  0  0
    1.5150    0.6590    0.3340 C   0  0  0  0  0  0  0  0  0  0  0  0
    0.5100    0.2860   -0.7300 C   0  0  0  0  0  0  0  0  0  0  0  0
   -0.8530    0.5760   -0.2170 C   0  0  0  0  0  0  0  0  0  0  0  0
   -1.0120    1.0510    0.9370 O   0  0  0  0  0  0  0  0  0  0  0  0
   -2.0010    0.3440   -0.9620 O   0  0  0  0  0  0  0  0  0  0  0  0
   -3.2580    0.6440   -0.4050 C   0  0  0  0  0  0  0  0  0  0  0  0
   -3.8300    1.8880   -0.5540 C   0  0  0  0  0  0  0  0  0  0  0  0
   -5.0750    2.1540    0.0090 C   0  0  0  0  0  0  0  0  0  0  0  0
   -5.7640    1.1970    0.7220 C   0  0  0  0  0  0  0  0  0  0  0  0
   -5.1590   -0.0440    0.8520 C   0  0  0  0  0  0  0  0  0  0  0  0
   -3.9310   -0.3080    0.2970 C   0  0  0  0  0  0  0  0  0  0  0  0
   -3.3210   -1.5710    0.4320 O   0  0  0  0  0  0  0  0  0  0  0  0
   -3.5490   -2.5930   -0.5210 C   0  0  2  0  0  0  0  0  0  0  0  0
   -2.8380   -3.7020   -0.1440 F   0  0  0  0  0  0  0  0  0  0  0  0
   -3.1340   -2.2030   -1.7810 F   0  0  0  0  0  0  0  0  0  0  0  0
   -4.8900   -2.9150   -0.6290 F   0  0  0  0  0  0  0  0  0  0  0  0
  1  2  2  0
  2  3  1  0
  2 11  1  0
  3  4  2  3
  3  6  1  0
  4  5  1  0
  6  7  1  6
  6  8  1  0
  6  9  1  0
  9 10  2  0
  9 11  1  0
 11 12  1  0
 12 13  1  0
 13 14  1  0
 14 15  2  0
 14 16  1  0
 16 17  1  0
 17 18  2  0
 17 22  1  0
 18 19  1  0
 19 20  2  0
 20 21  1  0
 21 22  2  0
 22 23  1  0
 23 24  1  0
 24 25  1  1
 24 26  1  0
 24 27  1  0
M  END
