
     RDKit          3D

 20 22  0  0  0  0  0  0  0  0999 V2000
    2.8450    3.0380    1.2090 O   0  0  0  0  0  0  0  0  0  0  0  0
    3.2210    1.9890    0.6400 C   0  0  0  0  0  0  0  0  0  0  0  0
    4.5090    1.7440    0.3670 N   0  0  0  0  0  0  0  0  0  0  0  0
    4.8840    0.5930   -0.2400 C   0  0  0  0  0  0  0  0  0  0  0  0
    3.9000   -0.3560   -0.5830 C   0  0  0  0  0  0  0  0  0  0  0  0
    2.5740   -0.1420   -0.3160 C   0  0  0  0  0  0  0  0  0  0  0  0
    1.4840   -0.8300   -0.5120 O   0  0  0  0  0  0  0  0  0  0  0  0
    0.4330   -0.2150   -0.0900 C   0  0  0  0  0  0  0  0  0  0  0  0
   -0.9420   -0.6900   -0.1420 C   0  0  0  0  0  0  0  0  0  0  0  0
   -1.2420   -2.0500   -0.2880 C   0  0  0  0  0  0  0  0  0  0  0  0
   -2.5130   -2.5090   -0.3500 C   0  0  0  0  0  0  0  0  0  0  0  0
   -3.5730   -1.6480   -0.2760 C   0  0  0  0  0  0  0  0  0  0  0  0
   -3.3550   -0.3100   -0.1410 C   0  0  0  0  0  0  0  0  0  0  0  0
   -4.5230    0.6040   -0.0930 C   0  0  2  0  0  0  0  0  0  0  0  0
   -5.1360    0.3370    1.1200 F   0  0  0  0  0  0  0  0  0  0  0  0
   -5.3900    0.1860   -1.1150 F   0  0  0  0  0  0  0  0  0  0  0  0
   -4.1810    1.9110   -0.2180 F   0  0  0  0  0  0  0  0  0  0  0  0
   -2.0480    0.1500   -0.0750 C   0  0  0  0  0  0  0  0  0  0  0  0
    0.8630    0.9920    0.4380 C   0  0  0  0  0  0  0  0  0  0  0  0
    2.2270    1.0520    0.3030 C   0  0  0  0  0  0  0  0  0  0  0  0
  1  2  2  0
  2  3  1  0
  2 20  1  0
  3  4  1  0
  4  5  2  0
  5  6  1  0
  6  7  1  0
  6 20  2  0
  7  8  1  0
  8  9  1  0
  8 19  2  0
  9 10  2  0
  9 18  1  0
 10 11  1  0
 11 12  2  0
 12 13  1  0
 13 14  1  0
 13 18  2  0
 14 15  1  1
 14 16  1  0
 14 17  1  0
 19 20  1  0
M  END
