
     RDKit          3D

 27 28  0  0  0  0  0  0  0  0999 V2000
    1.0880   -2.6880   -0.1120 O   0  0  0  0  0  0  0  0  0  0  0  0
    2.1650   -2.5000   -0.7470 C   0  0  0  0  0  0  0  0  0  0  0  0
    2.3860   -1.2580   -1.5190 C   0  0  0  0  0  0  0  0  0  0  0  0
    1.1970   -0.3920   -1.3460 N   0  0  0  0  0  0  0  0  0  0  0  0
    1.0980    0.8330   -1.9900 C   0  0  0  0  0  0  0  0  0  0  0  0
    2.1010    1.1130   -2.7610 O   0  0  0  0  0  0  0  0  0  0  0  0
    0.0520    1.8110   -1.9440 C   0  0  0  0  0  0  0  0  0  0  0  0
   -0.0940    3.1160   -3.1880 S   0  0  0  0  0  0  0  0  0  0  0  0
   -1.5490    3.8710   -2.4650 C   0  0  0  0  0  0  0  0  0  0  0  0
   -1.8180    3.1090   -1.3550 C   0  0  0  0  0  0  0  0  0  0  0  0
   -0.9890    2.0730   -1.1070 C   0  0  0  0  0  0  0  0  0  0  0  0
   -1.0400    1.2960    0.1850 C   0  0  0  0  0  0  0  0  0  0  0  0
    0.1240    1.1430    0.8010 C   0  0  0  0  0  0  0  0  0  0  0  0
    0.1480    0.3840    2.0850 C   0  0  2  0  0  0  0  0  0  0  0  0
   -0.2090   -0.9300    1.9190 F   0  0  0  0  0  0  0  0  0  0  0  0
   -0.7240    0.9820    2.9470 F   0  0  0  0  0  0  0  0  0  0  0  0
   -2.2730    0.8120    0.7920 C   0  0  0  0  0  0  0  0  0  0  0  0
   -3.5150    1.2430    0.5660 C   0  0  0  0  0  0  0  0  0  0  0  0
   -4.4970    0.6290    1.2590 F   0  0  0  0  0  0  0  0  0  0  0  0
   -3.9590    2.3020   -0.3570 C   0  0  0  0  0  0  0  0  0  0  0  0
   -3.0450    3.4670   -0.5280 C   0  0  0  0  0  0  0  0  0  0  0  0
    3.1160   -3.4750   -0.6980 O   0  0  0  0  0  0  0  0  0  0  0  0
    3.0690   -4.6900   -0.0170 C   0  0  0  0  0  0  0  0  0  0  0  0
    2.9970   -4.5440    1.4780 C   0  0  1  0  0  0  0  0  0  0  0  0
    1.9140   -3.8680    1.9040 F   0  0  0  0  0  0  0  0  0  0  0  0
    3.0080   -5.8010    2.0740 F   0  0  0  0  0  0  0  0  0  0  0  0
    4.1420   -3.8610    1.9180 F   0  0  0  0  0  0  0  0  0  0  0  0
  1  2  2  0
  2  3  1  0
  2 22  1  0
  3  4  1  0
  4  5  1  0
  5  6  2  0
  5  7  1  0
  7  8  1  0
  7 11  2  0
  8  9  1  0
  9 10  2  0
 10 11  1  0
 10 21  1  0
 11 12  1  0
 12 13  2  3
 12 17  1  0
 13 14  1  0
 14 15  1  6
 14 16  1  0
 17 18  2  0
 18 19  1  0
 18 20  1  0
 20 21  1  0
 22 23  1  0
 23 24  1  0
 24 25  1  6
 24 26  1  0
 24 27  1  0
M  END
