
     RDKit          3D

 20 22  0  0  0  0  0  0  0  0999 V2000
    4.9350    0.9880    1.0370 C   0  0  0  0  0  0  0  0  0  0  0  0
    3.6840    0.7100    0.7000 C   0  0  0  0  0  0  0  0  0  0  0  0
    2.7060    1.6450    0.9090 N   0  0  0  0  0  0  0  0  0  0  0  0
    1.4180    1.4400    0.5950 C   0  0  0  0  0  0  0  0  0  0  0  0
    0.9980    0.2520    0.0330 C   0  0  0  0  0  0  0  0  0  0  0  0
   -0.4000    0.0130   -0.3140 C   0  0  0  0  0  0  0  0  0  0  0  0
   -1.4060    0.3500    0.5640 C   0  0  0  0  0  0  0  0  0  0  0  0
   -2.7350    0.1480    0.2890 C   0  0  0  0  0  0  0  0  0  0  0  0
   -3.7420    0.4940    1.1870 O   0  0  0  0  0  0  0  0  0  0  0  0
   -3.3640    1.0820    2.4390 C   0  0  0  0  0  0  0  0  0  0  0  0
   -3.0780   -0.4180   -0.9170 C   0  0  0  0  0  0  0  0  0  0  0  0
   -2.0930   -0.7660   -1.8170 C   0  0  0  0  0  0  0  0  0  0  0  0
   -0.7600   -0.5590   -1.5320 C   0  0  0  0  0  0  0  0  0  0  0  0
   -2.7410   -1.3030   -2.9220 O   0  0  0  0  0  0  0  0  0  0  0  0
   -4.0960   -0.8960   -2.8780 C   0  0  0  0  0  0  0  0  0  0  0  0
   -4.2900   -0.7470   -1.4860 O   0  0  0  0  0  0  0  0  0  0  0  0
    1.9750   -0.6920   -0.1800 C   0  0  0  0  0  0  0  0  0  0  0  0
    1.6580   -1.7920   -0.6870 O   0  0  0  0  0  0  0  0  0  0  0  0
    3.3210   -0.4930    0.1420 C   0  0  0  0  0  0  0  0  0  0  0  0
    4.2110   -1.4520   -0.0920 C   0  0  0  0  0  0  0  0  0  0  0  0
  1  2  2  0
  2  3  1  0
  2 19  1  0
  3  4  1  0
  4  5  2  0
  5  6  1  0
  5 17  1  0
  6  7  2  0
  6 13  1  0
  7  8  1  0
  8  9  1  0
  8 11  2  0
  9 10  1  0
 11 12  1  0
 11 16  1  0
 12 13  2  0
 12 14  1  0
 14 15  1  0
 15 16  1  0
 17 18  2  0
 17 19  1  0
 19 20  2  0
M  END
