
     RDKit          3D

 20 22  0  0  0  0  0  0  0  0999 V2000
    4.2920    2.0650   -0.4840 C   0  0  0  0  0  0  0  0  0  0  0  0
    4.0060    1.0240    0.2620 C   0  0  0  0  0  0  0  0  0  0  0  0
    4.9130    0.2480    1.1240 C   0  0  0  0  0  0  0  0  0  0  0  0
    6.1410    0.4640    1.2880 O   0  0  0  0  0  0  0  0  0  0  0  0
    4.1230   -0.7370    1.6900 O   0  0  0  0  0  0  0  0  0  0  0  0
    2.9520   -0.9450    0.8980 C   0  0  0  0  0  0  0  0  0  0  0  0
    2.6550    0.4040    0.3840 C   0  0  0  0  0  0  0  0  0  0  0  0
    1.5380    1.0120    0.0440 C   0  0  0  0  0  0  0  0  0  0  0  0
    0.2180    0.4510    0.1500 C   0  0  0  0  0  0  0  0  0  0  0  0
   -0.6360    0.5030   -0.9470 C   0  0  0  0  0  0  0  0  0  0  0  0
   -1.9100    0.0070   -0.8890 C   0  0  0  0  0  0  0  0  0  0  0  0
   -2.7750    0.0490   -1.9740 C   0  0  0  0  0  0  0  0  0  0  0  0
   -4.0460   -0.4560   -1.8820 C   0  0  0  0  0  0  0  0  0  0  0  0
   -4.4880   -1.0200   -0.7020 C   0  0  0  0  0  0  0  0  0  0  0  0
   -5.7610   -1.5390   -0.5710 O   0  0  0  0  0  0  0  0  0  0  0  0
   -3.6260   -1.0600    0.3720 C   0  0  0  0  0  0  0  0  0  0  0  0
   -2.3320   -0.5510    0.2990 C   0  0  0  0  0  0  0  0  0  0  0  0
   -1.4920   -0.6060    1.3910 C   0  0  0  0  0  0  0  0  0  0  0  0
   -1.8580   -1.1110    2.4830 O   0  0  0  0  0  0  0  0  0  0  0  0
   -0.2430   -0.0990    1.2720 N   0  0  0  0  0  0  0  0  0  0  0  0
  1  2  2  0
  2  3  1  0
  2  7  1  0
  3  4  2  0
  3  5  1  0
  5  6  1  0
  6  7  1  0
  7  8  2  3
  8  9  1  0
  9 10  2  0
  9 20  1  0
 10 11  1  0
 11 12  2  0
 11 17  1  0
 12 13  1  0
 13 14  2  0
 14 15  1  0
 14 16  1  0
 16 17  2  0
 17 18  1  0
 18 19  2  0
 18 20  1  0
M  END
