
     RDKit          3D

 20 22  0  0  0  0  0  0  0  0999 V2000
    5.6190   -0.0090    0.4210 C   0  0  0  0  0  0  0  0  0  0  0  0
    4.7500    1.0530    0.1740 O   0  0  0  0  0  0  0  0  0  0  0  0
    3.3790    0.9600    0.1140 C   0  0  0  0  0  0  0  0  0  0  0  0
    2.6350    2.0860   -0.1380 C   0  0  0  0  0  0  0  0  0  0  0  0
    1.2580    2.0220   -0.2030 C   0  0  0  0  0  0  0  0  0  0  0  0
    0.6400    0.8070   -0.0110 C   0  0  0  0  0  0  0  0  0  0  0  0
   -0.7600    0.6930   -0.0680 C   0  0  0  0  0  0  0  0  0  0  0  0
   -1.4120   -0.5090    0.1200 C   0  0  0  0  0  0  0  0  0  0  0  0
   -2.8560   -0.5700    0.0500 C   0  0  0  0  0  0  0  0  0  0  0  0
   -3.6180    0.5810   -0.2080 C   0  0  0  0  0  0  0  0  0  0  0  0
   -5.0020    0.5300   -0.2760 C   0  0  0  0  0  0  0  0  0  0  0  0
   -5.6300   -0.6710   -0.0870 C   0  0  0  0  0  0  0  0  0  0  0  0
   -4.9220   -1.7320    0.1510 O   0  0  0  0  0  0  0  0  0  0  0  0
   -3.5920   -1.7160    0.2230 C   0  0  0  0  0  0  0  0  0  0  0  0
   -3.0740   -2.8250    0.4590 O   0  0  0  0  0  0  0  0  0  0  0  0
   -0.6440   -1.5610    0.3590 N   0  0  0  0  0  0  0  0  0  0  0  0
    0.7220   -1.4860    0.4220 C   0  0  0  0  0  0  0  0  0  0  0  0
    1.4010   -2.5110    0.6520 O   0  0  0  0  0  0  0  0  0  0  0  0
    1.3900   -0.3120    0.2400 C   0  0  0  0  0  0  0  0  0  0  0  0
    2.7670   -0.2430    0.3050 C   0  0  0  0  0  0  0  0  0  0  0  0
  1  2  1  0
  2  3  1  0
  3  4  2  0
  3 20  1  0
  4  5  1  0
  5  6  2  0
  6  7  1  0
  6 19  1  0
  7  8  2  0
  8  9  1  0
  8 16  1  0
  9 10  2  0
  9 14  1  0
 10 11  1  0
 11 12  2  0
 12 13  1  0
 13 14  1  0
 14 15  2  0
 16 17  1  0
 17 18  2  0
 17 19  1  0
 19 20  2  0
M  END
