
     RDKit          3D

 19 21  0  0  0  0  0  0  0  0999 V2000
    4.7600   -0.8970   -0.0970 C   0  0  0  0  0  0  0  0  0  0  0  0
    3.2830   -0.9230   -0.2470 C   0  0  0  0  0  0  0  0  0  0  0  0
    2.7430   -1.4450   -1.2390 O   0  0  0  0  0  0  0  0  0  0  0  0
    2.3970   -0.3980    0.6560 O   0  0  0  0  0  0  0  0  0  0  0  0
    1.0480   -0.3960    0.5680 C   0  0  0  0  0  0  0  0  0  0  0  0
    0.1880   -1.3340    1.0270 C   0  0  0  0  0  0  0  0  0  0  0  0
   -1.1780   -1.2640    0.9000 C   0  0  0  0  0  0  0  0  0  0  0  0
   -1.9890   -2.2730    1.4010 C   0  0  0  0  0  0  0  0  0  0  0  0
   -1.4270   -3.2280    1.9610 O   0  0  0  0  0  0  0  0  0  0  0  0
   -3.3060   -2.1370    1.2420 N   0  0  0  0  0  0  0  0  0  0  0  0
   -3.8780   -1.0910    0.6310 C   0  0  0  0  0  0  0  0  0  0  0  0
   -3.0940   -0.0760    0.1250 C   0  0  0  0  0  0  0  0  0  0  0  0
   -1.7310   -0.1590    0.2590 C   0  0  0  0  0  0  0  0  0  0  0  0
   -0.9020    0.8360   -0.2340 C   0  0  0  0  0  0  0  0  0  0  0  0
    0.4700    0.7000   -0.0700 C   0  0  0  0  0  0  0  0  0  0  0  0
    1.2440    1.7270   -0.5840 O   0  0  0  0  0  0  0  0  0  0  0  0
    0.8280    2.8700   -1.2380 C   0  0  0  0  0  0  0  0  0  0  0  0
   -0.6280    2.9420   -1.3710 C   0  0  0  0  0  0  0  0  0  0  0  0
   -1.4430    2.0090   -0.9120 C   0  0  0  0  0  0  0  0  0  0  0  0
  1  2  1  0
  2  3  2  0
  2  4  1  0
  4  5  1  0
  5  6  2  0
  5 15  1  0
  6  7  1  0
  7  8  1  0
  7 13  2  0
  8  9  2  0
  8 10  1  0
 10 11  1  0
 11 12  2  0
 12 13  1  0
 13 14  1  0
 14 15  2  0
 14 19  1  0
 15 16  1  0
 16 17  1  0
 17 18  1  0
 18 19  2  0
M  END
