
     RDKit          3D

 20 22  0  0  0  0  0  0  0  0999 V2000
    3.8210   -1.4070    2.0020 C   0  0  0  0  0  0  0  0  0  0  0  0
    4.1530   -1.0240    0.6750 O   0  0  0  0  0  0  0  0  0  0  0  0
    3.3070   -0.2110   -0.0590 C   0  0  0  0  0  0  0  0  0  0  0  0
    2.1140    0.2690    0.4370 C   0  0  0  0  0  0  0  0  0  0  0  0
    1.2720    1.0800   -0.2970 C   0  0  0  0  0  0  0  0  0  0  0  0
    0.0690    1.5510    0.2320 O   0  0  0  0  0  0  0  0  0  0  0  0
   -1.0830    0.8360    0.0820 C   0  0  0  0  0  0  0  0  0  0  0  0
   -1.2000   -0.3700   -0.5720 C   0  0  0  0  0  0  0  0  0  0  0  0
   -2.5000   -0.7760   -0.5150 C   0  0  0  0  0  0  0  0  0  0  0  0
   -3.0030   -1.8970   -1.0360 C   0  0  0  0  0  0  0  0  0  0  0  0
   -4.3510   -2.1950   -0.9080 O   0  0  0  0  0  0  0  0  0  0  0  0
   -3.2020    0.1420    0.1550 N   0  0  0  0  0  0  0  0  0  0  0  0
   -4.4530    0.4150    0.5830 C   0  0  0  0  0  0  0  0  0  0  0  0
   -4.4380    1.6180    1.2580 C   0  0  0  0  0  0  0  0  0  0  0  0
   -3.1310    2.0520    1.2150 C   0  0  0  0  0  0  0  0  0  0  0  0
   -2.3550    1.1350    0.5290 C   0  0  0  0  0  0  0  0  0  0  0  0
    1.6740    1.4010   -1.5770 C   0  0  0  0  0  0  0  0  0  0  0  0
    2.8660    0.9230   -2.0760 C   0  0  0  0  0  0  0  0  0  0  0  0
    3.7120    0.1090   -1.3400 C   0  0  0  0  0  0  0  0  0  0  0  0
    4.9120   -0.3570   -1.8800 O   0  0  0  0  0  0  0  0  0  0  0  0
  1  2  1  0
  2  3  1  0
  3  4  2  0
  3 19  1  0
  4  5  1  0
  5  6  1  0
  5 17  2  0
  6  7  1  0
  7  8  2  0
  7 16  1  0
  8  9  1  0
  9 10  2  3
  9 12  1  0
 10 11  1  0
 12 13  1  0
 12 16  1  0
 13 14  2  0
 14 15  1  0
 15 16  2  0
 17 18  1  0
 18 19  2  0
 19 20  1  0
M  END
