
     RDKit          3D

 11 12  0  0  0  0  0  0  0  0999 V2000
   -1.0990   -1.5820   -0.3740 C   0  0  0  0  0  0  0  0  0  0  0  0
   -0.2290   -0.6010   -0.1860 C   0  0  0  0  0  0  0  0  0  0  0  0
    1.1580   -1.0930   -0.3770 C   0  0  0  0  0  0  0  0  0  0  0  0
    2.1650   -0.0280    0.0040 C   0  0  0  0  0  0  0  0  0  0  0  0
    2.0760    1.0920   -0.7850 O   0  0  0  0  0  0  0  0  0  0  0  0
    1.4600    2.1680   -0.2070 C   0  0  0  0  0  0  0  0  0  0  0  0
    0.1980    1.8540    0.3760 O   0  0  0  0  0  0  0  0  0  0  0  0
   -0.6380    0.7560    0.1590 C   0  0  0  0  0  0  0  0  0  0  0  0
   -1.9140    0.9960    0.2840 C   0  0  0  0  0  0  0  0  0  0  0  0
   -2.8510   -0.0100    0.0940 O   0  0  0  0  0  0  0  0  0  0  0  0
   -2.5350   -1.3350   -0.2390 C   0  0  0  0  0  0  0  0  0  0  0  0
  1  2  2  0
  1 11  1  0
  2  3  1  0
  2  8  1  0
  3  4  1  0
  4  5  1  0
  5  6  1  0
  6  7  1  0
  7  8  1  0
  8  9  2  0
  9 10  1  0
 10 11  1  0
M  END
