
     RDKit          3D

 20 22  0  0  0  0  0  0  0  0999 V2000
    3.5890    2.9230    0.7310 C   0  0  0  0  0  0  0  0  0  0  0  0
    4.0320    1.6690    0.2460 O   0  0  0  0  0  0  0  0  0  0  0  0
    3.1600    0.6450   -0.0970 C   0  0  0  0  0  0  0  0  0  0  0  0
    1.7780    0.7700    0.0100 C   0  0  0  0  0  0  0  0  0  0  0  0
    0.9360   -0.2660   -0.3390 C   0  0  0  0  0  0  0  0  0  0  0  0
   -0.4880   -0.1220   -0.2240 C   0  0  0  0  0  0  0  0  0  0  0  0
   -1.1270    1.0310   -0.6700 C   0  0  0  0  0  0  0  0  0  0  0  0
   -2.4880    1.1930   -0.5720 C   0  0  0  0  0  0  0  0  0  0  0  0
   -3.2210    0.1880   -0.0190 C   0  0  0  0  0  0  0  0  0  0  0  0
   -2.5970   -0.9610    0.4270 C   0  0  0  0  0  0  0  0  0  0  0  0
   -1.2510   -1.1500    0.3430 C   0  0  0  0  0  0  0  0  0  0  0  0
   -0.5840   -2.2630    0.7670 O   0  0  0  0  0  0  0  0  0  0  0  0
   -1.1390   -3.3930    1.3540 C   0  0  0  0  0  0  0  0  0  0  0  0
   -4.5810    0.6370   -0.0520 N   0  0  0  0  0  0  0  0  0  0  0  0
   -4.5840    2.0190   -0.4410 C   0  0  0  0  0  0  0  0  0  0  0  0
   -3.2900    2.2550   -0.9550 O   0  0  0  0  0  0  0  0  0  0  0  0
    1.5270   -1.4230   -0.7950 C   0  0  0  0  0  0  0  0  0  0  0  0
    2.8950   -1.5740   -0.9100 C   0  0  0  0  0  0  0  0  0  0  0  0
    3.7100   -0.5310   -0.5570 C   0  0  0  0  0  0  0  0  0  0  0  0
    5.1060   -0.6510   -0.6620 O   0  0  0  0  0  0  0  0  0  0  0  0
  1  2  1  0
  2  3  1  0
  3  4  2  0
  3 19  1  0
  4  5  1  0
  5  6  1  0
  5 17  2  0
  6  7  2  0
  6 11  1  0
  7  8  1  0
  8  9  2  0
  8 16  1  0
  9 10  1  0
  9 14  1  0
 10 11  2  0
 11 12  1  0
 12 13  1  0
 14 15  1  0
 15 16  1  0
 17 18  1  0
 18 19  2  0
 19 20  1  0
M  END
