
     RDKit          3D

 30 33  0  0  0  0  0  0  0  0999 V2000
   -3.1390   -4.3780    1.3620 C   0  0  0  0  0  0  0  0  0  0  0  0
   -2.3900   -3.2460    0.7320 C   0  0  2  0  0  0  0  0  0  0  0  0
   -1.6020   -2.5040    1.7840 C   0  0  0  0  0  0  0  0  0  0  0  0
   -0.8310   -1.4120    1.1270 C   0  0  1  0  0  0  0  0  0  0  0  0
    0.6340   -1.5930    1.4240 C   0  0  0  0  0  0  0  0  0  0  0  0
    1.4360   -0.5990    0.8370 O   0  0  0  0  0  0  0  0  0  0  0  0
    2.8030   -0.6630    1.0410 C   0  0  0  0  0  0  0  0  0  0  0  0
    3.3870   -1.6640    1.6640 C   0  0  0  0  0  0  0  0  0  0  0  0
    4.8120   -1.7590    1.8520 C   0  0  0  0  0  0  0  0  0  0  0  0
    5.6190   -0.8490    1.3600 C   0  0  0  0  0  0  0  0  0  0  0  0
    5.1080    0.2790    0.5720 C   0  0  1  0  0  0  0  0  0  0  0  0
    5.2990   -0.2940   -0.8250 O   0  0  0  0  0  0  0  0  0  0  0  0
    3.6730    0.4270    0.5950 C   0  0  0  0  0  0  0  0  0  0  0  0
    3.1180    1.5070    0.0440 C   0  0  0  0  0  0  0  0  0  0  0  0
    4.0090    2.6050   -0.3590 C   0  0  0  0  0  0  0  0  0  0  0  0
    3.4100    3.8120   -1.0200 C   0  0  0  0  0  0  0  0  0  0  0  0
    4.4340    4.6970   -1.3060 O   0  0  0  0  0  0  0  0  0  0  0  0
    5.3080    2.5900   -0.1750 C   0  0  0  0  0  0  0  0  0  0  0  0
    5.9810    1.4570    0.4820 C   0  0  2  0  0  0  0  0  0  0  0  0
    7.2500    1.0960   -0.2920 C   0  0  0  0  0  0  0  0  0  0  0  0
   -1.1120   -1.2620   -0.3330 C   0  0  0  0  0  0  0  0  0  0  0  0
   -2.5390   -1.2070   -0.7160 C   0  0  2  0  0  0  0  0  0  0  0  0
   -3.2360    0.0860   -0.4690 C   0  0  1  0  0  0  0  0  0  0  0  0
   -2.6400    1.2650   -1.1760 C   0  0  0  0  0  0  0  0  0  0  0  0
   -3.6840    2.3560   -1.4210 C   0  0  0  0  0  0  0  0  0  0  0  0
   -4.6990    2.4040   -0.3050 C   0  0  0  0  0  0  0  0  0  0  0  0
   -5.4160    1.0950   -0.1040 C   0  0  1  0  0  0  0  0  0  0  0  0
   -6.8560    1.1750   -0.5500 C   0  0  0  0  0  0  0  0  0  0  0  0
   -4.6870    0.0190   -0.9010 C   0  0  0  0  0  0  0  0  0  0  0  0
   -3.2900   -2.3300   -0.0600 C   0  0  0  0  0  0  0  0  0  0  0  0
  2  1  1  1
  2  3  1  0
  2 30  1  0
  3  4  1  0
  4  5  1  6
  4 21  1  0
  5  6  1  0
  6  7  1  0
  7  8  2  0
  7 13  1  0
  8  9  1  0
  9 10  2  0
 10 11  1  0
 11 12  1  6
 11 13  1  0
 11 19  1  0
 13 14  2  0
 14 15  1  0
 15 16  1  0
 15 18  2  0
 16 17  1  0
 18 19  1  0
 19 20  1  6
 22 21  1  1
 22 23  1  0
 22 30  1  0
 23 24  1  6
 23 29  1  0
 24 25  1  0
 25 26  1  0
 26 27  1  0
 27 28  1  6
 27 29  1  0
M  END
