
     RDKit          3D

 30 31  0  0  0  0  0  0  0  0999 V2000
    0.4010    4.3390   -2.0900 C   0  0  0  0  0  0  0  0  0  0  0  0
   -0.4560    4.4720   -1.1120 C   0  0  0  0  0  0  0  0  0  0  0  0
   -0.8300    3.3620   -0.1950 C   0  0  0  0  0  0  0  0  0  0  0  0
   -1.6920    3.6340    0.7290 C   0  0  0  0  0  0  0  0  0  0  0  0
   -2.2640    5.0010    0.8340 C   0  0  0  0  0  0  0  0  0  0  0  0
   -0.2110    2.0930   -0.4930 C   0  0  0  0  0  0  0  0  0  0  0  0
   -0.6040    0.8370    0.2200 C   0  0  1  0  0  0  0  0  0  0  0  0
   -0.4540    1.0170    1.5860 O   0  0  0  0  0  0  0  0  0  0  0  0
   -1.9580    0.3490   -0.0480 C   0  0  1  0  0  0  0  0  0  0  0  0
   -2.3360   -0.0100   -1.4640 C   0  0  0  0  0  0  0  0  0  0  0  0
   -2.1330   -1.3620   -1.9750 C   0  0  0  0  0  0  0  0  0  0  0  0
   -3.2800   -2.3360   -1.7480 C   0  0  0  0  0  0  0  0  0  0  0  0
   -2.8590   -3.2160   -0.5870 C   0  0  0  0  0  0  0  0  0  0  0  0
   -3.5310   -2.6870    0.6330 C   0  0  0  0  0  0  0  0  0  0  0  0
   -2.6550   -1.6820    1.4080 C   0  0  0  0  0  0  0  0  0  0  0  0
   -2.8080   -0.3170    0.9620 C   0  0  1  0  0  0  0  0  0  0  0  0
   -3.2170    0.5730    2.1350 C   0  0  0  0  0  0  0  0  0  0  0  0
   -4.0320   -0.1710    3.0260 O   0  0  0  0  0  0  0  0  0  0  0  0
    0.5710   -0.0910   -0.0810 C   0  0  1  0  0  0  0  0  0  0  0  0
    0.5390   -1.2990    0.5250 O   0  0  0  0  0  0  0  0  0  0  0  0
    1.0510   -0.1200   -1.4750 C   0  0  0  0  0  0  0  0  0  0  0  0
    1.8420   -1.3720   -1.7210 C   0  0  0  0  0  0  0  0  0  0  0  0
    3.1140   -1.5060   -0.9620 C   0  0  1  0  0  0  0  0  0  0  0  0
    3.6240   -2.9180   -1.3800 C   0  0  0  0  0  0  0  0  0  0  0  0
    4.2160   -0.6040   -1.4670 C   0  0  0  0  0  0  0  0  0  0  0  0
    3.0350   -1.6130    0.5070 C   0  0  0  0  0  0  0  0  0  0  0  0
    2.6210   -0.4790    1.3350 C   0  0  1  0  0  0  0  0  0  0  0  0
    3.8000    0.2440    1.9470 C   0  0  0  0  0  0  0  0  0  0  0  0
    4.5490   -0.7510    2.8080 C   0  0  0  0  0  0  0  0  0  0  0  0
    1.7630    0.5710    0.6720 C   0  0  0  0  0  0  0  0  0  0  0  0
  1  2  2  0
  2  3  1  0
  3  4  2  3
  3  6  1  0
  4  5  1  0
  6  7  1  0
  7  8  1  1
  7  9  1  0
  7 19  1  0
  9 10  1  6
  9 16  1  0
 10 11  1  0
 11 12  1  0
 12 13  1  0
 13 14  1  0
 14 15  1  0
 15 16  1  0
 16 17  1  1
 17 18  1  0
 19 20  1  1
 19 21  1  0
 19 30  1  0
 21 22  1  0
 22 23  1  0
 23 24  1  6
 23 25  1  0
 23 26  1  0
 26 27  1  0
 27 28  1  6
 27 30  1  0
 28 29  1  0
M  END
