
     RDKit          3D

 30 32  0  0  0  0  0  0  0  0999 V2000
    6.0730    2.4590   -1.0710 C   0  0  0  0  0  0  0  0  0  0  0  0
    6.1130    1.8110    0.1090 O   0  0  0  0  0  0  0  0  0  0  0  0
    5.5650    0.5980    0.2850 C   0  0  1  0  0  0  0  0  0  0  0  0
    6.0710   -0.4060   -0.7530 C   0  0  0  0  0  0  0  0  0  0  0  0
    6.3790    0.0740    1.5760 C   0  0  0  0  0  0  0  0  0  0  0  0
    4.1320    0.4490    0.6550 C   0  0  0  0  0  0  0  0  0  0  0  0
    3.0890    1.0080   -0.2480 C   0  0  1  0  0  0  0  0  0  0  0  0
    3.1360    0.4100   -1.6180 C   0  0  0  0  0  0  0  0  0  0  0  0
    1.7080    0.9880    0.3510 C   0  0  1  0  0  0  0  0  0  0  0  0
    1.7100    1.7570    1.6500 C   0  0  0  0  0  0  0  0  0  0  0  0
    0.9690    1.8810   -0.5160 O   0  0  0  0  0  0  0  0  0  0  0  0
    0.9220   -0.2540    0.3180 C   0  0  1  0  0  0  0  0  0  0  0  0
    1.4530   -1.4580    0.9730 C   0  0  0  0  0  0  0  0  0  0  0  0
    0.3710   -2.4510    1.2060 C   0  0  0  0  0  0  0  0  0  0  0  0
   -0.8830   -2.2170    0.3250 C   0  0  0  0  0  0  0  0  0  0  0  0
   -1.4790   -0.9570    0.7820 C   0  0  2  0  0  0  0  0  0  0  0  0
   -1.9190   -1.2400    2.1310 O   0  0  0  0  0  0  0  0  0  0  0  0
   -2.7640   -0.4750    0.1330 C   0  0  2  0  0  0  0  0  0  0  0  0
   -3.7880   -1.5430    0.2720 C   0  0  1  0  0  0  0  0  0  0  0  0
   -5.2350   -1.0840   -0.0050 C   0  0  0  0  0  0  0  0  0  0  0  0
   -5.8780   -2.4640    0.1200 C   0  0  0  0  0  0  0  0  0  0  0  0
   -5.0420   -3.3620   -0.3600 C   0  0  0  0  0  0  0  0  0  0  0  0
   -3.8160   -2.5950   -0.8190 C   0  0  0  0  0  0  0  0  0  0  0  0
   -2.4780   -0.1360   -1.2910 C   0  0  0  0  0  0  0  0  0  0  0  0
   -3.3240    0.8640   -1.9680 C   0  0  0  0  0  0  0  0  0  0  0  0
   -3.8150    1.9950   -1.1290 C   0  0  1  0  0  0  0  0  0  0  0  0
   -5.3270    2.0910   -1.1290 C   0  0  0  0  0  0  0  0  0  0  0  0
   -3.3250    2.0140    0.2740 C   0  0  0  0  0  0  0  0  0  0  0  0
   -3.1800    0.7220    0.9670 C   0  0  0  0  0  0  0  0  0  0  0  0
   -0.4410    0.0850    0.9170 C   0  0  0  0  0  0  0  0  0  0  0  0
  1  2  1  0
  2  3  1  0
  3  4  1  6
  3  5  1  0
  3  6  1  0
  6  7  1  0
  7  8  1  6
  7  9  1  0
  9 10  1  1
  9 11  1  0
  9 12  1  0
 12 13  1  1
 12 30  1  0
 13 14  1  0
 14 15  1  0
 15 16  1  0
 16 17  1  1
 16 18  1  0
 16 30  1  0
 18 19  1  0
 18 24  1  6
 18 29  1  0
 19 20  1  6
 19 23  1  0
 20 21  1  0
 21 22  2  0
 22 23  1  0
 24 25  1  0
 25 26  1  0
 26 27  1  1
 26 28  1  0
 28 29  1  0
M  END
