
     RDKit          3D

 30 32  0  0  0  0  0  0  0  0999 V2000
    2.9120    1.7340   -1.4580 C   0  0  0  0  0  0  0  0  0  0  0  0
    3.9150    1.0250   -0.9830 C   0  0  0  0  0  0  0  0  0  0  0  0
    3.9310    0.1900    0.1920 C   0  0  0  0  0  0  0  0  0  0  0  0
    5.1190   -0.3850    0.4640 C   0  0  0  0  0  0  0  0  0  0  0  0
    6.3290   -0.1890   -0.3630 C   0  0  0  0  0  0  0  0  0  0  0  0
    2.8740    0.0070    1.1740 C   0  0  0  0  0  0  0  0  0  0  0  0
    3.2550    0.2900    2.4850 C   0  0  0  0  0  0  0  0  0  0  0  0
    4.5850    0.8670    2.8380 C   0  0  0  0  0  0  0  0  0  0  0  0
    2.3400    0.0450    3.4810 C   0  0  0  0  0  0  0  0  0  0  0  0
    1.0990   -0.4560    3.2170 C   0  0  0  0  0  0  0  0  0  0  0  0
    0.7430   -0.7300    1.9260 C   0  0  0  0  0  0  0  0  0  0  0  0
    1.5970   -0.5150    0.8800 C   0  0  0  0  0  0  0  0  0  0  0  0
    1.2890   -0.9620   -0.4550 C   0  0  1  0  0  0  0  0  0  0  0  0
    1.8570   -2.3720   -0.3630 O   0  0  0  0  0  0  0  0  0  0  0  0
    0.0350   -1.2050   -1.1200 C   0  0  2  0  0  0  0  0  0  0  0  0
    0.4770   -1.6750   -2.5760 C   0  0  0  0  0  0  0  0  0  0  0  0
   -0.5290   -1.9690   -3.4080 O   0  0  0  0  0  0  0  0  0  0  0  0
   -1.1270   -0.4120   -1.3560 C   0  0  2  0  0  0  0  0  0  0  0  0
   -1.9420   -1.2920   -2.1970 O   0  0  0  0  0  0  0  0  0  0  0  0
   -0.8420    0.8750   -2.0770 C   0  0  0  0  0  0  0  0  0  0  0  0
   -1.0810    1.9450   -1.0350 C   0  0  0  0  0  0  0  0  0  0  0  0
   -1.7300    1.2380    0.1590 C   0  0  0  0  0  0  0  0  0  0  0  0
   -2.2270   -0.0570   -0.4180 C   0  0  2  0  0  0  0  0  0  0  0  0
   -2.8040   -1.0780    0.4420 C   0  0  0  0  0  0  0  0  0  0  0  0
   -3.8270   -0.6000    1.4330 C   0  0  1  0  0  0  0  0  0  0  0  0
   -3.1080   -0.3450    2.7670 C   0  0  0  0  0  0  0  0  0  0  0  0
   -4.5700    0.6070    1.0520 C   0  0  0  0  0  0  0  0  0  0  0  0
   -4.4280    1.1150   -0.3210 C   0  0  0  0  0  0  0  0  0  0  0  0
   -3.4410    0.4840   -1.2430 C   0  0  2  0  0  0  0  0  0  0  0  0
   -4.0770   -0.4500   -2.1750 C   0  0  0  0  0  0  0  0  0  0  0  0
  1  2  2  0
  2  3  1  0
  3  4  2  3
  3  6  1  0
  4  5  1  0
  6  7  2  0
  6 12  1  0
  7  8  1  0
  7  9  1  0
  9 10  2  0
 10 11  1  0
 11 12  2  0
 12 13  1  0
 13 14  1  1
 13 15  1  0
 15 16  1  6
 15 18  1  0
 16 17  1  0
 18 19  1  6
 18 20  1  0
 18 23  1  0
 20 21  1  0
 21 22  1  0
 23 22  1  1
 23 24  1  0
 23 29  1  0
 24 25  1  0
 25 26  1  1
 25 27  1  0
 27 28  1  0
 28 29  1  0
 29 30  1  1
M  END
