
     RDKit          3D

 29 31  0  0  0  0  0  0  0  0999 V2000
   -3.2440    1.1500   -0.3210 C   0  0  0  0  0  0  0  0  0  0  0  0
   -2.3750    0.7820    0.8790 C   0  0  1  0  0  0  0  0  0  0  0  0
   -1.8740   -0.5790    0.6810 C   0  0  0  0  0  0  0  0  0  0  0  0
   -0.6280   -0.7470    0.6440 O   0  0  0  0  0  0  0  0  0  0  0  0
   -2.7060   -1.7150    0.5290 N   0  0  0  0  0  0  0  0  0  0  0  0
   -4.1520   -1.6520    0.5630 C   0  0  0  0  0  0  0  0  0  0  0  0
   -4.6880   -2.8670    1.3250 C   0  0  0  0  0  0  0  0  0  0  0  0
   -4.2400   -4.0580    0.8160 O   0  0  0  0  0  0  0  0  0  0  0  0
   -3.2800   -3.9410   -0.1690 C   0  0  0  0  0  0  0  0  0  0  0  0
   -2.1450   -3.0400    0.3200 C   0  0  0  0  0  0  0  0  0  0  0  0
   -1.2650    1.7420    0.9980 N   0  0  0  0  0  0  0  0  0  0  0  0
   -1.0290    2.6850    2.0800 C   0  0  0  0  0  0  0  0  0  0  0  0
   -0.2610    3.7890    1.3560 C   0  0  0  0  0  0  0  0  0  0  0  0
    0.6850    2.9340    0.5260 C   0  0  2  0  0  0  0  0  0  0  0  0
    1.3830    3.6330   -0.4890 N   0  0  0  0  0  0  0  0  0  0  0  0
    3.0760    3.6480   -0.3210 S   0  0  2  0  0  0  0  0  0  0  0  0
    3.5350    4.4240    0.8780 O   0  0  0  0  0  0  0  0  0  0  0  0
    3.6430    4.3840   -1.5290 O   0  0  0  0  0  0  0  0  0  0  0  0
    3.7970    2.0480   -0.3640 C   0  0  0  0  0  0  0  0  0  0  0  0
    3.3310    1.1290   -1.1570 C   0  0  0  0  0  0  0  0  0  0  0  0
    3.8340   -0.2280   -1.2870 C   0  0  0  0  0  0  0  0  0  0  0  0
    4.8900   -0.7000   -0.5540 C   0  0  0  0  0  0  0  0  0  0  0  0
    5.3670   -1.9950   -0.6790 C   0  0  0  0  0  0  0  0  0  0  0  0
    4.7750   -2.8590   -1.5650 C   0  0  0  0  0  0  0  0  0  0  0  0
    5.3550   -4.5060   -1.7480 Cl  0  0  0  0  0  0  0  0  0  0  0  0
    3.7050   -2.4080   -2.3190 C   0  0  0  0  0  0  0  0  0  0  0  0
    3.2490   -1.1080   -2.1740 C   0  0  0  0  0  0  0  0  0  0  0  0
   -0.2370    1.8730    0.0240 C   0  0  0  0  0  0  0  0  0  0  0  0
   -0.1600    1.2080   -1.0340 O   0  0  0  0  0  0  0  0  0  0  0  0
  2  1  1  6
  2  3  1  0
  2 11  1  0
  3  4  2  0
  3  5  1  0
  5  6  1  0
  5 10  1  0
  6  7  1  0
  7  8  1  0
  8  9  1  0
  9 10  1  0
 11 12  1  0
 11 28  1  0
 12 13  1  0
 13 14  1  0
 14 15  1  6
 14 28  1  0
 16 15  1  6
 16 17  2  0
 16 18  2  0
 16 19  1  0
 19 20  2  3
 20 21  1  0
 21 22  2  0
 21 27  1  0
 22 23  1  0
 23 24  2  0
 24 25  1  0
 24 26  1  0
 26 27  2  0
 28 29  2  0
M  END
