
     RDKit          3D

 30 31  0  0  0  0  0  0  0  0999 V2000
   -0.6910    4.9300   -0.2260 C   0  0  0  0  0  0  0  0  0  0  0  0
   -1.8440    4.5440   -0.6810 C   0  0  0  0  0  0  0  0  0  0  0  0
   -2.5530    3.3350   -0.2220 C   0  0  0  0  0  0  0  0  0  0  0  0
   -3.7380    3.0740   -0.7580 C   0  0  0  0  0  0  0  0  0  0  0  0
   -4.6600    2.0040   -0.5320 C   0  0  0  0  0  0  0  0  0  0  0  0
   -4.6850    0.7730   -0.9490 C   0  0  0  0  0  0  0  0  0  0  0  0
   -3.7260    0.0740   -1.8240 C   0  0  0  0  0  0  0  0  0  0  0  0
   -3.5130   -1.3820   -1.3800 C   0  0  0  0  0  0  0  0  0  0  0  0
   -2.0840   -1.6800   -1.0850 C   0  0  0  0  0  0  0  0  0  0  0  0
   -1.7250   -1.8570    0.3780 C   0  0  2  0  0  0  0  0  0  0  0  0
   -0.6420   -2.8650    0.3860 C   0  0  0  0  0  0  0  0  0  0  0  0
   -2.8780   -2.6340    1.0630 C   0  0  0  0  0  0  0  0  0  0  0  0
   -3.1340   -3.9510    0.4900 C   0  0  0  0  0  0  0  0  0  0  0  0
   -1.5880   -0.5580    0.9940 C   0  0  1  0  0  0  0  0  0  0  0  0
   -1.9560   -0.8520    2.3650 O   0  0  0  0  0  0  0  0  0  0  0  0
   -0.5160    0.3620    1.1120 C   0  0  1  0  0  0  0  0  0  0  0  0
    0.9190    0.0650    0.8280 C   0  0  1  0  0  0  0  0  0  0  0  0
    1.3510   -0.9570    1.6460 O   0  0  0  0  0  0  0  0  0  0  0  0
    1.3810    0.0890   -0.5550 C   0  0  0  0  0  0  0  0  0  0  0  0
    2.8160   -0.2040   -0.8270 C   0  0  1  0  0  0  0  0  0  0  0  0
    3.0180   -0.1120   -2.3290 C   0  0  0  0  0  0  0  0  0  0  0  0
    3.6880    0.9180   -0.2450 C   0  0  0  0  0  0  0  0  0  0  0  0
    5.1540    0.6080   -0.4190 C   0  0  0  0  0  0  0  0  0  0  0  0
    5.5150   -0.4600    0.5880 C   0  0  1  0  0  0  0  0  0  0  0  0
    5.9760    0.1290    1.8960 C   0  0  0  0  0  0  0  0  0  0  0  0
    4.3760   -1.3720    0.7180 C   0  0  0  0  0  0  0  0  0  0  0  0
    4.2500   -2.0490    1.7110 O   0  0  0  0  0  0  0  0  0  0  0  0
    3.3570   -1.4860   -0.3580 C   0  0  0  0  0  0  0  0  0  0  0  0
   -0.7850    1.6800    0.3400 C   0  0  0  0  0  0  0  0  0  0  0  0
   -1.8820    2.5060    0.8090 C   0  0  0  0  0  0  0  0  0  0  0  0
  1  2  2  0
  2  3  1  0
  3  4  2  0
  3 30  1  0
  4  5  1  0
  5  6  2  0
  6  7  1  0
  7  8  1  0
  8  9  1  0
  9 10  1  0
 10 11  1  6
 10 12  1  0
 10 14  1  0
 12 13  1  0
 14 15  1  1
 14 16  1  0
 16 17  1  0
 16 29  1  6
 17 18  1  6
 17 19  1  0
 19 20  1  0
 20 21  1  6
 20 22  1  0
 20 28  1  0
 22 23  1  0
 23 24  1  0
 24 25  1  1
 24 26  1  0
 26 27  2  0
 26 28  1  0
 29 30  1  0
M  END
