
     RDKit          3D

 29 32  0  0  0  0  0  0  0  0999 V2000
   -5.6210   -1.7730    1.4040 C   0  0  0  0  0  0  0  0  0  0  0  0
   -4.8470   -0.4270    1.5410 C   0  0  2  0  0  0  0  0  0  0  0  0
   -5.8160    0.4640    2.2930 C   0  0  0  0  0  0  0  0  0  0  0  0
   -4.7080    0.1150    0.1900 C   0  0  0  0  0  0  0  0  0  0  0  0
   -3.5340    0.5210   -0.2650 C   0  0  0  0  0  0  0  0  0  0  0  0
   -2.2910    0.4850    0.4790 C   0  0  0  0  0  0  0  0  0  0  0  0
   -2.0890    0.0870    1.6450 O   0  0  0  0  0  0  0  0  0  0  0  0
   -1.3140    1.0120   -0.4100 N   0  0  0  0  0  0  0  0  0  0  0  0
    0.0980    1.1550   -0.0560 C   0  0  0  0  0  0  0  0  0  0  0  0
    0.8740   -0.0360   -0.3930 C   0  0  0  0  0  0  0  0  0  0  0  0
    0.3280   -1.0240   -0.9190 O   0  0  0  0  0  0  0  0  0  0  0  0
    2.2650   -0.0810   -0.1240 N   0  0  0  0  0  0  0  0  0  0  0  0
    2.9200    1.0540    0.4860 C   0  0  0  0  0  0  0  0  0  0  0  0
    4.3800    0.9640    0.4960 C   0  0  0  0  0  0  0  0  0  0  0  0
    5.0330   -0.1820    0.5220 C   0  0  0  0  0  0  0  0  0  0  0  0
    6.4810   -0.2940    0.5320 C   0  0  0  0  0  0  0  0  0  0  0  0
    7.1910   -1.4080    0.5590 C   0  0  0  0  0  0  0  0  0  0  0  0
    8.6330   -1.0870    0.5610 C   0  0  0  0  0  0  0  0  0  0  0  0
    8.6710    0.3750    0.5310 C   0  0  0  0  0  0  0  0  0  0  0  0
    7.4330    0.8110    0.5150 C   0  0  0  0  0  0  0  0  0  0  0  0
    4.1910   -1.4070    0.5350 C   0  0  0  0  0  0  0  0  0  0  0  0
    3.0660   -1.2520   -0.4480 C   0  0  0  0  0  0  0  0  0  0  0  0
   -1.9410    1.3390   -1.6040 N   0  0  0  0  0  0  0  0  0  0  0  0
   -3.2060    1.0820   -1.5830 C   0  0  0  0  0  0  0  0  0  0  0  0
   -4.0850    1.3540   -2.7540 C   0  0  0  0  0  0  0  0  0  0  0  0
   -5.0650    0.2620   -2.9920 C   0  0  0  0  0  0  0  0  0  0  0  0
   -6.1220    0.1650   -1.9490 C   0  0  0  0  0  0  0  0  0  0  0  0
   -7.3240    0.0850   -2.3800 O   0  0  0  0  0  0  0  0  0  0  0  0
   -5.9570    0.1490   -0.5390 N   0  0  0  0  0  0  0  0  0  0  0  0
  2  1  1  6
  2  3  1  0
  2  4  1  0
  4  5  2  0
  4 29  1  0
  5  6  1  0
  5 24  1  0
  6  7  2  0
  6  8  1  0
  8  9  1  0
  8 23  1  0
  9 10  1  0
 10 11  2  0
 10 12  1  0
 12 13  1  0
 12 22  1  0
 13 14  1  0
 14 15  2  0
 15 16  1  0
 15 21  1  0
 16 17  2  0
 16 20  1  0
 17 18  1  0
 18 19  1  0
 19 20  2  0
 21 22  1  0
 23 24  2  0
 24 25  1  0
 25 26  1  0
 26 27  1  0
 27 28  2  0
 27 29  1  0
M  END
