
     RDKit          3D

 28 31  0  0  0  0  0  0  0  0999 V2000
    4.6010   -0.3100    1.8430 O   0  0  0  0  0  0  0  0  0  0  0  0
    4.5870   -0.8020    0.6890 C   0  0  0  0  0  0  0  0  0  0  0  0
    3.4910   -1.6230    0.2640 N   0  0  0  0  0  0  0  0  0  0  0  0
    2.4510   -1.8560    1.1620 C   0  0  0  0  0  0  0  0  0  0  0  0
    1.2300   -1.4810    1.0410 C   0  0  0  0  0  0  0  0  0  0  0  0
    0.6420   -0.7340   -0.0330 C   0  0  0  0  0  0  0  0  0  0  0  0
    1.2740   -0.1570   -1.0940 C   0  0  0  0  0  0  0  0  0  0  0  0
    0.5730    0.5060   -2.0720 C   0  0  0  0  0  0  0  0  0  0  0  0
   -0.7870    0.5970   -1.9900 C   0  0  0  0  0  0  0  0  0  0  0  0
   -1.4190    0.0190   -0.9230 C   0  0  0  0  0  0  0  0  0  0  0  0
   -2.8690    0.1050   -0.8150 C   0  0  0  0  0  0  0  0  0  0  0  0
   -3.6780    0.7360   -1.7190 C   0  0  0  0  0  0  0  0  0  0  0  0
   -5.0610    0.7850   -1.5600 C   0  0  0  0  0  0  0  0  0  0  0  0
   -5.6970    0.1930   -0.4690 C   0  0  0  0  0  0  0  0  0  0  0  0
   -7.1000    0.2440   -0.3100 N   0  0  0  0  0  0  0  0  0  0  0  0
   -7.8360   -0.3470    0.7760 C   0  0  0  0  0  0  0  0  0  0  0  0
   -8.4250    0.8440    1.5540 C   0  0  0  0  0  0  0  0  0  0  0  0
   -8.9910    1.8360    0.1080 S   0  0  0  0  0  0  0  0  0  0  0  0
   -8.0720    0.8760   -1.1670 C   0  0  0  0  0  0  0  0  0  0  0  0
   -4.8560   -0.4330    0.4210 C   0  0  0  0  0  0  0  0  0  0  0  0
   -3.4970   -0.4860    0.2730 C   0  0  0  0  0  0  0  0  0  0  0  0
   -0.7150   -0.6070   -0.0080 N   0  0  0  0  0  0  0  0  0  0  0  0
    5.6850   -0.5230   -0.1790 N   0  0  0  0  0  0  0  0  0  0  0  0
    6.7560    0.2940    0.2740 C   0  0  0  0  0  0  0  0  0  0  0  0
    7.1200    1.4290   -0.2860 C   0  0  0  0  0  0  0  0  0  0  0  0
    8.2730    2.0190    0.4430 C   0  0  0  0  0  0  0  0  0  0  0  0
    8.8490    0.7930    1.1580 C   0  0  0  0  0  0  0  0  0  0  0  0
    7.6160   -0.0180    1.4450 C   0  0  0  0  0  0  0  0  0  0  0  0
  1  2  2  0
  2  3  1  0
  2 23  1  0
  3  4  1  0
  4  5  2  3
  5  6  1  0
  6  7  2  0
  6 22  1  0
  7  8  1  0
  8  9  2  0
  9 10  1  0
 10 11  1  0
 10 22  2  0
 11 12  2  0
 11 21  1  0
 12 13  1  0
 13 14  2  0
 14 15  1  0
 14 20  1  0
 15 16  1  0
 15 19  1  0
 16 17  1  0
 17 18  1  0
 18 19  1  0
 20 21  2  0
 23 24  1  0
 24 25  2  0
 24 28  1  0
 25 26  1  0
 26 27  1  0
 27 28  1  0
M  END
