
     RDKit          3D

 28 31  0  0  0  0  0  0  0  0999 V2000
   -1.3900    0.5800   -1.2600 C   0  0  0  0  0  0  0  0  0  0  0  0
   -1.9340   -0.4600   -0.3480 C   0  0  0  0  0  0  0  0  0  0  0  0
   -1.1230   -0.9410    0.6590 C   0  0  0  0  0  0  0  0  0  0  0  0
    0.2090   -0.4990    0.8940 N   0  0  0  0  0  0  0  0  0  0  0  0
    0.4600    0.4250    1.9680 C   0  0  0  0  0  0  0  0  0  0  0  0
    0.4060    1.8600    1.5560 C   0  0  0  0  0  0  0  0  0  0  0  0
   -0.1490    2.8350    2.3790 C   0  0  0  0  0  0  0  0  0  0  0  0
    0.0450    4.3550    1.4270 S   0  0  0  0  0  0  0  0  0  0  0  0
    0.8860    3.3930   -0.0030 C   0  0  0  0  0  0  0  0  0  0  0  0
    1.2870    4.2100   -1.1400 N   0  0  0  0  0  0  0  0  0  0  0  0
    0.8610    2.3550    0.4210 N   0  0  0  0  0  0  0  0  0  0  0  0
    1.2650   -0.9880    0.0910 C   0  0  0  0  0  0  0  0  0  0  0  0
    1.0160   -1.8390   -0.8250 O   0  0  0  0  0  0  0  0  0  0  0  0
    2.6390   -0.5620    0.2590 C   0  0  0  0  0  0  0  0  0  0  0  0
    3.5810   -1.0510   -0.5170 C   0  0  0  0  0  0  0  0  0  0  0  0
    4.9850   -0.6450   -0.3760 C   0  0  0  0  0  0  0  0  0  0  0  0
    6.0260   -1.0340   -1.0630 C   0  0  0  0  0  0  0  0  0  0  0  0
    7.1860   -0.3350   -0.5300 C   0  0  0  0  0  0  0  0  0  0  0  0
    6.7130    0.2830    0.5400 C   0  0  0  0  0  0  0  0  0  0  0  0
    5.4240    0.2940    0.6000 N   0  0  0  0  0  0  0  0  0  0  0  0
   -1.6880   -1.9210    1.4870 C   0  0  0  0  0  0  0  0  0  0  0  0
   -2.9730   -2.3570    1.2860 C   0  0  0  0  0  0  0  0  0  0  0  0
   -3.7760   -1.8690    0.2740 C   0  0  0  0  0  0  0  0  0  0  0  0
   -5.0620   -2.3000    0.0710 C   0  0  0  0  0  0  0  0  0  0  0  0
   -5.8600   -1.8060   -0.9390 C   0  0  0  0  0  0  0  0  0  0  0  0
   -5.3370   -0.8410   -1.7730 C   0  0  0  0  0  0  0  0  0  0  0  0
   -4.0370   -0.4080   -1.5650 C   0  0  0  0  0  0  0  0  0  0  0  0
   -3.2350   -0.9000   -0.5540 C   0  0  0  0  0  0  0  0  0  0  0  0
  1  2  1  0
  2  3  2  0
  2 28  1  0
  3  4  1  0
  3 21  1  0
  4  5  1  0
  4 12  1  0
  5  6  1  0
  6  7  2  0
  6 11  1  0
  7  8  1  0
  8  9  1  0
  9 10  1  0
  9 11  2  0
 12 13  2  0
 12 14  1  0
 14 15  2  3
 15 16  1  0
 16 17  2  0
 16 20  1  0
 17 18  1  0
 18 19  2  0
 19 20  2  0
 21 22  2  0
 22 23  1  0
 23 24  2  0
 23 28  1  0
 24 25  1  0
 25 26  2  0
 26 27  1  0
 27 28  2  0
M  END
