
     RDKit          3D

 28 31  0  0  0  0  0  0  0  0999 V2000
    4.7780    2.5700   -4.0480 C   0  0  0  0  0  0  0  0  0  0  0  0
    3.8160    1.9350   -3.8420 C   0  0  0  0  0  0  0  0  0  0  0  0
    2.5950    1.1430   -3.5690 C   0  0  0  0  0  0  0  0  0  0  0  0
    2.8290    0.3140   -2.3930 N   0  0  0  0  0  0  0  0  0  0  0  0
    3.8220   -0.6660   -2.2870 C   0  0  0  0  0  0  0  0  0  0  0  0
    4.5660   -0.8130   -3.3210 O   0  0  0  0  0  0  0  0  0  0  0  0
    4.0580   -1.5020   -1.1190 C   0  0  0  0  0  0  0  0  0  0  0  0
    5.0570   -2.4200   -0.9930 N   0  0  0  0  0  0  0  0  0  0  0  0
    4.9830   -3.0150    0.1760 N   0  0  0  0  0  0  0  0  0  0  0  0
    3.9500   -2.5400    0.8870 C   0  0  0  0  0  0  0  0  0  0  0  0
    3.4570   -2.8750    2.2440 C   0  0  0  0  0  0  0  0  0  0  0  0
    3.3720   -1.5750    0.0430 C   0  0  0  0  0  0  0  0  0  0  0  0
    2.1810   -0.7920    0.4800 C   0  0  0  0  0  0  0  0  0  0  0  0
    2.3750    0.3080    1.3180 C   0  0  0  0  0  0  0  0  0  0  0  0
    0.6740    0.8890    1.6060 S   0  0  0  0  0  0  0  0  0  0  0  0
   -0.0460   -0.4790    0.5200 C   0  0  0  0  0  0  0  0  0  0  0  0
   -1.5370   -0.4930    0.3680 C   0  0  0  0  0  0  0  0  0  0  0  0
   -2.0770   -1.4570   -0.4420 C   0  0  0  0  0  0  0  0  0  0  0  0
   -3.4510   -1.5290   -0.6270 C   0  0  0  0  0  0  0  0  0  0  0  0
   -4.2500   -0.6050    0.0250 C   0  0  0  0  0  0  0  0  0  0  0  0
   -3.7180    0.3650    0.8380 C   0  0  0  0  0  0  0  0  0  0  0  0
   -4.5520    1.3570    1.5120 C   0  0  0  0  0  0  0  0  0  0  0  0
   -5.8530    1.4400    1.3840 C   0  0  0  0  0  0  0  0  0  0  0  0
   -6.3360    2.5690    2.2210 C   0  0  0  0  0  0  0  0  0  0  0  0
   -5.1180    3.1030    2.8410 C   0  0  0  0  0  0  0  0  0  0  0  0
   -4.0860    2.4050    2.4320 C   0  0  0  0  0  0  0  0  0  0  0  0
   -2.3270    0.4070    1.0010 C   0  0  0  0  0  0  0  0  0  0  0  0
    0.9180   -1.0300    0.1930 N   0  0  0  0  0  0  0  0  0  0  0  0
  1  2  3  0
  2  3  1  0
  3  4  1  0
  4  5  1  0
  5  6  2  0
  5  7  1  0
  7  8  2  0
  7 12  1  0
  8  9  1  0
  9 10  1  0
 10 11  1  0
 10 12  2  0
 12 13  1  0
 13 14  2  0
 13 28  1  0
 14 15  1  0
 15 16  1  0
 16 17  1  0
 16 28  2  0
 17 18  2  0
 17 27  1  0
 18 19  1  0
 19 20  2  0
 20 21  1  0
 21 22  1  0
 21 27  2  0
 22 23  2  0
 22 26  1  0
 23 24  1  0
 24 25  1  0
 25 26  2  0
M  END
