
     RDKit          3D

 28 31  0  0  0  0  0  0  0  0999 V2000
    4.7310   -1.3050    0.2350 C   0  0  0  0  0  0  0  0  0  0  0  0
    4.2860   -2.4620    0.6450 C   0  0  0  0  0  0  0  0  0  0  0  0
    5.1980   -3.6340    0.8800 C   0  0  0  0  0  0  0  0  0  0  0  0
    4.5550   -4.6170    1.5820 O   0  0  0  0  0  0  0  0  0  0  0  0
    3.6760   -4.1570    2.5360 C   0  0  1  0  0  0  0  0  0  0  0  0
    4.3430   -3.1690    3.5000 C   0  0  0  0  0  0  0  0  0  0  0  0
    2.5240   -3.5090    1.8540 C   0  0  0  0  0  0  0  0  0  0  0  0
    2.8530   -2.6400    0.8830 C   0  0  0  0  0  0  0  0  0  0  0  0
    1.8820   -1.9330    0.1330 N   0  0  0  0  0  0  0  0  0  0  0  0
    1.0920   -0.9250    0.7380 C   0  0  0  0  0  0  0  0  0  0  0  0
    0.1310   -0.2070    0.0320 C   0  0  0  0  0  0  0  0  0  0  0  0
   -0.6530    0.7760    0.5880 C   0  0  0  0  0  0  0  0  0  0  0  0
   -1.6450    1.5240   -0.0640 N   0  0  0  0  0  0  0  0  0  0  0  0
   -2.1470    1.2370   -1.3500 C   0  0  0  0  0  0  0  0  0  0  0  0
   -1.7740    0.2040   -2.1230 N   0  0  0  0  0  0  0  0  0  0  0  0
   -2.2850   -0.0390   -3.3330 C   0  0  0  0  0  0  0  0  0  0  0  0
   -3.2410    0.7780   -3.8550 C   0  0  0  0  0  0  0  0  0  0  0  0
   -3.6580    1.8560   -3.0960 C   0  0  0  0  0  0  0  0  0  0  0  0
   -4.7110    2.7930   -3.6190 C   0  0  0  0  0  0  0  0  0  0  0  0
   -3.1300    2.0960   -1.8640 C   0  0  0  0  0  0  0  0  0  0  0  0
   -3.5650    3.2670   -1.0170 C   0  0  0  0  0  0  0  0  0  0  0  0
   -4.4610    3.1910   -0.0100 C   0  0  0  0  0  0  0  0  0  0  0  0
   -4.7850    4.2710    0.6880 C   0  0  0  0  0  0  0  0  0  0  0  0
   -3.7940    5.6160   -0.0490 S   0  0  0  0  0  0  0  0  0  0  0  0
   -3.0170    4.5210   -1.2720 C   0  0  0  0  0  0  0  0  0  0  0  0
   -0.4040    1.0070    1.9550 C   0  0  0  0  0  0  0  0  0  0  0  0
    0.5380    0.2930    2.6150 C   0  0  0  0  0  0  0  0  0  0  0  0
    1.2750   -0.6530    2.0330 N   0  0  0  0  0  0  0  0  0  0  0  0
  1  2  2  0
  2  3  1  0
  2  8  1  0
  3  4  1  0
  4  5  1  0
  5  6  1  1
  5  7  1  0
  7  8  2  0
  8  9  1  0
  9 10  1  0
 10 11  2  0
 10 28  1  0
 11 12  1  0
 12 13  1  0
 12 26  2  0
 13 14  1  0
 14 15  2  0
 14 20  1  0
 15 16  1  0
 16 17  2  0
 17 18  1  0
 18 19  1  0
 18 20  2  0
 20 21  1  0
 21 22  1  0
 21 25  2  0
 22 23  2  0
 23 24  1  0
 24 25  1  0
 26 27  1  0
 27 28  2  0
M  END
