
     RDKit          3D

 28 31  0  0  0  0  0  0  0  0999 V2000
    4.7200    1.7390   -2.3660 C   0  0  0  0  0  0  0  0  0  0  0  0
    5.8280    1.3570   -1.8390 C   0  0  0  0  0  0  0  0  0  0  0  0
    6.1310    0.7650   -0.5660 C   0  0  0  0  0  0  0  0  0  0  0  0
    7.4480    0.5480   -0.3210 C   0  0  0  0  0  0  0  0  0  0  0  0
    8.4330    0.9170   -1.3320 C   0  0  0  0  0  0  0  0  0  0  0  0
    5.2350    0.4630    0.5180 C   0  0  0  0  0  0  0  0  0  0  0  0
    5.5840    0.6090    1.8510 N   0  0  0  0  0  0  0  0  0  0  0  0
    4.6350    0.1780    2.6280 N   0  0  0  0  0  0  0  0  0  0  0  0
    3.6090   -0.2790    1.9070 C   0  0  0  0  0  0  0  0  0  0  0  0
    2.4130   -0.8560    2.2760 C   0  0  0  0  0  0  0  0  0  0  0  0
    1.5690   -1.2730    1.2430 C   0  0  0  0  0  0  0  0  0  0  0  0
    1.8860   -1.1310   -0.0790 C   0  0  0  0  0  0  0  0  0  0  0  0
    1.0720   -1.4980   -1.1720 N   0  0  0  0  0  0  0  0  0  0  0  0
   -0.3050   -1.6370   -1.2550 C   0  0  0  0  0  0  0  0  0  0  0  0
   -0.9850   -2.0900   -2.7070 S   0  0  0  0  0  0  0  0  0  0  0  0
   -1.2300   -1.4130   -0.1410 C   0  0  0  0  0  0  0  0  0  0  0  0
   -2.6750   -1.2630   -0.6490 C   0  0  0  0  0  0  0  0  0  0  0  0
   -3.5170   -1.0390    0.5740 C   0  0  2  0  0  0  0  0  0  0  0  0
   -4.9890   -0.8690    0.2500 C   0  0  0  0  0  0  0  0  0  0  0  0
   -5.3590    0.4600    0.4300 N   0  0  0  0  0  0  0  0  0  0  0  0
   -6.6390    0.8000    0.8600 C   0  0  1  0  0  0  0  0  0  0  0  0
   -7.8270    0.4450   -0.0010 C   0  0  0  0  0  0  0  0  0  0  0  0
   -7.6030   -0.1670    1.3770 C   0  0  0  0  0  0  0  0  0  0  0  0
   -4.5070    1.4770   -0.0490 C   0  0  0  0  0  0  0  0  0  0  0  0
   -3.1140    1.2490    0.5120 C   0  0  0  0  0  0  0  0  0  0  0  0
   -3.0040    0.0800    1.2300 O   0  0  0  0  0  0  0  0  0  0  0  0
    3.1100   -0.5410   -0.4030 C   0  0  0  0  0  0  0  0  0  0  0  0
    3.9840   -0.1040    0.5640 C   0  0  0  0  0  0  0  0  0  0  0  0
  1  2  2  0
  2  3  1  0
  3  4  2  3
  3  6  1  0
  4  5  1  0
  6  7  2  0
  6 28  1  0
  7  8  1  0
  8  9  1  0
  9 10  2  0
  9 28  1  0
 10 11  1  0
 11 12  2  0
 12 13  1  0
 12 27  1  0
 13 14  1  0
 14 15  2  0
 14 16  1  0
 16 17  1  0
 18 17  1  6
 18 19  1  0
 18 26  1  0
 19 20  1  0
 21 20  1  6
 20 24  1  0
 21 22  1  0
 21 23  1  0
 22 23  1  0
 24 25  1  0
 25 26  1  0
 27 28  2  0
M  END
