
     RDKit          3D

 28 31  0  0  0  0  0  0  0  0999 V2000
   -5.3770   -2.1280   -1.5220 C   0  0  0  0  0  0  0  0  0  0  0  0
   -4.5470   -2.9650   -0.6070 C   0  0  0  0  0  0  0  0  0  0  0  0
   -4.0030   -2.2210    0.5810 C   0  0  0  0  0  0  0  0  0  0  0  0
   -3.1170   -1.0640    0.1740 C   0  0  0  0  0  0  0  0  0  0  0  0
   -2.5920   -0.3440    1.3960 C   0  0  0  0  0  0  0  0  0  0  0  0
   -1.7290    0.7810    0.9350 C   0  0  0  0  0  0  0  0  0  0  0  0
   -2.2280    2.0000    0.7030 N   0  0  0  0  0  0  0  0  0  0  0  0
   -1.4140    3.0020    0.2840 C   0  0  0  0  0  0  0  0  0  0  0  0
   -1.7500    4.6830   -0.1030 S   0  0  0  0  0  0  0  0  0  0  0  0
   -0.0950    5.1440   -0.5330 C   0  0  0  0  0  0  0  0  0  0  0  0
    0.3360    6.4850   -0.9710 C   0  0  0  0  0  0  0  0  0  0  0  0
    0.5880    3.9870   -0.3500 C   0  0  0  0  0  0  0  0  0  0  0  0
    2.0980    3.9720   -0.6220 C   0  0  0  0  0  0  0  0  0  0  0  0
   -0.0750    2.8870    0.0670 C   0  0  0  0  0  0  0  0  0  0  0  0
    0.4240    1.5840    0.3230 C   0  0  0  0  0  0  0  0  0  0  0  0
    1.6640    1.3250    0.1600 N   0  0  0  0  0  0  0  0  0  0  0  0
    2.2820    0.0940    0.3740 C   0  0  0  0  0  0  0  0  0  0  0  0
    2.6400   -0.7020   -0.6940 C   0  0  0  0  0  0  0  0  0  0  0  0
    3.2560   -1.9250   -0.4440 C   0  0  0  0  0  0  0  0  0  0  0  0
    3.6250   -2.7420   -1.5140 C   0  0  0  0  0  0  0  0  0  0  0  0
    4.2370   -3.9610   -1.3110 C   0  0  0  0  0  0  0  0  0  0  0  0
    4.4690   -4.3400   -0.0050 C   0  0  0  0  0  0  0  0  0  0  0  0
    4.1060   -3.5370    1.0550 C   0  0  0  0  0  0  0  0  0  0  0  0
    3.4980   -2.3260    0.8530 C   0  0  0  0  0  0  0  0  0  0  0  0
    3.1400   -1.5310    1.9010 N   0  0  0  0  0  0  0  0  0  0  0  0
    2.5420   -0.3420    1.6570 C   0  0  0  0  0  0  0  0  0  0  0  0
    2.1980    0.4160    2.5990 O   0  0  0  0  0  0  0  0  0  0  0  0
   -0.4150    0.6270    0.7330 N   0  0  0  0  0  0  0  0  0  0  0  0
  1  2  1  0
  2  3  1  0
  3  4  1  0
  4  5  1  0
  5  6  1  0
  6  7  2  0
  6 28  1  0
  7  8  1  0
  8  9  1  0
  8 14  2  0
  9 10  1  0
 10 11  1  0
 10 12  2  0
 12 13  1  0
 12 14  1  0
 14 15  1  0
 15 16  2  3
 15 28  1  0
 16 17  1  0
 17 18  2  0
 17 26  1  0
 18 19  1  0
 19 20  2  0
 19 24  1  0
 20 21  1  0
 21 22  2  0
 22 23  1  0
 23 24  2  0
 24 25  1  0
 25 26  1  0
 26 27  2  0
M  END
