
     RDKit          3D

 28 31  0  0  0  0  0  0  0  0999 V2000
   -3.2740   -2.6250   -0.2530 C   0  0  0  0  0  0  0  0  0  0  0  0
   -4.2550   -1.8260    0.0710 C   0  0  0  0  0  0  0  0  0  0  0  0
   -5.7110   -2.2560   -0.0280 C   0  0  0  0  0  0  0  0  0  0  0  0
   -6.4240   -1.0430    0.3600 C   0  0  0  0  0  0  0  0  0  0  0  0
   -5.6250   -0.0520    0.6680 C   0  0  0  0  0  0  0  0  0  0  0  0
   -4.2090   -0.4580    0.5220 C   0  0  0  0  0  0  0  0  0  0  0  0
   -3.1950    0.3050    0.8290 C   0  0  0  0  0  0  0  0  0  0  0  0
   -1.8620   -0.1620    0.7630 N   0  0  0  0  0  0  0  0  0  0  0  0
   -0.7500    0.4210    0.1030 C   0  0  0  0  0  0  0  0  0  0  0  0
    0.3770   -0.5640   -0.0940 C   0  0  0  0  0  0  0  0  0  0  0  0
    1.5370    0.0660   -0.7860 C   0  0  0  0  0  0  0  0  0  0  0  0
    2.5830   -0.9180   -0.9520 N   0  0  0  0  0  0  0  0  0  0  0  0
    3.2260   -1.5930    0.1200 C   0  0  0  0  0  0  0  0  0  0  0  0
    2.8940   -1.3460    1.3050 O   0  0  0  0  0  0  0  0  0  0  0  0
    4.2990   -2.6020   -0.0870 C   0  0  0  0  0  0  0  0  0  0  0  0
    5.5940   -1.9580   -0.0950 N   0  0  0  0  0  0  0  0  0  0  0  0
    6.3690   -1.7530    0.9930 C   0  0  0  0  0  0  0  0  0  0  0  0
    7.5340   -1.1140    0.6280 C   0  0  0  0  0  0  0  0  0  0  0  0
    7.4710   -0.9230   -0.7210 C   0  0  0  0  0  0  0  0  0  0  0  0
    6.2690   -1.4520   -1.1330 C   0  0  0  0  0  0  0  0  0  0  0  0
   -0.5730    1.5990   -0.3220 N   0  0  0  0  0  0  0  0  0  0  0  0
   -1.3630    2.7770   -0.3220 C   0  0  0  0  0  0  0  0  0  0  0  0
   -0.7720    3.7930   -1.0720 C   0  0  0  0  0  0  0  0  0  0  0  0
   -1.3680    5.0180   -1.2050 C   0  0  0  0  0  0  0  0  0  0  0  0
   -2.5760    5.3000   -0.6050 C   0  0  0  0  0  0  0  0  0  0  0  0
   -3.1330    4.2770    0.1280 C   0  0  0  0  0  0  0  0  0  0  0  0
   -2.5530    3.0330    0.2780 C   0  0  0  0  0  0  0  0  0  0  0  0
   -3.6190    2.0110    1.3080 S   0  0  0  0  0  0  0  0  0  0  0  0
  1  2  2  0
  2  3  1  0
  2  6  1  0
  3  4  1  0
  4  5  2  0
  5  6  1  0
  6  7  2  3
  7  8  1  0
  7 28  1  0
  8  9  1  0
  9 10  1  0
  9 21  2  0
 10 11  1  0
 11 12  1  0
 12 13  1  0
 13 14  2  0
 13 15  1  0
 15 16  1  0
 16 17  1  0
 16 20  1  0
 17 18  2  0
 18 19  1  0
 19 20  2  0
 21 22  1  0
 22 23  2  0
 22 27  1  0
 23 24  1  0
 24 25  2  0
 25 26  1  0
 26 27  2  0
 27 28  1  0
M  END
