
     RDKit          3D

 28 31  0  0  0  0  0  0  0  0999 V2000
   -4.1310    4.1810    0.4670 C   0  0  0  0  0  0  0  0  0  0  0  0
   -3.1490    3.0010    0.4130 C   0  0  0  0  0  0  0  0  0  0  0  0
   -3.6150    1.8710    0.0140 C   0  0  0  0  0  0  0  0  0  0  0  0
   -3.0570    0.5800   -0.1730 C   0  0  0  0  0  0  0  0  0  0  0  0
   -1.7140    0.1410    0.0530 C   0  0  0  0  0  0  0  0  0  0  0  0
   -1.4320   -1.1010   -0.1900 O   0  0  0  0  0  0  0  0  0  0  0  0
   -0.6110    0.8760    0.5150 N   0  0  0  0  0  0  0  0  0  0  0  0
    0.7180    0.3400    0.7000 C   0  0  0  0  0  0  0  0  0  0  0  0
    1.2300   -0.7350    0.0580 C   0  0  0  0  0  0  0  0  0  0  0  0
    2.5220   -1.1650    0.3570 C   0  0  0  0  0  0  0  0  0  0  0  0
    3.3350   -0.5580    1.2810 C   0  0  0  0  0  0  0  0  0  0  0  0
    4.6840   -1.0150    1.5850 C   0  0  0  0  0  0  0  0  0  0  0  0
    5.2120   -1.4920    2.7230 N   0  0  0  0  0  0  0  0  0  0  0  0
    6.4890   -1.7880    2.5440 N   0  0  0  0  0  0  0  0  0  0  0  0
    6.8420   -1.5080    1.2550 C   0  0  0  0  0  0  0  0  0  0  0  0
    5.7010   -1.0230    0.6630 C   0  0  0  0  0  0  0  0  0  0  0  0
    5.5380   -0.5620   -0.7620 C   0  0  0  0  0  0  0  0  0  0  0  0
    4.8120   -0.1440   -1.5100 N   0  0  0  0  0  0  0  0  0  0  0  0
    4.9330    0.1960   -2.7850 C   0  0  0  0  0  0  0  0  0  0  0  0
    6.1530    0.0100   -3.2910 C   0  0  0  0  0  0  0  0  0  0  0  0
    7.0970   -0.6660   -1.8670 S   0  0  0  0  0  0  0  0  0  0  0  0
    2.7810    0.5380    1.9180 C   0  0  0  0  0  0  0  0  0  0  0  0
    1.5110    0.9830    1.6430 C   0  0  0  0  0  0  0  0  0  0  0  0
   -3.9360   -0.3700   -0.6260 C   0  0  0  0  0  0  0  0  0  0  0  0
   -3.6850   -1.7750   -0.9190 C   0  0  0  0  0  0  0  0  0  0  0  0
   -4.9460   -2.3340   -1.4970 C   0  0  0  0  0  0  0  0  0  0  0  0
   -6.0190   -1.3270   -1.2990 C   0  0  0  0  0  0  0  0  0  0  0  0
   -5.3590   -0.0690   -0.8830 C   0  0  0  0  0  0  0  0  0  0  0  0
  1  2  1  0
  2  3  2  3
  3  4  1  0
  4  5  1  0
  4 24  2  3
  5  6  2  0
  5  7  1  0
  7  8  1  0
  8  9  2  0
  8 23  1  0
  9 10  1  0
 10 11  2  0
 11 12  1  0
 11 22  1  0
 12 13  2  0
 12 16  1  0
 13 14  1  0
 14 15  1  0
 15 16  2  0
 16 17  1  0
 17 18  2  0
 17 21  1  0
 18 19  1  0
 19 20  2  0
 20 21  1  0
 22 23  2  0
 24 25  1  0
 24 28  1  0
 25 26  1  0
 26 27  1  0
 27 28  1  0
M  END
