
     RDKit          3D

 34 36  0  0  0  0  0  0  0  0999 V2000
   -3.9540    2.0930   -1.4730 C   0  0  0  0  0  0  0  0  0  0  0  0
   -4.8220    1.1570   -1.4420 C   0  0  0  0  0  0  0  0  0  0  0  0
   -6.2010    1.7130   -1.6030 O   0  0  0  0  0  0  0  0  0  0  0  0
   -4.8000   -0.2440   -1.2980 C   0  0  0  0  0  0  0  0  0  0  0  0
   -6.1230   -0.7340   -1.3310 C   0  0  0  0  0  0  0  0  0  0  0  0
   -6.4300   -2.1380   -1.2110 C   0  0  2  0  0  0  0  0  0  0  0  0
   -6.1750   -2.7220    0.0020 F   0  0  0  0  0  0  0  0  0  0  0  0
   -5.8620   -2.9400   -2.2050 F   0  0  0  0  0  0  0  0  0  0  0  0
   -7.8450   -2.3200   -1.4010 F   0  0  0  0  0  0  0  0  0  0  0  0
   -3.8360   -1.2360   -1.1060 C   0  0  0  0  0  0  0  0  0  0  0  0
   -2.5420   -1.4550   -1.0200 C   0  0  0  0  0  0  0  0  0  0  0  0
   -2.1540   -2.8420   -0.7810 N   0  0  0  0  0  0  0  0  0  0  0  0
   -1.1000   -3.3500    0.0700 C   0  0  0  0  0  0  0  0  0  0  0  0
   -1.2290   -4.5380    0.4330 O   0  0  0  0  0  0  0  0  0  0  0  0
    0.0490   -2.6590    0.5340 N   0  0  0  0  0  0  0  0  0  0  0  0
    0.5430   -1.4810   -0.1160 C   0  0  0  0  0  0  0  0  0  0  0  0
    1.9120   -1.3530    0.0720 C   0  0  0  0  0  0  0  0  0  0  0  0
    2.5810   -0.2850   -0.5010 C   0  0  0  0  0  0  0  0  0  0  0  0
    1.9220    0.6550   -1.2520 C   0  0  0  0  0  0  0  0  0  0  0  0
    2.7640    2.0220   -1.9910 S   0  0  0  0  0  0  0  0  0  0  0  0
    4.4330    2.2880   -1.4800 C   0  0  0  0  0  0  0  0  0  0  0  0
    4.6300    2.9090   -0.1660 C   0  0  0  0  0  0  0  0  0  0  0  0
    4.0700    2.1910    1.0270 C   0  0  0  0  0  0  0  0  0  0  0  0
    2.7400    2.4200    1.4940 C   0  0  0  0  0  0  0  0  0  0  0  0
    2.5760    1.4130    2.8910 S   0  0  0  0  0  0  0  0  0  0  0  0
    4.2310    0.7230    2.8350 C   0  0  0  0  0  0  0  0  0  0  0  0
    4.7550   -0.2420    3.7980 C   0  0  0  0  0  0  0  0  0  0  0  0
    3.8710   -0.6810    4.9050 C   0  0  0  0  0  0  0  0  0  0  0  0
    5.9140   -0.6590    3.6590 O   0  0  0  0  0  0  0  0  0  0  0  0
    4.7690    1.3090    1.7670 C   0  0  0  0  0  0  0  0  0  0  0  0
    0.5850    0.5070   -1.4190 C   0  0  0  0  0  0  0  0  0  0  0  0
   -0.1600   -0.5690   -0.8570 C   0  0  0  0  0  0  0  0  0  0  0  0
   -1.5770   -0.3710   -1.2400 C   0  0  1  0  0  0  0  0  0  0  0  0
   -1.5760   -0.0340   -2.6060 O   0  0  0  0  0  0  0  0  0  0  0  0
  1  2  2  0
  2  3  1  0
  2  4  1  0
  4  5  2  3
  4 10  1  0
  5  6  1  0
  6  7  1  1
  6  8  1  0
  6  9  1  0
 10 11  2  3
 11 12  1  0
 11 33  1  0
 12 13  1  0
 13 14  2  0
 13 15  1  0
 15 16  1  0
 16 17  2  0
 16 32  1  0
 17 18  1  0
 18 19  2  0
 19 20  1  0
 19 31  1  0
 20 21  1  0
 21 22  1  0
 22 23  1  0
 23 24  2  0
 23 30  1  0
 24 25  1  0
 25 26  1  0
 26 27  1  0
 26 30  2  0
 27 28  1  0
 27 29  2  0
 31 32  2  0
 32 33  1  0
 33 34  1  6
M  END
