
     RDKit          3D

 35 39  0  0  0  0  0  0  0  0999 V2000
    8.5910    3.4670   -0.4520 C   0  0  0  0  0  0  0  0  0  0  0  0
    8.1990    2.4030    0.5500 C   0  0  0  0  0  0  0  0  0  0  0  0
    7.2610    1.4180   -0.0490 C   0  0  0  0  0  0  0  0  0  0  0  0
    7.5850    0.2670   -0.6960 N   0  0  0  0  0  0  0  0  0  0  0  0
    6.4370   -0.2990   -1.0630 N   0  0  0  0  0  0  0  0  0  0  0  0
    5.4230    0.4790   -0.6540 C   0  0  0  0  0  0  0  0  0  0  0  0
    3.9540    0.2810   -0.8220 C   0  0  1  0  0  0  0  0  0  0  0  0
    3.6140    0.3160   -2.3050 C   0  0  0  0  0  0  0  0  0  0  0  0
    4.1340   -1.0250   -2.8060 C   0  0  0  0  0  0  0  0  0  0  0  0
    4.1670   -1.9030   -1.5600 C   0  0  0  0  0  0  0  0  0  0  0  0
    3.6170   -1.0850   -0.5070 N   0  0  0  0  0  0  0  0  0  0  0  0
    2.8950   -1.5110    0.6260 C   0  0  0  0  0  0  0  0  0  0  0  0
    2.6860   -2.7620    0.7950 O   0  0  0  0  0  0  0  0  0  0  0  0
    2.3600   -0.5670    1.6390 C   0  0  2  0  0  0  0  0  0  0  0  0
    1.7690   -1.3560    2.8140 C   0  0  0  0  0  0  0  0  0  0  0  0
    0.4880   -1.8270    2.1730 C   0  0  0  0  0  0  0  0  0  0  0  0
   -0.0670   -2.9340    2.2370 O   0  0  0  0  0  0  0  0  0  0  0  0
   -0.0080   -0.7170    1.4380 N   0  0  0  0  0  0  0  0  0  0  0  0
   -1.3290   -0.4200    1.0400 C   0  0  0  0  0  0  0  0  0  0  0  0
   -2.0320   -1.2190    0.2630 C   0  0  0  0  0  0  0  0  0  0  0  0
   -3.3590   -0.9300   -0.1430 N   0  0  0  0  0  0  0  0  0  0  0  0
   -4.3860   -1.3610    0.5410 C   0  0  0  0  0  0  0  0  0  0  0  0
   -4.3500   -2.1820    1.7900 C   0  0  0  0  0  0  0  0  0  0  0  0
   -5.7720   -2.5920    1.9910 C   0  0  0  0  0  0  0  0  0  0  0  0
   -6.4350   -2.3560    0.6280 C   0  0  0  0  0  0  0  0  0  0  0  0
   -5.7480   -1.1210    0.2160 N   0  0  0  0  0  0  0  0  0  0  0  0
   -6.3520    0.0090   -0.3690 C   0  0  0  0  0  0  0  0  0  0  0  0
   -7.6510   -0.1090   -0.8690 C   0  0  0  0  0  0  0  0  0  0  0  0
   -8.2750    0.9440   -1.4270 N   0  0  0  0  0  0  0  0  0  0  0  0
   -7.6850    2.1540   -1.5300 C   0  0  0  0  0  0  0  0  0  0  0  0
   -6.4030    2.3440   -1.0580 C   0  0  0  0  0  0  0  0  0  0  0  0
   -5.7390    3.6680   -1.1630 C   0  0  0  0  0  0  0  0  0  0  0  0
   -5.7750    1.2480   -0.4860 C   0  0  0  0  0  0  0  0  0  0  0  0
    1.1220    0.1480    1.1200 C   0  0  0  0  0  0  0  0  0  0  0  0
    5.9640    1.5000   -0.0500 O   0  0  0  0  0  0  0  0  0  0  0  0
  1  2  1  0
  2  3  1  0
  3  4  2  0
  3 35  1  0
  4  5  1  0
  5  6  2  0
  7  6  1  6
  6 35  1  0
  7  8  1  0
  7 11  1  0
  8  9  1  0
  9 10  1  0
 10 11  1  0
 11 12  1  0
 12 13  2  0
 14 12  1  6
 14 15  1  0
 14 34  1  0
 15 16  1  0
 16 17  2  0
 16 18  1  0
 18 19  1  0
 18 34  1  0
 19 20  2  3
 20 21  1  0
 21 22  2  3
 22 23  1  0
 22 26  1  0
 23 24  1  0
 24 25  1  0
 25 26  1  0
 26 27  1  0
 27 28  2  0
 27 33  1  0
 28 29  1  0
 29 30  2  0
 30 31  1  0
 31 32  1  0
 31 33  2  0
M  CHG  1  21   1
M  END
