
     RDKit          3D

 35 39  0  0  0  0  0  0  0  0999 V2000
   10.2270    0.9840    0.5100 C   0  0  0  0  0  0  0  0  0  0  0  0
    8.8510    1.2820    0.1480 N   0  0  0  0  0  0  0  0  0  0  0  0
    7.8490    0.6070    0.5780 C   0  0  0  0  0  0  0  0  0  0  0  0
    7.9270   -0.5050    1.4560 N   0  0  0  0  0  0  0  0  0  0  0  0
    7.0560   -1.4640    1.4290 C   0  0  0  0  0  0  0  0  0  0  0  0
    6.0130   -1.3660    0.4710 N   0  0  0  0  0  0  0  0  0  0  0  0
    6.2320   -1.6920   -0.9140 C   0  0  0  0  0  0  0  0  0  0  0  0
    4.9370   -1.5540   -1.6210 C   0  0  0  0  0  0  0  0  0  0  0  0
    3.9900   -1.0480   -0.5660 C   0  0  0  0  0  0  0  0  0  0  0  0
    2.6520   -0.6840   -0.6800 C   0  0  0  0  0  0  0  0  0  0  0  0
    1.9590   -0.2280    0.4050 C   0  0  0  0  0  0  0  0  0  0  0  0
    0.6020    0.2290    0.2830 N   0  0  0  0  0  0  0  0  0  0  0  0
    0.3000    1.6500    0.4710 C   0  0  0  0  0  0  0  0  0  0  0  0
    0.9090    2.3990    1.2370 O   0  0  0  0  0  0  0  0  0  0  0  0
   -0.8330    1.8210   -0.4640 C   0  0  0  0  0  0  0  0  0  0  0  0
   -1.7060    0.6140    0.1000 C   0  0  1  0  0  0  0  0  0  0  0  0
   -2.8670    0.5050   -0.7790 C   0  0  0  0  0  0  0  0  0  0  0  0
   -3.9970   -0.3360   -0.5120 N   0  0  2  0  0  0  0  0  0  0  0  0
   -4.6930    0.0950    0.6850 C   0  0  0  0  0  0  0  0  0  0  0  0
   -5.8610    0.9800    0.4350 C   0  0  0  0  0  0  0  0  0  0  0  0
   -7.1710    0.8390    0.8960 C   0  0  0  0  0  0  0  0  0  0  0  0
   -7.9100    1.9510    0.5370 C   0  0  0  0  0  0  0  0  0  0  0  0
   -7.1040    2.7710   -0.1290 N   0  0  0  0  0  0  0  0  0  0  0  0
   -7.0840    3.9710   -0.7730 C   0  0  0  0  0  0  0  0  0  0  0  0
   -5.8220    4.1180   -1.2330 N   0  0  0  0  0  0  0  0  0  0  0  0
   -5.1640    3.0720   -0.8740 O   0  0  0  0  0  0  0  0  0  0  0  0
   -5.8710    2.2280   -0.2130 C   0  0  0  0  0  0  0  0  0  0  0  0
   -3.8860   -1.6970   -0.7690 C   0  0  2  0  0  0  0  0  0  0  0  0
   -5.1730   -2.2170   -1.4600 C   0  0  0  0  0  0  0  0  0  0  0  0
   -3.6150   -2.6520    0.3450 C   0  0  0  0  0  0  0  0  0  0  0  0
   -0.6170   -0.4200   -0.0450 C   0  0  0  0  0  0  0  0  0  0  0  0
   -0.7060   -1.6420   -0.3830 O   0  0  0  0  0  0  0  0  0  0  0  0
    2.6090   -0.1410    1.5980 C   0  0  0  0  0  0  0  0  0  0  0  0
    3.9340   -0.5020    1.7050 C   0  0  0  0  0  0  0  0  0  0  0  0
    4.6730   -0.9680    0.6180 C   0  0  0  0  0  0  0  0  0  0  0  0
  1  2  1  0
  2  3  2  3
  3  4  1  0
  4  5  2  3
  5  6  1  0
  6  7  1  0
  6 35  1  0
  7  8  1  0
  8  9  1  0
  9 10  2  0
  9 35  1  0
 10 11  1  0
 11 12  1  0
 11 33  2  0
 12 13  1  0
 12 31  1  0
 13 14  2  0
 13 15  1  0
 15 16  1  0
 16 17  1  6
 16 31  1  0
 18 17  1  1
 18 19  1  0
 18 28  1  0
 19 20  1  0
 20 21  1  0
 20 27  2  0
 21 22  2  0
 22 23  1  0
 23 24  1  0
 23 27  1  0
 24 25  2  0
 25 26  1  0
 26 27  1  0
 28 29  1  1
 28 30  1  0
 31 32  2  0
 33 34  1  0
 34 35  2  0
M  CHG  1  18   1
M  END
