
     RDKit          3D

 42 46  0  0  0  0  0  0  0  0999 V2000
  -11.1620    3.3090    1.6380 C   0  0  0  0  0  0  0  0  0  0  0  0
  -10.1910    2.8850    0.6840 O   0  0  0  0  0  0  0  0  0  0  0  0
   -8.9580    2.3680    1.0930 C   0  0  0  0  0  0  0  0  0  0  0  0
   -8.7470    2.2930    2.3000 O   0  0  0  0  0  0  0  0  0  0  0  0
   -7.9780    1.9410    0.1710 N   0  0  0  0  0  0  0  0  0  0  0  0
   -6.7150    1.4080    0.4300 C   0  0  0  0  0  0  0  0  0  0  0  0
   -5.8710    1.0520   -0.6220 C   0  0  0  0  0  0  0  0  0  0  0  0
   -4.6280    0.5270   -0.4090 C   0  0  0  0  0  0  0  0  0  0  0  0
   -4.1270    0.3140    0.8550 C   0  0  0  0  0  0  0  0  0  0  0  0
   -2.7910   -0.2510    1.0040 C   0  0  0  0  0  0  0  0  0  0  0  0
   -1.9930   -0.5870   -0.0390 N   0  0  0  0  0  0  0  0  0  0  0  0
   -0.8280   -1.0800    0.3900 C   0  0  0  0  0  0  0  0  0  0  0  0
    0.2690   -1.5430   -0.5020 C   0  0  2  0  0  0  0  0  0  0  0  0
    0.2760   -3.0610   -0.4810 C   0  0  0  0  0  0  0  0  0  0  0  0
    1.3450   -3.6080   -1.3490 C   0  0  0  0  0  0  0  0  0  0  0  0
    2.5840   -3.8280   -0.7880 C   0  0  0  0  0  0  0  0  0  0  0  0
    3.6000   -4.3320   -1.5530 C   0  0  0  0  0  0  0  0  0  0  0  0
    3.3480   -4.6090   -2.8870 C   0  0  0  0  0  0  0  0  0  0  0  0
    2.1140   -4.3900   -3.4460 C   0  0  0  0  0  0  0  0  0  0  0  0
    1.0950   -3.8840   -2.6780 C   0  0  0  0  0  0  0  0  0  0  0  0
    1.5280   -1.0290    0.0070 N   0  0  0  0  0  0  0  0  0  0  0  0
    2.3390   -0.1380   -0.7320 C   0  0  0  0  0  0  0  0  0  0  0  0
    1.9390    0.2100   -1.8650 O   0  0  0  0  0  0  0  0  0  0  0  0
    3.6060    0.3470   -0.1600 C   0  0  0  0  0  0  0  0  0  0  0  0
    4.3350    1.1670   -0.8590 C   0  0  0  0  0  0  0  0  0  0  0  0
    5.5930    1.7860   -0.5580 C   0  0  0  0  0  0  0  0  0  0  0  0
    6.0890    2.7300   -1.4770 C   0  0  0  0  0  0  0  0  0  0  0  0
    7.2760    3.3600   -1.2910 C   0  0  0  0  0  0  0  0  0  0  0  0
    7.7930    4.5160   -2.5000 Cl  0  0  0  0  0  0  0  0  0  0  0  0
    8.0230    3.0780   -0.1780 C   0  0  0  0  0  0  0  0  0  0  0  0
    7.5660    2.1710    0.7220 C   0  0  0  0  0  0  0  0  0  0  0  0
    6.3360    1.5070    0.5440 C   0  0  0  0  0  0  0  0  0  0  0  0
    6.0220    0.5710    1.5730 N   0  0  0  0  0  0  0  0  0  0  0  0
    5.4980    0.8290    2.7950 C   0  0  0  0  0  0  0  0  0  0  0  0
    5.4190   -0.3270    3.4750 N   0  0  0  0  0  0  0  0  0  0  0  0
    5.8880   -1.2750    2.6820 N   0  0  0  0  0  0  0  0  0  0  0  0
    6.2490   -0.7280    1.5410 N   0  0  0  0  0  0  0  0  0  0  0  0
   -0.8460   -1.0740    1.7250 N   0  0  0  0  0  0  0  0  0  0  0  0
   -2.0500   -0.5650    2.1120 C   0  0  0  0  0  0  0  0  0  0  0  0
   -2.5550   -0.3530    3.7920 Cl  0  0  0  0  0  0  0  0  0  0  0  0
   -4.9380    0.6560    1.8970 C   0  0  0  0  0  0  0  0  0  0  0  0
   -6.2200    1.1980    1.6800 C   0  0  0  0  0  0  0  0  0  0  0  0
  1  2  1  0
  2  3  1  0
  3  4  2  0
  3  5  1  0
  5  6  1  0
  6  7  2  0
  6 42  1  0
  7  8  1  0
  8  9  2  0
  9 10  1  0
  9 41  1  0
 10 11  1  0
 10 39  2  0
 11 12  1  0
 12 13  1  0
 12 38  2  0
 13 14  1  1
 13 21  1  0
 14 15  1  0
 15 16  2  0
 15 20  1  0
 16 17  1  0
 17 18  2  0
 18 19  1  0
 19 20  2  0
 21 22  1  0
 22 23  2  0
 22 24  1  0
 24 25  2  3
 25 26  1  0
 26 27  2  0
 26 32  1  0
 27 28  1  0
 28 29  1  0
 28 30  2  0
 30 31  1  0
 31 32  2  0
 32 33  1  0
 33 34  1  0
 33 37  1  0
 34 35  2  0
 35 36  1  0
 36 37  2  0
 38 39  1  0
 39 40  1  0
 41 42  2  0
M  END
