
     RDKit          3D

 34 36  0  0  0  0  0  0  0  0999 V2000
    6.5030   -1.1500    2.3810 C   0  0  0  0  0  0  0  0  0  0  0  0
    7.0740   -0.1320    1.4530 C   0  0  0  0  0  0  0  0  0  0  0  0
    6.0820    0.9980    1.1980 C   0  0  0  0  0  0  0  0  0  0  0  0
    6.2850    2.2300    1.8240 C   0  0  0  0  0  0  0  0  0  0  0  0
    4.9520    3.2390    1.3120 S   0  0  0  0  0  0  0  0  0  0  0  0
    4.1580    1.9630    0.2730 C   0  0  0  0  0  0  0  0  0  0  0  0
    2.9130    2.3090   -0.4290 C   0  0  0  0  0  0  0  0  0  0  0  0
    2.6680    3.5850   -0.5010 O   0  0  0  0  0  0  0  0  0  0  0  0
    1.9680    1.4930   -1.0030 N   0  0  0  0  0  0  0  0  0  0  0  0
    0.7830    1.8740   -1.7180 C   0  0  0  0  0  0  0  0  0  0  0  0
    0.5200    3.1650   -2.0690 C   0  0  0  0  0  0  0  0  0  0  0  0
   -0.6370    3.5220   -2.7740 C   0  0  0  0  0  0  0  0  0  0  0  0
   -1.5270    2.5020   -3.1150 C   0  0  0  0  0  0  0  0  0  0  0  0
   -1.2920    1.1970   -2.7780 C   0  0  0  0  0  0  0  0  0  0  0  0
   -0.1440    0.9170   -2.0880 C   0  0  0  0  0  0  0  0  0  0  0  0
    0.1740   -0.7810   -1.5800 S   0  0  0  0  0  0  0  0  0  0  0  0
   -1.3660   -1.7570   -1.7430 C   0  0  0  0  0  0  0  0  0  0  0  0
   -2.2620   -1.3050   -0.6360 C   0  0  0  0  0  0  0  0  0  0  0  0
   -2.8420   -0.1940   -0.6260 O   0  0  0  0  0  0  0  0  0  0  0  0
   -2.5210   -2.1410    0.5190 N   0  0  0  0  0  0  0  0  0  0  0  0
   -3.3790   -1.6770    1.5590 C   0  0  0  0  0  0  0  0  0  0  0  0
   -4.7700   -1.4200    1.2000 C   0  0  0  0  0  0  0  0  0  0  0  0
   -5.3380   -1.6230   -0.0210 C   0  0  0  0  0  0  0  0  0  0  0  0
   -6.6580   -1.3550   -0.2710 C   0  0  0  0  0  0  0  0  0  0  0  0
   -7.1650   -1.5810   -1.5240 O   0  0  0  0  0  0  0  0  0  0  0  0
   -7.4470   -0.8690    0.7230 C   0  0  0  0  0  0  0  0  0  0  0  0
   -6.9210   -0.6490    1.9750 C   0  0  0  0  0  0  0  0  0  0  0  0
   -5.5940   -0.9240    2.2060 C   0  0  0  0  0  0  0  0  0  0  0  0
   -5.0650   -0.7020    3.4730 O   0  0  0  0  0  0  0  0  0  0  0  0
    4.9730    0.9010    0.4000 C   0  0  0  0  0  0  0  0  0  0  0  0
    4.6840   -0.3550   -0.4210 C   0  0  2  0  0  0  0  0  0  0  0  0
    4.3220   -1.4320    0.2520 F   0  0  0  0  0  0  0  0  0  0  0  0
    6.0330   -0.6990   -0.8750 F   0  0  0  0  0  0  0  0  0  0  0  0
    4.0060   -0.1200   -1.5640 F   0  0  0  0  0  0  0  0  0  0  0  0
  1  2  1  0
  2  3  1  0
  3  4  2  0
  3 30  1  0
  4  5  1  0
  5  6  1  0
  6  7  1  0
  6 30  2  0
  7  8  2  0
  7  9  1  0
  9 10  1  0
 10 11  2  0
 10 15  1  0
 11 12  1  0
 12 13  2  0
 13 14  1  0
 14 15  2  0
 15 16  1  0
 16 17  1  0
 17 18  1  0
 18 19  2  0
 18 20  1  0
 20 21  1  0
 21 22  1  0
 22 23  2  0
 22 28  1  0
 23 24  1  0
 24 25  1  0
 24 26  2  0
 26 27  1  0
 27 28  2  0
 28 29  1  0
 30 31  1  0
 31 32  1  1
 31 33  1  0
 31 34  1  0
M  END
