
     RDKit          3D

 35 39  0  0  0  0  0  0  0  0999 V2000
    3.1390    4.2270    1.7080 C   0  0  0  0  0  0  0  0  0  0  0  0
    2.6740    2.9450    1.2100 C   0  0  0  0  0  0  0  0  0  0  0  0
    1.6910    2.9610    0.4100 N   0  0  0  0  0  0  0  0  0  0  0  0
    0.8860    3.7970   -0.1720 C   0  0  0  0  0  0  0  0  0  0  0  0
    0.2180    4.8010    0.3630 N   0  0  0  0  0  0  0  0  0  0  0  0
   -0.6060    5.5280   -0.6870 C   0  0  0  0  0  0  0  0  0  0  0  0
    0.2770    5.3600   -1.8710 C   0  0  0  0  0  0  0  0  0  0  0  0
    0.5580    3.8520   -1.6750 C   0  0  0  0  0  0  0  0  0  0  0  0
    3.3020    1.6750    1.5760 C   0  0  0  0  0  0  0  0  0  0  0  0
    4.5930    1.7820    2.1880 C   0  0  0  0  0  0  0  0  0  0  0  0
    5.3580    0.7710    2.4980 N   0  0  0  0  0  0  0  0  0  0  0  0
    4.8780   -0.5320    2.2220 C   0  0  0  0  0  0  0  0  0  0  0  0
    3.6480   -0.5990    1.6380 C   0  0  0  0  0  0  0  0  0  0  0  0
    3.1110   -2.0150    1.4150 C   0  0  0  0  0  0  0  0  0  0  0  0
    1.9760   -1.8960    0.9110 N   0  0  0  0  0  0  0  0  0  0  0  0
    1.1040   -0.9110    0.5200 C   0  0  0  0  0  0  0  0  0  0  0  0
   -0.0770   -1.4600   -0.0570 N   0  0  0  0  0  0  0  0  0  0  0  0
   -0.9150   -0.9450   -1.0560 C   0  0  0  0  0  0  0  0  0  0  0  0
   -2.3780   -0.8520   -0.8100 C   0  0  0  0  0  0  0  0  0  0  0  0
   -2.8010   -0.0220    0.3390 C   0  0  1  0  0  0  0  0  0  0  0  0
   -2.2580    1.3990    0.0460 C   0  0  0  0  0  0  0  0  0  0  0  0
   -1.0420    1.5450   -0.0790 O   0  0  0  0  0  0  0  0  0  0  0  0
   -3.3190    2.2030    0.0010 O   0  0  0  0  0  0  0  0  0  0  0  0
   -4.5310    1.5000    0.2250 C   0  0  0  0  0  0  0  0  0  0  0  0
   -5.8400    1.7260    0.3000 C   0  0  0  0  0  0  0  0  0  0  0  0
   -6.4410    0.3980    0.5870 O   0  0  0  0  0  0  0  0  0  0  0  0
   -5.4460   -0.4230    0.6410 C   0  0  0  0  0  0  0  0  0  0  0  0
   -4.2490    0.1890    0.4270 C   0  0  0  0  0  0  0  0  0  0  0  0
   -0.3930   -2.8810    0.3310 C   0  0  0  0  0  0  0  0  0  0  0  0
    0.1660   -3.7180   -0.8260 C   0  0  0  0  0  0  0  0  0  0  0  0
   -0.1140   -5.1470   -0.6410 N   0  0  2  0  0  0  0  0  0  0  0  0
    0.7900   -5.9650   -1.3910 C   0  0  0  0  0  0  0  0  0  0  0  0
   -1.4710   -5.3560   -1.1800 C   0  0  0  0  0  0  0  0  0  0  0  0
    1.5870    0.2820    0.7390 N   0  0  0  0  0  0  0  0  0  0  0  0
    2.8800    0.4390    1.3120 C   0  0  0  0  0  0  0  0  0  0  0  0
  1  2  1  0
  2  3  2  3
  2  9  1  0
  3  4  1  0
  4  5  2  0
  4  8  1  0
  5  6  1  0
  6  7  1  0
  7  8  1  0
  9 10  2  0
  9 35  1  0
 10 11  1  0
 11 12  2  0
 12 13  1  0
 13 14  2  0
 13 35  1  0
 14 15  1  0
 15 16  2  0
 16 17  1  0
 16 34  1  0
 17 18  1  0
 17 29  1  0
 18 19  1  0
 20 19  1  6
 20 21  1  0
 20 28  1  0
 21 22  2  0
 21 23  1  0
 23 24  1  0
 24 25  2  0
 24 28  1  0
 25 26  1  0
 26 27  1  0
 27 28  2  0
 29 30  1  0
 30 31  1  0
 31 32  1  6
 31 33  1  0
 34 35  2  0
M  CHG  1  31   1
M  END
