
     RDKit          3D

 33 35  0  0  0  0  0  0  0  0999 V2000
   -0.4410    5.5480   -0.9420 C   0  0  0  0  0  0  0  0  0  0  0  0
   -0.5440    4.1070   -2.0670 S   0  0  0  0  0  0  0  0  0  0  0  0
   -0.3130    2.5840   -1.1250 C   0  0  0  0  0  0  0  0  0  0  0  0
    0.9450    2.0470   -0.9820 C   0  0  0  0  0  0  0  0  0  0  0  0
    1.1440    0.8590   -0.2670 C   0  0  0  0  0  0  0  0  0  0  0  0
    2.3730    0.3070   -0.1110 O   0  0  0  0  0  0  0  0  0  0  0  0
    3.5930    0.7820   -0.6010 C   0  0  0  0  0  0  0  0  0  0  0  0
    4.6670   -0.1730   -0.1810 C   0  0  0  0  0  0  0  0  0  0  0  0
    4.4560   -1.0900    0.8310 C   0  0  0  0  0  0  0  0  0  0  0  0
    5.4480   -1.9950    1.2210 C   0  0  0  0  0  0  0  0  0  0  0  0
    6.6860   -2.0040    0.6000 C   0  0  0  0  0  0  0  0  0  0  0  0
    7.7360   -2.9460    0.9730 C   0  0  0  0  0  0  0  0  0  0  0  0
    8.6820   -3.3120   -0.0310 N   0  0  0  0  0  0  0  0  0  0  0  0
    7.8940   -3.6120    2.4520 S   0  0  0  0  0  0  0  0  0  0  0  0
    6.8740   -1.0740   -0.4150 C   0  0  0  0  0  0  0  0  0  0  0  0
    5.9010   -0.1780   -0.8030 C   0  0  0  0  0  0  0  0  0  0  0  0
    0.0100    0.2920    0.2660 C   0  0  0  0  0  0  0  0  0  0  0  0
   -1.2590    0.8220    0.1290 C   0  0  0  0  0  0  0  0  0  0  0  0
   -2.4200    0.1550    0.7570 C   0  0  0  0  0  0  0  0  0  0  0  0
   -2.1960   -0.9140    1.3660 O   0  0  0  0  0  0  0  0  0  0  0  0
   -3.6640    0.6390    0.7020 O   0  0  0  0  0  0  0  0  0  0  0  0
   -4.9030    0.2960    1.0990 C   0  0  0  0  0  0  0  0  0  0  0  0
   -5.7030   -0.7220    0.4080 C   0  0  0  0  0  0  0  0  0  0  0  0
   -7.0760   -0.3890    0.1810 C   0  0  0  0  0  0  0  0  0  0  0  0
   -7.9280   -1.2650   -0.4040 C   0  0  0  0  0  0  0  0  0  0  0  0
   -9.2550   -1.0170   -0.6470 F   0  0  0  0  0  0  0  0  0  0  0  0
   -7.4960   -2.5290   -0.8060 C   0  0  0  0  0  0  0  0  0  0  0  0
   -8.3470   -3.4070   -1.3920 F   0  0  0  0  0  0  0  0  0  0  0  0
   -6.1830   -2.8780   -0.6010 C   0  0  0  0  0  0  0  0  0  0  0  0
   -5.3280   -1.9620   -0.0000 C   0  0  0  0  0  0  0  0  0  0  0  0
   -4.0210   -2.4000    0.1650 O   0  0  0  0  0  0  0  0  0  0  0  0
   -1.4400    1.9880   -0.5760 C   0  0  0  0  0  0  0  0  0  0  0  0
   -2.7440    2.5340   -0.7190 N   0  0  0  0  0  0  0  0  0  0  0  0
  1  2  1  0
  2  3  1  0
  3  4  2  0
  3 32  1  0
  4  5  1  0
  5  6  1  0
  5 17  2  0
  6  7  1  0
  7  8  1  0
  8  9  2  0
  8 16  1  0
  9 10  1  0
 10 11  2  0
 11 12  1  0
 11 15  1  0
 12 13  1  0
 12 14  2  0
 15 16  2  0
 17 18  1  0
 18 19  1  0
 18 32  2  0
 19 20  2  0
 19 21  1  0
 21 22  1  0
 22 23  1  0
 23 24  2  0
 23 30  1  0
 24 25  1  0
 25 26  1  0
 25 27  2  0
 27 28  1  0
 27 29  1  0
 29 30  2  0
 30 31  1  0
 32 33  1  0
M  END
