
     RDKit          3D

 35 39  0  0  0  0  0  0  0  0999 V2000
   -7.7850   -2.5600    1.7500 C   0  0  0  0  0  0  0  0  0  0  0  0
   -7.0850   -2.8350    0.4440 C   0  0  0  0  0  0  0  0  0  0  0  0
   -5.9710   -2.0000    0.2860 O   0  0  0  0  0  0  0  0  0  0  0  0
   -6.0940   -0.6330    0.2250 C   0  0  0  0  0  0  0  0  0  0  0  0
   -7.3320    0.0150    0.3020 C   0  0  0  0  0  0  0  0  0  0  0  0
   -7.3150    1.3910    0.2260 C   0  0  0  0  0  0  0  0  0  0  0  0
   -6.1360    2.0850    0.0820 C   0  0  0  0  0  0  0  0  0  0  0  0
   -6.1890    3.5700    0.0060 C   0  0  0  0  0  0  0  0  0  0  0  0
   -4.9670    1.4270    0.0110 N   0  0  0  0  0  0  0  0  0  0  0  0
   -4.9300    0.0930    0.0800 C   0  0  0  0  0  0  0  0  0  0  0  0
   -3.6410   -0.6280    0.0010 C   0  0  0  0  0  0  0  0  0  0  0  0
   -2.5610    0.3300   -0.1480 N   0  0  2  0  0  0  0  0  0  0  0  0
   -2.2210    0.3940   -1.5480 C   0  0  0  0  0  0  0  0  0  0  0  0
   -0.7480    0.7660   -1.7430 C   0  0  0  0  0  0  0  0  0  0  0  0
    0.0120   -0.3420   -1.2200 N   0  0  0  0  0  0  0  0  0  0  0  0
    1.1430   -0.9620   -1.8220 C   0  0  0  0  0  0  0  0  0  0  0  0
    2.4170   -0.4100   -1.4690 N   0  0  0  0  0  0  0  0  0  0  0  0
    2.6060    0.9490   -1.7990 C   0  0  0  0  0  0  0  0  0  0  0  0
    3.4050    1.7520   -0.7820 C   0  0  0  0  0  0  0  0  0  0  0  0
    4.5270    0.9110   -0.3510 C   0  0  0  0  0  0  0  0  0  0  0  0
    5.8100    1.1750   -0.1310 N   0  0  0  0  0  0  0  0  0  0  0  0
    6.4390    0.0660    0.2510 N   0  0  0  0  0  0  0  0  0  0  0  0
    7.8250    0.0150    0.5630 C   0  0  0  0  0  0  0  0  0  0  0  0
    8.7550   -0.3290   -0.4080 C   0  0  0  0  0  0  0  0  0  0  0  0
   10.1050   -0.3880   -0.1380 C   0  0  0  0  0  0  0  0  0  0  0  0
   10.5900   -0.1050    1.1180 C   0  0  0  0  0  0  0  0  0  0  0  0
    9.6820    0.2400    2.1050 C   0  0  0  0  0  0  0  0  0  0  0  0
    8.3160    0.2970    1.8200 C   0  0  0  0  0  0  0  0  0  0  0  0
    5.5240   -0.9110    0.2680 C   0  0  0  0  0  0  0  0  0  0  0  0
    5.7450   -2.0900    0.5760 O   0  0  0  0  0  0  0  0  0  0  0  0
    4.3270   -0.3930   -0.1060 N   0  0  0  0  0  0  0  0  0  0  0  0
    2.9870   -0.9080   -0.2800 C   0  0  0  0  0  0  0  0  0  0  0  0
   -0.4650   -0.8400    0.0510 C   0  0  0  0  0  0  0  0  0  0  0  0
   -0.0980   -1.9110    0.5480 O   0  0  0  0  0  0  0  0  0  0  0  0
   -1.4560    0.0660    0.7210 C   0  0  0  0  0  0  0  0  0  0  0  0
  1  2  1  0
  2  3  1  0
  3  4  1  0
  4  5  2  0
  4 10  1  0
  5  6  1  0
  6  7  2  0
  7  8  1  0
  7  9  1  0
  9 10  2  0
 10 11  1  0
 12 11  1  6
 12 13  1  0
 12 35  1  0
 13 14  1  0
 14 15  1  0
 15 16  1  0
 15 33  1  0
 16 17  1  0
 17 18  1  0
 17 32  1  0
 18 19  1  0
 19 20  1  0
 20 21  2  0
 20 31  1  0
 21 22  1  0
 22 23  1  0
 22 29  1  0
 23 24  2  0
 23 28  1  0
 24 25  1  0
 25 26  2  0
 26 27  1  0
 27 28  2  0
 29 30  2  0
 29 31  1  0
 31 32  1  0
 33 34  2  0
 33 35  1  0
M  CHG  1  12   1
M  END
