
     RDKit          3D

 34 36  0  0  0  0  0  0  0  0999 V2000
    7.1860    2.0710   -2.4460 C   0  0  0  0  0  0  0  0  0  0  0  0
    6.1360    1.4330   -1.5840 C   0  0  0  0  0  0  0  0  0  0  0  0
    6.4650    0.9300   -0.5480 O   0  0  0  0  0  0  0  0  0  0  0  0
    4.7500    1.4930   -2.1220 C   0  0  0  0  0  0  0  0  0  0  0  0
    3.7900    0.8160   -1.1330 C   0  0  0  0  0  0  0  0  0  0  0  0
    2.9890    1.5390   -0.3350 C   0  0  0  0  0  0  0  0  0  0  0  0
    2.1620    0.8850    0.5190 C   0  0  0  0  0  0  0  0  0  0  0  0
    1.2240    1.4250    1.4970 C   0  0  0  0  0  0  0  0  0  0  0  0
    1.5630    2.5450    1.9840 O   0  0  0  0  0  0  0  0  0  0  0  0
    0.0050    0.7950    1.9160 C   0  0  0  0  0  0  0  0  0  0  0  0
   -0.4600   -0.3880    1.4170 C   0  0  0  0  0  0  0  0  0  0  0  0
   -1.6680   -0.9630    1.8460 C   0  0  0  0  0  0  0  0  0  0  0  0
   -2.0890   -2.2060    1.3300 N   0  0  0  0  0  0  0  0  0  0  0  0
   -2.3390   -2.6820   -0.2720 S   0  0  2  0  0  0  0  0  0  0  0  0
   -2.7180   -4.1630   -0.2640 O   0  0  0  0  0  0  0  0  0  0  0  0
   -1.0130   -2.7060   -1.0560 O   0  0  0  0  0  0  0  0  0  0  0  0
   -3.5560   -1.8540   -1.1570 C   0  0  0  0  0  0  0  0  0  0  0  0
   -4.7260   -2.5140   -1.5590 C   0  0  0  0  0  0  0  0  0  0  0  0
   -5.7450   -1.9290   -2.2360 C   0  0  0  0  0  0  0  0  0  0  0  0
   -6.8560   -2.6480   -2.5900 F   0  0  0  0  0  0  0  0  0  0  0  0
   -5.6650   -0.6110   -2.5690 C   0  0  0  0  0  0  0  0  0  0  0  0
   -6.6760   -0.0160   -3.2460 F   0  0  0  0  0  0  0  0  0  0  0  0
   -4.5320    0.0790   -2.1960 C   0  0  0  0  0  0  0  0  0  0  0  0
   -4.4700    1.3950   -2.5390 F   0  0  0  0  0  0  0  0  0  0  0  0
   -3.4790   -0.5270   -1.4960 C   0  0  0  0  0  0  0  0  0  0  0  0
   -2.3340    0.3300   -1.2000 C   0  0  0  0  0  0  0  0  0  0  0  0
   -2.4160   -0.2970    2.8170 C   0  0  0  0  0  0  0  0  0  0  0  0
   -3.6900   -0.8710    3.2920 C   0  0  0  0  0  0  0  0  0  0  0  0
   -1.9450    0.8950    3.3180 C   0  0  0  0  0  0  0  0  0  0  0  0
   -0.7570    1.4430    2.8840 C   0  0  0  0  0  0  0  0  0  0  0  0
   -0.2910    2.6880    3.4240 N   0  0  0  0  0  0  0  0  0  0  0  0
    2.5060   -0.8400    0.2070 S   0  0  0  0  0  0  0  0  0  0  0  0
    3.7480   -0.5390   -1.0610 C   0  0  0  0  0  0  0  0  0  0  0  0
    4.4950   -1.5760   -1.7990 C   0  0  0  0  0  0  0  0  0  0  0  0
  1  2  1  0
  2  3  2  0
  2  4  1  0
  4  5  1  0
  5  6  1  0
  5 33  2  0
  6  7  2  0
  7  8  1  0
  7 32  1  0
  8  9  2  0
  8 10  1  0
 10 11  2  0
 10 30  1  0
 11 12  1  0
 12 13  1  0
 12 27  2  0
 14 13  1  1
 14 15  2  0
 14 16  2  0
 14 17  1  0
 17 18  2  0
 17 25  1  0
 18 19  1  0
 19 20  1  0
 19 21  2  0
 21 22  1  0
 21 23  1  0
 23 24  1  0
 23 25  2  0
 25 26  1  0
 27 28  1  0
 27 29  1  0
 29 30  2  0
 30 31  1  0
 32 33  1  0
 33 34  1  0
M  END
