
     RDKit          3D

 38 41  0  0  0  0  0  0  0  0999 V2000
   -6.6180   -0.4980    0.8460 O   0  0  0  0  0  0  0  0  0  0  0  0
   -7.0650    0.6710    1.2090 C   0  0  0  0  0  0  0  0  0  0  0  0
   -6.0460    1.7640    1.1360 C   0  0  0  0  0  0  0  0  0  0  0  0
   -4.8170    1.3050    0.5820 N   0  0  0  0  0  0  0  0  0  0  0  0
   -3.9510    0.2650    1.0940 C   0  0  0  0  0  0  0  0  0  0  0  0
   -4.3270   -0.2460    2.1640 O   0  0  0  0  0  0  0  0  0  0  0  0
   -2.7960   -0.1020    0.3880 C   0  0  0  0  0  0  0  0  0  0  0  0
   -2.6160    0.5610   -0.7440 O   0  0  0  0  0  0  0  0  0  0  0  0
   -1.7330   -1.0390    0.5890 N   0  0  0  0  0  0  0  0  0  0  0  0
   -0.7650   -1.0610   -0.4760 C   0  0  0  0  0  0  0  0  0  0  0  0
   -1.3280   -1.1410   -1.7710 C   0  0  0  0  0  0  0  0  0  0  0  0
   -0.5610   -0.8720   -2.8350 N   0  0  0  0  0  0  0  0  0  0  0  0
    0.6970   -0.5350   -2.7130 C   0  0  0  0  0  0  0  0  0  0  0  0
    1.4460   -0.2800   -3.6990 O   0  0  0  0  0  0  0  0  0  0  0  0
    1.3300   -0.4360   -1.4610 C   0  0  0  0  0  0  0  0  0  0  0  0
    2.5630    0.2110   -1.3820 N   0  0  0  0  0  0  0  0  0  0  0  0
    3.8510   -0.2740   -1.3840 C   0  0  0  0  0  0  0  0  0  0  0  0
    4.1100   -1.4980   -1.5220 O   0  0  0  0  0  0  0  0  0  0  0  0
    5.0130    0.6500   -1.2710 N   0  0  0  0  0  0  0  0  0  0  0  0
    6.1500   -0.2840   -1.6450 C   0  0  0  0  0  0  0  0  0  0  0  0
    6.9390   -0.8150   -1.8800 N   0  0  0  0  0  0  0  0  0  0  0  0
    8.2340   -0.9490   -2.1310 N   0  0  0  0  0  0  0  0  0  0  0  0
    8.8920    0.3010   -1.9380 C   0  0  2  0  0  0  0  0  0  0  0  0
    9.6600    0.4770   -0.7560 N   0  0  0  0  0  0  0  0  0  0  0  0
   11.0170    0.6860   -0.8020 C   0  0  0  0  0  0  0  0  0  0  0  0
   11.5230    0.6700   -2.0330 O   0  0  0  0  0  0  0  0  0  0  0  0
   11.9840    0.9170    0.2610 C   0  0  2  0  0  0  0  0  0  0  0  0
   11.8810    0.2740    1.6010 C   0  0  0  0  0  0  0  0  0  0  0  0
   11.5710    1.7230    1.4720 C   0  0  0  0  0  0  0  0  0  0  0  0
    7.4660    1.3900   -2.0000 S   0  0  0  0  0  0  0  0  0  0  0  0
    0.5410   -0.7250   -0.3340 C   0  0  0  0  0  0  0  0  0  0  0  0
   -8.3940    0.7680    1.5830 N   0  0  0  0  0  0  0  0  0  0  0  0
   -9.2930   -0.4000    1.5990 C   0  0  2  0  0  0  0  0  0  0  0  0
  -10.2560   -0.3950    0.4110 C   0  0  0  0  0  0  0  0  0  0  0  0
  -11.4740    0.1660    0.6840 O   0  0  0  0  0  0  0  0  0  0  0  0
  -12.3100   -0.8290    1.1980 C   0  0  0  0  0  0  0  0  0  0  0  0
  -11.5430   -1.4050    2.7660 S   0  0  0  0  0  0  0  0  0  0  0  0
   -9.9800   -0.4490    2.9220 C   0  0  0  0  0  0  0  0  0  0  0  0
  1  2  2  0
  2  3  1  0
  2 32  1  0
  3  4  1  0
  4  5  1  0
  5  6  2  0
  5  7  1  0
  7  8  2  0
  7  9  1  0
  9 10  1  0
 10 11  2  0
 10 31  1  0
 11 12  1  0
 12 13  1  0
 13 14  2  0
 13 15  1  0
 15 16  1  0
 15 31  2  0
 16 17  1  0
 17 18  2  0
 17 19  1  0
 19 20  1  0
 20 21  2  0
 20 30  1  0
 21 22  1  0
 22 23  1  0
 23 24  1  1
 23 30  1  0
 24 25  1  0
 25 26  2  0
 27 25  1  6
 27 28  1  0
 27 29  1  0
 28 29  1  0
 33 32  1  1
 33 34  1  0
 33 38  1  0
 34 35  1  0
 35 36  1  0
 36 37  1  0
 37 38  1  0
M  END
