
     RDKit          3D

 38 41  0  0  0  0  0  0  0  0999 V2000
   -8.4740    1.2740    0.1220 C   0  0  0  0  0  0  0  0  0  0  0  0
   -7.8620    0.5250   -1.0430 C   0  0  0  0  0  0  0  0  0  0  0  0
   -6.7660   -0.3940   -0.5380 C   0  0  1  0  0  0  0  0  0  0  0  0
   -7.3050   -1.3830    0.4360 C   0  0  0  0  0  0  0  0  0  0  0  0
   -6.9340   -1.5650    1.6890 C   0  0  0  0  0  0  0  0  0  0  0  0
   -7.7340   -2.6460    2.2720 C   0  0  0  0  0  0  0  0  0  0  0  0
   -7.5520   -3.2840    3.3400 O   0  0  0  0  0  0  0  0  0  0  0  0
   -8.8460   -2.8380    1.3030 C   0  0  0  0  0  0  0  0  0  0  0  0
   -8.3150   -2.2860    0.1390 O   0  0  0  0  0  0  0  0  0  0  0  0
   -6.1870   -1.0510   -1.6850 N   0  0  0  0  0  0  0  0  0  0  0  0
   -5.2770   -0.0530   -2.1850 C   0  0  2  0  0  0  0  0  0  0  0  0
   -3.9860   -0.7820   -3.2330 S   0  0  0  0  0  0  0  0  0  0  0  0
   -2.6890    0.4820   -3.3370 C   0  0  0  0  0  0  0  0  0  0  0  0
   -2.2500    0.8400   -1.9450 C   0  0  2  0  0  0  0  0  0  0  0  0
   -1.3820   -0.2420   -1.4950 N   0  0  0  0  0  0  0  0  0  0  0  0
   -0.0060   -0.0310   -1.1510 C   0  0  0  0  0  0  0  0  0  0  0  0
    0.4620    1.1140   -1.2430 O   0  0  0  0  0  0  0  0  0  0  0  0
    0.8270   -1.0930   -0.7140 N   0  0  0  0  0  0  0  0  0  0  0  0
    2.2120   -0.8750   -0.3700 C   0  0  0  0  0  0  0  0  0  0  0  0
    3.1470   -1.4350    0.0010 N   0  0  0  0  0  0  0  0  0  0  0  0
    4.3330   -0.8900    0.2210 N   0  0  0  0  0  0  0  0  0  0  0  0
    4.5840    0.2090    0.0730 C   0  0  0  0  0  0  0  0  0  0  0  0
    5.6810    1.1860    0.1840 N   0  0  0  0  0  0  0  0  0  0  0  0
    6.9400    0.7570    0.6210 C   0  0  0  0  0  0  0  0  0  0  0  0
    7.0610   -0.4810    0.9040 O   0  0  0  0  0  0  0  0  0  0  0  0
    8.0620    1.6140    0.7630 N   0  0  0  0  0  0  0  0  0  0  0  0
    9.2940    1.0460    1.2210 C   0  0  1  0  0  0  0  0  0  0  0  0
   10.3820    2.0980    1.3140 C   0  0  0  0  0  0  0  0  0  0  0  0
    9.0490    0.5350    2.6430 C   0  0  0  0  0  0  0  0  0  0  0  0
    9.7810   -0.0560    0.3770 C   0  0  0  0  0  0  0  0  0  0  0  0
   10.9940   -0.6910    0.7420 N   0  0  0  0  0  0  0  0  0  0  0  0
    9.1810   -0.4720   -0.6590 O   0  0  0  0  0  0  0  0  0  0  0  0
    2.9190    0.8760   -0.5220 S   0  0  0  0  0  0  0  0  0  0  0  0
   -3.3060    0.9820   -0.9600 C   0  0  0  0  0  0  0  0  0  0  0  0
   -2.9970    1.6380    0.0960 O   0  0  0  0  0  0  0  0  0  0  0  0
   -4.6320    0.4930   -1.0100 N   0  0  0  0  0  0  0  0  0  0  0  0
   -5.6590    0.3960   -0.0060 C   0  0  0  0  0  0  0  0  0  0  0  0
   -5.6060    0.9090    1.1420 O   0  0  0  0  0  0  0  0  0  0  0  0
  1  2  1  0
  3  2  1  6
  3  4  1  0
  3 10  1  0
  3 37  1  0
  4  5  2  0
  4  9  1  0
  5  6  1  0
  6  7  2  0
  6  8  1  0
  8  9  1  0
 11 10  1  1
 11 12  1  0
 11 36  1  0
 12 13  1  0
 13 14  1  0
 14 15  1  1
 14 34  1  0
 15 16  1  0
 16 17  2  0
 16 18  1  0
 18 19  1  0
 19 20  2  0
 19 33  1  0
 20 21  1  0
 21 22  2  0
 22 23  1  0
 22 33  1  0
 23 24  1  0
 24 25  2  0
 24 26  1  0
 26 27  1  0
 27 28  1  1
 27 29  1  0
 27 30  1  0
 30 31  1  0
 30 32  2  0
 34 35  2  0
 34 36  1  0
 36 37  1  0
 37 38  2  0
M  END
