
     RDKit          3D

 38 40  0  0  0  0  0  0  0  0999 V2000
   -5.7010    3.4890   -3.2710 C   0  0  0  0  0  0  0  0  0  0  0  0
   -5.7100    3.3300   -1.7790 C   0  0  1  0  0  0  0  0  0  0  0  0
   -6.7270    2.2330   -1.4370 C   0  0  0  0  0  0  0  0  0  0  0  0
   -6.0070    0.9070   -1.6360 C   0  0  0  0  0  0  0  0  0  0  0  0
   -5.3190    0.4980   -0.3600 C   0  0  0  0  0  0  0  0  0  0  0  0
   -4.4490    1.5960    0.2000 C   0  0  1  0  0  0  0  0  0  0  0  0
   -3.1600    1.0020    0.7900 C   0  0  2  0  0  0  0  0  0  0  0  0
   -3.6180    0.0260    1.8270 C   0  0  0  0  0  0  0  0  0  0  0  0
   -2.6070   -1.0650    2.1360 C   0  0  0  0  0  0  0  0  0  0  0  0
   -1.5860   -0.5490    3.0620 C   0  0  0  0  0  0  0  0  0  0  0  0
   -1.9710    0.5690    3.6280 O   0  0  0  0  0  0  0  0  0  0  0  0
   -0.3430   -1.0310    3.4220 N   0  0  0  0  0  0  0  0  0  0  0  0
    0.6280   -1.6250    2.7460 N   0  0  0  0  0  0  0  0  0  0  0  0
    1.1250   -1.5260    1.6300 C   0  0  0  0  0  0  0  0  0  0  0  0
    2.2320   -2.4700    1.4540 N   0  0  0  0  0  0  0  0  0  0  0  0
    3.4450   -1.9040    1.0410 C   0  0  0  0  0  0  0  0  0  0  0  0
    3.3030   -0.5910    1.0020 O   0  0  0  0  0  0  0  0  0  0  0  0
    4.6540   -2.6020    0.7330 C   0  0  0  0  0  0  0  0  0  0  0  0
    5.7310   -1.6570    0.3170 C   0  0  1  0  0  0  0  0  0  0  0  0
    6.9350   -2.5750    0.2420 C   0  0  0  0  0  0  0  0  0  0  0  0
    7.3410   -3.2510    1.4020 N   0  0  0  0  0  0  0  0  0  0  0  0
    7.5210   -2.7030   -0.8310 O   0  0  0  0  0  0  0  0  0  0  0  0
    5.6260   -1.0510   -1.0580 C   0  0  2  0  0  0  0  0  0  0  0  0
    6.6690   -0.1360   -1.2240 O   0  0  0  0  0  0  0  0  0  0  0  0
    6.4990    1.1090   -1.7510 C   0  0  0  0  0  0  0  0  0  0  0  0
    7.4640    1.9540   -1.8150 O   0  0  0  0  0  0  0  0  0  0  0  0
    5.2130    1.4770   -2.2440 N   0  0  0  0  0  0  0  0  0  0  0  0
    4.2220    0.5150   -2.1290 N   0  0  0  0  0  0  0  0  0  0  0  0
    4.3710   -0.6530   -1.6040 C   0  0  0  0  0  0  0  0  0  0  0  0
    3.2100   -1.5080   -1.7290 N   0  0  0  0  0  0  0  0  0  0  0  0
    0.3420   -1.0930    0.4390 C   0  0  0  0  0  0  0  0  0  0  0  0
   -0.0630   -2.1940   -0.2120 O   0  0  0  0  0  0  0  0  0  0  0  0
   -0.0330    0.1010   -0.1080 N   0  0  0  0  0  0  0  0  0  0  0  0
    0.1530    1.4190    0.2800 N   0  0  0  0  0  0  0  0  0  0  0  0
   -0.4640    2.1330    1.3340 C   0  0  0  0  0  0  0  0  0  0  0  0
    0.2540    2.6570    2.2530 O   0  0  0  0  0  0  0  0  0  0  0  0
   -2.2440    2.3920    1.5150 S   0  0  0  0  0  0  0  0  0  0  0  0
   -4.0920    2.7570   -1.1320 S   0  0  0  0  0  0  0  0  0  0  0  0
  2  1  1  6
  2  3  1  0
  2 38  1  0
  3  4  1  0
  4  5  1  0
  6  5  1  6
  6  7  1  0
  6 38  1  0
  7  8  1  1
  7 37  1  0
  8  9  1  0
  9 10  1  0
 10 11  2  0
 10 12  1  0
 12 13  1  0
 13 14  2  0
 14 15  1  0
 14 31  1  0
 15 16  1  0
 16 17  2  0
 16 18  1  0
 19 18  1  6
 19 20  1  0
 19 23  1  0
 20 21  1  0
 20 22  2  0
 23 24  1  1
 23 29  1  0
 24 25  1  0
 25 26  2  0
 25 27  1  0
 27 28  1  0
 28 29  2  0
 29 30  1  0
 31 32  2  0
 31 33  1  0
 33 34  1  0
 34 35  1  0
 35 36  2  0
 35 37  1  0
M  END
