
     RDKit          3D

 38 40  0  0  0  0  0  0  0  0999 V2000
    0.0770   -2.0000    2.5350 C   0  0  0  0  0  0  0  0  0  0  0  0
    0.9330   -2.0590    1.2440 C   0  0  0  0  0  0  0  0  0  0  0  0
    2.0400   -2.8810    1.4530 N   0  0  0  0  0  0  0  0  0  0  0  0
    3.0990   -3.3220    0.6930 C   0  0  0  0  0  0  0  0  0  0  0  0
    4.1050   -4.2020    1.2710 N   0  0  0  0  0  0  0  0  0  0  0  0
    3.2580   -3.0180   -0.4670 O   0  0  0  0  0  0  0  0  0  0  0  0
    0.4510   -1.3780    0.2650 C   0  0  0  0  0  0  0  0  0  0  0  0
   -0.7440   -0.5680    0.1490 C   0  0  0  0  0  0  0  0  0  0  0  0
   -0.9150   -0.0270   -1.0460 O   0  0  0  0  0  0  0  0  0  0  0  0
   -1.7670   -0.2230    1.0130 N   0  0  0  0  0  0  0  0  0  0  0  0
   -2.8870    0.6300    0.5930 C   0  0  2  0  0  0  0  0  0  0  0  0
   -2.9550    1.9780    1.2820 C   0  0  2  0  0  0  0  0  0  0  0  0
   -2.5890    3.1520    0.3600 C   0  0  0  0  0  0  0  0  0  0  0  0
   -2.2580    2.1290    2.5790 C   0  0  0  0  0  0  0  0  0  0  0  0
   -4.4460    1.7890    1.2790 C   0  0  2  0  0  0  0  0  0  0  0  0
   -5.2100    2.1660    2.3880 N   0  0  0  0  0  0  0  0  0  0  0  0
   -5.4930    0.7610    3.3490 S   0  0  1  0  0  0  0  0  0  0  0  0
   -5.1890    0.9710    4.7840 O   0  0  0  0  0  0  0  0  0  0  0  0
   -6.8570    0.2460    3.0780 O   0  0  0  0  0  0  0  0  0  0  0  0
   -4.2500   -0.2800    2.5550 C   0  0  0  0  0  0  0  0  0  0  0  0
   -4.2070    0.3140    1.2010 C   0  0  2  0  0  0  0  0  0  0  0  0
   -5.2080   -0.2920    0.2170 C   0  0  0  0  0  0  0  0  0  0  0  0
   -4.7650   -1.5720   -0.3920 C   0  0  0  0  0  0  0  0  0  0  0  0
   -3.5990   -1.5090   -1.1220 O   0  0  0  0  0  0  0  0  0  0  0  0
    1.1990   -1.3210   -0.9970 N   0  0  0  0  0  0  0  0  0  0  0  0
    0.8640   -2.2030   -2.0950 C   0  0  0  0  0  0  0  0  0  0  0  0
    2.2150   -0.3480   -1.1810 C   0  0  0  0  0  0  0  0  0  0  0  0
    2.9210   -0.2060   -2.3070 N   0  0  0  0  0  0  0  0  0  0  0  0
    3.9000    0.7410   -2.4280 C   0  0  0  0  0  0  0  0  0  0  0  0
    4.6720    0.8890   -3.6810 C   0  0  0  0  0  0  0  0  0  0  0  0
    5.8620    1.6780   -3.4200 N   0  0  0  0  0  0  0  0  0  0  0  0
    6.8190    1.8740   -4.8720 S   0  0  0  0  0  0  0  0  0  0  0  0
    8.3370    2.6300   -4.4810 N   0  0  0  0  0  0  0  0  0  0  0  0
    7.0150    0.4800   -5.4690 O   0  0  0  0  0  0  0  0  0  0  0  0
    4.1810    1.5780   -1.3750 C   0  0  0  0  0  0  0  0  0  0  0  0
    3.4480    1.4240   -0.2180 C   0  0  0  0  0  0  0  0  0  0  0  0
    3.7200    2.2030    0.7400 O   0  0  0  0  0  0  0  0  0  0  0  0
    2.5000    0.4760   -0.1630 N   0  0  0  0  0  0  0  0  0  0  0  0
  1  2  1  0
  2  3  1  0
  2  7  2  3
  3  4  1  0
  4  5  1  0
  4  6  2  0
  7  8  1  0
  7 25  1  0
  8  9  2  0
  8 10  1  0
 11 10  1  1
 11 12  1  0
 11 21  1  0
 12 13  1  6
 12 14  1  0
 12 15  1  0
 15 16  1  1
 15 21  1  0
 16 17  1  0
 17 18  2  0
 17 19  2  0
 17 20  1  6
 20 21  1  0
 21 22  1  6
 22 23  1  0
 23 24  1  0
 25 26  1  0
 25 27  1  0
 27 28  2  0
 27 38  1  0
 28 29  1  0
 29 30  1  0
 29 35  2  0
 30 31  1  0
 31 32  1  0
 32 33  1  1
 32 34  2  0
 35 36  1  0
 36 37  2  0
 36 38  1  0
M  END
