
     RDKit          3D

 38 41  0  0  0  0  0  0  0  0999 V2000
    0.3440    0.6740    1.1840 C   0  0  0  0  0  0  0  0  0  0  0  0
    0.8070   -0.6330    0.5580 C   0  0  0  0  0  0  0  0  0  0  0  0
    2.0570   -0.9470    0.4750 N   0  0  0  0  0  0  0  0  0  0  0  0
    2.4820   -2.0430   -0.0490 C   0  0  0  0  0  0  0  0  0  0  0  0
    3.8800   -2.5760   -0.2330 C   0  0  0  0  0  0  0  0  0  0  0  0
    4.7550   -1.5180    0.2960 N   0  0  0  0  0  0  0  0  0  0  0  0
    5.1770   -1.4420    1.6420 C   0  0  0  0  0  0  0  0  0  0  0  0
    4.8750   -2.2570    2.5920 O   0  0  0  0  0  0  0  0  0  0  0  0
    6.0030   -0.2960    1.7700 N   0  0  0  0  0  0  0  0  0  0  0  0
    6.3490    0.1920    0.4330 C   0  0  1  0  0  0  0  0  0  0  0  0
    6.2960    1.6870    0.4700 C   0  0  0  0  0  0  0  0  0  0  0  0
    6.9970    2.3310   -0.6960 C   0  0  2  0  0  0  0  0  0  0  0  0
    6.3780    2.1220   -1.9040 O   0  0  0  0  0  0  0  0  0  0  0  0
    8.4330    1.9420   -0.7280 C   0  0  0  0  0  0  0  0  0  0  0  0
    8.6480    0.5260   -0.4470 N   0  0  0  0  0  0  0  0  0  0  0  0
    9.7830   -0.1750   -0.6630 C   0  0  0  0  0  0  0  0  0  0  0  0
    9.5600   -1.4600   -0.2630 C   0  0  0  0  0  0  0  0  0  0  0  0
    8.2900   -1.5020    0.1880 N   0  0  0  0  0  0  0  0  0  0  0  0
    7.7270   -0.2770    0.0740 C   0  0  0  0  0  0  0  0  0  0  0  0
    5.3160   -0.4270   -0.4040 C   0  0  0  0  0  0  0  0  0  0  0  0
    4.9530   -0.0730   -1.5730 O   0  0  0  0  0  0  0  0  0  0  0  0
    0.9990   -2.8220   -0.5260 S   0  0  0  0  0  0  0  0  0  0  0  0
   -0.1190   -1.5130    0.0630 C   0  0  0  0  0  0  0  0  0  0  0  0
   -1.5460   -1.5930   -0.0620 C   0  0  0  0  0  0  0  0  0  0  0  0
   -2.0810   -2.6320   -0.6190 O   0  0  0  0  0  0  0  0  0  0  0  0
   -2.4850   -0.6380    0.3660 N   0  0  0  0  0  0  0  0  0  0  0  0
   -3.9330   -0.7930    0.1950 C   0  0  0  0  0  0  0  0  0  0  0  0
   -4.3350   -0.8890   -1.2490 C   0  0  2  0  0  0  0  0  0  0  0  0
   -3.9270    0.2800   -1.9010 O   0  0  0  0  0  0  0  0  0  0  0  0
   -5.8420   -1.0120   -1.3640 C   0  0  0  0  0  0  0  0  0  0  0  0
   -6.5070    0.1320   -0.7550 N   0  0  0  0  0  0  0  0  0  0  0  0
   -7.9170    0.2510   -0.7310 C   0  0  0  0  0  0  0  0  0  0  0  0
   -8.5900   -0.6650   -1.2550 O   0  0  0  0  0  0  0  0  0  0  0  0
   -8.5860    1.3520   -0.1440 N   0  0  0  0  0  0  0  0  0  0  0  0
  -10.0330    1.4400   -0.1390 C   0  0  2  0  0  0  0  0  0  0  0  0
  -10.5680    2.9700   -0.9510 S   0  0  0  0  0  0  0  0  0  0  0  0
  -10.5140    1.3930    1.1780 O   0  0  0  0  0  0  0  0  0  0  0  0
  -11.2950    0.2880    1.3790 N   0  0  0  0  0  0  0  0  0  0  0  0
  1  2  1  0
  2  3  1  0
  2 23  2  0
  3  4  2  0
  4  5  1  0
  4 22  1  0
  5  6  1  0
  6  7  1  0
  6 20  1  0
  7  8  2  0
  7  9  1  0
  9 10  1  0
 10 11  1  1
 10 19  1  0
 10 20  1  0
 11 12  1  0
 12 13  1  6
 12 14  1  0
 14 15  1  0
 15 16  1  0
 15 19  1  0
 16 17  2  0
 17 18  1  0
 18 19  2  0
 20 21  2  0
 22 23  1  0
 23 24  1  0
 24 25  2  0
 24 26  1  0
 26 27  1  0
 27 28  1  0
 28 29  1  6
 28 30  1  0
 30 31  1  0
 31 32  1  0
 32 33  2  0
 32 34  1  0
 34 35  1  0
 35 36  1  1
 35 37  1  0
 37 38  1  0
M  CHG  1  38   1
M  END
