
     RDKit          3D

 24 25  0  0  0  0  0  0  0  0999 V2000
   -2.9690    3.4040   -2.2520 C   0  0  0  0  0  0  0  0  0  0  0  0
   -2.4060    3.6610   -0.5630 S   0  0  0  0  0  0  0  0  0  0  0  0
   -2.2120    2.1080    0.3380 C   0  0  0  0  0  0  0  0  0  0  0  0
   -1.1010    1.3030   -0.2620 C   0  0  1  0  0  0  0  0  0  0  0  0
    0.0850    2.0570   -0.1760 O   0  0  0  0  0  0  0  0  0  0  0  0
   -0.8370    0.0260    0.5170 C   0  0  2  0  0  0  0  0  0  0  0  0
    0.2770   -0.7750   -0.0870 C   0  0  1  0  0  0  0  0  0  0  0  0
    1.5770   -0.2350    0.2690 N   0  0  0  0  0  0  0  0  0  0  0  0
    2.4760    0.3500   -0.6350 C   0  0  0  0  0  0  0  0  0  0  0  0
    2.1040    0.3960   -1.8350 O   0  0  0  0  0  0  0  0  0  0  0  0
    3.7070    0.8630   -0.3100 O   0  0  0  0  0  0  0  0  0  0  0  0
    4.5090    1.4250   -1.3310 C   0  0  0  0  0  0  0  0  0  0  0  0
    5.8250    1.9380   -0.7950 C   0  0  2  0  0  0  0  0  0  0  0  0
    6.4820    0.8400   -0.2290 O   0  0  0  0  0  0  0  0  0  0  0  0
    5.5980    2.8930    0.1740 O   0  0  0  0  0  0  0  0  0  0  0  0
    0.1760   -2.2510    0.1030 C   0  0  0  0  0  0  0  0  0  0  0  0
   -0.7130   -2.6740    1.2320 C   0  0  2  0  0  0  0  0  0  0  0  0
   -0.9620   -4.0410    1.1430 O   0  0  0  0  0  0  0  0  0  0  0  0
   -2.1710   -4.2150    0.5150 C   0  0  0  0  0  0  0  0  0  0  0  0
   -2.5170   -2.9600   -0.0410 O   0  0  0  0  0  0  0  0  0  0  0  0
   -2.0870   -2.1200    0.9850 C   0  0  1  0  0  0  0  0  0  0  0  0
   -3.0050   -2.4190    2.1630 C   0  0  0  0  0  0  0  0  0  0  0  0
   -2.1370   -0.6820    0.6730 C   0  0  2  0  0  0  0  0  0  0  0  0
   -2.9080   -0.5550   -0.5110 O   0  0  0  0  0  0  0  0  0  0  0  0
  1  2  1  0
  2  3  1  0
  3  4  1  0
  4  5  1  1
  6  4  1  6
  6  7  1  0
  6 23  1  0
  7  8  1  1
  7 16  1  0
  8  9  1  0
  9 10  2  0
  9 11  1  0
 11 12  1  0
 12 13  1  0
 13 14  1  1
 13 15  1  0
 17 16  1  6
 17 18  1  0
 17 21  1  0
 18 19  1  0
 19 20  1  0
 20 21  1  0
 21 22  1  1
 21 23  1  0
 23 24  1  6
M  END
