
     RDKit          3D

 25 26  0  0  0  0  0  0  0  0999 V2000
    1.6710   -0.4720    1.3160 O   0  0  0  0  0  0  0  0  0  0  0  0
    2.1240   -0.2620    0.1630 C   0  0  0  0  0  0  0  0  0  0  0  0
    1.2440    0.1420   -0.8100 O   0  0  0  0  0  0  0  0  0  0  0  0
   -0.1330    0.3570   -0.7150 C   0  0  0  0  0  0  0  0  0  0  0  0
   -0.9830   -0.8110   -0.3880 C   0  0  1  0  0  0  0  0  0  0  0  0
   -0.6400   -1.3600    0.8260 O   0  0  0  0  0  0  0  0  0  0  0  0
   -2.4260   -0.3140   -0.2310 C   0  0  1  0  0  0  0  0  0  0  0  0
   -2.8790    0.3160   -1.5160 C   0  0  0  0  0  0  0  0  0  0  0  0
   -2.8170   -0.6090   -2.5560 O   0  0  0  0  0  0  0  0  0  0  0  0
   -3.2460   -1.5370    0.1200 C   0  0  0  0  0  0  0  0  0  0  0  0
   -4.7200   -1.2840   -0.1620 C   0  0  1  0  0  0  0  0  0  0  0  0
   -5.4400   -2.3930    0.2950 O   0  0  0  0  0  0  0  0  0  0  0  0
   -5.1620    0.2110    0.8000 S   0  0  0  0  0  0  0  0  0  0  0  0
   -3.6900    0.7400    1.6780 C   0  0  2  0  0  0  0  0  0  0  0  0
   -3.8730    2.0850    2.2010 N   0  0  0  0  0  0  0  0  0  0  0  0
   -4.1120    2.9760    1.2090 O   0  0  0  0  0  0  0  0  0  0  0  0
   -2.4350    0.7170    0.8520 C   0  0  0  0  0  0  0  0  0  0  0  0
    3.5850   -0.4550   -0.1080 C   0  0  2  0  0  0  0  0  0  0  0  0
    4.2630   -0.8620    1.0210 O   0  0  0  0  0  0  0  0  0  0  0  0
    5.5650   -1.1690    0.6630 C   0  0  0  0  0  0  0  0  0  0  0  0
    5.9230   -0.8100   -0.7340 C   0  0  0  0  0  0  0  0  0  0  0  0
    5.4850    0.4190   -1.1570 O   0  0  0  0  0  0  0  0  0  0  0  0
    4.2370    0.7690   -0.6510 C   0  0  2  0  0  0  0  0  0  0  0  0
    4.4490    1.8540    0.3690 C   0  0  0  0  0  0  0  0  0  0  0  0
    3.3050    2.3080    0.9620 O   0  0  0  0  0  0  0  0  0  0  0  0
  1  2  2  0
  2  3  1  0
 18  2  1  1
  3  4  1  0
  4  5  1  0
  5  6  1  1
  5  7  1  0
  7  8  1  6
  7 10  1  0
  7 17  1  0
  8  9  1  0
 10 11  1  0
 11 12  1  1
 11 13  1  0
 13 14  1  0
 14 15  1  6
 14 17  1  0
 15 16  1  0
 18 19  1  0
 18 23  1  0
 19 20  1  0
 20 21  1  0
 21 22  1  0
 22 23  1  0
 23 24  1  1
 24 25  1  0
M  END
