
     RDKit          3D

 25 26  0  0  0  0  0  0  0  0999 V2000
    0.7570    0.9920    1.1310 O   0  0  0  0  0  0  0  0  0  0  0  0
    0.1420    0.6370   -0.2510 S   0  0  1  0  0  0  0  0  0  0  0  0
    0.8450    1.6080   -1.1870 O   0  0  0  0  0  0  0  0  0  0  0  0
    0.7520   -0.9570   -0.5460 N   0  0  0  0  0  0  0  0  0  0  0  0
    1.7350   -0.8160   -1.5920 C   0  0  0  0  0  0  0  0  0  0  0  0
    3.1150   -1.1280   -0.9970 C   0  0  1  0  0  0  0  0  0  0  0  0
    4.0970   -0.0080   -1.4510 C   0  0  0  0  0  0  0  0  0  0  0  0
    4.1230    0.9830   -0.4820 O   0  0  0  0  0  0  0  0  0  0  0  0
    5.2240    0.9030    0.3390 C   0  0  0  0  0  0  0  0  0  0  0  0
    5.3370   -0.3420    1.1450 C   0  0  0  0  0  0  0  0  0  0  0  0
    4.4210   -1.4520    0.7640 C   0  0  0  0  0  0  0  0  0  0  0  0
    3.1470   -1.0580    0.4010 O   0  0  0  0  0  0  0  0  0  0  0  0
   -1.5930    0.8510   -0.2380 C   0  0  2  0  0  0  0  0  0  0  0  0
   -1.9410    1.7030    0.9370 C   0  0  0  0  0  0  0  0  0  0  0  0
   -2.9040    1.1160    1.9190 C   0  0  2  0  0  0  0  0  0  0  0  0
   -2.7470    1.7800    3.1450 O   0  0  0  0  0  0  0  0  0  0  0  0
   -2.6910   -0.3550    2.0810 C   0  0  2  0  0  0  0  0  0  0  0  0
   -1.4270   -0.7100    2.5000 O   0  0  0  0  0  0  0  0  0  0  0  0
   -3.0260   -0.9970    0.7700 C   0  0  0  0  0  0  0  0  0  0  0  0
   -2.3410   -0.4030   -0.4170 C   0  0  2  0  0  0  0  0  0  0  0  0
   -1.4330   -1.3910   -0.8540 O   0  0  0  0  0  0  0  0  0  0  0  0
   -3.3640   -0.3770   -1.5500 C   0  0  2  0  0  0  0  0  0  0  0  0
   -2.7490   -0.4590   -2.7870 O   0  0  0  0  0  0  0  0  0  0  0  0
   -4.2620    0.8180   -1.5140 C   0  0  0  0  0  0  0  0  0  0  0  0
   -5.1500    0.8360   -0.4550 O   0  0  0  0  0  0  0  0  0  0  0  0
  1  2  2  0
  2  3  2  0
  2  4  1  6
  2 13  1  0
  4  5  1  0
  6  5  1  6
  6  7  1  0
  6 12  1  0
  7  8  1  0
  8  9  1  0
  9 10  1  0
 10 11  1  0
 11 12  1  0
 13 14  1  1
 13 20  1  0
 14 15  1  0
 15 16  1  1
 15 17  1  0
 17 18  1  6
 17 19  1  0
 19 20  1  0
 20 21  1  6
 20 22  1  0
 22 23  1  6
 22 24  1  0
 24 25  1  0
M  END
