
     RDKit          3D

 25 26  0  0  0  0  0  0  0  0999 V2000
    1.0020    1.2110    2.0040 C   0  0  0  0  0  0  0  0  0  0  0  0
    1.0960    0.6270    0.6040 C   0  0  1  0  0  0  0  0  0  0  0  0
   -0.1930   -0.1050    0.3660 C   0  0  0  0  0  0  0  0  0  0  0  0
   -0.1310   -1.3340    0.1600 O   0  0  0  0  0  0  0  0  0  0  0  0
   -1.4060    0.5650    0.3750 O   0  0  0  0  0  0  0  0  0  0  0  0
   -2.5770   -0.1780    0.1450 C   0  0  0  0  0  0  0  0  0  0  0  0
   -3.7940    0.6420    0.1790 C   0  0  0  0  0  0  0  0  0  0  0  0
   -3.7950    1.8800    0.3910 O   0  0  0  0  0  0  0  0  0  0  0  0
   -5.0170    0.0240   -0.0340 O   0  0  0  0  0  0  0  0  0  0  0  0
   -6.2440    0.6870   -0.0280 C   0  0  1  0  0  0  0  0  0  0  0  0
   -7.0390    0.5570   -1.6450 S   0  0  0  0  0  0  0  0  0  0  0  0
   -7.1580    0.1650    1.0210 C   0  0  0  0  0  0  0  0  0  0  0  0
   -6.7450   -0.8900    1.8740 N   0  0  0  0  0  0  0  0  0  0  0  0
   -8.3010    0.6560    1.1560 O   0  0  0  0  0  0  0  0  0  0  0  0
    1.2350    1.6760   -0.4480 C   0  0  0  0  0  0  0  0  0  0  0  0
    2.6590    1.5020   -0.9670 C   0  0  1  0  0  0  0  0  0  0  0  0
    3.4400    2.4650   -0.3200 O   0  0  0  0  0  0  0  0  0  0  0  0
    2.9800    0.1160   -0.5110 C   0  0  1  0  0  0  0  0  0  0  0  0
    2.7860   -0.8910   -1.6520 C   0  0  0  0  0  0  0  0  0  0  0  0
    3.5600   -2.0640   -1.0390 C   0  0  0  0  0  0  0  0  0  0  0  0
    4.7110   -1.3020   -0.4210 C   0  0  2  0  0  0  0  0  0  0  0  0
    5.1510   -1.9180    0.8890 C   0  0  0  0  0  0  0  0  0  0  0  0
    4.1100   -1.8920    1.8150 O   0  0  0  0  0  0  0  0  0  0  0  0
    4.3290   -0.0040   -0.2530 O   0  0  0  0  0  0  0  0  0  0  0  0
    2.1790   -0.2100    0.5540 O   0  0  0  0  0  0  0  0  0  0  0  0
  2  1  1  1
  2  3  1  0
  2 15  1  0
  2 25  1  0
  3  4  2  0
  3  5  1  0
  5  6  1  0
  6  7  1  0
  7  8  2  0
  7  9  1  0
  9 10  1  0
 10 11  1  6
 10 12  1  0
 12 13  1  0
 12 14  2  0
 15 16  1  0
 16 17  1  1
 16 18  1  0
 18 19  1  6
 18 24  1  0
 18 25  1  0
 19 20  1  0
 20 21  1  0
 21 22  1  1
 21 24  1  0
 22 23  1  0
M  END
