
     RDKit          3D

 24 25  0  0  0  0  0  0  0  0999 V2000
    6.3750   -1.7690    0.8220 C   0  0  0  0  0  0  0  0  0  0  0  0
    6.6340   -1.1290   -0.8580 S   0  0  0  0  0  0  0  0  0  0  0  0
    5.5440    0.3350   -1.0290 C   0  0  0  0  0  0  0  0  0  0  0  0
    4.1220   -0.1220   -0.9810 C   0  0  1  0  0  0  0  0  0  0  0  0
    3.8990   -0.7610    0.2590 O   0  0  0  0  0  0  0  0  0  0  0  0
    3.1740    1.0450   -1.0220 C   0  0  1  0  0  0  0  0  0  0  0  0
    3.4210    1.9690   -2.1880 C   0  0  0  0  0  0  0  0  0  0  0  0
    3.1010    1.4210   -3.4080 O   0  0  0  0  0  0  0  0  0  0  0  0
    1.8190    0.6600   -0.9290 O   0  0  0  0  0  0  0  0  0  0  0  0
    0.9930    1.0190    0.1290 C   0  0  0  0  0  0  0  0  0  0  0  0
    1.5250    1.7220    1.0250 O   0  0  0  0  0  0  0  0  0  0  0  0
   -0.3600    0.6350    0.2220 N   0  0  0  0  0  0  0  0  0  0  0  0
   -1.2390    1.0000    1.3200 C   0  0  0  0  0  0  0  0  0  0  0  0
   -2.5680    0.6520    0.7500 C   0  0  2  0  0  0  0  0  0  0  0  0
   -3.6310    0.1500    1.6260 C   0  0  2  0  0  0  0  0  0  0  0  0
   -3.0900   -0.6760    2.5960 O   0  0  0  0  0  0  0  0  0  0  0  0
   -4.4300   -0.7320    0.6490 C   0  0  1  0  0  0  0  0  0  0  0  0
   -5.4840   -0.0380    0.1030 O   0  0  0  0  0  0  0  0  0  0  0  0
   -6.7040   -0.6870    0.2440 C   0  0  0  0  0  0  0  0  0  0  0  0
   -7.6730    0.1360   -0.3560 O   0  0  0  0  0  0  0  0  0  0  0  0
   -3.4620   -1.0420   -0.5080 C   0  0  0  0  0  0  0  0  0  0  0  0
   -2.1690   -0.6950    0.0900 C   0  0  2  0  0  0  0  0  0  0  0  0
   -1.7420   -1.5440    1.0980 O   0  0  0  0  0  0  0  0  0  0  0  0
   -1.0790   -0.1720   -0.7520 C   0  0  0  0  0  0  0  0  0  0  0  0
  1  2  1  0
  2  3  1  0
  3  4  1  0
  4  5  1  1
  4  6  1  0
  6  7  1  6
  6  9  1  0
  7  8  1  0
  9 10  1  0
 10 11  2  0
 10 12  1  0
 12 13  1  0
 12 24  1  0
 14 13  1  1
 14 15  1  0
 14 22  1  0
 15 16  1  1
 15 17  1  0
 17 18  1  6
 17 21  1  0
 18 19  1  0
 19 20  1  0
 21 22  1  0
 22 23  1  1
 22 24  1  0
M  END
