
     RDKit          3D

 19 21  0  0  0  0  0  0  0  0999 V2000
   -0.9580   -0.7830    1.5290 C   0  0  0  0  0  0  0  0  0  0  0  0
   -2.1130   -0.6370    0.6350 C   0  0  0  0  0  0  0  0  0  0  0  0
   -2.0360   -0.5410   -0.6570 C   0  0  0  0  0  0  0  0  0  0  0  0
   -0.8360   -0.5540   -1.4220 C   0  0  0  0  0  0  0  0  0  0  0  0
   -0.9710   -0.5220   -2.7350 O   0  0  0  0  0  0  0  0  0  0  0  0
    0.5460   -0.5950   -1.0600 C   0  0  0  0  0  0  0  0  0  0  0  0
    1.1210    0.3830   -0.2910 C   0  0  0  0  0  0  0  0  0  0  0  0
    2.4920    0.4100    0.0050 C   0  0  0  0  0  0  0  0  0  0  0  0
    3.2520   -0.5980   -0.5150 C   0  0  0  0  0  0  0  0  0  0  0  0
    2.7070   -1.5870   -1.2860 N   0  0  0  0  0  0  0  0  0  0  0  0
    1.3900   -1.5840   -1.5510 C   0  0  0  0  0  0  0  0  0  0  0  0
    0.9440   -2.5290   -2.2730 O   0  0  0  0  0  0  0  0  0  0  0  0
    4.6620   -0.4510   -0.1250 C   0  0  0  0  0  0  0  0  0  0  0  0
    4.5930    0.5190    1.0620 C   0  0  0  0  0  0  0  0  0  0  0  0
    3.3590    1.3110    0.7780 C   0  0  0  0  0  0  0  0  0  0  0  0
   -3.3980   -0.4070   -1.3160 C   0  0  0  0  0  0  0  0  0  0  0  0
   -4.0020    0.8430   -0.7580 C   0  0  0  0  0  0  0  0  0  0  0  0
   -4.1140    0.7090    0.7430 C   0  0  0  0  0  0  0  0  0  0  0  0
   -3.5180   -0.5860    1.2450 C   0  0  0  0  0  0  0  0  0  0  0  0
  1  2  1  0
  2  3  2  0
  2 19  1  0
  3  4  1  0
  3 16  1  0
  4  5  2  0
  4  6  1  0
  6  7  2  0
  6 11  1  0
  7  8  1  0
  8  9  2  0
  8 15  1  0
  9 10  1  0
  9 13  1  0
 10 11  1  0
 11 12  2  0
 13 14  1  0
 14 15  1  0
 16 17  1  0
 17 18  1  0
 18 19  1  0
M  END
