
     RDKit          3D

 26 28  0  0  0  0  0  0  0  0999 V2000
   -6.8260    1.0750   -3.6630 C   0  0  0  0  0  0  0  0  0  0  0  0
   -5.9590    0.5500   -2.5730 C   0  0  0  0  0  0  0  0  0  0  0  0
   -6.1810   -0.5850   -1.8550 C   0  0  0  0  0  0  0  0  0  0  0  0
   -5.1310   -0.6800   -0.9610 C   0  0  0  0  0  0  0  0  0  0  0  0
   -4.2810    0.3840   -1.1310 C   0  0  0  0  0  0  0  0  0  0  0  0
   -3.0520    0.7470   -0.4520 C   0  0  0  0  0  0  0  0  0  0  0  0
   -2.4650    1.8120   -0.8160 O   0  0  0  0  0  0  0  0  0  0  0  0
   -2.4780    0.0020    0.5720 N   0  0  0  0  0  0  0  0  0  0  0  0
   -2.9150   -1.2200    1.1680 C   0  0  0  0  0  0  0  0  0  0  0  0
   -1.8110   -1.6080    2.1760 C   0  0  0  0  0  0  0  0  0  0  0  0
   -1.3030   -0.2420    2.5810 C   0  0  0  0  0  0  0  0  0  0  0  0
   -1.2230    0.4320    1.2310 C   0  0  1  0  0  0  0  0  0  0  0  0
   -0.0570   -0.0010    0.4530 C   0  0  0  0  0  0  0  0  0  0  0  0
   -0.1090   -0.6540   -0.6240 O   0  0  0  0  0  0  0  0  0  0  0  0
    1.2670    0.3240    0.9190 N   0  0  0  0  0  0  0  0  0  0  0  0
    2.4290   -0.0760    0.1940 C   0  0  0  0  0  0  0  0  0  0  0  0
    3.6930    0.3340    0.8080 C   0  0  0  0  0  0  0  0  0  0  0  0
    3.7840    1.0370    1.9760 C   0  0  0  0  0  0  0  0  0  0  0  0
    5.0060    1.4090    2.5310 C   0  0  0  0  0  0  0  0  0  0  0  0
    5.0940    2.3150    4.0400 Cl  0  0  0  0  0  0  0  0  0  0  0  0
    6.1460    1.0440    1.8630 C   0  0  0  0  0  0  0  0  0  0  0  0
    6.0900    0.3360    0.6830 C   0  0  0  0  0  0  0  0  0  0  0  0
    4.8910   -0.0240    0.1460 C   0  0  0  0  0  0  0  0  0  0  0  0
    4.7700   -0.7890   -1.1270 C   0  0  0  0  0  0  0  0  0  0  0  0
    6.0620   -1.0870   -1.6950 N   0  0  0  0  0  0  0  0  0  0  0  0
   -4.8330    1.1280   -2.1470 N   0  0  0  0  0  0  0  0  0  0  0  0
  1  2  1  0
  2  3  2  0
  2 26  1  0
  3  4  1  0
  4  5  2  0
  5  6  1  0
  5 26  1  0
  6  7  2  0
  6  8  1  0
  8  9  1  0
  8 12  1  0
  9 10  1  0
 10 11  1  0
 11 12  1  0
 12 13  1  6
 13 14  2  0
 13 15  1  0
 15 16  1  0
 16 17  1  0
 17 18  2  0
 17 23  1  0
 18 19  1  0
 19 20  1  0
 19 21  2  0
 21 22  1  0
 22 23  2  0
 23 24  1  0
 24 25  1  0
M  CHG  1  25   1
M  END
