
     RDKit          3D

 20 22  0  0  0  0  0  0  0  0999 V2000
   -6.0500    0.5960   -1.0480 C   0  0  0  0  0  0  0  0  0  0  0  0
   -4.5820    0.4500   -0.7490 C   0  0  0  0  0  0  0  0  0  0  0  0
   -3.6480    0.4060   -1.7660 C   0  0  0  0  0  0  0  0  0  0  0  0
   -2.3000    0.2720   -1.4860 C   0  0  0  0  0  0  0  0  0  0  0  0
   -1.8730    0.1800   -0.1610 C   0  0  0  0  0  0  0  0  0  0  0  0
   -2.7790    0.2210    0.8560 C   0  0  0  0  0  0  0  0  0  0  0  0
   -4.1410    0.3580    0.5410 C   0  0  0  0  0  0  0  0  0  0  0  0
   -2.3740    0.1280    2.2650 C   0  0  0  0  0  0  0  0  0  0  0  0
   -0.9330   -0.0110    2.4360 C   0  0  0  0  0  0  0  0  0  0  0  0
   -0.0770   -0.0490    1.4470 C   0  0  0  0  0  0  0  0  0  0  0  0
    1.3730   -0.1900    1.6700 C   0  0  0  0  0  0  0  0  0  0  0  0
    2.2130   -0.2260    0.6710 C   0  0  0  0  0  0  0  0  0  0  0  0
    3.6470   -0.3650    0.8820 C   0  0  0  0  0  0  0  0  0  0  0  0
    4.0480   -0.4500    2.0700 O   0  0  0  0  0  0  0  0  0  0  0  0
    4.6020   -0.4080   -0.2200 C   0  0  0  0  0  0  0  0  0  0  0  0
    4.3520   -0.3310   -1.5730 C   0  0  0  0  0  0  0  0  0  0  0  0
    5.5750   -0.4160   -2.2110 C   0  0  0  0  0  0  0  0  0  0  0  0
    6.5470   -0.5410   -1.3010 N   0  0  0  0  0  0  0  0  0  0  0  0
    5.9520   -0.5360   -0.0940 C   0  0  0  0  0  0  0  0  0  0  0  0
   -0.5280    0.0450    0.1450 O   0  0  0  0  0  0  0  0  0  0  0  0
  1  2  1  0
  2  3  2  0
  2  7  1  0
  3  4  1  0
  4  5  2  0
  5  6  1  0
  5 20  1  0
  6  7  2  0
  6  8  1  0
  8  9  1  0
  9 10  2  0
 10 11  1  0
 10 20  1  0
 11 12  2  3
 12 13  1  0
 13 14  2  0
 13 15  1  0
 15 16  1  0
 15 19  2  0
 16 17  2  0
 17 18  1  0
 18 19  1  0
M  END
