
     RDKit          3D

 20 22  0  0  0  0  0  0  0  0999 V2000
    6.2530    0.5880   -0.3510 C   0  0  0  0  0  0  0  0  0  0  0  0
    4.8880    0.0810   -0.0040 C   0  0  0  0  0  0  0  0  0  0  0  0
    4.6970   -1.1680    0.5470 C   0  0  0  0  0  0  0  0  0  0  0  0
    3.4300   -1.6270    0.8680 C   0  0  0  0  0  0  0  0  0  0  0  0
    2.3020   -0.8600    0.6530 C   0  0  0  0  0  0  0  0  0  0  0  0
    0.9720   -1.3370    0.9960 C   0  0  0  0  0  0  0  0  0  0  0  0
    0.8780   -2.1940    1.9100 O   0  0  0  0  0  0  0  0  0  0  0  0
   -0.2460   -0.8740    0.3370 C   0  0  0  0  0  0  0  0  0  0  0  0
   -1.2660   -0.3070    1.0920 C   0  0  0  0  0  0  0  0  0  0  0  0
   -2.4310    0.1440    0.4920 C   0  0  0  0  0  0  0  0  0  0  0  0
   -2.5920    0.0340   -0.8710 C   0  0  0  0  0  0  0  0  0  0  0  0
   -1.6030   -0.5100   -1.5730 N   0  0  0  0  0  0  0  0  0  0  0  0
   -0.4550   -0.9590   -1.0130 C   0  0  0  0  0  0  0  0  0  0  0  0
    0.4540   -1.4690   -1.7220 O   0  0  0  0  0  0  0  0  0  0  0  0
   -3.8090    0.4920   -1.5750 C   0  0  0  0  0  0  0  0  0  0  0  0
   -4.8480    1.0760   -0.6800 C   0  0  0  0  0  0  0  0  0  0  0  0
   -4.8060    0.5100    0.7240 C   0  0  0  0  0  0  0  0  0  0  0  0
   -3.4750    0.7430    1.3620 C   0  0  0  0  0  0  0  0  0  0  0  0
    2.5010    0.3880    0.1000 C   0  0  0  0  0  0  0  0  0  0  0  0
    3.7640    0.8500   -0.2210 C   0  0  0  0  0  0  0  0  0  0  0  0
  1  2  1  0
  2  3  2  0
  2 20  1  0
  3  4  1  0
  4  5  2  0
  5  6  1  0
  5 19  1  0
  6  7  2  0
  6  8  1  0
  8  9  2  0
  8 13  1  0
  9 10  1  0
 10 11  2  0
 10 18  1  0
 11 12  1  0
 11 15  1  0
 12 13  1  0
 13 14  2  0
 15 16  1  0
 16 17  1  0
 17 18  1  0
 19 20  2  0
M  END
