
     RDKit          3D

 20 22  0  0  0  0  0  0  0  0999 V2000
    2.7070    3.0110   -0.4250 C   0  0  0  0  0  0  0  0  0  0  0  0
    2.2560    2.2440   -1.5370 O   0  0  0  0  0  0  0  0  0  0  0  0
    2.2300    0.8710   -1.5020 C   0  0  0  0  0  0  0  0  0  0  0  0
    1.9570    0.3100   -0.3660 N   0  0  0  0  0  0  0  0  0  0  0  0
    1.9040   -1.1030   -0.2150 C   0  0  0  0  0  0  0  0  0  0  0  0
    2.9560   -1.8330   -0.7150 C   0  0  0  0  0  0  0  0  0  0  0  0
    3.0210   -3.1900   -0.6160 C   0  0  0  0  0  0  0  0  0  0  0  0
    1.9970   -3.8570    0.0080 C   0  0  0  0  0  0  0  0  0  0  0  0
    0.9400   -3.1470    0.5130 C   0  0  0  0  0  0  0  0  0  0  0  0
    0.8650   -1.7530    0.4140 C   0  0  0  0  0  0  0  0  0  0  0  0
   -0.2090   -1.0550    0.9310 O   0  0  0  0  0  0  0  0  0  0  0  0
   -1.0940   -0.2890    0.1930 C   0  0  0  0  0  0  0  0  0  0  0  0
   -0.9800   -0.2020   -1.1760 C   0  0  0  0  0  0  0  0  0  0  0  0
   -1.8730    0.5740   -1.9260 C   0  0  0  0  0  0  0  0  0  0  0  0
   -2.8620    1.2400   -1.2370 C   0  0  0  0  0  0  0  0  0  0  0  0
   -2.9950    1.1620    0.1580 C   0  0  0  0  0  0  0  0  0  0  0  0
   -2.1080    0.3950    0.8790 C   0  0  0  0  0  0  0  0  0  0  0  0
   -2.3890    0.4440    2.1680 C   0  0  0  0  0  0  0  0  0  0  0  0
   -3.5680    1.3200    2.3350 C   0  0  0  0  0  0  0  0  0  0  0  0
   -3.8820    1.7360    0.9540 C   0  0  0  0  0  0  0  0  0  0  0  0
  1  2  1  0
  2  3  1  0
  3  4  2  3
  4  5  1  0
  5  6  2  0
  5 10  1  0
  6  7  1  0
  7  8  2  0
  8  9  1  0
  9 10  2  0
 10 11  1  0
 11 12  1  0
 12 13  2  0
 12 17  1  0
 13 14  1  0
 14 15  2  0
 15 16  1  0
 16 17  1  0
 16 20  2  0
 17 18  2  0
 18 19  1  0
 19 20  1  0
M  END
