
     RDKit          3D

 20 22  0  0  0  0  0  0  0  0999 V2000
    5.6540    0.2650    0.4230 C   0  0  0  0  0  0  0  0  0  0  0  0
    4.5800    1.1710    0.4240 O   0  0  0  0  0  0  0  0  0  0  0  0
    3.2970    0.7110    0.3290 C   0  0  0  0  0  0  0  0  0  0  0  0
    3.0630   -0.6410    0.2330 C   0  0  0  0  0  0  0  0  0  0  0  0
    1.7680   -1.1280    0.1350 C   0  0  0  0  0  0  0  0  0  0  0  0
    1.4610   -2.5670    0.0300 C   0  0  0  0  0  0  0  0  0  0  0  0
    0.7150   -0.2360    0.1360 C   0  0  0  0  0  0  0  0  0  0  0  0
    0.8950    1.1210    0.2290 C   0  0  0  0  0  0  0  0  0  0  0  0
    2.2200    1.5690    0.3260 C   0  0  0  0  0  0  0  0  0  0  0  0
   -0.1920    2.1100    0.2150 C   0  0  0  0  0  0  0  0  0  0  0  0
   -1.5080    1.4620    0.1950 C   0  0  0  0  0  0  0  0  0  0  0  0
   -2.5090    2.3650    0.3140 C   0  0  0  0  0  0  0  0  0  0  0  0
   -3.9480    2.1760    0.3420 C   0  0  0  0  0  0  0  0  0  0  0  0
   -4.6960    3.1760    0.2020 O   0  0  0  0  0  0  0  0  0  0  0  0
   -4.6430    0.9270    0.5190 N   0  0  0  0  0  0  0  0  0  0  0  0
   -4.1650   -0.3530    0.1700 C   0  0  0  0  0  0  0  0  0  0  0  0
   -2.9270   -0.7810   -0.0330 C   0  0  0  0  0  0  0  0  0  0  0  0
   -2.7830   -2.2250   -0.3960 C   0  0  0  0  0  0  0  0  0  0  0  0
   -1.7120    0.0290    0.0680 C   0  0  0  0  0  0  0  0  0  0  0  0
   -0.6640   -0.7730    0.0520 C   0  0  0  0  0  0  0  0  0  0  0  0
  1  2  1  0
  2  3  1  0
  3  4  2  0
  3  9  1  0
  4  5  1  0
  5  6  1  0
  5  7  2  0
  7  8  1  0
  7 20  1  0
  8  9  2  0
  8 10  1  0
 10 11  1  0
 11 12  2  0
 11 19  1  0
 12 13  1  0
 13 14  2  0
 13 15  1  0
 15 16  1  0
 16 17  2  0
 17 18  1  0
 17 19  1  0
 19 20  2  0
M  END
