
     RDKit          3D

 19 21  0  0  0  0  0  0  0  0999 V2000
   -4.2530    0.7230   -0.9710 C   0  0  0  0  0  0  0  0  0  0  0  0
   -4.1220   -0.0180    0.3310 C   0  0  2  0  0  0  0  0  0  0  0  0
   -5.4470   -0.6380    0.7290 C   0  0  0  0  0  0  0  0  0  0  0  0
   -3.6550    0.9480    1.3910 C   0  0  0  0  0  0  0  0  0  0  0  0
   -2.2900    0.8540    1.6640 O   0  0  0  0  0  0  0  0  0  0  0  0
   -1.3650    0.1670    0.8990 C   0  0  0  0  0  0  0  0  0  0  0  0
   -0.0380    0.4710    0.8770 C   0  0  0  0  0  0  0  0  0  0  0  0
    0.8400   -0.2560    0.0880 C   0  0  0  0  0  0  0  0  0  0  0  0
    2.2400    0.1150    0.1060 C   0  0  0  0  0  0  0  0  0  0  0  0
    3.1760   -0.4820   -0.5860 C   0  0  0  0  0  0  0  0  0  0  0  0
    4.5510   -0.0500   -0.5120 C   0  0  0  0  0  0  0  0  0  0  0  0
    5.0800    0.9940    0.2490 C   0  0  0  0  0  0  0  0  0  0  0  0
    6.4200    1.0390    0.0080 C   0  0  0  0  0  0  0  0  0  0  0  0
    6.7600    0.0780   -0.8650 N   0  0  0  0  0  0  0  0  0  0  0  0
    5.6420   -0.5860   -1.1870 C   0  0  0  0  0  0  0  0  0  0  0  0
    0.3720   -1.2880   -0.6750 C   0  0  0  0  0  0  0  0  0  0  0  0
   -0.9960   -1.6040   -0.6550 C   0  0  0  0  0  0  0  0  0  0  0  0
   -1.8370   -0.8740    0.1280 C   0  0  0  0  0  0  0  0  0  0  0  0
   -3.2100   -1.1220    0.2070 O   0  0  0  0  0  0  0  0  0  0  0  0
  2  1  1  6
  2  3  1  0
  2  4  1  0
  2 19  1  0
  4  5  1  0
  5  6  1  0
  6  7  2  0
  6 18  1  0
  7  8  1  0
  8  9  1  0
  8 16  2  0
  9 10  2  3
 10 11  1  0
 11 12  1  0
 11 15  2  0
 12 13  2  0
 13 14  1  0
 14 15  1  0
 16 17  1  0
 17 18  2  0
 18 19  1  0
M  END
