
     RDKit          3D

 20 22  0  0  0  0  0  0  0  0999 V2000
    5.3180    0.1370   -0.9020 N   0  0  0  0  0  0  0  0  0  0  0  0
    3.9370    0.1030   -0.6630 C   0  0  0  0  0  0  0  0  0  0  0  0
    3.0710    0.0120   -1.7290 C   0  0  0  0  0  0  0  0  0  0  0  0
    1.7530   -0.0190   -1.4840 N   0  0  0  0  0  0  0  0  0  0  0  0
    1.2030    0.0330   -0.2560 C   0  0  0  0  0  0  0  0  0  0  0  0
   -0.2360   -0.0030   -0.0320 C   0  0  0  0  0  0  0  0  0  0  0  0
   -0.6880    0.0570    1.2670 C   0  0  0  0  0  0  0  0  0  0  0  0
   -2.0410    0.0250    1.5250 C   0  0  0  0  0  0  0  0  0  0  0  0
   -2.9140   -0.0660    0.4620 C   0  0  0  0  0  0  0  0  0  0  0  0
   -4.2830   -0.1030    0.6460 C   0  0  0  0  0  0  0  0  0  0  0  0
   -4.9680   -0.0220    2.4420 Br  0  0  0  0  0  0  0  0  0  0  0  0
   -5.1640   -0.1940   -0.4030 C   0  0  0  0  0  0  0  0  0  0  0  0
   -4.6840   -0.2520   -1.6910 C   0  0  0  0  0  0  0  0  0  0  0  0
   -5.9130   -0.3780   -3.1450 Br  0  0  0  0  0  0  0  0  0  0  0  0
   -3.3260   -0.2180   -1.9050 C   0  0  0  0  0  0  0  0  0  0  0  0
   -2.4550   -0.1270   -0.8500 C   0  0  0  0  0  0  0  0  0  0  0  0
   -1.1050   -0.0920   -1.0510 N   0  0  0  0  0  0  0  0  0  0  0  0
    2.0800    0.1230    0.7720 N   0  0  0  0  0  0  0  0  0  0  0  0
    3.3970    0.1580    0.6010 C   0  0  0  0  0  0  0  0  0  0  0  0
    4.2740    0.2520    1.7080 N   0  0  0  0  0  0  0  0  0  0  0  0
  1  2  1  0
  2  3  2  0
  2 19  1  0
  3  4  1  0
  4  5  2  0
  5  6  1  0
  5 18  1  0
  6  7  2  0
  6 17  1  0
  7  8  1  0
  8  9  2  0
  9 10  1  0
  9 16  1  0
 10 11  1  0
 10 12  2  0
 12 13  1  0
 13 14  1  0
 13 15  2  0
 15 16  1  0
 16 17  2  0
 18 19  2  0
 19 20  1  0
M  END
