
     RDKit          3D

 12 12  0  0  0  0  0  0  0  0999 V2000
   -2.0880    2.3320   -0.3930 O   0  0  0  0  0  0  0  0  0  0  0  0
   -1.8270    1.1310   -0.1390 C   0  0  0  0  0  0  0  0  0  0  0  0
   -0.5950    0.6150   -0.2830 N   0  0  0  0  0  0  0  0  0  0  0  0
   -0.2740   -0.6640   -0.0240 C   0  0  0  0  0  0  0  0  0  0  0  0
    1.4040   -1.2200   -0.2720 S   0  0  0  0  0  0  0  0  0  0  0  0
    2.4240    0.1460   -0.8760 C   0  0  0  0  0  0  0  0  0  0  0  0
    2.5850    1.3740    0.4550 S   0  0  0  0  0  0  0  0  0  0  0  0
    3.5210    0.7010    1.7490 O   0  0  0  0  0  0  0  0  0  0  0  0
   -1.2680   -1.4510    0.4050 N   0  0  0  0  0  0  0  0  0  0  0  0
   -2.5130   -0.9860    0.5650 C   0  0  0  0  0  0  0  0  0  0  0  0
   -3.4320   -1.7470    0.9700 O   0  0  0  0  0  0  0  0  0  0  0  0
   -2.7970    0.2790    0.3010 N   0  0  0  0  0  0  0  0  0  0  0  0
  1  2  2  0
  2  3  1  0
  2 12  1  0
  3  4  2  0
  4  5  1  0
  4  9  1  0
  5  6  1  0
  6  7  1  0
  7  8  1  0
  9 10  1  0
 10 11  2  0
 10 12  1  0
M  END
