
     RDKit          3D

 13 13  0  0  0  0  0  0  0  0999 V2000
    2.1300   -1.9170    1.0960 O   0  0  0  0  0  0  0  0  0  0  0  0
    2.4460   -0.8340    0.6080 C   0  0  0  0  0  0  0  0  0  0  0  0
    4.2110   -0.4110    0.4040 S   0  0  0  0  0  0  0  0  0  0  0  0
    1.5030    0.1070    0.1940 N   0  0  0  0  0  0  0  0  0  0  0  0
    0.1260    0.0420    0.2180 N   0  0  0  0  0  0  0  0  0  0  0  0
   -0.5520    1.2050   -0.0910 C   0  0  0  0  0  0  0  0  0  0  0  0
    0.1360    2.2460   -0.3480 O   0  0  0  0  0  0  0  0  0  0  0  0
   -1.8760    1.3010   -0.1360 N   0  0  0  0  0  0  0  0  0  0  0  0
   -2.6720    0.2520    0.1210 C   0  0  0  0  0  0  0  0  0  0  0  0
   -3.9260    0.3500    0.0770 O   0  0  0  0  0  0  0  0  0  0  0  0
   -2.0480   -0.8860    0.4220 N   0  0  0  0  0  0  0  0  0  0  0  0
   -0.6730   -0.9880    0.4680 C   0  0  0  0  0  0  0  0  0  0  0  0
   -0.0800   -2.4690    0.8050 S   0  0  0  0  0  0  0  0  0  0  0  0
  1  2  2  0
  2  3  1  0
  2  4  1  0
  4  5  1  0
  5  6  1  0
  5 12  1  0
  6  7  2  0
  6  8  1  0
  8  9  1  0
  9 10  2  0
  9 11  1  0
 11 12  1  0
 12 13  2  0
M  END
