
     RDKit          3D

 12 12  0  0  0  0  0  0  0  0999 V2000
    3.3770   -1.0900    0.1080 O   0  0  0  0  0  0  0  0  0  0  0  0
    2.2310   -0.6030   -0.0180 C   0  0  0  0  0  0  0  0  0  0  0  0
    1.2150   -1.3330   -0.5360 N   0  0  0  0  0  0  0  0  0  0  0  0
   -0.0260   -0.8390   -0.6840 C   0  0  0  0  0  0  0  0  0  0  0  0
   -0.9260   -1.5970   -1.1820 O   0  0  0  0  0  0  0  0  0  0  0  0
   -0.2870    0.4200   -0.3120 N   0  0  0  0  0  0  0  0  0  0  0  0
   -1.6090    0.9580   -0.4750 C   0  0  0  0  0  0  0  0  0  0  0  0
   -2.5690    0.5950    1.0400 S   0  0  0  0  0  0  0  0  0  0  0  0
   -2.7530   -1.1170    1.0750 O   0  0  0  0  0  0  0  0  0  0  0  0
    0.7180    1.1550    0.2060 C   0  0  0  0  0  0  0  0  0  0  0  0
    0.4290    2.6920    0.6680 S   0  0  0  0  0  0  0  0  0  0  0  0
    1.9530    0.6630    0.3540 N   0  0  0  0  0  0  0  0  0  0  0  0
  1  2  2  0
  2  3  1  0
  2 12  1  0
  3  4  1  0
  4  5  2  0
  4  6  1  0
  6  7  1  0
  6 10  1  0
  7  8  1  0
  8  9  1  0
 10 11  2  0
 10 12  1  0
M  END
