
     RDKit          3D

 13 13  0  0  0  0  0  0  0  0999 V2000
   -3.6800   -0.3570    0.5330 O   0  0  0  0  0  0  0  0  0  0  0  0
   -3.2380    0.7470    0.2010 C   0  0  0  0  0  0  0  0  0  0  0  0
   -4.0440    1.8680    0.3540 O   0  0  0  0  0  0  0  0  0  0  0  0
   -1.9210    0.8400   -0.3260 N   0  0  0  0  0  0  0  0  0  0  0  0
   -1.1780   -0.3230   -0.4490 N   0  0  0  0  0  0  0  0  0  0  0  0
    0.1120   -0.3430   -0.3910 C   0  0  0  0  0  0  0  0  0  0  0  0
    1.0520    1.0630   -0.1590 S   0  0  0  0  0  0  0  0  0  0  0  0
    2.7390    0.7060   -0.1290 C   0  0  0  0  0  0  0  0  0  0  0  0
    3.8660    1.8570    0.0780 S   0  0  0  0  0  0  0  0  0  0  0  0
    3.0260   -0.6000   -0.2910 N   0  0  0  0  0  0  0  0  0  0  0  0
    2.1740   -1.5670   -0.4610 N   0  0  0  0  0  0  0  0  0  0  0  0
    0.8490   -1.4970   -0.5130 C   0  0  0  0  0  0  0  0  0  0  0  0
    0.1590   -2.5600   -0.6880 O   0  0  0  0  0  0  0  0  0  0  0  0
  1  2  2  0
  2  3  1  0
  2  4  1  0
  4  5  1  0
  5  6  2  3
  6  7  1  0
  6 12  1  0
  7  8  1  0
  8  9  2  0
  8 10  1  0
 10 11  1  0
 11 12  1  0
 12 13  2  0
M  END
