
     RDKit          3D

 13 13  0  0  0  0  0  0  0  0999 V2000
    3.9020    0.6370   -1.4250 C   0  0  0  0  0  0  0  0  0  0  0  0
    3.1760   -0.4200   -0.1970 S   0  0  2  0  0  0  0  0  0  0  0  0
    4.1180   -0.6350    0.9530 O   0  0  0  0  0  0  0  0  0  0  0  0
    2.7550   -1.7430   -0.7830 O   0  0  0  0  0  0  0  0  0  0  0  0
    1.8140    0.4260    0.4280 N   0  0  0  0  0  0  0  0  0  0  0  0
    0.5450   -0.1530    0.2840 C   0  0  0  0  0  0  0  0  0  0  0  0
    0.3680   -1.2510   -0.2860 O   0  0  0  0  0  0  0  0  0  0  0  0
   -0.6060    0.4730    0.7860 N   0  0  0  0  0  0  0  0  0  0  0  0
   -1.8470   -0.1110    0.5680 C   0  0  0  0  0  0  0  0  0  0  0  0
   -2.7780    0.1660    1.2910 N   0  0  0  0  0  0  0  0  0  0  0  0
   -3.9650   -0.4440    1.0560 N   0  0  0  0  0  0  0  0  0  0  0  0
   -4.3610   -0.2640   -0.3560 C   0  0  0  0  0  0  0  0  0  0  0  0
   -2.6800   -0.8870   -0.8710 S   0  0  0  0  0  0  0  0  0  0  0  0
  2  1  1  6
  2  3  2  0
  2  4  2  0
  2  5  1  0
  5  6  1  0
  6  7  2  0
  6  8  1  0
  8  9  1  0
  9 10  2  0
  9 13  1  0
 10 11  1  0
 11 12  1  0
 12 13  1  0
M  END
