
     RDKit          3D

 13 13  0  0  0  0  0  0  0  0999 V2000
    3.6980    0.0060   -1.3160 N   0  0  0  0  0  0  0  0  0  0  0  0
    2.4390   -0.4380   -0.8480 C   0  0  0  0  0  0  0  0  0  0  0  0
    1.6200   -0.8850   -1.6620 O   0  0  0  0  0  0  0  0  0  0  0  0
    2.1890   -0.3310    0.6230 C   0  0  0  0  0  0  0  0  0  0  0  0
    0.8910   -0.8050    0.9960 N   0  0  0  0  0  0  0  0  0  0  0  0
   -0.3130   -0.2390    0.4930 C   0  0  0  0  0  0  0  0  0  0  0  0
   -0.2170    0.7140   -0.3120 O   0  0  0  0  0  0  0  0  0  0  0  0
   -1.5720   -0.7190    0.8720 O   0  0  0  0  0  0  0  0  0  0  0  0
   -2.7500   -0.1350    0.3520 C   0  0  0  0  0  0  0  0  0  0  0  0
   -2.8040    0.8010   -0.4410 N   0  0  0  0  0  0  0  0  0  0  0  0
   -3.9190    1.3590   -0.9370 N   0  0  0  0  0  0  0  0  0  0  0  0
   -5.3700    0.9510    0.0400 S   0  0  0  0  0  0  0  0  0  0  0  0
   -4.3450   -0.7810    0.8670 S   0  0  0  0  0  0  0  0  0  0  0  0
  1  2  1  0
  2  3  2  0
  2  4  1  0
  4  5  1  0
  5  6  1  0
  6  7  2  0
  6  8  1  0
  8  9  1  0
  9 10  2  0
  9 13  1  0
 10 11  1  0
 11 12  1  0
 12 13  1  0
M  END
