
     RDKit          3D

 12 12  0  0  0  0  0  0  0  0999 V2000
   -3.2720   -0.6970   -0.0900 N   0  0  0  0  0  0  0  0  0  0  0  0
   -2.5690    0.0680    0.7240 O   0  0  0  0  0  0  0  0  0  0  0  0
   -2.1110    1.2590    0.2000 C   0  0  0  0  0  0  0  0  0  0  0  0
   -1.0210    0.9650   -1.2210 S   0  0  0  0  0  0  0  0  0  0  0  0
    0.4640    0.1580   -0.6400 C   0  0  0  0  0  0  0  0  0  0  0  0
    0.5920   -1.1770   -0.5540 N   0  0  0  0  0  0  0  0  0  0  0  0
    1.7420   -1.7080   -0.1070 N   0  0  0  0  0  0  0  0  0  0  0  0
    2.7730   -0.9020    0.2580 C   0  0  0  0  0  0  0  0  0  0  0  0
    4.1680   -1.5610    0.8010 S   0  0  0  0  0  0  0  0  0  0  0  0
    2.6440    0.4410    0.1710 N   0  0  0  0  0  0  0  0  0  0  0  0
    1.5110    1.0080   -0.2710 C   0  0  0  0  0  0  0  0  0  0  0  0
    1.4380    2.2590   -0.3350 O   0  0  0  0  0  0  0  0  0  0  0  0
  1  2  1  0
  2  3  1  0
  3  4  1  0
  4  5  1  0
  5  6  2  0
  5 11  1  0
  6  7  1  0
  7  8  1  0
  8  9  2  0
  8 10  1  0
 10 11  1  0
 11 12  2  0
M  END
