
     RDKit          3D

 13 13  0  0  0  0  0  0  0  0999 V2000
    4.0760    0.7330   -0.3480 C   0  0  0  0  0  0  0  0  0  0  0  0
    2.6120    0.4930   -0.4070 C   0  0  0  0  0  0  0  0  0  0  0  0
    1.8290    1.4690   -0.5130 O   0  0  0  0  0  0  0  0  0  0  0  0
    2.0920   -0.8230   -0.3440 N   0  0  0  0  0  0  0  0  0  0  0  0
    0.6950   -1.0940   -0.3960 C   0  0  0  0  0  0  0  0  0  0  0  0
   -0.1080   -1.9850   -0.3770 N   0  0  0  0  0  0  0  0  0  0  0  0
   -1.3890   -1.8270   -0.4520 N   0  0  0  0  0  0  0  0  0  0  0  0
   -1.9800   -0.8220   -0.5510 C   0  0  0  0  0  0  0  0  0  0  0  0
   -3.4940    0.0040   -0.6740 S   0  0  1  0  0  0  0  0  0  0  0  0
   -4.0080    0.4130    0.9210 N   0  0  0  0  0  0  0  0  0  0  0  0
   -3.3990    1.2490   -1.4950 O   0  0  0  0  0  0  0  0  0  0  0  0
   -4.4740   -0.9760   -1.3070 O   0  0  0  0  0  0  0  0  0  0  0  0
   -0.5000    0.3670   -0.5560 S   0  0  0  0  0  0  0  0  0  0  0  0
  1  2  1  0
  2  3  2  0
  2  4  1  0
  4  5  1  0
  5  6  2  0
  5 13  1  0
  6  7  1  0
  7  8  2  0
  8  9  1  0
  8 13  1  0
  9 10  1  1
  9 11  2  0
  9 12  2  0
M  END
