
     RDKit          3D

 35 38  0  0  0  0  0  0  0  0999 V2000
   -0.9720    2.1280    3.5820 C   0  0  0  0  0  0  0  0  0  0  0  0
   -1.2610    2.6150    2.2690 O   0  0  0  0  0  0  0  0  0  0  0  0
   -2.1500    1.8520    1.5110 C   0  0  0  0  0  0  0  0  0  0  0  0
   -3.3380    2.4050    1.2240 C   0  0  0  0  0  0  0  0  0  0  0  0
   -4.3330    1.6920    0.4410 C   0  0  0  0  0  0  0  0  0  0  0  0
   -5.5200    2.1470    0.1040 C   0  0  0  0  0  0  0  0  0  0  0  0
   -6.1890    3.3690    0.3550 C   0  0  0  0  0  0  0  0  0  0  0  0
   -5.7070    4.5190    1.0970 C   0  0  0  0  0  0  0  0  0  0  0  0
   -7.3840    3.4820   -0.1370 O   0  0  0  0  0  0  0  0  0  0  0  0
   -3.9360    0.3400   -0.0000 C   0  0  0  0  0  0  0  0  0  0  0  0
   -4.7570   -0.3360   -0.6870 O   0  0  0  0  0  0  0  0  0  0  0  0
   -2.6310   -0.1800    0.3560 C   0  0  0  0  0  0  0  0  0  0  0  0
   -2.3100   -1.5260   -0.0750 C   0  0  0  0  0  0  0  0  0  0  0  0
   -2.4120   -1.8660   -1.4190 C   0  0  0  0  0  0  0  0  0  0  0  0
   -2.1400   -3.1390   -1.8770 C   0  0  0  0  0  0  0  0  0  0  0  0
   -2.2500   -3.4630   -3.2600 N   0  0  0  0  0  0  0  0  0  0  0  0
   -1.7590   -4.0640   -0.9280 C   0  0  0  0  0  0  0  0  0  0  0  0
   -1.6540   -3.7430    0.4090 C   0  0  0  0  0  0  0  0  0  0  0  0
   -1.9330   -2.4460    0.8650 C   0  0  0  0  0  0  0  0  0  0  0  0
   -1.8250   -2.2200    2.3310 C   0  0  0  0  0  0  0  0  0  0  0  0
   -1.7780    0.5240    1.0690 C   0  0  0  0  0  0  0  0  0  0  0  0
   -0.5030    0.0150    1.4090 O   0  0  0  0  0  0  0  0  0  0  0  0
    0.5460    0.2800    0.5020 C   0  0  0  0  0  0  0  0  0  0  0  0
    0.2610    0.9460   -0.5200 O   0  0  0  0  0  0  0  0  0  0  0  0
    1.8480   -0.1740    0.7170 N   0  0  0  0  0  0  0  0  0  0  0  0
    2.9680    0.0410   -0.1250 C   0  0  0  0  0  0  0  0  0  0  0  0
    3.0310    0.9370   -1.1610 C   0  0  0  0  0  0  0  0  0  0  0  0
    4.1730    1.0700   -1.9580 C   0  0  0  0  0  0  0  0  0  0  0  0
    5.3020    0.2920   -1.7300 C   0  0  0  0  0  0  0  0  0  0  0  0
    5.2430   -0.6070   -0.6940 C   0  0  0  0  0  0  0  0  0  0  0  0
    4.1200   -0.7300    0.0820 C   0  0  0  0  0  0  0  0  0  0  0  0
    6.5520   -1.3500   -0.6110 C   0  0  2  0  0  0  0  0  0  0  0  0
    7.0530   -1.3630    0.6880 O   0  0  0  0  0  0  0  0  0  0  0  0
    7.5020   -0.5460   -1.4660 C   0  0  0  0  0  0  0  0  0  0  0  0
    6.6340    0.2330   -2.4200 C   0  0  0  0  0  0  0  0  0  0  0  0
  1  2  1  0
  2  3  1  0
  3  4  2  0
  3 21  1  0
  4  5  1  0
  5  6  2  3
  5 10  1  0
  6  7  1  0
  7  8  1  0
  7  9  2  0
 10 11  2  0
 10 12  1  0
 12 13  1  0
 12 21  2  0
 13 14  2  0
 13 19  1  0
 14 15  1  0
 15 16  1  0
 15 17  2  0
 17 18  1  0
 18 19  2  0
 19 20  1  0
 21 22  1  0
 22 23  1  0
 23 24  2  0
 23 25  1  0
 25 26  1  0
 26 27  2  0
 26 31  1  0
 27 28  1  0
 28 29  2  0
 29 30  1  0
 29 35  1  0
 30 31  2  0
 30 32  1  0
 32 33  1  1
 32 34  1  0
 34 35  1  0
M  END
