
     RDKit          3D

 35 41  0  0  0  0  0  0  0  0999 V2000
   -5.7120   -1.5550    3.5860 C   0  0  0  0  0  0  0  0  0  0  0  0
   -5.1440   -0.1850    3.3040 C   0  0  0  0  0  0  0  0  0  0  0  0
   -4.5440   -0.1230    1.9370 C   0  0  0  0  0  0  0  0  0  0  0  0
   -3.2110   -0.1570    1.7880 N   0  0  0  0  0  0  0  0  0  0  0  0
   -2.6500   -0.1100    0.5640 C   0  0  0  0  0  0  0  0  0  0  0  0
   -3.4550   -0.0230   -0.5590 C   0  0  0  0  0  0  0  0  0  0  0  0
   -4.8420    0.0230   -0.4910 C   0  0  0  0  0  0  0  0  0  0  0  0
   -5.3430   -0.0350    0.8230 C   0  0  0  0  0  0  0  0  0  0  0  0
   -6.8360   -0.0150    0.7340 C   0  0  0  0  0  0  0  0  0  0  0  0
   -7.0490    0.7100   -0.4760 N   0  0  0  0  0  0  0  0  0  0  0  0
   -5.9710    0.1910   -1.3600 C   0  0  0  0  0  0  0  0  0  0  0  0
   -2.7940    0.0470   -1.8600 C   0  0  0  0  0  0  0  0  0  0  0  0
   -3.5360    0.0090   -2.9970 C   0  0  0  0  0  0  0  0  0  0  0  0
   -2.8870   -0.0280   -4.2400 C   0  0  0  0  0  0  0  0  0  0  0  0
   -1.5130   -0.0280   -4.2990 C   0  0  0  0  0  0  0  0  0  0  0  0
   -0.7480    0.0080   -3.1630 C   0  0  0  0  0  0  0  0  0  0  0  0
   -1.3790    0.0470   -1.9390 C   0  0  0  0  0  0  0  0  0  0  0  0
   -0.5120    0.1430   -0.7380 C   0  0  1  0  0  0  0  0  0  0  0  0
   -1.2180   -0.1720    0.4600 N   0  0  0  0  0  0  0  0  0  0  0  0
    0.6490   -0.6480   -0.8460 N   0  0  0  0  0  0  0  0  0  0  0  0
    1.7370   -0.2910    0.0420 C   0  0  0  0  0  0  0  0  0  0  0  0
    2.3880    1.0130   -0.2590 C   0  0  0  0  0  0  0  0  0  0  0  0
    3.4370    1.3230    0.5910 O   0  0  0  0  0  0  0  0  0  0  0  0
    4.6310    0.7060    0.7550 C   0  0  0  0  0  0  0  0  0  0  0  0
    5.0220   -0.3840    0.0210 C   0  0  0  0  0  0  0  0  0  0  0  0
    6.2650   -1.0100    0.2140 C   0  0  0  0  0  0  0  0  0  0  0  0
    7.1280   -0.5410    1.1490 C   0  0  0  0  0  0  0  0  0  0  0  0
    6.7730    0.5620    1.9140 C   0  0  0  0  0  0  0  0  0  0  0  0
    5.5570    1.1600    1.7140 C   0  0  0  0  0  0  0  0  0  0  0  0
    7.7060    0.9760    2.8410 O   0  0  0  0  0  0  0  0  0  0  0  0
    9.1020    0.9240    2.5920 C   0  0  0  0  0  0  0  0  0  0  0  0
    9.4930   -0.2750    1.7540 C   0  0  0  0  0  0  0  0  0  0  0  0
    8.3790   -1.0820    1.4210 O   0  0  0  0  0  0  0  0  0  0  0  0
    1.1690   -0.9580   -2.1230 C   0  0  0  0  0  0  0  0  0  0  0  0
    0.7540   -0.0050   -3.2180 C   0  0  0  0  0  0  0  0  0  0  0  0
  1  2  1  0
  2  3  1  0
  3  4  2  0
  3  8  1  0
  4  5  1  0
  5  6  2  0
  5 19  1  0
  6  7  1  0
  6 12  1  0
  7  8  2  0
  7 11  1  0
  8  9  1  0
  9 10  1  0
 10 11  1  0
 12 13  2  0
 12 17  1  0
 13 14  1  0
 14 15  2  0
 15 16  1  0
 16 17  2  0
 16 35  1  0
 17 18  1  0
 18 19  1  1
 18 20  1  0
 20 21  1  0
 20 34  1  0
 21 22  1  0
 22 23  1  0
 23 24  1  0
 24 25  2  0
 24 29  1  0
 25 26  1  0
 26 27  2  0
 27 28  1  0
 27 33  1  0
 28 29  2  0
 28 30  1  0
 30 31  1  0
 31 32  1  0
 32 33  1  0
 34 35  1  0
M  CHG  1  10   1
M  END
