
     RDKit          3D

 35 40  0  0  0  0  0  0  0  0999 V2000
    3.4180   -2.7670    0.9700 C   0  0  0  0  0  0  0  0  0  0  0  0
    3.8850   -1.5390    0.8670 C   0  0  0  0  0  0  0  0  0  0  0  0
    5.2160   -1.4130    0.5260 O   0  0  0  0  0  0  0  0  0  0  0  0
    3.0680   -0.3630    1.0910 C   0  0  0  0  0  0  0  0  0  0  0  0
    3.6080    0.8090    0.9760 C   0  0  0  0  0  0  0  0  0  0  0  0
    5.0480    1.0220    0.6220 C   0  0  0  0  0  0  0  0  0  0  0  0
    1.6640   -0.5770    1.4450 C   0  0  0  0  0  0  0  0  0  0  0  0
    0.9670    0.6130    1.6850 N   0  0  0  0  0  0  0  0  0  0  0  0
    1.3470    1.3310    2.9340 C   0  0  0  0  0  0  0  0  0  0  0  0
    1.1380    2.8010    2.8310 C   0  0  0  0  0  0  0  0  0  0  0  0
    0.9310    3.1630    1.4570 O   0  0  0  0  0  0  0  0  0  0  0  0
   -0.0420    2.4850    0.7060 C   0  0  0  0  0  0  0  0  0  0  0  0
   -0.0310    1.1270    0.8170 C   0  0  0  0  0  0  0  0  0  0  0  0
   -0.8800    0.2690    0.0250 C   0  0  1  0  0  0  0  0  0  0  0  0
   -0.2580   -0.2490   -1.2320 C   0  0  0  0  0  0  0  0  0  0  0  0
    0.0450   -1.5740   -1.4590 C   0  0  0  0  0  0  0  0  0  0  0  0
    0.6280   -2.0520   -2.6050 C   0  0  0  0  0  0  0  0  0  0  0  0
    0.9440   -1.1950   -3.6100 C   0  0  0  0  0  0  0  0  0  0  0  0
    0.6710    0.1360   -3.4520 C   0  0  0  0  0  0  0  0  0  0  0  0
    0.0800    0.5950   -2.2790 C   0  0  0  0  0  0  0  0  0  0  0  0
   -1.5260   -0.9030    0.6720 C   0  0  0  0  0  0  0  0  0  0  0  0
   -1.2410   -1.3570    1.9190 C   0  0  0  0  0  0  0  0  0  0  0  0
   -1.8480   -2.5350    2.3730 C   0  0  0  0  0  0  0  0  0  0  0  0
   -2.7270   -3.2670    1.6280 C   0  0  0  0  0  0  0  0  0  0  0  0
   -2.9960   -2.7610    0.3550 C   0  0  0  0  0  0  0  0  0  0  0  0
   -2.4330   -1.6230   -0.1260 C   0  0  0  0  0  0  0  0  0  0  0  0
   -2.9150   -0.9940   -1.4210 C   0  0  0  0  0  0  0  0  0  0  0  0
   -3.1960    0.4600   -1.0370 C   0  0  2  0  0  0  0  0  0  0  0  0
   -4.0280    1.1940   -1.8970 N   0  0  0  0  0  0  0  0  0  0  0  0
   -3.8730    2.4270   -2.1560 C   0  0  0  0  0  0  0  0  0  0  0  0
   -4.7480    3.1160   -3.0200 O   0  0  0  0  0  0  0  0  0  0  0  0
   -2.8020    3.1400   -1.5880 N   0  0  0  0  0  0  0  0  0  0  0  0
   -1.8530    2.5190   -0.7210 C   0  0  0  0  0  0  0  0  0  0  0  0
   -0.9620    3.1750   -0.0930 N   0  0  0  0  0  0  0  0  0  0  0  0
   -2.0980    1.1170   -0.3420 C   0  0  2  0  0  0  0  0  0  0  0  0
  1  2  2  0
  2  3  1  0
  2  4  1  0
  4  5  2  3
  4  7  1  0
  5  6  1  0
  7  8  1  0
  8  9  1  0
  8 13  1  0
  9 10  1  0
 10 11  1  0
 11 12  1  0
 12 13  2  0
 12 34  1  0
 13 14  1  0
 14 15  1  6
 14 21  1  0
 14 35  1  0
 15 16  2  0
 15 20  1  0
 16 17  1  0
 17 18  2  0
 18 19  1  0
 19 20  2  0
 21 22  2  0
 21 26  1  0
 22 23  1  0
 23 24  2  0
 24 25  1  0
 25 26  2  0
 26 27  1  0
 28 27  1  6
 28 29  1  0
 28 35  1  0
 29 30  2  0
 30 31  1  0
 30 32  1  0
 32 33  1  0
 33 34  2  0
 35 33  1  6
M  CHG  1  29   1
M  END
