
     RDKit          3D

 35 38  0  0  0  0  0  0  0  0999 V2000
   -5.6600    0.9260   -1.1810 C   0  0  0  0  0  0  0  0  0  0  0  0
   -6.3690    0.2810   -0.2630 C   0  0  0  0  0  0  0  0  0  0  0  0
   -5.6870   -0.3300    0.8740 C   0  0  0  0  0  0  0  0  0  0  0  0
   -4.4410   -0.3890    1.1690 C   0  0  0  0  0  0  0  0  0  0  0  0
   -3.2520    0.0600    0.5680 C   0  0  0  0  0  0  0  0  0  0  0  0
   -2.6490    1.2800    0.8660 C   0  0  0  0  0  0  0  0  0  0  0  0
   -1.4690    1.7150    0.3710 C   0  0  0  0  0  0  0  0  0  0  0  0
   -0.7480    0.8680   -0.5510 C   0  0  0  0  0  0  0  0  0  0  0  0
    0.5070    1.4010   -0.9300 C   0  0  0  0  0  0  0  0  0  0  0  0
    0.8610    2.5300   -0.9850 O   0  0  0  0  0  0  0  0  0  0  0  0
    1.6920    0.2060   -1.3490 N   0  0  0  0  0  0  0  0  0  0  0  0
    2.7720    1.0530   -1.3800 C   0  0  0  0  0  0  0  0  0  0  0  0
    2.9280    2.2440   -1.5290 O   0  0  0  0  0  0  0  0  0  0  0  0
    4.0450    0.2690   -1.1760 N   0  0  0  0  0  0  0  0  0  0  0  0
    5.2800    1.0050   -0.9890 C   0  0  0  0  0  0  0  0  0  0  0  0
    6.1830    0.0740   -0.1830 C   0  0  0  0  0  0  0  0  0  0  0  0
    5.7520   -0.0410    1.1640 C   0  0  0  0  0  0  0  0  0  0  0  0
    4.5490    0.5760    1.4190 O   0  0  0  0  0  0  0  0  0  0  0  0
    3.9390    0.5980    2.6640 C   0  0  0  0  0  0  0  0  0  0  0  0
    6.5390   -0.7410    2.0310 C   0  0  0  0  0  0  0  0  0  0  0  0
    7.7090   -1.3140    1.5920 C   0  0  0  0  0  0  0  0  0  0  0  0
    8.0840   -1.1770    0.2400 C   0  0  0  0  0  0  0  0  0  0  0  0
    7.3150   -0.4610   -0.6650 C   0  0  0  0  0  0  0  0  0  0  0  0
    8.0560   -0.4340   -1.9730 C   0  0  0  0  0  0  0  0  0  0  0  0
    9.4930   -0.8600   -1.5070 C   0  0  0  0  0  0  0  0  0  0  0  0
    9.2240   -1.7060   -0.4160 O   0  0  0  0  0  0  0  0  0  0  0  0
   -1.3330   -0.2950   -0.8380 C   0  0  0  0  0  0  0  0  0  0  0  0
   -2.5350   -0.7250   -0.3270 C   0  0  0  0  0  0  0  0  0  0  0  0
   -3.0950   -2.0530   -0.6350 C   0  0  0  0  0  0  0  0  0  0  0  0
   -2.3380   -2.7280   -1.5850 O   0  0  0  0  0  0  0  0  0  0  0  0
   -6.7040   -1.0150    1.8290 C   0  0  0  0  0  0  0  0  0  0  0  0
   -7.6060    0.1600    2.1660 C   0  0  0  0  0  0  0  0  0  0  0  0
   -8.4180    0.6100    1.0170 C   0  0  0  0  0  0  0  0  0  0  0  0
   -7.8430    0.1410   -0.3470 C   0  0  1  0  0  0  0  0  0  0  0  0
   -8.3820    0.9190   -1.3350 O   0  0  0  0  0  0  0  0  0  0  0  0
  1  2  2  0
  2  3  1  0
  2 34  1  0
  3  4  2  3
  3 31  1  0
  4  5  1  0
  5  6  2  0
  5 28  1  0
  6  7  1  0
  7  8  2  0
  8  9  1  0
  8 27  1  0
  9 10  2  0
  9 11  1  0
 11 12  1  0
 12 13  2  0
 12 14  1  0
 14 15  1  0
 15 16  1  0
 16 17  2  0
 16 23  1  0
 17 18  1  0
 17 20  1  0
 18 19  1  0
 20 21  2  0
 21 22  1  0
 22 23  2  0
 22 26  1  0
 23 24  1  0
 24 25  1  0
 25 26  1  0
 27 28  2  0
 28 29  1  0
 29 30  1  0
 31 32  1  0
 32 33  1  0
 33 34  1  0
 34 35  1  6
M  END
