
     RDKit          3D

 35 38  0  0  0  0  0  0  0  0999 V2000
   10.4770   -0.9090   -0.5540 C   0  0  0  0  0  0  0  0  0  0  0  0
    9.1920   -0.4260   -0.0270 C   0  0  0  0  0  0  0  0  0  0  0  0
    9.1190    0.5170    0.9830 C   0  0  0  0  0  0  0  0  0  0  0  0
    7.9140    0.9640    1.4440 C   0  0  0  0  0  0  0  0  0  0  0  0
    6.6890    0.5020    0.9310 C   0  0  0  0  0  0  0  0  0  0  0  0
    5.5410    1.0190    1.4620 O   0  0  0  0  0  0  0  0  0  0  0  0
    4.2320    0.7970    1.1620 C   0  0  0  0  0  0  0  0  0  0  0  0
    3.3970    0.3150    2.1430 C   0  0  0  0  0  0  0  0  0  0  0  0
    2.0800    0.0970    1.8450 C   0  0  0  0  0  0  0  0  0  0  0  0
    1.5200    0.3290    0.6070 C   0  0  0  0  0  0  0  0  0  0  0  0
    0.1330    0.1880    0.3760 N   0  0  0  0  0  0  0  0  0  0  0  0
   -0.4550   -0.2430   -0.8200 C   0  0  0  0  0  0  0  0  0  0  0  0
    0.2660   -0.5890   -1.7970 O   0  0  0  0  0  0  0  0  0  0  0  0
   -1.9340   -0.2690   -0.8780 C   0  0  0  0  0  0  0  0  0  0  0  0
   -2.6620   -1.4100   -1.0160 C   0  0  0  0  0  0  0  0  0  0  0  0
   -4.0760   -1.3380   -1.0030 C   0  0  0  0  0  0  0  0  0  0  0  0
   -4.7230   -0.1400   -0.8570 C   0  0  0  0  0  0  0  0  0  0  0  0
   -3.9770    0.9660   -0.7260 N   0  0  0  0  0  0  0  0  0  0  0  0
   -4.5860    2.2630   -0.5820 C   0  0  0  0  0  0  0  0  0  0  0  0
   -4.7260    2.6210    0.8640 C   0  0  0  0  0  0  0  0  0  0  0  0
   -3.4660    2.6380    1.5090 O   0  0  0  0  0  0  0  0  0  0  0  0
   -2.6150    0.9210   -0.7330 C   0  0  0  0  0  0  0  0  0  0  0  0
   -1.9610    2.0060   -0.6020 O   0  0  0  0  0  0  0  0  0  0  0  0
   -6.1620    0.0080   -0.8530 C   0  0  0  0  0  0  0  0  0  0  0  0
   -6.9620   -1.2510   -0.8310 C   0  0  2  0  0  0  0  0  0  0  0  0
   -7.3940   -1.5410    0.6070 C   0  0  0  0  0  0  0  0  0  0  0  0
   -8.1700   -0.4310    1.0160 O   0  0  0  0  0  0  0  0  0  0  0  0
   -6.2800   -2.4090   -1.4850 C   0  0  0  0  0  0  0  0  0  0  0  0
   -4.8620   -2.5910   -1.1240 C   0  0  2  0  0  0  0  0  0  0  0  0
   -4.7140   -3.3300    0.0780 O   0  0  0  0  0  0  0  0  0  0  0  0
    2.3620    0.8120   -0.3880 C   0  0  0  0  0  0  0  0  0  0  0  0
    3.7050    1.0440   -0.1080 C   0  0  0  0  0  0  0  0  0  0  0  0
    4.5720    1.5960   -1.1830 C   0  0  0  0  0  0  0  0  0  0  0  0
    6.7760   -0.4320   -0.0640 C   0  0  0  0  0  0  0  0  0  0  0  0
    8.0090   -0.8870   -0.5350 C   0  0  0  0  0  0  0  0  0  0  0  0
  1  2  1  0
  2  3  2  0
  2 35  1  0
  3  4  1  0
  4  5  2  0
  5  6  1  0
  5 34  1  0
  6  7  1  0
  7  8  2  0
  7 32  1  0
  8  9  1  0
  9 10  2  0
 10 11  1  0
 10 31  1  0
 11 12  1  0
 12 13  2  0
 12 14  1  0
 14 15  2  0
 14 22  1  0
 15 16  1  0
 16 17  2  0
 16 29  1  0
 17 18  1  0
 17 24  1  0
 18 19  1  0
 18 22  1  0
 19 20  1  0
 20 21  1  0
 22 23  2  0
 24 25  1  0
 25 26  1  1
 25 28  1  0
 26 27  1  0
 28 29  1  0
 29 30  1  1
 31 32  2  0
 32 33  1  0
 34 35  2  0
M  END
