
     RDKit          3D

 35 40  0  0  0  0  0  0  0  0999 V2000
    1.3020    3.6260   -2.0800 C   0  0  0  0  0  0  0  0  0  0  0  0
    2.0450    3.9370   -0.7630 C   0  0  0  0  0  0  0  0  0  0  0  0
    2.8970    2.7260   -0.3820 C   0  0  0  0  0  0  0  0  0  0  0  0
    2.0950    1.6180   -0.1400 O   0  0  0  0  0  0  0  0  0  0  0  0
    2.4420    0.3130    0.0660 C   0  0  0  0  0  0  0  0  0  0  0  0
    3.7360   -0.1290    0.0160 C   0  0  0  0  0  0  0  0  0  0  0  0
    4.0770   -1.4520    0.1920 C   0  0  0  0  0  0  0  0  0  0  0  0
    3.0660   -2.3690    0.4310 C   0  0  0  0  0  0  0  0  0  0  0  0
    1.7610   -1.8960    0.4810 C   0  0  0  0  0  0  0  0  0  0  0  0
    1.3980   -0.5810    0.3120 C   0  0  0  0  0  0  0  0  0  0  0  0
    0.0480   -0.1370    0.6290 C   0  0  2  0  0  0  0  0  0  0  0  0
   -0.9100    0.1630   -0.4700 C   0  0  0  0  0  0  0  0  0  0  0  0
   -2.2820    0.0660    0.0910 C   0  0  0  0  0  0  0  0  0  0  0  0
   -2.4650    0.5370    1.3090 C   0  0  0  0  0  0  0  0  0  0  0  0
   -3.7570    0.4700    1.9530 C   0  0  0  0  0  0  0  0  0  0  0  0
   -3.9400    0.8720    3.1620 N   0  0  0  0  0  0  0  0  0  0  0  0
   -2.8730    1.4240    3.9210 C   0  0  0  0  0  0  0  0  0  0  0  0
   -3.0690    1.8300    5.3520 C   0  0  0  0  0  0  0  0  0  0  0  0
   -1.6740    1.5700    3.3880 C   0  0  0  0  0  0  0  0  0  0  0  0
   -1.3190    1.2180    2.0100 C   0  0  1  0  0  0  0  0  0  0  0  0
   -0.0680    0.5820    1.8650 N   0  0  0  0  0  0  0  0  0  0  0  0
   -4.8190   -0.1190    1.2170 N   0  0  0  0  0  0  0  0  0  0  0  0
   -4.6160   -0.8790    0.0160 C   0  0  0  0  0  0  0  0  0  0  0  0
   -3.3970   -0.4640   -0.7130 C   0  0  0  0  0  0  0  0  0  0  0  0
   -3.2760   -0.5490   -2.0110 C   0  0  0  0  0  0  0  0  0  0  0  0
   -4.2770   -1.0400   -2.9370 C   0  0  0  0  0  0  0  0  0  0  0  0
   -4.4900   -0.4970   -4.1890 C   0  0  0  0  0  0  0  0  0  0  0  0
   -5.4930   -1.1740   -4.7940 C   0  0  0  0  0  0  0  0  0  0  0  0
   -5.8860   -2.1390   -3.8840 C   0  0  0  0  0  0  0  0  0  0  0  0
   -5.1490   -2.0200   -2.8240 O   0  0  0  0  0  0  0  0  0  0  0  0
    3.6960   -3.6100    0.5690 O   0  0  0  0  0  0  0  0  0  0  0  0
    5.0630   -3.3660    0.9530 C   0  0  0  0  0  0  0  0  0  0  0  0
    5.3140   -2.1830    0.1530 N   0  0  0  0  0  0  0  0  0  0  0  0
    6.4880   -1.7660   -0.5770 C   0  0  0  0  0  0  0  0  0  0  0  0
    6.6160   -2.7520   -1.7420 C   0  0  0  0  0  0  0  0  0  0  0  0
  1  2  1  0
  2  3  1  0
  3  4  1  0
  4  5  1  0
  5  6  2  0
  5 10  1  0
  6  7  1  0
  7  8  2  0
  7 33  1  0
  8  9  1  0
  8 31  1  0
  9 10  2  0
 11 10  1  6
 11 12  1  0
 11 21  1  0
 12 13  1  0
 13 14  2  0
 13 24  1  0
 14 15  1  0
 14 20  1  0
 15 16  2  0
 15 22  1  0
 16 17  1  0
 17 18  1  0
 17 19  2  0
 19 20  1  0
 20 21  1  1
 22 23  1  0
 23 24  1  0
 24 25  2  3
 25 26  1  0
 26 27  2  0
 26 30  1  0
 27 28  1  0
 28 29  2  0
 29 30  1  0
 31 32  1  0
 32 33  1  0
 33 34  1  0
 34 35  1  0
M  CHG  1  16   1
M  END
