
     RDKit          3D

 35 38  0  0  0  0  0  0  0  0999 V2000
   -6.8510    2.8070    0.5710 C   0  0  0  0  0  0  0  0  0  0  0  0
   -7.6890    1.6890    0.7060 O   0  0  0  0  0  0  0  0  0  0  0  0
   -7.3960    0.3750    0.3970 C   0  0  0  0  0  0  0  0  0  0  0  0
   -8.4000   -0.5620    0.5730 C   0  0  0  0  0  0  0  0  0  0  0  0
   -8.1750   -1.8700    0.2750 C   0  0  0  0  0  0  0  0  0  0  0  0
   -6.9470   -2.2790   -0.2070 C   0  0  0  0  0  0  0  0  0  0  0  0
   -6.7660   -3.5970   -0.5010 O   0  0  0  0  0  0  0  0  0  0  0  0
   -5.9150   -1.3230   -0.3830 C   0  0  0  0  0  0  0  0  0  0  0  0
   -4.7230   -1.8120   -1.0150 N   0  0  0  0  0  0  0  0  0  0  0  0
   -3.3810   -1.4940   -0.8290 C   0  0  0  0  0  0  0  0  0  0  0  0
   -2.9040   -0.1710   -1.0040 C   0  0  0  0  0  0  0  0  0  0  0  0
   -3.5620    0.6860   -1.7420 O   0  0  0  0  0  0  0  0  0  0  0  0
   -1.6700    0.3750   -0.4060 C   0  0  0  0  0  0  0  0  0  0  0  0
   -1.2640    1.6690   -0.4740 N   0  0  0  0  0  0  0  0  0  0  0  0
   -0.0940    1.8340    0.1930 C   0  0  0  0  0  0  0  0  0  0  0  0
    0.5510    3.1690    0.3870 C   0  0  0  0  0  0  0  0  0  0  0  0
    0.2820    0.6480    0.6910 C   0  0  0  0  0  0  0  0  0  0  0  0
    1.4400    0.1420    1.4230 C   0  0  0  0  0  0  0  0  0  0  0  0
    1.3300   -0.2310    2.6650 O   0  0  0  0  0  0  0  0  0  0  0  0
    2.7440    0.0130    0.7950 C   0  0  0  0  0  0  0  0  0  0  0  0
    3.2700   -1.3080    0.6690 C   0  0  0  0  0  0  0  0  0  0  0  0
    4.4660   -1.4900    0.0220 C   0  0  0  0  0  0  0  0  0  0  0  0
    5.1320   -0.3960   -0.4870 C   0  0  0  0  0  0  0  0  0  0  0  0
    4.6430    0.9070   -0.3610 C   0  0  0  0  0  0  0  0  0  0  0  0
    5.3180    2.0010   -1.0630 C   0  0  1  0  0  0  0  0  0  0  0  0
    6.3490    2.7430   -0.1980 C   0  0  0  0  0  0  0  0  0  0  0  0
    5.7590    1.8130   -2.3160 O   0  0  0  0  0  0  0  0  0  0  0  0
    3.4200    1.0850    0.2980 C   0  0  0  0  0  0  0  0  0  0  0  0
    6.2980   -0.8670   -1.1030 O   0  0  0  0  0  0  0  0  0  0  0  0
    6.6670   -2.0380   -0.3170 C   0  0  1  0  0  0  0  0  0  0  0  0
    7.1630   -1.5710    1.0180 C   0  0  0  0  0  0  0  0  0  0  0  0
    5.2930   -2.7070   -0.2120 C   0  0  0  0  0  0  0  0  0  0  0  0
   -0.7230   -0.2940    0.3060 C   0  0  0  0  0  0  0  0  0  0  0  0
   -0.6370   -1.7380    0.6650 C   0  0  0  0  0  0  0  0  0  0  0  0
   -6.1330   -0.0180   -0.0880 C   0  0  0  0  0  0  0  0  0  0  0  0
  1  2  1  0
  2  3  1  0
  3  4  2  0
  3 35  1  0
  4  5  1  0
  5  6  2  0
  6  7  1  0
  6  8  1  0
  8  9  1  0
  8 35  2  0
  9 10  1  0
 10 11  1  0
 11 12  2  0
 11 13  1  0
 13 14  1  0
 13 33  2  0
 14 15  1  0
 15 16  1  0
 15 17  2  0
 17 18  1  0
 17 33  1  0
 18 19  2  0
 18 20  1  0
 20 21  2  0
 20 28  1  0
 21 22  1  0
 22 23  2  0
 22 32  1  0
 23 24  1  0
 23 29  1  0
 24 25  1  0
 24 28  2  0
 25 26  1  1
 25 27  1  0
 29 30  1  0
 30 31  1  1
 30 32  1  0
 33 34  1  0
M  END
