
     RDKit          3D

 35 38  0  0  0  0  0  0  0  0999 V2000
   -2.2230   -2.5040   -4.0160 C   0  0  0  0  0  0  0  0  0  0  0  0
   -2.2460   -3.0730   -2.7070 O   0  0  0  0  0  0  0  0  0  0  0  0
   -2.4530   -2.2170   -1.6330 C   0  0  0  0  0  0  0  0  0  0  0  0
   -3.7140   -1.9270   -1.1540 C   0  0  0  0  0  0  0  0  0  0  0  0
   -4.9080   -2.5420   -1.7950 C   0  0  0  0  0  0  0  0  0  0  0  0
   -3.8690   -1.0680   -0.0820 C   0  0  0  0  0  0  0  0  0  0  0  0
   -2.7980   -0.4710    0.5490 C   0  0  0  0  0  0  0  0  0  0  0  0
   -1.5320   -0.7750    0.0530 C   0  0  0  0  0  0  0  0  0  0  0  0
   -1.3440   -1.6270   -1.0150 C   0  0  0  0  0  0  0  0  0  0  0  0
    0.0220   -1.7220   -1.2640 O   0  0  0  0  0  0  0  0  0  0  0  0
    0.6900   -1.4110   -0.0770 C   0  0  1  0  0  0  0  0  0  0  0  0
    2.0800   -0.9520   -0.2990 C   0  0  0  0  0  0  0  0  0  0  0  0
    2.5660   -0.8670   -1.4390 O   0  0  0  0  0  0  0  0  0  0  0  0
    2.8630   -0.6060    0.8240 N   0  0  0  0  0  0  0  0  0  0  0  0
    4.1780   -0.1490    0.8550 C   0  0  0  0  0  0  0  0  0  0  0  0
    4.8580    0.2600   -0.2560 C   0  0  0  0  0  0  0  0  0  0  0  0
    6.1900    0.6990   -0.1960 C   0  0  0  0  0  0  0  0  0  0  0  0
    6.8370    0.7190    1.0020 C   0  0  0  0  0  0  0  0  0  0  0  0
    8.2190    1.0720    1.1670 C   0  0  0  0  0  0  0  0  0  0  0  0
    9.2400    1.1860    0.4250 C   0  0  0  0  0  0  0  0  0  0  0  0
    9.5830    1.0250   -0.9480 C   0  0  0  0  0  0  0  0  0  0  0  0
    8.7640    0.6120   -1.9890 N   0  0  0  0  0  0  0  0  0  0  0  0
   10.8220    1.3000   -1.2790 O   0  0  0  0  0  0  0  0  0  0  0  0
    6.1230    0.2920    2.1610 C   0  0  0  0  0  0  0  0  0  0  0  0
    4.8360   -0.1290    2.0940 C   0  0  0  0  0  0  0  0  0  0  0  0
   -0.1850   -0.3070    0.4980 C   0  0  0  0  0  0  0  0  0  0  0  0
   -2.8960    0.4530    1.6980 C   0  0  0  0  0  0  0  0  0  0  0  0
   -4.2720    1.0740    1.7670 C   0  0  1  0  0  0  0  0  0  0  0  0
   -4.4030    1.9200    3.0080 C   0  0  0  0  0  0  0  0  0  0  0  0
   -4.5330    1.9070    0.5200 C   0  0  0  0  0  0  0  0  0  0  0  0
   -5.8990    2.5420    0.5590 C   0  0  0  0  0  0  0  0  0  0  0  0
   -6.0370    3.2790   -0.6240 O   0  0  0  0  0  0  0  0  0  0  0  0
   -5.2780   -0.0570    1.7690 C   0  0  0  0  0  0  0  0  0  0  0  0
   -5.1990   -0.7400    0.4490 C   0  0  0  0  0  0  0  0  0  0  0  0
   -6.1950   -1.0480   -0.2290 O   0  0  0  0  0  0  0  0  0  0  0  0
  1  2  1  0
  2  3  1  0
  3  4  2  0
  3  9  1  0
  4  5  1  0
  4  6  1  0
  6  7  2  0
  6 34  1  0
  7  8  1  0
  7 27  1  0
  8  9  2  0
  8 26  1  0
  9 10  1  0
 10 11  1  0
 11 12  1  6
 11 26  1  0
 12 13  2  0
 12 14  1  0
 14 15  1  0
 15 16  2  0
 15 25  1  0
 16 17  1  0
 17 18  2  0
 18 19  1  0
 18 24  1  0
 19 20  2  3
 20 21  1  0
 21 22  1  0
 21 23  2  0
 24 25  2  0
 27 28  1  0
 28 29  1  1
 28 30  1  0
 28 33  1  0
 30 31  1  0
 31 32  1  0
 33 34  1  0
 34 35  2  0
M  END
