
     RDKit          3D

 35 38  0  0  0  0  0  0  0  0999 V2000
    6.6650    3.4200   -1.0440 C   0  0  0  0  0  0  0  0  0  0  0  0
    7.7680    2.7020   -0.5300 O   0  0  0  0  0  0  0  0  0  0  0  0
    7.5160    1.4770    0.0950 C   0  0  0  0  0  0  0  0  0  0  0  0
    8.5770    0.7290    0.6160 C   0  0  0  0  0  0  0  0  0  0  0  0
    8.3460   -0.4780    1.2340 C   0  0  0  0  0  0  0  0  0  0  0  0
    7.0790   -0.9740    1.3540 C   0  0  0  0  0  0  0  0  0  0  0  0
    6.8080   -2.1970    1.9730 O   0  0  0  0  0  0  0  0  0  0  0  0
    5.9760   -0.2600    0.8460 C   0  0  0  0  0  0  0  0  0  0  0  0
    4.7110   -0.8140    1.0090 N   0  0  0  0  0  0  0  0  0  0  0  0
    3.4500   -0.2290    0.5800 C   0  0  0  0  0  0  0  0  0  0  0  0
    2.8110   -1.1010   -0.4240 C   0  0  0  0  0  0  0  0  0  0  0  0
    3.6170   -1.6100   -1.3140 O   0  0  0  0  0  0  0  0  0  0  0  0
    1.4370   -1.4470   -0.5290 C   0  0  0  0  0  0  0  0  0  0  0  0
    0.9330   -2.2790   -1.4940 N   0  0  0  0  0  0  0  0  0  0  0  0
   -0.3650   -2.4860   -1.3470 C   0  0  0  0  0  0  0  0  0  0  0  0
   -1.2690   -3.3170   -2.1890 C   0  0  0  0  0  0  0  0  0  0  0  0
   -0.7470   -1.7600   -0.2350 C   0  0  0  0  0  0  0  0  0  0  0  0
   -2.1040   -1.7460    0.2800 C   0  0  0  0  0  0  0  0  0  0  0  0
   -2.4340   -2.6960    1.0820 O   0  0  0  0  0  0  0  0  0  0  0  0
   -3.1200   -0.7680   -0.0290 C   0  0  0  0  0  0  0  0  0  0  0  0
   -2.7780    0.5120   -0.4140 C   0  0  0  0  0  0  0  0  0  0  0  0
   -3.7980    1.3880   -0.7220 C   0  0  0  0  0  0  0  0  0  0  0  0
   -5.1240    1.0080   -0.6520 C   0  0  0  0  0  0  0  0  0  0  0  0
   -5.4550   -0.2900   -0.2600 C   0  0  0  0  0  0  0  0  0  0  0  0
   -6.8770   -0.7050   -0.1950 C   0  0  1  0  0  0  0  0  0  0  0  0
   -6.9890   -2.1700    0.1240 C   0  0  0  0  0  0  0  0  0  0  0  0
   -7.4790    0.0050    0.8450 O   0  0  0  0  0  0  0  0  0  0  0  0
   -4.4490   -1.1620    0.0460 C   0  0  0  0  0  0  0  0  0  0  0  0
   -5.8760    2.1180   -1.0230 O   0  0  0  0  0  0  0  0  0  0  0  0
   -5.1130    3.2820   -0.6780 C   0  0  1  0  0  0  0  0  0  0  0  0
   -5.1160    3.3580    0.8170 C   0  0  0  0  0  0  0  0  0  0  0  0
   -3.7260    2.8150   -1.1540 C   0  0  0  0  0  0  0  0  0  0  0  0
    0.3430   -1.1140    0.2800 C   0  0  0  0  0  0  0  0  0  0  0  0
    0.3410   -0.2250    1.4750 C   0  0  0  0  0  0  0  0  0  0  0  0
    6.2520    0.9420    0.2350 C   0  0  0  0  0  0  0  0  0  0  0  0
  1  2  1  0
  2  3  1  0
  3  4  2  0
  3 35  1  0
  4  5  1  0
  5  6  2  0
  6  7  1  0
  6  8  1  0
  8  9  1  0
  8 35  2  0
  9 10  1  0
 10 11  1  0
 11 12  2  0
 11 13  1  0
 13 14  1  0
 13 33  2  0
 14 15  1  0
 15 16  1  0
 15 17  2  0
 17 18  1  0
 17 33  1  0
 18 19  2  0
 18 20  1  0
 20 21  2  0
 20 28  1  0
 21 22  1  0
 22 23  2  0
 22 32  1  0
 23 24  1  0
 23 29  1  0
 24 25  1  0
 24 28  2  0
 25 26  1  1
 25 27  1  0
 29 30  1  0
 30 31  1  1
 30 32  1  0
 33 34  1  0
M  END
