
     RDKit          3D

 35 38  0  0  0  0  0  0  0  0999 V2000
    9.5070    2.8160   -2.1190 C   0  0  0  0  0  0  0  0  0  0  0  0
    8.6440    1.7950   -1.4700 C   0  0  0  0  0  0  0  0  0  0  0  0
    8.3740    0.5920   -2.0810 C   0  0  0  0  0  0  0  0  0  0  0  0
    7.5620   -0.3860   -1.4890 C   0  0  0  0  0  0  0  0  0  0  0  0
    6.9950   -0.1800   -0.2580 C   0  0  0  0  0  0  0  0  0  0  0  0
    6.1890   -1.1020    0.3690 O   0  0  0  0  0  0  0  0  0  0  0  0
    4.8290   -0.9480    0.4160 C   0  0  0  0  0  0  0  0  0  0  0  0
    4.2410   -0.8230    1.6870 C   0  0  0  0  0  0  0  0  0  0  0  0
    2.8910   -0.6660    1.8320 C   0  0  0  0  0  0  0  0  0  0  0  0
    2.0040   -0.6190    0.7390 C   0  0  0  0  0  0  0  0  0  0  0  0
    0.6210   -0.4240    0.9930 N   0  0  0  0  0  0  0  0  0  0  0  0
   -0.3650   -0.8100    0.0890 C   0  0  0  0  0  0  0  0  0  0  0  0
   -0.0320   -1.3670   -1.0130 O   0  0  0  0  0  0  0  0  0  0  0  0
   -1.8100   -0.6360    0.2740 C   0  0  0  0  0  0  0  0  0  0  0  0
   -2.6620   -0.9240   -0.7950 C   0  0  0  0  0  0  0  0  0  0  0  0
   -4.0020   -0.7560   -0.6370 C   0  0  0  0  0  0  0  0  0  0  0  0
   -4.5950   -0.3120    0.5260 C   0  0  0  0  0  0  0  0  0  0  0  0
   -3.7730   -0.0360    1.5480 N   0  0  0  0  0  0  0  0  0  0  0  0
   -4.2410    0.4540    2.8310 C   0  0  0  0  0  0  0  0  0  0  0  0
   -4.2420    1.9780    2.8090 C   0  0  0  0  0  0  0  0  0  0  0  0
   -4.6810    2.5070    4.0020 O   0  0  0  0  0  0  0  0  0  0  0  0
   -2.4160   -0.1970    1.4170 C   0  0  0  0  0  0  0  0  0  0  0  0
   -1.7110    0.0840    2.4280 O   0  0  0  0  0  0  0  0  0  0  0  0
   -6.0420   -0.1360    0.7080 C   0  0  0  0  0  0  0  0  0  0  0  0
   -6.8800   -0.7320   -0.3990 C   0  0  2  0  0  0  0  0  0  0  0  0
   -8.1100   -1.4260    0.1820 C   0  0  0  0  0  0  0  0  0  0  0  0
   -8.9130   -0.5280    0.9000 O   0  0  0  0  0  0  0  0  0  0  0  0
   -6.1260   -1.7590   -1.1950 C   0  0  0  0  0  0  0  0  0  0  0  0
   -4.9190   -1.0670   -1.7930 C   0  0  2  0  0  0  0  0  0  0  0  0
   -4.3050   -1.9120   -2.6950 O   0  0  0  0  0  0  0  0  0  0  0  0
    2.5850   -0.7400   -0.4830 C   0  0  0  0  0  0  0  0  0  0  0  0
    3.9760   -0.9040   -0.6510 C   0  0  0  0  0  0  0  0  0  0  0  0
    4.4750   -1.0400   -2.0420 C   0  0  0  0  0  0  0  0  0  0  0  0
    7.2800    1.0530    0.3520 C   0  0  0  0  0  0  0  0  0  0  0  0
    8.0770    2.0080   -0.2320 C   0  0  0  0  0  0  0  0  0  0  0  0
  1  2  1  0
  2  3  2  0
  2 35  1  0
  3  4  1  0
  4  5  2  0
  5  6  1  0
  5 34  1  0
  6  7  1  0
  7  8  2  0
  7 32  1  0
  8  9  1  0
  9 10  2  0
 10 11  1  0
 10 31  1  0
 11 12  1  0
 12 13  2  0
 12 14  1  0
 14 15  2  0
 14 22  1  0
 15 16  1  0
 16 17  2  0
 16 29  1  0
 17 18  1  0
 17 24  1  0
 18 19  1  0
 18 22  1  0
 19 20  1  0
 20 21  1  0
 22 23  2  0
 24 25  1  0
 25 26  1  1
 25 28  1  0
 26 27  1  0
 28 29  1  0
 29 30  1  6
 31 32  2  0
 32 33  1  0
 34 35  2  0
M  END
