
     RDKit          3D

 35 39  0  0  0  0  0  0  0  0999 V2000
   -0.3020    2.9930   -1.8470 C   0  0  0  0  0  0  0  0  0  0  0  0
    0.4880    1.7650   -1.4820 C   0  0  2  0  0  0  0  0  0  0  0  0
   -0.3990    0.6010   -1.6100 C   0  0  0  0  0  0  0  0  0  0  0  0
   -1.7670    0.9120   -2.0720 C   0  0  0  0  0  0  0  0  0  0  0  0
   -2.8430    1.0050   -1.2930 C   0  0  0  0  0  0  0  0  0  0  0  0
   -2.9620    0.8400    0.1510 C   0  0  1  0  0  0  0  0  0  0  0  0
   -3.7000    2.0730    0.6650 C   0  0  0  0  0  0  0  0  0  0  0  0
   -4.8680    2.3070    0.0370 O   0  0  0  0  0  0  0  0  0  0  0  0
   -5.6320    1.2260   -0.1930 C   0  0  0  0  0  0  0  0  0  0  0  0
   -5.2100    0.0640    0.6060 C   0  0  0  0  0  0  0  0  0  0  0  0
   -3.7960   -0.3520    0.4520 N   0  0  0  0  0  0  0  0  0  0  0  0
   -3.1030   -1.5770    0.5510 C   0  0  0  0  0  0  0  0  0  0  0  0
   -2.6700   -2.3680   -0.4230 C   0  0  0  0  0  0  0  0  0  0  0  0
   -1.1530   -2.6090   -0.4530 C   0  0  0  0  0  0  0  0  0  0  0  0
   -0.5790   -2.1120    0.7570 N   0  0  2  0  0  0  0  0  0  0  0  0
    0.8080   -2.3390    0.8170 C   0  0  0  0  0  0  0  0  0  0  0  0
    1.6020   -1.5690   -0.1690 C   0  0  0  0  0  0  0  0  0  0  0  0
    1.6000   -2.1000   -1.3440 O   0  0  0  0  0  0  0  0  0  0  0  0
    2.3490   -0.3680   -0.0200 N   0  0  0  0  0  0  0  0  0  0  0  0
    3.7500   -0.6130   -0.4670 C   0  0  0  0  0  0  0  0  0  0  0  0
    4.0530   -0.4970   -1.8060 C   0  0  0  0  0  0  0  0  0  0  0  0
    5.3280   -0.7090   -2.2880 C   0  0  0  0  0  0  0  0  0  0  0  0
    6.3180   -1.0480   -1.3700 C   0  0  0  0  0  0  0  0  0  0  0  0
    6.0400   -1.1700   -0.0270 C   0  0  0  0  0  0  0  0  0  0  0  0
    6.9970   -1.5110    0.9620 N   0  0  0  0  0  0  0  0  0  0  0  0
    4.7290   -0.9440    0.4070 C   0  0  0  0  0  0  0  0  0  0  0  0
    1.9970    0.9170    0.4300 C   0  0  0  0  0  0  0  0  0  0  0  0
    2.5300    1.3360    1.6550 C   0  0  0  0  0  0  0  0  0  0  0  0
    2.3140    2.5540    2.2400 C   0  0  0  0  0  0  0  0  0  0  0  0
    1.5270    3.4710    1.6280 C   0  0  0  0  0  0  0  0  0  0  0  0
    0.9690    3.1200    0.4130 C   0  0  0  0  0  0  0  0  0  0  0  0
    1.1890    1.8830   -0.1800 C   0  0  0  0  0  0  0  0  0  0  0  0
   -1.2980   -2.8280    1.8210 C   0  0  0  0  0  0  0  0  0  0  0  0
   -2.6950   -2.1880    1.9010 C   0  0  1  0  0  0  0  0  0  0  0  0
   -2.5870   -1.3220    2.9480 O   0  0  0  0  0  0  0  0  0  0  0  0
  2  1  1  1
  2  3  1  0
  2 32  1  0
  3  4  1  0
  4  5  2  0
  5  6  1  0
  6  7  1  6
  6 11  1  0
  7  8  1  0
  8  9  1  0
  9 10  1  0
 10 11  1  0
 11 12  1  0
 12 13  2  0
 12 34  1  0
 13 14  1  0
 14 15  1  0
 15 16  1  6
 15 33  1  0
 16 17  1  0
 17 18  2  0
 17 19  1  0
 19 20  1  0
 19 27  1  0
 20 21  2  0
 20 26  1  0
 21 22  1  0
 22 23  2  0
 23 24  1  0
 24 25  1  0
 24 26  2  0
 27 28  2  0
 27 32  1  0
 28 29  1  0
 29 30  2  0
 30 31  1  0
 31 32  2  0
 33 34  1  0
 34 35  1  1
M  CHG  1  15   1
M  END
