
     RDKit          3D

 35 38  0  0  0  0  0  0  0  0999 V2000
   -0.7620    2.1780    3.8660 C   0  0  0  0  0  0  0  0  0  0  0  0
   -1.2660    1.0450    3.2010 O   0  0  0  0  0  0  0  0  0  0  0  0
   -2.0080    1.1000    2.0340 C   0  0  0  0  0  0  0  0  0  0  0  0
   -2.9020    2.0990    1.8390 C   0  0  0  0  0  0  0  0  0  0  0  0
   -3.6950    2.1910    0.6370 C   0  0  0  0  0  0  0  0  0  0  0  0
   -4.5750    3.1180    0.3700 C   0  0  0  0  0  0  0  0  0  0  0  0
   -4.8950    4.2050    1.2440 C   0  0  0  0  0  0  0  0  0  0  0  0
   -5.9450    5.2060    0.7870 C   0  0  0  0  0  0  0  0  0  0  0  0
   -4.4230    4.4620    2.3630 O   0  0  0  0  0  0  0  0  0  0  0  0
   -3.4870    1.1300   -0.3940 C   0  0  0  0  0  0  0  0  0  0  0  0
   -4.1560    1.1840   -1.4300 O   0  0  0  0  0  0  0  0  0  0  0  0
   -2.5060    0.0930   -0.1070 C   0  0  0  0  0  0  0  0  0  0  0  0
   -2.2640   -1.0020   -1.0320 C   0  0  0  0  0  0  0  0  0  0  0  0
   -2.3640   -2.3220   -0.6190 C   0  0  0  0  0  0  0  0  0  0  0  0
   -2.1190   -3.3840   -1.4510 C   0  0  0  0  0  0  0  0  0  0  0  0
   -2.2240   -4.7390   -1.0190 N   0  0  0  0  0  0  0  0  0  0  0  0
   -1.7580   -3.0750   -2.7510 C   0  0  0  0  0  0  0  0  0  0  0  0
   -1.6470   -1.7890   -3.1990 C   0  0  0  0  0  0  0  0  0  0  0  0
   -1.9060   -0.7380   -2.3190 C   0  0  0  0  0  0  0  0  0  0  0  0
   -1.7240    0.6610   -2.8600 C   0  0  0  0  0  0  0  0  0  0  0  0
   -1.8190    0.0810    1.0240 C   0  0  0  0  0  0  0  0  0  0  0  0
   -0.9080   -0.9260    1.2340 O   0  0  0  0  0  0  0  0  0  0  0  0
    0.4340   -0.7800    0.8320 C   0  0  0  0  0  0  0  0  0  0  0  0
    0.6990    0.3060    0.2890 O   0  0  0  0  0  0  0  0  0  0  0  0
    1.3190   -1.8280    1.0680 N   0  0  0  0  0  0  0  0  0  0  0  0
    2.6830   -1.7760    0.7070 C   0  0  0  0  0  0  0  0  0  0  0  0
    3.4570   -2.9440    0.7710 C   0  0  0  0  0  0  0  0  0  0  0  0
    4.7790   -3.0030    0.4580 C   0  0  0  0  0  0  0  0  0  0  0  0
    5.4210   -1.8750    0.0540 C   0  0  0  0  0  0  0  0  0  0  0  0
    4.7090   -0.7090   -0.0240 C   0  0  0  0  0  0  0  0  0  0  0  0
    3.3480   -0.6550    0.3000 C   0  0  0  0  0  0  0  0  0  0  0  0
    5.5790    0.4040   -0.4800 C   0  0  2  0  0  0  0  0  0  0  0  0
    4.9680    1.1010   -1.5230 O   0  0  0  0  0  0  0  0  0  0  0  0
    6.8140   -0.2650   -0.9920 C   0  0  0  0  0  0  0  0  0  0  0  0
    6.8330   -1.6420   -0.3450 C   0  0  0  0  0  0  0  0  0  0  0  0
  1  2  1  0
  2  3  1  0
  3  4  2  0
  3 21  1  0
  4  5  1  0
  5  6  2  3
  5 10  1  0
  6  7  1  0
  7  8  1  0
  7  9  2  0
 10 11  2  0
 10 12  1  0
 12 13  1  0
 12 21  2  0
 13 14  2  0
 13 19  1  0
 14 15  1  0
 15 16  1  0
 15 17  2  0
 17 18  1  0
 18 19  2  0
 19 20  1  0
 21 22  1  0
 22 23  1  0
 23 24  2  0
 23 25  1  0
 25 26  1  0
 26 27  2  0
 26 31  1  0
 27 28  1  0
 28 29  2  0
 29 30  1  0
 29 35  1  0
 30 31  2  0
 30 32  1  0
 32 33  1  6
 32 34  1  0
 34 35  1  0
M  END
