
     RDKit          3D

 35 41  0  0  0  0  0  0  0  0999 V2000
   -6.2720    3.7250    0.2930 C   0  0  0  0  0  0  0  0  0  0  0  0
   -5.6550    2.9800    1.4420 C   0  0  0  0  0  0  0  0  0  0  0  0
   -4.7530    1.8670    0.9620 C   0  0  0  0  0  0  0  0  0  0  0  0
   -3.4310    1.9830    0.9940 N   0  0  0  0  0  0  0  0  0  0  0  0
   -2.6470    0.9650    0.5590 C   0  0  0  0  0  0  0  0  0  0  0  0
   -3.2410   -0.2000    0.0770 C   0  0  0  0  0  0  0  0  0  0  0  0
   -4.6110   -0.3520    0.0240 C   0  0  0  0  0  0  0  0  0  0  0  0
   -5.3670    0.7320    0.4920 C   0  0  0  0  0  0  0  0  0  0  0  0
   -6.8190    0.3650    0.4040 C   0  0  0  0  0  0  0  0  0  0  0  0
   -6.7890   -0.5000   -0.7290 N   0  0  0  0  0  0  0  0  0  0  0  0
   -5.5550   -1.3020   -0.4710 C   0  0  0  0  0  0  0  0  0  0  0  0
   -2.3550   -1.2630   -0.4040 C   0  0  0  0  0  0  0  0  0  0  0  0
   -2.8900   -2.4590   -0.7700 C   0  0  0  0  0  0  0  0  0  0  0  0
   -2.0390   -3.5100   -1.1350 C   0  0  0  0  0  0  0  0  0  0  0  0
   -0.6810   -3.3290   -1.1190 C   0  0  0  0  0  0  0  0  0  0  0  0
   -0.1520   -2.1250   -0.7480 C   0  0  0  0  0  0  0  0  0  0  0  0
   -0.9750   -1.0520   -0.3790 C   0  0  0  0  0  0  0  0  0  0  0  0
   -0.3180    0.2400   -0.0290 C   0  0  1  0  0  0  0  0  0  0  0  0
   -1.2370    1.1160    0.6320 N   0  0  0  0  0  0  0  0  0  0  0  0
    0.9180    0.0860    0.6490 N   0  0  0  0  0  0  0  0  0  0  0  0
    1.7330    1.2280    0.8250 C   0  0  0  0  0  0  0  0  0  0  0  0
    2.3200    1.8020   -0.4140 C   0  0  0  0  0  0  0  0  0  0  0  0
    3.1370    0.9800   -1.1300 O   0  0  0  0  0  0  0  0  0  0  0  0
    4.3250    0.4140   -0.8720 C   0  0  0  0  0  0  0  0  0  0  0  0
    4.9120   -0.4440   -1.8360 C   0  0  0  0  0  0  0  0  0  0  0  0
    6.1270   -1.0390   -1.6120 C   0  0  0  0  0  0  0  0  0  0  0  0
    6.8310   -0.8370   -0.4540 C   0  0  0  0  0  0  0  0  0  0  0  0
    6.2650   -0.0060    0.4810 C   0  0  0  0  0  0  0  0  0  0  0  0
    5.0330    0.6030    0.2620 C   0  0  0  0  0  0  0  0  0  0  0  0
    6.9590    0.2030    1.6410 O   0  0  0  0  0  0  0  0  0  0  0  0
    8.2990   -0.1150    1.8540 C   0  0  0  0  0  0  0  0  0  0  0  0
    8.9710   -0.5910    0.6030 C   0  0  0  0  0  0  0  0  0  0  0  0
    8.0620   -1.3970   -0.1460 O   0  0  0  0  0  0  0  0  0  0  0  0
    1.5460   -1.1780    0.6310 C   0  0  0  0  0  0  0  0  0  0  0  0
    1.3360   -1.9000   -0.7120 C   0  0  0  0  0  0  0  0  0  0  0  0
  1  2  1  0
  2  3  1  0
  3  4  2  0
  3  8  1  0
  4  5  1  0
  5  6  2  0
  5 19  1  0
  6  7  1  0
  6 12  1  0
  7  8  2  0
  7 11  1  0
  8  9  1  0
  9 10  1  0
 10 11  1  0
 12 13  2  0
 12 17  1  0
 13 14  1  0
 14 15  2  0
 15 16  1  0
 16 17  2  0
 16 35  1  0
 17 18  1  0
 18 19  1  1
 18 20  1  0
 20 21  1  0
 20 34  1  0
 21 22  1  0
 22 23  1  0
 23 24  1  0
 24 25  2  0
 24 29  1  0
 25 26  1  0
 26 27  2  0
 27 28  1  0
 27 33  1  0
 28 29  2  0
 28 30  1  0
 30 31  1  0
 31 32  1  0
 32 33  1  0
 34 35  1  0
M  CHG  1  10   1
M  END
