
     RDKit          3D

 35 38  0  0  0  0  0  0  0  0999 V2000
    1.8720   -3.1670    1.7090 C   0  0  0  0  0  0  0  0  0  0  0  0
    1.0580   -2.2610    0.9560 N   0  0  0  0  0  0  0  0  0  0  0  0
    1.4740   -1.3230    0.0610 C   0  0  0  0  0  0  0  0  0  0  0  0
    2.9080   -1.0960   -0.2740 C   0  0  0  0  0  0  0  0  0  0  0  0
    3.2950    0.2810   -0.0370 N   0  0  0  0  0  0  0  0  0  0  0  0
    4.6710    0.6580   -0.1950 C   0  0  0  0  0  0  0  0  0  0  0  0
    5.6320   -0.2860   -0.4640 C   0  0  0  0  0  0  0  0  0  0  0  0
    6.9560    0.1200   -0.6080 C   0  0  0  0  0  0  0  0  0  0  0  0
    7.3460    1.4230   -0.4950 C   0  0  0  0  0  0  0  0  0  0  0  0
    8.7180    1.8510   -0.6330 C   0  0  0  0  0  0  0  0  0  0  0  0
    9.0240    3.2530   -0.5490 N   0  0  0  0  0  0  0  0  0  0  0  0
    9.6570    1.0020   -0.8350 N   0  0  0  0  0  0  0  0  0  0  0  0
    6.3500    2.3520   -0.2230 C   0  0  0  0  0  0  0  0  0  0  0  0
    5.0400    1.9860   -0.0750 C   0  0  0  0  0  0  0  0  0  0  0  0
    0.3680   -0.7310   -0.3800 N   0  0  0  0  0  0  0  0  0  0  0  0
   -0.7340   -1.2440    0.1910 C   0  0  0  0  0  0  0  0  0  0  0  0
   -2.1100   -0.9780    0.0700 C   0  0  0  0  0  0  0  0  0  0  0  0
   -3.0660   -1.6630    0.7800 C   0  0  0  0  0  0  0  0  0  0  0  0
   -4.4910   -1.4100    0.6900 C   0  0  0  0  0  0  0  0  0  0  0  0
   -5.2070   -2.2590    1.3990 O   0  0  0  0  0  0  0  0  0  0  0  0
   -5.1790   -0.4310   -0.0180 N   0  0  0  0  0  0  0  0  0  0  0  0
   -6.6480   -0.5390   -0.0500 C   0  0  0  0  0  0  0  0  0  0  0  0
   -7.2950    0.1830    1.0820 C   0  0  0  0  0  0  0  0  0  0  0  0
   -8.7550    0.0110    0.9870 C   0  0  0  0  0  0  0  0  0  0  0  0
   -9.2560   -0.6480    0.0550 O   0  0  0  0  0  0  0  0  0  0  0  0
   -9.5740    0.5840    1.9320 O   0  0  0  0  0  0  0  0  0  0  0  0
   -4.6550    0.6600   -0.7440 C   0  0  0  0  0  0  0  0  0  0  0  0
   -4.6500    0.6280   -2.1170 C   0  0  0  0  0  0  0  0  0  0  0  0
   -4.1820    1.6940   -2.8940 C   0  0  0  0  0  0  0  0  0  0  0  0
   -3.7230    2.7890   -2.2130 C   0  0  0  0  0  0  0  0  0  0  0  0
   -3.7410    2.7920   -0.8490 C   0  0  0  0  0  0  0  0  0  0  0  0
   -4.1900    1.7650   -0.1290 N   0  0  0  0  0  0  0  0  0  0  0  0
   -2.5590   -2.6490    1.6350 C   0  0  0  0  0  0  0  0  0  0  0  0
   -1.2210   -2.9260    1.7680 C   0  0  0  0  0  0  0  0  0  0  0  0
   -0.2880   -2.2220    1.0430 C   0  0  0  0  0  0  0  0  0  0  0  0
  1  2  1  0
  2  3  1  0
  2 35  1  0
  3  4  1  0
  3 15  2  0
  4  5  1  0
  5  6  1  0
  6  7  2  0
  6 14  1  0
  7  8  1  0
  8  9  2  0
  9 10  1  0
  9 13  1  0
 10 11  1  0
 10 12  2  0
 13 14  2  0
 15 16  1  0
 16 17  2  0
 16 35  1  0
 17 18  1  0
 18 19  1  0
 18 33  2  0
 19 20  2  0
 19 21  1  0
 21 22  1  0
 21 27  1  0
 22 23  1  0
 23 24  1  0
 24 25  2  0
 24 26  1  0
 27 28  2  0
 27 32  1  0
 28 29  1  0
 29 30  2  0
 30 31  1  0
 31 32  2  0
 33 34  1  0
 34 35  2  0
M  CHG  1  12   1
M  END
