
     RDKit          3D

 27 28  0  0  0  0  0  0  0  0999 V2000
    7.8580   -1.5120    0.8670 C   0  0  0  0  0  0  0  0  0  0  0  0
    6.7450   -2.0990    0.2720 O   0  0  0  0  0  0  0  0  0  0  0  0
    5.8290   -1.3640   -0.4560 C   0  0  0  0  0  0  0  0  0  0  0  0
    6.0160   -0.1520   -0.6050 O   0  0  0  0  0  0  0  0  0  0  0  0
    4.6820   -2.0590   -1.0150 C   0  0  0  0  0  0  0  0  0  0  0  0
    3.6850   -1.2190   -1.6000 O   0  0  0  0  0  0  0  0  0  0  0  0
    3.1310   -0.2550   -0.7570 C   0  0  0  0  0  0  0  0  0  0  0  0
    3.6880   -0.2040    0.3970 O   0  0  0  0  0  0  0  0  0  0  0  0
    2.0720    0.6160   -0.9950 N   0  0  0  0  0  0  0  0  0  0  0  0
    1.6370    1.5890   -0.0430 C   0  0  0  0  0  0  0  0  0  0  0  0
    2.2360    2.0100    1.0850 N   0  0  0  0  0  0  0  0  0  0  0  0
    1.4480    2.9460    1.6870 C   0  0  0  0  0  0  0  0  0  0  0  0
    0.3500    3.1100    0.9420 N   0  0  0  0  0  0  0  0  0  0  0  0
    0.4540    2.2770   -0.1430 C   0  0  0  0  0  0  0  0  0  0  0  0
   -0.4870    2.2090   -1.3360 C   0  0  0  0  0  0  0  0  0  0  0  0
   -1.6570    1.6000   -0.9360 O   0  0  0  0  0  0  0  0  0  0  0  0
   -2.5580    1.7550    0.0560 C   0  0  0  0  0  0  0  0  0  0  0  0
   -2.3990    2.6790    0.8760 O   0  0  0  0  0  0  0  0  0  0  0  0
   -3.6900    0.7920    0.1210 C   0  0  0  0  0  0  0  0  0  0  0  0
   -3.6880   -0.0350   -0.8950 C   0  0  0  0  0  0  0  0  0  0  0  0
   -4.4780   -1.1550   -1.3990 C   0  0  0  0  0  0  0  0  0  0  0  0
   -5.3180   -1.9820   -0.8310 C   0  0  0  0  0  0  0  0  0  0  0  0
   -5.8850   -2.2390    0.4920 C   0  0  0  0  0  0  0  0  0  0  0  0
   -6.2080   -1.0760    1.3230 C   0  0  0  0  0  0  0  0  0  0  0  0
   -7.4250   -1.1040    1.7650 O   0  0  0  0  0  0  0  0  0  0  0  0
   -5.5240    0.1230    1.8040 C   0  0  0  0  0  0  0  0  0  0  0  0
   -4.5100    0.8600    1.3020 C   0  0  0  0  0  0  0  0  0  0  0  0
  1  2  1  0
  2  3  1  0
  3  4  2  0
  3  5  1  0
  5  6  1  0
  6  7  1  0
  7  8  2  0
  7  9  1  0
  9 10  1  0
 10 11  1  0
 10 14  2  0
 11 12  1  0
 12 13  2  0
 13 14  1  0
 14 15  1  0
 15 16  1  0
 16 17  1  0
 17 18  2  0
 17 19  1  0
 19 20  2  0
 19 27  1  0
 20 21  1  0
 21 22  2  0
 22 23  1  0
 23 24  1  0
 24 25  2  0
 24 26  1  0
 26 27  2  0
M  END
