
     RDKit          3D

 27 28  0  0  0  0  0  0  0  0999 V2000
   -5.2340   -2.2650   -0.8770 C   0  0  0  0  0  0  0  0  0  0  0  0
   -4.3450   -1.1850   -0.5810 O   0  0  0  0  0  0  0  0  0  0  0  0
   -2.9900   -1.3760   -0.4810 C   0  0  0  0  0  0  0  0  0  0  0  0
   -2.5300   -2.5310   -0.6550 O   0  0  0  0  0  0  0  0  0  0  0  0
   -2.0220   -0.3110   -0.1780 C   0  0  0  0  0  0  0  0  0  0  0  0
   -0.7350   -0.5740   -0.0860 C   0  0  0  0  0  0  0  0  0  0  0  0
    0.1990    0.4490    0.2010 N   0  0  0  0  0  0  0  0  0  0  0  0
    1.5850    0.1390    0.4570 C   0  0  0  0  0  0  0  0  0  0  0  0
    2.1050   -0.7360   -0.3360 N   0  0  0  0  0  0  0  0  0  0  0  0
    3.4140   -1.2150   -0.3110 C   0  0  0  0  0  0  0  0  0  0  0  0
    3.5710   -2.4820   -0.2460 O   0  0  0  0  0  0  0  0  0  0  0  0
    4.6080   -0.4050   -0.3520 C   0  0  0  0  0  0  0  0  0  0  0  0
    4.5010    0.9630   -0.4300 C   0  0  0  0  0  0  0  0  0  0  0  0
    5.6340    1.7530   -0.4670 C   0  0  0  0  0  0  0  0  0  0  0  0
    6.8390    1.1890   -0.4260 O   0  0  0  0  0  0  0  0  0  0  0  0
    6.9750   -0.1050   -0.3510 C   0  0  0  0  0  0  0  0  0  0  0  0
    8.1170   -0.5990   -0.3140 O   0  0  0  0  0  0  0  0  0  0  0  0
    5.8840   -0.9410   -0.3120 C   0  0  0  0  0  0  0  0  0  0  0  0
   -0.3310   -1.8870   -0.2770 O   0  0  0  0  0  0  0  0  0  0  0  0
   -0.0550   -2.7420    0.8400 C   0  0  0  0  0  0  0  0  0  0  0  0
   -2.6160    1.0130    0.0520 C   0  0  0  0  0  0  0  0  0  0  0  0
   -2.3290    1.7530    1.1790 C   0  0  0  0  0  0  0  0  0  0  0  0
   -2.8880    3.0110    1.3470 C   0  0  0  0  0  0  0  0  0  0  0  0
   -3.7250    3.5210    0.3950 C   0  0  0  0  0  0  0  0  0  0  0  0
   -3.9900    2.7840   -0.6930 N   0  0  0  0  0  0  0  0  0  0  0  0
   -3.4680    1.5580   -0.8960 C   0  0  0  0  0  0  0  0  0  0  0  0
   -3.7720    0.9350   -1.9520 O   0  0  0  0  0  0  0  0  0  0  0  0
  1  2  1  0
  2  3  1  0
  3  4  2  0
  3  5  1  0
  5  6  2  3
  5 21  1  0
  6  7  1  0
  6 19  1  0
  7  8  1  0
  8  9  2  3
  9 10  1  0
 10 11  2  0
 10 12  1  0
 12 13  1  0
 12 18  2  0
 13 14  2  0
 14 15  1  0
 15 16  1  0
 16 17  2  0
 16 18  1  0
 19 20  1  0
 21 22  2  0
 21 26  1  0
 22 23  1  0
 23 24  2  0
 24 25  1  0
 25 26  1  0
 26 27  2  0
M  END
