
     RDKit          3D

 27 28  0  0  0  0  0  0  0  0999 V2000
    6.4550   -3.3730    2.9800 O   0  0  0  0  0  0  0  0  0  0  0  0
    6.1220   -2.3060    3.5540 C   0  0  0  0  0  0  0  0  0  0  0  0
    5.0690   -1.5560    3.0780 O   0  0  0  0  0  0  0  0  0  0  0  0
    4.3080   -1.9400    1.9280 C   0  0  0  0  0  0  0  0  0  0  0  0
    3.2550   -0.8640    1.7380 C   0  0  0  0  0  0  0  0  0  0  0  0
    2.4150   -1.2210    0.5260 C   0  0  0  0  0  0  0  0  0  0  0  0
    1.3920   -0.2610    0.2660 N   0  0  0  0  0  0  0  0  0  0  0  0
    1.6460    0.9010   -0.6190 C   0  0  0  0  0  0  0  0  0  0  0  0
    2.6950    0.8540   -1.3140 O   0  0  0  0  0  0  0  0  0  0  0  0
    0.8200    2.0490   -0.7480 N   0  0  0  0  0  0  0  0  0  0  0  0
   -0.4300    2.3100   -1.3940 C   0  0  0  0  0  0  0  0  0  0  0  0
   -1.4630    2.9460   -0.5300 C   0  0  0  0  0  0  0  0  0  0  0  0
   -2.2330    2.2260    0.2780 O   0  0  0  0  0  0  0  0  0  0  0  0
   -3.5620    2.0460    0.0380 C   0  0  0  0  0  0  0  0  0  0  0  0
   -4.1820    1.0710    1.1430 C   0  0  0  0  0  0  0  0  0  0  0  0
   -2.9930    0.8400    2.0350 C   0  0  0  0  0  0  0  0  0  0  0  0
   -1.8440    0.3360    1.6020 C   0  0  0  0  0  0  0  0  0  0  0  0
   -0.9440    0.2990    2.6250 O   0  0  0  0  0  0  0  0  0  0  0  0
    0.1700   -0.0930    2.2870 N   0  0  0  0  0  0  0  0  0  0  0  0
    0.0720   -0.3620    0.9260 C   0  0  0  0  0  0  0  0  0  0  0  0
   -1.2040   -0.1480    0.4440 C   0  0  0  0  0  0  0  0  0  0  0  0
   -1.8100   -0.5920   -0.7090 C   0  0  0  0  0  0  0  0  0  0  0  0
   -1.4740   -1.1150   -1.9710 C   0  0  0  0  0  0  0  0  0  0  0  0
   -0.4030   -1.4560   -2.5730 C   0  0  0  0  0  0  0  0  0  0  0  0
    0.9170   -1.4860   -2.2970 O   0  0  0  0  0  0  0  0  0  0  0  0
   -2.7570   -1.3310   -2.8880 C   0  0  0  0  0  0  0  0  0  0  0  0
   -2.3670   -1.8310   -4.0880 O   0  0  0  0  0  0  0  0  0  0  0  0
  1  2  2  0
  2  3  1  0
  3  4  1  0
  4  5  1  0
  5  6  1  0
  6  7  1  0
  7  8  1  0
  7 20  1  0
  8  9  2  0
  8 10  1  0
 10 11  1  0
 11 12  1  0
 12 13  1  0
 13 14  1  0
 14 15  1  0
 15 16  1  0
 16 17  2  0
 17 18  1  0
 17 21  1  0
 18 19  1  0
 19 20  2  0
 20 21  1  0
 21 22  2  3
 22 23  1  0
 23 24  2  3
 23 26  1  0
 24 25  1  0
 26 27  1  0
M  END
