
     RDKit          3D

 27 28  0  0  0  0  0  0  0  0999 V2000
    3.7390    3.8290   -0.6300 C   0  0  0  0  0  0  0  0  0  0  0  0
    4.0700    2.5190   -0.1660 N   0  0  0  0  0  0  0  0  0  0  0  0
    3.1020    1.4670    0.0290 C   0  0  0  0  0  0  0  0  0  0  0  0
    1.9330    1.7590   -0.2350 O   0  0  0  0  0  0  0  0  0  0  0  0
    3.5260    0.1440    0.5120 C   0  0  0  0  0  0  0  0  0  0  0  0
    2.4140   -0.8590    0.5820 C   0  0  0  0  0  0  0  0  0  0  0  0
    1.8050   -1.1420   -0.7450 C   0  0  0  0  0  0  0  0  0  0  0  0
    0.7430   -2.1340   -0.6700 N   0  0  0  0  0  0  0  0  0  0  0  0
   -0.6090   -1.8040   -0.4510 C   0  0  0  0  0  0  0  0  0  0  0  0
   -1.4600   -2.7190   -0.3750 O   0  0  0  0  0  0  0  0  0  0  0  0
   -1.0530   -0.4550   -0.3120 N   0  0  0  0  0  0  0  0  0  0  0  0
   -2.4320   -0.1110   -0.0740 C   0  0  0  0  0  0  0  0  0  0  0  0
   -3.1760   -1.1410   -0.0080 O   0  0  0  0  0  0  0  0  0  0  0  0
   -2.8840    1.2510    0.0660 C   0  0  0  0  0  0  0  0  0  0  0  0
   -2.0280    2.2570   -0.0250 C   0  0  0  0  0  0  0  0  0  0  0  0
   -2.4390    3.6710    0.1120 C   0  0  0  0  0  0  0  0  0  0  0  0
   -3.6980    3.9730    0.3340 C   0  0  0  0  0  0  0  0  0  0  0  0
   -4.6130    2.9610    0.4350 O   0  0  0  0  0  0  0  0  0  0  0  0
   -4.2640    1.5930    0.3100 C   0  0  0  0  0  0  0  0  0  0  0  0
   -5.2190    0.6950    0.4240 C   0  0  0  0  0  0  0  0  0  0  0  0
   -6.5480    1.1170    0.6640 O   0  0  0  0  0  0  0  0  0  0  0  0
   -7.2100    0.6820    1.7470 O   0  0  0  0  0  0  0  0  0  0  0  0
    1.0860   -3.5050   -0.8160 C   0  0  0  0  0  0  0  0  0  0  0  0
    1.4810   -4.2820    0.2540 C   0  0  0  0  0  0  0  0  0  0  0  0
    1.7380   -5.5640   -0.2470 C   0  0  0  0  0  0  0  0  0  0  0  0
    1.4810   -5.4720   -1.5930 C   0  0  0  0  0  0  0  0  0  0  0  0
    1.1000   -4.2610   -1.9110 O   0  0  0  0  0  0  0  0  0  0  0  0
  1  2  1  0
  2  3  1  0
  3  4  2  0
  3  5  1  0
  5  6  1  0
  6  7  1  0
  7  8  1  0
  8  9  1  0
  8 23  1  0
  9 10  2  0
  9 11  1  0
 11 12  1  0
 12 13  2  0
 12 14  1  0
 14 15  2  0
 14 19  1  0
 15 16  1  0
 16 17  2  0
 17 18  1  0
 18 19  1  0
 19 20  2  3
 20 21  1  0
 21 22  1  0
 23 24  2  0
 23 27  1  0
 24 25  1  0
 25 26  2  0
 26 27  1  0
M  END
