
     RDKit          3D

 27 29  0  0  0  0  0  0  0  0999 V2000
   -7.3730    0.7320   -1.1470 N   0  0  0  0  0  0  0  0  0  0  0  0
   -6.2510    0.9090   -0.3080 C   0  0  0  0  0  0  0  0  0  0  0  0
   -6.4260    1.4550    0.9030 N   0  0  0  0  0  0  0  0  0  0  0  0
   -5.3750    1.6470    1.7510 C   0  0  0  0  0  0  0  0  0  0  0  0
   -4.1400    1.2830    1.3670 N   0  0  0  0  0  0  0  0  0  0  0  0
   -3.8840    0.7230    0.1540 C   0  0  0  0  0  0  0  0  0  0  0  0
   -4.9800    0.5450   -0.6790 C   0  0  0  0  0  0  0  0  0  0  0  0
   -4.5090   -0.0100   -1.7980 N   0  0  0  0  0  0  0  0  0  0  0  0
   -3.1800   -0.1640   -1.6550 C   0  0  0  0  0  0  0  0  0  0  0  0
   -2.7740    0.2800   -0.4630 N   0  0  0  0  0  0  0  0  0  0  0  0
   -1.4540    0.2990    0.0820 C   0  0  2  0  0  0  0  0  0  0  0  0
   -0.4800    0.5930   -0.8650 O   0  0  0  0  0  0  0  0  0  0  0  0
    0.6910    0.4230   -0.1210 C   0  0  2  0  0  0  0  0  0  0  0  0
    1.8950    0.2270   -1.0300 C   0  0  0  0  0  0  0  0  0  0  0  0
    3.0040    0.0670   -0.2180 O   0  0  0  0  0  0  0  0  0  0  0  0
    4.4230   -0.1610   -1.0870 P   0  0  2  0  0  0  0  0  0  0  0  0
    4.1620   -0.1330   -2.5910 O   0  0  0  0  0  0  0  0  0  0  0  0
    5.1430   -1.6480   -0.7510 O   0  0  0  0  0  0  0  0  0  0  0  0
    5.4980    1.0690   -0.6530 O   0  0  0  0  0  0  0  0  0  0  0  0
    6.8270    0.4630    0.1920 P   0  0  1  0  0  0  0  0  0  0  0  0
    7.6460    1.6750    0.6370 O   0  0  0  0  0  0  0  0  0  0  0  0
    6.3260   -0.3910    1.5600 O   0  0  0  0  0  0  0  0  0  0  0  0
    7.7760   -0.5580   -0.7520 O   0  0  0  0  0  0  0  0  0  0  0  0
    0.4900   -0.8110    0.7240 C   0  0  1  0  0  0  0  0  0  0  0  0
    0.7280   -0.4870    2.0490 O   0  0  0  0  0  0  0  0  0  0  0  0
   -0.9910   -1.0740    0.5360 C   0  0  1  0  0  0  0  0  0  0  0  0
   -1.6050   -1.4630    1.7170 O   0  0  0  0  0  0  0  0  0  0  0  0
  1  2  1  0
  2  3  2  0
  2  7  1  0
  3  4  1  0
  4  5  2  0
  5  6  1  0
  6  7  2  0
  6 10  1  0
  7  8  1  0
  8  9  2  0
  9 10  1  0
 11 10  1  6
 11 12  1  0
 11 26  1  0
 12 13  1  0
 13 14  1  6
 13 24  1  0
 14 15  1  0
 15 16  1  0
 16 17  2  0
 16 18  1  1
 16 19  1  0
 19 20  1  0
 20 21  2  0
 20 22  1  1
 20 23  1  0
 24 25  1  1
 24 26  1  0
 26 27  1  1
M  END
