
     RDKit          3D

 22 24  0  0  0  0  0  0  0  0999 V2000
   -7.2080    1.1320   -0.5850 C   0  0  0  0  0  0  0  0  0  0  0  0
   -5.8050    0.7130   -0.3700 C   0  0  0  0  0  0  0  0  0  0  0  0
   -5.4030   -0.3920    0.3150 C   0  0  0  0  0  0  0  0  0  0  0  0
   -4.0050   -0.4220    0.2850 C   0  0  0  0  0  0  0  0  0  0  0  0
   -3.2410   -1.5090    0.9420 C   0  0  0  0  0  0  0  0  0  0  0  0
   -3.6090    0.6400   -0.4010 N   0  0  0  0  0  0  0  0  0  0  0  0
   -2.2960    1.0560   -0.7070 C   0  0  0  0  0  0  0  0  0  0  0  0
   -2.2130    2.1480   -1.4080 O   0  0  0  0  0  0  0  0  0  0  0  0
   -1.1040    0.3820   -0.3120 C   0  0  0  0  0  0  0  0  0  0  0  0
    0.0770    0.9060   -0.6840 C   0  0  0  0  0  0  0  0  0  0  0  0
    1.3390    0.2710   -0.3150 C   0  0  0  0  0  0  0  0  0  0  0  0
    1.4120   -0.8930    0.4280 C   0  0  0  0  0  0  0  0  0  0  0  0
    2.7680   -1.1600    0.5570 C   0  0  0  0  0  0  0  0  0  0  0  0
    3.4600   -0.1660   -0.1010 C   0  0  0  0  0  0  0  0  0  0  0  0
    4.9160   -0.0740   -0.2040 C   0  0  0  0  0  0  0  0  0  0  0  0
    5.4970    0.9700   -0.8910 C   0  0  0  0  0  0  0  0  0  0  0  0
    6.8750    1.0930   -1.0120 C   0  0  0  0  0  0  0  0  0  0  0  0
    7.6800    0.1750   -0.4490 N   0  0  0  0  0  0  0  0  0  0  0  0
    7.1390   -0.8620    0.2320 C   0  0  0  0  0  0  0  0  0  0  0  0
    5.7530   -1.0060    0.3670 C   0  0  0  0  0  0  0  0  0  0  0  0
    2.5530    0.6390   -0.5880 O   0  0  0  0  0  0  0  0  0  0  0  0
   -4.7190    1.3390   -0.8040 N   0  0  0  0  0  0  0  0  0  0  0  0
  1  2  1  0
  2  3  1  0
  2 22  2  0
  3  4  2  0
  4  5  1  0
  4  6  1  0
  6  7  1  0
  6 22  1  0
  7  8  2  0
  7  9  1  0
  9 10  2  3
 10 11  1  0
 11 12  2  0
 11 21  1  0
 12 13  1  0
 13 14  2  0
 14 15  1  0
 14 21  1  0
 15 16  2  0
 15 20  1  0
 16 17  1  0
 17 18  2  0
 18 19  1  0
 19 20  2  0
M  END
