
     RDKit          3D

 22 24  0  0  0  0  0  0  0  0999 V2000
   -5.5510   -1.6770    1.6780 C   0  0  0  0  0  0  0  0  0  0  0  0
   -5.1040   -0.6270    0.7200 C   0  0  0  0  0  0  0  0  0  0  0  0
   -3.7940   -0.5920    0.4260 C   0  0  0  0  0  0  0  0  0  0  0  0
   -3.0910    0.3180   -0.4690 C   0  0  0  0  0  0  0  0  0  0  0  0
   -1.7980    0.0380   -0.5970 N   0  0  0  0  0  0  0  0  0  0  0  0
   -0.9520    0.7340   -1.3650 C   0  0  0  0  0  0  0  0  0  0  0  0
    0.4630    0.5150   -1.3900 C   0  0  0  0  0  0  0  0  0  0  0  0
    1.2210    0.6360   -2.3420 O   0  0  0  0  0  0  0  0  0  0  0  0
    1.0910    0.1410   -0.1980 N   0  0  0  0  0  0  0  0  0  0  0  0
    2.4650   -0.0240   -0.2320 C   0  0  0  0  0  0  0  0  0  0  0  0
    2.9510   -0.2610    0.9200 N   0  0  0  0  0  0  0  0  0  0  0  0
    4.4130   -0.4180    0.7940 C   0  0  0  0  0  0  0  0  0  0  0  0
    5.2520    0.5630    0.9340 C   0  0  0  0  0  0  0  0  0  0  0  0
    6.6560    0.1190    0.7540 C   0  0  0  0  0  0  0  0  0  0  0  0
    6.5420   -1.2890    0.2650 C   0  0  0  0  0  0  0  0  0  0  0  0
    5.1070   -1.6580    0.4590 C   0  0  0  0  0  0  0  0  0  0  0  0
   -1.4120    1.8400   -2.1020 C   0  0  0  0  0  0  0  0  0  0  0  0
   -2.7320    2.1430   -1.9830 C   0  0  0  0  0  0  0  0  0  0  0  0
   -3.5740    1.4020   -1.1820 C   0  0  0  0  0  0  0  0  0  0  0  0
   -4.8550    1.8750   -1.2060 O   0  0  0  0  0  0  0  0  0  0  0  0
   -6.0000    1.3170   -0.6240 C   0  0  0  0  0  0  0  0  0  0  0  0
   -6.1100    0.2700    0.1830 C   0  0  0  0  0  0  0  0  0  0  0  0
  1  2  1  0
  2  3  2  0
  2 22  1  0
  3  4  1  0
  4  5  2  0
  4 19  1  0
  5  6  1  0
  6  7  1  0
  6 17  2  0
  7  8  2  0
  7  9  1  0
  9 10  1  0
 10 11  2  3
 11 12  1  0
 12 13  2  0
 12 16  1  0
 13 14  1  0
 14 15  1  0
 15 16  1  0
 17 18  1  0
 18 19  2  0
 19 20  1  0
 20 21  1  0
 21 22  2  0
M  END
