
     RDKit          3D

 22 24  0  0  0  0  0  0  0  0999 V2000
    3.6180   -0.5000   -2.3830 C   0  0  0  0  0  0  0  0  0  0  0  0
    3.1020    0.9450   -2.4490 C   0  0  2  0  0  0  0  0  0  0  0  0
    4.1550    1.9050   -2.1100 C   0  0  0  0  0  0  0  0  0  0  0  0
    4.1380    2.4890   -0.7460 C   0  0  0  0  0  0  0  0  0  0  0  0
    2.7550    2.7850   -0.2070 C   0  0  0  0  0  0  0  0  0  0  0  0
    2.0400    1.5220   -0.3130 N   0  0  0  0  0  0  0  0  0  0  0  0
    1.5840    0.9360    0.8780 C   0  0  0  0  0  0  0  0  0  0  0  0
    1.7890    1.4810    2.0140 O   0  0  0  0  0  0  0  0  0  0  0  0
    0.8570   -0.3210    0.8480 C   0  0  0  0  0  0  0  0  0  0  0  0
    0.4510   -0.8280    2.0120 C   0  0  0  0  0  0  0  0  0  0  0  0
   -0.2770   -2.0720    2.0730 N   0  0  0  0  0  0  0  0  0  0  0  0
   -1.5810   -2.0470    1.9880 C   0  0  0  0  0  0  0  0  0  0  0  0
   -2.3750   -3.2980    2.0450 C   0  0  0  0  0  0  0  0  0  0  0  0
   -3.3050   -3.2540    0.9560 O   0  0  0  0  0  0  0  0  0  0  0  0
   -4.0310   -2.0840    0.7870 C   0  0  0  0  0  0  0  0  0  0  0  0
   -5.2770   -2.1940    0.1620 C   0  0  0  0  0  0  0  0  0  0  0  0
   -6.0200   -1.0250   -0.0160 C   0  0  0  0  0  0  0  0  0  0  0  0
   -5.5650    0.1970    0.3990 C   0  0  0  0  0  0  0  0  0  0  0  0
   -4.3250    0.2600    1.0140 C   0  0  0  0  0  0  0  0  0  0  0  0
   -3.5580   -0.8610    1.2120 C   0  0  0  0  0  0  0  0  0  0  0  0
   -2.2870   -0.8220    1.8380 N   0  0  0  0  0  0  0  0  0  0  0  0
    1.8620    0.9830   -1.5980 C   0  0  0  0  0  0  0  0  0  0  0  0
  2  1  1  1
  2  3  1  0
  2 22  1  0
  3  4  1  0
  4  5  1  0
  5  6  1  0
  6  7  1  0
  6 22  1  0
  7  8  2  0
  7  9  1  0
  9 10  2  3
 10 11  1  0
 11 12  2  3
 12 13  1  0
 12 21  1  0
 13 14  1  0
 14 15  1  0
 15 16  2  0
 15 20  1  0
 16 17  1  0
 17 18  2  0
 18 19  1  0
 19 20  2  0
 20 21  1  0
M  END
