
     RDKit          3D

 22 24  0  0  0  0  0  0  0  0999 V2000
   -3.9600    1.9570    1.1910 C   0  0  0  0  0  0  0  0  0  0  0  0
   -3.6180    0.5440    1.5590 C   0  0  0  0  0  0  0  0  0  0  0  0
   -2.8160   -0.1790    0.5590 C   0  0  0  0  0  0  0  0  0  0  0  0
   -1.4460   -0.3730    0.7660 C   0  0  0  0  0  0  0  0  0  0  0  0
   -0.6450   -1.0470   -0.1280 C   0  0  0  0  0  0  0  0  0  0  0  0
    0.6960   -1.3560   -0.1310 C   0  0  0  0  0  0  0  0  0  0  0  0
    1.7580   -1.0160    0.8790 C   0  0  0  0  0  0  0  0  0  0  0  0
    2.2150    0.3640    0.7340 C   0  0  0  0  0  0  0  0  0  0  0  0
    1.4170    1.3140    0.8420 O   0  0  0  0  0  0  0  0  0  0  0  0
    3.5800    0.6260    0.4630 N   0  0  0  0  0  0  0  0  0  0  0  0
    4.4750   -0.3510    0.3500 N   0  0  0  0  0  0  0  0  0  0  0  0
    5.7750   -0.1450    0.0770 C   0  0  0  0  0  0  0  0  0  0  0  0
    6.2260    1.1580   -0.1000 C   0  0  0  0  0  0  0  0  0  0  0  0
    5.3120    2.1700    0.0150 C   0  0  0  0  0  0  0  0  0  0  0  0
    3.9900    1.8840    0.2990 C   0  0  0  0  0  0  0  0  0  0  0  0
    3.1700    2.8570    0.3970 O   0  0  0  0  0  0  0  0  0  0  0  0
    0.8910   -2.0620   -1.3190 C   0  0  0  0  0  0  0  0  0  0  0  0
   -0.2770   -2.1570   -1.9740 N   0  0  0  0  0  0  0  0  0  0  0  0
   -1.2540   -1.5430   -1.2730 C   0  0  0  0  0  0  0  0  0  0  0  0
   -2.6090   -1.3670   -1.5080 C   0  0  0  0  0  0  0  0  0  0  0  0
   -3.3950   -0.6880   -0.5980 C   0  0  0  0  0  0  0  0  0  0  0  0
   -4.8550   -0.4820   -0.8100 C   0  0  0  0  0  0  0  0  0  0  0  0
  1  2  1  0
  2  3  1  0
  3  4  2  0
  3 21  1  0
  4  5  1  0
  5  6  1  0
  5 19  2  0
  6  7  1  0
  6 17  2  0
  7  8  1  0
  8  9  2  0
  8 10  1  0
 10 11  1  0
 10 15  1  0
 11 12  2  0
 12 13  1  0
 13 14  2  0
 14 15  1  0
 15 16  2  0
 17 18  1  0
 18 19  1  0
 19 20  1  0
 20 21  2  0
 21 22  1  0
M  END
