
     RDKit          3D

 22 24  0  0  0  0  0  0  0  0999 V2000
   -4.6190   -0.7660   -1.8990 C   0  0  0  0  0  0  0  0  0  0  0  0
   -3.4070   -1.4110   -1.3620 C   0  0  0  0  0  0  0  0  0  0  0  0
   -2.6780   -0.8930   -0.4110 C   0  0  0  0  0  0  0  0  0  0  0  0
   -1.4620   -1.6240    0.0660 C   0  0  0  0  0  0  0  0  0  0  0  0
   -0.3250   -0.6960    0.1410 N   0  0  0  0  0  0  0  0  0  0  0  0
    0.9520   -1.2460   -0.1930 C   0  0  0  0  0  0  0  0  0  0  0  0
    2.0570   -0.4040   -0.1750 C   0  0  0  0  0  0  0  0  0  0  0  0
    3.3180   -0.8760   -0.4870 C   0  0  0  0  0  0  0  0  0  0  0  0
    4.4680    0.0090   -0.4650 C   0  0  0  0  0  0  0  0  0  0  0  0
    5.6010   -0.4530   -0.7550 O   0  0  0  0  0  0  0  0  0  0  0  0
    4.3680    1.3360   -0.1410 O   0  0  0  0  0  0  0  0  0  0  0  0
    5.4210    2.2500   -0.0970 C   0  0  0  0  0  0  0  0  0  0  0  0
    3.4410   -2.2060   -0.8160 C   0  0  0  0  0  0  0  0  0  0  0  0
    2.3320   -3.0590   -0.8360 C   0  0  0  0  0  0  0  0  0  0  0  0
    1.1140   -2.5340   -0.5180 N   0  0  0  0  0  0  0  0  0  0  0  0
   -0.4770    0.6780    0.5280 C   0  0  2  0  0  0  0  0  0  0  0  0
    0.2350    0.9890    1.8310 C   0  0  0  0  0  0  0  0  0  0  0  0
   -1.8790    1.0970    0.6890 C   0  0  0  0  0  0  0  0  0  0  0  0
   -2.4400    2.2310    1.2710 C   0  0  0  0  0  0  0  0  0  0  0  0
   -3.8070    2.1460    1.1650 C   0  0  0  0  0  0  0  0  0  0  0  0
   -4.1150    0.9860    0.5300 N   0  0  0  0  0  0  0  0  0  0  0  0
   -2.9540    0.3670    0.2500 C   0  0  0  0  0  0  0  0  0  0  0  0
  1  2  1  0
  2  3  2  3
  3  4  1  0
  3 22  1  0
  4  5  1  0
  5  6  1  0
  5 16  1  0
  6  7  2  0
  6 15  1  0
  7  8  1  0
  8  9  1  0
  8 13  2  0
  9 10  2  0
  9 11  1  0
 11 12  1  0
 13 14  1  0
 14 15  2  0
 16 17  1  1
 16 18  1  0
 18 19  1  0
 18 22  2  0
 19 20  2  0
 20 21  1  0
 21 22  1  0
M  END
