
     RDKit          3D

 22 24  0  0  0  0  0  0  0  0999 V2000
    3.5530   -1.3850   -2.9080 C   0  0  0  0  0  0  0  0  0  0  0  0
    3.5890   -0.4040   -2.0370 C   0  0  0  0  0  0  0  0  0  0  0  0
    2.5220   -0.2220   -1.0820 C   0  0  0  0  0  0  0  0  0  0  0  0
    1.1950   -0.2900   -1.4610 C   0  0  0  0  0  0  0  0  0  0  0  0
    0.8210   -0.3960   -2.9010 C   0  0  0  0  0  0  0  0  0  0  0  0
    0.2460   -0.1860   -0.4660 C   0  0  0  0  0  0  0  0  0  0  0  0
   -1.1810   -0.2740   -0.7510 C   0  0  0  0  0  0  0  0  0  0  0  0
   -1.5210   -0.4430   -1.9480 O   0  0  0  0  0  0  0  0  0  0  0  0
   -2.1830   -0.1820    0.2210 N   0  0  0  0  0  0  0  0  0  0  0  0
   -1.8450    0.0170    1.6070 C   0  0  0  0  0  0  0  0  0  0  0  0
   -3.0780    0.1740    2.4730 C   0  0  0  0  0  0  0  0  0  0  0  0
   -4.1110    1.0760    1.8690 C   0  0  0  0  0  0  0  0  0  0  0  0
   -4.1790    1.0370    0.3830 C   0  0  0  0  0  0  0  0  0  0  0  0
   -3.5710   -0.2760   -0.0850 C   0  0  1  0  0  0  0  0  0  0  0  0
   -3.9520   -0.6290   -1.4720 C   0  0  0  0  0  0  0  0  0  0  0  0
    0.6400   -0.0180    0.8190 N   0  0  0  0  0  0  0  0  0  0  0  0
    1.9000    0.0550    1.2160 C   0  0  0  0  0  0  0  0  0  0  0  0
    2.8900   -0.0460    0.2670 C   0  0  0  0  0  0  0  0  0  0  0  0
    4.2580    0.0260    0.6480 N   0  0  0  0  0  0  0  0  0  0  0  0
    4.6830    0.3180    1.9950 C   0  0  0  0  0  0  0  0  0  0  0  0
    3.5580    0.8330    2.8530 C   0  0  0  0  0  0  0  0  0  0  0  0
    2.3060    0.2290    2.5390 O   0  0  0  0  0  0  0  0  0  0  0  0
  1  2  2  0
  2  3  1  0
  3  4  2  0
  3 18  1  0
  4  5  1  0
  4  6  1  0
  6  7  1  0
  6 16  2  0
  7  8  2  0
  7  9  1  0
  9 10  1  0
  9 14  1  0
 10 11  1  0
 11 12  1  0
 12 13  1  0
 13 14  1  0
 14 15  1  6
 16 17  1  0
 17 18  2  0
 17 22  1  0
 18 19  1  0
 19 20  1  0
 20 21  1  0
 21 22  1  0
M  END
