
     RDKit          3D

 13 14  0  0  0  0  0  0  0  0999 V2000
   -3.0280   -0.9970    0.4120 C   0  0  0  0  0  0  0  0  0  0  0  0
   -1.7670   -0.2120    0.2100 C   0  0  2  0  0  0  0  0  0  0  0  0
   -1.8260    0.7260   -0.9540 C   0  0  0  0  0  0  0  0  0  0  0  0
   -0.9410    1.9170   -0.6950 C   0  0  0  0  0  0  0  0  0  0  0  0
   -1.3800    3.0510   -0.9530 O   0  0  0  0  0  0  0  0  0  0  0  0
    0.3780    1.8860   -0.1720 N   0  0  0  0  0  0  0  0  0  0  0  0
    1.2080    0.7340    0.0140 C   0  0  0  0  0  0  0  0  0  0  0  0
    2.5480    1.0190    0.0470 C   0  0  0  0  0  0  0  0  0  0  0  0
    3.4360   -0.0010    0.2190 C   0  0  0  0  0  0  0  0  0  0  0  0
    2.9910   -1.3150    0.3590 C   0  0  0  0  0  0  0  0  0  0  0  0
    1.6490   -1.6340    0.3300 C   0  0  0  0  0  0  0  0  0  0  0  0
    0.7530   -0.5830    0.1540 C   0  0  0  0  0  0  0  0  0  0  0  0
   -0.5920   -1.0630    0.1450 N   0  0  0  0  0  0  0  0  0  0  0  0
  2  1  1  6
  2  3  1  0
  2 13  1  0
  3  4  1  0
  4  5  2  0
  4  6  1  0
  6  7  1  0
  7  8  2  0
  7 12  1  0
  8  9  1  0
  9 10  2  0
 10 11  1  0
 11 12  2  0
 12 13  1  0
M  END
