
     RDKit          3D

 18 18  0  0  0  0  0  0  0  0999 V2000
   -4.4250   -1.4190   -0.1080 N   0  0  0  0  0  0  0  0  0  0  0  0
   -3.1820   -1.0800   -0.7720 C   0  0  0  0  0  0  0  0  0  0  0  0
   -2.2800   -0.3890    0.1940 C   0  0  0  0  0  0  0  0  0  0  0  0
   -2.7400    0.8030    0.7500 O   0  0  0  0  0  0  0  0  0  0  0  0
   -1.0770   -0.8560    0.5390 C   0  0  0  0  0  0  0  0  0  0  0  0
   -0.2360    0.2180    1.7300 S   0  0  0  0  0  0  0  0  0  0  0  0
   -0.0630    1.8940    1.0350 C   0  0  0  0  0  0  0  0  0  0  0  0
    1.2380    2.4480    1.4820 C   0  0  0  0  0  0  0  0  0  0  0  0
    1.3300    2.5750    2.7520 O   0  0  0  0  0  0  0  0  0  0  0  0
    2.1950    2.7710    0.6170 O   0  0  0  0  0  0  0  0  0  0  0  0
    3.1330    2.2250   -0.1880 C   0  0  0  0  0  0  0  0  0  0  0  0
    2.7450    1.5510   -1.4500 C   0  0  0  0  0  0  0  0  0  0  0  0
    2.9190    0.1590   -1.4650 O   0  0  0  0  0  0  0  0  0  0  0  0
    2.0240   -0.3700   -0.5330 C   0  0  0  0  0  0  0  0  0  0  0  0
    1.9890   -1.8460   -0.4050 C   0  0  0  0  0  0  0  0  0  0  0  0
    0.6710   -2.4200   -0.5810 N   0  0  0  0  0  0  0  0  0  0  0  0
   -0.5310   -2.0920    0.0200 C   0  0  0  0  0  0  0  0  0  0  0  0
   -1.3500   -3.0890    0.1520 O   0  0  0  0  0  0  0  0  0  0  0  0
  1  2  1  0
  2  3  1  0
  3  4  1  0
  3  5  2  3
  5  6  1  0
  5 17  1  0
  6  7  1  0
  7  8  1  0
  8  9  2  0
  8 10  1  0
 10 11  1  0
 11 12  1  0
 12 13  1  0
 13 14  1  0
 14 15  1  0
 15 16  1  0
 16 17  1  0
 17 18  2  0
M  CHG  1   1   1
M  END
