
     RDKit          3D

  7  6  0  0  0  0  0  0  0  0999 V2000
    0.9550   -0.8160   -0.7570 N   0  0  0  0  0  0  0  0  0  0  0  0
    0.3500   -0.3280    0.4420 C   0  0  2  0  0  0  0  0  0  0  0  0
   -1.0730   -0.8010    0.6280 C   0  0  0  0  0  0  0  0  0  0  0  0
   -1.9070   -0.4000   -0.4090 O   0  0  0  0  0  0  0  0  0  0  0  0
    0.3550    1.1680    0.4770 C   0  0  0  0  0  0  0  0  0  0  0  0
   -0.1340    1.7840    1.4550 O   0  0  0  0  0  0  0  0  0  0  0  0
    0.8950    1.9170   -0.5570 O   0  0  0  0  0  0  0  0  0  0  0  0
  2  1  1  6
  2  3  1  0
  2  5  1  0
  3  4  1  0
  5  6  2  0
  5  7  1  0
M  CHG  1   1   1
M  END
