
     RDKit          3D

 18 19  0  0  0  0  0  0  0  0999 V2000
   -0.6690    0.8010   -1.3400 O   0  0  0  0  0  0  0  0  0  0  0  0
   -0.1370    0.2110   -0.3810 C   0  0  0  0  0  0  0  0  0  0  0  0
    1.2690    0.0830   -0.3000 N   0  0  0  0  0  0  0  0  0  0  0  0
    2.1240    0.6390   -1.3400 C   0  0  0  0  0  0  0  0  0  0  0  0
    3.5170    0.3550   -0.9890 C   0  0  0  0  0  0  0  0  0  0  0  0
    4.4250   -0.3270   -1.6460 C   0  0  0  0  0  0  0  0  0  0  0  0
    5.6870   -0.4430   -1.0800 N   0  0  0  0  0  0  0  0  0  0  0  0
    5.6590   -0.4050    0.3640 C   0  0  0  0  0  0  0  0  0  0  0  0
    4.3300    0.8800    0.5180 S   0  0  0  0  0  0  0  0  0  0  0  0
   -0.9200   -0.3220    0.6130 O   0  0  0  0  0  0  0  0  0  0  0  0
   -2.3240   -0.2560    0.6390 C   0  0  2  0  0  0  0  0  0  0  0  0
   -2.7550   -0.9790    1.9230 C   0  0  0  0  0  0  0  0  0  0  0  0
   -2.1550   -0.2690    2.9800 O   0  0  0  0  0  0  0  0  0  0  0  0
   -2.8500   -1.0030   -0.5650 C   0  0  0  0  0  0  0  0  0  0  0  0
   -3.9230   -0.3710   -1.1650 O   0  0  0  0  0  0  0  0  0  0  0  0
   -4.7910    0.2070   -0.2610 C   0  0  0  0  0  0  0  0  0  0  0  0
   -4.1200    1.1490    0.6950 C   0  0  0  0  0  0  0  0  0  0  0  0
   -2.7370    1.0630    0.6650 O   0  0  0  0  0  0  0  0  0  0  0  0
  1  2  2  0
  2  3  1  0
  2 10  1  0
  3  4  1  0
  4  5  1  0
  5  6  2  0
  5  9  1  0
  6  7  1  0
  7  8  1  0
  8  9  1  0
 10 11  1  0
 11 12  1  1
 11 14  1  0
 11 18  1  0
 12 13  1  0
 14 15  1  0
 15 16  1  0
 16 17  1  0
 17 18  1  0
M  CHG  1   7   1
M  END
