
     RDKit          3D

 18 19  0  0  0  0  0  0  0  0999 V2000
    1.3090   -2.8610    0.4800 N   0  0  0  0  0  0  0  0  0  0  0  0
    1.6900   -1.5010    0.2630 C   0  0  0  0  0  0  0  0  0  0  0  0
    3.0040   -1.1130    0.1370 C   0  0  0  0  0  0  0  0  0  0  0  0
    3.4040    0.1770   -0.0710 C   0  0  0  0  0  0  0  0  0  0  0  0
    2.4270    1.1470   -0.1610 C   0  0  0  0  0  0  0  0  0  0  0  0
    1.0940    0.7930   -0.0390 C   0  0  0  0  0  0  0  0  0  0  0  0
    0.7010   -0.5150    0.1720 C   0  0  0  0  0  0  0  0  0  0  0  0
   -0.6370   -0.8570    0.2920 O   0  0  0  0  0  0  0  0  0  0  0  0
   -1.5880    0.1820    0.1910 C   0  0  0  0  0  0  0  0  0  0  0  0
   -2.9680   -0.2920    0.3320 C   0  0  0  0  0  0  0  0  0  0  0  0
   -3.2420   -1.5020    0.5220 O   0  0  0  0  0  0  0  0  0  0  0  0
   -4.0170    0.6630    0.2480 N   0  0  0  0  0  0  0  0  0  0  0  0
   -5.3680    0.3040    0.3710 C   0  0  0  0  0  0  0  0  0  0  0  0
   -6.3930    1.2270    0.2900 O   0  0  0  0  0  0  0  0  0  0  0  0
   -5.7420   -1.2650    0.6190 S   0  0  0  0  0  0  0  0  0  0  0  0
    3.1020    2.3490   -0.3710 O   0  0  0  0  0  0  0  0  0  0  0  0
    4.4010    2.0600   -0.8530 C   0  0  0  0  0  0  0  0  0  0  0  0
    4.6510    0.8110   -0.2290 O   0  0  0  0  0  0  0  0  0  0  0  0
  1  2  1  0
  2  3  2  0
  2  7  1  0
  3  4  1  0
  4  5  2  0
  4 18  1  0
  5  6  1  0
  5 16  1  0
  6  7  2  0
  7  8  1  0
  8  9  1  0
  9 10  1  0
 10 11  2  0
 10 12  1  0
 12 13  1  0
 13 14  1  0
 13 15  2  0
 16 17  1  0
 17 18  1  0
M  CHG  1   1   1
M  END
