
     RDKit          3D

 18 18  0  0  0  0  0  0  0  0999 V2000
   -0.0760    2.1530   -1.5330 C   0  0  0  0  0  0  0  0  0  0  0  0
    0.0120    1.5300   -0.2610 O   0  0  0  0  0  0  0  0  0  0  0  0
   -0.5050    0.2440   -0.0120 C   0  0  0  0  0  0  0  0  0  0  0  0
    0.4070   -0.6290    0.3580 C   0  0  0  0  0  0  0  0  0  0  0  0
    1.7980   -0.2420    0.4830 C   0  0  0  0  0  0  0  0  0  0  0  0
    2.6870   -1.1430    0.8530 C   0  0  0  0  0  0  0  0  0  0  0  0
    4.0680   -0.8670    1.0050 N   0  0  0  0  0  0  0  0  0  0  0  0
    2.2240    1.0720    0.2240 N   0  0  0  0  0  0  0  0  0  0  0  0
    2.9710    1.3940   -0.8600 O   0  0  0  0  0  0  0  0  0  0  0  0
    0.1280   -2.3680    0.7330 S   0  0  0  0  0  0  0  0  0  0  0  0
   -1.5930   -2.7570    0.4710 C   0  0  0  0  0  0  0  0  0  0  0  0
   -2.0330   -2.3050   -0.8830 C   0  0  0  0  0  0  0  0  0  0  0  0
   -2.4680   -0.9560   -0.9130 O   0  0  0  0  0  0  0  0  0  0  0  0
   -1.9330    0.1520   -0.2160 C   0  0  0  0  0  0  0  0  0  0  0  0
   -2.7490    1.0620    0.2290 C   0  0  0  0  0  0  0  0  0  0  0  0
   -4.1350    0.8310   -0.0630 O   0  0  0  0  0  0  0  0  0  0  0  0
   -2.5140    2.2540    0.9670 C   0  0  0  0  0  0  0  0  0  0  0  0
   -1.4140    2.6440    1.3530 O   0  0  0  0  0  0  0  0  0  0  0  0
  1  2  1  0
  2  3  1  0
  3  4  2  0
  3 14  1  0
  4  5  1  0
  4 10  1  0
  5  6  2  3
  5  8  1  0
  6  7  1  0
  8  9  1  0
 10 11  1  0
 11 12  1  0
 12 13  1  0
 13 14  1  0
 14 15  2  3
 15 16  1  0
 15 17  1  0
 17 18  2  0
M  CHG  1   7   1
M  END
