
     RDKit          3D

 18 18  0  0  0  0  0  0  0  0999 V2000
    2.9230   -1.6100   -0.8600 C   0  0  0  0  0  0  0  0  0  0  0  0
    2.1330   -0.4540   -0.2690 C   0  0  0  0  0  0  0  0  0  0  0  0
    2.7250    0.5350    0.3230 C   0  0  0  0  0  0  0  0  0  0  0  0
    4.0880    0.8010    0.5670 C   0  0  0  0  0  0  0  0  0  0  0  0
    5.1380    0.1530    0.2850 N   0  0  0  0  0  0  0  0  0  0  0  0
    0.7760   -0.6210   -0.4550 O   0  0  0  0  0  0  0  0  0  0  0  0
   -0.2760    0.1890   -0.1190 C   0  0  0  0  0  0  0  0  0  0  0  0
    0.0570    1.2480    0.4380 O   0  0  0  0  0  0  0  0  0  0  0  0
   -1.6750   -0.1890   -0.4080 C   0  0  0  0  0  0  0  0  0  0  0  0
   -2.6830    0.5620   -0.1090 C   0  0  0  0  0  0  0  0  0  0  0  0
   -2.5950    1.8470    0.5350 C   0  0  0  0  0  0  0  0  0  0  0  0
   -3.8480    2.5530    0.7930 N   0  0  0  0  0  0  0  0  0  0  0  0
   -1.5950    2.4490    0.9080 O   0  0  0  0  0  0  0  0  0  0  0  0
   -3.9700    0.0710   -0.4450 O   0  0  0  0  0  0  0  0  0  0  0  0
   -4.2320   -1.3170   -0.5990 C   0  0  0  0  0  0  0  0  0  0  0  0
   -3.1890   -1.9010   -1.3660 O   0  0  0  0  0  0  0  0  0  0  0  0
   -1.9130   -1.4890   -1.0700 C   0  0  0  0  0  0  0  0  0  0  0  0
   -0.6120   -2.4150   -1.4330 S   0  0  0  0  0  0  0  0  0  0  0  0
  1  2  1  0
  2  3  2  3
  2  6  1  0
  3  4  1  0
  4  5  2  0
  6  7  1  0
  7  8  2  0
  7  9  1  0
  9 10  2  0
  9 17  1  0
 10 11  1  0
 10 14  1  0
 11 12  1  0
 11 13  2  0
 14 15  1  0
 15 16  1  0
 16 17  1  0
 17 18  2  0
M  CHG  1   5   1
M  END
