
     RDKit          3D

 18 18  0  0  0  0  0  0  0  0999 V2000
    6.0520   -0.5870    0.9580 C   0  0  0  0  0  0  0  0  0  0  0  0
    4.8450   -0.4050    0.2420 O   0  0  0  0  0  0  0  0  0  0  0  0
    4.7970    0.3330   -0.9220 C   0  0  0  0  0  0  0  0  0  0  0  0
    5.9050    0.8290   -1.2940 O   0  0  0  0  0  0  0  0  0  0  0  0
    3.5880    0.5570   -1.7050 C   0  0  0  0  0  0  0  0  0  0  0  0
    2.4210    0.0640   -1.3580 C   0  0  0  0  0  0  0  0  0  0  0  0
    2.0360   -0.7540   -0.2270 C   0  0  0  0  0  0  0  0  0  0  0  0
    0.7270   -1.0370   -0.2580 C   0  0  0  0  0  0  0  0  0  0  0  0
   -0.1690   -2.0020    0.9270 S   0  0  0  0  0  0  0  0  0  0  0  0
   -1.8860   -1.6480    1.0240 C   0  0  0  0  0  0  0  0  0  0  0  0
   -2.7210   -2.5150    1.4290 O   0  0  0  0  0  0  0  0  0  0  0  0
   -2.4150   -0.3990    0.6550 N   0  0  0  0  0  0  0  0  0  0  0  0
   -3.8530   -0.1220    0.7160 C   0  0  0  0  0  0  0  0  0  0  0  0
   -4.1540    1.2820    0.2690 C   0  0  0  0  0  0  0  0  0  0  0  0
   -5.5870    1.4710    0.3600 N   0  0  0  0  0  0  0  0  0  0  0  0
    0.1900   -0.3980   -1.4450 C   0  0  0  0  0  0  0  0  0  0  0  0
   -0.9630   -0.3650   -1.9200 O   0  0  0  0  0  0  0  0  0  0  0  0
    1.2560    0.2580   -2.0790 O   0  0  0  0  0  0  0  0  0  0  0  0
  1  2  1  0
  2  3  1  0
  3  4  2  0
  3  5  1  0
  5  6  2  3
  6  7  1  0
  6 18  1  0
  7  8  2  0
  8  9  1  0
  8 16  1  0
  9 10  1  0
 10 11  2  0
 10 12  1  0
 12 13  1  0
 13 14  1  0
 14 15  1  0
 16 17  2  0
 16 18  1  0
M  CHG  1  15   1
M  END
