
     RDKit          3D

 18 18  0  0  0  0  0  0  0  0999 V2000
    6.3200    1.0390    0.6910 C   0  0  0  0  0  0  0  0  0  0  0  0
    5.0700    0.5640    1.1370 O   0  0  0  0  0  0  0  0  0  0  0  0
    4.3320   -0.4030    0.4440 C   0  0  0  0  0  0  0  0  0  0  0  0
    4.8120   -0.8640   -0.6120 O   0  0  0  0  0  0  0  0  0  0  0  0
    3.0530   -0.8250    0.9640 N   0  0  0  0  0  0  0  0  0  0  0  0
    2.3520   -1.7800    0.2200 O   0  0  0  0  0  0  0  0  0  0  0  0
    1.2150   -1.3190   -0.4630 C   0  0  0  0  0  0  0  0  0  0  0  0
    0.9270   -0.0780   -0.3380 O   0  0  0  0  0  0  0  0  0  0  0  0
    0.3420   -2.1560   -1.3090 C   0  0  0  0  0  0  0  0  0  0  0  0
   -0.9500   -1.0760   -2.0070 S   0  0  0  0  0  0  0  0  0  0  0  0
   -2.0320   -0.5260   -0.6650 C   0  0  0  0  0  0  0  0  0  0  0  0
   -2.0570   -0.9760    0.5640 C   0  0  0  0  0  0  0  0  0  0  0  0
   -3.0570   -0.3000    1.3770 C   0  0  0  0  0  0  0  0  0  0  0  0
   -3.7250    0.6460    0.4370 C   0  0  0  0  0  0  0  0  0  0  0  0
   -4.7160    1.4390    0.7240 N   0  0  0  0  0  0  0  0  0  0  0  0
   -3.0540    0.5130   -0.8490 C   0  0  0  0  0  0  0  0  0  0  0  0
   -3.2820    1.1730   -1.9770 C   0  0  0  0  0  0  0  0  0  0  0  0
   -4.2580    2.1240   -2.0460 O   0  0  0  0  0  0  0  0  0  0  0  0
  1  2  1  0
  2  3  1  0
  3  4  2  0
  3  5  1  0
  5  6  1  0
  6  7  1  0
  7  8  2  0
  7  9  1  0
  9 10  1  0
 10 11  1  0
 11 12  2  0
 11 16  1  0
 12 13  1  0
 13 14  1  0
 14 15  2  0
 14 16  1  0
 16 17  2  3
 17 18  1  0
M  CHG  1  15   1
M  END
