
     RDKit          3D

 20 22  0  0  0  0  0  0  0  0999 V2000
   -0.2190    2.1720    1.1820 N   0  0  0  0  0  0  0  0  0  0  0  0
   -0.5000    1.2250    0.1080 C   0  0  2  0  0  0  0  0  0  0  0  0
   -0.9510    1.9240   -1.1390 C   0  0  0  0  0  0  0  0  0  0  0  0
   -2.1870    2.7410   -1.0370 C   0  0  0  0  0  0  0  0  0  0  0  0
   -2.1380    3.7930   -0.1310 O   0  0  0  0  0  0  0  0  0  0  0  0
   -1.6510    0.3900    0.6320 C   0  0  0  0  0  0  0  0  0  0  0  0
   -1.9250   -0.8450   -0.1560 C   0  0  2  0  0  0  0  0  0  0  0  0
   -3.3640   -0.9610   -0.6010 C   0  0  0  0  0  0  0  0  0  0  0  0
   -3.7700   -2.3190   -0.0590 C   0  0  0  0  0  0  0  0  0  0  0  0
   -3.0580   -2.4080    1.1380 O   0  0  0  0  0  0  0  0  0  0  0  0
   -1.7540   -2.0800    0.7140 C   0  0  0  0  0  0  0  0  0  0  0  0
   -1.0430   -0.8560   -1.2300 O   0  0  0  0  0  0  0  0  0  0  0  0
    0.2480   -0.9520   -0.7240 C   0  0  0  0  0  0  0  0  0  0  0  0
    0.7110    0.3830   -0.2560 C   0  0  2  0  0  0  0  0  0  0  0  0
    1.6680    0.3470    0.8780 C   0  0  0  0  0  0  0  0  0  0  0  0
    2.9160   -0.3940    0.7550 C   0  0  2  0  0  0  0  0  0  0  0  0
    3.8770   -0.0190   -0.3250 C   0  0  0  0  0  0  0  0  0  0  0  0
    4.7190   -1.2960   -0.4360 C   0  0  0  0  0  0  0  0  0  0  0  0
    4.2870   -2.1350    0.6110 O   0  0  0  0  0  0  0  0  0  0  0  0
    2.8850   -1.8780    0.6800 C   0  0  0  0  0  0  0  0  0  0  0  0
  2  1  1  1
  2  3  1  0
  2  6  1  0
  2 14  1  0
  3  4  1  0
  4  5  1  0
  7  6  1  1
  7  8  1  0
  7 11  1  0
  7 12  1  0
  8  9  1  0
  9 10  1  0
 10 11  1  0
 12 13  1  0
 13 14  1  0
 14 15  1  1
 16 15  1  6
 16 17  1  0
 16 20  1  0
 17 18  1  0
 18 19  1  0
 19 20  1  0
M  CHG  1   1   1
M  END
