
     RDKit          3D

 20 21  0  0  0  0  0  0  0  0999 V2000
    3.7000    0.6760   -2.5630 C   0  0  0  0  0  0  0  0  0  0  0  0
    3.9740    0.3320   -1.3050 C   0  0  0  0  0  0  0  0  0  0  0  0
    5.3720    0.3700   -0.7960 C   0  0  0  0  0  0  0  0  0  0  0  0
    5.4780   -0.0300    0.5830 N   0  0  0  0  0  0  0  0  0  0  0  0
    4.4740   -0.3830    1.2910 C   0  0  0  0  0  0  0  0  0  0  0  0
    3.1000   -0.4300    0.8120 C   0  0  0  0  0  0  0  0  0  0  0  0
    2.8780   -0.0820   -0.4440 C   0  0  0  0  0  0  0  0  0  0  0  0
    1.5790   -0.1050   -0.9750 O   0  0  0  0  0  0  0  0  0  0  0  0
    0.5230   -0.3160   -0.0950 C   0  0  0  0  0  0  0  0  0  0  0  0
   -0.8410   -0.3290   -0.7520 C   0  0  1  0  0  0  0  0  0  0  0  0
   -0.8740   -1.4740   -1.7630 C   0  0  0  0  0  0  0  0  0  0  0  0
    0.0700   -1.2480   -2.7560 O   0  0  0  0  0  0  0  0  0  0  0  0
   -1.8270   -0.5830    0.3690 C   0  0  0  0  0  0  0  0  0  0  0  0
   -2.6270    0.6900    0.5400 C   0  0  2  0  0  0  0  0  0  0  0  0
   -3.4010    0.7550    1.7970 C   0  0  1  0  0  0  0  0  0  0  0  0
   -4.4120   -0.3200    1.9860 C   0  0  0  0  0  0  0  0  0  0  0  0
   -2.4840    0.7090    2.8610 O   0  0  0  0  0  0  0  0  0  0  0  0
   -3.4510    0.8160   -0.7200 C   0  0  0  0  0  0  0  0  0  0  0  0
   -2.4240    0.9810   -1.8470 C   0  0  0  0  0  0  0  0  0  0  0  0
   -1.1180    0.8730   -1.3850 O   0  0  0  0  0  0  0  0  0  0  0  0
  1  2  2  0
  2  3  1  0
  2  7  1  0
  3  4  1  0
  4  5  2  0
  5  6  1  0
  6  7  2  0
  7  8  1  0
  8  9  1  0
 10  9  1  1
 10 11  1  0
 10 13  1  0
 10 20  1  0
 11 12  1  0
 14 13  1  6
 14 15  1  0
 14 18  1  0
 15 16  1  1
 15 17  1  0
 18 19  1  0
 19 20  1  0
M  CHG  1   4   1
M  END
