
     RDKit          3D

 20 21  0  0  0  0  0  0  0  0999 V2000
    5.0640    0.5170    0.9620 C   0  0  0  0  0  0  0  0  0  0  0  0
    4.0160   -0.0560    0.4060 C   0  0  0  0  0  0  0  0  0  0  0  0
    3.8130   -1.4630    0.4110 N   0  0  0  0  0  0  0  0  0  0  0  0
    2.5140   -1.7130   -0.1720 C   0  0  0  0  0  0  0  0  0  0  0  0
    2.3210   -0.5540   -1.0800 C   0  0  1  0  0  0  0  0  0  0  0  0
    0.9410   -0.3390   -1.5660 C   0  0  1  0  0  0  0  0  0  0  0  0
    0.5690   -1.5050   -2.2760 O   0  0  0  0  0  0  0  0  0  0  0  0
   -0.0870   -0.2110   -0.4640 C   0  0  0  0  0  0  0  0  0  0  0  0
   -1.3100   -0.0940   -1.0620 O   0  0  0  0  0  0  0  0  0  0  0  0
   -2.4000    0.0290   -0.2140 C   0  0  1  0  0  0  0  0  0  0  0  0
   -2.2860    1.2680    0.6650 C   0  0  0  0  0  0  0  0  0  0  0  0
   -3.3740    1.4060    1.5030 O   0  0  0  0  0  0  0  0  0  0  0  0
   -3.6090    0.1970   -1.1060 C   0  0  0  0  0  0  0  0  0  0  0  0
   -4.7680   -0.6870   -0.7180 C   0  0  0  0  0  0  0  0  0  0  0  0
   -4.9350   -0.5330    0.6580 O   0  0  0  0  0  0  0  0  0  0  0  0
   -3.9120   -1.1490    1.3670 C   0  0  0  0  0  0  0  0  0  0  0  0
   -2.5920   -1.1580    0.6670 C   0  0  0  0  0  0  0  0  0  0  0  0
    2.8980    0.5610   -0.2970 C   0  0  0  0  0  0  0  0  0  0  0  0
    2.4840    1.8060   -0.2490 C   0  0  0  0  0  0  0  0  0  0  0  0
    3.0500    2.8990    0.5350 C   0  0  0  0  0  0  0  0  0  0  0  0
  1  2  2  0
  2  3  1  0
  2 18  1  0
  3  4  1  0
  5  4  1  1
  5  6  1  0
  5 18  1  0
  6  7  1  6
  6  8  1  0
  8  9  1  0
  9 10  1  0
 10 11  1  1
 10 13  1  0
 10 17  1  0
 11 12  1  0
 13 14  1  0
 14 15  1  0
 15 16  1  0
 16 17  1  0
 18 19  2  3
 19 20  1  0
M  CHG  1   3   1
M  END
