
     RDKit          3D

 20 21  0  0  0  0  0  0  0  0999 V2000
    4.7440   -1.1100    0.1430 N   0  0  0  0  0  0  0  0  0  0  0  0
    4.0300   -1.0270   -1.0970 C   0  0  0  0  0  0  0  0  0  0  0  0
    3.4920    0.3510   -1.3840 C   0  0  2  0  0  0  0  0  0  0  0  0
    4.6030    1.3440   -1.4570 C   0  0  0  0  0  0  0  0  0  0  0  0
    5.3380    1.4360   -0.2840 O   0  0  0  0  0  0  0  0  0  0  0  0
    2.4890    0.7750   -0.3620 C   0  0  0  0  0  0  0  0  0  0  0  0
    2.6990    1.7770    0.3020 O   0  0  0  0  0  0  0  0  0  0  0  0
    1.2350    0.0090   -0.1280 C   0  0  0  0  0  0  0  0  0  0  0  0
    0.4530    0.6730    0.9370 C   0  0  2  0  0  0  0  0  0  0  0  0
    1.2070    0.7100    2.1090 O   0  0  0  0  0  0  0  0  0  0  0  0
   -0.9010    0.1250    1.1990 C   0  0  2  0  0  0  0  0  0  0  0  0
   -0.9590   -1.3000    1.6160 C   0  0  0  0  0  0  0  0  0  0  0  0
   -2.4040   -1.6070    1.9780 C   0  0  0  0  0  0  0  0  0  0  0  0
   -3.2230   -0.5060    1.8480 O   0  0  0  0  0  0  0  0  0  0  0  0
   -3.2250   -0.0800    0.5250 C   0  0  1  0  0  0  0  0  0  0  0  0
   -3.9180   -1.0650   -0.3870 C   0  0  0  0  0  0  0  0  0  0  0  0
   -4.1180   -0.2480   -1.6300 C   0  0  0  0  0  0  0  0  0  0  0  0
   -4.2350    1.1970   -1.1650 C   0  0  0  0  0  0  0  0  0  0  0  0
   -4.1030    1.1430    0.3510 C   0  0  0  0  0  0  0  0  0  0  0  0
   -1.8470    0.2860    0.0270 C   0  0  0  0  0  0  0  0  0  0  0  0
  1  2  1  0
  3  2  1  1
  3  4  1  0
  3  6  1  0
  4  5  1  0
  6  7  2  0
  6  8  1  0
  8  9  1  0
  9 10  1  1
  9 11  1  0
 11 12  1  6
 11 20  1  0
 12 13  1  0
 13 14  1  0
 14 15  1  0
 15 16  1  6
 15 19  1  0
 15 20  1  0
 16 17  1  0
 17 18  1  0
 18 19  1  0
M  CHG  1   1   1
M  END
