
     RDKit          3D

 20 21  0  0  0  0  0  0  0  0999 V2000
   -4.9770    0.0320    0.0310 N   0  0  0  0  0  0  0  0  0  0  0  0
   -3.7700   -0.6820    0.3020 C   0  0  0  0  0  0  0  0  0  0  0  0
   -2.6310    0.2700    0.5230 C   0  0  1  0  0  0  0  0  0  0  0  0
   -3.0050    1.1490    1.7230 C   0  0  0  0  0  0  0  0  0  0  0  0
   -3.1910    0.3270    2.8220 O   0  0  0  0  0  0  0  0  0  0  0  0
   -1.3620   -0.4490    0.7800 C   0  0  0  0  0  0  0  0  0  0  0  0
   -0.5390   -0.7890   -0.2230 C   0  0  0  0  0  0  0  0  0  0  0  0
    0.7280   -1.5090    0.0580 C   0  0  1  0  0  0  0  0  0  0  0  0
    0.6720   -2.7150   -0.6260 O   0  0  0  0  0  0  0  0  0  0  0  0
    1.8500   -0.7700   -0.1950 O   0  0  0  0  0  0  0  0  0  0  0  0
    2.6730   -0.5080    0.8540 C   0  0  1  0  0  0  0  0  0  0  0  0
    4.0090   -1.1640    0.5520 C   0  0  0  0  0  0  0  0  0  0  0  0
    4.5990   -0.6420   -0.7400 C   0  0  0  0  0  0  0  0  0  0  0  0
    3.9820    0.6690   -1.1620 C   0  0  0  0  0  0  0  0  0  0  0  0
    3.7610    1.5940    0.0090 C   0  0  0  0  0  0  0  0  0  0  0  0
    2.9630    0.9480    1.0950 C   0  0  0  0  0  0  0  0  0  0  0  0
   -0.8980   -0.4430   -1.6000 C   0  0  0  0  0  0  0  0  0  0  0  0
   -0.2000   -0.8460   -2.5350 O   0  0  0  0  0  0  0  0  0  0  0  0
   -2.0900    0.3870   -1.8970 C   0  0  0  0  0  0  0  0  0  0  0  0
   -2.3920    1.1870   -0.6490 C   0  0  0  0  0  0  0  0  0  0  0  0
  1  2  1  0
  3  2  1  6
  3  4  1  0
  3  6  1  0
  3 20  1  0
  4  5  1  0
  6  7  2  0
  7  8  1  0
  7 17  1  0
  8  9  1  6
  8 10  1  0
 11 10  1  6
 11 12  1  0
 11 16  1  0
 12 13  1  0
 13 14  1  0
 14 15  1  0
 15 16  1  0
 17 18  2  0
 17 19  1  0
 19 20  1  0
M  CHG  1   1   1
M  END
