
     RDKit          3D

 20 21  0  0  0  0  0  0  0  0999 V2000
   -0.5220   -1.3830    1.5010 C   0  0  0  0  0  0  0  0  0  0  0  0
   -0.5460   -0.3700    0.4630 N   0  0  1  0  0  0  0  0  0  0  0  0
   -1.5210    0.6140    0.8440 C   0  0  0  0  0  0  0  0  0  0  0  0
   -2.8020    0.5460    0.0980 C   0  0  2  0  0  0  0  0  0  0  0  0
   -3.7140    1.6390    0.6370 C   0  0  0  0  0  0  0  0  0  0  0  0
   -3.5390   -0.7500    0.2180 C   0  0  0  0  0  0  0  0  0  0  0  0
   -4.6580   -0.4810   -0.7780 C   0  0  0  0  0  0  0  0  0  0  0  0
   -3.9330    0.3920   -1.7810 C   0  0  0  0  0  0  0  0  0  0  0  0
   -2.7090    0.7110   -1.2550 O   0  0  0  0  0  0  0  0  0  0  0  0
    0.7320    0.2860    0.3070 C   0  0  0  0  0  0  0  0  0  0  0  0
    1.8910   -0.6560    0.2460 C   0  0  1  0  0  0  0  0  0  0  0  0
    2.0280   -1.4350    1.3870 O   0  0  0  0  0  0  0  0  0  0  0  0
    1.8300   -1.5310   -1.0070 C   0  0  0  0  0  0  0  0  0  0  0  0
    1.6930   -0.7330   -2.1410 O   0  0  0  0  0  0  0  0  0  0  0  0
    3.1470    0.1320    0.1270 C   0  0  0  0  0  0  0  0  0  0  0  0
    3.1890    1.4340    0.0560 C   0  0  0  0  0  0  0  0  0  0  0  0
    4.4700    2.1520   -0.0620 C   0  0  0  0  0  0  0  0  0  0  0  0
    5.5830    1.3110   -0.1000 O   0  0  0  0  0  0  0  0  0  0  0  0
    5.5390   -0.0730   -0.0250 C   0  0  0  0  0  0  0  0  0  0  0  0
    4.3810   -0.6880    0.0860 C   0  0  0  0  0  0  0  0  0  0  0  0
  2  1  1  1
  2  3  1  0
  2 10  1  0
  3  4  1  0
  4  5  1  1
  4  6  1  0
  4  9  1  0
  6  7  1  0
  7  8  1  0
  8  9  1  0
 10 11  1  0
 11 12  1  1
 11 13  1  0
 11 15  1  0
 13 14  1  0
 15 16  2  0
 15 20  1  0
 16 17  1  0
 17 18  1  0
 18 19  1  0
 19 20  2  0
M  CHG  1   2   1
M  END
