
     RDKit          3D

 20 21  0  0  0  0  0  0  0  0999 V2000
    1.6480    4.6380    0.7980 O   0  0  0  0  0  0  0  0  0  0  0  0
    0.9260    3.5100    0.3040 C   0  0  0  0  0  0  0  0  0  0  0  0
    1.6620    2.8980   -0.8290 C   0  0  0  0  0  0  0  0  0  0  0  0
    1.0900    1.7220   -1.5020 C   0  0  0  0  0  0  0  0  0  0  0  0
    0.8510    0.4790   -0.7340 C   0  0  1  0  0  0  0  0  0  0  0  0
    2.0740   -0.0970   -0.1020 C   0  0  0  0  0  0  0  0  0  0  0  0
    1.7360   -1.3540    0.6510 C   0  0  1  0  0  0  0  0  0  0  0  0
    1.1530   -2.4490   -0.1640 C   0  0  0  0  0  0  0  0  0  0  0  0
    2.1610   -3.5760   -0.0060 C   0  0  0  0  0  0  0  0  0  0  0  0
    3.3730   -2.8550    0.4930 C   0  0  0  0  0  0  0  0  0  0  0  0
    2.8410   -1.8730    1.3250 O   0  0  0  0  0  0  0  0  0  0  0  0
   -0.2650    0.4470    0.1550 N   0  0  0  0  0  0  0  0  0  0  0  0
   -1.4510    1.1120   -0.3020 C   0  0  0  0  0  0  0  0  0  0  0  0
   -2.6380    0.2920    0.1440 C   0  0  0  0  0  0  0  0  0  0  0  0
   -3.5250    0.8090    0.9590 C   0  0  0  0  0  0  0  0  0  0  0  0
   -4.7210    0.1160    1.4660 C   0  0  0  0  0  0  0  0  0  0  0  0
   -4.8000   -1.1690    0.9370 O   0  0  0  0  0  0  0  0  0  0  0  0
   -3.8750   -1.7250    0.0780 C   0  0  0  0  0  0  0  0  0  0  0  0
   -2.8140   -1.0550   -0.3320 C   0  0  0  0  0  0  0  0  0  0  0  0
   -1.9090   -1.6450   -1.1960 O   0  0  0  0  0  0  0  0  0  0  0  0
  1  2  1  0
  2  3  1  0
  3  4  1  0
  5  4  1  1
  5  6  1  0
  5 12  1  0
  7  6  1  6
  7  8  1  0
  7 11  1  0
  8  9  1  0
  9 10  1  0
 10 11  1  0
 12 13  1  0
 13 14  1  0
 14 15  2  0
 14 19  1  0
 15 16  1  0
 16 17  1  0
 17 18  1  0
 18 19  2  0
 19 20  1  0
M  CHG  1  12   1
M  END
