
     RDKit          3D

 26 27  0  0  0  0  0  0  0  0999 V2000
    4.3560   -1.0250    2.2280 C   0  0  0  0  0  0  0  0  0  0  0  0
    4.6540    0.1110    1.2810 C   0  0  1  0  0  0  0  0  0  0  0  0
    3.6240   -0.1190   -0.1940 S   0  0  0  0  0  0  0  0  0  0  0  0
    1.8930    0.0820    0.2710 C   0  0  0  0  0  0  0  0  0  0  0  0
    0.9460   -0.0980   -0.9300 C   0  0  0  0  0  0  0  0  0  0  0  0
   -0.3980    0.0820   -0.6110 N   0  0  0  0  0  0  0  0  0  0  0  0
   -1.1750    1.3200   -0.7080 C   0  0  0  0  0  0  0  0  0  0  0  0
   -0.5710    2.3580   -1.0310 O   0  0  0  0  0  0  0  0  0  0  0  0
   -2.6310    1.2760   -0.4190 C   0  0  2  0  0  0  0  0  0  0  0  0
   -3.1720    2.5940   -0.5860 N   0  0  0  0  0  0  0  0  0  0  0  0
   -4.0940    2.9760   -1.5980 C   0  0  0  0  0  0  0  0  0  0  0  0
   -4.5770    4.2960   -1.6920 N   0  0  0  0  0  0  0  0  0  0  0  0
   -4.4540    2.0800   -2.3990 O   0  0  0  0  0  0  0  0  0  0  0  0
   -2.9280    0.6130    0.8460 C   0  0  0  0  0  0  0  0  0  0  0  0
   -2.0840   -0.5840    1.1480 C   0  0  1  0  0  0  0  0  0  0  0  0
   -2.7360   -1.6600    1.6790 O   0  0  0  0  0  0  0  0  0  0  0  0
   -2.6730   -2.9150    1.1590 C   0  0  0  0  0  0  0  0  0  0  0  0
   -3.3720   -3.8610    1.7030 O   0  0  0  0  0  0  0  0  0  0  0  0
   -1.8750   -3.2450    0.0420 N   0  0  0  0  0  0  0  0  0  0  0  0
   -1.1170   -2.1470   -0.5210 C   0  0  0  0  0  0  0  0  0  0  0  0
   -0.3640   -2.3440   -1.7600 C   0  0  0  0  0  0  0  0  0  0  0  0
    0.7260   -3.1930   -1.3850 N   0  0  0  0  0  0  0  0  0  0  0  0
   -1.2070   -0.9760    0.0040 C   0  0  0  0  0  0  0  0  0  0  0  0
    4.3470    1.3950    1.9540 C   0  0  0  0  0  0  0  0  0  0  0  0
    4.5190    2.6540    1.3410 N   0  0  0  0  0  0  0  0  0  0  0  0
    3.9090    1.3960    3.1330 O   0  0  0  0  0  0  0  0  0  0  0  0
  2  1  1  1
  2  3  1  0
  2 24  1  0
  3  4  1  0
  4  5  1  0
  5  6  1  0
  6  7  1  0
  6 23  1  0
  7  8  2  0
  7  9  1  0
  9 10  1  1
  9 14  1  0
 10 11  1  0
 11 12  1  0
 11 13  2  0
 15 14  1  6
 15 16  1  0
 15 23  1  0
 16 17  1  0
 17 18  2  0
 17 19  1  0
 19 20  1  0
 20 21  1  0
 20 23  2  0
 21 22  1  0
 24 25  1  0
 24 26  2  0
M  CHG  1  22   1
M  END
