
     RDKit          3D

 26 27  0  0  0  0  0  0  0  0999 V2000
   -9.1320   -0.6430    0.0310 C   0  0  0  0  0  0  0  0  0  0  0  0
   -8.0420   -1.4260    0.7190 C   0  0  1  0  0  0  0  0  0  0  0  0
   -7.8520   -2.6940    0.1920 O   0  0  0  0  0  0  0  0  0  0  0  0
   -6.7450   -0.6890    0.5740 C   0  0  0  0  0  0  0  0  0  0  0  0
   -5.5520   -1.2970    0.9080 C   0  0  0  0  0  0  0  0  0  0  0  0
   -4.3780   -0.5600    0.7510 C   0  0  0  0  0  0  0  0  0  0  0  0
   -4.4320    0.7270    0.2770 C   0  0  0  0  0  0  0  0  0  0  0  0
   -3.2380    1.4730    0.1200 N   0  0  0  0  0  0  0  0  0  0  0  0
   -1.9900    0.9130    0.4490 N   0  0  0  0  0  0  0  0  0  0  0  0
   -0.9230    0.8420   -0.4760 C   0  0  0  0  0  0  0  0  0  0  0  0
   -1.1290    1.3050   -1.6240 O   0  0  0  0  0  0  0  0  0  0  0  0
    0.3770    0.2650   -0.1540 C   0  0  0  0  0  0  0  0  0  0  0  0
    0.6410   -0.2190    0.9750 O   0  0  0  0  0  0  0  0  0  0  0  0
    1.3970    0.2360   -1.1260 N   0  0  0  0  0  0  0  0  0  0  0  0
    2.7060   -0.2880   -0.9670 C   0  0  1  0  0  0  0  0  0  0  0  0
    3.5530   -0.7740   -2.0430 C   0  0  0  0  0  0  0  0  0  0  0  0
    3.8190    0.5790   -1.5560 C   0  0  2  0  0  0  0  0  0  0  0  0
    5.0090    1.1160   -0.4070 S   0  0  0  0  0  0  0  0  0  0  0  0
    4.3880    2.1030    0.5940 O   0  0  0  0  0  0  0  0  0  0  0  0
    5.9680   -0.0620    0.4600 C   0  0  2  0  0  0  0  0  0  0  0  0
    6.9200    0.6450    1.4600 C   0  0  0  0  0  0  0  0  0  0  0  0
    7.8200    1.5410    0.7780 N   0  0  0  0  0  0  0  0  0  0  0  0
    6.8940   -0.8040   -0.5070 C   0  0  0  0  0  0  0  0  0  0  0  0
    7.7380    0.1300   -1.1300 O   0  0  0  0  0  0  0  0  0  0  0  0
   -5.6240    1.2690   -0.0320 N   0  0  0  0  0  0  0  0  0  0  0  0
   -6.7360    0.5750    0.1150 N   0  0  0  0  0  0  0  0  0  0  0  0
  2  1  1  6
  2  3  1  0
  2  4  1  0
  4  5  2  0
  4 26  1  0
  5  6  1  0
  6  7  2  0
  7  8  1  0
  7 25  1  0
  8  9  1  0
  9 10  1  0
 10 11  2  0
 10 12  1  0
 12 13  2  0
 12 14  1  0
 15 14  1  6
 15 16  1  0
 15 17  1  0
 17 16  1  6
 17 18  1  0
 18 19  2  0
 18 20  1  1
 20 21  1  1
 20 23  1  0
 21 22  1  0
 23 24  1  0
 25 26  2  0
M  CHG  1  25   1
M  END
