
     RDKit          3D

 21 24  0  0  0  0  0  0  0  0999 V2000
   -4.1000   -0.7950   -0.0680 C   0  0  0  0  0  0  0  0  0  0  0  0
   -2.7490   -0.2530   -0.5750 C   0  0  2  0  0  0  0  0  0  0  0  0
   -2.4170   -0.9800   -1.6400 O   0  0  0  0  0  0  0  0  0  0  0  0
   -1.1460   -1.3220   -1.8980 C   0  0  0  0  0  0  0  0  0  0  0  0
   -0.2290   -1.3940   -0.6970 C   0  0  1  0  0  0  0  0  0  0  0  0
    1.1440   -1.7460   -1.1350 C   0  0  0  0  0  0  0  0  0  0  0  0
    2.1940   -1.4280   -0.1040 C   0  0  0  0  0  0  0  0  0  0  0  0
    3.0910   -2.2800    0.3290 C   0  0  0  0  0  0  0  0  0  0  0  0
    3.9490   -1.6310    1.3240 C   0  0  0  0  0  0  0  0  0  0  0  0
    3.3930   -0.2660    1.3860 C   0  0  0  0  0  0  0  0  0  0  0  0
    2.3820   -0.1610    0.5580 C   0  0  0  0  0  0  0  0  0  0  0  0
    1.6680    1.1400    0.4570 C   0  0  0  0  0  0  0  0  0  0  0  0
    0.2680    1.0170   -0.0820 C   0  0  1  0  0  0  0  0  0  0  0  0
   -0.5130    2.1810    0.5620 C   0  0  0  0  0  0  0  0  0  0  0  0
    0.3760    3.3370    0.0730 C   0  0  0  0  0  0  0  0  0  0  0  0
    0.6410    2.9600   -1.3460 C   0  0  0  0  0  0  0  0  0  0  0  0
    0.2680    1.4760   -1.5010 C   0  0  0  0  0  0  0  0  0  0  0  0
   -0.3610   -0.2520    0.2430 C   0  0  2  0  0  0  0  0  0  0  0  0
    0.2300   -0.7020    1.4580 O   0  0  0  0  0  0  0  0  0  0  0  0
   -1.8510   -0.1680    0.5830 C   0  0  2  0  0  0  0  0  0  0  0  0
   -2.1710   -1.3350    1.5320 C   0  0  0  0  0  0  0  0  0  0  0  0
  2  1  1  1
  2  3  1  0
  2 20  1  0
  3  4  1  0
  5  4  1  6
  5  6  1  0
  5 18  1  0
  6  7  1  0
  7  8  2  0
  7 11  1  0
  8  9  1  0
  9 10  1  0
 10 11  2  0
 11 12  1  0
 13 12  1  1
 13 14  1  0
 13 17  1  0
 13 18  1  0
 14 15  1  0
 15 16  1  0
 16 17  1  0
 18 19  1  1
 18 20  1  0
 20 21  1  1
M  END
