
     RDKit          3D

 26 27  0  0  0  0  0  0  0  0999 V2000
    6.0980    1.4050    0.5120 N   0  0  0  0  0  0  0  0  0  0  0  0
    6.6820    1.4850   -0.7740 C   0  0  0  0  0  0  0  0  0  0  0  0
    7.8350    1.9320   -0.8900 O   0  0  0  0  0  0  0  0  0  0  0  0
    5.9320    1.0420   -1.9580 C   0  0  0  0  0  0  0  0  0  0  0  0
    4.6160    0.5610   -1.6310 N   0  0  0  0  0  0  0  0  0  0  0  0
    3.6750    1.3430   -1.0650 C   0  0  0  0  0  0  0  0  0  0  0  0
    4.0350    2.6110   -0.8480 O   0  0  0  0  0  0  0  0  0  0  0  0
    2.4270    1.1720   -0.6450 N   0  0  0  0  0  0  0  0  0  0  0  0
    1.1610    0.9920   -0.2200 C   0  0  0  0  0  0  0  0  0  0  0  0
    0.7140    2.1070    0.2800 O   0  0  0  0  0  0  0  0  0  0  0  0
    0.3460   -0.0950   -0.2380 N   0  0  0  0  0  0  0  0  0  0  0  0
   -0.9800   -0.0870    0.2590 C   0  0  0  0  0  0  0  0  0  0  0  0
   -1.8770   -0.2940   -0.7780 C   0  0  0  0  0  0  0  0  0  0  0  0
   -2.8780   -0.4770   -1.5740 C   0  0  0  0  0  0  0  0  0  0  0  0
   -2.6840   -0.6490   -2.9480 C   0  0  0  0  0  0  0  0  0  0  0  0
   -3.9580   -0.8490   -3.6850 C   0  0  0  0  0  0  0  0  0  0  0  0
   -4.5650   -2.2160   -3.3290 C   0  0  0  0  0  0  0  0  0  0  0  0
   -5.0220   -2.2080   -1.9540 N   0  0  0  0  0  0  0  0  0  0  0  0
   -4.6590   -0.5750   -1.2940 S   0  0  0  0  0  0  0  0  0  0  0  0
   -5.0230   -0.4790    0.1500 O   0  0  0  0  0  0  0  0  0  0  0  0
   -1.2880    0.1140    1.6350 C   0  0  0  0  0  0  0  0  0  0  0  0
   -2.5070    0.1670    2.0260 O   0  0  0  0  0  0  0  0  0  0  0  0
   -0.2550    0.2560    2.6090 N   0  0  0  0  0  0  0  0  0  0  0  0
   -0.4960    0.5050    3.9910 C   0  0  2  0  0  0  0  0  0  0  0  0
   -0.3130   -0.5490    5.0080 C   0  0  0  0  0  0  0  0  0  0  0  0
   -1.7130   -0.1430    4.6140 C   0  0  0  0  0  0  0  0  0  0  0  0
  1  2  1  0
  2  3  2  0
  2  4  1  0
  4  5  1  0
  5  6  1  0
  6  7  2  0
  6  8  1  0
  8  9  1  0
  9 10  2  0
  9 11  1  0
 11 12  1  0
 12 13  2  3
 12 21  1  0
 13 14  1  0
 14 15  2  0
 14 19  1  0
 15 16  1  0
 16 17  1  0
 17 18  1  0
 19 18  1  1
 19 20  2  0
 21 22  2  0
 21 23  1  0
 24 23  1  6
 24 25  1  0
 24 26  1  0
 25 26  1  0
M  CHG  1  18   1
M  END
