
     RDKit          3D

 26 28  0  0  0  0  0  0  0  0999 V2000
    0.5300    1.9610   -0.8000 C   0  0  0  0  0  0  0  0  0  0  0  0
    0.4340    0.4920   -0.2360 C   0  0  2  0  0  0  0  0  0  0  0  0
    1.8710    0.0580   -0.1160 C   0  0  0  0  0  0  0  0  0  0  0  0
    2.2210   -1.2390    0.4190 C   0  0  1  0  0  0  0  0  0  0  0  0
    1.7060   -2.4830   -0.2980 C   0  0  0  0  0  0  0  0  0  0  0  0
    2.1560   -2.5950   -1.6040 O   0  0  0  0  0  0  0  0  0  0  0  0
    3.7460   -1.4380    0.3850 C   0  0  0  0  0  0  0  0  0  0  0  0
    4.5270   -0.5710    1.0800 O   0  0  0  0  0  0  0  0  0  0  0  0
    4.6840    0.7890    0.8730 C   0  0  0  0  0  0  0  0  0  0  0  0
    4.9080    1.1510   -0.3780 N   0  0  0  0  0  0  0  0  0  0  0  0
    4.6210    1.7720    1.8850 N   0  0  0  0  0  0  0  0  0  0  0  0
   -0.2550   -0.2140   -1.2480 N   0  0  0  0  0  0  0  0  0  0  0  0
   -1.4580   -0.8240   -0.8530 N   0  0  0  0  0  0  0  0  0  0  0  0
   -2.4130   -0.0800   -0.0430 C   0  0  0  0  0  0  0  0  0  0  0  0
   -1.7270    0.6890    0.9190 C   0  0  0  0  0  0  0  0  0  0  0  0
   -3.0340    1.5150    1.7570 S   0  0  0  0  0  0  0  0  0  0  0  0
   -4.3580    0.8380    0.8440 C   0  0  0  0  0  0  0  0  0  0  0  0
   -5.7390    1.0120    0.9230 C   0  0  0  0  0  0  0  0  0  0  0  0
   -6.1440    1.8020    1.8030 O   0  0  0  0  0  0  0  0  0  0  0  0
   -6.5520    0.3520    0.0830 N   0  0  0  0  0  0  0  0  0  0  0  0
   -5.9360   -0.4580   -0.8030 C   0  0  0  0  0  0  0  0  0  0  0  0
   -6.7360   -1.0740   -1.5900 O   0  0  0  0  0  0  0  0  0  0  0  0
   -4.6230   -0.6360   -0.8920 N   0  0  0  0  0  0  0  0  0  0  0  0
   -3.7490    0.0250   -0.0460 C   0  0  0  0  0  0  0  0  0  0  0  0
   -0.2560    0.6550    1.0620 C   0  0  1  0  0  0  0  0  0  0  0  0
   -0.0100   -0.3780    1.9790 O   0  0  0  0  0  0  0  0  0  0  0  0
  2  1  1  6
  2  3  1  0
  2 12  1  0
  2 25  1  0
  4  3  1  6
  4  5  1  0
  4  7  1  0
  5  6  1  0
  7  8  1  0
  8  9  1  0
  9 10  2  0
  9 11  1  0
 12 13  1  0
 13 14  1  0
 14 15  2  0
 14 24  1  0
 15 16  1  0
 15 25  1  0
 16 17  1  0
 17 18  1  0
 17 24  2  0
 18 19  2  0
 18 20  1  0
 20 21  1  0
 21 22  2  0
 21 23  1  0
 23 24  1  0
 25 26  1  1
M  CHG  1  12   1
M  END
