
     RDKit          3D

 26 27  0  0  0  0  0  0  0  0999 V2000
    6.8390   -0.1560    1.1120 C   0  0  0  0  0  0  0  0  0  0  0  0
    6.8610   -0.2140   -0.2910 O   0  0  0  0  0  0  0  0  0  0  0  0
    6.5010    0.9770   -0.8650 C   0  0  0  0  0  0  0  0  0  0  0  0
    5.0300    1.2520   -0.5960 C   0  0  0  0  0  0  0  0  0  0  0  0
    4.5980    2.4030   -0.7880 O   0  0  0  0  0  0  0  0  0  0  0  0
    4.1930    0.2340   -0.1500 N   0  0  0  0  0  0  0  0  0  0  0  0
    2.8240    0.2010    0.1860 C   0  0  0  0  0  0  0  0  0  0  0  0
    1.8290    1.0260    0.2240 C   0  0  0  0  0  0  0  0  0  0  0  0
    1.9530    2.4270   -0.1440 N   0  0  0  0  0  0  0  0  0  0  0  0
    0.5140    0.5490    0.6540 C   0  0  0  0  0  0  0  0  0  0  0  0
    0.3770   -0.9210    0.4040 C   0  0  2  0  0  0  0  0  0  0  0  0
    0.1410   -1.2260   -0.9880 N   0  0  0  0  0  0  0  0  0  0  0  0
   -1.1320   -1.6300   -1.4090 C   0  0  0  0  0  0  0  0  0  0  0  0
   -1.2960   -2.0500   -2.5890 O   0  0  0  0  0  0  0  0  0  0  0  0
   -2.3540   -1.6000   -0.5360 C   0  0  2  0  0  0  0  0  0  0  0  0
   -3.1500   -2.8340   -0.8770 C   0  0  0  0  0  0  0  0  0  0  0  0
   -3.0990   -0.3320   -0.8680 C   0  0  0  0  0  0  0  0  0  0  0  0
   -4.3400   -0.1530   -0.0890 C   0  0  0  0  0  0  0  0  0  0  0  0
   -4.7330   -0.9920    0.7580 O   0  0  0  0  0  0  0  0  0  0  0  0
   -5.1250    1.0090   -0.3010 N   0  0  0  0  0  0  0  0  0  0  0  0
   -6.3530    1.2720    0.4120 C   0  0  0  0  0  0  0  0  0  0  0  0
   -6.1310    1.3470    1.8510 N   0  0  0  0  0  0  0  0  0  0  0  0
   -1.9590   -1.6710    0.8490 N   0  0  0  0  0  0  0  0  0  0  0  0
   -0.5860   -1.5930    1.2580 C   0  0  0  0  0  0  0  0  0  0  0  0
   -0.3200   -2.1390    2.3720 O   0  0  0  0  0  0  0  0  0  0  0  0
    2.0980   -1.4060    0.7560 S   0  0  0  0  0  0  0  0  0  0  0  0
  1  2  1  0
  2  3  1  0
  3  4  1  0
  4  5  2  0
  4  6  1  0
  6  7  1  0
  7  8  2  0
  7 26  1  0
  8  9  1  0
  8 10  1  0
 11 10  1  6
 11 12  1  0
 11 24  1  0
 11 26  1  0
 12 13  1  0
 13 14  2  0
 13 15  1  0
 15 16  1  6
 15 17  1  0
 15 23  1  0
 17 18  1  0
 18 19  2  0
 18 20  1  0
 20 21  1  0
 21 22  1  0
 23 24  1  0
 24 25  2  0
M  CHG  1   9   1
M  END
