
     RDKit          3D

 26 27  0  0  0  0  0  0  0  0999 V2000
    4.8340   -0.1260    0.9500 C   0  0  0  0  0  0  0  0  0  0  0  0
    3.8020    0.5270    0.0200 C   0  0  1  0  0  0  0  0  0  0  0  0
    4.5420    1.5610   -0.7390 C   0  0  0  0  0  0  0  0  0  0  0  0
    5.5790    1.2650   -1.6550 N   0  0  0  0  0  0  0  0  0  0  0  0
    4.2450    2.7660   -0.5700 O   0  0  0  0  0  0  0  0  0  0  0  0
    3.2730   -0.4690   -0.9600 C   0  0  0  0  0  0  0  0  0  0  0  0
    2.0760   -1.2240   -0.5150 C   0  0  0  0  0  0  0  0  0  0  0  0
    1.1030   -0.2950    0.1410 C   0  0  1  0  0  0  0  0  0  0  0  0
   -0.1440   -0.8960    0.4900 N   0  0  0  0  0  0  0  0  0  0  0  0
   -1.4180   -0.4280    0.0290 C   0  0  0  0  0  0  0  0  0  0  0  0
   -1.4030    0.5710   -0.7260 O   0  0  0  0  0  0  0  0  0  0  0  0
   -2.6250   -1.0940    0.4300 N   0  0  0  0  0  0  0  0  0  0  0  0
   -3.8830   -0.6070   -0.0360 C   0  0  0  0  0  0  0  0  0  0  0  0
   -4.6080   -1.3910   -0.8070 C   0  0  0  0  0  0  0  0  0  0  0  0
   -4.1500   -2.7150   -1.1810 C   0  0  0  0  0  0  0  0  0  0  0  0
   -2.9260   -3.2890   -0.7820 N   0  0  0  0  0  0  0  0  0  0  0  0
   -4.8820   -3.4520   -1.9300 O   0  0  0  0  0  0  0  0  0  0  0  0
   -4.3590    0.7560    0.3490 C   0  0  0  0  0  0  0  0  0  0  0  0
   -3.6040    1.4960    1.1240 C   0  0  0  0  0  0  0  0  0  0  0  0
   -4.4620    3.0210    1.3710 S   0  0  0  0  0  0  0  0  0  0  0  0
   -3.6760    4.1080    0.6510 O   0  0  0  0  0  0  0  0  0  0  0  0
   -5.8700    2.5940    0.3800 C   0  0  0  0  0  0  0  0  0  0  0  0
   -6.8920    3.2890    0.1410 O   0  0  0  0  0  0  0  0  0  0  0  0
   -5.5630    1.2820   -0.0740 N   0  0  0  0  0  0  0  0  0  0  0  0
    1.8310    0.2580    1.3730 C   0  0  0  0  0  0  0  0  0  0  0  0
    2.8370    1.1560    0.8430 N   0  0  0  0  0  0  0  0  0  0  0  0
  2  1  1  1
  2  3  1  0
  2  6  1  0
  2 26  1  0
  3  4  1  0
  3  5  2  0
  6  7  1  0
  7  8  1  0
  8  9  1  1
  8 25  1  0
  9 10  1  0
 10 11  2  0
 10 12  1  0
 12 13  1  0
 13 14  2  3
 13 18  1  0
 14 15  1  0
 15 16  1  0
 15 17  2  0
 18 19  2  0
 18 24  1  0
 20 19  1  6
 20 21  2  0
 20 22  1  0
 22 23  2  0
 22 24  1  0
 25 26  1  0
M  CHG  1  26   1
M  END
