
     RDKit          3D

 26 28  0  0  0  0  0  0  0  0999 V2000
   -2.8630    0.4430   -1.8030 C   0  0  0  0  0  0  0  0  0  0  0  0
   -3.9320    0.4880   -0.6530 C   0  0  1  0  0  0  0  0  0  0  0  0
   -4.1320    1.9050   -0.3380 C   0  0  0  0  0  0  0  0  0  0  0  0
   -4.9040    2.2800    0.7670 N   0  0  0  0  0  0  0  0  0  0  0  0
   -3.6360    2.8320   -1.0670 O   0  0  0  0  0  0  0  0  0  0  0  0
   -5.1560    0.0090   -1.3120 N   0  0  0  0  0  0  0  0  0  0  0  0
   -5.4650   -1.3530   -0.9970 C   0  0  0  0  0  0  0  0  0  0  0  0
   -6.6750   -1.7390   -0.9020 O   0  0  0  0  0  0  0  0  0  0  0  0
   -4.3220   -2.2480   -0.7990 C   0  0  0  0  0  0  0  0  0  0  0  0
   -3.3220   -1.7180   -0.0580 O   0  0  0  0  0  0  0  0  0  0  0  0
   -3.4960   -0.4110    0.4120 C   0  0  1  0  0  0  0  0  0  0  0  0
   -2.1010   -0.0300    0.9030 C   0  0  0  0  0  0  0  0  0  0  0  0
   -1.7540    0.7930    1.9000 C   0  0  0  0  0  0  0  0  0  0  0  0
   -0.4580    0.9490    2.2030 C   0  0  0  0  0  0  0  0  0  0  0  0
    0.4920    0.2710    1.5070 C   0  0  0  0  0  0  0  0  0  0  0  0
    1.8790    0.0690    1.6470 N   0  0  0  0  0  0  0  0  0  0  0  0
    2.6820   -0.3240    0.5560 C   0  0  0  0  0  0  0  0  0  0  0  0
    2.1020   -0.4510   -0.5840 O   0  0  0  0  0  0  0  0  0  0  0  0
    4.0670   -0.5610    0.6930 N   0  0  0  0  0  0  0  0  0  0  0  0
    4.9750   -0.8890   -0.3870 C   0  0  1  0  0  0  0  0  0  0  0  0
    5.4590    0.5310   -0.8460 C   0  0  0  0  0  0  0  0  0  0  0  0
    6.8560    0.3210   -1.0660 N   0  0  0  0  0  0  0  0  0  0  0  0
    7.2380   -0.7260   -0.2100 C   0  0  0  0  0  0  0  0  0  0  0  0
    8.4190   -0.9180    0.2220 O   0  0  0  0  0  0  0  0  0  0  0  0
    6.1360   -1.5420    0.1220 N   0  0  0  0  0  0  0  0  0  0  0  0
   -0.5610   -0.6730    0.2770 S   0  0  0  0  0  0  0  0  0  0  0  0
  2  1  1  6
  2  3  1  0
  2  6  1  0
  2 11  1  0
  3  4  1  0
  3  5  2  0
  6  7  1  0
  7  8  2  0
  7  9  1  0
  9 10  1  0
 10 11  1  0
 11 12  1  6
 12 13  2  0
 12 26  1  0
 13 14  1  0
 14 15  2  0
 15 16  1  0
 15 26  1  0
 16 17  1  0
 17 18  2  0
 17 19  1  0
 20 19  1  1
 20 21  1  0
 20 25  1  0
 21 22  1  0
 22 23  1  0
 23 24  2  0
 23 25  1  0
M  CHG  1  22   1
M  END
