
     RDKit          3D

 16 17  0  0  0  0  0  0  0  0999 V2000
   -2.0450   -0.1580    1.4710 O   0  0  0  0  0  0  0  0  0  0  0  0
   -2.0170    0.4730    0.3820 C   0  0  0  0  0  0  0  0  0  0  0  0
   -0.8290    1.0910   -0.0930 N   0  0  0  0  0  0  0  0  0  0  0  0
    0.3860    0.9910    0.7010 C   0  0  0  0  0  0  0  0  0  0  0  0
    0.7170   -0.4720    0.8420 C   0  0  1  0  0  0  0  0  0  0  0  0
    0.9640   -1.2520   -0.3870 C   0  0  0  0  0  0  0  0  0  0  0  0
    2.0850   -0.9700    0.5630 C   0  0  1  0  0  0  0  0  0  0  0  0
    3.1370   -0.0240    0.0160 C   0  0  0  0  0  0  0  0  0  0  0  0
    4.4340   -0.8190   -0.1680 C   0  0  0  0  0  0  0  0  0  0  0  0
    5.6870    0.2690   -0.8100 S   0  0  2  0  0  0  0  0  0  0  0  0
    5.1020    1.6570   -1.0130 O   0  0  0  0  0  0  0  0  0  0  0  0
    6.1100   -0.2510   -2.1660 O   0  0  0  0  0  0  0  0  0  0  0  0
   -3.2470    0.5300   -0.3440 N   0  0  0  0  0  0  0  0  0  0  0  0
   -4.4650   -0.1030    0.1400 C   0  0  1  0  0  0  0  0  0  0  0  0
   -5.7310    0.7780   -0.0220 C   0  0  0  0  0  0  0  0  0  0  0  0
   -5.5420   -0.4740   -0.7950 C   0  0  0  0  0  0  0  0  0  0  0  0
  1  2  2  0
  2  3  1  0
  2 13  1  0
  3  4  1  0
  5  4  1  6
  5  6  1  0
  5  7  1  0
  6  7  1  0
  7  8  1  6
  8  9  1  0
 10  9  1  6
 10 11  2  0
 10 12  2  0
 14 13  1  6
 14 15  1  0
 14 16  1  0
 15 16  1  0
M  END
