
     RDKit          3D

 16 17  0  0  0  0  0  0  0  0999 V2000
   -3.2370    0.8830    1.1580 N   0  0  0  0  0  0  0  0  0  0  0  0
   -2.2230   -0.1520    1.2860 C   0  0  0  0  0  0  0  0  0  0  0  0
   -1.2420    0.0160    0.1590 C   0  0  1  0  0  0  0  0  0  0  0  0
   -2.0010   -0.1270   -1.0770 N   0  0  0  0  0  0  0  0  0  0  0  0
   -2.8600   -1.5900   -1.1260 S   0  0  1  0  0  0  0  0  0  0  0  0
   -3.0460   -2.0950   -2.5500 O   0  0  0  0  0  0  0  0  0  0  0  0
   -2.2240   -2.7190   -0.3700 O   0  0  0  0  0  0  0  0  0  0  0  0
   -0.6980    1.4250    0.2820 C   0  0  0  0  0  0  0  0  0  0  0  0
    0.3200    1.4620    1.3940 C   0  0  0  0  0  0  0  0  0  0  0  0
    1.5850    0.7770    0.9190 C   0  0  0  0  0  0  0  0  0  0  0  0
    1.1970   -0.2110   -0.1380 C   0  0  2  0  0  0  0  0  0  0  0  0
    2.3400   -1.2390   -0.1950 C   0  0  0  0  0  0  0  0  0  0  0  0
    3.4190   -0.3390   -0.8090 C   0  0  0  0  0  0  0  0  0  0  0  0
    2.5800    0.5600   -1.6790 C   0  0  0  0  0  0  0  0  0  0  0  0
    1.2600    0.2940   -1.4250 O   0  0  0  0  0  0  0  0  0  0  0  0
   -0.0970   -0.9270    0.1580 C   0  0  0  0  0  0  0  0  0  0  0  0
  1  2  1  0
  3  2  1  1
  3  4  1  0
  3  8  1  0
  3 16  1  0
  5  4  1  6
  5  6  2  0
  5  7  2  0
  8  9  1  0
  9 10  1  0
 11 10  1  1
 11 12  1  0
 11 15  1  0
 11 16  1  0
 12 13  1  0
 13 14  1  0
 14 15  1  0
M  END
