
     RDKit          3D

 16 17  0  0  0  0  0  0  0  0999 V2000
    2.5200   -2.2440    0.5040 N   0  0  0  0  0  0  0  0  0  0  0  0
    2.6260   -0.8580    0.1220 C   0  0  0  0  0  0  0  0  0  0  0  0
    3.5580   -0.1670    0.6530 N   0  0  0  0  0  0  0  0  0  0  0  0
    3.8360    1.5100    0.3130 S   0  0  0  0  0  0  0  0  0  0  0  0
    2.5900    2.0290   -0.8860 C   0  0  0  0  0  0  0  0  0  0  0  0
    1.6940    0.9350   -1.2520 C   0  0  0  0  0  0  0  0  0  0  0  0
    1.6960   -0.3010   -0.8310 C   0  0  0  0  0  0  0  0  0  0  0  0
    0.7210   -1.1930   -1.3290 O   0  0  0  0  0  0  0  0  0  0  0  0
   -0.3540   -1.6210   -0.4950 C   0  0  0  0  0  0  0  0  0  0  0  0
   -1.2020   -0.4910   -0.0110 C   0  0  2  0  0  0  0  0  0  0  0  0
   -2.2060   -1.0970    0.9790 C   0  0  0  0  0  0  0  0  0  0  0  0
   -3.0050   -1.9940    0.3020 O   0  0  0  0  0  0  0  0  0  0  0  0
   -1.8850    0.2870   -1.0820 C   0  0  0  0  0  0  0  0  0  0  0  0
   -1.7290    1.7190   -0.6690 C   0  0  0  0  0  0  0  0  0  0  0  0
   -1.0370    1.6310    0.6500 C   0  0  0  0  0  0  0  0  0  0  0  0
   -0.4320    0.3990    0.7280 O   0  0  0  0  0  0  0  0  0  0  0  0
  1  2  1  0
  2  3  2  0
  2  7  1  0
  3  4  1  0
  4  5  1  0
  5  6  1  0
  6  7  2  0
  7  8  1  0
  8  9  1  0
 10  9  1  6
 10 11  1  0
 10 13  1  0
 10 16  1  0
 11 12  1  0
 13 14  1  0
 14 15  1  0
 15 16  1  0
M  END
