
     RDKit          3D

 20 22  0  0  0  0  0  0  0  0999 V2000
    3.9460    2.3840   -0.2300 C   0  0  0  0  0  0  0  0  0  0  0  0
    4.1260    0.8400   -1.1040 S   0  0  0  0  0  0  0  0  0  0  0  0
    4.1100   -0.5710   -0.0470 C   0  0  0  0  0  0  0  0  0  0  0  0
    2.7980   -1.0660    0.4380 C   0  0  2  0  0  0  0  0  0  0  0  0
    1.8190   -1.4380   -0.6800 C   0  0  0  0  0  0  0  0  0  0  0  0
    0.5450   -1.0030   -0.2080 N   0  0  1  0  0  0  0  0  0  0  0  0
   -0.6340   -1.3500   -0.9310 C   0  0  0  0  0  0  0  0  0  0  0  0
   -1.7770   -0.9060   -0.0730 C   0  0  0  0  0  0  0  0  0  0  0  0
   -1.9890   -1.0650    1.2490 C   0  0  0  0  0  0  0  0  0  0  0  0
   -3.0500   -0.3370    1.5910 N   0  0  0  0  0  0  0  0  0  0  0  0
   -3.5760    0.3050    0.5050 C   0  0  0  0  0  0  0  0  0  0  0  0
   -4.6050    1.1410    0.3520 C   0  0  0  0  0  0  0  0  0  0  0  0
   -5.1960    1.7100    1.5290 N   0  0  0  0  0  0  0  0  0  0  0  0
   -4.8730    1.6170   -0.8740 N   0  0  0  0  0  0  0  0  0  0  0  0
   -4.1150    1.2520   -1.9470 C   0  0  0  0  0  0  0  0  0  0  0  0
   -3.0870    0.4330   -1.7530 N   0  0  0  0  0  0  0  0  0  0  0  0
   -2.7590   -0.0700   -0.5580 C   0  0  0  0  0  0  0  0  0  0  0  0
    0.5970   -0.9520    1.1960 C   0  0  0  0  0  0  0  0  0  0  0  0
    2.0200   -0.2760    1.3920 C   0  0  1  0  0  0  0  0  0  0  0  0
    2.3660   -0.4750    2.7300 O   0  0  0  0  0  0  0  0  0  0  0  0
  1  2  1  0
  2  3  1  0
  4  3  1  6
  4  5  1  0
  4 19  1  0
  5  6  1  0
  6  7  1  1
  6 18  1  0
  7  8  1  0
  8  9  2  0
  8 17  1  0
  9 10  1  0
 10 11  1  0
 11 12  2  0
 11 17  1  0
 12 13  1  0
 12 14  1  0
 14 15  2  0
 15 16  1  0
 16 17  2  0
 18 19  1  0
 19 20  1  1
M  CHG  1   6   1
M  END
