
     RDKit          3D

 16 16  0  0  0  0  0  0  0  0999 V2000
   -3.3400   -2.0950   -0.6520 C   0  0  0  0  0  0  0  0  0  0  0  0
   -3.0720   -0.7610   -0.8980 O   0  0  0  0  0  0  0  0  0  0  0  0
   -2.0620   -0.2630   -0.0700 C   0  0  1  0  0  0  0  0  0  0  0  0
   -2.5290   -0.4190    1.3490 C   0  0  0  0  0  0  0  0  0  0  0  0
   -0.7590   -0.9730   -0.3480 C   0  0  0  0  0  0  0  0  0  0  0  0
    0.4040   -0.0050   -0.4170 C   0  0  2  0  0  0  0  0  0  0  0  0
    1.6910   -0.7710   -0.5130 C   0  0  0  0  0  0  0  0  0  0  0  0
    2.9090    0.0880   -0.5870 C   0  0  0  0  0  0  0  0  0  0  0  0
    4.0770   -0.8030   -0.6760 N   0  0  0  0  0  0  0  0  0  0  0  0
    5.4900    0.2070   -0.7620 S   0  0  2  0  0  0  0  0  0  0  0  0
    5.1190    1.5020   -1.4490 O   0  0  0  0  0  0  0  0  0  0  0  0
    6.4930   -0.5200   -1.6090 O   0  0  0  0  0  0  0  0  0  0  0  0
    0.3590    1.0040    0.6660 C   0  0  0  0  0  0  0  0  0  0  0  0
   -0.8980    1.8370    0.4930 C   0  0  0  0  0  0  0  0  0  0  0  0
   -1.9080    1.2020   -0.4010 C   0  0  2  0  0  0  0  0  0  0  0  0
   -3.1640    1.9100   -0.2370 N   0  0  0  0  0  0  0  0  0  0  0  0
  1  2  1  0
  2  3  1  0
  3  4  1  1
  3  5  1  0
  3 15  1  0
  5  6  1  0
  6  7  1  1
  6 13  1  0
  7  8  1  0
  8  9  1  0
 10  9  1  6
 10 11  2  0
 10 12  2  0
 13 14  1  0
 14 15  1  0
 15 16  1  1
M  END
