
     RDKit          3D

 16 16  0  0  0  0  0  0  0  0999 V2000
   -5.7590    0.8650   -0.9100 N   0  0  0  0  0  0  0  0  0  0  0  0
   -5.2810    0.4790   -0.0810 C   0  0  0  0  0  0  0  0  0  0  0  0
   -4.6230   -0.0790    1.0640 C   0  0  0  0  0  0  0  0  0  0  0  0
   -3.2170    0.7010    1.1770 C   0  0  0  0  0  0  0  0  0  0  0  0
   -2.2880   -0.0690    0.3250 C   0  0  1  0  0  0  0  0  0  0  0  0
   -2.6060   -0.2990   -1.0160 N   0  0  0  0  0  0  0  0  0  0  0  0
   -0.9650    0.5770    0.4370 C   0  0  0  0  0  0  0  0  0  0  0  0
   -0.7210    1.3690    1.4080 O   0  0  0  0  0  0  0  0  0  0  0  0
    0.0320    0.3470   -0.4390 O   0  0  0  0  0  0  0  0  0  0  0  0
    1.3330    0.6870   -0.2810 C   0  0  2  0  0  0  0  0  0  0  0  0
    2.1820    1.0400   -1.4660 C   0  0  0  0  0  0  0  0  0  0  0  0
    3.2730   -0.0440   -1.5450 C   0  0  0  0  0  0  0  0  0  0  0  0
    3.3470   -0.4440   -0.1090 C   0  0  2  0  0  0  0  0  0  0  0  0
    4.3690   -1.8800    0.2780 S   0  0  0  0  0  0  0  0  0  0  0  0
    5.8290   -1.3460    1.0030 O   0  0  0  0  0  0  0  0  0  0  0  0
    1.9570   -0.6230    0.2940 C   0  0  0  0  0  0  0  0  0  0  0  0
  1  2  3  0
  2  3  1  0
  3  4  1  0
  4  5  1  0
  5  6  1  6
  5  7  1  0
  7  8  2  0
  7  9  1  0
 10  9  1  6
 10 11  1  0
 10 16  1  0
 11 12  1  0
 12 13  1  0
 13 14  1  6
 13 16  1  0
 14 15  1  0
M  END
