
     RDKit          3D

 40 42  0  0  0  0  0  0  0  0999 V2000
    2.8230    3.4580   -1.7240 C   0  0  0  0  0  0  0  0  0  0  0  0
    2.3440    2.7470   -0.5020 C   0  0  0  0  0  0  0  0  0  0  0  0
    2.0310    1.4170   -0.7230 O   0  0  0  0  0  0  0  0  0  0  0  0
    1.5900    0.7420    0.3740 C   0  0  1  0  0  0  0  0  0  0  0  0
    0.1390    0.3840    0.1900 C   0  0  0  0  0  0  0  0  0  0  0  0
   -0.5420   -0.5170    1.5870 S   0  0  0  0  0  0  0  0  0  0  0  0
   -2.2630   -0.8460    1.2670 C   0  0  0  0  0  0  0  0  0  0  0  0
   -3.2140    0.0560    1.6770 C   0  0  0  0  0  0  0  0  0  0  0  0
   -4.5830   -0.1760    1.4350 C   0  0  0  0  0  0  0  0  0  0  0  0
   -5.0060   -1.3030    0.7870 C   0  0  0  0  0  0  0  0  0  0  0  0
   -6.3470   -1.6000    0.5090 N   0  0  0  0  0  0  0  0  0  0  0  0
   -7.4910   -0.8400    0.8430 C   0  0  0  0  0  0  0  0  0  0  0  0
   -7.3800    0.2280    1.4560 O   0  0  0  0  0  0  0  0  0  0  0  0
   -8.8180   -1.3560    0.4400 C   0  0  0  0  0  0  0  0  0  0  0  0
   -9.8930   -0.3790    0.7760 C   0  0  0  0  0  0  0  0  0  0  0  0
   -9.7800    0.9300    0.0770 C   0  0  1  0  0  0  0  0  0  0  0  0
   -9.8330    0.6860   -1.3060 O   0  0  0  0  0  0  0  0  0  0  0  0
  -10.9790    1.8280    0.3800 C   0  0  0  0  0  0  0  0  0  0  0  0
  -10.8220    3.1300   -0.3400 C   0  0  0  0  0  0  0  0  0  0  0  0
   -4.0350   -2.2190    0.3710 C   0  0  0  0  0  0  0  0  0  0  0  0
   -4.4860   -3.4430   -0.3330 C   0  0  0  0  0  0  0  0  0  0  0  0
   -2.6980   -1.9740    0.6170 C   0  0  0  0  0  0  0  0  0  0  0  0
    2.4120   -0.3770    0.8200 C   0  0  0  0  0  0  0  0  0  0  0  0
    2.0320   -1.0360    1.8230 O   0  0  0  0  0  0  0  0  0  0  0  0
    3.6030   -0.7510    0.1870 N   0  0  0  0  0  0  0  0  0  0  0  0
    4.3540   -1.8880    0.7150 C   0  0  1  0  0  0  0  0  0  0  0  0
    4.4740   -2.9130   -0.3630 C   0  0  0  0  0  0  0  0  0  0  0  0
    5.8360   -2.7290   -0.8930 C   0  0  0  0  0  0  0  0  0  0  0  0
    6.2050   -3.0610   -2.0460 O   0  0  0  0  0  0  0  0  0  0  0  0
    6.6160   -2.1130    0.1560 N   0  0  0  0  0  0  0  0  0  0  0  0
    8.0360   -2.1450    0.2280 C   0  0  0  0  0  0  0  0  0  0  0  0
    8.7950   -1.0860   -0.3800 C   0  0  0  0  0  0  0  0  0  0  0  0
   10.1170   -1.2570   -0.2510 O   0  0  0  0  0  0  0  0  0  0  0  0
    8.4310    0.0540   -1.0590 N   0  0  0  0  0  0  0  0  0  0  0  0
    9.5420    0.9290   -1.5620 C   0  0  0  0  0  0  0  0  0  0  0  0
    9.1730    2.3220   -1.0810 C   0  0  0  0  0  0  0  0  0  0  0  0
    8.1830    2.2960   -0.0900 O   0  0  0  0  0  0  0  0  0  0  0  0
    6.9700    1.8750   -0.5950 C   0  0  0  0  0  0  0  0  0  0  0  0
    7.1460    0.5680   -1.3690 C   0  0  0  0  0  0  0  0  0  0  0  0
    5.7320   -1.4930    1.1350 C   0  0  0  0  0  0  0  0  0  0  0  0
  1  2  1  0
  2  3  1  0
  3  4  1  0
  4  5  1  6
  4 23  1  0
  5  6  1  0
  6  7  1  0
  7  8  2  0
  7 22  1  0
  8  9  1  0
  9 10  2  0
 10 11  1  0
 10 20  1  0
 11 12  1  0
 12 13  2  0
 12 14  1  0
 14 15  1  0
 15 16  1  0
 16 17  1  6
 16 18  1  0
 18 19  1  0
 20 21  1  0
 20 22  2  0
 23 24  2  0
 23 25  1  0
 26 25  1  6
 26 27  1  0
 26 40  1  0
 27 28  1  0
 28 29  2  0
 28 30  1  0
 30 31  1  0
 30 40  1  0
 31 32  1  0
 32 33  2  0
 32 34  1  0
 34 35  1  0
 34 39  1  0
 35 36  1  0
 36 37  1  0
 37 38  1  0
 38 39  1  0
M  END
