
     RDKit          3D

 40 42  0  0  0  0  0  0  0  0999 V2000
   -5.8700    1.5550   -0.9420 C   0  0  0  0  0  0  0  0  0  0  0  0
   -6.5400    0.3780   -0.3420 C   0  0  2  0  0  0  0  0  0  0  0  0
   -6.6860    0.5720    1.1790 C   0  0  0  0  0  0  0  0  0  0  0  0
   -7.5160    1.8160    1.4720 C   0  0  0  0  0  0  0  0  0  0  0  0
   -8.7780    1.6320    0.8640 O   0  0  0  0  0  0  0  0  0  0  0  0
   -5.7070   -0.8020   -0.4930 N   0  0  0  0  0  0  0  0  0  0  0  0
   -6.3190   -1.9860   -1.0200 C   0  0  0  0  0  0  0  0  0  0  0  0
   -4.3530   -0.7360   -0.1410 C   0  0  0  0  0  0  0  0  0  0  0  0
   -3.8510    0.3710    0.2590 O   0  0  0  0  0  0  0  0  0  0  0  0
   -3.4300   -1.8710   -0.1930 C   0  0  0  0  0  0  0  0  0  0  0  0
   -2.4460   -1.7690   -1.2930 C   0  0  0  0  0  0  0  0  0  0  0  0
   -1.5000   -0.6650   -1.4000 C   0  0  0  0  0  0  0  0  0  0  0  0
   -0.5670   -0.4980   -0.3320 N   0  0  0  0  0  0  0  0  0  0  0  0
   -0.2400    0.6460    0.4430 C   0  0  0  0  0  0  0  0  0  0  0  0
   -0.9780    1.8540    0.4200 C   0  0  0  0  0  0  0  0  0  0  0  0
   -0.6080    2.9260    1.1710 C   0  0  0  0  0  0  0  0  0  0  0  0
    0.5100    2.8230    1.9690 C   0  0  0  0  0  0  0  0  0  0  0  0
    1.2310    1.6450    1.9930 C   0  0  0  0  0  0  0  0  0  0  0  0
    0.8470    0.5480    1.2190 C   0  0  0  0  0  0  0  0  0  0  0  0
    1.5430   -0.6900    1.1730 N   0  0  0  0  0  0  0  0  0  0  0  0
    2.7820   -1.0740    1.7490 C   0  0  0  0  0  0  0  0  0  0  0  0
    4.0240   -0.8130    1.0630 C   0  0  0  0  0  0  0  0  0  0  0  0
    5.1420   -0.5230    1.8680 C   0  0  0  0  0  0  0  0  0  0  0  0
    6.3770   -0.2780    1.3090 C   0  0  0  0  0  0  0  0  0  0  0  0
    6.6100   -0.2960   -0.0490 C   0  0  0  0  0  0  0  0  0  0  0  0
    7.9320   -0.0600   -0.6370 C   0  0  1  0  0  0  0  0  0  0  0  0
    8.3400   -1.2660   -1.2930 O   0  0  0  0  0  0  0  0  0  0  0  0
    7.9940    1.0110   -1.6850 C   0  0  2  0  0  0  0  0  0  0  0  0
    9.3440    1.0590   -2.0880 F   0  0  0  0  0  0  0  0  0  0  0  0
    7.6830    2.2430   -1.2050 F   0  0  0  0  0  0  0  0  0  0  0  0
    7.3030    0.7020   -2.8420 F   0  0  0  0  0  0  0  0  0  0  0  0
    8.9990    0.1990    0.3790 C   0  0  1  0  0  0  0  0  0  0  0  0
    9.1630   -0.8740    1.2510 F   0  0  0  0  0  0  0  0  0  0  0  0
   10.2120    0.2500   -0.3290 F   0  0  0  0  0  0  0  0  0  0  0  0
    8.8810    1.4050    1.0230 F   0  0  0  0  0  0  0  0  0  0  0  0
    5.5260   -0.5750   -0.8440 C   0  0  0  0  0  0  0  0  0  0  0  0
    4.2680   -0.8250   -0.2760 C   0  0  0  0  0  0  0  0  0  0  0  0
    0.5450   -1.7290    0.2420 S   0  0  2  0  0  0  0  0  0  0  0  0
    1.2070   -2.4270   -0.8730 O   0  0  0  0  0  0  0  0  0  0  0  0
   -0.1880   -2.6800    1.1550 O   0  0  0  0  0  0  0  0  0  0  0  0
  2  1  1  1
  2  3  1  0
  2  6  1  0
  3  4  1  0
  4  5  1  0
  6  7  1  0
  6  8  1  0
  8  9  2  0
  8 10  1  0
 10 11  1  0
 11 12  1  0
 12 13  1  0
 13 14  1  0
 38 13  1  6
 14 15  2  0
 14 19  1  0
 15 16  1  0
 16 17  2  0
 17 18  1  0
 18 19  2  0
 19 20  1  0
 20 21  1  0
 20 38  1  0
 21 22  1  0
 22 23  2  0
 22 37  1  0
 23 24  1  0
 24 25  2  0
 25 26  1  0
 25 36  1  0
 26 27  1  6
 26 28  1  0
 26 32  1  0
 28 29  1  6
 28 30  1  0
 28 31  1  0
 32 33  1  1
 32 34  1  0
 32 35  1  0
 36 37  2  0
 38 39  2  0
 38 40  2  0
M  END
