
     RDKit          3D

 40 43  0  0  0  0  0  0  0  0999 V2000
  -11.1940    1.2850   -1.8420 C   0  0  0  0  0  0  0  0  0  0  0  0
   -9.8630    1.2660   -1.5860 C   0  0  0  0  0  0  0  0  0  0  0  0
   -9.2880    0.1950   -0.8230 C   0  0  0  0  0  0  0  0  0  0  0  0
   -8.0110    0.1060   -0.5370 C   0  0  0  0  0  0  0  0  0  0  0  0
   -7.0680    1.0860   -0.9680 C   0  0  0  0  0  0  0  0  0  0  0  0
   -5.7850    1.2090   -0.8270 C   0  0  0  0  0  0  0  0  0  0  0  0
   -4.7950    0.4050   -0.1870 C   0  0  0  0  0  0  0  0  0  0  0  0
   -5.0000   -0.9020    0.0770 C   0  0  0  0  0  0  0  0  0  0  0  0
   -4.0840   -1.6330    0.8000 C   0  0  0  0  0  0  0  0  0  0  0  0
   -2.9610   -1.0540    1.2590 C   0  0  0  0  0  0  0  0  0  0  0  0
   -2.6710    0.3570    1.0110 C   0  0  0  0  0  0  0  0  0  0  0  0
   -1.4260    0.7010    1.6370 C   0  0  0  0  0  0  0  0  0  0  0  0
   -0.6040    1.7500    1.8180 N   0  0  0  0  0  0  0  0  0  0  0  0
    0.5940    1.6520    1.0000 C   0  0  0  0  0  0  0  0  0  0  0  0
    0.8600    2.5530    0.2060 O   0  0  0  0  0  0  0  0  0  0  0  0
    1.4460    0.4890    1.1470 C   0  0  0  0  0  0  0  0  0  0  0  0
    2.5400    0.3680    0.4240 C   0  0  0  0  0  0  0  0  0  0  0  0
    3.4660   -0.7400    0.4800 C   0  0  0  0  0  0  0  0  0  0  0  0
    3.2540   -1.8070    1.3160 C   0  0  0  0  0  0  0  0  0  0  0  0
    4.1340   -2.8640    1.3820 C   0  0  0  0  0  0  0  0  0  0  0  0
    5.2610   -2.8440    0.5810 C   0  0  0  0  0  0  0  0  0  0  0  0
    5.5280   -1.8180   -0.2660 C   0  0  0  0  0  0  0  0  0  0  0  0
    6.6500   -1.7390   -1.0800 N   0  0  0  0  0  0  0  0  0  0  0  0
    7.7410   -2.6250   -1.0760 C   0  0  0  0  0  0  0  0  0  0  0  0
    7.8000   -3.5890   -0.3170 O   0  0  0  0  0  0  0  0  0  0  0  0
    8.9070   -2.4100   -2.0350 C   0  0  0  0  0  0  0  0  0  0  0  0
   10.1640   -1.4160   -1.2010 S   0  0  0  0  0  0  0  0  0  0  0  0
    9.5220    0.2040   -0.9100 C   0  0  0  0  0  0  0  0  0  0  0  0
    8.8450    0.6470    0.1620 N   0  0  0  0  0  0  0  0  0  0  0  0
    8.5450    1.9350   -0.0210 N   0  0  0  0  0  0  0  0  0  0  0  0
    9.0380    2.2960   -1.2150 C   0  0  0  0  0  0  0  0  0  0  0  0
    8.9430    3.4420   -1.7210 O   0  0  0  0  0  0  0  0  0  0  0  0
    9.6480    1.2380   -1.7850 N   0  0  0  0  0  0  0  0  0  0  0  0
    4.6000   -0.7760   -0.2890 C   0  0  0  0  0  0  0  0  0  0  0  0
   -3.5770    1.0450    0.3040 C   0  0  0  0  0  0  0  0  0  0  0  0
   -3.5520    2.4100   -0.1150 C   0  0  0  0  0  0  0  0  0  0  0  0
   -2.5560    3.3350    0.1660 N   0  0  0  0  0  0  0  0  0  0  0  0
   -2.1900   -2.0840    1.9810 C   0  0  0  0  0  0  0  0  0  0  0  0
   -3.0750   -3.1280    2.2190 O   0  0  0  0  0  0  0  0  0  0  0  0
   -4.0500   -3.0680    1.2350 C   0  0  0  0  0  0  0  0  0  0  0  0
  1  2  2  0
  2  3  1  0
  3  4  2  3
  4  5  1  0
  5  6  2  3
  6  7  1  0
  7  8  2  0
  7 35  1  0
  8  9  1  0
  9 10  2  0
  9 40  1  0
 10 11  1  0
 10 38  1  0
 11 12  1  0
 11 35  2  0
 12 13  1  0
 13 14  1  0
 14 15  2  0
 14 16  1  0
 16 17  2  3
 17 18  1  0
 18 19  2  0
 18 34  1  0
 19 20  1  0
 20 21  2  0
 21 22  1  0
 22 23  1  0
 22 34  2  0
 23 24  1  0
 24 25  2  0
 24 26  1  0
 26 27  1  0
 27 28  1  0
 28 29  2  0
 28 33  1  0
 29 30  1  0
 30 31  1  0
 31 32  2  0
 31 33  1  0
 35 36  1  0
 36 37  1  0
 38 39  1  0
 39 40  1  0
M  CHG  2  13   1  37   1
M  END
