
     RDKit          3D

 40 42  0  0  0  0  0  0  0  0999 V2000
   -5.9270    4.5410   -2.1400 C   0  0  0  0  0  0  0  0  0  0  0  0
   -6.3330    4.6210   -0.6900 C   0  0  0  0  0  0  0  0  0  0  0  0
   -7.0440    3.4770   -0.3130 O   0  0  0  0  0  0  0  0  0  0  0  0
   -6.4620    2.2230   -0.3570 C   0  0  0  0  0  0  0  0  0  0  0  0
   -5.1720    1.9910   -0.7430 C   0  0  0  0  0  0  0  0  0  0  0  0
   -4.6020    0.7110   -0.7800 C   0  0  0  0  0  0  0  0  0  0  0  0
   -5.3290   -0.3820   -0.4240 C   0  0  0  0  0  0  0  0  0  0  0  0
   -4.8090   -1.6830   -0.4320 N   0  0  0  0  0  0  0  0  0  0  0  0
   -3.5390   -2.1850   -0.7690 C   0  0  1  0  0  0  0  0  0  0  0  0
   -3.0580   -1.9850   -2.1820 C   0  0  0  0  0  0  0  0  0  0  0  0
   -1.5210   -1.9800   -2.0730 C   0  0  0  0  0  0  0  0  0  0  0  0
   -1.2800   -2.3170   -0.6970 N   0  0  0  0  0  0  0  0  0  0  0  0
   -0.2260   -3.0730   -0.1710 C   0  0  0  0  0  0  0  0  0  0  0  0
   -0.1540   -3.2550    1.0680 O   0  0  0  0  0  0  0  0  0  0  0  0
    0.8450   -3.6950   -1.0150 C   0  0  0  0  0  0  0  0  0  0  0  0
    1.7630   -4.4960   -0.1460 C   0  0  0  0  0  0  0  0  0  0  0  0
    2.5530   -3.5310    1.1220 S   0  0  0  0  0  0  0  0  0  0  0  0
    3.8240   -2.3670    0.4410 C   0  0  1  0  0  0  0  0  0  0  0  0
    4.8960   -3.1950   -0.1930 C   0  0  0  0  0  0  0  0  0  0  0  0
    3.1420   -1.4860   -0.5910 C   0  0  0  0  0  0  0  0  0  0  0  0
    4.2670   -1.5610    1.6200 C   0  0  0  0  0  0  0  0  0  0  0  0
    5.2410   -0.5450    1.4000 N   0  0  0  0  0  0  0  0  0  0  0  0
    6.5820   -0.6050    1.0540 C   0  0  0  0  0  0  0  0  0  0  0  0
    7.0840   -1.7720    0.8980 O   0  0  0  0  0  0  0  0  0  0  0  0
    7.4330    0.4770    0.8560 N   0  0  0  0  0  0  0  0  0  0  0  0
    8.8550    0.2470    0.3370 C   0  0  0  0  0  0  0  0  0  0  0  0
    8.7990    1.2030   -0.8530 C   0  0  0  0  0  0  0  0  0  0  0  0
    7.7470    2.2690   -0.4940 C   0  0  0  0  0  0  0  0  0  0  0  0
    7.4800    1.8940    0.9690 C   0  0  1  0  0  0  0  0  0  0  0  0
    6.5280    2.6730    1.6770 C   0  0  0  0  0  0  0  0  0  0  0  0
    5.8840    2.3510    2.6830 O   0  0  0  0  0  0  0  0  0  0  0  0
    6.2590    3.9820    1.1930 O   0  0  0  0  0  0  0  0  0  0  0  0
    5.3360    4.8260    1.8190 C   0  0  0  0  0  0  0  0  0  0  0  0
   -2.3700   -1.7370    0.0610 C   0  0  0  0  0  0  0  0  0  0  0  0
   -6.6550   -0.1380   -0.0290 C   0  0  0  0  0  0  0  0  0  0  0  0
   -7.2250    1.0930    0.0150 C   0  0  0  0  0  0  0  0  0  0  0  0
   -8.4970    1.3580    0.3970 O   0  0  0  0  0  0  0  0  0  0  0  0
   -9.4840    0.5150    0.8550 C   0  0  0  0  0  0  0  0  0  0  0  0
   -9.1720   -0.1500    2.1680 C   0  0  0  0  0  0  0  0  0  0  0  0
   -8.9910    0.8800    3.1280 O   0  0  0  0  0  0  0  0  0  0  0  0
  1  2  1  0
  2  3  1  0
  3  4  1  0
  4  5  2  0
  4 36  1  0
  5  6  1  0
  6  7  2  0
  7  8  1  0
  7 35  1  0
  9  8  1  1
  9 10  1  0
  9 34  1  0
 10 11  1  0
 11 12  1  0
 12 13  1  0
 12 34  1  0
 13 14  2  0
 13 15  1  0
 15 16  1  0
 16 17  1  0
 17 18  1  0
 18 19  1  6
 18 20  1  0
 18 21  1  0
 21 22  1  0
 22 23  1  0
 23 24  2  0
 23 25  1  0
 25 26  1  0
 25 29  1  0
 26 27  1  0
 27 28  1  0
 28 29  1  0
 29 30  1  6
 30 31  2  0
 30 32  1  0
 32 33  1  0
 35 36  2  0
 36 37  1  0
 37 38  1  0
 38 39  1  0
 39 40  1  0
M  END
