
     RDKit          3D

 40 41  0  0  0  0  0  0  0  0999 V2000
    3.3370   -4.9240    1.8710 C   0  0  0  0  0  0  0  0  0  0  0  0
    2.7370   -3.7150    1.4100 O   0  0  0  0  0  0  0  0  0  0  0  0
    1.4340   -3.3790    1.6730 C   0  0  0  0  0  0  0  0  0  0  0  0
    0.8220   -4.2770    2.3810 O   0  0  0  0  0  0  0  0  0  0  0  0
    0.7020   -2.2010    1.2760 C   0  0  0  0  0  0  0  0  0  0  0  0
    1.2320   -1.2560    0.5640 C   0  0  0  0  0  0  0  0  0  0  0  0
    2.5870   -1.1580    0.0250 C   0  0  0  0  0  0  0  0  0  0  0  0
    3.2540    0.1430    0.4040 C   0  0  2  0  0  0  0  0  0  0  0  0
    2.4560    1.2930   -0.2150 C   0  0  0  0  0  0  0  0  0  0  0  0
    4.5970    0.2210   -0.1060 N   0  0  0  0  0  0  0  0  0  0  0  0
    5.6850    0.8810    0.5090 C   0  0  0  0  0  0  0  0  0  0  0  0
    5.4910    1.4800    1.5710 O   0  0  0  0  0  0  0  0  0  0  0  0
    6.9940    0.8780   -0.0550 N   0  0  0  0  0  0  0  0  0  0  0  0
    8.1360    1.5610    0.4910 C   0  0  1  0  0  0  0  0  0  0  0  0
    8.9130    0.5640    1.3880 C   0  0  0  0  0  0  0  0  0  0  0  0
   10.2000    1.2500    1.8240 C   0  0  0  0  0  0  0  0  0  0  0  0
   11.1560    1.3870    0.6760 C   0  0  0  0  0  0  0  0  0  0  0  0
   10.4140    1.4240   -0.5730 N   0  0  0  0  0  0  0  0  0  0  0  0
    9.0740    1.9140   -0.5850 C   0  0  0  0  0  0  0  0  0  0  0  0
    8.7420    2.6630   -1.5680 O   0  0  0  0  0  0  0  0  0  0  0  0
   -0.6210   -2.1480    1.7090 O   0  0  0  0  0  0  0  0  0  0  0  0
   -1.5790   -1.2020    1.4940 C   0  0  0  0  0  0  0  0  0  0  0  0
   -1.9420   -0.9440    0.0690 C   0  0  0  0  0  0  0  0  0  0  0  0
   -1.5130   -1.5870   -1.0690 C   0  0  0  0  0  0  0  0  0  0  0  0
   -2.1150   -0.9970   -2.1500 C   0  0  0  0  0  0  0  0  0  0  0  0
   -2.9150    0.0150   -1.6090 C   0  0  0  0  0  0  0  0  0  0  0  0
   -3.7290    0.8860   -2.4860 C   0  0  0  0  0  0  0  0  0  0  0  0
   -5.0540    0.2890   -2.8300 C   0  0  1  0  0  0  0  0  0  0  0  0
   -5.8040    1.2730   -3.7260 C   0  0  0  0  0  0  0  0  0  0  0  0
   -4.8650   -0.9590   -3.7240 C   0  0  0  0  0  0  0  0  0  0  0  0
   -5.8660   -0.1590   -1.6740 C   0  0  0  0  0  0  0  0  0  0  0  0
   -6.2520    0.8660   -0.6960 C   0  0  0  0  0  0  0  0  0  0  0  0
   -5.8980    2.0570   -0.8260 O   0  0  0  0  0  0  0  0  0  0  0  0
   -7.0470    0.5070    0.4240 N   0  0  0  0  0  0  0  0  0  0  0  0
   -7.4360   -0.8830    0.6030 C   0  0  0  0  0  0  0  0  0  0  0  0
   -6.2070   -1.7810    1.5950 S   0  0  0  0  0  0  0  0  0  0  0  0
   -7.4650    1.5330    1.3510 C   0  0  1  0  0  0  0  0  0  0  0  0
   -6.2850    2.2120    1.9920 C   0  0  0  0  0  0  0  0  0  0  0  0
   -8.3630    2.5200    0.6750 C   0  0  0  0  0  0  0  0  0  0  0  0
   -2.7810    0.0030   -0.3260 O   0  0  0  0  0  0  0  0  0  0  0  0
  1  2  1  0
  2  3  1  0
  3  4  2  0
  3  5  1  0
  5  6  2  3
  5 21  1  0
  6  7  1  0
  7  8  1  0
  8  9  1  6
  8 10  1  0
 10 11  1  0
 11 12  2  0
 11 13  1  0
 14 13  1  6
 14 15  1  0
 14 19  1  0
 15 16  1  0
 16 17  1  0
 17 18  1  0
 18 19  1  0
 19 20  2  0
 21 22  1  0
 22 23  1  0
 23 24  2  0
 23 40  1  0
 24 25  1  0
 25 26  2  0
 26 27  1  0
 26 40  1  0
 27 28  1  0
 28 29  1  6
 28 30  1  0
 28 31  1  0
 31 32  1  0
 32 33  2  0
 32 34  1  0
 34 35  1  0
 34 37  1  0
 35 36  1  0
 37 38  1  6
 37 39  1  0
M  END
