
     RDKit          3D

 40 42  0  0  0  0  0  0  0  0999 V2000
   -6.2560    3.2370   -2.6930 C   0  0  0  0  0  0  0  0  0  0  0  0
   -6.5300    2.0460   -2.3100 N   0  0  0  0  0  0  0  0  0  0  0  0
   -5.8990    0.8730   -2.7900 C   0  0  0  0  0  0  0  0  0  0  0  0
   -6.5640    0.1870   -3.7160 C   0  0  0  0  0  0  0  0  0  0  0  0
   -6.0210   -1.0660   -4.3110 C   0  0  0  0  0  0  0  0  0  0  0  0
   -4.5880    0.3750   -2.3920 C   0  0  0  0  0  0  0  0  0  0  0  0
   -4.5160   -0.0960   -0.9940 C   0  0  2  0  0  0  0  0  0  0  0  0
   -4.7990    0.8770    0.0510 C   0  0  0  0  0  0  0  0  0  0  0  0
   -5.8070    1.6440    0.0780 O   0  0  0  0  0  0  0  0  0  0  0  0
   -3.9160    1.0420    1.1740 N   0  0  0  0  0  0  0  0  0  0  0  0
   -4.1710    1.9960    2.2100 C   0  0  0  0  0  0  0  0  0  0  0  0
   -4.3470    1.7410    3.5050 C   0  0  0  0  0  0  0  0  0  0  0  0
   -4.5850    2.9900    4.2480 C   0  0  0  0  0  0  0  0  0  0  0  0
   -4.5260    4.0320    3.2030 C   0  0  0  0  0  0  0  0  0  0  0  0
   -4.2880    3.4290    2.0500 C   0  0  0  0  0  0  0  0  0  0  0  0
   -3.2300   -0.7520   -0.7250 N   0  0  0  0  0  0  0  0  0  0  0  0
   -3.2270   -2.1340   -0.3730 C   0  0  0  0  0  0  0  0  0  0  0  0
   -3.3320   -2.4160    1.1000 C   0  0  0  0  0  0  0  0  0  0  0  0
   -3.3180   -3.7930    1.2830 O   0  0  0  0  0  0  0  0  0  0  0  0
   -3.4160   -4.1270    2.6370 C   0  0  0  0  0  0  0  0  0  0  0  0
   -2.0040   -0.0440   -0.8090 C   0  0  0  0  0  0  0  0  0  0  0  0
   -2.0110    1.1850   -1.1420 O   0  0  0  0  0  0  0  0  0  0  0  0
   -0.6920   -0.6610   -0.5280 C   0  0  0  0  0  0  0  0  0  0  0  0
    0.4220    0.3210   -0.7580 C   0  0  0  0  0  0  0  0  0  0  0  0
    2.0290   -0.4000   -0.4080 S   0  0  0  0  0  0  0  0  0  0  0  0
    2.2640   -1.6650   -1.1780 O   0  0  0  0  0  0  0  0  0  0  0  0
    3.3260    0.7860   -0.6930 C   0  0  0  0  0  0  0  0  0  0  0  0
    4.6650    0.1810   -0.3930 C   0  0  0  0  0  0  0  0  0  0  0  0
    4.7050   -0.9860    0.0150 O   0  0  0  0  0  0  0  0  0  0  0  0
    5.8170    0.9640   -0.5870 N   0  0  0  0  0  0  0  0  0  0  0  0
    7.1220    0.5010   -0.3280 C   0  0  0  0  0  0  0  0  0  0  0  0
    8.1870    1.2500   -0.8430 C   0  0  0  0  0  0  0  0  0  0  0  0
    9.5010    0.8910   -0.6290 C   0  0  0  0  0  0  0  0  0  0  0  0
    9.8180   -0.2280    0.1080 C   0  0  0  0  0  0  0  0  0  0  0  0
    8.7900   -0.9750    0.6220 C   0  0  0  0  0  0  0  0  0  0  0  0
    7.4760   -0.6000    0.3960 C   0  0  0  0  0  0  0  0  0  0  0  0
    9.1390   -2.0930    1.3580 O   0  0  0  0  0  0  0  0  0  0  0  0
   10.3670   -2.1410    2.0970 C   0  0  0  0  0  0  0  0  0  0  0  0
   11.4700   -1.7380    1.1610 C   0  0  0  0  0  0  0  0  0  0  0  0
   11.1060   -0.6550    0.3690 O   0  0  0  0  0  0  0  0  0  0  0  0
  1  2  2  0
  2  3  1  0
  3  4  2  3
  3  6  1  0
  4  5  1  0
  7  6  1  6
  7  8  1  0
  7 16  1  0
  8  9  2  0
  8 10  1  0
 10 11  1  0
 11 12  2  0
 11 15  1  0
 12 13  1  0
 13 14  1  0
 14 15  2  0
 16 17  1  0
 16 21  1  0
 17 18  1  0
 18 19  1  0
 19 20  1  0
 21 22  2  0
 21 23  1  0
 23 24  1  0
 25 24  1  6
 25 26  2  0
 25 27  1  0
 27 28  1  0
 28 29  2  0
 28 30  1  0
 30 31  1  0
 31 32  2  0
 31 36  1  0
 32 33  1  0
 33 34  2  0
 34 35  1  0
 34 40  1  0
 35 36  2  0
 35 37  1  0
 37 38  1  0
 38 39  1  0
 39 40  1  0
M  END
