
     RDKit          3D

 40 44  0  0  0  0  0  0  0  0999 V2000
   -7.3320   -0.8210   -2.1130 C   0  0  0  0  0  0  0  0  0  0  0  0
   -7.3610    0.2850   -1.1080 C   0  0  2  0  0  0  0  0  0  0  0  0
   -6.5170    1.4270   -1.6080 C   0  0  0  0  0  0  0  0  0  0  0  0
   -6.9050   -0.1110    0.2610 C   0  0  1  0  0  0  0  0  0  0  0  0
   -7.6920   -1.1560    0.8600 N   0  0  0  0  0  0  0  0  0  0  0  0
   -5.4850   -0.5140    0.3240 C   0  0  0  0  0  0  0  0  0  0  0  0
   -5.0880   -1.7890    0.0070 C   0  0  0  0  0  0  0  0  0  0  0  0
   -3.7740   -2.1250    0.0760 C   0  0  0  0  0  0  0  0  0  0  0  0
   -2.7930   -1.1930    0.4670 C   0  0  0  0  0  0  0  0  0  0  0  0
   -3.1890    0.0790    0.7840 C   0  0  0  0  0  0  0  0  0  0  0  0
   -4.5020    0.3960    0.7100 C   0  0  0  0  0  0  0  0  0  0  0  0
   -2.0340    1.2760    1.2740 S   0  0  2  0  0  0  0  0  0  0  0  0
   -2.2580    1.7620    2.6790 O   0  0  0  0  0  0  0  0  0  0  0  0
   -2.0200    2.4650    0.3570 O   0  0  0  0  0  0  0  0  0  0  0  0
   -0.4970    0.4920    1.2440 N   0  0  0  0  0  0  0  0  0  0  0  0
   -0.4590   -0.8730    0.8560 C   0  0  0  0  0  0  0  0  0  0  0  0
    0.9120   -1.4970    0.8500 C   0  0  0  0  0  0  0  0  0  0  0  0
    1.8160   -0.8440   -0.0440 N   0  0  0  0  0  0  0  0  0  0  0  0
    2.9680   -0.3830    0.7020 C   0  0  0  0  0  0  0  0  0  0  0  0
    4.1730   -0.1630   -0.1540 C   0  0  0  0  0  0  0  0  0  0  0  0
    4.5190   -1.2420   -1.0510 C   0  0  0  0  0  0  0  0  0  0  0  0
    5.2910   -0.8770   -2.0260 O   0  0  0  0  0  0  0  0  0  0  0  0
    4.1440   -2.6300   -1.0230 C   0  0  0  0  0  0  0  0  0  0  0  0
    4.4330   -3.3820   -2.1750 C   0  0  0  0  0  0  0  0  0  0  0  0
    4.2130   -4.7190   -2.3010 C   0  0  0  0  0  0  0  0  0  0  0  0
    3.6730   -5.4080   -1.2460 C   0  0  0  0  0  0  0  0  0  0  0  0
    3.3710   -4.7290   -0.0950 C   0  0  0  0  0  0  0  0  0  0  0  0
    3.6100   -3.3530    0.0020 C   0  0  0  0  0  0  0  0  0  0  0  0
    4.6950    1.0570   -0.1830 C   0  0  0  0  0  0  0  0  0  0  0  0
    4.1050    2.1370    0.5750 N   0  0  0  0  0  0  0  0  0  0  0  0
    4.6520    3.4440    0.6680 C   0  0  0  0  0  0  0  0  0  0  0  0
    3.9850    4.3910    1.4300 C   0  0  0  0  0  0  0  0  0  0  0  0
    4.4900    5.6660    1.5380 C   0  0  0  0  0  0  0  0  0  0  0  0
    5.6580    5.9690    0.8790 C   0  0  0  0  0  0  0  0  0  0  0  0
    6.3240    5.0300    0.1200 C   0  0  0  0  0  0  0  0  0  0  0  0
    5.8140    3.7430    0.0110 C   0  0  0  0  0  0  0  0  0  0  0  0
    6.4350    2.7400   -0.7400 N   0  0  0  0  0  0  0  0  0  0  0  0
    5.9230    1.3990   -0.8650 C   0  0  0  0  0  0  0  0  0  0  0  0
    6.5690    0.5900   -1.5560 O   0  0  0  0  0  0  0  0  0  0  0  0
   -1.4460   -1.5690    0.5300 N   0  0  0  0  0  0  0  0  0  0  0  0
  2  1  1  6
  2  3  1  0
  2  4  1  0
  4  5  1  6
  4  6  1  0
  6  7  2  0
  6 11  1  0
  7  8  1  0
  8  9  2  0
  9 10  1  0
  9 40  1  0
 10 11  2  0
 10 12  1  0
 12 13  2  0
 12 14  2  0
 12 15  1  1
 15 16  1  0
 16 17  1  0
 16 40  2  0
 17 18  1  0
 18 19  1  0
 19 20  1  0
 20 21  1  0
 20 29  2  3
 21 22  2  0
 21 23  1  0
 23 24  2  0
 23 28  1  0
 24 25  1  0
 25 26  2  0
 26 27  1  0
 27 28  2  0
 29 30  1  0
 29 38  1  0
 30 31  1  0
 31 32  2  0
 31 36  1  0
 32 33  1  0
 33 34  2  0
 34 35  1  0
 35 36  2  0
 36 37  1  0
 37 38  1  0
 38 39  2  0
M  CHG  2   5   1  18   1
M  END
