
     RDKit          3D

 28 31  0  0  0  0  0  0  0  0999 V2000
    6.6690   -1.3780    1.0090 C   0  0  0  0  0  0  0  0  0  0  0  0
    6.3970   -1.0560   -0.2370 C   0  0  0  0  0  0  0  0  0  0  0  0
    7.5180   -1.1860   -1.6390 S   0  0  0  0  0  0  0  0  0  0  0  0
    6.5750   -0.1290   -2.6930 N   0  0  0  0  0  0  0  0  0  0  0  0
    5.2960   -0.0580   -2.0870 C   0  0  0  0  0  0  0  0  0  0  0  0
    4.1720    0.4500   -2.6820 N   0  0  0  0  0  0  0  0  0  0  0  0
    2.9700    0.5040   -2.0820 C   0  0  0  0  0  0  0  0  0  0  0  0
    2.8060    0.0430   -0.8160 C   0  0  0  0  0  0  0  0  0  0  0  0
    1.5790    0.0280   -0.0800 N   0  0  0  0  0  0  0  0  0  0  0  0
    0.3020    0.2210   -0.6170 C   0  0  0  0  0  0  0  0  0  0  0  0
    0.1580    0.4170   -1.8800 O   0  0  0  0  0  0  0  0  0  0  0  0
   -0.9180    0.2210    0.1640 C   0  0  0  0  0  0  0  0  0  0  0  0
   -2.0680    0.3810   -0.5360 C   0  0  0  0  0  0  0  0  0  0  0  0
   -3.4450    0.4250   -0.0690 C   0  0  0  0  0  0  0  0  0  0  0  0
   -4.1140    1.0510   -1.0360 C   0  0  0  0  0  0  0  0  0  0  0  0
   -5.4900    1.3860   -1.1440 N   0  0  0  0  0  0  0  0  0  0  0  0
   -6.5460    0.9750   -0.2870 C   0  0  0  0  0  0  0  0  0  0  0  0
   -7.6960    1.3790   -0.5580 O   0  0  0  0  0  0  0  0  0  0  0  0
   -6.4890    0.1240    0.9060 C   0  0  0  0  0  0  0  0  0  0  0  0
   -7.5900   -0.2410    1.3830 O   0  0  0  0  0  0  0  0  0  0  0  0
   -5.3170   -0.3310    1.5760 N   0  0  0  0  0  0  0  0  0  0  0  0
   -3.9640   -0.1210    1.2020 C   0  0  0  0  0  0  0  0  0  0  0  0
   -3.2550   -0.5270    2.2630 C   0  0  0  0  0  0  0  0  0  0  0  0
   -1.8410   -0.5540    2.4800 N   0  0  0  0  0  0  0  0  0  0  0  0
   -0.8910    0.0940    1.6100 C   0  0  0  0  0  0  0  0  0  0  0  0
    0.0990    0.6290    2.1600 O   0  0  0  0  0  0  0  0  0  0  0  0
    3.9310   -0.4780   -0.1870 C   0  0  0  0  0  0  0  0  0  0  0  0
    5.1780   -0.5240   -0.8370 C   0  0  0  0  0  0  0  0  0  0  0  0
  1  2  2  0
  2  3  1  0
  2 28  1  0
  3  4  1  0
  4  5  1  0
  5  6  2  0
  5 28  1  0
  6  7  1  0
  7  8  2  0
  8  9  1  0
  8 27  1  0
  9 10  1  0
 10 11  2  0
 10 12  1  0
 12 13  2  0
 12 25  1  0
 13 14  1  0
 14 15  2  0
 14 22  1  0
 15 16  1  0
 16 17  1  0
 17 18  2  0
 17 19  1  0
 19 20  2  0
 19 21  1  0
 21 22  1  0
 22 23  2  0
 23 24  1  0
 24 25  1  0
 25 26  2  0
 27 28  2  0
M  END
