
     RDKit          3D

 28 32  0  0  0  0  0  0  0  0999 V2000
   -1.2320   -0.5770    2.8260 O   0  0  0  0  0  0  0  0  0  0  0  0
   -1.5510   -0.2390    1.6160 C   0  0  0  0  0  0  0  0  0  0  0  0
   -2.9530   -0.0480    1.4240 C   0  0  0  0  0  0  0  0  0  0  0  0
   -3.7380    0.8910    0.9010 C   0  0  0  0  0  0  0  0  0  0  0  0
   -5.0780    0.7400    0.8440 C   0  0  0  0  0  0  0  0  0  0  0  0
   -6.0330    1.6360    0.3220 C   0  0  0  0  0  0  0  0  0  0  0  0
   -7.3730    1.3630    0.3180 C   0  0  0  0  0  0  0  0  0  0  0  0
   -7.8710    0.1980    0.8270 C   0  0  0  0  0  0  0  0  0  0  0  0
   -6.9770   -0.7140    1.3510 C   0  0  0  0  0  0  0  0  0  0  0  0
   -5.6090   -0.4100    1.3410 C   0  0  0  0  0  0  0  0  0  0  0  0
   -4.1860   -1.3160    1.9100 S   0  0  0  0  0  0  0  0  0  0  0  0
   -0.4840   -0.1250    0.7330 N   0  0  0  0  0  0  0  0  0  0  0  0
   -0.6190    0.1800   -0.5580 C   0  0  0  0  0  0  0  0  0  0  0  0
   -1.7620    0.3970   -1.0850 O   0  0  0  0  0  0  0  0  0  0  0  0
    0.4130    0.2850   -1.4170 N   0  0  0  0  0  0  0  0  0  0  0  0
    1.6710    0.0640   -0.9360 C   0  0  0  0  0  0  0  0  0  0  0  0
    2.6490    0.1630   -1.7680 N   0  0  0  0  0  0  0  0  0  0  0  0
    4.0030   -0.0240   -1.4850 C   0  0  0  0  0  0  0  0  0  0  0  0
    4.9100   -0.6490   -2.3110 C   0  0  0  0  0  0  0  0  0  0  0  0
    6.1310   -0.6280   -1.6680 C   0  0  0  0  0  0  0  0  0  0  0  0
    7.4190   -0.9750   -1.7410 N   0  0  0  0  0  0  0  0  0  0  0  0
    8.0290   -0.5710   -0.6160 C   0  0  0  0  0  0  0  0  0  0  0  0
    7.1080    0.0310    0.1540 N   0  0  0  0  0  0  0  0  0  0  0  0
    5.9260    0.0080   -0.4760 C   0  0  0  0  0  0  0  0  0  0  0  0
    4.6560    0.3400   -0.4230 O   0  0  0  0  0  0  0  0  0  0  0  0
    1.8620   -0.2460    0.3520 N   0  0  0  0  0  0  0  0  0  0  0  0
    0.7880   -0.3340    1.1550 C   0  0  0  0  0  0  0  0  0  0  0  0
    1.0360   -0.6330    2.3720 O   0  0  0  0  0  0  0  0  0  0  0  0
  1  2  2  0
  2  3  1  0
  2 12  1  0
  3  4  2  0
  3 11  1  0
  4  5  1  0
  5  6  2  0
  5 10  1  0
  6  7  1  0
  7  8  2  0
  8  9  1  0
  9 10  2  0
 10 11  1  0
 12 13  1  0
 12 27  1  0
 13 14  2  0
 13 15  1  0
 15 16  1  0
 16 17  2  3
 16 26  1  0
 17 18  1  0
 18 19  2  0
 18 25  1  0
 19 20  1  0
 20 21  1  0
 20 24  2  0
 21 22  1  0
 22 23  2  0
 23 24  1  0
 24 25  1  0
 26 27  1  0
 27 28  2  0
M  CHG  1  23   1
M  END
