
     RDKit          3D

 16 18  0  0  0  0  0  0  0  0999 V2000
    5.7280    0.7580   -0.0070 O   0  0  0  0  0  0  0  0  0  0  0  0
    4.5310    0.4020   -0.0080 C   0  0  0  0  0  0  0  0  0  0  0  0
    4.1310   -0.8790   -0.0210 N   0  0  0  0  0  0  0  0  0  0  0  0
    2.7790   -0.8590   -0.0180 C   0  0  0  0  0  0  0  0  0  0  0  0
    1.8290   -1.8460   -0.0270 C   0  0  0  0  0  0  0  0  0  0  0  0
    0.4660   -1.5670   -0.0210 C   0  0  0  0  0  0  0  0  0  0  0  0
    0.0200   -0.2730   -0.0060 C   0  0  0  0  0  0  0  0  0  0  0  0
   -1.3800    0.0260   -0.0070 N   0  0  0  0  0  0  0  0  0  0  0  0
   -1.8140    1.3720    0.1600 C   0  0  0  0  0  0  0  0  0  0  0  0
   -3.1220    1.6640    0.1560 C   0  0  0  0  0  0  0  0  0  0  0  0
   -4.1610    0.6470   -0.0150 C   0  0  0  0  0  0  0  0  0  0  0  0
   -3.6500   -0.7090   -0.1810 C   0  0  0  0  0  0  0  0  0  0  0  0
   -2.3630   -0.9640   -0.1730 C   0  0  0  0  0  0  0  0  0  0  0  0
    0.9750    0.7230    0.0020 C   0  0  0  0  0  0  0  0  0  0  0  0
    2.3460    0.4480   -0.0030 C   0  0  0  0  0  0  0  0  0  0  0  0
    3.4510    1.2140    0.0030 N   0  0  0  0  0  0  0  0  0  0  0  0
  1  2  2  0
  2  3  1  0
  2 16  1  0
  3  4  1  0
  4  5  2  0
  4 15  1  0
  5  6  1  0
  6  7  2  0
  7  8  1  0
  7 14  1  0
  8  9  1  0
  8 13  1  0
  9 10  2  0
 10 11  1  0
 11 12  1  0
 12 13  2  0
 14 15  2  0
 15 16  1  0
M  END
