
     RDKit          3D

 28 30  0  0  0  0  0  0  0  0999 V2000
    7.4790    2.5120    1.0600 C   0  0  0  0  0  0  0  0  0  0  0  0
    6.3060    1.8000    1.5380 N   0  0  0  0  0  0  0  0  0  0  0  0
    5.5000    1.1250    0.5990 C   0  0  0  0  0  0  0  0  0  0  0  0
    5.8350    1.1730   -0.6290 O   0  0  0  0  0  0  0  0  0  0  0  0
    4.3100    0.3810    0.9550 C   0  0  0  0  0  0  0  0  0  0  0  0
    3.9700    0.2940    2.1730 O   0  0  0  0  0  0  0  0  0  0  0  0
    3.5150   -0.2550   -0.0330 N   0  0  0  0  0  0  0  0  0  0  0  0
    2.3660   -0.9820    0.2910 N   0  0  0  0  0  0  0  0  0  0  0  0
    1.0360   -0.4810    0.0020 C   0  0  0  0  0  0  0  0  0  0  0  0
    0.9460    0.5820   -0.5300 O   0  0  0  0  0  0  0  0  0  0  0  0
   -0.1130   -1.1990    0.3300 N   0  0  0  0  0  0  0  0  0  0  0  0
   -1.4880   -1.0180    0.2500 C   0  0  0  0  0  0  0  0  0  0  0  0
   -2.1560   -2.1630    0.6710 C   0  0  0  0  0  0  0  0  0  0  0  0
   -3.5970   -2.1470    0.6990 C   0  0  0  0  0  0  0  0  0  0  0  0
   -4.3290   -3.2220    0.9410 C   0  0  0  0  0  0  0  0  0  0  0  0
   -3.6570   -4.4790    1.1970 C   0  0  0  0  0  0  0  0  0  0  0  0
   -2.3580   -4.5180    1.1810 C   0  0  0  0  0  0  0  0  0  0  0  0
   -1.5150   -3.3740    0.9190 N   0  0  0  0  0  0  0  0  0  0  0  0
   -2.3000   -0.0380   -0.4770 C   0  0  0  0  0  0  0  0  0  0  0  0
   -2.1880    1.1890   -0.8150 C   0  0  0  0  0  0  0  0  0  0  0  0
   -1.2370    2.3250   -0.6920 C   0  0  0  0  0  0  0  0  0  0  0  0
   -1.7270    3.3890   -1.2310 N   0  0  0  0  0  0  0  0  0  0  0  0
   -3.0090    3.1140   -1.7540 C   0  0  0  0  0  0  0  0  0  0  0  0
   -3.9680    4.0140   -2.4590 C   0  0  0  0  0  0  0  0  0  0  0  0
   -3.2890    1.8450   -1.5190 C   0  0  0  0  0  0  0  0  0  0  0  0
   -4.5410    0.5720   -1.6800 S   0  0  0  0  0  0  0  0  0  0  0  0
   -3.3510   -0.7190   -1.4030 C   0  0  0  0  0  0  0  0  0  0  0  0
   -3.3370   -1.8710   -1.8320 O   0  0  0  0  0  0  0  0  0  0  0  0
  1  2  1  0
  2  3  1  0
  3  4  2  0
  3  5  1  0
  5  6  2  0
  5  7  1  0
  7  8  1  0
  8  9  1  0
  9 10  2  0
  9 11  1  0
 11 12  1  0
 12 13  2  3
 12 19  1  0
 13 14  1  0
 13 18  1  0
 14 15  2  0
 15 16  1  0
 16 17  2  0
 17 18  1  0
 19 20  2  0
 19 27  1  0
 20 21  1  0
 20 25  1  0
 21 22  2  0
 22 23  1  0
 23 24  1  0
 23 25  2  0
 25 26  1  0
 26 27  1  0
 27 28  2  0
M  END
