
     RDKit          3D

 28 31  0  0  0  0  0  0  0  0999 V2000
   -4.3340   -0.1450   -0.6320 C   0  0  0  0  0  0  0  0  0  0  0  0
   -3.3280    0.8700   -0.2360 C   0  0  0  0  0  0  0  0  0  0  0  0
   -3.6920    2.1090    0.0060 C   0  0  0  0  0  0  0  0  0  0  0  0
   -5.0520    2.5820   -0.0710 C   0  0  0  0  0  0  0  0  0  0  0  0
   -5.2650    3.9910    0.2060 N   0  0  0  0  0  0  0  0  0  0  0  0
   -6.0660    1.9390   -0.3400 O   0  0  0  0  0  0  0  0  0  0  0  0
   -2.6640    2.9870    0.3450 O   0  0  0  0  0  0  0  0  0  0  0  0
   -1.3990    2.6330    0.4180 N   0  0  0  0  0  0  0  0  0  0  0  0
   -0.9020    1.3970    0.1810 C   0  0  0  0  0  0  0  0  0  0  0  0
    0.5040    1.2980    0.3250 C   0  0  0  0  0  0  0  0  0  0  0  0
    1.0270    2.3370    0.9510 O   0  0  0  0  0  0  0  0  0  0  0  0
    1.4840    0.3920   -0.0460 N   0  0  0  0  0  0  0  0  0  0  0  0
    2.8770    0.4060    0.2150 C   0  0  0  0  0  0  0  0  0  0  0  0
    3.5300    1.2950    1.0120 C   0  0  0  0  0  0  0  0  0  0  0  0
    4.9150    1.2490    1.2540 C   0  0  0  0  0  0  0  0  0  0  0  0
    5.6430    0.2510    0.6500 C   0  0  0  0  0  0  0  0  0  0  0  0
    5.0260   -0.6850   -0.1750 C   0  0  0  0  0  0  0  0  0  0  0  0
    5.5000   -1.7360   -0.8730 N   0  0  0  0  0  0  0  0  0  0  0  0
    4.4830   -2.3020   -1.5050 N   0  0  0  0  0  0  0  0  0  0  0  0
    3.3540   -1.6380   -1.2290 C   0  0  0  0  0  0  0  0  0  0  0  0
    3.6640   -0.5920   -0.3770 C   0  0  0  0  0  0  0  0  0  0  0  0
   -1.8910    0.4140   -0.1530 C   0  0  0  0  0  0  0  0  0  0  0  0
   -1.6470   -0.8530   -0.0930 C   0  0  0  0  0  0  0  0  0  0  0  0
   -0.5990   -1.7740   -0.0050 N   0  0  0  0  0  0  0  0  0  0  0  0
   -0.7370   -2.8530   -0.8790 C   0  0  0  0  0  0  0  0  0  0  0  0
    0.1640   -3.4260   -1.5940 O   0  0  0  0  0  0  0  0  0  0  0  0
   -2.1410   -3.3770   -0.9540 C   0  0  0  0  0  0  0  0  0  0  0  0
   -3.0160   -2.1130    0.0160 S   0  0  0  0  0  0  0  0  0  0  0  0
  1  2  1  0
  2  3  2  0
  2 22  1  0
  3  4  1  0
  3  7  1  0
  4  5  1  0
  4  6  2  0
  7  8  1  0
  8  9  2  0
  9 10  1  0
  9 22  1  0
 10 11  2  0
 10 12  1  0
 12 13  1  0
 13 14  2  0
 13 21  1  0
 14 15  1  0
 15 16  2  0
 16 17  1  0
 17 18  1  0
 17 21  2  0
 18 19  1  0
 19 20  2  0
 20 21  1  0
 22 23  2  3
 23 24  1  0
 23 28  1  0
 24 25  1  0
 25 26  2  0
 25 27  1  0
 27 28  1  0
M  CHG  1  19   1
M  END
