
     RDKit          3D

 20 21  0  0  0  0  0  0  0  0999 V2000
   -4.8880    2.0520   -0.0420 C   0  0  0  0  0  0  0  0  0  0  0  0
   -5.3190    0.6040    0.2460 C   0  0  0  0  0  0  0  0  0  0  0  0
   -4.0960   -0.2630   -0.1780 C   0  0  0  0  0  0  0  0  0  0  0  0
   -2.9210    0.2440    0.5680 C   0  0  0  0  0  0  0  0  0  0  0  0
   -1.5770   -0.1120    0.0370 C   0  0  0  0  0  0  0  0  0  0  0  0
   -1.2540   -1.5270    0.0570 C   0  0  0  0  0  0  0  0  0  0  0  0
    0.2390   -1.6960   -0.1440 N   0  0  2  0  0  0  0  0  0  0  0  0
    0.4600   -3.0620   -0.1410 C   0  0  0  0  0  0  0  0  0  0  0  0
    1.6880   -3.5770    0.1110 O   0  0  0  0  0  0  0  0  0  0  0  0
    0.8660   -0.7470    0.7010 C   0  0  0  0  0  0  0  0  0  0  0  0
    2.2490   -0.3700    0.3730 C   0  0  0  0  0  0  0  0  0  0  0  0
    3.3810   -1.1100    0.3440 C   0  0  0  0  0  0  0  0  0  0  0  0
    4.4230   -0.2530    0.1030 N   0  0  0  0  0  0  0  0  0  0  0  0
    3.9770    0.9870   -0.0040 C   0  0  0  0  0  0  0  0  0  0  0  0
    4.6470    2.1910   -0.3000 C   0  0  0  0  0  0  0  0  0  0  0  0
    6.0520    2.0550   -0.4880 N   0  0  0  0  0  0  0  0  0  0  0  0
    3.9050    3.2540   -0.3910 N   0  0  0  0  0  0  0  0  0  0  0  0
    2.5750    3.2450   -0.2230 C   0  0  0  0  0  0  0  0  0  0  0  0
    1.8920    2.0810    0.0690 N   0  0  0  0  0  0  0  0  0  0  0  0
    2.6310    0.9940    0.1610 C   0  0  0  0  0  0  0  0  0  0  0  0
  1  2  1  0
  2  3  1  0
  3  4  1  0
  4  5  1  0
  5  6  1  0
  7  6  1  1
  7  8  1  0
  7 10  1  0
  8  9  1  0
 10 11  1  0
 11 12  2  0
 11 20  1  0
 12 13  1  0
 13 14  1  0
 14 15  2  0
 14 20  1  0
 15 16  1  0
 15 17  1  0
 17 18  2  0
 18 19  1  0
 19 20  2  0
M  CHG  1   7   1
M  END
