
     RDKit          3D

 12 12  0  0  0  0  0  0  0  0999 V2000
    4.2930   -0.3700   -0.1740 C   0  0  0  0  0  0  0  0  0  0  0  0
    2.8550   -0.7340   -0.5420 C   0  0  0  0  0  0  0  0  0  0  0  0
    2.0310    0.1540    0.0910 O   0  0  0  0  0  0  0  0  0  0  0  0
    0.6910   -0.0190   -0.1240 C   0  0  2  0  0  0  0  0  0  0  0  0
    0.0180    1.1550   -0.7750 C   0  0  0  0  0  0  0  0  0  0  0  0
   -1.4500    1.0200   -0.8180 C   0  0  1  0  0  0  0  0  0  0  0  0
   -1.8650    1.2900   -2.1440 O   0  0  0  0  0  0  0  0  0  0  0  0
   -2.0330   -0.2660   -0.4000 C   0  0  2  0  0  0  0  0  0  0  0  0
   -3.4130   -0.0150    0.0500 N   0  0  0  0  0  0  0  0  0  0  0  0
   -1.3410   -0.9850    0.7130 C   0  0  0  0  0  0  0  0  0  0  0  0
   -0.0900   -0.2270    1.1800 C   0  0  2  0  0  0  0  0  0  0  0  0
   -0.5420    1.0030    1.6450 O   0  0  0  0  0  0  0  0  0  0  0  0
  1  2  1  0
  2  3  1  0
  4  3  1  1
  4  5  1  0
  4 11  1  0
  5  6  1  0
  6  7  1  6
  6  8  1  0
  8  9  1  1
  8 10  1  0
 10 11  1  0
 11 12  1  6
M  CHG  1   9   1
M  END
