
     RDKit          3D

 12 13  0  0  0  0  0  0  0  0999 V2000
    3.1820   -0.0060    0.3550 N   0  0  0  0  0  0  0  0  0  0  0  0
    1.9460   -0.3410   -0.3380 C   0  0  2  0  0  0  0  0  0  0  0  0
    1.2270    0.9610   -0.6020 C   0  0  0  0  0  0  0  0  0  0  0  0
   -0.1440    0.6050   -1.1090 C   0  0  0  0  0  0  0  0  0  0  0  0
   -0.8000   -0.2790   -0.0780 C   0  0  1  0  0  0  0  0  0  0  0  0
   -1.1090    0.5030    1.1920 C   0  0  0  0  0  0  0  0  0  0  0  0
   -1.9980    1.4510    0.6830 O   0  0  0  0  0  0  0  0  0  0  0  0
   -2.8500    0.8180   -0.1780 C   0  0  0  0  0  0  0  0  0  0  0  0
   -2.2220   -0.5190   -0.5470 C   0  0  2  0  0  0  0  0  0  0  0  0
   -2.8600   -1.4790    0.2500 O   0  0  0  0  0  0  0  0  0  0  0  0
   -0.1430   -1.4520    0.1500 O   0  0  0  0  0  0  0  0  0  0  0  0
    1.1620   -1.2920    0.4960 C   0  0  0  0  0  0  0  0  0  0  0  0
  2  1  1  1
  2  3  1  0
  2 12  1  0
  3  4  1  0
  5  4  1  6
  5  6  1  0
  5  9  1  0
  5 11  1  0
  6  7  1  0
  7  8  1  0
  8  9  1  0
  9 10  1  1
 11 12  1  0
M  CHG  1   1   1
M  END
