
     RDKit          3D

 12 13  0  0  0  0  0  0  0  0999 V2000
    3.4210   -0.1590    0.5510 N   0  0  0  0  0  0  0  0  0  0  0  0
    2.1840    0.4370    0.1780 C   0  0  1  0  0  0  0  0  0  0  0  0
    1.9410    0.4830   -1.3050 C   0  0  0  0  0  0  0  0  0  0  0  0
    0.6250    0.1770   -1.5390 O   0  0  0  0  0  0  0  0  0  0  0  0
   -0.0480    0.1040   -0.3500 C   0  0  1  0  0  0  0  0  0  0  0  0
   -1.2710   -0.7470   -0.4370 C   0  0  2  0  0  0  0  0  0  0  0  0
   -2.1730   -0.1030   -1.5030 C   0  0  0  0  0  0  0  0  0  0  0  0
   -2.4800    1.0990   -0.9050 O   0  0  0  0  0  0  0  0  0  0  0  0
   -2.6620    0.8980    0.4370 C   0  0  0  0  0  0  0  0  0  0  0  0
   -2.1800   -0.4960    0.7700 C   0  0  2  0  0  0  0  0  0  0  0  0
   -1.5180   -0.5770    1.9600 O   0  0  0  0  0  0  0  0  0  0  0  0
    0.9710   -0.3880    0.6330 C   0  0  0  0  0  0  0  0  0  0  0  0
  2  1  1  6
  2  3  1  0
  2 12  1  0
  3  4  1  0
  4  5  1  0
  5  6  1  0
  5 12  1  1
  6  7  1  6
  6 10  1  0
  7  8  1  0
  8  9  1  0
  9 10  1  0
 10 11  1  1
M  CHG  1   1   1
M  END
