
     RDKit          3D

 12 12  0  0  0  0  0  0  0  0999 V2000
    3.0480   -1.1830    0.2320 O   0  0  0  0  0  0  0  0  0  0  0  0
    3.0020    0.1910    0.1960 C   0  0  0  0  0  0  0  0  0  0  0  0
    1.7450    0.6720   -0.4360 C   0  0  0  0  0  0  0  0  0  0  0  0
    0.4870    0.2510    0.2720 C   0  0  2  0  0  0  0  0  0  0  0  0
    0.3800   -1.2240    0.3090 C   0  0  2  0  0  0  0  0  0  0  0  0
    0.7860   -1.8810   -0.8450 O   0  0  0  0  0  0  0  0  0  0  0  0
   -1.0430   -1.6260    0.6370 C   0  0  0  0  0  0  0  0  0  0  0  0
   -2.0440   -1.0650   -0.3130 C   0  0  0  0  0  0  0  0  0  0  0  0
   -1.6120    0.1040   -1.0200 N   0  0  0  0  0  0  0  0  0  0  0  0
   -0.7190    0.9510   -0.2770 C   0  0  1  0  0  0  0  0  0  0  0  0
   -1.4480    1.7030    0.8160 C   0  0  0  0  0  0  0  0  0  0  0  0
   -2.4480    2.5100    0.2840 O   0  0  0  0  0  0  0  0  0  0  0  0
  1  2  1  0
  2  3  1  0
  4  3  1  6
  4  5  1  0
  4 10  1  0
  5  6  1  6
  5  7  1  0
  7  8  1  0
  8  9  1  0
  9 10  1  0
 10 11  1  1
 11 12  1  0
M  CHG  1   9   1
M  END
