
     RDKit          3D

 12 13  0  0  0  0  0  0  0  0999 V2000
    2.3260   -0.8420   -0.0730 N   0  0  0  0  0  0  0  0  0  0  0  0
    1.3140    0.1230   -0.4590 C   0  0  2  0  0  0  0  0  0  0  0  0
    1.8260    1.5110   -0.0890 C   0  0  0  0  0  0  0  0  0  0  0  0
    0.9340    2.4430   -0.6840 O   0  0  0  0  0  0  0  0  0  0  0  0
   -0.4060    2.0890   -0.7210 C   0  0  0  0  0  0  0  0  0  0  0  0
   -1.2150    2.6920   -1.4720 O   0  0  0  0  0  0  0  0  0  0  0  0
   -0.9370    0.9850    0.1260 C   0  0  1  0  0  0  0  0  0  0  0  0
   -2.1400    0.3560   -0.5620 C   0  0  0  0  0  0  0  0  0  0  0  0
   -2.0890   -1.0630   -0.0930 C   0  0  0  0  0  0  0  0  0  0  0  0
   -0.6170   -1.3970   -0.0530 C   0  0  2  0  0  0  0  0  0  0  0  0
   -0.3940   -2.4250    0.8460 O   0  0  0  0  0  0  0  0  0  0  0  0
    0.0580   -0.1150    0.3390 C   0  0  1  0  0  0  0  0  0  0  0  0
  2  1  1  1
  2  3  1  0
 12  2  1  6
  3  4  1  0
  4  5  1  0
  5  6  2  0
  5  7  1  0
  7  8  1  6
  7 12  1  0
  8  9  1  0
  9 10  1  0
 10 11  1  1
 10 12  1  0
M  CHG  1   1   1
M  END
