
     RDKit          3D

 12 13  0  0  0  0  0  0  0  0999 V2000
    0.4240   -1.5950    0.8620 N   0  0  0  0  0  0  0  0  0  0  0  0
    0.2800   -0.6940   -0.2770 C   0  0  2  0  0  0  0  0  0  0  0  0
    1.0770    0.5310   -0.0130 C   0  0  0  0  0  0  0  0  0  0  0  0
    2.5290    0.1410    0.1670 C   0  0  1  0  0  0  0  0  0  0  0  0
    3.5790    1.1030    0.4410 C   0  0  0  0  0  0  0  0  0  0  0  0
    3.0500    0.2080    1.4710 O   0  0  0  0  0  0  0  0  0  0  0  0
   -1.1710   -0.4810   -0.5160 C   0  0  1  0  0  0  0  0  0  0  0  0
   -1.7510   -1.7260   -0.7880 O   0  0  0  0  0  0  0  0  0  0  0  0
   -1.8970    0.0890    0.6840 C   0  0  0  0  0  0  0  0  0  0  0  0
   -2.7010    1.2250    0.0350 C   0  0  0  0  0  0  0  0  0  0  0  0
   -1.7690    1.6520   -0.9350 O   0  0  0  0  0  0  0  0  0  0  0  0
   -1.5220    0.4630   -1.6000 C   0  0  0  0  0  0  0  0  0  0  0  0
  2  1  1  1
  2  3  1  0
  2  7  1  0
  4  3  1  1
  4  5  1  0
  4  6  1  0
  5  6  1  0
  7  8  1  6
  7  9  1  0
  7 12  1  0
  9 10  1  0
 10 11  1  0
 11 12  1  0
M  CHG  1   1   1
M  END
