
     RDKit          3D

 32 33  0  0  0  0  0  0  0  0999 V2000
   -4.9530   -1.4860    0.9970 C   0  0  0  0  0  0  0  0  0  0  0  0
   -3.6180   -1.2100    1.0990 O   0  0  0  0  0  0  0  0  0  0  0  0
   -3.0580   -0.6920   -0.0540 C   0  0  1  0  0  0  0  0  0  0  0  0
   -3.1590   -1.5340   -1.1490 O   0  0  0  0  0  0  0  0  0  0  0  0
   -3.7320    0.4990   -0.3320 O   0  0  0  0  0  0  0  0  0  0  0  0
   -3.8000    1.1390    0.8680 O   0  0  0  0  0  0  0  0  0  0  0  0
   -2.8820    0.7920    1.8800 C   0  0  0  0  0  0  0  0  0  0  0  0
   -3.1640    0.9780    3.0860 O   0  0  0  0  0  0  0  0  0  0  0  0
   -1.5560    0.1970    1.5540 C   0  0  1  0  0  0  0  0  0  0  0  0
   -1.3430   -0.7620    2.5530 O   0  0  0  0  0  0  0  0  0  0  0  0
   -1.5450   -0.4050    0.1840 C   0  0  2  0  0  0  0  0  0  0  0  0
   -1.1560    0.4940   -0.9250 C   0  0  0  0  0  0  0  0  0  0  0  0
   -0.1250    1.5390   -0.7050 C   0  0  1  0  0  0  0  0  0  0  0  0
    0.5290    1.7580   -2.0850 C   0  0  0  0  0  0  0  0  0  0  0  0
   -0.4750    2.0610   -3.0230 O   0  0  0  0  0  0  0  0  0  0  0  0
   -0.7990    2.8740   -0.4040 C   0  0  0  0  0  0  0  0  0  0  0  0
    0.1550    3.9760   -0.1690 C   0  0  0  0  0  0  0  0  0  0  0  0
    0.7400    4.1920    0.9190 O   0  0  0  0  0  0  0  0  0  0  0  0
    0.4590    4.8600   -1.1920 O   0  0  0  0  0  0  0  0  0  0  0  0
    0.8780    1.2450    0.1630 O   0  0  0  0  0  0  0  0  0  0  0  0
    2.1600    1.3800   -0.2310 C   0  0  0  0  0  0  0  0  0  0  0  0
    3.0320    0.9720    0.9720 C   0  0  2  0  0  0  0  0  0  0  0  0
    3.2970    2.0640    1.7880 O   0  0  0  0  0  0  0  0  0  0  0  0
    4.3520    0.4610    0.4450 C   0  0  0  0  0  0  0  0  0  0  0  0
    4.2170   -0.7140   -0.2530 O   0  0  0  0  0  0  0  0  0  0  0  0
    3.7960   -1.7760    0.5160 C   0  0  0  0  0  0  0  0  0  0  0  0
    2.5730   -2.4180   -0.1020 C   0  0  0  0  0  0  0  0  0  0  0  0
    1.3940   -2.0650    0.5510 O   0  0  0  0  0  0  0  0  0  0  0  0
    0.4120   -1.9270   -0.4610 C   0  0  1  0  0  0  0  0  0  0  0  0
    0.5280   -3.2520   -1.2430 C   0  0  0  0  0  0  0  0  0  0  0  0
   -0.9480   -1.7930    0.1070 C   0  0  1  0  0  0  0  0  0  0  0  0
   -0.9280   -2.4440    1.3430 O   0  0  0  0  0  0  0  0  0  0  0  0
  1  2  1  0
  2  3  1  0
  3  4  1  6
  3  5  1  0
  3 11  1  0
  5  6  1  0
  6  7  1  0
  7  8  2  0
  7  9  1  0
  9 10  1  1
  9 11  1  0
 11 12  1  6
 11 31  1  0
 12 13  1  0
 13 14  1  6
 13 16  1  0
 13 20  1  0
 14 15  1  0
 16 17  1  0
 17 18  2  0
 17 19  1  0
 20 21  1  0
 21 22  1  0
 22 23  1  1
 22 24  1  0
 24 25  1  0
 25 26  1  0
 26 27  1  0
 27 28  1  0
 28 29  1  0
 29 30  1  6
 29 31  1  0
 31 32  1  1
M  END
