
     RDKit          3D

 32 35  0  0  0  0  0  0  0  0999 V2000
   -8.6950   -2.1840    0.8200 C   0  0  0  0  0  0  0  0  0  0  0  0
   -7.3710   -1.5140    1.0950 C   0  0  0  0  0  0  0  0  0  0  0  0
   -6.7160   -1.1780   -0.2330 C   0  0  0  0  0  0  0  0  0  0  0  0
   -5.4430   -0.5320   -0.0760 N   0  0  0  0  0  0  0  0  0  0  0  0
   -4.4350   -1.3600    0.4610 C   0  0  0  0  0  0  0  0  0  0  0  0
   -3.1230   -1.3990   -0.2260 C   0  0  0  0  0  0  0  0  0  0  0  0
   -2.4370   -0.1150   -0.3920 C   0  0  0  0  0  0  0  0  0  0  0  0
   -1.0620   -0.1820   -0.3150 C   0  0  0  0  0  0  0  0  0  0  0  0
   -0.2490    0.9180   -0.4500 C   0  0  0  0  0  0  0  0  0  0  0  0
    1.1900    0.7970   -0.3580 N   0  0  0  0  0  0  0  0  0  0  0  0
    1.7850   -0.4830   -0.1000 C   0  0  0  0  0  0  0  0  0  0  0  0
    3.2510   -0.3390   -0.0150 C   0  0  0  0  0  0  0  0  0  0  0  0
    4.0010   -1.4410   -0.3820 C   0  0  0  0  0  0  0  0  0  0  0  0
    5.3590   -1.4020   -0.3280 C   0  0  0  0  0  0  0  0  0  0  0  0
    6.0130   -0.2810    0.0870 C   0  0  0  0  0  0  0  0  0  0  0  0
    7.3580    0.0630    0.2490 C   0  0  0  0  0  0  0  0  0  0  0  0
    8.4760   -0.8280   -0.0310 C   0  0  0  0  0  0  0  0  0  0  0  0
    9.0200   -0.8900   -1.1520 O   0  0  0  0  0  0  0  0  0  0  0  0
    8.9650   -1.6510    0.9870 O   0  0  0  0  0  0  0  0  0  0  0  0
   10.0390   -2.5090    0.7260 C   0  0  0  0  0  0  0  0  0  0  0  0
    7.4300    1.3540    0.7070 C   0  0  0  0  0  0  0  0  0  0  0  0
    8.6820    2.0840    1.0010 C   0  0  0  0  0  0  0  0  0  0  0  0
    6.1630    1.7970    0.8250 N   0  0  0  0  0  0  0  0  0  0  0  0
    5.3200    0.8320    0.4600 C   0  0  0  0  0  0  0  0  0  0  0  0
    3.9230    0.7710    0.3970 C   0  0  0  0  0  0  0  0  0  0  0  0
   -0.8070    2.1420   -0.6710 C   0  0  0  0  0  0  0  0  0  0  0  0
   -2.1790    2.2550   -0.7550 C   0  0  0  0  0  0  0  0  0  0  0  0
   -2.9840    1.1300   -0.6160 C   0  0  0  0  0  0  0  0  0  0  0  0
   -4.4140    1.4970   -0.7410 C   0  0  1  0  0  0  0  0  0  0  0  0
   -4.9780    1.8270    0.6230 C   0  0  0  0  0  0  0  0  0  0  0  0
   -4.6450    2.6280   -1.6940 C   0  0  0  0  0  0  0  0  0  0  0  0
   -5.1390    0.2380   -1.2260 C   0  0  0  0  0  0  0  0  0  0  0  0
  1  2  1  0
  2  3  1  0
  3  4  1  0
  4  5  1  0
  4 32  1  0
  5  6  1  0
  6  7  1  0
  7  8  2  0
  7 28  1  0
  8  9  1  0
  9 10  1  0
  9 26  2  0
 10 11  1  0
 11 12  1  0
 12 13  2  0
 12 25  1  0
 13 14  1  0
 14 15  2  0
 15 16  1  0
 15 24  1  0
 16 17  1  0
 16 21  2  0
 17 18  2  0
 17 19  1  0
 19 20  1  0
 21 22  1  0
 21 23  1  0
 23 24  1  0
 24 25  2  0
 26 27  1  0
 27 28  2  0
 28 29  1  0
 29 30  1  1
 29 31  1  0
 29 32  1  0
M  END
