
     RDKit          3D

 32 32  0  0  0  0  0  0  0  0999 V2000
    8.0480   -0.8850   -0.3080 O   0  0  0  0  0  0  0  0  0  0  0  0
    7.2970   -1.2930    0.7750 C   0  0  0  0  0  0  0  0  0  0  0  0
    6.2810   -0.2350    1.2000 C   0  0  1  0  0  0  0  0  0  0  0  0
    6.9750    0.8980    1.5360 O   0  0  0  0  0  0  0  0  0  0  0  0
    5.2560   -0.0890    0.3320 O   0  0  0  0  0  0  0  0  0  0  0  0
    4.0070   -0.4250    0.7390 C   0  0  1  0  0  0  0  0  0  0  0  0
    3.0290    0.7250    0.7980 C   0  0  0  0  0  0  0  0  0  0  0  0
    1.7910    0.1900    1.1520 O   0  0  0  0  0  0  0  0  0  0  0  0
    0.9520    1.1730    1.5260 C   0  0  0  0  0  0  0  0  0  0  0  0
   -0.1120    1.5980    0.5380 C   0  0  0  0  0  0  0  0  0  0  0  0
   -1.0730    0.7450    0.2320 O   0  0  0  0  0  0  0  0  0  0  0  0
   -1.6120    0.5100   -0.9550 C   0  0  2  0  0  0  0  0  0  0  0  0
   -1.5880    1.4770   -2.0600 C   0  0  0  0  0  0  0  0  0  0  0  0
   -2.1860    2.7880   -2.0690 C   0  0  1  0  0  0  0  0  0  0  0  0
   -1.8470    3.2990   -3.3790 O   0  0  0  0  0  0  0  0  0  0  0  0
   -3.6010    2.8030   -2.1750 O   0  0  0  0  0  0  0  0  0  0  0  0
   -1.8160    3.8800   -1.1750 C   0  0  0  0  0  0  0  0  0  0  0  0
   -2.5390    5.0240   -1.5770 O   0  0  0  0  0  0  0  0  0  0  0  0
   -3.1220    0.1740   -0.7560 C   0  0  2  0  0  0  0  0  0  0  0  0
   -3.7900    1.2010   -0.1480 O   0  0  0  0  0  0  0  0  0  0  0  0
   -3.2880   -1.0390    0.1400 C   0  0  0  0  0  0  0  0  0  0  0  0
   -4.6580   -1.2520    0.2210 O   0  0  0  0  0  0  0  0  0  0  0  0
   -5.0720   -2.3130    0.9580 C   0  0  0  0  0  0  0  0  0  0  0  0
   -4.6300   -2.2010    2.3920 C   0  0  2  0  0  0  0  0  0  0  0  0
   -5.0880   -3.3000    3.1480 O   0  0  0  0  0  0  0  0  0  0  0  0
   -5.0990   -1.0140    2.9270 O   0  0  0  0  0  0  0  0  0  0  0  0
   -1.0490   -0.7870   -1.5360 C   0  0  0  0  0  0  0  0  0  0  0  0
   -0.1830   -1.5880   -0.6460 C   0  0  1  0  0  0  0  0  0  0  0  0
   -0.3990   -2.9850   -0.8030 O   0  0  0  0  0  0  0  0  0  0  0  0
    1.2970   -1.4600   -1.0060 C   0  0  0  0  0  0  0  0  0  0  0  0
    2.0250   -1.6820    0.1330 O   0  0  0  0  0  0  0  0  0  0  0  0
    3.3860   -1.5670   -0.0260 C   0  0  0  0  0  0  0  0  0  0  0  0
  1  2  1  0
  2  3  1  0
  3  4  1  6
  3  5  1  0
  6  5  1  6
  6  7  1  0
  6 32  1  0
  7  8  1  0
  8  9  1  0
  9 10  1  0
 10 11  1  0
 11 12  1  0
 12 13  1  6
 12 19  1  0
 12 27  1  0
 13 14  1  0
 14 15  1  6
 14 16  1  0
 14 17  1  0
 17 18  1  0
 19 20  1  1
 19 21  1  0
 21 22  1  0
 22 23  1  0
 23 24  1  0
 24 25  1  1
 24 26  1  0
 27 28  1  0
 28 29  1  6
 28 30  1  0
 30 31  1  0
 31 32  1  0
M  END
