
     RDKit          3D

 33 37  0  0  0  0  0  0  0  0999 V2000
    4.7500   -1.3320   -1.9030 O   0  0  0  0  0  0  0  0  0  0  0  0
    5.1220   -1.2290   -0.7290 C   0  0  0  0  0  0  0  0  0  0  0  0
    4.2720   -0.7270    0.2580 N   0  0  0  0  0  0  0  0  0  0  0  0
    2.9330   -0.2820    0.0930 C   0  0  0  0  0  0  0  0  0  0  0  0
    2.2430   -0.2400   -1.0880 C   0  0  0  0  0  0  0  0  0  0  0  0
    0.9140    0.2110   -1.1590 C   0  0  0  0  0  0  0  0  0  0  0  0
    0.2410    0.6360   -0.0380 C   0  0  0  0  0  0  0  0  0  0  0  0
   -1.1090    1.0980   -0.0780 N   0  0  0  0  0  0  0  0  0  0  0  0
   -1.4180    2.3450    0.5300 C   0  0  0  0  0  0  0  0  0  0  0  0
   -1.2340    3.5230   -0.4350 C   0  0  0  0  0  0  0  0  0  0  0  0
   -0.0540    3.8940   -0.9590 C   0  0  0  0  0  0  0  0  0  0  0  0
    0.0210    4.9390   -1.7830 C   0  0  0  0  0  0  0  0  0  0  0  0
   -1.7030    5.5590   -1.9150 S   0  0  0  0  0  0  0  0  0  0  0  0
   -2.3400    4.2520   -0.7760 C   0  0  0  0  0  0  0  0  0  0  0  0
   -2.0820    0.2960   -0.7250 C   0  0  0  0  0  0  0  0  0  0  0  0
   -1.7400   -0.8100   -1.2760 O   0  0  0  0  0  0  0  0  0  0  0  0
   -3.5220    0.6300   -0.8300 C   0  0  0  0  0  0  0  0  0  0  0  0
   -4.3080    0.0650    0.2560 N   0  0  0  0  0  0  0  0  0  0  0  0
   -4.5930    0.6010    1.4110 N   0  0  0  0  0  0  0  0  0  0  0  0
   -5.3350   -0.2010    2.1490 N   0  0  0  0  0  0  0  0  0  0  0  0
   -5.5510   -1.3280    1.4420 C   0  0  0  0  0  0  0  0  0  0  0  0
   -6.2460   -2.4790    1.7270 C   0  0  0  0  0  0  0  0  0  0  0  0
   -6.2760   -3.4700    0.7740 C   0  0  0  0  0  0  0  0  0  0  0  0
   -5.6290   -3.3120   -0.4260 C   0  0  0  0  0  0  0  0  0  0  0  0
   -4.9380   -2.1530   -0.6950 C   0  0  0  0  0  0  0  0  0  0  0  0
   -4.8890   -1.1460    0.2350 C   0  0  0  0  0  0  0  0  0  0  0  0
    0.9490    0.5890    1.1450 C   0  0  0  0  0  0  0  0  0  0  0  0
    2.2360    0.1540    1.2290 C   0  0  0  0  0  0  0  0  0  0  0  0
    6.4990   -1.6660   -0.4470 C   0  0  0  0  0  0  0  0  0  0  0  0
    7.1520   -1.6620    0.7560 C   0  0  0  0  0  0  0  0  0  0  0  0
    8.4150   -2.1070    0.7980 C   0  0  0  0  0  0  0  0  0  0  0  0
    8.9940   -2.5470   -0.3670 C   0  0  0  0  0  0  0  0  0  0  0  0
    7.6640   -2.3030   -1.5470 S   0  0  0  0  0  0  0  0  0  0  0  0
  1  2  2  0
  2  3  1  0
  2 29  1  0
  3  4  1  0
  4  5  2  0
  4 28  1  0
  5  6  1  0
  6  7  2  0
  7  8  1  0
  7 27  1  0
  8  9  1  0
  8 15  1  0
  9 10  1  0
 10 11  1  0
 10 14  2  0
 11 12  2  0
 12 13  1  0
 13 14  1  0
 15 16  2  0
 15 17  1  0
 17 18  1  0
 18 19  1  0
 18 26  1  0
 19 20  2  0
 20 21  1  0
 21 22  2  0
 21 26  1  0
 22 23  1  0
 23 24  2  0
 24 25  1  0
 25 26  2  0
 27 28  2  0
 29 30  2  0
 29 33  1  0
 30 31  1  0
 31 32  2  0
 32 33  1  0
M  END
