
     RDKit          3D

 32 33  0  0  0  0  0  0  0  0999 V2000
    8.7470   -1.8620   -0.9790 C   0  0  0  0  0  0  0  0  0  0  0  0
    7.9550   -1.0980   -1.8050 O   0  0  0  0  0  0  0  0  0  0  0  0
    6.9390   -0.4210   -1.2230 C   0  0  0  0  0  0  0  0  0  0  0  0
    5.8920   -1.2210   -0.4990 C   0  0  1  0  0  0  0  0  0  0  0  0
    6.4910   -1.8920    0.5540 O   0  0  0  0  0  0  0  0  0  0  0  0
    4.8840   -0.2170    0.0510 C   0  0  0  0  0  0  0  0  0  0  0  0
    3.9050   -0.8180    0.7840 O   0  0  0  0  0  0  0  0  0  0  0  0
    2.9580   -0.0410    1.3650 C   0  0  0  0  0  0  0  0  0  0  0  0
    2.1160    0.8050    0.4460 C   0  0  1  0  0  0  0  0  0  0  0  0
    2.8430    1.7330   -0.2870 O   0  0  0  0  0  0  0  0  0  0  0  0
    1.4320    0.0160   -0.4780 O   0  0  0  0  0  0  0  0  0  0  0  0
    0.2370    0.6180   -0.8790 C   0  0  1  0  0  0  0  0  0  0  0  0
   -0.1530   -0.0600   -2.0540 O   0  0  0  0  0  0  0  0  0  0  0  0
   -0.7830    0.3530    0.2060 C   0  0  2  0  0  0  0  0  0  0  0  0
   -0.9830   -1.0260    0.2560 O   0  0  0  0  0  0  0  0  0  0  0  0
   -2.0790    1.0400   -0.0260 C   0  0  2  0  0  0  0  0  0  0  0  0
   -3.0160    0.6890    1.1300 C   0  0  0  0  0  0  0  0  0  0  0  0
   -4.4410    0.7050    0.5950 C   0  0  1  0  0  0  0  0  0  0  0  0
   -4.4850    1.9000   -0.1780 O   0  0  0  0  0  0  0  0  0  0  0  0
   -4.5950   -0.4870   -0.3200 C   0  0  2  0  0  0  0  0  0  0  0  0
   -5.9930   -0.6680   -0.8510 C   0  0  0  0  0  0  0  0  0  0  0  0
   -6.4300    0.5250   -1.6370 C   0  0  0  0  0  0  0  0  0  0  0  0
   -7.7370    0.3200   -2.1450 O   0  0  0  0  0  0  0  0  0  0  0  0
   -4.1480   -1.6500    0.3150 O   0  0  0  0  0  0  0  0  0  0  0  0
   -4.8800   -2.0740    1.3770 C   0  0  0  0  0  0  0  0  0  0  0  0
   -5.0220   -1.2460    2.4530 O   0  0  0  0  0  0  0  0  0  0  0  0
   -3.6960   -0.2880   -1.3920 O   0  0  0  0  0  0  0  0  0  0  0  0
   -2.7370    0.6830   -1.3110 C   0  0  0  0  0  0  0  0  0  0  0  0
   -2.3890    1.3010   -2.3410 O   0  0  0  0  0  0  0  0  0  0  0  0
   -0.1740    0.7740    1.5050 C   0  0  0  0  0  0  0  0  0  0  0  0
    1.1140    1.5700    1.2850 C   0  0  1  0  0  0  0  0  0  0  0  0
    1.6370    1.8030    2.5660 O   0  0  0  0  0  0  0  0  0  0  0  0
  1  2  1  0
  2  3  1  0
  3  4  1  0
  4  5  1  1
  4  6  1  0
  6  7  1  0
  7  8  1  0
  8  9  1  0
  9 10  1  6
  9 11  1  0
  9 31  1  0
 11 12  1  0
 12 13  1  6
 12 14  1  0
 14 15  1  1
 14 16  1  0
 14 30  1  0
 16 17  1  1
 16 28  1  0
 17 18  1  0
 18 19  1  6
 18 20  1  0
 20 21  1  6
 20 24  1  0
 20 27  1  0
 21 22  1  0
 22 23  1  0
 24 25  1  0
 25 26  1  0
 27 28  1  0
 28 29  2  0
 30 31  1  0
 31 32  1  1
M  END
