
     RDKit          3D

 32 32  0  0  0  0  0  0  0  0999 V2000
    3.6950   -1.6810   -3.9600 O   0  0  0  0  0  0  0  0  0  0  0  0
    2.9850   -2.3780   -3.1910 C   0  0  0  0  0  0  0  0  0  0  0  0
    2.7600   -3.7000   -3.4550 O   0  0  0  0  0  0  0  0  0  0  0  0
    2.4140   -1.6710   -1.9870 C   0  0  2  0  0  0  0  0  0  0  0  0
    3.5470   -1.0600   -1.2260 C   0  0  0  0  0  0  0  0  0  0  0  0
    3.4360   -1.0730    0.1210 O   0  0  0  0  0  0  0  0  0  0  0  0
    3.2650    0.1030    0.7930 C   0  0  1  0  0  0  0  0  0  0  0  0
    4.5260    0.6640    0.9610 O   0  0  0  0  0  0  0  0  0  0  0  0
    4.8080    0.7050    2.3200 C   0  0  0  0  0  0  0  0  0  0  0  0
    6.1840    1.3130    2.5670 C   0  0  0  0  0  0  0  0  0  0  0  0
    6.2160    2.5980    2.0680 O   0  0  0  0  0  0  0  0  0  0  0  0
    2.4070    1.1240    0.1250 C   0  0  2  0  0  0  0  0  0  0  0  0
    3.0260    2.3850    0.0980 O   0  0  0  0  0  0  0  0  0  0  0  0
    1.0890    1.1940    0.8740 C   0  0  1  0  0  0  0  0  0  0  0  0
    0.9410    2.5100    1.3480 O   0  0  0  0  0  0  0  0  0  0  0  0
   -0.0770    0.8170   -0.0490 C   0  0  2  0  0  0  0  0  0  0  0  0
   -0.5700    2.0670   -0.5010 O   0  0  0  0  0  0  0  0  0  0  0  0
   -1.0900    0.1630    0.5450 O   0  0  0  0  0  0  0  0  0  0  0  0
   -1.2890   -1.1590    0.3200 C   0  0  1  0  0  0  0  0  0  0  0  0
   -2.3680   -1.5280   -0.6580 C   0  0  0  0  0  0  0  0  0  0  0  0
   -3.6430   -1.1300   -0.3290 O   0  0  0  0  0  0  0  0  0  0  0  0
   -3.8780    0.2140   -0.2290 C   0  0  2  0  0  0  0  0  0  0  0  0
   -4.3550    0.6120    1.1520 C   0  0  0  0  0  0  0  0  0  0  0  0
   -5.6310   -0.0330    1.5700 C   0  0  0  0  0  0  0  0  0  0  0  0
   -5.9360    0.4280    2.8500 O   0  0  0  0  0  0  0  0  0  0  0  0
   -4.9510    0.6270   -1.2290 C   0  0  0  0  0  0  0  0  0  0  0  0
   -5.1840    2.1040   -1.0990 C   0  0  0  0  0  0  0  0  0  0  0  0
   -4.0120    2.8240   -1.3380 O   0  0  0  0  0  0  0  0  0  0  0  0
   -0.0600   -1.9990    0.1130 C   0  0  1  0  0  0  0  0  0  0  0  0
   -0.1450   -3.2230    0.8240 O   0  0  0  0  0  0  0  0  0  0  0  0
    0.2960   -2.3350   -1.2780 C   0  0  0  0  0  0  0  0  0  0  0  0
    1.6860   -2.6030   -1.2960 O   0  0  0  0  0  0  0  0  0  0  0  0
  1  2  2  0
  2  3  1  0
  4  2  1  6
  4  5  1  0
  4 32  1  0
  5  6  1  0
  6  7  1  0
  7  8  1  6
  7 12  1  0
  8  9  1  0
  9 10  1  0
 10 11  1  0
 12 13  1  1
 12 14  1  0
 14 15  1  6
 14 16  1  0
 16 17  1  1
 16 18  1  0
 18 19  1  0
 19 20  1  6
 19 29  1  0
 20 21  1  0
 21 22  1  0
 22 23  1  1
 22 26  1  0
 23 24  1  0
 24 25  1  0
 26 27  1  0
 27 28  1  0
 29 30  1  1
 29 31  1  0
 31 32  1  0
M  END
