
     RDKit          3D

 32 32  0  0  0  0  0  0  0  0999 V2000
   -3.6770    3.9480    0.6290 C   0  0  0  0  0  0  0  0  0  0  0  0
   -2.7190    3.4520   -0.1970 O   0  0  0  0  0  0  0  0  0  0  0  0
   -2.6900    2.1530   -0.5280 C   0  0  0  0  0  0  0  0  0  0  0  0
   -2.5450    1.2250    0.6180 C   0  0  2  0  0  0  0  0  0  0  0  0
   -3.6740    1.4010    1.4640 O   0  0  0  0  0  0  0  0  0  0  0  0
   -1.3360    1.3970    1.4700 C   0  0  0  0  0  0  0  0  0  0  0  0
   -0.3230    2.1920    1.0540 O   0  0  0  0  0  0  0  0  0  0  0  0
    0.4410    2.4450   -0.0050 C   0  0  0  0  0  0  0  0  0  0  0  0
    0.2840    3.7230   -0.6170 O   0  0  0  0  0  0  0  0  0  0  0  0
    1.3640    1.6780   -0.6090 C   0  0  0  0  0  0  0  0  0  0  0  0
    2.0660    2.2430   -1.7930 C   0  0  0  0  0  0  0  0  0  0  0  0
    1.8380    3.3880   -2.2370 O   0  0  0  0  0  0  0  0  0  0  0  0
    3.0150    1.4930   -2.4520 O   0  0  0  0  0  0  0  0  0  0  0  0
    1.6690    0.4220   -0.1770 O   0  0  0  0  0  0  0  0  0  0  0  0
    1.8080   -0.1210    1.0880 C   0  0  2  0  0  0  0  0  0  0  0  0
    3.3000   -0.4570    1.2630 C   0  0  2  0  0  0  0  0  0  0  0  0
    3.4880   -1.0160    2.5260 O   0  0  0  0  0  0  0  0  0  0  0  0
    4.1710    0.7390    1.0720 C   0  0  0  0  0  0  0  0  0  0  0  0
    5.6070    0.2770    1.2690 C   0  0  0  0  0  0  0  0  0  0  0  0
    5.8440   -0.7140    0.2930 O   0  0  0  0  0  0  0  0  0  0  0  0
    1.1600   -1.3170    1.3240 O   0  0  0  0  0  0  0  0  0  0  0  0
    0.8050   -1.8890    0.1160 C   0  0  0  0  0  0  0  0  0  0  0  0
   -0.5390   -2.5690    0.1750 C   0  0  1  0  0  0  0  0  0  0  0  0
   -1.0920   -2.3840    1.4480 O   0  0  0  0  0  0  0  0  0  0  0  0
   -1.4120   -2.1300   -0.9250 C   0  0  2  0  0  0  0  0  0  0  0  0
   -2.8030   -2.8030   -0.8430 C   0  0  0  0  0  0  0  0  0  0  0  0
   -0.8500   -2.3380   -2.1520 O   0  0  0  0  0  0  0  0  0  0  0  0
   -0.5560   -3.5660   -2.5950 C   0  0  0  0  0  0  0  0  0  0  0  0
    0.3420   -4.3360   -1.8850 O   0  0  0  0  0  0  0  0  0  0  0  0
   -1.7640   -0.6320   -0.9090 C   0  0  0  0  0  0  0  0  0  0  0  0
   -2.7200   -0.2420    0.1480 C   0  0  2  0  0  0  0  0  0  0  0  0
   -4.0600   -0.2680   -0.3160 O   0  0  0  0  0  0  0  0  0  0  0  0
  1  2  1  0
  2  3  1  0
  3  4  1  0
  4  5  1  1
  4  6  1  0
  4 31  1  0
  6  7  1  0
  7  8  1  0
  8  9  1  0
  8 10  2  0
 10 11  1  0
 10 14  1  0
 11 12  2  0
 11 13  1  0
 15 14  1  6
 15 16  1  0
 15 21  1  0
 16 17  1  1
 16 18  1  0
 18 19  1  0
 19 20  1  0
 21 22  1  0
 22 23  1  0
 23 24  1  1
 23 25  1  0
 25 26  1  6
 25 27  1  0
 25 30  1  0
 27 28  1  0
 28 29  1  0
 30 31  1  0
 31 32  1  6
M  END
