
     RDKit          3D

 32 34  0  0  0  0  0  0  0  0999 V2000
   -4.9950    4.7760    0.0920 C   0  0  0  0  0  0  0  0  0  0  0  0
   -4.1740    3.6810    0.3990 O   0  0  0  0  0  0  0  0  0  0  0  0
   -3.1640    3.2140   -0.4250 C   0  0  0  0  0  0  0  0  0  0  0  0
   -2.9630    3.7990   -1.5170 O   0  0  0  0  0  0  0  0  0  0  0  0
   -2.3170    2.0480   -0.0600 C   0  0  2  0  0  0  0  0  0  0  0  0
   -1.3880    1.8000   -1.0680 O   0  0  0  0  0  0  0  0  0  0  0  0
   -1.0390    0.4570   -0.9460 C   0  0  1  0  0  0  0  0  0  0  0  0
   -0.5480    0.0200   -2.1480 O   0  0  0  0  0  0  0  0  0  0  0  0
   -0.0400    0.2540    0.1480 C   0  0  2  0  0  0  0  0  0  0  0  0
    1.3460    0.2810   -0.4070 C   0  0  0  0  0  0  0  0  0  0  0  0
    2.3790    0.0880    0.6370 C   0  0  0  0  0  0  0  0  0  0  0  0
    2.0400   -0.0750    1.8370 O   0  0  0  0  0  0  0  0  0  0  0  0
    3.7370    0.0750    0.3630 O   0  0  0  0  0  0  0  0  0  0  0  0
    4.7100   -0.1140    1.3970 C   0  0  0  0  0  0  0  0  0  0  0  0
    6.0790   -0.0740    0.7550 C   0  0  1  0  0  0  0  0  0  0  0  0
    6.1790   -1.0930   -0.1980 O   0  0  0  0  0  0  0  0  0  0  0  0
    7.0500   -0.6180   -1.1800 C   0  0  0  0  0  0  0  0  0  0  0  0
    7.3900    0.7830   -0.7310 C   0  0  0  0  0  0  0  0  0  0  0  0
    6.2640    1.1020    0.0520 O   0  0  0  0  0  0  0  0  0  0  0  0
   -0.4230   -0.9900    0.8660 C   0  0  2  0  0  0  0  0  0  0  0  0
    0.4320   -2.0550    0.6530 O   0  0  0  0  0  0  0  0  0  0  0  0
   -1.8670   -1.2690    0.5330 C   0  0  1  0  0  0  0  0  0  0  0  0
   -2.1450   -2.6470    0.0700 C   0  0  0  0  0  0  0  0  0  0  0  0
   -1.5330   -3.2270   -1.1060 C   0  0  0  0  0  0  0  0  0  0  0  0
   -2.0590   -4.5530   -1.2170 O   0  0  0  0  0  0  0  0  0  0  0  0
   -2.5870   -1.1730    1.8800 C   0  0  1  0  0  0  0  0  0  0  0  0
   -2.4350    0.0820    2.4620 O   0  0  0  0  0  0  0  0  0  0  0  0
   -3.8640   -1.6310    1.8600 O   0  0  0  0  0  0  0  0  0  0  0  0
   -2.2650   -0.2650   -0.4550 C   0  0  2  0  0  0  0  0  0  0  0  0
   -2.8280   -0.9340   -1.5710 O   0  0  0  0  0  0  0  0  0  0  0  0
   -3.1760    0.8180   -0.1080 C   0  0  2  0  0  0  0  0  0  0  0  0
   -4.0670    1.0530   -1.1920 O   0  0  0  0  0  0  0  0  0  0  0  0
  1  2  1  0
  2  3  1  0
  3  4  2  0
  5  3  1  6
  5  6  1  0
  5 31  1  0
  6  7  1  0
  7  8  1  6
  7  9  1  0
  7 29  1  0
  9 10  1  6
  9 20  1  0
 10 11  1  0
 11 12  2  0
 11 13  1  0
 13 14  1  0
 15 14  1  6
 15 16  1  0
 15 19  1  0
 16 17  1  0
 17 18  1  0
 18 19  1  0
 20 21  1  6
 20 22  1  0
 22 23  1  6
 22 26  1  0
 22 29  1  0
 23 24  1  0
 24 25  1  0
 26 27  1  6
 26 28  1  0
 29 30  1  6
 29 31  1  0
 31 32  1  6
M  END
