
     RDKit          3D

 32 35  0  0  0  0  0  0  0  0999 V2000
   -8.0900    1.6220   -0.1790 C   0  0  0  0  0  0  0  0  0  0  0  0
   -7.7410    0.7510   -1.0940 C   0  0  0  0  0  0  0  0  0  0  0  0
   -6.3810    0.3420   -1.4250 C   0  0  0  0  0  0  0  0  0  0  0  0
   -6.2090   -0.5380   -2.3870 C   0  0  0  0  0  0  0  0  0  0  0  0
   -4.9250   -1.0750   -2.8630 C   0  0  0  0  0  0  0  0  0  0  0  0
   -5.2860    0.8840   -0.6390 C   0  0  1  0  0  0  0  0  0  0  0  0
   -5.2400    0.2040    0.6880 C   0  0  0  0  0  0  0  0  0  0  0  0
   -4.1150    0.7210    1.5660 C   0  0  0  0  0  0  0  0  0  0  0  0
   -2.8290    0.6850    0.8190 C   0  0  0  0  0  0  0  0  0  0  0  0
   -1.6630    0.5290    1.5630 C   0  0  0  0  0  0  0  0  0  0  0  0
   -0.4290    0.4760    0.9800 C   0  0  0  0  0  0  0  0  0  0  0  0
    0.8160    0.3170    1.6210 N   0  0  0  0  0  0  0  0  0  0  0  0
    1.0650    0.1140    2.9900 C   0  0  0  0  0  0  0  0  0  0  0  0
    0.0930    0.0570    3.7760 O   0  0  0  0  0  0  0  0  0  0  0  0
    2.4190   -0.0400    3.5700 C   0  0  0  0  0  0  0  0  0  0  0  0
    3.4930    0.0440    2.6260 N   0  0  0  0  0  0  0  0  0  0  0  0
    4.2000    1.2240    2.2640 C   0  0  0  0  0  0  0  0  0  0  0  0
    4.4300    1.3360    0.7840 C   0  0  0  0  0  0  0  0  0  0  0  0
    4.8600    0.0740    0.1620 C   0  0  0  0  0  0  0  0  0  0  0  0
    5.5480    0.0630   -1.0600 C   0  0  0  0  0  0  0  0  0  0  0  0
    5.8310    1.3840   -1.6940 C   0  0  0  0  0  0  0  0  0  0  0  0
    5.9310   -1.1330   -1.6190 C   0  0  0  0  0  0  0  0  0  0  0  0
    5.6690   -2.3500   -1.0310 C   0  0  0  0  0  0  0  0  0  0  0  0
    6.0890   -3.6250   -1.6490 C   0  0  0  0  0  0  0  0  0  0  0  0
    4.9970   -2.3550    0.1620 C   0  0  0  0  0  0  0  0  0  0  0  0
    4.6040   -1.1470    0.7380 C   0  0  0  0  0  0  0  0  0  0  0  0
    3.9030   -1.1810    2.0030 C   0  0  0  0  0  0  0  0  0  0  0  0
    3.6690   -2.2990    2.5300 O   0  0  0  0  0  0  0  0  0  0  0  0
   -0.4020    0.5890   -0.4160 C   0  0  0  0  0  0  0  0  0  0  0  0
   -1.5430    0.7440   -1.1670 C   0  0  0  0  0  0  0  0  0  0  0  0
   -2.7960    0.7950   -0.5480 C   0  0  0  0  0  0  0  0  0  0  0  0
   -3.9960    0.9590   -1.2580 N   0  0  0  0  0  0  0  0  0  0  0  0
  1  2  2  0
  2  3  1  0
  3  4  2  3
  6  3  1  6
  4  5  1  0
  6  7  1  0
  6 32  1  0
  7  8  1  0
  8  9  1  0
  9 10  2  0
  9 31  1  0
 10 11  1  0
 11 12  1  0
 11 29  2  0
 12 13  1  0
 13 14  2  0
 13 15  1  0
 15 16  1  0
 16 17  1  0
 16 27  1  0
 17 18  1  0
 18 19  1  0
 19 20  2  0
 19 26  1  0
 20 21  1  0
 20 22  1  0
 22 23  2  0
 23 24  1  0
 23 25  1  0
 25 26  2  0
 26 27  1  0
 27 28  2  0
 29 30  1  0
 30 31  2  0
 31 32  1  0
M  END
