
     RDKit          3D

 32 34  0  0  0  0  0  0  0  0999 V2000
   -1.3260   -1.2380    2.8110 O   0  0  0  0  0  0  0  0  0  0  0  0
   -2.2530   -0.7920    2.1080 C   0  0  0  0  0  0  0  0  0  0  0  0
   -3.3010   -0.1800    2.8110 O   0  0  0  0  0  0  0  0  0  0  0  0
   -2.3550   -0.8450    0.6400 C   0  0  1  0  0  0  0  0  0  0  0  0
   -2.5450    0.5180    0.0180 C   0  0  0  0  0  0  0  0  0  0  0  0
   -3.6490    0.6120   -0.8420 C   0  0  0  0  0  0  0  0  0  0  0  0
   -3.9330    1.8090   -1.4440 C   0  0  0  0  0  0  0  0  0  0  0  0
   -5.0510    1.8420   -2.2960 O   0  0  0  0  0  0  0  0  0  0  0  0
   -3.1460    2.8770   -1.1980 C   0  0  0  0  0  0  0  0  0  0  0  0
   -3.4850    4.0800   -1.8420 O   0  0  0  0  0  0  0  0  0  0  0  0
   -2.0630    2.7810   -0.3530 C   0  0  0  0  0  0  0  0  0  0  0  0
   -1.3510    3.9860   -0.2040 O   0  0  0  0  0  0  0  0  0  0  0  0
   -1.7160    1.5890    0.2930 C   0  0  0  0  0  0  0  0  0  0  0  0
   -0.6540    1.5230    1.1100 O   0  0  0  0  0  0  0  0  0  0  0  0
    0.5830    0.9310    1.1620 C   0  0  0  0  0  0  0  0  0  0  0  0
    1.4220    1.0330   -0.0960 C   0  0  1  0  0  0  0  0  0  0  0  0
    1.7560    2.4010   -0.2670 O   0  0  0  0  0  0  0  0  0  0  0  0
    2.7050    0.3110    0.0800 C   0  0  2  0  0  0  0  0  0  0  0  0
    3.6340    1.1580    0.9240 C   0  0  0  0  0  0  0  0  0  0  0  0
    4.8440    0.5650    1.2000 O   0  0  0  0  0  0  0  0  0  0  0  0
    3.3700    0.0760   -1.1240 O   0  0  0  0  0  0  0  0  0  0  0  0
    4.2870   -0.8960   -0.8190 C   0  0  0  0  0  0  0  0  0  0  0  0
    3.9600   -1.4760    0.3860 O   0  0  0  0  0  0  0  0  0  0  0  0
    2.6160   -1.0800    0.6360 C   0  0  2  0  0  0  0  0  0  0  0  0
    1.7600   -1.9830   -0.1900 C   0  0  1  0  0  0  0  0  0  0  0  0
    2.5170   -2.9510   -0.8990 O   0  0  0  0  0  0  0  0  0  0  0  0
    0.7830   -2.7680    0.6000 C   0  0  0  0  0  0  0  0  0  0  0  0
    1.1580   -3.8650    1.0840 O   0  0  0  0  0  0  0  0  0  0  0  0
   -0.5000   -2.3650    0.8300 O   0  0  0  0  0  0  0  0  0  0  0  0
   -1.3210   -1.6490   -0.0630 C   0  0  1  0  0  0  0  0  0  0  0  0
   -1.9350   -2.7250   -0.9790 C   0  0  0  0  0  0  0  0  0  0  0  0
   -0.9390   -3.4130   -1.6510 O   0  0  0  0  0  0  0  0  0  0  0  0
  1  2  2  0
  2  3  1  0
  4  2  1  1
  4  5  1  0
  4 30  1  0
  5  6  2  0
  5 13  1  0
  6  7  1  0
  7  8  1  0
  7  9  2  0
  9 10  1  0
  9 11  1  0
 11 12  1  0
 11 13  2  0
 13 14  1  0
 14 15  1  0
 15 16  1  0
 16 17  1  1
 16 18  1  0
 18 19  1  1
 18 21  1  0
 18 24  1  0
 19 20  1  0
 21 22  1  0
 22 23  1  0
 24 23  1  6
 24 25  1  0
 25 26  1  1
 25 27  1  0
 27 28  2  0
 27 29  1  0
 29 30  1  0
 30 31  1  6
 31 32  1  0
M  END
