
     RDKit          3D

 25 27  0  0  0  0  0  0  0  0999 V2000
   -0.8270   -2.8410    1.1470 C   0  0  0  0  0  0  0  0  0  0  0  0
   -0.4190   -1.8990    0.0480 C   0  0  2  0  0  0  0  0  0  0  0  0
   -0.2530   -2.7150   -1.2050 C   0  0  0  0  0  0  0  0  0  0  0  0
    0.9260   -1.2910    0.3560 C   0  0  0  0  0  0  0  0  0  0  0  0
    1.8060   -2.0190    0.8710 O   0  0  0  0  0  0  0  0  0  0  0  0
    1.1980    0.0570    0.0730 N   0  0  0  0  0  0  0  0  0  0  0  0
    2.0010    1.0080    0.7560 C   0  0  0  0  0  0  0  0  0  0  0  0
    3.4510    1.1160    0.4820 C   0  0  0  0  0  0  0  0  0  0  0  0
    3.9340    2.2410   -0.2130 C   0  0  0  0  0  0  0  0  0  0  0  0
    2.8160    3.3940   -0.9130 Cl  0  0  0  0  0  0  0  0  0  0  0  0
    5.2730    2.4760   -0.3840 C   0  0  0  0  0  0  0  0  0  0  0  0
    6.2040    1.5830    0.1320 C   0  0  0  0  0  0  0  0  0  0  0  0
    5.7440    0.4930    0.8140 C   0  0  0  0  0  0  0  0  0  0  0  0
    6.6590   -0.3980    1.3760 O   0  0  0  0  0  0  0  0  0  0  0  0
    4.3640    0.2430    0.9960 C   0  0  0  0  0  0  0  0  0  0  0  0
    4.1200   -0.8600    1.7220 F   0  0  0  0  0  0  0  0  0  0  0  0
    0.4260    0.6260   -1.0840 C   0  0  0  0  0  0  0  0  0  0  0  0
   -0.8560   -0.1040   -1.3420 C   0  0  0  0  0  0  0  0  0  0  0  0
   -1.3160   -0.7760   -0.1420 N   0  0  0  0  0  0  0  0  0  0  0  0
   -2.6850   -1.1330   -0.1130 C   0  0  0  0  0  0  0  0  0  0  0  0
   -3.7210   -0.1390    0.0880 C   0  0  0  0  0  0  0  0  0  0  0  0
   -4.6990   -0.1540    1.0190 C   0  0  0  0  0  0  0  0  0  0  0  0
   -5.5590    1.0350    0.8930 C   0  0  0  0  0  0  0  0  0  0  0  0
   -4.7830    1.9780    0.1760 N   0  0  0  0  0  0  0  0  0  0  0  0
   -3.8630    1.1640   -0.6160 C   0  0  0  0  0  0  0  0  0  0  0  0
  2  1  1  1
  2  3  1  0
  2  4  1  0
  2 19  1  0
  4  5  2  0
  4  6  1  0
  6  7  1  0
  6 17  1  0
  7  8  1  0
  8  9  2  0
  8 15  1  0
  9 10  1  0
  9 11  1  0
 11 12  2  0
 12 13  1  0
 13 14  1  0
 13 15  2  0
 15 16  1  0
 17 18  1  0
 18 19  1  0
 19 20  1  0
 20 21  1  0
 21 22  2  0
 21 25  1  0
 22 23  1  0
 23 24  1  0
 24 25  1  0
M  CHG  1  24   1
M  END
