
     RDKit          3D

 25 25  0  0  0  0  0  0  0  0999 V2000
   -1.3020    4.8220    0.2020 C   0  0  0  0  0  0  0  0  0  0  0  0
   -1.8970    3.6760    0.4790 C   0  0  0  0  0  0  0  0  0  0  0  0
   -2.0360    2.6310   -0.5340 C   0  0  0  0  0  0  0  0  0  0  0  0
   -1.3470    1.3920   -0.0790 N   0  0  0  0  0  0  0  0  0  0  0  0
   -2.1980    0.5260    0.6810 C   0  0  0  0  0  0  0  0  0  0  0  0
   -1.9280   -0.9400    0.6270 C   0  0  0  0  0  0  0  0  0  0  0  0
   -2.8560   -1.6420   -0.2940 C   0  0  1  0  0  0  0  0  0  0  0  0
   -4.0560   -1.7800    0.4360 F   0  0  0  0  0  0  0  0  0  0  0  0
   -3.3500   -0.5170   -1.6200 Cl  0  0  0  0  0  0  0  0  0  0  0  0
   -2.4540   -2.9450   -0.8280 C   0  0  0  0  0  0  0  0  0  0  0  0
   -3.2700   -3.9710   -0.5550 C   0  0  0  0  0  0  0  0  0  0  0  0
   -1.3180   -3.2400   -1.6110 N   0  0  0  0  0  0  0  0  0  0  0  0
    0.0670   -2.9350   -1.3460 C   0  0  0  0  0  0  0  0  0  0  0  0
    0.4490   -1.5810   -1.9710 C   0  0  0  0  0  0  0  0  0  0  0  0
    1.6770   -1.0550   -1.3260 C   0  0  0  0  0  0  0  0  0  0  0  0
    2.7550   -1.2580   -2.0100 O   0  0  0  0  0  0  0  0  0  0  0  0
    1.8350   -0.3900   -0.1160 N   0  0  0  0  0  0  0  0  0  0  0  0
    2.8440   -0.8940    0.8380 C   0  0  0  0  0  0  0  0  0  0  0  0
    4.1780   -0.2700    0.6070 C   0  0  0  0  0  0  0  0  0  0  0  0
    4.8140    0.4340    1.5230 C   0  0  0  0  0  0  0  0  0  0  0  0
    1.1440    0.7880    0.3700 C   0  0  2  0  0  0  0  0  0  0  0  0
    2.2220    1.8970    0.2810 C   0  0  0  0  0  0  0  0  0  0  0  0
    0.8380    0.6990    1.8470 C   0  0  0  0  0  0  0  0  0  0  0  0
    0.0050    1.2420   -0.4330 C   0  0  0  0  0  0  0  0  0  0  0  0
    0.3010    1.5540   -1.6480 O   0  0  0  0  0  0  0  0  0  0  0  0
  1  2  2  0
  2  3  1  0
  3  4  1  0
  4  5  1  0
  4 24  1  0
  5  6  1  0
  6  7  1  0
  7  8  1  1
  7  9  1  0
  7 10  1  0
 10 11  2  0
 10 12  1  0
 12 13  1  0
 13 14  1  0
 14 15  1  0
 15 16  2  0
 15 17  1  0
 17 18  1  0
 17 21  1  0
 18 19  1  0
 19 20  2  0
 21 22  1  1
 21 23  1  0
 21 24  1  0
 24 25  2  0
M  END
