
     RDKit          3D

 24 25  0  0  0  0  0  0  0  0999 V2000
    0.3240    0.4880   -2.2730 C   0  0  0  0  0  0  0  0  0  0  0  0
    0.3980   -0.3700   -1.0670 C   0  0  0  0  0  0  0  0  0  0  0  0
   -0.7290   -0.9780   -0.4910 C   0  0  0  0  0  0  0  0  0  0  0  0
   -2.1150   -0.8470   -1.0830 C   0  0  0  0  0  0  0  0  0  0  0  0
   -2.8860   -0.0640   -0.1520 N   0  0  0  0  0  0  0  0  0  0  0  0
   -4.2890   -0.1430   -0.3120 C   0  0  1  0  0  0  0  0  0  0  0  0
   -4.8190   -1.3970    0.3920 C   0  0  0  0  0  0  0  0  0  0  0  0
   -4.9970    1.0240    0.3640 C   0  0  2  0  0  0  0  0  0  0  0  0
   -4.7810    1.0770    1.8480 C   0  0  0  0  0  0  0  0  0  0  0  0
   -6.4920    0.9060    0.0790 C   0  0  0  0  0  0  0  0  0  0  0  0
   -0.2760   -1.6950    0.5840 C   0  0  0  0  0  0  0  0  0  0  0  0
   -1.0160   -2.3910    1.3110 O   0  0  0  0  0  0  0  0  0  0  0  0
    1.0400   -1.5470    0.6870 N   0  0  0  0  0  0  0  0  0  0  0  0
    1.4650   -0.7510   -0.2830 N   0  0  0  0  0  0  0  0  0  0  0  0
    2.7680   -0.2150   -0.4300 C   0  0  0  0  0  0  0  0  0  0  0  0
    2.9220    1.1000   -0.4130 C   0  0  0  0  0  0  0  0  0  0  0  0
    1.5670    2.2490   -0.2110 Cl  0  0  0  0  0  0  0  0  0  0  0  0
    4.2240    1.7360   -0.5570 C   0  0  0  0  0  0  0  0  0  0  0  0
    4.3210    2.9840   -0.7320 O   0  0  0  0  0  0  0  0  0  0  0  0
    5.4540    0.9480   -0.5270 C   0  0  0  0  0  0  0  0  0  0  0  0
    5.1400   -0.3280    0.1940 C   0  0  1  0  0  0  0  0  0  0  0  0
    6.3320   -1.2420    0.1950 C   0  0  0  0  0  0  0  0  0  0  0  0
    4.7110    0.0260    1.6190 C   0  0  0  0  0  0  0  0  0  0  0  0
    3.9740   -1.0500   -0.4740 C   0  0  0  0  0  0  0  0  0  0  0  0
  1  2  1  0
  2  3  2  0
  2 14  1  0
  3  4  1  0
  3 11  1  0
  4  5  1  0
  5  6  1  0
  6  7  1  1
  6  8  1  0
  8  9  1  1
  8 10  1  0
 11 12  2  0
 11 13  1  0
 13 14  1  0
 14 15  1  0
 15 16  2  0
 15 24  1  0
 16 17  1  0
 16 18  1  0
 18 19  2  0
 18 20  1  0
 20 21  1  0
 21 22  1  1
 21 23  1  0
 21 24  1  0
M  CHG  1   5   1
M  END
