
     RDKit          3D

 25 26  0  0  0  0  0  0  0  0999 V2000
   -3.6630    1.1320    0.8810 C   0  0  0  0  0  0  0  0  0  0  0  0
   -3.6620    0.8040   -0.5950 C   0  0  2  0  0  0  0  0  0  0  0  0
   -5.1060    0.5510   -0.9870 C   0  0  0  0  0  0  0  0  0  0  0  0
   -2.8940   -0.4340   -0.9060 C   0  0  0  0  0  0  0  0  0  0  0  0
   -1.4230   -0.3450   -0.4980 C   0  0  2  0  0  0  0  0  0  0  0  0
   -0.8540    0.7570   -1.2290 N   0  0  0  0  0  0  0  0  0  0  0  0
    0.0530    1.6990   -0.6760 C   0  0  0  0  0  0  0  0  0  0  0  0
    0.9650    2.1190   -1.4680 O   0  0  0  0  0  0  0  0  0  0  0  0
   -0.0100    2.1920    0.7150 C   0  0  0  0  0  0  0  0  0  0  0  0
    1.1520    2.9420    1.0640 N   0  0  0  0  0  0  0  0  0  0  0  0
    2.3970    2.2510    0.9920 C   0  0  0  0  0  0  0  0  0  0  0  0
    2.3990    0.8880    1.6280 C   0  0  0  0  0  0  0  0  0  0  0  0
    2.8460   -0.1160    0.6270 C   0  0  0  0  0  0  0  0  0  0  0  0
    4.0330    0.2300   -0.0400 C   0  0  0  0  0  0  0  0  0  0  0  0
    4.5800   -0.5870   -0.9930 C   0  0  0  0  0  0  0  0  0  0  0  0
    5.7420   -0.2140   -1.6240 F   0  0  0  0  0  0  0  0  0  0  0  0
    3.9440   -1.7660   -1.2920 C   0  0  0  0  0  0  0  0  0  0  0  0
    4.6240   -2.8130   -2.4980 Cl  0  0  0  0  0  0  0  0  0  0  0  0
    2.7680   -2.1050   -0.6290 C   0  0  0  0  0  0  0  0  0  0  0  0
    2.2170   -1.2830    0.3300 C   0  0  0  0  0  0  0  0  0  0  0  0
    0.9670   -1.7000    0.9980 C   0  0  0  0  0  0  0  0  0  0  0  0
    0.0670   -2.3730    0.0470 N   0  0  0  0  0  0  0  0  0  0  0  0
    0.0760   -3.8220    0.0680 C   0  0  0  0  0  0  0  0  0  0  0  0
   -0.7630   -1.6400   -0.8410 C   0  0  0  0  0  0  0  0  0  0  0  0
   -0.9390   -2.1320   -1.9860 O   0  0  0  0  0  0  0  0  0  0  0  0
  2  1  1  1
  2  3  1  0
  2  4  1  0
  5  4  1  6
  5  6  1  0
  5 24  1  0
  6  7  1  0
  7  8  2  0
  7  9  1  0
  9 10  1  0
 10 11  1  0
 11 12  1  0
 12 13  1  0
 13 14  2  0
 13 20  1  0
 14 15  1  0
 15 16  1  0
 15 17  2  0
 17 18  1  0
 17 19  1  0
 19 20  2  0
 20 21  1  0
 21 22  1  0
 22 23  1  0
 22 24  1  0
 24 25  2  0
M  CHG  1  10   1
M  END
