
     RDKit          3D

 25 27  0  0  0  0  0  0  0  0999 V2000
   -6.0850   -1.8600    1.0190 C   0  0  0  0  0  0  0  0  0  0  0  0
   -4.6420   -2.2980    0.9580 C   0  0  0  0  0  0  0  0  0  0  0  0
   -3.9710   -1.4390    0.0460 O   0  0  0  0  0  0  0  0  0  0  0  0
   -3.8420   -0.0850    0.1810 C   0  0  0  0  0  0  0  0  0  0  0  0
   -4.3490    0.4710    1.1950 O   0  0  0  0  0  0  0  0  0  0  0  0
   -3.1490    0.7860   -0.7800 C   0  0  0  0  0  0  0  0  0  0  0  0
   -3.7720    1.3950   -1.8790 C   0  0  0  0  0  0  0  0  0  0  0  0
   -5.2320    1.1960   -2.1920 C   0  0  0  0  0  0  0  0  0  0  0  0
   -2.8680    2.1140   -2.5140 N   0  0  0  0  0  0  0  0  0  0  0  0
   -1.6770    2.0070   -1.8850 C   0  0  0  0  0  0  0  0  0  0  0  0
   -1.8300    1.1770   -0.7930 C   0  0  0  0  0  0  0  0  0  0  0  0
   -0.7040    0.8460    0.1210 C   0  0  0  0  0  0  0  0  0  0  0  0
    0.5270    1.4810   -0.2320 N   0  0  0  0  0  0  0  0  0  0  0  0
    1.6850    1.2320    0.6140 C   0  0  0  0  0  0  0  0  0  0  0  0
    2.1390   -0.1910    0.4450 C   0  0  0  0  0  0  0  0  0  0  0  0
    3.3250   -0.5360    1.2930 C   0  0  1  0  0  0  0  0  0  0  0  0
    3.7200   -1.9870    1.0420 C   0  0  0  0  0  0  0  0  0  0  0  0
    4.4080   -2.1240   -0.3040 C   0  0  0  0  0  0  0  0  0  0  0  0
    5.5720   -1.1850   -0.4100 C   0  0  1  0  0  0  0  0  0  0  0  0
    6.4220   -1.4390    0.6740 F   0  0  0  0  0  0  0  0  0  0  0  0
    6.4650   -1.4460   -1.9250 Cl  0  0  0  0  0  0  0  0  0  0  0  0
    5.0710    0.2290   -0.3070 C   0  0  0  0  0  0  0  0  0  0  0  0
    4.4950    0.3820    1.0970 C   0  0  0  0  0  0  0  0  0  0  0  0
    0.6950    2.2580   -1.2370 C   0  0  0  0  0  0  0  0  0  0  0  0
   -0.3850    2.5570   -2.1070 N   0  0  0  0  0  0  0  0  0  0  0  0
  1  2  1  0
  2  3  1  0
  3  4  1  0
  4  5  2  0
  4  6  1  0
  6  7  2  0
  6 11  1  0
  7  8  1  0
  7  9  1  0
  9 10  1  0
 10 11  2  0
 10 25  1  0
 11 12  1  0
 12 13  1  0
 13 14  1  0
 13 24  2  0
 14 15  1  0
 16 15  1  6
 16 17  1  0
 16 23  1  0
 17 18  1  0
 18 19  1  0
 19 20  1  1
 19 21  1  0
 19 22  1  0
 22 23  1  0
 24 25  1  0
M  CHG  1  13   1
M  END
