
     RDKit          3D

 12 12  0  0  0  0  0  0  0  0999 V2000
   -2.2260   -1.2870    0.1240 C   0  0  0  0  0  0  0  0  0  0  0  0
   -1.5240    0.0150    0.1770 C   0  0  0  0  0  0  0  0  0  0  0  0
   -2.3000    1.2550    0.1350 C   0  0  0  0  0  0  0  0  0  0  0  0
   -0.2190    0.0290    0.2540 C   0  0  0  0  0  0  0  0  0  0  0  0
    0.4450   -1.2780    0.2800 C   0  0  0  0  0  0  0  0  0  0  0  0
    1.6930   -1.5690   -0.0440 C   0  0  0  0  0  0  0  0  0  0  0  0
    2.7860   -0.7110   -0.5200 C   0  0  0  0  0  0  0  0  0  0  0  0
    2.8490    0.6060   -0.6000 C   0  0  0  0  0  0  0  0  0  0  0  0
    1.8120    1.5880   -0.2230 C   0  0  0  0  0  0  0  0  0  0  0  0
    2.0830    2.8080   -0.3730 O   0  0  0  0  0  0  0  0  0  0  0  0
    0.4860    1.3030    0.3130 C   0  0  0  0  0  0  0  0  0  0  0  0
   -0.1400    2.2390    0.8940 O   0  0  0  0  0  0  0  0  0  0  0  0
  1  2  1  0
  2  3  1  0
  2  4  2  3
  4  5  1  0
  4 11  1  0
  5  6  2  0
  6  7  1  0
  7  8  2  0
  8  9  1  0
  9 10  2  0
  9 11  1  0
 11 12  2  0
M  END
