
     RDKit          3D

 19 18  0  0  0  0  0  0  0  0999 V2000
    1.9240    1.9860    0.4810 C   0  0  0  0  0  0  0  0  0  0  0  0
    0.7870    1.1710    0.8510 N   0  0  0  0  0  0  0  0  0  0  0  0
    0.2510    0.4700   -0.2640 C   0  0  1  0  0  0  0  0  0  0  0  0
   -0.0100    1.4170   -1.4370 C   0  0  0  0  0  0  0  0  0  0  0  0
   -0.9870    2.4950   -1.0690 C   0  0  0  0  0  0  0  0  0  0  0  0
   -1.1690    3.3060   -2.1760 O   0  0  0  0  0  0  0  0  0  0  0  0
    1.1060   -0.6270   -0.8030 C   0  0  0  0  0  0  0  0  0  0  0  0
    1.4330   -1.7410    0.1290 C   0  0  0  0  0  0  0  0  0  0  0  0
    2.1630   -1.4250    1.2650 O   0  0  0  0  0  0  0  0  0  0  0  0
    3.4590   -0.8980    1.2620 C   0  0  0  0  0  0  0  0  0  0  0  0
    4.1230   -0.6070    2.4770 N   0  0  0  0  0  0  0  0  0  0  0  0
    3.9760   -0.7070    0.1310 O   0  0  0  0  0  0  0  0  0  0  0  0
   -1.1000   -0.0870    0.0800 C   0  0  0  0  0  0  0  0  0  0  0  0
   -1.5800    0.1110    1.2320 O   0  0  0  0  0  0  0  0  0  0  0  0
   -1.8660   -0.8140   -0.7910 O   0  0  0  0  0  0  0  0  0  0  0  0
   -3.1220   -1.3650   -0.5610 C   0  0  0  0  0  0  0  0  0  0  0  0
   -3.1860   -2.3330    0.5300 C   0  0  0  0  0  0  0  0  0  0  0  0
   -4.3970   -2.9690    0.8690 N   0  0  0  0  0  0  0  0  0  0  0  0
   -2.1670   -2.6180    1.1860 O   0  0  0  0  0  0  0  0  0  0  0  0
  1  2  1  0
  2  3  1  0
  3  4  1  6
  3  7  1  0
  3 13  1  0
  4  5  1  0
  5  6  1  0
  7  8  1  0
  8  9  1  0
  9 10  1  0
 10 11  1  0
 10 12  2  0
 13 14  2  0
 13 15  1  0
 15 16  1  0
 16 17  1  0
 17 18  1  0
 17 19  2  0
M  CHG  1   2   1
M  END
