
     RDKit          3D

 20 19  0  0  0  0  0  0  0  0999 V2000
    5.2750    1.1220    0.8340 C   0  0  0  0  0  0  0  0  0  0  0  0
    4.5990    0.1430   -0.1140 C   0  0  2  0  0  0  0  0  0  0  0  0
    3.3630   -0.2000    0.4680 O   0  0  0  0  0  0  0  0  0  0  0  0
    2.1980    0.1110   -0.1910 C   0  0  0  0  0  0  0  0  0  0  0  0
    2.2360    0.6880   -1.2880 O   0  0  0  0  0  0  0  0  0  0  0  0
    0.9090   -0.2460    0.4150 C   0  0  0  0  0  0  0  0  0  0  0  0
   -0.1010    0.1760   -0.4460 O   0  0  0  0  0  0  0  0  0  0  0  0
   -1.3740   -0.1180    0.0400 C   0  0  0  0  0  0  0  0  0  0  0  0
   -2.3520    0.3980   -1.0000 C   0  0  0  0  0  0  0  0  0  0  0  0
   -3.6340    0.1460   -0.5940 O   0  0  0  0  0  0  0  0  0  0  0  0
   -4.0280    0.7230    0.5840 C   0  0  2  0  0  0  0  0  0  0  0  0
   -4.4120   -0.3420    1.5650 C   0  0  0  0  0  0  0  0  0  0  0  0
   -4.3330   -1.7100    1.1970 N   0  0  0  0  0  0  0  0  0  0  0  0
   -4.8090   -0.0700    2.7230 O   0  0  0  0  0  0  0  0  0  0  0  0
   -5.1640    1.6390    0.3220 C   0  0  0  0  0  0  0  0  0  0  0  0
   -5.6620    1.7950   -0.9880 N   0  0  0  0  0  0  0  0  0  0  0  0
   -5.6710    2.2700    1.2900 O   0  0  0  0  0  0  0  0  0  0  0  0
    5.4480   -1.0600   -0.3400 C   0  0  0  0  0  0  0  0  0  0  0  0
    4.9500   -2.0660   -1.2040 N   0  0  0  0  0  0  0  0  0  0  0  0
    6.7160   -1.2120    0.2810 S   0  0  0  0  0  0  0  0  0  0  0  0
  2  1  1  1
  2  3  1  0
  2 18  1  0
  3  4  1  0
  4  5  2  0
  4  6  1  0
  6  7  1  0
  7  8  1  0
  8  9  1  0
  9 10  1  0
 11 10  1  6
 11 12  1  0
 11 15  1  0
 12 13  1  0
 12 14  2  0
 15 16  1  0
 15 17  2  0
 18 19  1  0
 18 20  2  0
M  CHG  1  19   1
M  END
