
     RDKit          3D

 19 18  0  0  0  0  0  0  0  0999 V2000
   -7.6080    0.3840   -0.1410 C   0  0  0  0  0  0  0  0  0  0  0  0
   -6.2660    0.5920    0.2520 O   0  0  0  0  0  0  0  0  0  0  0  0
   -5.3670   -0.4210    0.4780 C   0  0  0  0  0  0  0  0  0  0  0  0
   -5.7670   -1.5980    0.3210 O   0  0  0  0  0  0  0  0  0  0  0  0
   -3.9380   -0.1990    0.8990 C   0  0  0  0  0  0  0  0  0  0  0  0
   -3.0690   -0.6290   -0.2840 C   0  0  0  0  0  0  0  0  0  0  0  0
   -1.7010   -0.5080   -0.0370 O   0  0  0  0  0  0  0  0  0  0  0  0
   -1.0280    0.6470    0.2500 C   0  0  0  0  0  0  0  0  0  0  0  0
   -1.6070    1.7260    0.3030 O   0  0  0  0  0  0  0  0  0  0  0  0
    0.4700    0.5430    0.5060 C   0  0  1  0  0  0  0  0  0  0  0  0
    0.6510    0.2830    1.8700 N   0  0  0  0  0  0  0  0  0  0  0  0
    0.9950   -0.5230   -0.3940 C   0  0  0  0  0  0  0  0  0  0  0  0
    2.6110   -1.0780   -0.4230 S   0  0  0  0  0  0  0  0  0  0  0  0
    4.0750   -0.1940   -0.6000 C   0  0  2  0  0  0  0  0  0  0  0  0
    4.9450   -0.1560    0.6880 C   0  0  0  0  0  0  0  0  0  0  0  0
    5.3380   -1.5080    1.0420 N   0  0  0  0  0  0  0  0  0  0  0  0
    3.8890    1.2550   -0.8820 C   0  0  0  0  0  0  0  0  0  0  0  0
    4.3620    1.7990   -2.0880 N   0  0  0  0  0  0  0  0  0  0  0  0
    3.3090    1.9670   -0.0290 O   0  0  0  0  0  0  0  0  0  0  0  0
  1  2  1  0
  2  3  1  0
  3  4  2  0
  3  5  1  0
  5  6  1  0
  6  7  1  0
  7  8  1  0
  8  9  2  0
  8 10  1  0
 10 11  1  1
 10 12  1  0
 12 13  1  0
 13 14  1  0
 14 15  1  1
 14 17  1  0
 15 16  1  0
 17 18  1  0
 17 19  2  0
M  CHG  1  16   1
M  END
