
     RDKit          3D

 20 19  0  0  0  0  0  0  0  0999 V2000
    5.3240    0.0790    2.0750 N   0  0  0  0  0  0  0  0  0  0  0  0
    4.7320   -0.5540    0.9450 C   0  0  0  0  0  0  0  0  0  0  0  0
    4.9300   -1.7770    0.8070 O   0  0  0  0  0  0  0  0  0  0  0  0
    3.9190    0.1950   -0.0290 C   0  0  0  0  0  0  0  0  0  0  0  0
    3.4440   -0.6220   -1.0410 O   0  0  0  0  0  0  0  0  0  0  0  0
    2.6400   -1.6470   -0.5260 C   0  0  1  0  0  0  0  0  0  0  0  0
    1.2240   -1.3560   -1.0710 C   0  0  0  0  0  0  0  0  0  0  0  0
    0.8890   -0.0850   -0.5790 O   0  0  0  0  0  0  0  0  0  0  0  0
   -0.3370    0.4660   -0.9000 C   0  0  0  0  0  0  0  0  0  0  0  0
   -1.1160   -0.1970   -1.6250 O   0  0  0  0  0  0  0  0  0  0  0  0
   -0.7620    2.0960   -0.2700 S   0  0  0  0  0  0  0  0  0  0  0  0
   -2.4120    2.5090   -0.8640 C   0  0  0  0  0  0  0  0  0  0  0  0
   -3.4270    1.6010   -0.2590 C   0  0  0  0  0  0  0  0  0  0  0  0
   -3.7880    0.6140   -0.8700 O   0  0  0  0  0  0  0  0  0  0  0  0
   -4.0160    1.8590    1.0760 C   0  0  0  0  0  0  0  0  0  0  0  0
   -5.0590    0.8070    1.3670 C   0  0  0  0  0  0  0  0  0  0  0  0
   -6.1340    0.8630    0.3840 N   0  0  0  0  0  0  0  0  0  0  0  0
    3.0910   -2.9460   -1.0670 C   0  0  0  0  0  0  0  0  0  0  0  0
    4.1890   -3.0580   -1.9560 N   0  0  0  0  0  0  0  0  0  0  0  0
    2.4830   -3.9860   -0.7260 O   0  0  0  0  0  0  0  0  0  0  0  0
  1  2  1  0
  2  3  2  0
  2  4  1  0
  4  5  1  0
  5  6  1  0
  6  7  1  6
  6 18  1  0
  7  8  1  0
  8  9  1  0
  9 10  2  0
  9 11  1  0
 11 12  1  0
 12 13  1  0
 13 14  2  0
 13 15  1  0
 15 16  1  0
 16 17  1  0
 18 19  1  0
 18 20  2  0
M  CHG  1  17   1
M  END
