
     RDKit          3D

 20 19  0  0  0  0  0  0  0  0999 V2000
    1.3110   -3.2570    1.8340 N   0  0  0  0  0  0  0  0  0  0  0  0
    0.6210   -2.1000    1.3540 C   0  0  0  0  0  0  0  0  0  0  0  0
   -0.6240   -2.1450    1.1950 O   0  0  0  0  0  0  0  0  0  0  0  0
    1.3410   -0.8430    1.0380 C   0  0  1  0  0  0  0  0  0  0  0  0
    2.3900   -1.1120   -0.0430 C   0  0  0  0  0  0  0  0  0  0  0  0
    3.1010    0.1930   -0.3350 C   0  0  0  0  0  0  0  0  0  0  0  0
    4.1340    0.0180   -1.3730 C   0  0  0  0  0  0  0  0  0  0  0  0
    4.9040    1.1500   -1.7740 N   0  0  0  0  0  0  0  0  0  0  0  0
    4.3670   -1.2570   -1.9730 S   0  0  0  0  0  0  0  0  0  0  0  0
    0.4010    0.1590    0.5740 N   0  0  0  0  0  0  0  0  0  0  0  0
    0.2020    1.3930    1.2070 C   0  0  0  0  0  0  0  0  0  0  0  0
    0.9120    1.6140    2.2480 O   0  0  0  0  0  0  0  0  0  0  0  0
   -0.7160    2.4620    0.8220 C   0  0  0  0  0  0  0  0  0  0  0  0
   -1.5490    2.1730   -0.2770 O   0  0  0  0  0  0  0  0  0  0  0  0
   -2.4950    1.1410   -0.2800 C   0  0  0  0  0  0  0  0  0  0  0  0
   -2.6000    0.4550    0.7470 O   0  0  0  0  0  0  0  0  0  0  0  0
   -3.2950    0.8650   -1.3540 O   0  0  0  0  0  0  0  0  0  0  0  0
   -4.2700   -0.1440   -1.4440 C   0  0  0  0  0  0  0  0  0  0  0  0
   -5.3260    0.1060   -0.3980 C   0  0  0  0  0  0  0  0  0  0  0  0
   -6.3170   -0.8800   -0.4580 O   0  0  0  0  0  0  0  0  0  0  0  0
  1  2  1  0
  2  3  2  0
  2  4  1  0
  4  5  1  6
  4 10  1  0
  5  6  1  0
  6  7  1  0
  7  8  1  0
  7  9  2  0
 10 11  1  0
 11 12  2  0
 11 13  1  0
 13 14  1  0
 14 15  1  0
 15 16  2  0
 15 17  1  0
 17 18  1  0
 18 19  1  0
 19 20  1  0
M  CHG  1   8   1
M  END
