
     RDKit          3D

 23 24  0  0  0  0  0  0  0  0999 V2000
    6.1530   -0.7300    1.1670 C   0  0  0  0  0  0  0  0  0  0  0  0
    5.5530   -0.1820   -0.0750 C   0  0  0  0  0  0  0  0  0  0  0  0
    6.3260    0.3460   -0.9120 O   0  0  0  0  0  0  0  0  0  0  0  0
    4.1250   -0.2580   -0.3100 C   0  0  0  0  0  0  0  0  0  0  0  0
    3.5830    0.2480   -1.4790 C   0  0  0  0  0  0  0  0  0  0  0  0
    2.2110    0.1840   -1.7250 C   0  0  0  0  0  0  0  0  0  0  0  0
    1.3830   -0.3880   -0.8000 C   0  0  0  0  0  0  0  0  0  0  0  0
   -0.0800   -0.4450   -1.0840 C   0  0  0  0  0  0  0  0  0  0  0  0
   -0.7310    0.6390   -0.2630 C   0  0  0  0  0  0  0  0  0  0  0  0
   -0.0140    1.6730    0.3570 C   0  0  0  0  0  0  0  0  0  0  0  0
   -0.9350    2.4370    1.0070 C   0  0  0  0  0  0  0  0  0  0  0  0
   -2.1620    1.9540    0.8350 N   0  0  0  0  0  0  0  0  0  0  0  0
   -2.0500    0.8280    0.0420 C   0  0  0  0  0  0  0  0  0  0  0  0
   -3.2150    0.0520   -0.3720 C   0  0  0  0  0  0  0  0  0  0  0  0
   -3.1480   -1.0100   -1.3680 C   0  0  0  0  0  0  0  0  0  0  0  0
   -4.3890    0.3490    0.1440 C   0  0  0  0  0  0  0  0  0  0  0  0
   -5.5870   -0.4180   -0.2480 C   0  0  0  0  0  0  0  0  0  0  0  0
   -6.7670   -0.1150    0.2640 C   0  0  0  0  0  0  0  0  0  0  0  0
   -7.8460   -0.8240   -0.1050 F   0  0  0  0  0  0  0  0  0  0  0  0
   -6.9200    0.8900    1.1500 F   0  0  0  0  0  0  0  0  0  0  0  0
    1.8860   -0.8960    0.3610 C   0  0  0  0  0  0  0  0  0  0  0  0
    1.0760   -1.5310    1.4170 C   0  0  0  0  0  0  0  0  0  0  0  0
    3.2690   -0.8260    0.6010 C   0  0  0  0  0  0  0  0  0  0  0  0
  1  2  1  0
  2  3  2  0
  2  4  1  0
  4  5  2  0
  4 23  1  0
  5  6  1  0
  6  7  2  0
  7  8  1  0
  7 21  1  0
  8  9  1  0
  9 10  1  0
  9 13  2  0
 10 11  2  0
 11 12  1  0
 12 13  1  0
 13 14  1  0
 14 15  1  0
 14 16  2  3
 16 17  1  0
 17 18  2  3
 18 19  1  0
 18 20  1  0
 21 22  1  0
 21 23  2  0
M  END
