
     RDKit          3D

 24 26  0  0  0  0  0  0  0  0999 V2000
    2.2500    3.0770    0.0020 C   0  0  0  0  0  0  0  0  0  0  0  0
    2.5780    1.6370   -0.0270 C   0  0  0  0  0  0  0  0  0  0  0  0
    3.8070    1.2290    0.4130 C   0  0  0  0  0  0  0  0  0  0  0  0
    4.1020   -0.1170    0.3730 C   0  0  0  0  0  0  0  0  0  0  0  0
    3.2050   -1.0410   -0.0910 C   0  0  0  0  0  0  0  0  0  0  0  0
    1.9450   -0.6040   -0.5410 C   0  0  0  0  0  0  0  0  0  0  0  0
    1.6130    0.7200   -0.5160 C   0  0  0  0  0  0  0  0  0  0  0  0
    0.3480    1.2400   -0.9770 C   0  0  0  0  0  0  0  0  0  0  0  0
    0.4510    2.2560   -1.7840 O   0  0  0  0  0  0  0  0  0  0  0  0
   -0.9990    0.8200   -0.6760 C   0  0  0  0  0  0  0  0  0  0  0  0
   -1.3520   -0.4170   -0.2420 C   0  0  0  0  0  0  0  0  0  0  0  0
   -2.6880   -0.7430    0.0600 C   0  0  0  0  0  0  0  0  0  0  0  0
   -3.6940    0.1880   -0.0740 C   0  0  0  0  0  0  0  0  0  0  0  0
   -5.0670   -0.1190    0.2390 C   0  0  0  0  0  0  0  0  0  0  0  0
   -5.4280   -1.3130    0.6370 C   0  0  0  0  0  0  0  0  0  0  0  0
   -6.8880   -1.5680    0.9510 C   0  0  1  0  0  0  0  0  0  0  0  0
   -6.9450   -2.0360    2.2710 F   0  0  0  0  0  0  0  0  0  0  0  0
   -7.6180   -0.4130    0.9230 F   0  0  0  0  0  0  0  0  0  0  0  0
   -7.4000   -2.5490    0.1350 F   0  0  0  0  0  0  0  0  0  0  0  0
   -3.2930    1.4370   -0.5190 C   0  0  0  0  0  0  0  0  0  0  0  0
   -2.0090    1.7900   -0.8220 C   0  0  0  0  0  0  0  0  0  0  0  0
    3.7720   -2.3500    0.0020 N   0  0  0  0  0  0  0  0  0  0  0  0
    5.1960   -2.1950    0.1960 C   0  0  0  0  0  0  0  0  0  0  0  0
    5.3560   -0.8280    0.7770 C   0  0  0  0  0  0  0  0  0  0  0  0
  1  2  1  0
  2  3  2  0
  2  7  1  0
  3  4  1  0
  4  5  2  0
  4 24  1  0
  5  6  1  0
  5 22  1  0
  6  7  2  0
  7  8  1  0
  8  9  2  0
  8 10  1  0
 10 11  2  0
 10 21  1  0
 11 12  1  0
 12 13  2  0
 13 14  1  0
 13 20  1  0
 14 15  2  3
 15 16  1  0
 16 17  1  1
 16 18  1  0
 16 19  1  0
 20 21  2  0
 22 23  1  0
 23 24  1  0
M  END
