
     RDKit          3D

 24 25  0  0  0  0  0  0  0  0999 V2000
    4.8930   -1.6900    0.8290 C   0  0  0  0  0  0  0  0  0  0  0  0
    5.4090   -0.7510    0.0650 C   0  0  0  0  0  0  0  0  0  0  0  0
    4.6990   -0.0130   -0.9480 C   0  0  0  0  0  0  0  0  0  0  0  0
    5.3320    0.9010   -1.6540 C   0  0  0  0  0  0  0  0  0  0  0  0
    6.7920    1.1920   -1.4210 C   0  0  2  0  0  0  0  0  0  0  0  0
    7.2040    2.2180   -2.2660 F   0  0  0  0  0  0  0  0  0  0  0  0
    7.5870    0.1130   -1.6460 F   0  0  0  0  0  0  0  0  0  0  0  0
    6.9690    1.6620   -0.1400 F   0  0  0  0  0  0  0  0  0  0  0  0
    3.3180   -0.2280   -1.2350 N   0  0  0  0  0  0  0  0  0  0  0  0
    2.2620   -0.0140   -0.3260 C   0  0  0  0  0  0  0  0  0  0  0  0
    2.5260    0.3990    0.8250 O   0  0  0  0  0  0  0  0  0  0  0  0
    0.8780   -0.2600   -0.6870 C   0  0  0  0  0  0  0  0  0  0  0  0
   -0.0800   -0.0420    0.2090 C   0  0  0  0  0  0  0  0  0  0  0  0
   -1.4900   -0.2580   -0.0590 C   0  0  0  0  0  0  0  0  0  0  0  0
   -1.9080   -0.7390   -1.3130 C   0  0  0  0  0  0  0  0  0  0  0  0
   -3.2320   -0.9630   -1.6000 C   0  0  0  0  0  0  0  0  0  0  0  0
   -3.7040   -1.4700   -2.9150 C   0  0  0  0  0  0  0  0  0  0  0  0
   -4.1570   -0.7010   -0.6150 C   0  0  0  0  0  0  0  0  0  0  0  0
   -3.7760   -0.2270    0.6290 C   0  0  0  0  0  0  0  0  0  0  0  0
   -2.4170   -0.0010    0.9120 C   0  0  0  0  0  0  0  0  0  0  0  0
   -2.0860    0.5130    2.2490 C   0  0  0  0  0  0  0  0  0  0  0  0
   -3.0280    1.7170    2.4690 C   0  0  0  0  0  0  0  0  0  0  0  0
   -4.4650    1.3440    2.4090 C   0  0  0  0  0  0  0  0  0  0  0  0
   -4.7370    0.0530    1.7100 C   0  0  0  0  0  0  0  0  0  0  0  0
  1  2  2  0
  2  3  1  0
  3  4  2  3
  3  9  1  0
  4  5  1  0
  5  6  1  6
  5  7  1  0
  5  8  1  0
  9 10  1  0
 10 11  2  0
 10 12  1  0
 12 13  2  3
 13 14  1  0
 14 15  2  0
 14 20  1  0
 15 16  1  0
 16 17  1  0
 16 18  2  0
 18 19  1  0
 19 20  2  0
 19 24  1  0
 20 21  1  0
 21 22  1  0
 22 23  1  0
 23 24  1  0
M  END
