
     RDKit          3D

 24 25  0  0  0  0  0  0  0  0999 V2000
   -3.3370    2.8900    0.6970 C   0  0  0  0  0  0  0  0  0  0  0  0
   -2.5830    2.0640   -0.3820 C   0  0  0  0  0  0  0  0  0  0  0  0
   -2.9180    0.6420   -0.3450 C   0  0  0  0  0  0  0  0  0  0  0  0
   -4.3260    0.3710   -0.5540 C   0  0  0  0  0  0  0  0  0  0  0  0
   -4.7440   -0.9170   -0.3450 C   0  0  0  0  0  0  0  0  0  0  0  0
   -3.8960   -1.9420    0.0600 C   0  0  0  0  0  0  0  0  0  0  0  0
   -4.3710   -3.2650    0.3360 C   0  0  0  0  0  0  0  0  0  0  0  0
   -2.5020   -1.6350    0.2400 C   0  0  0  0  0  0  0  0  0  0  0  0
   -2.0480   -0.3600    0.0330 C   0  0  0  0  0  0  0  0  0  0  0  0
   -0.6610   -0.1470   -0.1160 C   0  0  0  0  0  0  0  0  0  0  0  0
   -0.1660   -0.6150   -1.2910 O   0  0  0  0  0  0  0  0  0  0  0  0
    0.2500    0.4320    0.7290 N   0  0  0  0  0  0  0  0  0  0  0  0
    1.6490    0.6270    0.4270 C   0  0  0  0  0  0  0  0  0  0  0  0
    2.1250    1.9900    0.7490 C   0  0  0  0  0  0  0  0  0  0  0  0
    3.3260    2.4240    0.7760 C   0  0  0  0  0  0  0  0  0  0  0  0
    4.4460    1.4090    0.4690 C   0  0  0  0  0  0  0  0  0  0  0  0
    3.8610    0.1400    0.1550 C   0  0  0  0  0  0  0  0  0  0  0  0
    5.0200   -0.6680   -0.0120 C   0  0  0  0  0  0  0  0  0  0  0  0
    6.1450   -1.4670   -0.1810 C   0  0  0  0  0  0  0  0  0  0  0  0
    7.3130   -2.3130   -0.3770 C   0  0  2  0  0  0  0  0  0  0  0  0
    7.5140   -3.0280    0.7360 F   0  0  0  0  0  0  0  0  0  0  0  0
    8.3320   -1.2080   -0.3780 F   0  0  0  0  0  0  0  0  0  0  0  0
    7.4090   -2.9360   -1.5410 F   0  0  0  0  0  0  0  0  0  0  0  0
    2.6220   -0.1930    0.1410 C   0  0  0  0  0  0  0  0  0  0  0  0
  1  2  1  0
  2  3  1  0
  3  4  2  0
  3  9  1  0
  4  5  1  0
  5  6  2  0
  6  7  1  0
  6  8  1  0
  8  9  2  0
  9 10  1  0
 10 11  2  0
 10 12  1  0
 12 13  1  0
 13 14  2  0
 13 24  1  0
 14 15  1  0
 15 16  2  0
 16 17  1  0
 17 18  1  0
 17 24  2  0
 18 19  3  0
 19 20  1  0
 20 21  1  1
 20 22  1  0
 20 23  1  0
M  END
