
     RDKit          3D

 24 25  0  0  0  0  0  0  0  0999 V2000
    4.7570    1.4120    1.2930 C   0  0  0  0  0  0  0  0  0  0  0  0
    3.8740    0.4800    0.5450 C   0  0  0  0  0  0  0  0  0  0  0  0
    2.4800    0.6430    0.6120 C   0  0  0  0  0  0  0  0  0  0  0  0
    1.6060   -0.1740   -0.0490 C   0  0  0  0  0  0  0  0  0  0  0  0
    0.1930   -0.0820   -0.0470 N   0  0  0  0  0  0  0  0  0  0  0  0
   -0.5720    0.9310    0.5320 C   0  0  0  0  0  0  0  0  0  0  0  0
    0.0230    1.8780    1.1200 O   0  0  0  0  0  0  0  0  0  0  0  0
   -2.0690    0.9930    0.5150 C   0  0  0  0  0  0  0  0  0  0  0  0
   -2.7790    0.0760   -0.0610 C   0  0  0  0  0  0  0  0  0  0  0  0
   -4.2200   -0.0300   -0.1870 C   0  0  0  0  0  0  0  0  0  0  0  0
   -4.9750    0.9250   -0.8140 C   0  0  0  0  0  0  0  0  0  0  0  0
   -6.3580    0.8260   -0.9180 C   0  0  0  0  0  0  0  0  0  0  0  0
   -7.0370    1.8090   -1.5510 F   0  0  0  0  0  0  0  0  0  0  0  0
   -6.9690   -0.2760   -0.3660 C   0  0  0  0  0  0  0  0  0  0  0  0
   -6.2290   -1.2720    0.2810 C   0  0  0  0  0  0  0  0  0  0  0  0
   -4.8530   -1.1300    0.3600 C   0  0  0  0  0  0  0  0  0  0  0  0
   -4.1240   -2.0870    0.9840 F   0  0  0  0  0  0  0  0  0  0  0  0
   -2.7130    2.1040    1.2740 C   0  0  0  0  0  0  0  0  0  0  0  0
   -4.0510    1.9490    1.3120 F   0  0  0  0  0  0  0  0  0  0  0  0
    2.2040   -1.1940   -0.8030 C   0  0  0  0  0  0  0  0  0  0  0  0
    3.5690   -1.3560   -0.8700 C   0  0  0  0  0  0  0  0  0  0  0  0
    4.1700   -2.4490   -1.6800 C   0  0  0  0  0  0  0  0  0  0  0  0
    4.4170   -0.5180   -0.1950 C   0  0  0  0  0  0  0  0  0  0  0  0
    5.8970   -0.6550   -0.2380 C   0  0  0  0  0  0  0  0  0  0  0  0
  1  2  1  0
  2  3  2  0
  2 23  1  0
  3  4  1  0
  4  5  1  0
  4 20  2  0
  5  6  1  0
  6  7  2  0
  6  8  1  0
  8  9  2  3
  8 18  1  0
  9 10  1  0
 10 11  2  0
 10 16  1  0
 11 12  1  0
 12 13  1  0
 12 14  2  0
 14 15  1  0
 15 16  2  0
 16 17  1  0
 18 19  1  0
 20 21  1  0
 21 22  1  0
 21 23  2  0
 23 24  1  0
M  END
