
     RDKit          3D

 24 25  0  0  0  0  0  0  0  0999 V2000
   -3.8350   -1.5860   -2.1840 C   0  0  0  0  0  0  0  0  0  0  0  0
   -4.0650   -0.4080   -1.2710 C   0  0  2  0  0  0  0  0  0  0  0  0
   -5.2540   -0.6790   -0.3240 C   0  0  0  0  0  0  0  0  0  0  0  0
   -4.4260    0.7940   -2.0800 C   0  0  0  0  0  0  0  0  0  0  0  0
   -2.8590   -0.1990   -0.4140 C   0  0  0  0  0  0  0  0  0  0  0  0
   -2.2510    1.0010   -0.2380 C   0  0  0  0  0  0  0  0  0  0  0  0
   -1.1320    1.1280    0.5900 C   0  0  0  0  0  0  0  0  0  0  0  0
   -0.6040    0.0460    1.2550 C   0  0  0  0  0  0  0  0  0  0  0  0
    0.5450    0.1920    2.1400 C   0  0  0  0  0  0  0  0  0  0  0  0
    1.8230    0.3820    1.5500 N   0  0  0  0  0  0  0  0  0  0  0  0
    2.1350    0.6160    0.1850 C   0  0  0  0  0  0  0  0  0  0  0  0
    1.2040    0.6770   -0.6480 O   0  0  0  0  0  0  0  0  0  0  0  0
    3.5080    0.7920   -0.2520 C   0  0  0  0  0  0  0  0  0  0  0  0
    3.9910    2.0650   -0.5930 C   0  0  0  0  0  0  0  0  0  0  0  0
    5.3210    2.2840   -0.9340 C   0  0  0  0  0  0  0  0  0  0  0  0
    6.1970    1.2230   -0.9400 C   0  0  0  0  0  0  0  0  0  0  0  0
    5.7410   -0.0300   -0.6100 C   0  0  0  0  0  0  0  0  0  0  0  0
    4.3890   -0.2420   -0.2680 C   0  0  0  0  0  0  0  0  0  0  0  0
    3.9790   -1.6260   -0.0080 C   0  0  1  0  0  0  0  0  0  0  0  0
    3.0300   -1.9230   -1.0170 F   0  0  0  0  0  0  0  0  0  0  0  0
    5.0310   -2.5200   -0.2580 F   0  0  0  0  0  0  0  0  0  0  0  0
    3.3780   -1.8660    1.1750 F   0  0  0  0  0  0  0  0  0  0  0  0
   -1.2440   -1.1810    1.0580 C   0  0  0  0  0  0  0  0  0  0  0  0
   -2.3440   -1.2970    0.2450 C   0  0  0  0  0  0  0  0  0  0  0  0
  2  1  1  6
  2  3  1  0
  2  4  1  0
  2  5  1  0
  5  6  2  0
  5 24  1  0
  6  7  1  0
  7  8  2  0
  8  9  1  0
  8 23  1  0
  9 10  1  0
 10 11  1  0
 11 12  2  0
 11 13  1  0
 13 14  2  0
 13 18  1  0
 14 15  1  0
 15 16  2  0
 16 17  1  0
 17 18  2  0
 18 19  1  0
 19 20  1  6
 19 21  1  0
 19 22  1  0
 23 24  2  0
M  END
