
     RDKit          3D

 23 24  0  0  0  0  0  0  0  0999 V2000
    1.7070   -1.5310   -1.9470 C   0  0  0  0  0  0  0  0  0  0  0  0
    1.5330   -0.1920   -1.3910 C   0  0  0  0  0  0  0  0  0  0  0  0
    2.5660    0.8030   -1.4230 N   0  0  0  0  0  0  0  0  0  0  0  0
    3.6630    0.7600   -0.5270 C   0  0  0  0  0  0  0  0  0  0  0  0
    3.7380   -0.2690    0.4030 C   0  0  0  0  0  0  0  0  0  0  0  0
    4.7820   -0.3600    1.3000 C   0  0  0  0  0  0  0  0  0  0  0  0
    5.7850    0.5910    1.2820 C   0  0  0  0  0  0  0  0  0  0  0  0
    6.8190    0.4900    2.1780 F   0  0  0  0  0  0  0  0  0  0  0  0
    5.7000    1.6000    0.3610 C   0  0  0  0  0  0  0  0  0  0  0  0
    4.6630    1.7050   -0.5410 C   0  0  0  0  0  0  0  0  0  0  0  0
    4.5760    2.7050   -1.4550 F   0  0  0  0  0  0  0  0  0  0  0  0
    0.3710    0.1920   -0.8060 C   0  0  0  0  0  0  0  0  0  0  0  0
    0.3200    1.5820   -0.2790 C   0  0  0  0  0  0  0  0  0  0  0  0
   -0.7210   -0.7150   -0.7180 C   0  0  0  0  0  0  0  0  0  0  0  0
   -0.5260   -1.9110   -1.2280 O   0  0  0  0  0  0  0  0  0  0  0  0
   -2.0150   -0.5320   -0.1570 C   0  0  0  0  0  0  0  0  0  0  0  0
   -2.4930    0.5790    0.4270 C   0  0  0  0  0  0  0  0  0  0  0  0
   -3.7920    0.6890    0.9650 C   0  0  0  0  0  0  0  0  0  0  0  0
   -4.2440    1.9440    1.5920 C   0  0  0  0  0  0  0  0  0  0  0  0
   -4.6110   -0.4090    0.8830 C   0  0  0  0  0  0  0  0  0  0  0  0
   -4.1870   -1.5820    0.2970 C   0  0  0  0  0  0  0  0  0  0  0  0
   -5.0720   -2.7720    0.2070 C   0  0  0  0  0  0  0  0  0  0  0  0
   -2.9120   -1.6260   -0.2070 C   0  0  0  0  0  0  0  0  0  0  0  0
  1  2  1  0
  2  3  1  0
  2 12  2  3
  3  4  1  0
  4  5  2  0
  4 10  1  0
  5  6  1  0
  6  7  2  0
  7  8  1  0
  7  9  1  0
  9 10  2  0
 10 11  1  0
 12 13  1  0
 12 14  1  0
 14 15  2  0
 14 16  1  0
 16 17  2  0
 16 23  1  0
 17 18  1  0
 18 19  1  0
 18 20  2  0
 20 21  1  0
 21 22  1  0
 21 23  2  0
M  END
