
     RDKit          3D

 24 25  0  0  0  0  0  0  0  0999 V2000
   -5.5630   -1.6650    1.0980 C   0  0  0  0  0  0  0  0  0  0  0  0
   -4.8370   -0.7040    0.5890 C   0  0  0  0  0  0  0  0  0  0  0  0
   -5.4560    0.1710   -0.3350 C   0  0  0  0  0  0  0  0  0  0  0  0
   -4.7890    1.2020   -0.9200 C   0  0  0  0  0  0  0  0  0  0  0  0
   -3.4700    1.4390   -0.6330 C   0  0  0  0  0  0  0  0  0  0  0  0
   -2.7330    2.5690   -1.2730 C   0  0  0  0  0  0  0  0  0  0  0  0
   -2.8420    0.6160    0.2530 C   0  0  0  0  0  0  0  0  0  0  0  0
   -1.4570    0.8840    0.5390 N   0  0  0  0  0  0  0  0  0  0  0  0
   -0.4080    0.3090   -0.2030 C   0  0  0  0  0  0  0  0  0  0  0  0
   -0.7510   -0.4720   -1.1550 O   0  0  0  0  0  0  0  0  0  0  0  0
    1.0270    0.5670    0.0690 C   0  0  0  0  0  0  0  0  0  0  0  0
    1.9160   -0.1900   -0.8940 C   0  0  0  0  0  0  0  0  0  0  0  0
    3.3560    0.0670   -0.6230 C   0  0  0  0  0  0  0  0  0  0  0  0
    4.2030   -0.9050   -0.3060 C   0  0  0  0  0  0  0  0  0  0  0  0
    5.6340   -0.7270   -0.0260 C   0  0  0  0  0  0  0  0  0  0  0  0
    6.1710    0.6210   -0.3900 C   0  0  0  0  0  0  0  0  0  0  0  0
    5.2680    1.3660   -1.3490 C   0  0  0  0  0  0  0  0  0  0  0  0
    3.9010    1.4490   -0.6990 C   0  0  0  0  0  0  0  0  0  0  0  0
   -3.5200   -0.4660    0.8750 C   0  0  0  0  0  0  0  0  0  0  0  0
   -2.7970   -1.1680    1.7000 C   0  0  0  0  0  0  0  0  0  0  0  0
   -3.0520   -2.3220    2.5330 C   0  0  1  0  0  0  0  0  0  0  0  0
   -1.7950   -2.6260    3.2130 F   0  0  0  0  0  0  0  0  0  0  0  0
   -3.8940   -2.1490    3.5940 F   0  0  0  0  0  0  0  0  0  0  0  0
   -3.2500   -3.4730    1.8350 F   0  0  0  0  0  0  0  0  0  0  0  0
  1  2  2  0
  2  3  1  0
  2 19  1  0
  3  4  2  0
  4  5  1  0
  5  6  1  0
  5  7  2  0
  7  8  1  0
  7 19  1  0
  8  9  1  0
  9 10  2  0
  9 11  1  0
 11 12  1  0
 12 13  1  0
 13 14  2  0
 13 18  1  0
 14 15  1  0
 15 16  1  0
 16 17  1  0
 17 18  1  0
 19 20  2  3
 20 21  1  0
 21 22  1  1
 21 23  1  0
 21 24  1  0
M  END
