
     RDKit          3D

 24 25  0  0  0  0  0  0  0  0999 V2000
    3.0360   -2.4810   -1.0730 C   0  0  0  0  0  0  0  0  0  0  0  0
    2.7180   -1.1390   -0.4620 C   0  0  0  0  0  0  0  0  0  0  0  0
    1.4940   -0.5380   -0.5950 C   0  0  0  0  0  0  0  0  0  0  0  0
    1.1690    0.7080   -0.0250 C   0  0  0  0  0  0  0  0  0  0  0  0
   -0.0060    1.1970   -0.2090 O   0  0  0  0  0  0  0  0  0  0  0  0
   -1.2130    1.5550   -0.4870 C   0  0  0  0  0  0  0  0  0  0  0  0
   -2.3890    0.6690   -0.2480 C   0  0  0  0  0  0  0  0  0  0  0  0
   -2.3210   -0.6330    0.1750 C   0  0  0  0  0  0  0  0  0  0  0  0
   -3.5030   -1.3470    0.2670 C   0  0  0  0  0  0  0  0  0  0  0  0
   -3.4380   -2.7610    0.6960 C   0  0  2  0  0  0  0  0  0  0  0  0
   -4.4590   -3.4720    0.0620 F   0  0  0  0  0  0  0  0  0  0  0  0
   -3.4990   -2.8960    2.0780 F   0  0  0  0  0  0  0  0  0  0  0  0
   -2.2500   -3.2750    0.2400 F   0  0  0  0  0  0  0  0  0  0  0  0
   -4.7280   -0.8050   -0.0440 C   0  0  0  0  0  0  0  0  0  0  0  0
   -4.8030    0.4950   -0.4640 C   0  0  0  0  0  0  0  0  0  0  0  0
   -3.6460    1.2220   -0.5640 C   0  0  0  0  0  0  0  0  0  0  0  0
   -3.7070    2.6420   -1.0270 C   0  0  0  0  0  0  0  0  0  0  0  0
    2.1780    1.3340    0.7190 C   0  0  0  0  0  0  0  0  0  0  0  0
    1.8680    2.6570    1.3850 C   0  0  0  0  0  0  0  0  0  0  0  0
    3.4020    0.7130    0.8340 C   0  0  0  0  0  0  0  0  0  0  0  0
    3.6880   -0.4880    0.2680 C   0  0  0  0  0  0  0  0  0  0  0  0
    5.0280   -1.1330    0.3550 C   0  0  0  0  0  0  0  0  0  0  0  0
    5.5240   -1.1230   -1.0460 C   0  0  0  0  0  0  0  0  0  0  0  0
    5.9240   -1.1350   -2.1560 N   0  0  0  0  0  0  0  0  0  0  0  0
  1  2  1  0
  2  3  2  0
  2 21  1  0
  3  4  1  0
  4  5  1  0
  4 18  2  0
  5  6  1  0
  6  7  1  0
  7  8  2  0
  7 16  1  0
  8  9  1  0
  9 10  1  0
  9 14  2  0
 10 11  1  6
 10 12  1  0
 10 13  1  0
 14 15  1  0
 15 16  2  0
 16 17  1  0
 18 19  1  0
 18 20  1  0
 20 21  2  0
 21 22  1  0
 22 23  1  0
 23 24  3  0
M  END
