
     RDKit          3D

 24 26  0  0  0  0  0  0  0  0999 V2000
    1.9050   -1.8090   -1.5760 C   0  0  0  0  0  0  0  0  0  0  0  0
    2.9750   -1.0080   -0.9320 C   0  0  0  0  0  0  0  0  0  0  0  0
    4.2690   -0.9350   -1.3940 C   0  0  0  0  0  0  0  0  0  0  0  0
    5.1400   -0.0480   -0.8020 C   0  0  0  0  0  0  0  0  0  0  0  0
    4.6850    0.7460    0.2500 C   0  0  0  0  0  0  0  0  0  0  0  0
    5.7010    1.6420    0.8850 C   0  0  1  0  0  0  0  0  0  0  0  0
    5.8380    1.3320    2.2530 F   0  0  0  0  0  0  0  0  0  0  0  0
    6.9450    1.3170    0.3480 F   0  0  0  0  0  0  0  0  0  0  0  0
    5.4650    2.9780    0.7600 F   0  0  0  0  0  0  0  0  0  0  0  0
    3.3840    0.6470    0.6970 C   0  0  0  0  0  0  0  0  0  0  0  0
    2.4960   -0.2190    0.1330 C   0  0  0  0  0  0  0  0  0  0  0  0
    1.2050   -0.6060    0.6910 C   0  0  0  0  0  0  0  0  0  0  0  0
    0.1250    0.0720    0.1240 O   0  0  0  0  0  0  0  0  0  0  0  0
   -1.1650   -0.2070    0.5540 C   0  0  0  0  0  0  0  0  0  0  0  0
   -1.5320   -0.9940    1.6050 C   0  0  0  0  0  0  0  0  0  0  0  0
   -2.8830   -1.1790    1.9520 C   0  0  0  0  0  0  0  0  0  0  0  0
   -3.8930   -0.5770    1.2560 C   0  0  0  0  0  0  0  0  0  0  0  0
   -5.3290   -0.7210    1.6150 C   0  0  0  0  0  0  0  0  0  0  0  0
   -3.5430    0.2390    0.1810 C   0  0  0  0  0  0  0  0  0  0  0  0
   -2.2270    0.3960   -0.1360 C   0  0  0  0  0  0  0  0  0  0  0  0
   -1.7980    1.2450   -1.3250 C   0  0  0  0  0  0  0  0  0  0  0  0
   -2.9570    1.6980   -2.0240 N   0  0  0  0  0  0  0  0  0  0  0  0
   -4.3100    1.5480   -1.6790 C   0  0  0  0  0  0  0  0  0  0  0  0
   -4.6360    0.8130   -0.5660 C   0  0  0  0  0  0  0  0  0  0  0  0
  1  2  1  0
  2  3  2  0
  2 11  1  0
  3  4  1  0
  4  5  2  0
  5  6  1  0
  5 10  1  0
  6  7  1  1
  6  8  1  0
  6  9  1  0
 10 11  2  0
 11 12  1  0
 12 13  1  0
 13 14  1  0
 14 15  2  0
 14 20  1  0
 15 16  1  0
 16 17  2  0
 17 18  1  0
 17 19  1  0
 19 20  2  0
 19 24  1  0
 20 21  1  0
 21 22  1  0
 22 23  1  0
 23 24  2  0
M  END
