
     RDKit          3D

 25 27  0  0  0  0  0  0  0  0999 V2000
    2.7940   -2.0970    1.1320 C   0  0  0  0  0  0  0  0  0  0  0  0
    3.8520   -1.1140    0.8220 C   0  0  0  0  0  0  0  0  0  0  0  0
    5.0850   -1.1240    1.4640 C   0  0  0  0  0  0  0  0  0  0  0  0
    6.0150   -0.1540    1.1230 C   0  0  0  0  0  0  0  0  0  0  0  0
    5.7530    0.8220    0.1640 C   0  0  0  0  0  0  0  0  0  0  0  0
    6.7570    1.7800   -0.1620 N   0  0  0  0  0  0  0  0  0  0  0  0
    7.5980    1.5210   -1.2320 N   0  0  0  0  0  0  0  0  0  0  0  0
    4.5250    0.8000   -0.4450 C   0  0  0  0  0  0  0  0  0  0  0  0
    3.5590   -0.1620   -0.1310 C   0  0  0  0  0  0  0  0  0  0  0  0
    2.3350   -0.1970   -0.8940 C   0  0  0  0  0  0  0  0  0  0  0  0
    1.0920   -0.2800   -0.1310 N   0  0  0  0  0  0  0  0  0  0  0  0
    0.0230   -0.2580   -1.1050 C   0  0  0  0  0  0  0  0  0  0  0  0
   -1.3100   -0.4610   -0.5470 C   0  0  0  0  0  0  0  0  0  0  0  0
   -1.9000   -1.7150   -0.5150 C   0  0  0  0  0  0  0  0  0  0  0  0
   -3.1780   -1.8380   -0.0560 C   0  0  0  0  0  0  0  0  0  0  0  0
   -3.9330   -0.7550    0.3900 C   0  0  0  0  0  0  0  0  0  0  0  0
   -3.3400    0.4920    0.3600 C   0  0  0  0  0  0  0  0  0  0  0  0
   -2.0400    0.6130   -0.1070 C   0  0  0  0  0  0  0  0  0  0  0  0
   -4.1210    1.6230    0.7710 N   0  0  0  0  0  0  0  0  0  0  0  0
   -5.4770    1.4600    1.1950 C   0  0  0  0  0  0  0  0  0  0  0  0
   -6.1180    2.2520    1.8960 O   0  0  0  0  0  0  0  0  0  0  0  0
   -6.1290    0.2130    0.7260 C   0  0  1  0  0  0  0  0  0  0  0  0
   -7.4010   -0.0130    1.4740 C   0  0  0  0  0  0  0  0  0  0  0  0
   -6.4440    0.3620   -0.7710 C   0  0  0  0  0  0  0  0  0  0  0  0
   -5.2200   -0.8840    0.8420 O   0  0  0  0  0  0  0  0  0  0  0  0
  1  2  1  0
  2  3  2  0
  2  9  1  0
  3  4  1  0
  4  5  2  0
  5  6  1  0
  5  8  1  0
  6  7  1  0
  8  9  2  0
  9 10  1  0
 10 11  1  0
 11 12  1  0
 12 13  1  0
 13 14  2  0
 13 18  1  0
 14 15  1  0
 15 16  2  0
 16 17  1  0
 16 25  1  0
 17 18  2  0
 17 19  1  0
 19 20  1  0
 20 21  2  0
 20 22  1  0
 22 23  1  1
 22 24  1  0
 22 25  1  0
M  CHG  1   7   1
M  END
