
     RDKit          3D

 25 27  0  0  0  0  0  0  0  0999 V2000
   -1.2630   -4.4660   -1.0180 N   0  0  0  0  0  0  0  0  0  0  0  0
   -1.5010   -3.1130   -0.6750 C   0  0  0  0  0  0  0  0  0  0  0  0
   -2.7820   -2.6380   -0.4710 C   0  0  0  0  0  0  0  0  0  0  0  0
   -2.9770   -1.3170   -0.1380 C   0  0  0  0  0  0  0  0  0  0  0  0
   -1.8880   -0.5000   -0.0180 C   0  0  0  0  0  0  0  0  0  0  0  0
   -2.0620    0.9300    0.3390 C   0  0  0  0  0  0  0  0  0  0  0  0
   -3.4910    1.2840    0.5240 C   0  0  0  0  0  0  0  0  0  0  0  0
   -4.3020    1.7280   -0.4710 C   0  0  0  0  0  0  0  0  0  0  0  0
   -5.6190    2.0310   -0.1970 C   0  0  0  0  0  0  0  0  0  0  0  0
   -6.1110    1.8900    1.0510 N   0  0  0  0  0  0  0  0  0  0  0  0
   -5.3200    1.4510    2.0460 C   0  0  0  0  0  0  0  0  0  0  0  0
   -3.9980    1.1390    1.8080 C   0  0  0  0  0  0  0  0  0  0  0  0
   -0.5690   -0.9340   -0.2150 C   0  0  0  0  0  0  0  0  0  0  0  0
    0.4970   -0.0210   -0.0690 N   0  0  0  0  0  0  0  0  0  0  0  0
    1.8830   -0.2470   -0.2210 C   0  0  0  0  0  0  0  0  0  0  0  0
    2.2270   -1.4070   -0.5250 O   0  0  0  0  0  0  0  0  0  0  0  0
    2.8610    0.8180   -0.0330 C   0  0  0  0  0  0  0  0  0  0  0  0
    4.1370    0.7320   -0.1430 C   0  0  0  0  0  0  0  0  0  0  0  0
    4.8450   -0.4720   -0.4830 C   0  0  0  0  0  0  0  0  0  0  0  0
    6.1660   -0.4790   -0.5770 C   0  0  0  0  0  0  0  0  0  0  0  0
    7.0300    0.6810   -0.3580 C   0  0  0  0  0  0  0  0  0  0  0  0
    6.3430    1.8740   -0.0220 N   0  0  0  0  0  0  0  0  0  0  0  0
    4.9500    1.9320    0.0890 C   0  0  0  0  0  0  0  0  0  0  0  0
    4.3650    3.0230    0.3940 O   0  0  0  0  0  0  0  0  0  0  0  0
   -0.3970   -2.2540   -0.5450 C   0  0  0  0  0  0  0  0  0  0  0  0
  1  2  1  0
  2  3  2  0
  2 25  1  0
  3  4  1  0
  4  5  2  0
  5  6  1  0
  5 13  1  0
  6  7  1  0
  7  8  2  0
  7 12  1  0
  8  9  1  0
  9 10  2  0
 10 11  1  0
 11 12  2  0
 13 14  1  0
 13 25  2  0
 14 15  1  0
 15 16  2  0
 15 17  1  0
 17 18  2  3
 18 19  1  0
 18 23  1  0
 19 20  2  0
 20 21  1  0
 21 22  1  0
 22 23  1  0
 23 24  2  0
M  CHG  1  10   1
M  END
