
     RDKit          3D

 25 27  0  0  0  0  0  0  0  0999 V2000
   -6.2880    0.6460   -1.1800 C   0  0  0  0  0  0  0  0  0  0  0  0
   -5.6430   -0.2450   -0.1240 C   0  0  2  0  0  0  0  0  0  0  0  0
   -6.5730   -1.2410    0.4770 C   0  0  0  0  0  0  0  0  0  0  0  0
   -4.8990    0.6520    0.8090 C   0  0  0  0  0  0  0  0  0  0  0  0
   -3.5740    1.0000    0.2010 C   0  0  1  0  0  0  0  0  0  0  0  0
   -2.6190    0.5570    0.8900 O   0  0  0  0  0  0  0  0  0  0  0  0
   -1.4570    0.3340    1.3110 C   0  0  0  0  0  0  0  0  0  0  0  0
   -0.9220   -0.8730    0.5550 C   0  0  0  0  0  0  0  0  0  0  0  0
    0.1260   -0.8660   -0.1770 C   0  0  0  0  0  0  0  0  0  0  0  0
    0.8250    0.3120   -0.2930 N   0  0  0  0  0  0  0  0  0  0  0  0
    1.9890    0.6970    0.4170 C   0  0  0  0  0  0  0  0  0  0  0  0
    3.1970   -0.0810    0.1020 C   0  0  0  0  0  0  0  0  0  0  0  0
    3.3220   -1.4000    0.0800 N   0  0  0  0  0  0  0  0  0  0  0  0
    4.4950   -2.0500   -0.0740 C   0  0  0  0  0  0  0  0  0  0  0  0
    4.6880   -3.4470    0.0070 N   0  0  0  0  0  0  0  0  0  0  0  0
    5.6350   -1.2420   -0.2180 C   0  0  0  0  0  0  0  0  0  0  0  0
    5.5640    0.1310   -0.2060 C   0  0  0  0  0  0  0  0  0  0  0  0
    6.6770    0.9330   -0.4330 C   0  0  0  0  0  0  0  0  0  0  0  0
    6.5560    2.3240   -0.4990 C   0  0  0  0  0  0  0  0  0  0  0  0
    5.3320    2.8920   -0.3360 C   0  0  0  0  0  0  0  0  0  0  0  0
    4.2210    2.0860   -0.1050 C   0  0  0  0  0  0  0  0  0  0  0  0
    4.3530    0.7060   -0.0430 C   0  0  0  0  0  0  0  0  0  0  0  0
   -3.5910    0.0510   -1.1100 C   0  0  0  0  0  0  0  0  0  0  0  0
   -2.8700    0.2820   -2.0910 O   0  0  0  0  0  0  0  0  0  0  0  0
   -4.5150   -0.9170   -0.7930 N   0  0  0  0  0  0  0  0  0  0  0  0
  2  1  1  6
  2  3  1  0
  2  4  1  0
  2 25  1  0
  4  5  1  0
  5  6  1  1
  5 23  1  0
  6  7  1  0
  7  8  1  0
  8  9  2  3
  9 10  1  0
 10 11  1  0
 11 12  1  0
 12 13  2  0
 12 22  1  0
 13 14  1  0
 14 15  1  0
 14 16  2  0
 16 17  1  0
 17 18  2  0
 17 22  1  0
 18 19  1  0
 19 20  2  0
 20 21  1  0
 21 22  2  0
 23 24  2  0
 23 25  1  0
M  CHG  1  13   1
M  END
