
     RDKit          3D

 25 27  0  0  0  0  0  0  0  0999 V2000
   -7.1940   -2.0940    0.4970 C   0  0  0  0  0  0  0  0  0  0  0  0
   -6.4360   -0.8510    0.1400 C   0  0  0  0  0  0  0  0  0  0  0  0
   -7.1750    0.2650   -0.1530 C   0  0  0  0  0  0  0  0  0  0  0  0
   -6.4990    1.4200   -0.4840 C   0  0  0  0  0  0  0  0  0  0  0  0
   -7.2940    2.6390   -0.8040 C   0  0  0  0  0  0  0  0  0  0  0  0
   -5.1320    1.4010   -0.5060 C   0  0  0  0  0  0  0  0  0  0  0  0
   -4.3690    0.2700   -0.2090 C   0  0  0  0  0  0  0  0  0  0  0  0
   -2.9580    0.3500   -0.2720 N   0  0  0  0  0  0  0  0  0  0  0  0
   -2.0980   -0.6430    0.2450 C   0  0  0  0  0  0  0  0  0  0  0  0
   -2.4600   -1.6750    0.8100 O   0  0  0  0  0  0  0  0  0  0  0  0
   -0.6730   -0.4250    0.0950 N   0  0  0  0  0  0  0  0  0  0  0  0
    0.2010   -1.4340    0.6190 C   0  0  0  0  0  0  0  0  0  0  0  0
    1.6490   -1.1840    0.4520 C   0  0  0  0  0  0  0  0  0  0  0  0
    2.3950   -2.1060    0.9330 O   0  0  0  0  0  0  0  0  0  0  0  0
    2.2650   -0.0920   -0.1510 N   0  0  0  0  0  0  0  0  0  0  0  0
    3.6600    0.1520   -0.3080 C   0  0  0  0  0  0  0  0  0  0  0  0
    3.9800    1.1720   -1.2230 C   0  0  0  0  0  0  0  0  0  0  0  0
    5.3110    1.4530   -1.3980 C   0  0  0  0  0  0  0  0  0  0  0  0
    6.3070    0.7910   -0.7290 C   0  0  0  0  0  0  0  0  0  0  0  0
    5.9620   -0.1940    0.1530 C   0  0  0  0  0  0  0  0  0  0  0  0
    4.6430   -0.5100    0.3610 C   0  0  0  0  0  0  0  0  0  0  0  0
    7.1330   -0.7620    0.7470 N   0  0  0  0  0  0  0  0  0  0  0  0
    8.2040   -0.4500   -0.1810 C   0  0  0  0  0  0  0  0  0  0  0  0
    7.7920    0.8860   -0.7240 C   0  0  0  0  0  0  0  0  0  0  0  0
   -5.0460   -0.8570    0.1140 C   0  0  0  0  0  0  0  0  0  0  0  0
  1  2  1  0
  2  3  2  0
  2 25  1  0
  3  4  1  0
  4  5  1  0
  4  6  2  0
  6  7  1  0
  7  8  1  0
  7 25  2  0
  8  9  1  0
  9 10  2  0
  9 11  1  0
 11 12  1  0
 12 13  1  0
 13 14  2  0
 13 15  1  0
 15 16  1  0
 16 17  2  0
 16 21  1  0
 17 18  1  0
 18 19  2  0
 19 20  1  0
 19 24  1  0
 20 21  2  0
 20 22  1  0
 22 23  1  0
 23 24  1  0
M  CHG  1  22   1
M  END
