
     RDKit          3D

 25 27  0  0  0  0  0  0  0  0999 V2000
   -3.0040    2.2440    0.5410 C   0  0  0  0  0  0  0  0  0  0  0  0
   -4.1790    1.5330   -0.0280 C   0  0  0  0  0  0  0  0  0  0  0  0
   -5.2140    2.1840   -0.6720 C   0  0  0  0  0  0  0  0  0  0  0  0
   -6.2820    1.4530   -1.1890 C   0  0  0  0  0  0  0  0  0  0  0  0
   -6.2870    0.0920   -1.0450 C   0  0  0  0  0  0  0  0  0  0  0  0
   -5.2500   -0.5530   -0.3990 C   0  0  0  0  0  0  0  0  0  0  0  0
   -5.3140   -2.0340   -0.2710 C   0  0  0  0  0  0  0  0  0  0  0  0
   -6.4990   -2.4970   -0.8800 O   0  0  0  0  0  0  0  0  0  0  0  0
   -4.1990    0.1420    0.1090 C   0  0  0  0  0  0  0  0  0  0  0  0
   -3.1380   -0.4510    0.7960 N   0  0  0  0  0  0  0  0  0  0  0  0
   -1.8740   -0.8170    0.2510 C   0  0  0  0  0  0  0  0  0  0  0  0
   -1.6580   -0.6140   -0.9530 O   0  0  0  0  0  0  0  0  0  0  0  0
   -0.8180   -1.4260    1.1220 C   0  0  0  0  0  0  0  0  0  0  0  0
    0.4850   -0.9140    0.8300 N   0  0  0  0  0  0  0  0  0  0  0  0
    1.4600   -1.4220    0.0670 C   0  0  0  0  0  0  0  0  0  0  0  0
    2.5660   -0.6050    0.1050 C   0  0  0  0  0  0  0  0  0  0  0  0
    3.9080   -0.7400   -0.5250 C   0  0  2  0  0  0  0  0  0  0  0  0
    4.9980   -0.7870    0.5420 C   0  0  0  0  0  0  0  0  0  0  0  0
    5.8530    0.4510    0.5170 C   0  0  0  0  0  0  0  0  0  0  0  0
    6.4900    0.6990   -0.8180 C   0  0  0  0  0  0  0  0  0  0  0  0
    5.6650    0.1390   -1.9380 C   0  0  0  0  0  0  0  0  0  0  0  0
    4.1940    0.3360   -1.5380 C   0  0  0  0  0  0  0  0  0  0  0  0
    2.2360    0.4270    0.9190 N   0  0  0  0  0  0  0  0  0  0  0  0
    0.9810    0.2540    1.3670 C   0  0  0  0  0  0  0  0  0  0  0  0
    0.2020    1.0670    2.2380 N   0  0  0  0  0  0  0  0  0  0  0  0
  1  2  1  0
  2  3  2  0
  2  9  1  0
  3  4  1  0
  4  5  2  0
  5  6  1  0
  6  7  1  0
  6  9  2  0
  7  8  1  0
  9 10  1  0
 10 11  1  0
 11 12  2  0
 11 13  1  0
 13 14  1  0
 14 15  1  0
 14 24  1  0
 15 16  2  0
 17 16  1  1
 16 23  1  0
 17 18  1  0
 17 22  1  0
 18 19  1  0
 19 20  1  0
 20 21  1  0
 21 22  1  0
 23 24  2  0
 24 25  1  0
M  CHG  1  23   1
M  END
