
     RDKit          3D

 25 27  0  0  0  0  0  0  0  0999 V2000
   -4.3220   -0.9330   -3.1970 C   0  0  0  0  0  0  0  0  0  0  0  0
   -3.2390   -0.5910   -2.2270 C   0  0  0  0  0  0  0  0  0  0  0  0
   -1.9410   -1.0320   -2.4120 C   0  0  0  0  0  0  0  0  0  0  0  0
   -0.9470   -0.7080   -1.5060 C   0  0  0  0  0  0  0  0  0  0  0  0
   -1.2600    0.0700   -0.3980 C   0  0  0  0  0  0  0  0  0  0  0  0
   -0.2590    0.4000    0.5190 O   0  0  0  0  0  0  0  0  0  0  0  0
    1.0270   -0.0620    0.2960 C   0  0  0  0  0  0  0  0  0  0  0  0
    1.4130   -1.2860    0.8200 C   0  0  0  0  0  0  0  0  0  0  0  0
    2.6850   -1.7900    0.6240 C   0  0  0  0  0  0  0  0  0  0  0  0
    3.6140   -1.0810   -0.1070 C   0  0  0  0  0  0  0  0  0  0  0  0
    3.2660    0.1260   -0.6350 C   0  0  0  0  0  0  0  0  0  0  0  0
    4.1720    0.9130   -1.3830 N   0  0  0  0  0  0  0  0  0  0  0  0
    5.5870    0.7870   -1.3850 C   0  0  0  0  0  0  0  0  0  0  0  0
    6.3110    1.3460   -0.2030 C   0  0  0  0  0  0  0  0  0  0  0  0
    5.9510    0.7720    1.0590 N   0  0  0  0  0  0  0  0  0  0  0  0
    1.9770    0.6200   -0.4280 C   0  0  0  0  0  0  0  0  0  0  0  0
   -2.5580    0.5030   -0.2250 C   0  0  0  0  0  0  0  0  0  0  0  0
   -2.8860    1.3390    0.9700 C   0  0  1  0  0  0  0  0  0  0  0  0
   -4.3570    1.6850    0.8780 C   0  0  0  0  0  0  0  0  0  0  0  0
   -5.1970    0.4580    1.2240 C   0  0  0  0  0  0  0  0  0  0  0  0
   -5.0320    0.2690    2.6640 N   0  0  0  0  0  0  0  0  0  0  0  0
   -3.7170    0.4870    3.1640 C   0  0  0  0  0  0  0  0  0  0  0  0
   -3.6010    0.5260    4.4300 O   0  0  0  0  0  0  0  0  0  0  0  0
   -2.5600    0.6560    2.2590 C   0  0  0  0  0  0  0  0  0  0  0  0
   -3.4760    0.1570   -1.1370 N   0  0  0  0  0  0  0  0  0  0  0  0
  1  2  1  0
  2  3  2  0
  2 25  1  0
  3  4  1  0
  4  5  2  0
  5  6  1  0
  5 17  1  0
  6  7  1  0
  7  8  2  0
  7 16  1  0
  8  9  1  0
  9 10  2  0
 10 11  1  0
 11 12  1  0
 11 16  2  0
 12 13  1  0
 13 14  1  0
 14 15  1  0
 18 17  1  6
 17 25  2  0
 18 19  1  0
 18 24  1  0
 19 20  1  0
 20 21  1  0
 21 22  1  0
 22 23  2  0
 22 24  1  0
M  CHG  1  15   1
M  END
