
     RDKit          3D

 31 31  0  0  0  0  0  0  0  0999 V2000
   -6.3850   -1.9900   -2.4300 C   0  0  0  0  0  0  0  0  0  0  0  0
   -5.9040   -0.8180   -2.0540 C   0  0  0  0  0  0  0  0  0  0  0  0
   -5.8240   -0.5020   -0.6140 C   0  0  0  0  0  0  0  0  0  0  0  0
   -4.4030   -0.2260   -0.1670 C   0  0  1  0  0  0  0  0  0  0  0  0
   -4.4020    0.0840    1.2940 C   0  0  0  0  0  0  0  0  0  0  0  0
   -3.3070    0.1260    1.9550 C   0  0  0  0  0  0  0  0  0  0  0  0
   -3.0430    1.0460    2.8330 C   0  0  0  0  0  0  0  0  0  0  0  0
   -1.9280    0.9960    3.7600 C   0  0  0  0  0  0  0  0  0  0  0  0
   -2.1080    1.4960    5.1750 C   0  0  0  0  0  0  0  0  0  0  0  0
   -2.5180    2.9720    5.1090 C   0  0  0  0  0  0  0  0  0  0  0  0
   -0.7170    0.5450    3.4790 C   0  0  0  0  0  0  0  0  0  0  0  0
   -0.2970    0.0130    2.1550 C   0  0  0  0  0  0  0  0  0  0  0  0
   -0.2170    1.0590    1.0980 C   0  0  0  0  0  0  0  0  0  0  0  0
    1.0320    1.0740    0.2740 C   0  0  1  0  0  0  0  0  0  0  0  0
    2.0570    0.0490    0.6450 C   0  0  0  0  0  0  0  0  0  0  0  0
    3.2480    0.2470   -0.3080 C   0  0  0  0  0  0  0  0  0  0  0  0
    4.2780   -0.8130    0.1000 C   0  0  0  0  0  0  0  0  0  0  0  0
    5.4910   -0.7300   -0.7520 C   0  0  0  0  0  0  0  0  0  0  0  0
    6.6860   -0.4880   -0.2270 C   0  0  0  0  0  0  0  0  0  0  0  0
    6.8340   -0.2960    1.2300 C   0  0  0  0  0  0  0  0  0  0  0  0
    7.8680   -0.4150   -1.1220 C   0  0  0  0  0  0  0  0  0  0  0  0
    0.7750    1.2170   -1.0850 O   0  0  0  0  0  0  0  0  0  0  0  0
    0.4590    0.2810   -2.0400 C   0  0  0  0  0  0  0  0  0  0  0  0
    0.8910    0.3790   -3.2860 C   0  0  0  0  0  0  0  0  0  0  0  0
    0.6720   -0.4760   -4.3910 C   0  0  0  0  0  0  0  0  0  0  0  0
    1.2680   -0.1570   -5.7260 C   0  0  0  0  0  0  0  0  0  0  0  0
   -0.0060   -1.5140   -4.3320 O   0  0  0  0  0  0  0  0  0  0  0  0
   -0.3860   -0.8510   -1.6450 C   0  0  0  0  0  0  0  0  0  0  0  0
   -1.8690   -0.6360   -1.8800 C   0  0  0  0  0  0  0  0  0  0  0  0
   -2.5640   -1.6590   -1.0610 C   0  0  0  0  0  0  0  0  0  0  0  0
   -3.6430   -1.4910   -0.3290 C   0  0  0  0  0  0  0  0  0  0  0  0
  1  2  2  0
  2  3  1  0
  4  3  1  1
  4  5  1  0
  4 31  1  0
  5  6  2  0
  6  7  2  0
  7  8  1  0
  8  9  1  0
  8 11  2  0
  9 10  1  0
 11 12  1  0
 12 13  1  0
 13 14  1  0
 14 15  1  6
 14 22  1  0
 15 16  1  0
 16 17  1  0
 17 18  1  0
 18 19  2  3
 19 20  1  0
 19 21  1  0
 22 23  1  0
 23 24  2  3
 23 28  1  0
 24 25  1  0
 25 26  1  0
 25 27  2  0
 28 29  1  0
 29 30  1  0
 30 31  2  0
M  END
