
     RDKit          3D

 31 33  0  0  0  0  0  0  0  0999 V2000
   -1.2970   -0.2510    4.9560 C   0  0  0  0  0  0  0  0  0  0  0  0
   -0.2920   -0.0740    4.1070 C   0  0  0  0  0  0  0  0  0  0  0  0
    0.1370   -1.0250    3.0800 C   0  0  0  0  0  0  0  0  0  0  0  0
    0.1660   -0.8200    1.8150 O   0  0  0  0  0  0  0  0  0  0  0  0
    0.7320    0.1010    1.0110 C   0  0  1  0  0  0  0  0  0  0  0  0
    2.1310   -0.3560    0.7290 C   0  0  0  0  0  0  0  0  0  0  0  0
    3.0460    0.4370   -0.0530 C   0  0  0  0  0  0  0  0  0  0  0  0
    3.8120    0.1280   -1.0580 C   0  0  0  0  0  0  0  0  0  0  0  0
    4.6620    1.1580   -1.6970 C   0  0  0  0  0  0  0  0  0  0  0  0
    5.4920    0.8920   -2.6780 C   0  0  0  0  0  0  0  0  0  0  0  0
    5.6320   -0.4560   -3.2080 C   0  0  0  0  0  0  0  0  0  0  0  0
    4.9360   -1.4630   -2.7280 C   0  0  0  0  0  0  0  0  0  0  0  0
    3.9900   -1.2090   -1.6240 C   0  0  0  0  0  0  0  0  0  0  0  0
    3.3590   -2.1820   -1.1980 O   0  0  0  0  0  0  0  0  0  0  0  0
   -0.2650    0.5220   -0.0030 C   0  0  2  0  0  0  0  0  0  0  0  0
   -0.8050   -0.6380   -0.7970 C   0  0  2  0  0  0  0  0  0  0  0  0
    0.3340   -1.3640   -1.5250 C   0  0  0  0  0  0  0  0  0  0  0  0
   -1.7990   -0.3630   -1.8660 C   0  0  0  0  0  0  0  0  0  0  0  0
   -3.1040    0.2020   -1.5690 C   0  0  0  0  0  0  0  0  0  0  0  0
   -4.2730   -0.4530   -1.7940 C   0  0  0  0  0  0  0  0  0  0  0  0
   -1.4390   -1.7480    0.0180 C   0  0  0  0  0  0  0  0  0  0  0  0
   -1.9010   -2.8380   -0.9180 C   0  0  0  0  0  0  0  0  0  0  0  0
   -2.1250   -3.5410   -2.0240 C   0  0  0  0  0  0  0  0  0  0  0  0
   -2.6500   -4.1680   -0.8470 C   0  0  0  0  0  0  0  0  0  0  0  0
    0.3800    1.3930   -1.1310 C   0  0  0  0  0  0  0  0  0  0  0  0
   -0.5720    2.5400   -1.4120 C   0  0  0  0  0  0  0  0  0  0  0  0
   -1.3230    2.7930   -0.1880 C   0  0  0  0  0  0  0  0  0  0  0  0
   -1.1290    1.5280    0.5980 C   0  0  1  0  0  0  0  0  0  0  0  0
   -2.2430    1.3250    1.4700 C   0  0  0  0  0  0  0  0  0  0  0  0
   -2.3800    1.9420    2.6050 C   0  0  0  0  0  0  0  0  0  0  0  0
   -1.4170    2.9260    3.1220 C   0  0  0  0  0  0  0  0  0  0  0  0
  1  2  2  0
  2  3  1  0
  3  4  1  0
  4  5  1  0
  5  6  1  6
  5 15  1  0
  6  7  1  0
  7  8  2  3
  8  9  1  0
  8 13  1  0
  9 10  2  0
 10 11  1  0
 11 12  2  0
 12 13  1  0
 13 14  2  0
 15 16  1  0
 15 25  1  6
 15 28  1  0
 16 17  1  6
 16 18  1  0
 16 21  1  0
 18 19  1  0
 19 20  2  0
 21 22  1  0
 22 23  2  0
 22 24  1  0
 23 24  1  0
 25 26  1  0
 26 27  1  0
 27 28  1  0
 28 29  1  6
 29 30  2  3
 30 31  1  0
M  END
