
     RDKit          3D

 31 34  0  0  0  0  0  0  0  0999 V2000
    3.4340    0.8010    2.3990 C   0  0  0  0  0  0  0  0  0  0  0  0
    4.5530    0.1880    1.6680 C   0  0  0  0  0  0  0  0  0  0  0  0
    4.5610   -0.5570    0.6060 C   0  0  0  0  0  0  0  0  0  0  0  0
    5.9400   -1.0250    0.1140 C   0  0  0  0  0  0  0  0  0  0  0  0
    5.9950   -2.4610    0.1190 N   0  0  0  0  0  0  0  0  0  0  0  0
    3.3810   -0.9770   -0.1530 C   0  0  2  0  0  0  0  0  0  0  0  0
    3.4220   -0.3470   -1.4820 N   0  0  0  0  0  0  0  0  0  0  0  0
    2.2870    0.3860   -1.6210 N   0  0  0  0  0  0  0  0  0  0  0  0
    1.4790    0.3020   -0.6030 C   0  0  0  0  0  0  0  0  0  0  0  0
    0.2100    1.0140   -0.5650 C   0  0  0  0  0  0  0  0  0  0  0  0
    0.0740    2.3800   -0.6700 N   0  0  0  0  0  0  0  0  0  0  0  0
   -1.2070    2.7300   -0.6250 C   0  0  0  0  0  0  0  0  0  0  0  0
   -1.8050    4.0680   -0.7010 C   0  0  0  0  0  0  0  0  0  0  0  0
   -1.0440    5.1890   -0.8360 C   0  0  0  0  0  0  0  0  0  0  0  0
   -1.6070    6.4440   -0.9070 C   0  0  0  0  0  0  0  0  0  0  0  0
   -2.9740    6.5920   -0.8410 C   0  0  0  0  0  0  0  0  0  0  0  0
   -3.7810    5.4700   -0.7030 C   0  0  0  0  0  0  0  0  0  0  0  0
   -3.1810    4.2410   -0.6360 C   0  0  0  0  0  0  0  0  0  0  0  0
   -1.8870    1.5840   -0.4910 N   0  0  0  0  0  0  0  0  0  0  0  0
   -1.0480    0.5120   -0.4520 C   0  0  0  0  0  0  0  0  0  0  0  0
   -1.5450   -0.8600   -0.3450 C   0  0  0  0  0  0  0  0  0  0  0  0
   -0.6070   -1.9120   -0.3270 N   0  0  0  0  0  0  0  0  0  0  0  0
   -2.8320   -1.0720   -0.2360 C   0  0  0  0  0  0  0  0  0  0  0  0
   -3.5190   -2.3450   -0.1270 C   0  0  0  0  0  0  0  0  0  0  0  0
   -4.3740   -2.5220    0.9760 C   0  0  0  0  0  0  0  0  0  0  0  0
   -5.0750   -3.6780    1.1100 C   0  0  0  0  0  0  0  0  0  0  0  0
   -4.9550   -4.6690    0.1820 C   0  0  0  0  0  0  0  0  0  0  0  0
   -4.1290   -4.5000   -0.8860 C   0  0  0  0  0  0  0  0  0  0  0  0
   -4.0030   -5.5090   -1.8380 O   0  0  0  0  0  0  0  0  0  0  0  0
   -3.4130   -3.3430   -1.0430 C   0  0  0  0  0  0  0  0  0  0  0  0
    2.1340   -0.5190    0.3460 N   0  0  0  0  0  0  0  0  0  0  0  0
  1  2  1  0
  2  3  2  3
  3  4  1  0
  6  3  1  1
  4  5  1  0
  6  7  1  0
  6 31  1  0
  7  8  1  0
  8  9  2  0
  9 10  1  0
  9 31  1  0
 10 11  1  0
 10 20  2  0
 11 12  1  0
 12 13  1  0
 12 19  2  0
 13 14  2  0
 13 18  1  0
 14 15  1  0
 15 16  2  0
 16 17  1  0
 17 18  2  0
 19 20  1  0
 20 21  1  0
 21 22  1  0
 21 23  2  3
 23 24  1  0
 24 25  2  0
 24 30  1  0
 25 26  1  0
 26 27  2  0
 27 28  1  0
 28 29  1  0
 28 30  2  0
M  CHG  2   5   1  22   1
M  END
