
     RDKit          3D

 31 32  0  0  0  0  0  0  0  0999 V2000
    5.6050    2.3030   -2.7060 C   0  0  0  0  0  0  0  0  0  0  0  0
    5.3890    1.7780   -1.5140 C   0  0  0  0  0  0  0  0  0  0  0  0
    5.2150    0.3310   -1.3320 C   0  0  1  0  0  0  0  0  0  0  0  0
    6.2800   -0.2460   -0.3890 C   0  0  0  0  0  0  0  0  0  0  0  0
    3.9540   -0.0080   -0.7940 O   0  0  0  0  0  0  0  0  0  0  0  0
    3.1230   -0.9010   -1.4980 C   0  0  0  0  0  0  0  0  0  0  0  0
    3.5900   -1.3260   -2.5690 O   0  0  0  0  0  0  0  0  0  0  0  0
    1.8020   -1.3060   -1.0110 C   0  0  2  0  0  0  0  0  0  0  0  0
    1.3570   -2.2820   -2.2490 C   0  0  0  0  0  0  0  0  0  0  0  0
    0.7260   -0.2880   -1.1260 C   0  0  0  0  0  0  0  0  0  0  0  0
    0.9320    1.0150   -0.4750 C   0  0  0  0  0  0  0  0  0  0  0  0
   -0.2500    1.9450   -0.6970 C   0  0  2  0  0  0  0  0  0  0  0  0
    0.0340    3.2910    0.0010 C   0  0  0  0  0  0  0  0  0  0  0  0
    0.3550    3.0600    1.4550 C   0  0  0  0  0  0  0  0  0  0  0  0
   -0.6120    2.1850    2.1710 C   0  0  0  0  0  0  0  0  0  0  0  0
   -1.6400    1.5560    1.3040 C   0  0  0  0  0  0  0  0  0  0  0  0
   -2.7780    1.0880    1.9120 C   0  0  0  0  0  0  0  0  0  0  0  0
   -2.9380    1.2170    3.4020 C   0  0  0  0  0  0  0  0  0  0  0  0
   -3.8000    0.4910    1.1820 C   0  0  0  0  0  0  0  0  0  0  0  0
   -5.0070    0.0040    1.9310 C   0  0  0  0  0  0  0  0  0  0  0  0
   -3.6550    0.3730   -0.1810 C   0  0  0  0  0  0  0  0  0  0  0  0
   -4.7550   -0.2670   -0.9490 C   0  0  0  0  0  0  0  0  0  0  0  0
   -4.7580   -1.7710   -0.7680 C   0  0  0  0  0  0  0  0  0  0  0  0
   -5.9020   -2.3490   -1.5770 C   0  0  0  0  0  0  0  0  0  0  0  0
   -2.4870    0.8540   -0.7990 C   0  0  0  0  0  0  0  0  0  0  0  0
   -2.4590    0.6780   -2.2650 C   0  0  0  0  0  0  0  0  0  0  0  0
   -1.4840    1.4400   -0.0750 C   0  0  0  0  0  0  0  0  0  0  0  0
    1.7220   -2.2700    0.0820 C   0  0  0  0  0  0  0  0  0  0  0  0
    2.3240   -2.0760    1.4010 C   0  0  2  0  0  0  0  0  0  0  0  0
    2.0000   -3.3940    2.1890 C   0  0  0  0  0  0  0  0  0  0  0  0
    1.8020   -1.0080    2.2930 C   0  0  0  0  0  0  0  0  0  0  0  0
  1  2  2  0
  2  3  1  0
  3  4  1  1
  3  5  1  0
  5  6  1  0
  6  7  2  0
  6  8  1  0
  8  9  1  6
  8 10  1  0
  8 28  1  0
 10 11  1  0
 12 11  1  1
 12 13  1  0
 12 27  1  0
 13 14  1  0
 14 15  1  0
 15 16  1  0
 16 17  2  0
 16 27  1  0
 17 18  1  0
 17 19  1  0
 19 20  1  0
 19 21  2  0
 21 22  1  0
 21 25  1  0
 22 23  1  0
 23 24  1  0
 25 26  1  0
 25 27  2  0
 28 29  1  0
 29 30  1  1
 29 31  1  0
M  END
