
     RDKit          3D

 31 32  0  0  0  0  0  0  0  0999 V2000
   -6.1160   -1.4590    0.3820 C   0  0  0  0  0  0  0  0  0  0  0  0
   -4.8090   -1.0550    0.4640 C   0  0  0  0  0  0  0  0  0  0  0  0
   -3.9570   -2.0010    1.1580 C   0  0  0  0  0  0  0  0  0  0  0  0
   -3.6840   -1.7080    2.6060 C   0  0  0  0  0  0  0  0  0  0  0  0
   -4.5500    0.2020   -0.2130 C   0  0  0  0  0  0  0  0  0  0  0  0
   -3.3660    0.7530   -0.2530 C   0  0  0  0  0  0  0  0  0  0  0  0
   -2.1540    0.2130    0.3510 C   0  0  0  0  0  0  0  0  0  0  0  0
   -1.1720   -0.3880   -0.6660 C   0  0  1  0  0  0  0  0  0  0  0  0
   -0.6780    0.5730   -1.6760 C   0  0  0  0  0  0  0  0  0  0  0  0
   -0.1360   -1.1210    0.0960 C   0  0  0  0  0  0  0  0  0  0  0  0
    0.9390   -1.7940   -0.6800 C   0  0  2  0  0  0  0  0  0  0  0  0
    0.4570   -2.7980   -1.6970 C   0  0  0  0  0  0  0  0  0  0  0  0
    1.6030   -2.7260    0.4130 C   0  0  0  0  0  0  0  0  0  0  0  0
    1.9380   -0.9980   -1.2220 O   0  0  0  0  0  0  0  0  0  0  0  0
    2.8780   -0.2300   -0.5390 C   0  0  0  0  0  0  0  0  0  0  0  0
    2.6460    1.0580   -0.1190 C   0  0  0  0  0  0  0  0  0  0  0  0
    3.6290    1.7840    0.5620 C   0  0  0  0  0  0  0  0  0  0  0  0
    3.2770    3.1650    0.9700 C   0  0  0  0  0  0  0  0  0  0  0  0
    4.8570    1.2120    0.8230 C   0  0  0  0  0  0  0  0  0  0  0  0
    5.8390    2.0600    1.5530 C   0  0  0  0  0  0  0  0  0  0  0  0
    5.1290   -0.0790    0.4180 C   0  0  0  0  0  0  0  0  0  0  0  0
    6.4590   -0.6620    0.7160 C   0  0  0  0  0  0  0  0  0  0  0  0
    7.5500   -0.1610   -0.1690 C   0  0  0  0  0  0  0  0  0  0  0  0
    4.1410   -0.7630   -0.2480 C   0  0  0  0  0  0  0  0  0  0  0  0
    4.4890   -2.1370   -0.6940 C   0  0  0  0  0  0  0  0  0  0  0  0
   -3.2660    2.0820   -0.9450 C   0  0  0  0  0  0  0  0  0  0  0  0
   -2.5140    2.9520   -0.4950 O   0  0  0  0  0  0  0  0  0  0  0  0
   -4.1020    2.2500   -2.1460 C   0  0  0  0  0  0  0  0  0  0  0  0
   -5.5450    1.9860   -1.7670 C   0  0  2  0  0  0  0  0  0  0  0  0
   -6.0910    3.2350   -1.0610 C   0  0  0  0  0  0  0  0  0  0  0  0
   -5.7550    0.8270   -0.9240 C   0  0  0  0  0  0  0  0  0  0  0  0
  1  2  2  0
  2  3  1  0
  2  5  1  0
  3  4  1  0
  5  6  2  0
  5 31  1  0
  6  7  1  0
  6 26  1  0
  7  8  1  0
  8  9  1  1
  8 10  1  0
 10 11  1  0
 11 12  1  6
 11 13  1  0
 11 14  1  0
 14 15  1  0
 15 16  2  0
 15 24  1  0
 16 17  1  0
 17 18  1  0
 17 19  2  0
 19 20  1  0
 19 21  1  0
 21 22  1  0
 21 24  2  0
 22 23  1  0
 24 25  1  0
 26 27  2  0
 26 28  1  0
 28 29  1  0
 29 30  1  1
 29 31  1  0
M  END
