
     RDKit          3D

 31 32  0  0  0  0  0  0  0  0999 V2000
    7.1380   -1.7170    0.5810 C   0  0  0  0  0  0  0  0  0  0  0  0
    5.9810   -2.3140   -0.1410 C   0  0  0  0  0  0  0  0  0  0  0  0
    4.8600   -1.2950   -0.3890 C   0  0  1  0  0  0  0  0  0  0  0  0
    5.3900   -0.1740   -1.2080 C   0  0  0  0  0  0  0  0  0  0  0  0
    3.8410   -2.0540   -1.2120 C   0  0  0  0  0  0  0  0  0  0  0  0
    4.3410   -0.9120    0.9580 C   0  0  1  0  0  0  0  0  0  0  0  0
    5.3960   -0.3740    1.7480 O   0  0  0  0  0  0  0  0  0  0  0  0
    3.2680    0.1080    1.0240 C   0  0  0  0  0  0  0  0  0  0  0  0
    2.0040   -0.2200    0.3290 C   0  0  0  0  0  0  0  0  0  0  0  0
    0.9660    0.9310    0.5230 C   0  0  0  0  0  0  0  0  0  0  0  0
   -0.2460    0.4660   -0.2250 C   0  0  0  0  0  0  0  0  0  0  0  0
   -1.4460    1.3000   -0.2470 C   0  0  1  0  0  0  0  0  0  0  0  0
   -2.5240    0.6120   -1.0600 C   0  0  0  0  0  0  0  0  0  0  0  0
   -3.0290   -0.6960   -0.6930 C   0  0  2  0  0  0  0  0  0  0  0  0
   -2.1860   -1.8900   -0.7210 C   0  0  0  0  0  0  0  0  0  0  0  0
   -2.5900   -3.1020   -0.3010 C   0  0  0  0  0  0  0  0  0  0  0  0
   -1.5210   -4.1320   -0.4450 C   0  0  0  0  0  0  0  0  0  0  0  0
   -3.8380   -3.6150    0.2370 C   0  0  1  0  0  0  0  0  0  0  0  0
   -3.7610   -3.8360    1.7590 C   0  0  0  0  0  0  0  0  0  0  0  0
   -5.0920   -2.8890   -0.0210 C   0  0  0  0  0  0  0  0  0  0  0  0
   -5.0790   -2.0060   -1.2170 C   0  0  0  0  0  0  0  0  0  0  0  0
   -4.2210   -1.0540   -1.5510 C   0  0  0  0  0  0  0  0  0  0  0  0
   -4.4540   -0.3300   -2.8050 C   0  0  0  0  0  0  0  0  0  0  0  0
   -2.0760    1.4660    1.1440 C   0  0  0  0  0  0  0  0  0  0  0  0
   -1.6850    2.7890    1.7710 C   0  0  0  0  0  0  0  0  0  0  0  0
   -2.2380    3.9810    1.0680 C   0  0  0  0  0  0  0  0  0  0  0  0
   -1.2610    4.9020    0.4420 C   0  0  1  0  0  0  0  0  0  0  0  0
   -0.7900    5.9230    1.4850 C   0  0  0  0  0  0  0  0  0  0  0  0
   -0.0500    4.3300   -0.1830 C   0  0  0  0  0  0  0  0  0  0  0  0
   -0.3850    3.2310   -1.2000 C   0  0  0  0  0  0  0  0  0  0  0  0
   -1.4080    2.5490   -0.7630 O   0  0  0  0  0  0  0  0  0  0  0  0
  1  2  1  0
  2  3  1  0
  3  4  1  6
  3  5  1  0
  3  6  1  0
  6  7  1  1
  6  8  1  0
  8  9  1  0
  9 10  1  0
 10 11  1  0
 12 11  1  1
 12 13  1  0
 12 24  1  0
 12 31  1  0
 14 13  1  6
 14 15  1  0
 14 22  1  0
 15 16  2  0
 16 17  1  0
 16 18  1  0
 18 19  1  1
 18 20  1  0
 20 21  1  0
 21 22  2  0
 22 23  1  0
 24 25  1  0
 25 26  1  0
 26 27  1  0
 27 28  1  1
 27 29  1  0
 29 30  1  0
 30 31  1  0
M  END
