
     RDKit          3D

 31 32  0  0  0  0  0  0  0  0999 V2000
   -1.0340    3.9600    2.4970 C   0  0  0  0  0  0  0  0  0  0  0  0
   -0.4550    2.9650    1.8660 C   0  0  0  0  0  0  0  0  0  0  0  0
   -0.1680    2.9710    0.4060 C   0  0  0  0  0  0  0  0  0  0  0  0
   -0.8560    1.8790   -0.3590 C   0  0  1  0  0  0  0  0  0  0  0  0
   -0.5510    1.9280   -1.7930 C   0  0  0  0  0  0  0  0  0  0  0  0
   -1.0960    3.3080   -2.3020 C   0  0  0  0  0  0  0  0  0  0  0  0
   -0.9630    0.6350    0.3980 C   0  0  2  0  0  0  0  0  0  0  0  0
    0.3070    0.0100    0.9110 C   0  0  0  0  0  0  0  0  0  0  0  0
    0.3070   -0.7180    2.1730 C   0  0  0  0  0  0  0  0  0  0  0  0
    1.2610   -1.2420    2.7450 O   0  0  0  0  0  0  0  0  0  0  0  0
    1.4510    0.1910    0.2760 C   0  0  0  0  0  0  0  0  0  0  0  0
    2.7600   -0.3120    0.5940 C   0  0  0  0  0  0  0  0  0  0  0  0
    3.8890   -0.1340   -0.0240 C   0  0  0  0  0  0  0  0  0  0  0  0
    5.1510   -0.7220    0.4330 C   0  0  0  0  0  0  0  0  0  0  0  0
    6.0940   -0.3590   -0.3960 C   0  0  0  0  0  0  0  0  0  0  0  0
    7.5530   -0.7120   -0.3450 C   0  0  0  0  0  0  0  0  0  0  0  0
    7.8280   -1.5950    0.8570 C   0  0  0  0  0  0  0  0  0  0  0  0
    5.5220    0.4680   -1.4220 C   0  0  0  0  0  0  0  0  0  0  0  0
    4.1980    0.6140   -1.2140 C   0  0  0  0  0  0  0  0  0  0  0  0
    3.3420    1.4140   -2.1090 C   0  0  0  0  0  0  0  0  0  0  0  0
   -1.8760   -0.3940   -0.1550 C   0  0  1  0  0  0  0  0  0  0  0  0
   -1.9360   -1.6270    0.6780 C   0  0  0  0  0  0  0  0  0  0  0  0
   -2.8710   -2.6680    0.0230 C   0  0  1  0  0  0  0  0  0  0  0  0
   -2.2290   -3.0840   -1.2750 C   0  0  0  0  0  0  0  0  0  0  0  0
   -2.8770   -3.8510    0.9620 C   0  0  0  0  0  0  0  0  0  0  0  0
   -4.2590   -2.1500   -0.1020 C   0  0  0  0  0  0  0  0  0  0  0  0
   -4.4020   -0.6500    0.0590 C   0  0  1  0  0  0  0  0  0  0  0  0
   -5.6720   -0.2880   -0.7300 C   0  0  0  0  0  0  0  0  0  0  0  0
   -4.6700   -0.2680    1.4850 C   0  0  0  0  0  0  0  0  0  0  0  0
   -3.2350    0.0530   -0.5340 C   0  0  0  0  0  0  0  0  0  0  0  0
   -3.4260    0.9480   -1.2930 O   0  0  0  0  0  0  0  0  0  0  0  0
  1  2  2  0
  2  3  1  0
  4  3  1  1
  4  5  1  0
  4  7  1  0
  5  6  1  0
  7  8  1  6
  7 21  1  0
  8  9  1  0
  8 11  2  3
  9 10  2  0
 11 12  1  0
 12 13  2  3
 13 14  1  0
 13 19  1  0
 14 15  2  0
 15 16  1  0
 15 18  1  0
 16 17  1  0
 18 19  2  0
 19 20  1  0
 21 22  1  1
 21 30  1  0
 22 23  1  0
 23 24  1  6
 23 25  1  0
 23 26  1  0
 26 27  1  0
 27 28  1  6
 27 29  1  0
 27 30  1  0
 30 31  2  0
M  END
