
     RDKit          3D

 19 21  0  0  0  0  0  0  0  0999 V2000
    0.7360   -1.6390   -2.9050 O   0  0  0  0  0  0  0  0  0  0  0  0
    1.0320   -1.1190   -1.7990 C   0  0  0  0  0  0  0  0  0  0  0  0
    0.0130   -0.5990   -1.0310 C   0  0  0  0  0  0  0  0  0  0  0  0
    0.3700   -0.0320    0.1830 C   0  0  0  0  0  0  0  0  0  0  0  0
   -0.6200    0.5080    0.9970 O   0  0  0  0  0  0  0  0  0  0  0  0
   -1.9490    0.4820    0.6050 C   0  0  0  0  0  0  0  0  0  0  0  0
   -2.7480   -0.6060    0.9520 C   0  0  0  0  0  0  0  0  0  0  0  0
   -4.0730   -0.6720    0.5820 C   0  0  0  0  0  0  0  0  0  0  0  0
   -4.6470    0.3400   -0.1440 C   0  0  0  0  0  0  0  0  0  0  0  0
   -3.8810    1.4310   -0.5030 C   0  0  0  0  0  0  0  0  0  0  0  0
   -4.4590    2.4280   -1.2230 F   0  0  0  0  0  0  0  0  0  0  0  0
   -2.5550    1.4770   -0.1230 C   0  0  0  0  0  0  0  0  0  0  0  0
    1.6810    0.0170    0.6180 C   0  0  0  0  0  0  0  0  0  0  0  0
    2.0480    0.5800    1.8280 C   0  0  0  0  0  0  0  0  0  0  0  0
    3.3670    0.6180    2.2410 C   0  0  0  0  0  0  0  0  0  0  0  0
    4.3500    0.0800    1.4280 C   0  0  0  0  0  0  0  0  0  0  0  0
    3.9730   -0.4830    0.2170 C   0  0  0  0  0  0  0  0  0  0  0  0
    2.6580   -0.5210   -0.1980 C   0  0  0  0  0  0  0  0  0  0  0  0
    2.3010   -1.0780   -1.3930 N   0  0  0  0  0  0  0  0  0  0  0  0
  1  2  2  0
  2  3  1  0
  2 19  1  0
  3  4  2  0
  4  5  1  0
  4 13  1  0
  5  6  1  0
  6  7  2  0
  6 12  1  0
  7  8  1  0
  8  9  2  0
  9 10  1  0
 10 11  1  0
 10 12  2  0
 13 14  2  0
 13 18  1  0
 14 15  1  0
 15 16  2  0
 16 17  1  0
 17 18  2  0
 18 19  1  0
M  END
