
     RDKit          3D

 24 26  0  0  0  0  0  0  0  0999 V2000
   -3.9650   -2.9740    0.4690 C   0  0  0  0  0  0  0  0  0  0  0  0
   -2.5170   -2.0280   -0.1440 S   0  0  1  0  0  0  0  0  0  0  0  0
   -2.9730   -1.0770   -1.5410 C   0  0  0  0  0  0  0  0  0  0  0  0
   -4.0620   -0.0870   -1.4230 C   0  0  0  0  0  0  0  0  0  0  0  0
   -3.8770    1.0220   -0.4610 C   0  0  0  0  0  0  0  0  0  0  0  0
   -5.0520    1.8950   -0.4960 N   0  0  0  0  0  0  0  0  0  0  0  0
   -1.7400   -1.2840    1.2160 C   0  0  0  0  0  0  0  0  0  0  0  0
   -0.5480   -0.4670    1.0760 C   0  0  1  0  0  0  0  0  0  0  0  0
    0.5720   -1.0790    0.5130 O   0  0  0  0  0  0  0  0  0  0  0  0
    1.5480   -0.1190    0.8600 C   0  0  1  0  0  0  0  0  0  0  0  0
    2.7950   -0.3620    0.2250 N   0  0  0  0  0  0  0  0  0  0  0  0
    3.2560   -1.5390   -0.2070 C   0  0  0  0  0  0  0  0  0  0  0  0
    4.4730   -1.3380   -0.7470 N   0  0  0  0  0  0  0  0  0  0  0  0
    4.8110   -0.0420   -0.6730 C   0  0  0  0  0  0  0  0  0  0  0  0
    5.9160    0.6920   -1.0640 C   0  0  0  0  0  0  0  0  0  0  0  0
    6.9790   -0.0050   -1.6940 N   0  0  0  0  0  0  0  0  0  0  0  0
    5.9580    2.0220   -0.8430 N   0  0  0  0  0  0  0  0  0  0  0  0
    4.9180    2.6010   -0.2450 C   0  0  0  0  0  0  0  0  0  0  0  0
    3.8290    1.9000    0.1450 N   0  0  0  0  0  0  0  0  0  0  0  0
    3.7190    0.5730   -0.0440 C   0  0  0  0  0  0  0  0  0  0  0  0
    0.9300    1.2070    0.4820 C   0  0  2  0  0  0  0  0  0  0  0  0
    1.1780    2.0800    1.5410 O   0  0  0  0  0  0  0  0  0  0  0  0
   -0.5730    0.8470    0.4240 C   0  0  2  0  0  0  0  0  0  0  0  0
   -1.2070    1.8320    1.1870 O   0  0  0  0  0  0  0  0  0  0  0  0
  2  1  1  1
  2  3  1  0
  2  7  1  0
  3  4  1  0
  4  5  1  0
  5  6  1  0
  8  7  1  6
  8  9  1  0
  8 23  1  0
  9 10  1  0
 10 11  1  6
 10 21  1  0
 11 12  1  0
 11 20  1  0
 12 13  2  0
 13 14  1  0
 14 15  2  0
 14 20  1  0
 15 16  1  0
 15 17  1  0
 17 18  2  0
 18 19  1  0
 19 20  2  0
 21 22  1  1
 21 23  1  0
 23 24  1  1
M  END
