
     RDKit          3D

 19 20  0  0  0  0  0  0  0  0999 V2000
   -3.4190    2.1140   -0.1270 C   0  0  0  0  0  0  0  0  0  0  0  0
   -2.7860    1.1260   -0.6760 C   0  0  0  0  0  0  0  0  0  0  0  0
   -2.9970    0.9700   -1.9860 O   0  0  0  0  0  0  0  0  0  0  0  0
   -2.2710    0.5290   -2.9990 C   0  0  0  0  0  0  0  0  0  0  0  0
   -1.1030   -0.1990   -3.0540 C   0  0  0  0  0  0  0  0  0  0  0  0
   -0.2080   -0.7440   -2.1380 C   0  0  0  0  0  0  0  0  0  0  0  0
    0.0320   -0.4190   -0.8190 C   0  0  0  0  0  0  0  0  0  0  0  0
    1.4260   -0.4880   -0.4030 C   0  0  0  0  0  0  0  0  0  0  0  0
    1.7500   -0.2370    0.9170 C   0  0  0  0  0  0  0  0  0  0  0  0
    3.0390   -0.2720    1.3860 C   0  0  0  0  0  0  0  0  0  0  0  0
    3.3020   -0.0030    2.7590 N   0  0  0  0  0  0  0  0  0  0  0  0
    4.0670   -0.5690    0.5200 C   0  0  0  0  0  0  0  0  0  0  0  0
    3.7450   -0.8190   -0.7910 C   0  0  0  0  0  0  0  0  0  0  0  0
    4.7440   -1.1110   -1.6510 F   0  0  0  0  0  0  0  0  0  0  0  0
    2.4370   -0.7860   -1.2810 C   0  0  0  0  0  0  0  0  0  0  0  0
   -0.7730   -0.0460    0.1760 O   0  0  0  0  0  0  0  0  0  0  0  0
   -2.0140    0.4340    0.2300 C   0  0  0  0  0  0  0  0  0  0  0  0
   -2.6270    0.2000    1.3730 C   0  0  0  0  0  0  0  0  0  0  0  0
   -1.9760   -0.5300    2.4920 C   0  0  0  0  0  0  0  0  0  0  0  0
  1  2  2  0
  2  3  1  0
  2 17  1  0
  3  4  1  0
  4  5  2  0
  5  6  1  0
  6  7  2  0
  7  8  1  0
  7 16  1  0
  8  9  2  0
  8 15  1  0
  9 10  1  0
 10 11  1  0
 10 12  2  0
 12 13  1  0
 13 14  1  0
 13 15  2  0
 16 17  1  0
 17 18  2  3
 18 19  1  0
M  END
