
     RDKit          3D

 18 20  0  0  0  0  0  0  0  0999 V2000
   -5.6180    0.0500   -0.3740 C   0  0  0  0  0  0  0  0  0  0  0  0
   -4.6710   -0.2960    0.6010 O   0  0  0  0  0  0  0  0  0  0  0  0
   -3.2920   -0.1780    0.3800 C   0  0  0  0  0  0  0  0  0  0  0  0
   -2.7810    0.2830   -0.8070 C   0  0  0  0  0  0  0  0  0  0  0  0
   -1.3890    0.3900   -1.0000 C   0  0  0  0  0  0  0  0  0  0  0  0
   -0.8440    0.9000   -2.2660 C   0  0  0  0  0  0  0  0  0  0  0  0
   -0.5310    0.0300    0.0060 C   0  0  0  0  0  0  0  0  0  0  0  0
    0.8550    0.0150    0.1400 C   0  0  0  0  0  0  0  0  0  0  0  0
    1.1970   -0.4460    1.3930 C   0  0  0  0  0  0  0  0  0  0  0  0
    0.0050   -0.7090    2.0060 N   0  0  0  0  0  0  0  0  0  0  0  0
   -1.0270   -0.4360    1.2060 C   0  0  0  0  0  0  0  0  0  0  0  0
   -2.4170   -0.5280    1.3620 C   0  0  0  0  0  0  0  0  0  0  0  0
    2.4800   -0.6490    2.0650 C   0  0  0  0  0  0  0  0  0  0  0  0
    3.6770   -0.3230    1.6570 C   0  0  0  0  0  0  0  0  0  0  0  0
    3.9730    0.3520    0.3590 C   0  0  1  0  0  0  0  0  0  0  0  0
    5.3060    0.0720    0.0670 O   0  0  0  0  0  0  0  0  0  0  0  0
    3.1450   -0.2420   -0.7500 C   0  0  0  0  0  0  0  0  0  0  0  0
    1.8040    0.4310   -0.9330 C   0  0  0  0  0  0  0  0  0  0  0  0
  1  2  1  0
  2  3  1  0
  3  4  2  0
  3 12  1  0
  4  5  1  0
  5  6  1  0
  5  7  2  0
  7  8  1  0
  7 11  1  0
  8  9  2  0
  8 18  1  0
  9 10  1  0
  9 13  1  0
 10 11  1  0
 11 12  2  0
 13 14  2  0
 14 15  1  0
 15 16  1  6
 15 17  1  0
 17 18  1  0
M  END
