
     RDKit          3D

 19 21  0  0  0  0  0  0  0  0999 V2000
   -1.3890    4.0000   -0.3220 O   0  0  0  0  0  0  0  0  0  0  0  0
   -1.2010    2.7540   -0.1770 C   0  0  0  0  0  0  0  0  0  0  0  0
   -2.3120    1.9710   -0.0140 C   0  0  0  0  0  0  0  0  0  0  0  0
   -2.1050    0.5890    0.1500 C   0  0  0  0  0  0  0  0  0  0  0  0
   -0.8170    0.0690    0.1450 C   0  0  0  0  0  0  0  0  0  0  0  0
    0.2320    0.9180   -0.0310 C   0  0  0  0  0  0  0  0  0  0  0  0
    1.6190    0.4090   -0.0460 C   0  0  0  0  0  0  0  0  0  0  0  0
    2.6020    1.1120    0.6170 C   0  0  0  0  0  0  0  0  0  0  0  0
    3.9130    0.7560    0.5360 C   0  0  0  0  0  0  0  0  0  0  0  0
    4.2800   -0.3400   -0.2320 C   0  0  0  0  0  0  0  0  0  0  0  0
    3.3190   -1.0520   -0.9020 C   0  0  0  0  0  0  0  0  0  0  0  0
    1.9910   -0.6700   -0.8050 C   0  0  0  0  0  0  0  0  0  0  0  0
    1.1350   -1.3990   -1.5770 F   0  0  0  0  0  0  0  0  0  0  0  0
    0.0440    2.2700   -0.1900 N   0  0  0  0  0  0  0  0  0  0  0  0
   -0.4470   -1.3170    0.4710 C   0  0  0  0  0  0  0  0  0  0  0  0
   -1.1890   -2.4070    0.4320 C   0  0  0  0  0  0  0  0  0  0  0  0
   -2.6500   -2.3370    0.0110 C   0  0  0  0  0  0  0  0  0  0  0  0
   -3.2310   -1.3550    0.8600 O   0  0  0  0  0  0  0  0  0  0  0  0
   -3.3840   -0.1390    0.2600 C   0  0  0  0  0  0  0  0  0  0  0  0
  1  2  2  0
  2  3  1  0
  2 14  1  0
  3  4  2  0
  4  5  1  0
  4 19  1  0
  5  6  2  0
  5 15  1  0
  6  7  1  0
  6 14  1  0
  7  8  2  0
  7 12  1  0
  8  9  1  0
  9 10  2  0
 10 11  1  0
 11 12  2  0
 12 13  1  0
 15 16  2  0
 16 17  1  0
 17 18  1  0
 18 19  1  0
M  END
