
     RDKit          3D

 19 21  0  0  0  0  0  0  0  0999 V2000
   -4.7720    1.4710   -0.5440 C   0  0  0  0  0  0  0  0  0  0  0  0
   -3.8310    0.3420   -0.2240 C   0  0  0  0  0  0  0  0  0  0  0  0
   -2.4910    0.6700   -0.2190 C   0  0  0  0  0  0  0  0  0  0  0  0
   -1.5830   -0.3400    0.0720 C   0  0  0  0  0  0  0  0  0  0  0  0
   -2.0540   -1.6320    0.3450 C   0  0  0  0  0  0  0  0  0  0  0  0
   -3.4060   -1.9220    0.3310 C   0  0  0  0  0  0  0  0  0  0  0  0
   -4.3080   -0.9220    0.0420 C   0  0  0  0  0  0  0  0  0  0  0  0
   -5.6570   -1.1420    0.0120 F   0  0  0  0  0  0  0  0  0  0  0  0
   -0.9730   -2.4510    0.6020 O   0  0  0  0  0  0  0  0  0  0  0  0
    0.2500   -1.7240    0.5060 C   0  0  0  0  0  0  0  0  0  0  0  0
   -0.1340   -0.3380    0.1590 C   0  0  0  0  0  0  0  0  0  0  0  0
    0.6490    0.6270   -0.0190 N   0  0  0  0  0  0  0  0  0  0  0  0
    2.0490    0.6170    0.0680 C   0  0  0  0  0  0  0  0  0  0  0  0
    2.8210    0.8470   -1.0510 C   0  0  0  0  0  0  0  0  0  0  0  0
    4.2040    0.8470   -1.0130 C   0  0  0  0  0  0  0  0  0  0  0  0
    4.8400    0.6090    0.1910 C   0  0  0  0  0  0  0  0  0  0  0  0
    6.2230    0.6070    0.2440 O   0  0  0  0  0  0  0  0  0  0  0  0
    4.0960    0.3760    1.3280 C   0  0  0  0  0  0  0  0  0  0  0  0
    2.7080    0.3820    1.2570 C   0  0  0  0  0  0  0  0  0  0  0  0
  1  2  1  0
  2  3  2  0
  2  7  1  0
  3  4  1  0
  4  5  2  0
  4 11  1  0
  5  6  1  0
  5  9  1  0
  6  7  2  0
  7  8  1  0
  9 10  1  0
 10 11  1  0
 11 12  2  3
 12 13  1  0
 13 14  2  0
 13 19  1  0
 14 15  1  0
 15 16  2  0
 16 17  1  0
 16 18  1  0
 18 19  2  0
M  END
