
     RDKit          3D

 19 21  0  0  0  0  0  0  0  0999 V2000
    4.2640   -0.3510   -0.0950 C   0  0  0  0  0  0  0  0  0  0  0  0
    3.1660    0.6860   -0.1800 C   0  0  0  0  0  0  0  0  0  0  0  0
    1.8880    0.1080   -0.2150 O   0  0  0  0  0  0  0  0  0  0  0  0
    0.7690    0.8660   -0.2910 C   0  0  0  0  0  0  0  0  0  0  0  0
    0.9560    2.2450   -0.3320 C   0  0  0  0  0  0  0  0  0  0  0  0
   -0.1140    3.1040   -0.4090 C   0  0  0  0  0  0  0  0  0  0  0  0
   -1.3940    2.6040   -0.4480 C   0  0  0  0  0  0  0  0  0  0  0  0
   -2.4250    3.4880   -0.5240 F   0  0  0  0  0  0  0  0  0  0  0  0
   -1.6000    1.2450   -0.4080 C   0  0  0  0  0  0  0  0  0  0  0  0
   -2.8950    0.7920   -0.4490 C   0  0  0  0  0  0  0  0  0  0  0  0
   -3.1730   -0.5440   -0.4140 C   0  0  0  0  0  0  0  0  0  0  0  0
   -4.4660   -1.0170   -0.4530 O   0  0  0  0  0  0  0  0  0  0  0  0
   -2.1000   -1.3970   -0.3360 C   0  0  0  0  0  0  0  0  0  0  0  0
   -2.3500   -2.7570   -0.2990 C   0  0  0  0  0  0  0  0  0  0  0  0
   -1.3390   -3.6240   -0.2240 N   0  0  0  0  0  0  0  0  0  0  0  0
   -0.0620   -3.2360   -0.1820 C   0  0  0  0  0  0  0  0  0  0  0  0
    0.2580   -1.8670   -0.2160 C   0  0  0  0  0  0  0  0  0  0  0  0
   -0.7660   -0.9720   -0.2930 C   0  0  0  0  0  0  0  0  0  0  0  0
   -0.5170    0.3860   -0.3300 C   0  0  0  0  0  0  0  0  0  0  0  0
  1  2  1  0
  2  3  1  0
  3  4  1  0
  4  5  2  0
  4 19  1  0
  5  6  1  0
  6  7  2  0
  7  8  1  0
  7  9  1  0
  9 10  2  0
  9 19  1  0
 10 11  1  0
 11 12  1  0
 11 13  2  0
 13 14  1  0
 13 18  1  0
 14 15  2  0
 15 16  1  0
 16 17  2  0
 17 18  1  0
 18 19  2  0
M  END
