
     RDKit          3D

 10 10  0  0  0  0  0  0  0  0999 V2000
    2.9680   -0.4580    0.5670 C   0  0  0  0  0  0  0  0  0  0  0  0
    1.8990    0.9820    0.2700 S   0  0  0  0  0  0  0  0  0  0  0  0
    0.2120    0.3850    0.2040 C   0  0  0  0  0  0  0  0  0  0  0  0
   -0.1210   -0.9310    0.3600 C   0  0  0  0  0  0  0  0  0  0  0  0
   -1.3810   -1.4050    0.3150 N   0  0  0  0  0  0  0  0  0  0  0  0
   -2.3630   -0.5110    0.1020 C   0  0  0  0  0  0  0  0  0  0  0  0
   -3.5530   -0.9580    0.0590 O   0  0  0  0  0  0  0  0  0  0  0  0
   -2.1390    0.8350   -0.0680 C   0  0  0  0  0  0  0  0  0  0  0  0
   -0.8270    1.2790   -0.0140 C   0  0  0  0  0  0  0  0  0  0  0  0
   -0.6080    2.6300   -0.1850 O   0  0  0  0  0  0  0  0  0  0  0  0
  1  2  1  0
  2  3  1  0
  3  4  2  0
  3  9  1  0
  4  5  1  0
  5  6  1  0
  6  7  2  0
  6  8  1  0
  8  9  2  0
  9 10  1  0
M  END
