
     RDKit          3D

 10 10  0  0  0  0  0  0  0  0999 V2000
    2.4960   -0.0830    0.2150 C   0  0  0  0  0  0  0  0  0  0  0  0
    1.1380    0.4400    0.1330 N   0  0  0  0  0  0  0  0  0  0  0  0
    0.0510   -0.5090   -0.0580 C   0  0  0  0  0  0  0  0  0  0  0  0
    0.3500   -1.8320   -0.1440 C   0  0  0  0  0  0  0  0  0  0  0  0
   -1.2470   -2.5810   -0.3660 S   0  0  0  0  0  0  0  0  0  0  0  0
   -2.1790   -1.1270   -0.3300 C   0  0  0  0  0  0  0  0  0  0  0  0
   -1.2270   -0.1260   -0.1500 C   0  0  0  0  0  0  0  0  0  0  0  0
   -1.7260    1.2770   -0.0770 C   0  0  0  0  0  0  0  0  0  0  0  0
   -2.9660    1.5310   -0.1760 O   0  0  0  0  0  0  0  0  0  0  0  0
   -0.9290    2.3810    0.0970 O   0  0  0  0  0  0  0  0  0  0  0  0
  1  2  1  0
  2  3  1  0
  3  4  2  0
  3  7  1  0
  4  5  1  0
  5  6  1  0
  6  7  2  0
  7  8  1  0
  8  9  2  0
  8 10  1  0
M  END
