
     RDKit          3D

 10 10  0  0  0  0  0  0  0  0999 V2000
   -3.1660    0.5930    0.6960 C   0  0  0  0  0  0  0  0  0  0  0  0
   -1.8510    0.1330    0.2270 C   0  0  0  0  0  0  0  0  0  0  0  0
   -1.5310   -0.8470   -0.6880 C   0  0  0  0  0  0  0  0  0  0  0  0
   -0.2600   -1.0900   -0.9540 C   0  0  0  0  0  0  0  0  0  0  0  0
    0.7030   -0.3480   -0.3020 C   0  0  0  0  0  0  0  0  0  0  0  0
    2.1230   -0.3910   -0.3890 N   0  0  0  0  0  0  0  0  0  0  0  0
    2.9520    0.4680    0.3750 C   0  0  0  0  0  0  0  0  0  0  0  0
    2.4070    1.2860    1.1480 O   0  0  0  0  0  0  0  0  0  0  0  0
    4.3260    0.3920    0.2600 O   0  0  0  0  0  0  0  0  0  0  0  0
   -0.2740    0.7090    0.7050 S   0  0  0  0  0  0  0  0  0  0  0  0
  1  2  1  0
  2  3  2  0
  2 10  1  0
  3  4  1  0
  4  5  2  0
  5  6  1  0
  5 10  1  0
  6  7  1  0
  7  8  2  0
  7  9  1  0
M  END
