
     RDKit          3D

 10 10  0  0  0  0  0  0  0  0999 V2000
    3.1130    0.2260   -0.0350 C   0  0  0  0  0  0  0  0  0  0  0  0
    1.7590   -0.3560    0.2850 C   0  0  0  0  0  0  0  0  0  0  0  0
    1.6990   -1.4130    0.9440 O   0  0  0  0  0  0  0  0  0  0  0  0
    0.5860    0.2730   -0.1460 N   0  0  0  0  0  0  0  0  0  0  0  0
   -0.7640   -0.2230    0.1200 C   0  0  0  0  0  0  0  0  0  0  0  0
   -0.9370   -1.3750    0.8340 C   0  0  0  0  0  0  0  0  0  0  0  0
   -2.7520   -1.5610    0.8920 S   0  0  0  0  0  0  0  0  0  0  0  0
   -3.0810   -0.1000   -0.0320 C   0  0  0  0  0  0  0  0  0  0  0  0
   -1.8900    0.4120   -0.3130 C   0  0  0  0  0  0  0  0  0  0  0  0
   -1.8130    1.6300   -1.0720 O   0  0  0  0  0  0  0  0  0  0  0  0
  1  2  1  0
  2  3  2  0
  2  4  1  0
  4  5  1  0
  5  6  2  0
  5  9  1  0
  6  7  1  0
  7  8  1  0
  8  9  2  0
  9 10  1  0
M  END
