
     RDKit          3D

  9  9  0  0  0  0  0  0  0  0999 V2000
    3.0780   -0.2970    0.3000 N   0  0  0  0  0  0  0  0  0  0  0  0
    2.2940    0.7540   -0.2680 C   0  0  0  0  0  0  0  0  0  0  0  0
    2.6520    1.9610   -0.1710 O   0  0  0  0  0  0  0  0  0  0  0  0
    1.0300    0.4140   -0.9870 C   0  0  0  0  0  0  0  0  0  0  0  0
   -0.0110   -0.1240   -0.0540 C   0  0  2  0  0  0  0  0  0  0  0  0
   -1.2640   -0.4180   -0.8380 C   0  0  0  0  0  0  0  0  0  0  0  0
   -2.3220   -0.4620    0.2330 C   0  0  0  0  0  0  0  0  0  0  0  0
   -1.6790    0.3190    1.3480 C   0  0  0  0  0  0  0  0  0  0  0  0
   -0.4340    0.7360    0.9210 O   0  0  0  0  0  0  0  0  0  0  0  0
  1  2  1  0
  2  3  2  0
  2  4  1  0
  5  4  1  6
  5  6  1  0
  5  9  1  0
  6  7  1  0
  7  8  1  0
  8  9  1  0
M  END
