
     RDKit          3D

 10 10  0  0  0  0  0  0  0  0999 V2000
   -2.7890    0.4700   -0.8710 N   0  0  0  0  0  0  0  0  0  0  0  0
   -1.9690   -0.3470    0.4010 S   0  0  1  0  0  0  0  0  0  0  0  0
   -2.4490    0.0590    1.7440 O   0  0  0  0  0  0  0  0  0  0  0  0
   -2.2650   -1.8300    0.2450 O   0  0  0  0  0  0  0  0  0  0  0  0
   -0.2410   -0.1310    0.2140 C   0  0  0  0  0  0  0  0  0  0  0  0
    0.4960   -1.0380   -0.5310 C   0  0  0  0  0  0  0  0  0  0  0  0
    1.8430   -0.8640   -0.6730 C   0  0  0  0  0  0  0  0  0  0  0  0
    2.4920    0.2020   -0.0870 C   0  0  0  0  0  0  0  0  0  0  0  0
    1.7740    1.1220    0.6640 C   0  0  0  0  0  0  0  0  0  0  0  0
    0.4160    0.9330    0.7980 C   0  0  0  0  0  0  0  0  0  0  0  0
  2  1  1  6
  2  3  2  0
  2  4  2  0
  2  5  1  0
  5  6  2  0
  5 10  1  0
  6  7  1  0
  7  8  2  0
  8  9  1  0
  9 10  2  0
M  END
