
     RDKit          3D

 10 10  0  0  0  0  0  0  0  0999 V2000
    3.1870   -0.1090    0.5530 C   0  0  0  0  0  0  0  0  0  0  0  0
    1.7680   -0.2080    0.4040 O   0  0  0  0  0  0  0  0  0  0  0  0
    1.0360    0.6950   -0.3080 C   0  0  0  0  0  0  0  0  0  0  0  0
    1.6320    1.6510   -0.8530 O   0  0  0  0  0  0  0  0  0  0  0  0
   -0.4190    0.6110   -0.4730 C   0  0  0  0  0  0  0  0  0  0  0  0
   -1.4110    1.7840   -1.4030 S   0  0  0  0  0  0  0  0  0  0  0  0
   -2.9860    0.9260   -1.0710 C   0  0  0  0  0  0  0  0  0  0  0  0
   -2.6100   -0.1130   -0.3230 C   0  0  0  0  0  0  0  0  0  0  0  0
   -1.3280   -0.3040   -0.0020 C   0  0  0  0  0  0  0  0  0  0  0  0
   -0.8460   -1.4160    0.8100 N   0  0  0  0  0  0  0  0  0  0  0  0
  1  2  1  0
  2  3  1  0
  3  4  2  0
  3  5  1  0
  5  6  1  0
  5  9  2  0
  6  7  1  0
  7  8  2  0
  8  9  1  0
  9 10  1  0
M  END
