
     RDKit          3D

 10 11  0  0  0  0  0  0  0  0999 V2000
    3.1080   -0.2040   -0.4680 N   0  0  0  0  0  0  0  0  0  0  0  0
    1.7560    0.0940   -0.1870 C   0  0  0  0  0  0  0  0  0  0  0  0
    0.7070   -0.6800   -0.6480 C   0  0  0  0  0  0  0  0  0  0  0  0
   -0.6170   -0.3900   -0.3740 C   0  0  0  0  0  0  0  0  0  0  0  0
   -0.9190    0.7180    0.3920 C   0  0  0  0  0  0  0  0  0  0  0  0
    0.1340    1.4780    0.8450 C   0  0  0  0  0  0  0  0  0  0  0  0
    1.4120    1.1690    0.5600 N   0  0  0  0  0  0  0  0  0  0  0  0
   -2.3150    0.7790    0.5160 O   0  0  0  0  0  0  0  0  0  0  0  0
   -2.8490   -0.5170    0.2000 C   0  0  0  0  0  0  0  0  0  0  0  0
   -1.8310   -0.9780   -0.7000 O   0  0  0  0  0  0  0  0  0  0  0  0
  1  2  1  0
  2  3  2  0
  2  7  1  0
  3  4  1  0
  4  5  2  0
  4 10  1  0
  5  6  1  0
  5  8  1  0
  6  7  2  0
  8  9  1  0
  9 10  1  0
M  END
