
     RDKit          3D

 11 11  0  0  0  0  0  0  0  0999 V2000
    3.7430    1.1020    0.4420 O   0  0  0  0  0  0  0  0  0  0  0  0
    2.6560    0.2380    0.5610 C   0  0  0  0  0  0  0  0  0  0  0  0
    2.2510   -0.2120   -0.8230 C   0  0  0  0  0  0  0  0  0  0  0  0
    0.8390   -1.3380   -0.7170 S   0  0  0  0  0  0  0  0  0  0  0  0
   -0.5790   -0.4240   -0.1280 C   0  0  0  0  0  0  0  0  0  0  0  0
   -0.5210    0.8850    0.1740 N   0  0  0  0  0  0  0  0  0  0  0  0
   -1.5880    1.5970    0.6130 C   0  0  0  0  0  0  0  0  0  0  0  0
   -2.7910    0.9460    0.7580 C   0  0  0  0  0  0  0  0  0  0  0  0
   -2.9250   -0.4040    0.4670 C   0  0  0  0  0  0  0  0  0  0  0  0
   -1.8080   -1.0680    0.0260 C   0  0  0  0  0  0  0  0  0  0  0  0
   -1.8820   -2.4310   -0.2830 O   0  0  0  0  0  0  0  0  0  0  0  0
  1  2  1  0
  2  3  1  0
  3  4  1  0
  4  5  1  0
  5  6  2  0
  5 10  1  0
  6  7  1  0
  7  8  2  0
  8  9  1  0
  9 10  2  0
 10 11  1  0
M  END
