
     RDKit          3D

 11 11  0  0  0  0  0  0  0  0999 V2000
   -4.2470    0.5030    0.0080 C   0  0  0  0  0  0  0  0  0  0  0  0
   -2.7970    0.2050   -0.0210 C   0  0  0  0  0  0  0  0  0  0  0  0
   -2.1020   -0.9280   -0.1190 C   0  0  0  0  0  0  0  0  0  0  0  0
   -0.7490   -0.8930   -0.1210 C   0  0  0  0  0  0  0  0  0  0  0  0
   -0.1400    0.2880   -0.0230 C   0  0  0  0  0  0  0  0  0  0  0  0
    1.2230    0.7210    0.0100 N   0  0  0  0  0  0  0  0  0  0  0  0
    2.3170   -0.1540   -0.0680 C   0  0  0  0  0  0  0  0  0  0  0  0
    2.0890   -1.3830   -0.1710 O   0  0  0  0  0  0  0  0  0  0  0  0
    3.7360    0.3070   -0.0330 C   0  0  0  0  0  0  0  0  0  0  0  0
    4.5910   -0.7870   -0.1290 O   0  0  0  0  0  0  0  0  0  0  0  0
   -1.5070    1.4710    0.0820 S   0  0  0  0  0  0  0  0  0  0  0  0
  1  2  1  0
  2  3  2  0
  2 11  1  0
  3  4  1  0
  4  5  2  0
  5  6  1  0
  5 11  1  0
  6  7  1  0
  7  8  2  0
  7  9  1  0
  9 10  1  0
M  END
