
     RDKit          3D

 10 10  0  0  0  0  0  0  0  0999 V2000
   -2.9520    0.6160    0.2840 C   0  0  0  0  0  0  0  0  0  0  0  0
   -2.2020   -0.7730    1.1740 S   0  0  0  0  0  0  0  0  0  0  0  0
   -0.8830   -1.5450    0.2020 C   0  0  0  0  0  0  0  0  0  0  0  0
    0.2830   -0.6600    0.0100 C   0  0  0  0  0  0  0  0  0  0  0  0
    1.3050   -0.7030    0.9230 C   0  0  0  0  0  0  0  0  0  0  0  0
    2.4140    0.1270    0.7620 C   0  0  0  0  0  0  0  0  0  0  0  0
    2.4790    0.9650   -0.2870 N   0  0  0  0  0  0  0  0  0  0  0  0
    1.4840    1.0090   -1.1790 C   0  0  0  0  0  0  0  0  0  0  0  0
    1.5350    1.7950   -2.1720 O   0  0  0  0  0  0  0  0  0  0  0  0
    0.3630    0.1970   -1.0500 C   0  0  0  0  0  0  0  0  0  0  0  0
  1  2  1  0
  2  3  1  0
  3  4  1  0
  4  5  1  0
  4 10  2  0
  5  6  2  0
  6  7  1  0
  7  8  1  0
  8  9  2  0
  8 10  1  0
M  END
