
     RDKit          3D

 11 11  0  0  0  0  0  0  0  0999 V2000
   -3.3010    0.2720   -0.1430 C   0  0  0  0  0  0  0  0  0  0  0  0
   -1.8370    0.0580   -0.0940 C   0  0  0  0  0  0  0  0  0  0  0  0
   -1.2220   -0.4630    1.0250 C   0  0  0  0  0  0  0  0  0  0  0  0
    0.1410   -0.6610    1.0660 C   0  0  0  0  0  0  0  0  0  0  0  0
    0.9290   -0.3430   -0.0120 C   0  0  0  0  0  0  0  0  0  0  0  0
    2.6610   -0.6060    0.0710 S   0  0  1  0  0  0  0  0  0  0  0  0
    3.4610    0.7910    0.6850 N   0  0  0  0  0  0  0  0  0  0  0  0
    2.9830   -1.7480    1.0070 O   0  0  0  0  0  0  0  0  0  0  0  0
    3.2290   -0.9220   -1.2690 O   0  0  0  0  0  0  0  0  0  0  0  0
    0.3080    0.1780   -1.1290 C   0  0  0  0  0  0  0  0  0  0  0  0
   -1.0580    0.3880   -1.1990 C   0  0  0  0  0  0  0  0  0  0  0  0
  1  2  1  0
  2  3  2  0
  2 11  1  0
  3  4  1  0
  4  5  2  0
  5  6  1  0
  5 10  1  0
  6  7  1  1
  6  8  2  0
  6  9  2  0
 10 11  2  0
M  END
