
     RDKit          3D

 11 11  0  0  0  0  0  0  0  0999 V2000
    4.4620    0.2510    0.2230 N   0  0  0  0  0  0  0  0  0  0  0  0
    3.3910   -0.4750   -0.3270 C   0  0  0  0  0  0  0  0  0  0  0  0
    3.6330   -1.1970   -1.3520 O   0  0  0  0  0  0  0  0  0  0  0  0
    1.9950   -0.4920    0.1690 C   0  0  0  0  0  0  0  0  0  0  0  0
    0.9760    0.2190   -1.1170 S   0  0  0  0  0  0  0  0  0  0  0  0
   -0.7490    0.3350   -0.7760 C   0  0  1  0  0  0  0  0  0  0  0  0
   -1.4710   -0.9770   -0.6190 C   0  0  0  0  0  0  0  0  0  0  0  0
   -2.3520   -1.0100    0.5990 C   0  0  0  0  0  0  0  0  0  0  0  0
   -3.1740    0.0830    0.7560 O   0  0  0  0  0  0  0  0  0  0  0  0
   -2.6640    1.2670    0.3120 C   0  0  0  0  0  0  0  0  0  0  0  0
   -1.1280    1.2330    0.3820 C   0  0  0  0  0  0  0  0  0  0  0  0
  1  2  1  0
  2  3  2  0
  2  4  1  0
  4  5  1  0
  6  5  1  1
  6  7  1  0
  6 11  1  0
  7  8  1  0
  8  9  1  0
  9 10  1  0
 10 11  1  0
M  END
