
     RDKit          3D

 13 13  0  0  0  0  0  0  0  0999 V2000
    4.5630    0.1160   -0.0440 N   0  0  0  0  0  0  0  0  0  0  0  0
    3.3390    0.8450   -0.2680 C   0  0  0  0  0  0  0  0  0  0  0  0
    3.3630    2.0300   -0.6590 O   0  0  0  0  0  0  0  0  0  0  0  0
    2.0750    0.1560   -0.0250 C   0  0  0  0  0  0  0  0  0  0  0  0
    0.9580    0.7930   -0.2210 C   0  0  0  0  0  0  0  0  0  0  0  0
   -0.3190    0.1330    0.0130 C   0  0  0  0  0  0  0  0  0  0  0  0
   -0.4740   -1.1760    0.4460 C   0  0  0  0  0  0  0  0  0  0  0  0
   -1.8340   -1.3790    0.5300 C   0  0  0  0  0  0  0  0  0  0  0  0
   -2.4610   -0.2170    0.1550 C   0  0  0  0  0  0  0  0  0  0  0  0
   -3.8990    0.0070    0.1000 C   0  0  0  0  0  0  0  0  0  0  0  0
   -4.4030    1.2570   -0.2190 O   0  0  0  0  0  0  0  0  0  0  0  0
   -4.9610   -1.1920    0.4060 S   0  0  0  0  0  0  0  0  0  0  0  0
   -1.5220    0.6310   -0.1360 O   0  0  0  0  0  0  0  0  0  0  0  0
  1  2  1  0
  2  3  2  0
  2  4  1  0
  4  5  2  3
  5  6  1  0
  6  7  2  0
  6 13  1  0
  7  8  1  0
  8  9  2  0
  9 10  1  0
  9 13  1  0
 10 11  1  0
 10 12  2  0
M  END
