
     RDKit          3D

 13 13  0  0  0  0  0  0  0  0999 V2000
   -3.8060    0.4640    0.3470 C   0  0  0  0  0  0  0  0  0  0  0  0
   -2.5740    0.6380   -0.5280 C   0  0  0  0  0  0  0  0  0  0  0  0
   -1.3670    0.4280    0.1480 N   0  0  0  0  0  0  0  0  0  0  0  0
   -1.0280   -0.9650    0.4080 C   0  0  0  0  0  0  0  0  0  0  0  0
    0.1870   -0.9340    1.2550 C   0  0  0  0  0  0  0  0  0  0  0  0
    0.0180   -1.2080    2.4910 O   0  0  0  0  0  0  0  0  0  0  0  0
    1.4940   -0.5880    0.7550 C   0  0  0  0  0  0  0  0  0  0  0  0
    2.8240   -0.1880    2.0020 S   0  0  0  0  0  0  0  0  0  0  0  0
    4.0090    0.3710    0.7540 C   0  0  0  0  0  0  0  0  0  0  0  0
    3.3630    0.2220   -0.4160 C   0  0  0  0  0  0  0  0  0  0  0  0
    4.0280    0.5850   -1.6310 O   0  0  0  0  0  0  0  0  0  0  0  0
    2.0770   -0.2780   -0.3830 C   0  0  0  0  0  0  0  0  0  0  0  0
    1.4030   -0.4520   -1.6430 O   0  0  0  0  0  0  0  0  0  0  0  0
  1  2  1  0
  2  3  1  0
  3  4  1  0
  4  5  1  0
  5  6  2  0
  5  7  1  0
  7  8  1  0
  7 12  2  0
  8  9  1  0
  9 10  2  0
 10 11  1  0
 10 12  1  0
 12 13  1  0
M  END
