
     RDKit          3D

 13 13  0  0  0  0  0  0  0  0999 V2000
    5.3040   -0.5620    0.7520 N   0  0  0  0  0  0  0  0  0  0  0  0
    4.3090   -1.0160    1.6570 C   0  0  0  0  0  0  0  0  0  0  0  0
    4.6710   -1.5970    2.7100 O   0  0  0  0  0  0  0  0  0  0  0  0
    2.5840   -0.7570    1.2930 S   0  0  0  0  0  0  0  0  0  0  0  0
    2.4420    0.0960   -0.2760 C   0  0  0  0  0  0  0  0  0  0  0  0
    1.0420    0.3570   -0.6680 C   0  0  0  0  0  0  0  0  0  0  0  0
    0.8520    0.9540   -1.7600 O   0  0  0  0  0  0  0  0  0  0  0  0
   -0.0600    0.0000    0.0660 O   0  0  0  0  0  0  0  0  0  0  0  0
   -1.3640    0.2700   -0.3470 C   0  0  2  0  0  0  0  0  0  0  0  0
   -2.1680    1.0580    0.6620 C   0  0  0  0  0  0  0  0  0  0  0  0
   -3.5700    0.9290    0.0720 C   0  0  0  0  0  0  0  0  0  0  0  0
   -3.5750   -0.3560   -0.7150 C   0  0  0  0  0  0  0  0  0  0  0  0
   -2.2100   -0.9780   -0.4620 C   0  0  0  0  0  0  0  0  0  0  0  0
  1  2  1  0
  2  3  2  0
  2  4  1  0
  4  5  1  0
  5  6  1  0
  6  7  2  0
  6  8  1  0
  9  8  1  1
  9 10  1  0
  9 13  1  0
 10 11  1  0
 11 12  1  0
 12 13  1  0
M  END
