
     RDKit          3D

 13 13  0  0  0  0  0  0  0  0999 V2000
   -4.0030    1.0480    0.7640 N   0  0  0  0  0  0  0  0  0  0  0  0
   -3.5310   -0.4370    0.0250 S   0  0  1  0  0  0  0  0  0  0  0  0
   -4.0730   -1.6230    0.7360 O   0  0  0  0  0  0  0  0  0  0  0  0
   -4.0290   -0.4880   -1.3950 O   0  0  0  0  0  0  0  0  0  0  0  0
   -1.7730   -0.4500   -0.0240 C   0  0  0  0  0  0  0  0  0  0  0  0
   -1.0130   -0.9680    1.0010 C   0  0  0  0  0  0  0  0  0  0  0  0
    0.3590   -0.9590    0.9240 C   0  0  0  0  0  0  0  0  0  0  0  0
    1.0430   -0.4470   -0.1520 C   0  0  0  0  0  0  0  0  0  0  0  0
    2.4810   -0.3990   -0.3120 C   0  0  0  0  0  0  0  0  0  0  0  0
    3.1830    0.8020    0.1890 C   0  0  0  0  0  0  0  0  0  0  0  0
    4.5500    0.6650   -0.0540 O   0  0  0  0  0  0  0  0  0  0  0  0
    0.2640    0.0760   -1.1870 C   0  0  0  0  0  0  0  0  0  0  0  0
   -1.1040    0.0690   -1.1140 C   0  0  0  0  0  0  0  0  0  0  0  0
  2  1  1  1
  2  3  2  0
  2  4  2  0
  2  5  1  0
  5  6  2  0
  5 13  1  0
  6  7  1  0
  7  8  2  0
  8  9  1  0
  8 12  1  0
  9 10  1  0
 10 11  1  0
 12 13  2  0
M  END
