
     RDKit          3D

 13 13  0  0  0  0  0  0  0  0999 V2000
   -3.5590   -1.2410    1.1530 N   0  0  0  0  0  0  0  0  0  0  0  0
   -2.5590   -0.5530    0.4190 C   0  0  0  0  0  0  0  0  0  0  0  0
   -2.0340   -1.2480   -0.9570 S   0  0  0  0  0  0  0  0  0  0  0  0
   -2.0300    0.7450    0.8730 C   0  0  0  0  0  0  0  0  0  0  0  0
   -0.9570    1.2420    0.1480 O   0  0  0  0  0  0  0  0  0  0  0  0
    0.2830    0.7240   -0.0350 C   0  0  0  0  0  0  0  0  0  0  0  0
    0.6200   -0.4650    0.5670 C   0  0  0  0  0  0  0  0  0  0  0  0
    1.8900   -1.0270    0.3980 C   0  0  0  0  0  0  0  0  0  0  0  0
    2.2590   -2.2180    0.9870 O   0  0  0  0  0  0  0  0  0  0  0  0
    2.8020   -0.3580   -0.3910 C   0  0  0  0  0  0  0  0  0  0  0  0
    2.4440    0.8460   -0.9940 C   0  0  0  0  0  0  0  0  0  0  0  0
    1.1910    1.3980   -0.8250 C   0  0  0  0  0  0  0  0  0  0  0  0
    0.8960    2.6010   -1.4520 O   0  0  0  0  0  0  0  0  0  0  0  0
  1  2  1  0
  2  3  2  0
  2  4  1  0
  4  5  1  0
  5  6  1  0
  6  7  2  0
  6 12  1  0
  7  8  1  0
  8  9  1  0
  8 10  2  0
 10 11  1  0
 11 12  2  0
 12 13  1  0
M  END
