
     RDKit          3D

 13 13  0  0  0  0  0  0  0  0999 V2000
    2.8250    2.5360    1.7140 N   0  0  0  0  0  0  0  0  0  0  0  0
    2.9660    1.4310    1.3830 C   0  0  0  0  0  0  0  0  0  0  0  0
    3.1690    0.0510    0.9640 C   0  0  0  0  0  0  0  0  0  0  0  0
    1.8130   -1.0020    1.4720 S   0  0  0  0  0  0  0  0  0  0  0  0
    0.2850   -0.6000    0.6510 C   0  0  0  0  0  0  0  0  0  0  0  0
   -0.6340    0.3030    1.1330 C   0  0  0  0  0  0  0  0  0  0  0  0
   -1.8110    0.5940    0.4690 C   0  0  0  0  0  0  0  0  0  0  0  0
   -2.7340    1.5020    0.9550 O   0  0  0  0  0  0  0  0  0  0  0  0
   -2.0850   -0.0460   -0.7270 C   0  0  0  0  0  0  0  0  0  0  0  0
   -3.2510    0.2390   -1.3880 O   0  0  0  0  0  0  0  0  0  0  0  0
   -1.1870   -0.9560   -1.2390 C   0  0  0  0  0  0  0  0  0  0  0  0
   -0.0230   -1.2250   -0.5560 C   0  0  0  0  0  0  0  0  0  0  0  0
    0.8960   -2.1350   -1.0460 O   0  0  0  0  0  0  0  0  0  0  0  0
  1  2  3  0
  2  3  1  0
  3  4  1  0
  4  5  1  0
  5  6  2  0
  5 12  1  0
  6  7  1  0
  7  8  1  0
  7  9  2  0
  9 10  1  0
  9 11  1  0
 11 12  2  0
 12 13  1  0
M  END
