
     RDKit          3D

 19 19  0  0  0  0  0  0  0  0999 V2000
    6.5010   -0.0560   -0.0420 N   0  0  0  0  0  0  0  0  0  0  0  0
    5.6250    1.0700   -0.2840 C   0  0  0  0  0  0  0  0  0  0  0  0
    4.2270    0.8080    0.2380 C   0  0  2  0  0  0  0  0  0  0  0  0
    4.2520    0.5740    1.6110 O   0  0  0  0  0  0  0  0  0  0  0  0
    3.5660   -0.3260   -0.5080 C   0  0  0  0  0  0  0  0  0  0  0  0
    2.2470   -0.5510   -0.1300 O   0  0  0  0  0  0  0  0  0  0  0  0
    1.1980    0.3460   -0.2190 C   0  0  0  0  0  0  0  0  0  0  0  0
    1.4390    1.4860   -0.6860 O   0  0  0  0  0  0  0  0  0  0  0  0
   -0.1970    0.0580    0.2000 C   0  0  0  0  0  0  0  0  0  0  0  0
   -0.9850   -0.2390   -1.0480 C   0  0  2  0  0  0  0  0  0  0  0  0
   -0.9150    0.9030   -1.8640 O   0  0  0  0  0  0  0  0  0  0  0  0
   -2.4060   -0.5670   -0.8290 C   0  0  1  0  0  0  0  0  0  0  0  0
   -2.9790   -0.8110   -2.0980 O   0  0  0  0  0  0  0  0  0  0  0  0
   -2.7020   -1.7270    0.0350 C   0  0  0  0  0  0  0  0  0  0  0  0
   -3.6830   -1.1690    1.0450 C   0  0  0  0  0  0  0  0  0  0  0  0
   -4.2690   -0.0150    0.2570 C   0  0  1  0  0  0  0  0  0  0  0  0
   -4.9480    0.9980    1.1360 C   0  0  0  0  0  0  0  0  0  0  0  0
   -6.0910    0.3820    1.6760 O   0  0  0  0  0  0  0  0  0  0  0  0
   -3.1190    0.5310   -0.3170 O   0  0  0  0  0  0  0  0  0  0  0  0
  1  2  1  0
  2  3  1  0
  3  4  1  1
  3  5  1  0
  5  6  1  0
  6  7  1  0
  7  8  2  0
  7  9  1  0
  9 10  1  0
 10 11  1  6
 10 12  1  0
 12 13  1  6
 12 14  1  0
 12 19  1  0
 14 15  1  0
 15 16  1  0
 16 17  1  1
 16 19  1  0
 17 18  1  0
M  END
