
     RDKit          3D

 20 20  0  0  0  0  0  0  0  0999 V2000
   -3.9940   -1.9520    1.3860 C   0  0  0  0  0  0  0  0  0  0  0  0
   -2.9330   -0.9440    1.1250 C   0  0  0  0  0  0  0  0  0  0  0  0
   -2.6120   -0.1890    2.0790 O   0  0  0  0  0  0  0  0  0  0  0  0
   -2.2920   -0.8160   -0.1350 N   0  0  0  0  0  0  0  0  0  0  0  0
   -1.2870    0.1640   -0.3260 C   0  0  2  0  0  0  0  0  0  0  0  0
   -1.6980    1.2310   -1.3470 C   0  0  1  0  0  0  0  0  0  0  0  0
   -3.0050    1.6440   -1.1040 O   0  0  0  0  0  0  0  0  0  0  0  0
   -0.7450    2.3490   -1.1180 C   0  0  0  0  0  0  0  0  0  0  0  0
    0.5360    2.0350   -1.0140 C   0  0  0  0  0  0  0  0  0  0  0  0
    1.5510    3.0730   -0.7880 C   0  0  0  0  0  0  0  0  0  0  0  0
    1.1450    4.2580   -0.6990 O   0  0  0  0  0  0  0  0  0  0  0  0
    2.8840    2.8040   -0.6740 O   0  0  0  0  0  0  0  0  0  0  0  0
    0.8610    0.6980   -1.1290 O   0  0  0  0  0  0  0  0  0  0  0  0
    0.0600   -0.3830   -0.6970 C   0  0  1  0  0  0  0  0  0  0  0  0
    0.7460   -0.9940    0.5000 C   0  0  2  0  0  0  0  0  0  0  0  0
    0.8950   -0.0920    1.5380 O   0  0  0  0  0  0  0  0  0  0  0  0
    2.0240   -1.6710    0.1990 C   0  0  2  0  0  0  0  0  0  0  0  0
    2.4240   -2.3540    1.3710 O   0  0  0  0  0  0  0  0  0  0  0  0
    3.1570   -0.7770   -0.1790 C   0  0  0  0  0  0  0  0  0  0  0  0
    3.4690    0.1520    0.8150 O   0  0  0  0  0  0  0  0  0  0  0  0
  1  2  1  0
  2  3  2  0
  2  4  1  0
  5  4  1  6
  5  6  1  0
  5 14  1  0
  6  7  1  1
  6  8  1  0
  8  9  2  0
  9 10  1  0
  9 13  1  0
 10 11  2  0
 10 12  1  0
 14 13  1  1
 14 15  1  0
 15 16  1  1
 15 17  1  0
 17 18  1  1
 17 19  1  0
 19 20  1  0
M  END
