
     RDKit          3D

 20 20  0  0  0  0  0  0  0  0999 V2000
   -1.3600    0.2660    1.7200 C   0  0  0  0  0  0  0  0  0  0  0  0
   -1.2580   -0.4240    0.4050 C   0  0  2  0  0  0  0  0  0  0  0  0
   -1.2900   -1.8130    0.6520 O   0  0  0  0  0  0  0  0  0  0  0  0
    0.0410   -0.1240   -0.2820 C   0  0  0  0  0  0  0  0  0  0  0  0
    1.2370   -0.5620    0.5340 C   0  0  2  0  0  0  0  0  0  0  0  0
    1.2720    0.0810    1.7680 O   0  0  0  0  0  0  0  0  0  0  0  0
    2.5150   -0.3360   -0.2450 C   0  0  0  0  0  0  0  0  0  0  0  0
    3.5900   -0.8350    0.4870 O   0  0  0  0  0  0  0  0  0  0  0  0
    4.7460   -0.6150   -0.2480 C   0  0  1  0  0  0  0  0  0  0  0  0
    5.8210   -1.1230    0.5030 O   0  0  0  0  0  0  0  0  0  0  0  0
    4.7600   -1.2700   -1.4620 O   0  0  0  0  0  0  0  0  0  0  0  0
    4.9110    0.8270   -0.4280 N   0  0  0  0  0  0  0  0  0  0  0  0
    5.0150    1.4530    0.7660 O   0  0  0  0  0  0  0  0  0  0  0  0
   -2.4150   -0.1400   -0.5260 C   0  0  1  0  0  0  0  0  0  0  0  0
   -2.0830   -0.8750   -1.8370 C   0  0  0  0  0  0  0  0  0  0  0  0
   -3.6850   -0.7700   -0.0210 C   0  0  0  0  0  0  0  0  0  0  0  0
   -4.4000    0.0220    0.8420 O   0  0  0  0  0  0  0  0  0  0  0  0
   -4.5870    1.3170    0.3830 C   0  0  0  0  0  0  0  0  0  0  0  0
   -3.3180    1.9520   -0.0860 C   0  0  0  0  0  0  0  0  0  0  0  0
   -2.5200    1.1740   -0.8610 O   0  0  0  0  0  0  0  0  0  0  0  0
  2  1  1  1
  2  3  1  0
  2  4  1  0
  2 14  1  0
  4  5  1  0
  5  6  1  1
  5  7  1  0
  7  8  1  0
  8  9  1  0
  9 10  1  1
  9 11  1  0
  9 12  1  0
 12 13  1  0
 14 15  1  6
 14 16  1  0
 14 20  1  0
 16 17  1  0
 17 18  1  0
 18 19  1  0
 19 20  1  0
M  END
