
     RDKit          3D

 19 19  0  0  0  0  0  0  0  0999 V2000
   -0.1280   -0.3380   -2.2740 C   0  0  0  0  0  0  0  0  0  0  0  0
    0.0110   -0.1340   -0.7760 C   0  0  1  0  0  0  0  0  0  0  0  0
   -0.1000   -1.3680   -0.1800 O   0  0  0  0  0  0  0  0  0  0  0  0
    1.4210    0.3760   -0.5020 C   0  0  2  0  0  0  0  0  0  0  0  0
    2.4280   -0.5140   -1.1740 C   0  0  0  0  0  0  0  0  0  0  0  0
    3.4810   -0.8510   -0.3180 O   0  0  0  0  0  0  0  0  0  0  0  0
    3.8830    0.3640    0.2800 C   0  0  2  0  0  0  0  0  0  0  0  0
    5.1820    0.1770    0.9360 N   0  0  0  0  0  0  0  0  0  0  0  0
    2.8470    0.7280    1.2900 C   0  0  0  0  0  0  0  0  0  0  0  0
    1.5790    0.4610    0.8570 O   0  0  0  0  0  0  0  0  0  0  0  0
   -0.9830    0.8400   -0.2360 C   0  0  1  0  0  0  0  0  0  0  0  0
   -0.7650    2.0660   -0.9060 O   0  0  0  0  0  0  0  0  0  0  0  0
   -2.4090    0.4330   -0.2990 C   0  0  2  0  0  0  0  0  0  0  0  0
   -3.2410    1.5630    0.3020 C   0  0  0  0  0  0  0  0  0  0  0  0
   -4.5880    1.2900    0.2950 O   0  0  0  0  0  0  0  0  0  0  0  0
   -2.7780   -0.8500    0.3400 C   0  0  0  0  0  0  0  0  0  0  0  0
   -2.5120   -0.9680    1.7760 C   0  0  0  0  0  0  0  0  0  0  0  0
   -2.0020   -0.0140    2.4010 O   0  0  0  0  0  0  0  0  0  0  0  0
   -2.8080   -2.1200    2.4860 O   0  0  0  0  0  0  0  0  0  0  0  0
  2  1  1  6
  2  3  1  0
  2  4  1  0
  2 11  1  0
  4  5  1  1
  4 10  1  0
  5  6  1  0
  6  7  1  0
  7  8  1  1
  7  9  1  0
  9 10  1  0
 11 12  1  6
 11 13  1  0
 13 14  1  1
 13 16  1  0
 14 15  1  0
 16 17  1  0
 17 18  2  0
 17 19  1  0
M  END
