
     RDKit          3D

 19 19  0  0  0  0  0  0  0  0999 V2000
    0.8130   -1.6040    1.5880 O   0  0  0  0  0  0  0  0  0  0  0  0
    1.3640   -1.0200    0.6240 C   0  0  0  0  0  0  0  0  0  0  0  0
    0.5180   -0.4510   -0.3160 O   0  0  0  0  0  0  0  0  0  0  0  0
   -0.8880   -0.4890   -0.2570 C   0  0  1  0  0  0  0  0  0  0  0  0
   -1.4290   -1.8960   -0.2640 C   0  0  0  0  0  0  0  0  0  0  0  0
   -1.0600   -2.5920   -1.4140 O   0  0  0  0  0  0  0  0  0  0  0  0
   -1.4300    0.1880    0.9850 C   0  0  0  0  0  0  0  0  0  0  0  0
   -2.7890    0.7400    0.6110 C   0  0  1  0  0  0  0  0  0  0  0  0
   -3.5660    1.0360    1.7190 O   0  0  0  0  0  0  0  0  0  0  0  0
   -2.5040    2.0010   -0.2160 C   0  0  0  0  0  0  0  0  0  0  0  0
   -1.9030    1.5320   -1.4360 N   0  0  0  0  0  0  0  0  0  0  0  0
   -1.3670    0.2280   -1.4940 C   0  0  0  0  0  0  0  0  0  0  0  0
   -1.2560   -0.4120   -2.5750 O   0  0  0  0  0  0  0  0  0  0  0  0
    2.8350   -0.9170    0.4570 C   0  0  2  0  0  0  0  0  0  0  0  0
    3.4420   -1.5670    1.5320 O   0  0  0  0  0  0  0  0  0  0  0  0
    3.2100    0.5100    0.5000 C   0  0  0  0  0  0  0  0  0  0  0  0
    2.9140    1.2270    1.6410 O   0  0  0  0  0  0  0  0  0  0  0  0
    3.8120    1.0910   -0.5230 C   0  0  0  0  0  0  0  0  0  0  0  0
    4.1220    0.4090   -1.6740 O   0  0  0  0  0  0  0  0  0  0  0  0
  1  2  2  0
  2  3  1  0
  2 14  1  0
  3  4  1  0
  4  5  1  6
  4  7  1  0
  4 12  1  0
  5  6  1  0
  7  8  1  0
  8  9  1  1
  8 10  1  0
 10 11  1  0
 11 12  1  0
 12 13  2  0
 14 15  1  1
 14 16  1  0
 16 17  1  0
 16 18  2  3
 18 19  1  0
M  END
