
     RDKit          3D

 19 19  0  0  0  0  0  0  0  0999 V2000
   -0.8920   -0.9020   -1.5980 C   0  0  0  0  0  0  0  0  0  0  0  0
   -1.1950   -0.1590   -0.2870 C   0  0  2  0  0  0  0  0  0  0  0  0
   -1.5740   -1.1780    0.7870 C   0  0  1  0  0  0  0  0  0  0  0  0
   -2.0600   -0.5740    1.9420 O   0  0  0  0  0  0  0  0  0  0  0  0
   -2.7450   -2.0380    0.2910 C   0  0  0  0  0  0  0  0  0  0  0  0
   -3.0170   -2.9400    1.3200 O   0  0  0  0  0  0  0  0  0  0  0  0
   -2.3450    0.5280   -0.5600 O   0  0  0  0  0  0  0  0  0  0  0  0
   -2.4550    1.8260   -0.3410 C   0  0  0  0  0  0  0  0  0  0  0  0
   -1.3210    2.5900   -0.2160 O   0  0  0  0  0  0  0  0  0  0  0  0
   -0.2260    1.9480   -0.8000 C   0  0  0  0  0  0  0  0  0  0  0  0
   -0.0350    0.7070    0.0890 C   0  0  1  0  0  0  0  0  0  0  0  0
   -0.0960    1.2000    1.4950 C   0  0  0  0  0  0  0  0  0  0  0  0
    1.3030    0.0720   -0.1370 C   0  0  2  0  0  0  0  0  0  0  0  0
    1.3750   -1.0780    0.6070 O   0  0  0  0  0  0  0  0  0  0  0  0
    2.3900    1.0050    0.3210 C   0  0  0  0  0  0  0  0  0  0  0  0
    3.7330    0.5150    0.1660 N   0  0  0  0  0  0  0  0  0  0  0  0
    4.2700   -0.6050    0.8170 C   0  0  0  0  0  0  0  0  0  0  0  0
    3.6160   -1.2810    1.6140 O   0  0  0  0  0  0  0  0  0  0  0  0
    5.6020   -1.0260    0.5980 O   0  0  0  0  0  0  0  0  0  0  0  0
  2  1  1  6
  2  3  1  0
  2  7  1  0
  2 11  1  0
  3  4  1  1
  3  5  1  0
  5  6  1  0
  7  8  1  0
  8  9  1  0
  9 10  1  0
 10 11  1  0
 11 12  1  1
 11 13  1  0
 13 14  1  1
 13 15  1  0
 15 16  1  0
 16 17  1  0
 17 18  2  0
 17 19  1  0
M  END
