
     RDKit          3D

 27 30  0  0  0  0  0  0  0  0999 V2000
   -8.5100   -2.3300    1.1480 C   0  0  0  0  0  0  0  0  0  0  0  0
   -8.1600   -1.0140    0.6090 N   0  0  0  0  0  0  0  0  0  0  0  0
   -6.8010   -0.6770    0.4840 C   0  0  0  0  0  0  0  0  0  0  0  0
   -6.4480    0.5510   -0.0180 C   0  0  0  0  0  0  0  0  0  0  0  0
   -5.1130    0.9160   -0.1550 C   0  0  0  0  0  0  0  0  0  0  0  0
   -4.1140    0.0530    0.2110 C   0  0  0  0  0  0  0  0  0  0  0  0
   -2.6980    0.3680    0.0960 C   0  0  0  0  0  0  0  0  0  0  0  0
   -1.8460   -0.4780    0.4540 O   0  0  0  0  0  0  0  0  0  0  0  0
   -2.2160    1.6040   -0.4090 N   0  0  0  0  0  0  0  0  0  0  0  0
   -0.8000    1.8670   -0.5020 C   0  0  0  0  0  0  0  0  0  0  0  0
   -0.1730    3.0010   -0.9630 C   0  0  0  0  0  0  0  0  0  0  0  0
    1.2100    2.8110   -0.8700 C   0  0  0  0  0  0  0  0  0  0  0  0
    1.3670    1.5800   -0.3610 N   0  0  0  0  0  0  0  0  0  0  0  0
    2.6330    1.0070   -0.1110 C   0  0  0  0  0  0  0  0  0  0  0  0
    3.6240    1.7430    0.4870 C   0  0  0  0  0  0  0  0  0  0  0  0
    4.8790    1.1710    0.7330 C   0  0  0  0  0  0  0  0  0  0  0  0
    5.1060   -0.1360    0.3690 C   0  0  0  0  0  0  0  0  0  0  0  0
    6.3880   -0.7940    0.5960 C   0  0  0  0  0  0  0  0  0  0  0  0
    6.7470   -2.0300    0.3020 C   0  0  0  0  0  0  0  0  0  0  0  0
    8.1500   -2.2530    0.7190 C   0  0  0  0  0  0  0  0  0  0  0  0
    8.5270   -0.9850    1.2820 N   0  0  0  0  0  0  0  0  0  0  0  0
    7.5430   -0.1530    1.2190 C   0  0  0  0  0  0  0  0  0  0  0  0
    4.1040   -0.8590   -0.2280 C   0  0  0  0  0  0  0  0  0  0  0  0
    2.8640   -0.2980   -0.4730 C   0  0  0  0  0  0  0  0  0  0  0  0
    0.1780    1.0210   -0.1430 N   0  0  0  0  0  0  0  0  0  0  0  0
   -4.5140   -1.1770    0.7140 C   0  0  0  0  0  0  0  0  0  0  0  0
   -5.8280   -1.5180    0.8410 N   0  0  0  0  0  0  0  0  0  0  0  0
  1  2  1  0
  2  3  1  0
  3  4  2  0
  3 27  1  0
  4  5  1  0
  5  6  2  0
  6  7  1  0
  6 26  1  0
  7  8  2  0
  7  9  1  0
  9 10  1  0
 10 11  1  0
 10 25  2  0
 11 12  2  0
 12 13  1  0
 13 14  1  0
 13 25  1  0
 14 15  2  0
 14 24  1  0
 15 16  1  0
 16 17  2  0
 17 18  1  0
 17 23  1  0
 18 19  2  0
 18 22  1  0
 19 20  1  0
 20 21  1  0
 21 22  2  0
 23 24  2  0
 26 27  2  0
M  END
