
     RDKit          3D

 27 30  0  0  0  0  0  0  0  0999 V2000
   -4.7730    3.4510    0.3520 C   0  0  0  0  0  0  0  0  0  0  0  0
   -4.9120    2.3500   -0.6620 C   0  0  0  0  0  0  0  0  0  0  0  0
   -3.6640    1.5120   -0.7800 C   0  0  0  0  0  0  0  0  0  0  0  0
   -3.3100    0.8570    0.5210 C   0  0  0  0  0  0  0  0  0  0  0  0
   -2.1190    0.0380    0.4500 N   0  0  0  0  0  0  0  0  0  0  0  0
   -2.1270   -1.2800    0.1730 C   0  0  0  0  0  0  0  0  0  0  0  0
   -0.9590   -2.0300    0.0980 C   0  0  0  0  0  0  0  0  0  0  0  0
    0.2350   -1.3950    0.3150 C   0  0  0  0  0  0  0  0  0  0  0  0
    1.3170   -2.1010    0.2430 N   0  0  0  0  0  0  0  0  0  0  0  0
    2.5620   -1.4280    0.4710 C   0  0  0  0  0  0  0  0  0  0  0  0
    3.1530   -0.4940   -0.2940 N   0  0  0  0  0  0  0  0  0  0  0  0
    4.3180   -0.0920    0.2430 C   0  0  0  0  0  0  0  0  0  0  0  0
    5.2620    0.8980   -0.2650 C   0  0  0  0  0  0  0  0  0  0  0  0
    5.0210    1.5670   -1.4460 C   0  0  0  0  0  0  0  0  0  0  0  0
    5.9180    2.5080   -1.9300 C   0  0  0  0  0  0  0  0  0  0  0  0
    7.0830    2.8160   -1.2590 C   0  0  0  0  0  0  0  0  0  0  0  0
    7.3260    2.1470   -0.0780 C   0  0  0  0  0  0  0  0  0  0  0  0
    6.4250    1.2010    0.4090 C   0  0  0  0  0  0  0  0  0  0  0  0
    4.4530   -0.8000    1.3780 N   0  0  0  0  0  0  0  0  0  0  0  0
    3.3970   -1.6080    1.5220 N   0  0  0  0  0  0  0  0  0  0  0  0
    0.2530   -0.0850    0.5910 N   0  0  0  0  0  0  0  0  0  0  0  0
   -0.8940    0.6030    0.6540 C   0  0  0  0  0  0  0  0  0  0  0  0
   -0.8890    1.8510    0.9160 O   0  0  0  0  0  0  0  0  0  0  0  0
   -0.9630   -3.4970   -0.2110 C   0  0  0  0  0  0  0  0  0  0  0  0
   -2.3110   -4.1140   -0.0730 C   0  0  0  0  0  0  0  0  0  0  0  0
   -3.2960   -3.2420   -0.8270 C   0  0  0  0  0  0  0  0  0  0  0  0
   -3.4420   -1.9380   -0.0390 C   0  0  0  0  0  0  0  0  0  0  0  0
  1  2  1  0
  2  3  1  0
  3  4  1  0
  4  5  1  0
  5  6  1  0
  5 22  1  0
  6  7  2  0
  6 27  1  0
  7  8  1  0
  7 24  1  0
  8  9  2  3
  8 21  1  0
  9 10  1  0
 10 11  2  0
 10 20  1  0
 11 12  1  0
 12 13  1  0
 12 19  2  0
 13 14  2  0
 13 18  1  0
 14 15  1  0
 15 16  2  0
 16 17  1  0
 17 18  2  0
 19 20  1  0
 21 22  1  0
 22 23  2  0
 24 25  1  0
 25 26  1  0
 26 27  1  0
M  END
