
     RDKit          3D

 27 30  0  0  0  0  0  0  0  0999 V2000
    7.7200    0.2940   -0.1130 C   0  0  0  0  0  0  0  0  0  0  0  0
    7.4920    1.2230    0.9560 N   0  0  0  0  0  0  0  0  0  0  0  0
    6.4360    0.7490    1.8190 C   0  0  0  0  0  0  0  0  0  0  0  0
    5.1070    0.7850    1.0900 C   0  0  0  0  0  0  0  0  0  0  0  0
    5.0550    1.1910   -0.0930 O   0  0  0  0  0  0  0  0  0  0  0  0
    3.9270    0.3640    1.7360 N   0  0  0  0  0  0  0  0  0  0  0  0
    2.6250    0.3460    1.1970 C   0  0  0  0  0  0  0  0  0  0  0  0
    2.2510    0.7380   -0.0430 C   0  0  0  0  0  0  0  0  0  0  0  0
    0.9250    0.6830   -0.4910 C   0  0  0  0  0  0  0  0  0  0  0  0
   -0.0570    0.2120    0.3520 C   0  0  0  0  0  0  0  0  0  0  0  0
   -1.4360    0.1340   -0.0620 N   0  0  0  0  0  0  0  0  0  0  0  0
   -1.7620   -0.7820   -0.9070 C   0  0  0  0  0  0  0  0  0  0  0  0
   -0.8490   -1.8000   -1.5220 C   0  0  0  0  0  0  0  0  0  0  0  0
   -1.5480   -2.2100   -2.7990 C   0  0  0  0  0  0  0  0  0  0  0  0
   -2.9680   -1.8660   -2.5640 C   0  0  0  0  0  0  0  0  0  0  0  0
   -4.2180   -2.0530   -3.0170 N   0  0  0  0  0  0  0  0  0  0  0  0
   -5.0720   -1.3750   -2.2300 C   0  0  0  0  0  0  0  0  0  0  0  0
   -4.3720   -0.7340   -1.2470 N   0  0  0  0  0  0  0  0  0  0  0  0
   -4.8950    0.0820   -0.2120 C   0  0  0  0  0  0  0  0  0  0  0  0
   -5.3600    1.3510   -0.5320 C   0  0  0  0  0  0  0  0  0  0  0  0
   -5.8830    2.1810    0.4340 C   0  0  0  0  0  0  0  0  0  0  0  0
   -5.9640    1.7860    1.7530 C   0  0  0  0  0  0  0  0  0  0  0  0
   -5.5050    0.5270    2.0860 C   0  0  0  0  0  0  0  0  0  0  0  0
   -4.9840   -0.2950    1.1100 C   0  0  0  0  0  0  0  0  0  0  0  0
   -3.0800   -1.0360   -1.4550 C   0  0  0  0  0  0  0  0  0  0  0  0
    0.3480   -0.1820    1.6120 C   0  0  0  0  0  0  0  0  0  0  0  0
    1.6310   -0.1130    2.0030 N   0  0  0  0  0  0  0  0  0  0  0  0
  1  2  1  0
  2  3  1  0
  3  4  1  0
  4  5  2  0
  4  6  1  0
  6  7  1  0
  7  8  2  0
  7 27  1  0
  8  9  1  0
  9 10  2  0
 10 11  1  0
 10 26  1  0
 11 12  2  3
 12 13  1  0
 12 25  1  0
 13 14  1  0
 14 15  1  0
 15 16  1  0
 15 25  2  0
 16 17  2  0
 17 18  1  0
 18 19  1  0
 18 25  1  0
 19 20  2  0
 19 24  1  0
 20 21  1  0
 21 22  2  0
 22 23  1  0
 23 24  2  0
 26 27  2  0
M  END
