
     RDKit          3D

 13 12  0  0  0  0  0  0  0  0999 V2000
   -4.9540    0.3430   -0.3210 C   0  0  0  0  0  0  0  0  0  0  0  0
   -3.8640    0.0460    0.7160 C   0  0  0  0  0  0  0  0  0  0  0  0
   -2.6450    0.0080   -0.0070 O   0  0  0  0  0  0  0  0  0  0  0  0
   -1.4180   -0.2330    0.5580 C   0  0  0  0  0  0  0  0  0  0  0  0
   -1.4080   -0.4310    1.8210 O   0  0  0  0  0  0  0  0  0  0  0  0
   -0.1700   -0.2710   -0.1880 C   0  0  0  0  0  0  0  0  0  0  0  0
   -0.2110   -0.0460   -1.5910 N   0  0  0  0  0  0  0  0  0  0  0  0
    0.9740   -0.5090    0.4270 C   0  0  0  0  0  0  0  0  0  0  0  0
    2.2760   -0.5630   -0.2560 C   0  0  2  0  0  0  0  0  0  0  0  0
    2.6230   -1.8590   -0.7550 N   0  0  0  0  0  0  0  0  0  0  0  0
    3.3610   -0.0960    0.6000 N   0  0  0  0  0  0  0  0  0  0  0  0
    3.0490    1.2430    0.9390 N   0  0  0  0  0  0  0  0  0  0  0  0
    4.1570    1.9430    1.2530 O   0  0  0  0  0  0  0  0  0  0  0  0
  1  2  1  0
  2  3  1  0
  3  4  1  0
  4  5  2  0
  4  6  1  0
  6  7  1  0
  6  8  2  3
  8  9  1  0
  9 10  1  1
  9 11  1  0
 11 12  1  0
 12 13  1  0
M  CHG  2   7   1  12   1
M  END
