
     RDKit          3D

 27 30  0  0  0  0  0  0  0  0999 V2000
   -6.0180    1.8810   -1.6190 C   0  0  0  0  0  0  0  0  0  0  0  0
   -4.7870    1.1480   -2.0470 C   0  0  0  0  0  0  0  0  0  0  0  0
   -4.1340    0.4050   -0.9310 C   0  0  0  0  0  0  0  0  0  0  0  0
   -4.2040   -0.9110   -0.7630 N   0  0  0  0  0  0  0  0  0  0  0  0
   -3.4960   -1.2430    0.3480 C   0  0  0  0  0  0  0  0  0  0  0  0
   -3.3350   -2.6150    0.8680 C   0  0  0  0  0  0  0  0  0  0  0  0
   -2.9620   -0.1190    0.9000 N   0  0  0  0  0  0  0  0  0  0  0  0
   -3.3690    0.8920    0.0930 C   0  0  0  0  0  0  0  0  0  0  0  0
   -2.8320    2.1620    0.6220 C   0  0  0  0  0  0  0  0  0  0  0  0
   -2.0760    1.7140    1.8270 C   0  0  0  0  0  0  0  0  0  0  0  0
   -2.1700    0.4020    1.9580 C   0  0  0  0  0  0  0  0  0  0  0  0
   -1.5410   -0.3890    3.0480 C   0  0  0  0  0  0  0  0  0  0  0  0
   -0.6120   -1.3700    2.5320 N   0  0  0  0  0  0  0  0  0  0  0  0
    0.5280   -0.9560    1.7580 C   0  0  0  0  0  0  0  0  0  0  0  0
    0.6470    0.2540    1.5750 O   0  0  0  0  0  0  0  0  0  0  0  0
    1.4600   -1.8510    1.2310 N   0  0  0  0  0  0  0  0  0  0  0  0
    2.6100   -1.5400    0.4610 C   0  0  0  0  0  0  0  0  0  0  0  0
    3.3990   -2.6160    0.0130 C   0  0  0  0  0  0  0  0  0  0  0  0
    4.5070   -2.4380   -0.7190 N   0  0  0  0  0  0  0  0  0  0  0  0
    4.9210   -1.2070   -1.0630 C   0  0  0  0  0  0  0  0  0  0  0  0
    6.0490   -0.9560   -1.8130 C   0  0  0  0  0  0  0  0  0  0  0  0
    6.4430    0.2940   -2.1450 N   0  0  0  0  0  0  0  0  0  0  0  0
    5.7420    1.3720   -1.7540 C   0  0  0  0  0  0  0  0  0  0  0  0
    6.2080    2.7290   -2.1390 C   0  0  0  0  0  0  0  0  0  0  0  0
    4.6070    1.1520   -1.0020 C   0  0  0  0  0  0  0  0  0  0  0  0
    4.1810   -0.1130   -0.6480 C   0  0  0  0  0  0  0  0  0  0  0  0
    3.0330   -0.3020    0.1110 C   0  0  0  0  0  0  0  0  0  0  0  0
  1  2  1  0
  2  3  1  0
  3  4  1  0
  3  8  2  0
  4  5  2  0
  5  6  1  0
  5  7  1  0
  7  8  1  0
  7 11  1  0
  8  9  1  0
  9 10  1  0
 10 11  2  0
 11 12  1  0
 12 13  1  0
 13 14  1  0
 14 15  2  0
 14 16  1  0
 16 17  1  0
 17 18  2  0
 17 27  1  0
 18 19  1  0
 19 20  2  0
 20 21  1  0
 20 26  1  0
 21 22  2  0
 22 23  1  0
 23 24  1  0
 23 25  2  0
 25 26  1  0
 26 27  2  0
M  END
