
     RDKit          3D

 27 30  0  0  0  0  0  0  0  0999 V2000
    0.6010   -3.9870   -1.9600 C   0  0  0  0  0  0  0  0  0  0  0  0
    1.9640   -3.5960   -1.5360 C   0  0  0  0  0  0  0  0  0  0  0  0
    2.9890   -4.3760   -1.6850 N   0  0  0  0  0  0  0  0  0  0  0  0
    4.1900   -3.7790   -1.2020 C   0  0  0  0  0  0  0  0  0  0  0  0
    3.7380   -2.4260   -0.7600 C   0  0  0  0  0  0  0  0  0  0  0  0
    4.1100   -1.2450   -0.2470 N   0  0  0  0  0  0  0  0  0  0  0  0
    3.0820   -0.4590   -0.1130 N   0  0  0  0  0  0  0  0  0  0  0  0
    3.0820    0.8570    0.3920 C   0  0  0  0  0  0  0  0  0  0  0  0
    2.9920    1.1660    1.7400 C   0  0  0  0  0  0  0  0  0  0  0  0
    2.9930    2.4530    2.2090 C   0  0  0  0  0  0  0  0  0  0  0  0
    3.0880    3.4830    1.2960 C   0  0  0  0  0  0  0  0  0  0  0  0
    3.1780    3.2120   -0.0570 C   0  0  0  0  0  0  0  0  0  0  0  0
    3.1750    1.9030   -0.4980 C   0  0  0  0  0  0  0  0  0  0  0  0
    1.9380   -1.0960   -0.5420 C   0  0  0  0  0  0  0  0  0  0  0  0
    0.6250   -0.4910   -0.5650 C   0  0  0  0  0  0  0  0  0  0  0  0
    0.6020    0.7720   -0.6780 O   0  0  0  0  0  0  0  0  0  0  0  0
   -0.5860   -1.1730   -0.4680 N   0  0  0  0  0  0  0  0  0  0  0  0
   -1.8910   -0.5070   -0.5070 C   0  0  0  0  0  0  0  0  0  0  0  0
   -2.0310    0.4510    0.6220 C   0  0  0  0  0  0  0  0  0  0  0  0
   -3.3520    1.1370    0.6020 C   0  0  0  0  0  0  0  0  0  0  0  0
   -3.7290    2.1480   -0.2300 C   0  0  0  0  0  0  0  0  0  0  0  0
   -2.9250    2.7810   -1.2840 C   0  0  0  0  0  0  0  0  0  0  0  0
   -5.0020    2.5040    0.0610 N   0  0  0  0  0  0  0  0  0  0  0  0
   -5.4190    1.7460    1.0440 N   0  0  0  0  0  0  0  0  0  0  0  0
   -4.4320    0.8820    1.4150 C   0  0  0  0  0  0  0  0  0  0  0  0
   -4.4810   -0.1450    2.4830 C   0  0  0  0  0  0  0  0  0  0  0  0
    2.3570   -2.3310   -0.9490 C   0  0  0  0  0  0  0  0  0  0  0  0
  1  2  1  0
  2  3  2  0
  2 27  1  0
  3  4  1  0
  4  5  1  0
  5  6  2  0
  5 27  1  0
  6  7  1  0
  7  8  1  0
  7 14  1  0
  8  9  2  0
  8 13  1  0
  9 10  1  0
 10 11  2  0
 11 12  1  0
 12 13  2  0
 14 15  1  0
 14 27  2  0
 15 16  2  0
 15 17  1  0
 17 18  1  0
 18 19  1  0
 19 20  1  0
 20 21  1  0
 20 25  2  0
 21 22  1  0
 21 23  2  0
 23 24  1  0
 24 25  1  0
 25 26  1  0
M  END
