
     RDKit          3D

 27 30  0  0  0  0  0  0  0  0999 V2000
    3.9030   -0.4760   -2.4940 C   0  0  0  0  0  0  0  0  0  0  0  0
    4.8060   -0.1660   -1.3350 C   0  0  0  0  0  0  0  0  0  0  0  0
    6.1990   -0.1340   -1.4550 C   0  0  0  0  0  0  0  0  0  0  0  0
    6.7520    0.1720   -0.2300 C   0  0  0  0  0  0  0  0  0  0  0  0
    5.6870    0.3280    0.6240 C   0  0  0  0  0  0  0  0  0  0  0  0
    4.5180    0.1140   -0.0720 N   0  0  0  0  0  0  0  0  0  0  0  0
    3.2350    0.1540    0.5710 C   0  0  0  0  0  0  0  0  0  0  0  0
    2.0520    0.2870   -0.0650 C   0  0  0  0  0  0  0  0  0  0  0  0
    0.8470    0.2580    0.6360 C   0  0  0  0  0  0  0  0  0  0  0  0
   -0.4140    0.3990   -0.0150 N   0  0  0  0  0  0  0  0  0  0  0  0
   -1.5710    0.2320    0.7940 C   0  0  2  0  0  0  0  0  0  0  0  0
   -1.5980   -1.2270    1.2670 C   0  0  0  0  0  0  0  0  0  0  0  0
   -2.8650    0.5290    0.1620 C   0  0  0  0  0  0  0  0  0  0  0  0
   -3.9610   -0.3050    0.1810 N   0  0  0  0  0  0  0  0  0  0  0  0
   -4.9520    0.2800   -0.4830 C   0  0  0  0  0  0  0  0  0  0  0  0
   -6.3440   -0.2300   -0.7440 C   0  0  1  0  0  0  0  0  0  0  0  0
   -7.2800    0.8630   -1.1390 C   0  0  0  0  0  0  0  0  0  0  0  0
   -6.2060   -1.2830   -1.8400 C   0  0  0  0  0  0  0  0  0  0  0  0
   -6.7740   -0.9630    0.5120 C   0  0  0  0  0  0  0  0  0  0  0  0
   -4.4760    1.4510   -0.9060 N   0  0  0  0  0  0  0  0  0  0  0  0
   -3.2490    1.5750   -0.5140 O   0  0  0  0  0  0  0  0  0  0  0  0
    0.9020    0.0970    1.9840 N   0  0  0  0  0  0  0  0  0  0  0  0
    2.0710   -0.0330    2.6390 C   0  0  0  0  0  0  0  0  0  0  0  0
    3.2000   -0.0040    1.9410 N   0  0  0  0  0  0  0  0  0  0  0  0
    6.1170    0.6310    1.8480 C   0  0  0  0  0  0  0  0  0  0  0  0
    7.5960    0.6830    1.8110 C   0  0  0  0  0  0  0  0  0  0  0  0
    7.9120    0.3350    0.4100 C   0  0  0  0  0  0  0  0  0  0  0  0
  1  2  1  0
  2  3  2  0
  2  6  1  0
  3  4  1  0
  4  5  1  0
  4 27  2  0
  5  6  1  0
  5 25  2  0
  6  7  1  0
  7  8  2  0
  7 24  1  0
  8  9  1  0
  9 10  1  0
  9 22  2  0
 10 11  1  0
 11 12  1  6
 11 13  1  0
 13 14  2  0
 13 21  1  0
 14 15  1  0
 15 16  1  0
 15 20  2  0
 16 17  1  6
 16 18  1  0
 16 19  1  0
 20 21  1  0
 22 23  1  0
 23 24  2  0
 25 26  1  0
 26 27  1  0
M  END
