
     RDKit          3D

 14 14  0  0  0  0  0  0  0  0999 V2000
    4.7830    0.0660   -0.8490 O   0  0  0  0  0  0  0  0  0  0  0  0
    4.3570   -0.2890    0.2780 C   0  0  0  0  0  0  0  0  0  0  0  0
    3.0220   -0.0520    0.5550 O   0  0  0  0  0  0  0  0  0  0  0  0
    2.2260    0.5670   -0.4320 C   0  0  0  0  0  0  0  0  0  0  0  0
    0.9180    0.7450   -0.0330 O   0  0  0  0  0  0  0  0  0  0  0  0
    0.1370   -0.7590    0.3480 P   0  0  0  0  0  0  0  0  0  0  0  0
   -1.0340   -0.4280    1.5910 O   0  0  0  0  0  0  0  0  0  0  0  0
   -1.7950    0.6290    1.1860 C   0  0  0  0  0  0  0  0  0  0  0  0
   -3.1190    0.3080    0.5980 C   0  0  0  0  0  0  0  0  0  0  0  0
   -3.1350   -0.3730   -0.5990 O   0  0  0  0  0  0  0  0  0  0  0  0
   -2.1940   -0.7930   -1.5330 C   0  0  0  0  0  0  0  0  0  0  0  0
   -2.5130   -0.8390   -2.7450 O   0  0  0  0  0  0  0  0  0  0  0  0
   -0.8400   -1.1840   -1.1540 C   0  0  0  0  0  0  0  0  0  0  0  0
   -0.2630   -1.9360   -2.0070 O   0  0  0  0  0  0  0  0  0  0  0  0
  1  2  2  0
  2  3  1  0
  3  4  1  0
  4  5  1  0
  5  6  1  0
  6  7  1  0
  6 13  1  0
  7  8  1  0
  8  9  1  0
  9 10  1  0
 10 11  1  0
 11 12  2  0
 11 13  1  0
 13 14  2  0
M  END
