
     RDKit          3D

 15 14  0  0  0  0  0  0  0  0999 V2000
   -3.3050   -2.1660   -0.6540 O   0  0  0  0  0  0  0  0  0  0  0  0
   -3.7710   -2.3450    0.4880 C   0  0  0  0  0  0  0  0  0  0  0  0
   -3.0990   -2.1050    1.6660 O   0  0  0  0  0  0  0  0  0  0  0  0
   -1.7950   -1.6210    1.6610 C   0  0  0  0  0  0  0  0  0  0  0  0
   -1.7000   -0.2790    0.9930 C   0  0  0  0  0  0  0  0  0  0  0  0
   -0.3470    0.2040    1.0000 O   0  0  0  0  0  0  0  0  0  0  0  0
   -0.1750    1.4640    0.3870 C   0  0  0  0  0  0  0  0  0  0  0  0
    0.9440    1.7710   -0.2200 C   0  0  0  0  0  0  0  0  0  0  0  0
    1.0850    3.0700   -0.8360 C   0  0  0  0  0  0  0  0  0  0  0  0
    0.1330    3.9040   -0.7860 O   0  0  0  0  0  0  0  0  0  0  0  0
    2.2340    3.4810   -1.5010 O   0  0  0  0  0  0  0  0  0  0  0  0
    2.3030    0.5770   -0.2890 P   0  0  0  0  0  0  0  0  0  0  0  0
    3.4950    1.0020   -1.4750 O   0  0  0  0  0  0  0  0  0  0  0  0
    1.7330   -1.1460   -0.5910 C   0  0  0  0  0  0  0  0  0  0  0  0
    2.7000   -1.8050   -1.3490 O   0  0  0  0  0  0  0  0  0  0  0  0
  1  2  2  0
  2  3  1  0
  3  4  1  0
  4  5  1  0
  5  6  1  0
  6  7  1  0
  7  8  2  3
  8  9  1  0
  8 12  1  0
  9 10  2  0
  9 11  1  0
 12 13  1  0
 12 14  1  0
 14 15  1  0
M  END
