
     RDKit          3D

 15 14  0  0  0  0  0  0  0  0999 V2000
    6.1530    0.2700    0.1470 O   0  0  0  0  0  0  0  0  0  0  0  0
    5.0530    0.1090    0.9870 C   0  0  0  0  0  0  0  0  0  0  0  0
    3.8510   -0.4030    0.2030 C   0  0  0  0  0  0  0  0  0  0  0  0
    2.7450   -0.5680    1.0330 O   0  0  0  0  0  0  0  0  0  0  0  0
    1.4330   -1.1430    0.1010 P   0  0  0  0  0  0  0  0  0  0  0  0
    1.8660   -1.6630   -1.4740 O   0  0  0  0  0  0  0  0  0  0  0  0
   -0.0240    0.0040    0.1080 C   0  0  1  0  0  0  0  0  0  0  0  0
    0.3550    1.3300    0.2500 O   0  0  0  0  0  0  0  0  0  0  0  0
   -0.8550   -0.2460   -1.1080 C   0  0  0  0  0  0  0  0  0  0  0  0
   -2.0330    0.4430   -1.1740 O   0  0  0  0  0  0  0  0  0  0  0  0
   -2.9260    0.2110   -0.1610 C   0  0  2  0  0  0  0  0  0  0  0  0
   -4.2860   -0.2520   -0.6880 C   0  0  0  0  0  0  0  0  0  0  0  0
   -4.1650   -1.4320   -1.4120 O   0  0  0  0  0  0  0  0  0  0  0  0
   -3.1990    1.5650    0.5090 C   0  0  0  0  0  0  0  0  0  0  0  0
   -4.0970    1.4320    1.5530 O   0  0  0  0  0  0  0  0  0  0  0  0
  1  2  1  0
  2  3  1  0
  3  4  1  0
  4  5  1  0
  5  6  1  0
  5  7  1  0
  7  8  1  6
  7  9  1  0
  9 10  1  0
 10 11  1  0
 11 12  1  6
 11 14  1  0
 12 13  1  0
 14 15  1  0
M  END
