
     RDKit          3D

 15 14  0  0  0  0  0  0  0  0999 V2000
   -3.6310    2.3020    0.7310 C   0  0  0  0  0  0  0  0  0  0  0  0
   -2.9030    1.2530   -0.0900 C   0  0  0  0  0  0  0  0  0  0  0  0
   -1.5660    1.2480    0.3140 O   0  0  0  0  0  0  0  0  0  0  0  0
   -0.7340    0.0670   -0.6060 P   0  0  0  0  0  0  0  0  0  0  0  0
    0.7150   -0.6600    0.2550 C   0  0  0  0  0  0  0  0  0  0  0  0
    1.9280   -0.4820   -0.6480 C   0  0  1  0  0  0  0  0  0  0  0  0
    2.1330    0.9440   -0.8880 C   0  0  0  0  0  0  0  0  0  0  0  0
    2.0980    1.4000   -2.0490 O   0  0  0  0  0  0  0  0  0  0  0  0
    2.3750    1.8420    0.1550 O   0  0  0  0  0  0  0  0  0  0  0  0
    3.1310   -1.1210   -0.0480 C   0  0  0  0  0  0  0  0  0  0  0  0
    3.0130   -1.6950    1.0640 O   0  0  0  0  0  0  0  0  0  0  0  0
    4.3580   -1.1000   -0.6700 O   0  0  0  0  0  0  0  0  0  0  0  0
    5.4160   -1.6790   -0.1100 O   0  0  0  0  0  0  0  0  0  0  0  0
   -1.7890   -1.1820   -1.1330 O   0  0  0  0  0  0  0  0  0  0  0  0
   -2.0420   -2.0740   -0.0960 C   0  0  0  0  0  0  0  0  0  0  0  0
  1  2  1  0
  2  3  1  0
  3  4  1  0
  4  5  1  0
  4 14  1  0
  6  5  1  1
  6  7  1  0
  6 10  1  0
  7  8  2  0
  7  9  1  0
 10 11  2  0
 10 12  1  0
 12 13  1  0
 14 15  1  0
M  END
