
     RDKit          3D

 15 15  0  0  0  0  0  0  0  0999 V2000
    3.8240    1.6880    0.3250 C   0  0  0  0  0  0  0  0  0  0  0  0
    2.7410    1.6190   -0.7560 C   0  0  0  0  0  0  0  0  0  0  0  0
    2.5670    0.2640   -1.0430 O   0  0  0  0  0  0  0  0  0  0  0  0
    1.5210   -0.4810    0.0490 P   0  0  0  0  0  0  0  0  0  0  0  0
    1.8030   -2.1570    0.2380 O   0  0  0  0  0  0  0  0  0  0  0  0
    0.8840   -2.9390   -0.4340 C   0  0  0  0  0  0  0  0  0  0  0  0
   -0.5110   -2.3790   -0.3840 C   0  0  0  0  0  0  0  0  0  0  0  0
   -0.5100   -1.0390   -0.8330 O   0  0  0  0  0  0  0  0  0  0  0  0
   -1.0570   -0.2750    0.1730 C   0  0  1  0  0  0  0  0  0  0  0  0
   -1.7290    1.0040   -0.2980 C   0  0  0  0  0  0  0  0  0  0  0  0
   -2.9260    1.2660    0.6310 C   0  0  0  0  0  0  0  0  0  0  0  0
   -3.4380    2.5510    0.4610 O   0  0  0  0  0  0  0  0  0  0  0  0
   -1.7500   -0.8100    1.1770 O   0  0  0  0  0  0  0  0  0  0  0  0
   -2.8900   -1.3500    0.7040 O   0  0  0  0  0  0  0  0  0  0  0  0
    0.2180    0.2310    0.7520 O   0  0  0  0  0  0  0  0  0  0  0  0
  1  2  1  0
  2  3  1  0
  3  4  1  0
  4  5  1  0
  4 15  1  0
  5  6  1  0
  6  7  1  0
  7  8  1  0
  8  9  1  0
  9 10  1  6
  9 13  1  0
  9 15  1  0
 10 11  1  0
 11 12  1  0
 13 14  1  0
M  END
