
     RDKit          3D

 15 15  0  0  0  0  0  0  0  0999 V2000
   -3.8350   -0.8720    0.7900 C   0  0  0  0  0  0  0  0  0  0  0  0
   -4.1080   -0.5240   -0.5160 O   0  0  0  0  0  0  0  0  0  0  0  0
   -3.1940   -1.0220   -1.4060 C   0  0  0  0  0  0  0  0  0  0  0  0
   -1.7950   -0.5400   -1.1560 C   0  0  0  0  0  0  0  0  0  0  0  0
   -1.7440    0.8690   -1.2480 O   0  0  0  0  0  0  0  0  0  0  0  0
   -0.1120    1.3310   -0.9490 P   0  0  0  0  0  0  0  0  0  0  0  0
    0.0920    3.0290   -0.8470 O   0  0  0  0  0  0  0  0  0  0  0  0
    0.0800    3.5040    0.4600 C   0  0  0  0  0  0  0  0  0  0  0  0
    0.6140    0.4660    0.3370 O   0  0  0  0  0  0  0  0  0  0  0  0
    1.6470   -0.3020   -0.1770 C   0  0  0  0  0  0  0  0  0  0  0  0
    2.3520   -1.1060    0.8920 C   0  0  1  0  0  0  0  0  0  0  0  0
    3.3700   -1.8380    0.2610 O   0  0  0  0  0  0  0  0  0  0  0  0
    4.4920   -1.0600    0.4200 C   0  0  0  0  0  0  0  0  0  0  0  0
    4.2820   -0.4170    1.6210 O   0  0  0  0  0  0  0  0  0  0  0  0
    2.9980   -0.3060    1.7980 O   0  0  0  0  0  0  0  0  0  0  0  0
  1  2  1  0
  2  3  1  0
  3  4  1  0
  4  5  1  0
  5  6  1  0
  6  7  1  0
  6  9  1  0
  7  8  1  0
  9 10  1  0
 11 10  1  6
 11 12  1  0
 11 15  1  0
 12 13  1  0
 13 14  1  0
 14 15  1  0
M  END
