
     RDKit          3D

 30 32  0  0  0  0  0  0  0  0999 V2000
   -4.9180    2.6220    1.9460 C   0  0  0  0  0  0  0  0  0  0  0  0
   -4.2230    2.0920    2.8380 C   0  0  0  0  0  0  0  0  0  0  0  0
   -4.6250    2.5550    4.2810 C   0  0  0  0  0  0  0  0  0  0  0  0
   -3.0020    1.2170    2.8880 C   0  0  0  0  0  0  0  0  0  0  0  0
   -2.6960    0.8140    3.9730 C   0  0  0  0  0  0  0  0  0  0  0  0
   -2.5200    0.4450    5.4040 C   0  0  0  0  0  0  0  0  0  0  0  0
   -2.2180    0.7660    1.7420 C   0  0  0  0  0  0  0  0  0  0  0  0
   -2.0100    0.9160    0.4870 C   0  0  0  0  0  0  0  0  0  0  0  0
   -2.6520    1.8650   -0.4210 C   0  0  0  0  0  0  0  0  0  0  0  0
   -1.2560    2.8100   -1.2300 S   0  0  0  0  0  0  0  0  0  0  0  0
    0.0710    1.6850   -1.4800 C   0  0  0  0  0  0  0  0  0  0  0  0
    1.1100    2.1410   -2.1760 N   0  0  0  0  0  0  0  0  0  0  0  0
    2.1330    1.3290   -2.5280 C   0  0  0  0  0  0  0  0  0  0  0  0
    3.1020    1.7640   -3.1800 O   0  0  0  0  0  0  0  0  0  0  0  0
    2.1200    0.0440   -2.1810 N   0  0  0  0  0  0  0  0  0  0  0  0
    3.2170   -0.8170   -2.5110 C   0  0  2  0  0  0  0  0  0  0  0  0
    4.4880   -0.4320   -1.8110 C   0  0  0  0  0  0  0  0  0  0  0  0
    5.6550   -1.0560   -2.5430 C   0  0  0  0  0  0  0  0  0  0  0  0
    5.7740   -0.2380   -3.8370 C   0  0  0  0  0  0  0  0  0  0  0  0
    4.5330   -0.4040   -4.6650 C   0  0  0  0  0  0  0  0  0  0  0  0
    3.4190   -1.1220   -3.9490 C   0  0  0  0  0  0  0  0  0  0  0  0
    1.0610   -0.4430   -1.4630 C   0  0  0  0  0  0  0  0  0  0  0  0
    1.0980   -1.6460   -1.1610 O   0  0  0  0  0  0  0  0  0  0  0  0
   -0.0090    0.3730   -1.0830 C   0  0  0  0  0  0  0  0  0  0  0  0
   -1.0220   -0.0940   -0.1250 C   0  0  0  0  0  0  0  0  0  0  0  0
   -1.2130   -1.3680    0.1160 C   0  0  0  0  0  0  0  0  0  0  0  0
   -0.4440   -2.4120   -0.3340 O   0  0  0  0  0  0  0  0  0  0  0  0
   -2.3680   -1.8850    0.9500 C   0  0  0  0  0  0  0  0  0  0  0  0
   -2.0900   -2.5620    2.0620 O   0  0  0  0  0  0  0  0  0  0  0  0
   -1.3810   -3.7190    1.9390 C   0  0  0  0  0  0  0  0  0  0  0  0
  1  2  2  0
  2  3  1  0
  2  4  1  0
  4  5  2  3
  4  7  1  0
  5  6  1  0
  7  8  2  3
  8  9  1  0
  8 25  1  0
  9 10  1  0
 10 11  1  0
 11 12  1  0
 11 24  2  0
 12 13  1  0
 13 14  2  0
 13 15  1  0
 16 15  1  6
 15 22  1  0
 16 17  1  0
 16 21  1  0
 17 18  1  0
 18 19  1  0
 19 20  1  0
 20 21  1  0
 22 23  2  0
 22 24  1  0
 24 25  1  0
 25 26  2  3
 26 27  1  0
 26 28  1  0
 28 29  1  0
 29 30  1  0
M  END
