
     RDKit          3D

 30 33  0  0  0  0  0  0  0  0999 V2000
    5.6720   -3.4740    0.0880 C   0  0  0  0  0  0  0  0  0  0  0  0
    4.2920   -2.8920    0.0560 C   0  0  0  0  0  0  0  0  0  0  0  0
    3.2070   -3.7180    0.0680 C   0  0  0  0  0  0  0  0  0  0  0  0
    1.9430   -3.2110    0.0390 C   0  0  0  0  0  0  0  0  0  0  0  0
    1.6710   -1.8400   -0.0050 C   0  0  0  0  0  0  0  0  0  0  0  0
    0.3240   -1.4270   -0.0330 N   0  0  0  0  0  0  0  0  0  0  0  0
   -0.1760   -0.1110   -0.0610 C   0  0  0  0  0  0  0  0  0  0  0  0
    0.6320    0.8420   -0.0620 O   0  0  0  0  0  0  0  0  0  0  0  0
   -1.6060    0.2120   -0.0900 C   0  0  0  0  0  0  0  0  0  0  0  0
   -2.6090   -0.7220   -0.0960 C   0  0  0  0  0  0  0  0  0  0  0  0
   -3.9660   -0.3790   -0.1230 C   0  0  0  0  0  0  0  0  0  0  0  0
   -4.2860    0.9480   -0.1450 C   0  0  0  0  0  0  0  0  0  0  0  0
   -5.7100    1.3600   -0.1740 C   0  0  1  0  0  0  0  0  0  0  0  0
   -6.3630    0.7930   -1.3630 C   0  0  0  0  0  0  0  0  0  0  0  0
   -7.6460    0.5300   -1.2480 C   0  0  0  0  0  0  0  0  0  0  0  0
   -8.1150    0.9820    0.3800 S   0  0  1  0  0  0  0  0  0  0  0  0
   -8.6520    2.3640    0.4620 O   0  0  0  0  0  0  0  0  0  0  0  0
   -8.9770   -0.0370    1.0260 O   0  0  0  0  0  0  0  0  0  0  0  0
   -6.4410    0.9260    1.0760 C   0  0  0  0  0  0  0  0  0  0  0  0
   -3.2930    1.9020   -0.1390 C   0  0  0  0  0  0  0  0  0  0  0  0
   -1.9770    1.5370   -0.1120 C   0  0  0  0  0  0  0  0  0  0  0  0
    2.7720   -1.0290   -0.0170 C   0  0  0  0  0  0  0  0  0  0  0  0
    4.0800   -1.5470    0.0130 C   0  0  0  0  0  0  0  0  0  0  0  0
    5.1610   -0.6360   -0.0020 N   0  0  0  0  0  0  0  0  0  0  0  0
    4.9950    0.7710   -0.0470 C   0  0  0  0  0  0  0  0  0  0  0  0
    4.4220    1.4220   -1.0470 C   0  0  0  0  0  0  0  0  0  0  0  0
    4.4150    2.8770   -0.7690 C   0  0  0  0  0  0  0  0  0  0  0  0
    5.0800    2.9660    0.5640 C   0  0  0  0  0  0  0  0  0  0  0  0
    5.4070    1.7390    0.9630 C   0  0  0  0  0  0  0  0  0  0  0  0
    6.0470    1.4660    2.1740 O   0  0  0  0  0  0  0  0  0  0  0  0
  1  2  1  0
  2  3  2  0
  2 23  1  0
  3  4  1  0
  4  5  2  0
  5  6  1  0
  5 22  1  0
  6  7  1  0
  7  8  2  0
  7  9  1  0
  9 10  2  0
  9 21  1  0
 10 11  1  0
 11 12  2  0
 13 12  1  1
 12 20  1  0
 13 14  1  0
 13 19  1  0
 14 15  2  0
 15 16  1  0
 16 17  2  0
 16 18  2  0
 16 19  1  1
 20 21  2  0
 22 23  2  0
 23 24  1  0
 24 25  1  0
 25 26  2  0
 25 29  1  0
 26 27  1  0
 27 28  1  0
 28 29  2  0
 29 30  1  0
M  END
