
     RDKit          3D

 30 34  0  0  0  0  0  0  0  0999 V2000
   -7.2400    0.9730   -0.3940 C   0  0  0  0  0  0  0  0  0  0  0  0
   -6.1890   -0.0690   -0.3920 C   0  0  0  0  0  0  0  0  0  0  0  0
   -6.4560   -1.2900   -0.9560 C   0  0  0  0  0  0  0  0  0  0  0  0
   -5.5280   -2.2730   -0.9780 C   0  0  0  0  0  0  0  0  0  0  0  0
   -4.2670   -2.0110   -0.4020 C   0  0  0  0  0  0  0  0  0  0  0  0
   -3.3500   -2.9950   -0.4260 O   0  0  0  0  0  0  0  0  0  0  0  0
   -4.0150   -0.7780    0.1600 C   0  0  0  0  0  0  0  0  0  0  0  0
   -2.9050   -0.2520    0.7800 C   0  0  0  0  0  0  0  0  0  0  0  0
   -3.2140    1.0610    1.1630 C   0  0  0  0  0  0  0  0  0  0  0  0
   -4.4710    1.2550    0.7600 N   0  0  0  0  0  0  0  0  0  0  0  0
   -4.9800    0.1900    0.1630 N   0  0  0  0  0  0  0  0  0  0  0  0
   -2.1900    1.8870    1.8720 C   0  0  0  0  0  0  0  0  0  0  0  0
   -0.8520    1.7380    1.2470 C   0  0  0  0  0  0  0  0  0  0  0  0
   -0.6260    0.4380    0.5580 C   0  0  1  0  0  0  0  0  0  0  0  0
   -1.0350    0.6000   -0.9090 C   0  0  0  0  0  0  0  0  0  0  0  0
    0.7570    0.0160    0.6150 N   0  0  0  0  0  0  0  0  0  0  0  0
    1.7750    0.8130    0.0600 C   0  0  0  0  0  0  0  0  0  0  0  0
    1.4340    1.8860   -0.4760 O   0  0  0  0  0  0  0  0  0  0  0  0
    3.1940    0.4470    0.0830 C   0  0  0  0  0  0  0  0  0  0  0  0
    4.1200    1.2870   -0.4830 C   0  0  0  0  0  0  0  0  0  0  0  0
    5.4580    0.9620   -0.4720 C   0  0  0  0  0  0  0  0  0  0  0  0
    5.9380   -0.2010    0.0940 C   0  0  0  0  0  0  0  0  0  0  0  0
    7.3200   -0.5310    0.1020 N   0  0  0  0  0  0  0  0  0  0  0  0
    8.3300    0.1940    0.6130 C   0  0  0  0  0  0  0  0  0  0  0  0
    9.4770   -0.4870    0.4070 N   0  0  0  0  0  0  0  0  0  0  0  0
    9.2030   -1.6190   -0.2210 N   0  0  0  0  0  0  0  0  0  0  0  0
    7.8570   -1.6510   -0.4130 C   0  0  0  0  0  0  0  0  0  0  0  0
    4.9810   -1.0270    0.6560 C   0  0  0  0  0  0  0  0  0  0  0  0
    3.6390   -0.7210    0.6560 C   0  0  0  0  0  0  0  0  0  0  0  0
   -1.5330   -0.6740    1.1310 C   0  0  0  0  0  0  0  0  0  0  0  0
  1  2  1  0
  2  3  2  0
  2 11  1  0
  3  4  1  0
  4  5  2  0
  5  6  1  0
  5  7  1  0
  7  8  2  0
  7 11  1  0
  8  9  1  0
  8 30  1  0
  9 10  2  0
  9 12  1  0
 10 11  1  0
 12 13  1  0
 13 14  1  0
 14 15  1  6
 14 16  1  0
 14 30  1  0
 16 17  1  0
 17 18  2  0
 17 19  1  0
 19 20  2  0
 19 29  1  0
 20 21  1  0
 21 22  2  0
 22 23  1  0
 22 28  1  0
 23 24  1  0
 23 27  1  0
 24 25  2  0
 25 26  1  0
 26 27  2  0
 28 29  2  0
M  END
