
     RDKit          3D

 28 31  0  0  0  0  0  0  0  0999 V2000
    8.0360   -0.9360    0.8060 C   0  0  0  0  0  0  0  0  0  0  0  0
    8.0610    0.3680    1.2510 O   0  0  0  0  0  0  0  0  0  0  0  0
    7.0360    1.1660    0.7870 C   0  0  0  0  0  0  0  0  0  0  0  0
    5.6810    0.7060    1.1820 C   0  0  0  0  0  0  0  0  0  0  0  0
    5.3500   -0.1920    2.1130 N   0  0  0  0  0  0  0  0  0  0  0  0
    4.0380   -0.2850    2.1200 N   0  0  0  0  0  0  0  0  0  0  0  0
    3.5290    0.5480    1.1980 C   0  0  0  0  0  0  0  0  0  0  0  0
    1.8040    0.8180    0.7900 S   0  0  0  0  0  0  0  0  0  0  0  0
    1.3530   -0.3690   -0.5070 C   0  0  2  0  0  0  0  0  0  0  0  0
    2.0810   -0.0310   -1.6460 O   0  0  0  0  0  0  0  0  0  0  0  0
    1.8280    1.2790   -1.9650 C   0  0  0  0  0  0  0  0  0  0  0  0
    0.4390    1.5300   -2.4520 C   0  0  0  0  0  0  0  0  0  0  0  0
   -0.5360    0.6390   -1.7930 C   0  0  0  0  0  0  0  0  0  0  0  0
   -1.8960    0.7280   -2.1210 C   0  0  0  0  0  0  0  0  0  0  0  0
   -2.7880   -0.0770   -1.5240 N   0  0  0  0  0  0  0  0  0  0  0  0
   -2.3850   -0.9730   -0.6080 C   0  0  0  0  0  0  0  0  0  0  0  0
   -3.3480   -1.8190    0.0180 N   0  0  0  0  0  0  0  0  0  0  0  0
   -2.9460   -2.7850    1.0100 C   0  0  0  0  0  0  0  0  0  0  0  0
   -4.7520   -1.7350   -0.3250 C   0  0  0  0  0  0  0  0  0  0  0  0
   -5.2410   -0.3720   -0.0530 C   0  0  0  0  0  0  0  0  0  0  0  0
   -5.3710    0.0410    1.2600 C   0  0  0  0  0  0  0  0  0  0  0  0
   -5.8400    1.3220    1.4770 C   0  0  0  0  0  0  0  0  0  0  0  0
   -6.1760    2.1870    0.4590 C   0  0  0  0  0  0  0  0  0  0  0  0
   -6.0320    1.7380   -0.8020 N   0  0  0  0  0  0  0  0  0  0  0  0
   -5.5780    0.4930   -1.0490 C   0  0  0  0  0  0  0  0  0  0  0  0
   -1.0430   -1.0780   -0.2690 C   0  0  0  0  0  0  0  0  0  0  0  0
   -0.0860   -0.2660   -0.8610 C   0  0  0  0  0  0  0  0  0  0  0  0
    4.5640    1.1330    0.6500 O   0  0  0  0  0  0  0  0  0  0  0  0
  1  2  1  0
  2  3  1  0
  3  4  1  0
  4  5  2  0
  4 28  1  0
  5  6  1  0
  6  7  2  0
  7  8  1  0
  7 28  1  0
  9  8  1  1
  9 10  1  0
  9 27  1  0
 10 11  1  0
 11 12  1  0
 12 13  1  0
 13 14  2  0
 13 27  1  0
 14 15  1  0
 15 16  2  0
 16 17  1  0
 16 26  1  0
 17 18  1  0
 17 19  1  0
 19 20  1  0
 20 21  2  0
 20 25  1  0
 21 22  1  0
 22 23  2  0
 23 24  1  0
 24 25  2  0
 26 27  2  0
M  END
