
     RDKit          3D

 30 33  0  0  0  0  0  0  0  0999 V2000
    7.2030    2.7140    0.4700 C   0  0  0  0  0  0  0  0  0  0  0  0
    5.7560    2.7150    0.4070 C   0  0  0  0  0  0  0  0  0  0  0  0
    4.8530    1.7710    0.3520 C   0  0  0  0  0  0  0  0  0  0  0  0
    3.5070    2.2130    0.3010 C   0  0  0  0  0  0  0  0  0  0  0  0
    2.4840    1.3010    0.2430 C   0  0  0  0  0  0  0  0  0  0  0  0
    2.7030   -0.0500    0.2300 C   0  0  0  0  0  0  0  0  0  0  0  0
    1.6620   -1.0260    0.1510 N   0  0  0  0  0  0  0  0  0  0  0  0
    0.3220   -0.8040   -0.1340 C   0  0  0  0  0  0  0  0  0  0  0  0
   -0.1070    0.3450   -0.3630 O   0  0  0  0  0  0  0  0  0  0  0  0
   -0.6160   -1.9900   -0.1620 C   0  0  0  0  0  0  0  0  0  0  0  0
   -1.9960   -1.5250   -0.4920 C   0  0  0  0  0  0  0  0  0  0  0  0
   -2.7520   -0.8900    0.4740 C   0  0  0  0  0  0  0  0  0  0  0  0
   -2.1940   -0.7090    1.7250 O   0  0  0  0  0  0  0  0  0  0  0  0
   -4.0130   -0.4870    0.1030 C   0  0  0  0  0  0  0  0  0  0  0  0
   -4.8010    0.1510    1.0380 C   0  0  0  0  0  0  0  0  0  0  0  0
   -6.0770    0.5800    0.7220 C   0  0  0  0  0  0  0  0  0  0  0  0
   -6.5330    0.3470   -0.5550 C   0  0  0  0  0  0  0  0  0  0  0  0
   -5.7720   -0.2860   -1.5080 C   0  0  0  0  0  0  0  0  0  0  0  0
   -4.5030   -0.7050   -1.1730 C   0  0  0  0  0  0  0  0  0  0  0  0
   -3.7490   -1.3270   -2.1050 N   0  0  0  0  0  0  0  0  0  0  0  0
   -2.5110   -1.7230   -1.7410 C   0  0  0  0  0  0  0  0  0  0  0  0
   -1.7900   -2.3080   -2.6030 O   0  0  0  0  0  0  0  0  0  0  0  0
   -7.9210    0.9050   -0.6260 C   0  0  0  0  0  0  0  0  0  0  0  0
   -8.3150    0.9930    0.8120 C   0  0  0  0  0  0  0  0  0  0  0  0
   -7.0710    1.2400    1.4630 O   0  0  0  0  0  0  0  0  0  0  0  0
    4.0190   -0.4380    0.2810 C   0  0  0  0  0  0  0  0  0  0  0  0
    5.1230    0.4270    0.3420 C   0  0  0  0  0  0  0  0  0  0  0  0
    6.3230   -0.1090    0.3810 C   0  0  0  0  0  0  0  0  0  0  0  0
    6.4530   -1.9100    0.3590 S   0  0  0  0  0  0  0  0  0  0  0  0
    6.5750   -2.5030   -1.3570 C   0  0  0  0  0  0  0  0  0  0  0  0
  1  2  1  0
  2  3  2  3
  3  4  1  0
  3 27  1  0
  4  5  2  0
  5  6  1  0
  6  7  1  0
  6 26  2  0
  7  8  1  0
  8  9  2  0
  8 10  1  0
 10 11  1  0
 11 12  2  0
 11 21  1  0
 12 13  1  0
 12 14  1  0
 14 15  2  0
 14 19  1  0
 15 16  1  0
 16 17  2  0
 16 25  1  0
 17 18  1  0
 17 23  1  0
 18 19  2  0
 19 20  1  0
 20 21  1  0
 21 22  2  0
 23 24  1  0
 24 25  1  0
 26 27  1  0
 27 28  2  3
 28 29  1  0
 29 30  1  0
M  END
