
     RDKit          3D

 30 33  0  0  0  0  0  0  0  0999 V2000
   -6.5250    2.3350   -1.5370 C   0  0  0  0  0  0  0  0  0  0  0  0
   -6.7460    1.9180   -0.0790 C   0  0  1  0  0  0  0  0  0  0  0  0
   -6.8090    0.4500   -0.1070 N   0  0  0  0  0  0  0  0  0  0  0  0
   -5.6260   -0.3100   -0.3230 C   0  0  0  0  0  0  0  0  0  0  0  0
   -5.7200   -1.6130   -0.8150 C   0  0  0  0  0  0  0  0  0  0  0  0
   -4.6020   -2.3730   -1.0350 C   0  0  0  0  0  0  0  0  0  0  0  0
   -3.3700   -1.8320   -0.7620 C   0  0  0  0  0  0  0  0  0  0  0  0
   -2.1750   -2.6330   -0.9930 C   0  0  0  0  0  0  0  0  0  0  0  0
   -2.2770   -3.8040   -1.4320 O   0  0  0  0  0  0  0  0  0  0  0  0
   -0.9070   -2.0970   -0.7240 O   0  0  0  0  0  0  0  0  0  0  0  0
    0.2240   -2.9080   -0.9620 C   0  0  0  0  0  0  0  0  0  0  0  0
    1.4700   -2.1960   -0.6320 C   0  0  0  0  0  0  0  0  0  0  0  0
    1.5360   -0.9180   -0.1660 C   0  0  0  0  0  0  0  0  0  0  0  0
    2.7590   -0.3080    0.1250 C   0  0  0  0  0  0  0  0  0  0  0  0
    3.9510   -0.9800   -0.0500 C   0  0  0  0  0  0  0  0  0  0  0  0
    5.2680   -0.3740    0.2430 C   0  0  0  0  0  0  0  0  0  0  0  0
    5.1760    0.9440    0.6940 O   0  0  0  0  0  0  0  0  0  0  0  0
    6.3690    1.6080    0.9990 C   0  0  0  0  0  0  0  0  0  0  0  0
    6.9380    2.5920    0.2910 C   0  0  0  0  0  0  0  0  0  0  0  0
    8.1730    3.0110    0.9490 C   0  0  0  0  0  0  0  0  0  0  0  0
    9.3120    4.3000    0.4680 S   0  0  0  0  0  0  0  0  0  0  0  0
    8.2640    2.2110    2.0000 C   0  0  0  0  0  0  0  0  0  0  0  0
    7.2590    1.3940    2.1320 C   0  0  0  0  0  0  0  0  0  0  0  0
    3.8730   -2.2740   -0.5220 C   0  0  0  0  0  0  0  0  0  0  0  0
    2.6690   -2.8810   -0.8100 C   0  0  0  0  0  0  0  0  0  0  0  0
   -3.2850   -0.5330   -0.2720 C   0  0  0  0  0  0  0  0  0  0  0  0
   -4.3970    0.2440   -0.0460 C   0  0  0  0  0  0  0  0  0  0  0  0
   -4.3370    1.5770    0.4560 N   0  0  0  0  0  0  0  0  0  0  0  0
   -5.5270    2.3250    0.6670 C   0  0  0  0  0  0  0  0  0  0  0  0
   -5.5220    3.2990    1.4670 O   0  0  0  0  0  0  0  0  0  0  0  0
  2  1  1  6
  2  3  1  0
  2 29  1  0
  3  4  1  0
  4  5  2  0
  4 27  1  0
  5  6  1  0
  6  7  2  0
  7  8  1  0
  7 26  1  0
  8  9  2  0
  8 10  1  0
 10 11  1  0
 11 12  1  0
 12 13  2  0
 12 25  1  0
 13 14  1  0
 14 15  2  0
 15 16  1  0
 15 24  1  0
 16 17  1  0
 17 18  1  0
 18 19  2  0
 18 23  1  0
 19 20  1  0
 20 21  1  0
 20 22  2  0
 22 23  2  0
 24 25  2  0
 26 27  2  0
 27 28  1  0
 28 29  1  0
 29 30  2  0
M  END
