
     RDKit          3D

 30 33  0  0  0  0  0  0  0  0999 V2000
   -8.6720    0.7570   -0.4640 C   0  0  0  0  0  0  0  0  0  0  0  0
   -7.4200    1.3980    0.1310 C   0  0  0  0  0  0  0  0  0  0  0  0
   -6.2640    0.4690    0.1280 C   0  0  0  0  0  0  0  0  0  0  0  0
   -5.3490    0.4050   -0.8990 C   0  0  0  0  0  0  0  0  0  0  0  0
   -4.2670   -0.4900   -0.8740 C   0  0  0  0  0  0  0  0  0  0  0  0
   -4.0690   -1.3480    0.1790 C   0  0  0  0  0  0  0  0  0  0  0  0
   -2.9500   -2.3110    0.2820 C   0  0  2  0  0  0  0  0  0  0  0  0
   -2.5460   -2.4300    1.6060 O   0  0  0  0  0  0  0  0  0  0  0  0
   -1.8550   -2.0690   -0.6850 C   0  0  0  0  0  0  0  0  0  0  0  0
   -1.0430   -0.9190   -0.5210 N   0  0  0  0  0  0  0  0  0  0  0  0
   -0.2420   -0.6820    0.6180 C   0  0  0  0  0  0  0  0  0  0  0  0
   -0.2040   -1.5190    1.5850 O   0  0  0  0  0  0  0  0  0  0  0  0
    0.5570    0.5330    0.7090 C   0  0  0  0  0  0  0  0  0  0  0  0
    1.8010    0.7480    0.1770 C   0  0  0  0  0  0  0  0  0  0  0  0
    2.2290    2.0370    0.4790 C   0  0  0  0  0  0  0  0  0  0  0  0
    3.4490    2.7330    0.1990 C   0  0  0  0  0  0  0  0  0  0  0  0
    3.5370    3.9680    0.1040 O   0  0  0  0  0  0  0  0  0  0  0  0
    4.6820    1.9300    0.0170 C   0  0  0  0  0  0  0  0  0  0  0  0
    4.9380    0.6430    0.5630 C   0  0  0  0  0  0  0  0  0  0  0  0
    6.1300    0.1100    0.2980 C   0  0  0  0  0  0  0  0  0  0  0  0
    7.0350    0.8160   -0.4740 C   0  0  0  0  0  0  0  0  0  0  0  0
    6.1470    2.2760   -0.8240 S   0  0  0  0  0  0  0  0  0  0  0  0
    8.3720    0.3180   -0.8150 C   0  0  0  0  0  0  0  0  0  0  0  0
    8.7560   -0.7800    0.1090 C   0  0  0  0  0  0  0  0  0  0  0  0
    7.9590   -0.9190    1.2360 O   0  0  0  0  0  0  0  0  0  0  0  0
    6.6710   -1.2500    0.7570 C   0  0  0  0  0  0  0  0  0  0  0  0
    1.1670    2.5790    1.2220 C   0  0  0  0  0  0  0  0  0  0  0  0
    0.1880    1.6690    1.3440 N   0  0  0  0  0  0  0  0  0  0  0  0
   -5.0070   -1.2790    1.2250 C   0  0  0  0  0  0  0  0  0  0  0  0
   -6.0600   -0.3990    1.1870 C   0  0  0  0  0  0  0  0  0  0  0  0
  1  2  1  0
  2  3  1  0
  3  4  2  0
  3 30  1  0
  4  5  1  0
  5  6  2  0
  6  7  1  0
  6 29  1  0
  7  8  1  1
  7  9  1  0
  9 10  1  0
 10 11  1  0
 11 12  2  0
 11 13  1  0
 13 14  2  0
 13 28  1  0
 14 15  1  0
 15 16  1  0
 15 27  2  0
 16 17  2  0
 16 18  1  0
 18 19  2  0
 18 22  1  0
 19 20  1  0
 20 21  2  0
 20 26  1  0
 21 22  1  0
 21 23  1  0
 23 24  1  0
 24 25  1  0
 25 26  1  0
 27 28  1  0
 29 30  2  0
M  END
