
     RDKit          3D

 22 24  0  0  0  0  0  0  0  0999 V2000
   -3.3360    1.7790    0.2690 C   0  0  0  0  0  0  0  0  0  0  0  0
   -3.9980    0.4620    0.0370 C   0  0  1  0  0  0  0  0  0  0  0  0
   -4.8680    0.5740   -1.2160 C   0  0  0  0  0  0  0  0  0  0  0  0
   -3.0090   -0.6110   -0.1200 C   0  0  0  0  0  0  0  0  0  0  0  0
   -2.9790   -1.2520   -1.1530 O   0  0  0  0  0  0  0  0  0  0  0  0
   -2.0710   -0.8990    0.9630 C   0  0  0  0  0  0  0  0  0  0  0  0
   -1.1510   -2.0300    0.6430 N   0  0  0  0  0  0  0  0  0  0  0  0
    0.0590   -1.9880    0.2050 C   0  0  0  0  0  0  0  0  0  0  0  0
    0.9500   -0.8060   -0.0050 C   0  0  0  0  0  0  0  0  0  0  0  0
    2.3180   -0.9240    0.3150 C   0  0  0  0  0  0  0  0  0  0  0  0
    3.2600    0.0420    0.0960 C   0  0  0  0  0  0  0  0  0  0  0  0
    2.8380    1.2100   -0.4780 C   0  0  0  0  0  0  0  0  0  0  0  0
    1.5570    1.3570   -0.7940 N   0  0  0  0  0  0  0  0  0  0  0  0
    0.6090    0.3780   -0.5730 C   0  0  0  0  0  0  0  0  0  0  0  0
   -0.5490    0.6420   -0.9270 O   0  0  0  0  0  0  0  0  0  0  0  0
    3.9900    2.1130   -0.6260 C   0  0  0  0  0  0  0  0  0  0  0  0
    4.9920    1.5900    0.3670 C   0  0  0  0  0  0  0  0  0  0  0  0
    4.7360    0.1180    0.3560 C   0  0  0  0  0  0  0  0  0  0  0  0
    0.7300   -3.2340    0.0080 C   0  0  0  0  0  0  0  0  0  0  0  0
   -0.4550   -4.4040    0.4760 S   0  0  0  0  0  0  0  0  0  0  0  0
   -1.7240   -3.2690    0.8920 C   0  0  0  0  0  0  0  0  0  0  0  0
   -2.9080   -3.5650    1.3280 O   0  0  0  0  0  0  0  0  0  0  0  0
  2  1  1  6
  2  3  1  0
  2  4  1  0
  4  5  2  0
  4  6  1  0
  6  7  1  0
  7  8  1  0
  7 21  1  0
  8  9  1  0
  8 19  2  0
  9 10  2  0
  9 14  1  0
 10 11  1  0
 11 12  2  0
 11 18  1  0
 12 13  1  0
 12 16  1  0
 13 14  1  0
 14 15  2  0
 16 17  1  0
 17 18  1  0
 19 20  1  0
 20 21  1  0
 21 22  2  0
M  END
