
     RDKit          3D

 22 24  0  0  0  0  0  0  0  0999 V2000
    7.5690   -0.1380   -2.1250 N   0  0  0  0  0  0  0  0  0  0  0  0
    6.7170    0.1950   -1.3860 C   0  0  0  0  0  0  0  0  0  0  0  0
    5.7010    0.6100   -0.4740 C   0  0  0  0  0  0  0  0  0  0  0  0
    4.3610    0.2690   -0.6550 C   0  0  0  0  0  0  0  0  0  0  0  0
    3.3870    0.6720    0.2260 C   0  0  0  0  0  0  0  0  0  0  0  0
    2.0820    0.2930   -0.0240 O   0  0  0  0  0  0  0  0  0  0  0  0
    1.0920    0.7010    0.8690 C   0  0  0  0  0  0  0  0  0  0  0  0
   -0.2690    0.1540    0.3730 C   0  0  0  0  0  0  0  0  0  0  0  0
   -0.9250   -0.8250    0.5760 N   0  0  0  0  0  0  0  0  0  0  0  0
   -2.0850   -1.1250    0.0470 C   0  0  0  0  0  0  0  0  0  0  0  0
   -2.5850   -0.2010   -0.8330 C   0  0  0  0  0  0  0  0  0  0  0  0
   -1.2570    1.0840   -0.8110 S   0  0  0  0  0  0  0  0  0  0  0  0
   -3.7860   -0.0610   -1.6610 C   0  0  2  0  0  0  0  0  0  0  0  0
   -3.8990    1.2170   -2.2190 O   0  0  0  0  0  0  0  0  0  0  0  0
   -4.9940   -0.2950   -0.7980 C   0  0  0  0  0  0  0  0  0  0  0  0
   -5.1370   -1.7550   -0.4010 C   0  0  0  0  0  0  0  0  0  0  0  0
   -4.2590   -2.1130    0.7600 C   0  0  0  0  0  0  0  0  0  0  0  0
   -2.8340   -2.3980    0.3710 C   0  0  0  0  0  0  0  0  0  0  0  0
    3.7450    1.4320    1.3150 C   0  0  0  0  0  0  0  0  0  0  0  0
    5.0550    1.7890    1.5300 C   0  0  0  0  0  0  0  0  0  0  0  0
    6.0060    1.3640    0.6190 C   0  0  0  0  0  0  0  0  0  0  0  0
    7.3290    1.7320    0.8480 O   0  0  0  0  0  0  0  0  0  0  0  0
  1  2  3  0
  2  3  1  0
  3  4  2  0
  3 21  1  0
  4  5  1  0
  5  6  1  0
  5 19  2  0
  6  7  1  0
  7  8  1  0
  8  9  2  0
  8 12  1  0
  9 10  1  0
 10 11  2  0
 10 18  1  0
 11 12  1  0
 11 13  1  0
 13 14  1  1
 13 15  1  0
 15 16  1  0
 16 17  1  0
 17 18  1  0
 19 20  1  0
 20 21  2  0
 21 22  1  0
M  END
