
     RDKit          3D

 15 15  0  0  0  0  0  0  0  0999 V2000
    3.4840   -1.4000   -0.3390 N   0  0  0  0  0  0  0  0  0  0  0  0
    2.4660   -0.4580   -0.6160 C   0  0  0  0  0  0  0  0  0  0  0  0
    2.6460    0.3010   -1.5980 O   0  0  0  0  0  0  0  0  0  0  0  0
    1.2870   -0.4480    0.2630 C   0  0  2  0  0  0  0  0  0  0  0  0
    0.6320   -1.7820    0.1820 C   0  0  0  0  0  0  0  0  0  0  0  0
    1.1500   -2.8640   -0.2100 O   0  0  0  0  0  0  0  0  0  0  0  0
   -0.6600   -1.5560    0.6320 O   0  0  0  0  0  0  0  0  0  0  0  0
   -1.0110   -0.1900    0.4490 C   0  0  1  0  0  0  0  0  0  0  0  0
   -2.2330   -0.1970   -0.4610 C   0  0  0  0  0  0  0  0  0  0  0  0
   -1.9240   -0.8210   -1.7290 N   0  0  0  0  0  0  0  0  0  0  0  0
   -1.3730    0.3270    1.8080 C   0  0  0  0  0  0  0  0  0  0  0  0
   -1.7440    1.6380    1.8500 O   0  0  0  0  0  0  0  0  0  0  0  0
    0.1790    0.4450   -0.1660 C   0  0  1  0  0  0  0  0  0  0  0  0
    0.3850    1.8880    0.2030 C   0  0  0  0  0  0  0  0  0  0  0  0
    1.5510    2.3650   -0.3940 O   0  0  0  0  0  0  0  0  0  0  0  0
  1  2  1  0
  2  3  2  0
  4  2  1  6
  4  5  1  0
  4 13  1  0
  5  6  2  0
  5  7  1  0
  7  8  1  0
  8  9  1  6
  8 11  1  0
  8 13  1  0
  9 10  1  0
 11 12  1  0
 13 14  1  1
 14 15  1  0
M  CHG  1  10   1
M  END
