
     RDKit          3D

 22 24  0  0  0  0  0  0  0  0999 V2000
    3.4640    0.3650   -2.8500 O   0  0  0  0  0  0  0  0  0  0  0  0
    3.5400    0.0490   -1.6030 C   0  0  0  0  0  0  0  0  0  0  0  0
    4.8250    0.0850   -1.0160 C   0  0  0  0  0  0  0  0  0  0  0  0
    5.3880   -0.1540    0.1930 C   0  0  0  0  0  0  0  0  0  0  0  0
    6.6780   -0.0270    0.4470 C   0  0  0  0  0  0  0  0  0  0  0  0
    7.5310    0.3940   -0.6380 C   0  0  0  0  0  0  0  0  0  0  0  0
    6.3380    0.5760   -1.9930 S   0  0  0  0  0  0  0  0  0  0  0  0
    2.3280   -0.2900   -0.9900 N   0  0  0  0  0  0  0  0  0  0  0  0
    2.1320   -0.6750    0.3860 C   0  0  0  0  0  0  0  0  0  0  0  0
    0.6510   -0.9090    0.6030 C   0  0  0  0  0  0  0  0  0  0  0  0
   -0.1250    0.2760    0.2620 N   0  0  0  0  0  0  0  0  0  0  0  0
   -1.5110   -0.1040    0.3940 C   0  0  0  0  0  0  0  0  0  0  0  0
   -2.4910    0.9990    0.2030 C   0  0  2  0  0  0  0  0  0  0  0  0
   -2.2180    1.9700    1.1870 O   0  0  0  0  0  0  0  0  0  0  0  0
   -3.9010    0.5400    0.3480 C   0  0  0  0  0  0  0  0  0  0  0  0
   -4.8560    0.6080   -0.5680 C   0  0  0  0  0  0  0  0  0  0  0  0
   -6.1290    0.0560   -0.0700 C   0  0  0  0  0  0  0  0  0  0  0  0
   -5.7630   -0.3570    1.3190 C   0  0  0  0  0  0  0  0  0  0  0  0
   -4.4890   -0.0700    1.5300 C   0  0  0  0  0  0  0  0  0  0  0  0
   -3.8480   -0.3400    2.7440 O   0  0  0  0  0  0  0  0  0  0  0  0
    0.1020    0.6490   -1.1220 C   0  0  0  0  0  0  0  0  0  0  0  0
    1.0940   -0.2690   -1.7950 C   0  0  0  0  0  0  0  0  0  0  0  0
  1  2  2  0
  2  3  1  0
  2  8  1  0
  3  4  2  0
  3  7  1  0
  4  5  1  0
  5  6  2  0
  6  7  1  0
  8  9  1  0
  8 22  1  0
  9 10  1  0
 10 11  1  0
 11 12  1  0
 11 21  1  0
 12 13  1  0
 13 14  1  1
 13 15  1  0
 15 16  2  0
 15 19  1  0
 16 17  1  0
 17 18  1  0
 18 19  2  0
 19 20  1  0
 21 22  1  0
M  END
