
     RDKit          3D

 22 24  0  0  0  0  0  0  0  0999 V2000
    1.4160   -2.0670    0.3940 O   0  0  0  0  0  0  0  0  0  0  0  0
    0.8930   -1.0040   -0.0250 C   0  0  0  0  0  0  0  0  0  0  0  0
    1.6470   -0.0020   -0.6430 N   0  0  0  0  0  0  0  0  0  0  0  0
    3.0340   -0.1900   -0.7970 N   0  0  0  0  0  0  0  0  0  0  0  0
    3.8750   -0.3700    0.3180 C   0  0  0  0  0  0  0  0  0  0  0  0
    3.3950   -0.3650    1.4660 O   0  0  0  0  0  0  0  0  0  0  0  0
    5.3200   -0.5640    0.1150 C   0  0  1  0  0  0  0  0  0  0  0  0
    5.8740    0.7010   -0.5150 C   0  0  0  0  0  0  0  0  0  0  0  0
    7.1860    0.8610    0.2170 C   0  0  0  0  0  0  0  0  0  0  0  0
    7.3280   -0.4780    0.9120 C   0  0  0  0  0  0  0  0  0  0  0  0
    6.0070   -0.7290    1.3130 O   0  0  0  0  0  0  0  0  0  0  0  0
   -0.5440   -0.7860    0.1240 C   0  0  0  0  0  0  0  0  0  0  0  0
   -1.3070    0.3270   -0.2780 C   0  0  0  0  0  0  0  0  0  0  0  0
   -2.6120    0.2840   -0.0250 C   0  0  0  0  0  0  0  0  0  0  0  0
   -3.1550   -0.7830    0.5850 C   0  0  0  0  0  0  0  0  0  0  0  0
   -1.7490   -1.8180    0.8350 S   0  0  0  0  0  0  0  0  0  0  0  0
   -4.3730   -1.3950    1.0960 C   0  0  0  0  0  0  0  0  0  0  0  0
   -5.5590   -0.5270    1.2360 C   0  0  0  0  0  0  0  0  0  0  0  0
   -5.9400    0.2990    0.0750 C   0  0  0  0  0  0  0  0  0  0  0  0
   -5.2430    0.0090   -1.2080 C   0  0  0  0  0  0  0  0  0  0  0  0
   -4.2690    1.1080   -1.5970 C   0  0  0  0  0  0  0  0  0  0  0  0
   -3.3680    1.5250   -0.4890 C   0  0  0  0  0  0  0  0  0  0  0  0
  1  2  2  0
  2  3  1  0
  2 12  1  0
  3  4  1  0
  4  5  1  0
  5  6  2  0
  7  5  1  1
  7  8  1  0
  7 11  1  0
  8  9  1  0
  9 10  1  0
 10 11  1  0
 12 13  2  0
 12 16  1  0
 13 14  1  0
 14 15  2  0
 14 22  1  0
 15 16  1  0
 15 17  1  0
 17 18  1  0
 18 19  1  0
 19 20  1  0
 20 21  1  0
 21 22  1  0
M  END
