
     RDKit          3D

 22 24  0  0  0  0  0  0  0  0999 V2000
   -6.4790   -0.0800    0.3450 N   0  0  0  0  0  0  0  0  0  0  0  0
   -5.5670   -1.4120   -0.2590 S   0  0  1  0  0  0  0  0  0  0  0  0
   -5.7230   -2.5710    0.6820 O   0  0  0  0  0  0  0  0  0  0  0  0
   -6.0500   -1.8290   -1.6230 O   0  0  0  0  0  0  0  0  0  0  0  0
   -3.8930   -0.9030   -0.3880 C   0  0  0  0  0  0  0  0  0  0  0  0
   -3.4110   -0.3300   -1.5450 C   0  0  0  0  0  0  0  0  0  0  0  0
   -2.0950    0.0570   -1.6100 C   0  0  0  0  0  0  0  0  0  0  0  0
   -1.2440   -0.1290   -0.5070 C   0  0  0  0  0  0  0  0  0  0  0  0
    0.1190    0.3490   -0.6300 C   0  0  0  0  0  0  0  0  0  0  0  0
    0.2990    1.1150   -1.6670 O   0  0  0  0  0  0  0  0  0  0  0  0
    1.2340    0.0950    0.2030 N   0  0  0  0  0  0  0  0  0  0  0  0
    1.3660   -0.9490    1.1790 C   0  0  0  0  0  0  0  0  0  0  0  0
    2.7370   -1.4870    1.4080 C   0  0  0  0  0  0  0  0  0  0  0  0
    3.7840   -1.0320    0.4230 C   0  0  0  0  0  0  0  0  0  0  0  0
    3.6550    0.3990    0.1190 C   0  0  0  0  0  0  0  0  0  0  0  0
    4.7610    1.1780   -0.0540 C   0  0  0  0  0  0  0  0  0  0  0  0
    4.6140    2.5410   -0.3400 C   0  0  0  0  0  0  0  0  0  0  0  0
    3.3490    3.0710   -0.4420 C   0  0  0  0  0  0  0  0  0  0  0  0
    2.2060    2.2880   -0.2670 C   0  0  0  0  0  0  0  0  0  0  0  0
    2.3970    0.9430    0.0150 C   0  0  0  0  0  0  0  0  0  0  0  0
   -1.7290   -0.6980    0.6410 C   0  0  0  0  0  0  0  0  0  0  0  0
   -3.0620   -1.0850    0.6940 C   0  0  0  0  0  0  0  0  0  0  0  0
  2  1  1  1
  2  3  2  0
  2  4  2  0
  2  5  1  0
  5  6  2  0
  5 22  1  0
  6  7  1  0
  7  8  2  0
  8  9  1  0
  8 21  1  0
  9 10  2  0
  9 11  1  0
 11 12  1  0
 11 20  1  0
 12 13  1  0
 13 14  1  0
 14 15  1  0
 15 16  2  0
 15 20  1  0
 16 17  1  0
 17 18  2  0
 18 19  1  0
 19 20  2  0
 21 22  2  0
M  END
