
     RDKit          3D

 22 24  0  0  0  0  0  0  0  0999 V2000
   -3.1480    5.5520   -0.4480 N   0  0  0  0  0  0  0  0  0  0  0  0
   -3.2990    4.1470   -0.4450 C   0  0  0  0  0  0  0  0  0  0  0  0
   -4.4170    3.5720   -0.5120 O   0  0  0  0  0  0  0  0  0  0  0  0
   -2.1510    3.2780   -0.3620 N   0  0  0  0  0  0  0  0  0  0  0  0
   -2.3240    1.8680   -0.3600 C   0  0  0  0  0  0  0  0  0  0  0  0
   -3.8680    1.0380   -0.4530 S   0  0  0  0  0  0  0  0  0  0  0  0
   -3.2800   -0.5870   -0.3990 C   0  0  0  0  0  0  0  0  0  0  0  0
   -1.8910   -0.4220   -0.3100 C   0  0  0  0  0  0  0  0  0  0  0  0
   -1.4130    0.8180   -0.2910 C   0  0  0  0  0  0  0  0  0  0  0  0
    0.0320    1.1210   -0.2010 C   0  0  0  0  0  0  0  0  0  0  0  0
    0.4830    2.2880   -0.1840 O   0  0  0  0  0  0  0  0  0  0  0  0
    1.0210    0.1690   -0.1290 O   0  0  0  0  0  0  0  0  0  0  0  0
    2.3800    0.4030   -0.0450 C   0  0  1  0  0  0  0  0  0  0  0  0
    2.8670   -0.1130    1.2950 C   0  0  0  0  0  0  0  0  0  0  0  0
    4.3610   -0.3340    1.2970 C   0  0  0  0  0  0  0  0  0  0  0  0
    4.7060   -1.4570    0.3630 C   0  0  0  0  0  0  0  0  0  0  0  0
    3.6330   -1.6120   -0.7230 C   0  0  0  0  0  0  0  0  0  0  0  0
    3.2370   -0.1890   -1.1050 C   0  0  0  0  0  0  0  0  0  0  0  0
   -1.2180   -1.7900   -0.2510 C   0  0  0  0  0  0  0  0  0  0  0  0
   -1.8620   -2.5140    0.9290 C   0  0  0  0  0  0  0  0  0  0  0  0
   -3.3320   -2.7010    0.7650 C   0  0  0  0  0  0  0  0  0  0  0  0
   -3.8910   -1.9550   -0.4280 C   0  0  0  0  0  0  0  0  0  0  0  0
  1  2  1  0
  2  3  2  0
  2  4  1  0
  4  5  1  0
  5  6  1  0
  5  9  2  0
  6  7  1  0
  7  8  2  0
  7 22  1  0
  8  9  1  0
  8 19  1  0
  9 10  1  0
 10 11  2  0
 10 12  1  0
 13 12  1  6
 13 14  1  0
 13 18  1  0
 14 15  1  0
 15 16  1  0
 16 17  1  0
 17 18  1  0
 19 20  1  0
 20 21  1  0
 21 22  1  0
M  END
