
     RDKit          3D

 22 22  0  0  0  0  0  0  0  0999 V2000
   -4.3810   -0.8330    1.3550 C   0  0  0  0  0  0  0  0  0  0  0  0
   -5.4740   -0.7120    0.4150 N   0  0  0  0  0  0  0  0  0  0  0  0
   -5.0950   -1.1430   -0.9160 C   0  0  1  0  0  0  0  0  0  0  0  0
   -6.2430   -1.9470   -1.4860 C   0  0  0  0  0  0  0  0  0  0  0  0
   -4.7870    0.0510   -1.8070 C   0  0  0  0  0  0  0  0  0  0  0  0
   -3.6680    0.8750   -1.2740 C   0  0  0  0  0  0  0  0  0  0  0  0
   -2.4560    0.1610   -1.1480 O   0  0  0  0  0  0  0  0  0  0  0  0
   -1.3060    0.7380   -0.6760 C   0  0  0  0  0  0  0  0  0  0  0  0
   -1.3550    1.9560   -0.3470 O   0  0  0  0  0  0  0  0  0  0  0  0
   -0.0160    0.0330   -0.5260 C   0  0  0  0  0  0  0  0  0  0  0  0
    1.0130    0.9020   -0.0050 N   0  0  0  0  0  0  0  0  0  0  0  0
    2.3410    0.3590    0.2000 C   0  0  0  0  0  0  0  0  0  0  0  0
    2.5750   -0.8300   -0.0710 O   0  0  0  0  0  0  0  0  0  0  0  0
    3.3320    1.2230    0.7100 N   0  0  0  0  0  0  0  0  0  0  0  0
    4.6680    0.8800    0.9730 C   0  0  0  0  0  0  0  0  0  0  0  0
    5.1860   -0.3670    0.7620 C   0  0  0  0  0  0  0  0  0  0  0  0
    6.5270   -0.6540    1.0430 C   0  0  0  0  0  0  0  0  0  0  0  0
    7.0500   -1.9470    0.8210 N   0  0  0  0  0  0  0  0  0  0  0  0
    7.3710    0.3050    1.5400 C   0  0  0  0  0  0  0  0  0  0  0  0
    6.8500    1.5530    1.7500 C   0  0  0  0  0  0  0  0  0  0  0  0
    5.5130    1.8610    1.4770 C   0  0  0  0  0  0  0  0  0  0  0  0
    5.1300    3.1480    1.7350 O   0  0  0  0  0  0  0  0  0  0  0  0
  1  2  1  0
  2  3  1  0
  3  4  1  6
  3  5  1  0
  5  6  1  0
  6  7  1  0
  7  8  1  0
  8  9  2  0
  8 10  1  0
 10 11  1  0
 11 12  1  0
 12 13  2  0
 12 14  1  0
 14 15  1  0
 15 16  2  0
 15 21  1  0
 16 17  1  0
 17 18  1  0
 17 19  2  0
 19 20  1  0
 20 21  2  0
 21 22  1  0
M  CHG  1   2   1
M  END
