
     RDKit          3D

 22 22  0  0  0  0  0  0  0  0999 V2000
   -1.6560    1.5280   -2.2100 C   0  0  0  0  0  0  0  0  0  0  0  0
   -2.5390    1.3380   -1.2210 C   0  0  0  0  0  0  0  0  0  0  0  0
   -3.7240    2.0930   -1.2880 O   0  0  0  0  0  0  0  0  0  0  0  0
   -2.2620    0.4100   -0.1670 C   0  0  0  0  0  0  0  0  0  0  0  0
   -3.0070    0.1270    0.8700 C   0  0  0  0  0  0  0  0  0  0  0  0
   -4.3250    0.6970    1.2140 C   0  0  0  0  0  0  0  0  0  0  0  0
   -4.2770    1.3780    2.5160 N   0  0  0  0  0  0  0  0  0  0  0  0
   -1.0070   -0.3130   -0.2510 N   0  0  0  0  0  0  0  0  0  0  0  0
   -0.7500   -1.2490   -1.2750 C   0  0  0  0  0  0  0  0  0  0  0  0
   -1.6350   -1.4730   -2.1330 O   0  0  0  0  0  0  0  0  0  0  0  0
    0.5170   -1.9660   -1.3650 C   0  0  0  0  0  0  0  0  0  0  0  0
    1.4750   -1.6060   -0.3110 N   0  0  0  0  0  0  0  0  0  0  0  0
    1.9640   -0.2610   -0.4840 C   0  0  0  0  0  0  0  0  0  0  0  0
    3.0950    0.1900    0.0370 C   0  0  0  0  0  0  0  0  0  0  0  0
    3.4370    1.5830   -0.2410 C   0  0  0  0  0  0  0  0  0  0  0  0
    2.5010    2.3710   -1.0740 C   0  0  0  0  0  0  0  0  0  0  0  0
    4.4800    2.1000    0.2040 O   0  0  0  0  0  0  0  0  0  0  0  0
    4.0840   -0.5050    0.8670 C   0  0  0  0  0  0  0  0  0  0  0  0
    5.1340    0.1220    1.0540 O   0  0  0  0  0  0  0  0  0  0  0  0
    3.8960   -1.7890    1.4290 N   0  0  0  0  0  0  0  0  0  0  0  0
    2.6830   -2.4700    1.7050 C   0  0  0  0  0  0  0  0  0  0  0  0
    1.7090   -2.6310    0.6330 C   0  0  0  0  0  0  0  0  0  0  0  0
  1  2  2  0
  2  3  1  0
  2  4  1  0
  4  5  2  3
  4  8  1  0
  5  6  1  0
  6  7  1  0
  8  9  1  0
  9 10  2  0
  9 11  1  0
 11 12  1  0
 12 13  1  0
 12 22  1  0
 13 14  2  0
 14 15  1  0
 14 18  1  0
 15 16  1  0
 15 17  2  0
 18 19  2  0
 18 20  1  0
 20 21  1  0
 21 22  1  0
M  CHG  1   7   1
M  END
