
     RDKit          3D

 22 22  0  0  0  0  0  0  0  0999 V2000
    3.9680    2.2850    1.0590 C   0  0  0  0  0  0  0  0  0  0  0  0
    3.4090    2.3990   -0.3430 C   0  0  0  0  0  0  0  0  0  0  0  0
    2.3100    1.3630   -0.5340 C   0  0  0  0  0  0  0  0  0  0  0  0
    2.9160    0.0080   -0.3230 C   0  0  0  0  0  0  0  0  0  0  0  0
    1.9340   -1.1130   -0.4840 C   0  0  2  0  0  0  0  0  0  0  0  0
    2.5770   -2.4580   -0.2650 C   0  0  0  0  0  0  0  0  0  0  0  0
    3.1080   -2.4770    1.0850 N   0  0  0  0  0  0  0  0  0  0  0  0
    1.2660   -1.1120   -1.7640 N   0  0  0  0  0  0  0  0  0  0  0  0
    0.0530   -1.8550   -1.5190 C   0  0  0  0  0  0  0  0  0  0  0  0
   -0.6500   -2.4750   -2.3780 O   0  0  0  0  0  0  0  0  0  0  0  0
   -0.2490   -1.7900   -0.1300 N   0  0  0  0  0  0  0  0  0  0  0  0
   -1.3910   -2.4040    0.5610 C   0  0  0  0  0  0  0  0  0  0  0  0
   -2.5130   -1.4130    0.5520 C   0  0  0  0  0  0  0  0  0  0  0  0
   -3.6080   -1.7090    1.0890 O   0  0  0  0  0  0  0  0  0  0  0  0
   -2.3760   -0.1390   -0.0480 N   0  0  0  0  0  0  0  0  0  0  0  0
   -3.4020    0.8440   -0.0830 C   0  0  1  0  0  0  0  0  0  0  0  0
   -2.9010    2.0500   -0.8670 C   0  0  0  0  0  0  0  0  0  0  0  0
   -4.6950    0.4020   -0.6850 C   0  0  0  0  0  0  0  0  0  0  0  0
   -3.6950    1.2760    1.3640 C   0  0  0  0  0  0  0  0  0  0  0  0
   -4.7010    2.2540    1.3680 O   0  0  0  0  0  0  0  0  0  0  0  0
    0.7860   -1.0070    0.4530 C   0  0  0  0  0  0  0  0  0  0  0  0
    0.7050   -0.3730    1.5370 O   0  0  0  0  0  0  0  0  0  0  0  0
  1  2  1  0
  2  3  1  0
  3  4  1  0
  5  4  1  6
  5  6  1  0
  5  8  1  0
  5 21  1  0
  6  7  1  0
  8  9  1  0
  9 10  2  0
  9 11  1  0
 11 12  1  0
 11 21  1  0
 12 13  1  0
 13 14  2  0
 13 15  1  0
 15 16  1  0
 16 17  1  6
 16 18  1  0
 16 19  1  0
 19 20  1  0
 21 22  2  0
M  CHG  1   7   1
M  END
