
     RDKit          3D

 25 27  0  0  0  0  0  0  0  0999 V2000
    7.2100    0.2630   -0.1070 C   0  0  0  0  0  0  0  0  0  0  0  0
    6.2580   -0.1030   -1.0900 O   0  0  0  0  0  0  0  0  0  0  0  0
    4.9090   -0.2020   -0.8430 C   0  0  0  0  0  0  0  0  0  0  0  0
    4.4100    0.0620    0.4170 C   0  0  0  0  0  0  0  0  0  0  0  0
    3.0470   -0.0410    0.6550 C   0  0  0  0  0  0  0  0  0  0  0  0
    2.2190   -0.4130   -0.4080 C   0  0  0  0  0  0  0  0  0  0  0  0
    0.8220   -0.5290   -0.2080 N   0  0  0  0  0  0  0  0  0  0  0  0
    0.0720    0.5430   -0.0030 C   0  0  0  0  0  0  0  0  0  0  0  0
   -1.3520    0.3110    0.1910 C   0  0  0  0  0  0  0  0  0  0  0  0
   -2.2350    1.2030    0.4010 C   0  0  0  0  0  0  0  0  0  0  0  0
   -2.1300    2.6400    0.5090 C   0  0  0  0  0  0  0  0  0  0  0  0
   -3.2090    3.4360    0.7400 C   0  0  0  0  0  0  0  0  0  0  0  0
   -2.8380    4.8430    0.8060 C   0  0  0  0  0  0  0  0  0  0  0  0
   -1.3970    4.8360    0.5880 C   0  0  0  0  0  0  0  0  0  0  0  0
   -1.0270    3.5600    0.4230 C   0  0  0  0  0  0  0  0  0  0  0  0
   -1.7970   -1.1250    0.1350 C   0  0  0  0  0  0  0  0  0  0  0  0
   -0.9300   -2.0190   -0.0730 O   0  0  0  0  0  0  0  0  0  0  0  0
   -3.1190   -1.5550    0.2960 N   0  0  0  0  0  0  0  0  0  0  0  0
   -3.4330   -2.9700    0.2220 C   0  0  0  0  0  0  0  0  0  0  0  0
   -4.2460   -3.5650   -0.6280 C   0  0  0  0  0  0  0  0  0  0  0  0
   -4.2850   -5.0210   -0.3630 C   0  0  0  0  0  0  0  0  0  0  0  0
   -3.3780   -5.1590    0.7570 N   0  0  0  0  0  0  0  0  0  0  0  0
   -2.9080   -4.0230    1.0780 C   0  0  0  0  0  0  0  0  0  0  0  0
    2.7320   -0.6730   -1.6610 C   0  0  0  0  0  0  0  0  0  0  0  0
    4.0910   -0.5700   -1.8960 C   0  0  0  0  0  0  0  0  0  0  0  0
  1  2  1  0
  2  3  1  0
  3  4  2  0
  3 25  1  0
  4  5  1  0
  5  6  2  0
  6  7  1  0
  6 24  1  0
  7  8  2  3
  8  9  1  0
  9 10  2  3
  9 16  1  0
 10 11  1  0
 11 12  2  0
 11 15  1  0
 12 13  1  0
 13 14  1  0
 14 15  2  0
 16 17  2  0
 16 18  1  0
 18 19  1  0
 19 20  2  0
 19 23  1  0
 20 21  1  0
 21 22  1  0
 22 23  2  0
 24 25  2  0
M  END
