
     RDKit          3D

 22 22  0  0  0  0  0  0  0  0999 V2000
    7.5720   -0.6200    0.0150 N   0  0  0  0  0  0  0  0  0  0  0  0
    6.1090   -0.4810    0.0190 C   0  0  0  0  0  0  0  0  0  0  0  0
    5.5800   -1.5640    0.3400 O   0  0  0  0  0  0  0  0  0  0  0  0
    5.5970    0.7950   -0.3250 C   0  0  0  0  0  0  0  0  0  0  0  0
    4.4940    1.3970   -0.4750 C   0  0  0  0  0  0  0  0  0  0  0  0
    4.6880    2.9110   -0.8800 C   0  0  0  0  0  0  0  0  0  0  0  0
    4.1010    3.6880    0.0770 O   0  0  0  0  0  0  0  0  0  0  0  0
    3.1130    1.0900   -0.4780 C   0  0  0  0  0  0  0  0  0  0  0  0
    2.1250    1.7410   -0.5650 O   0  0  0  0  0  0  0  0  0  0  0  0
    2.7360   -0.5840   -0.3330 N   0  0  0  0  0  0  0  0  0  0  0  0
    1.3980   -0.4940   -0.2470 C   0  0  0  0  0  0  0  0  0  0  0  0
    0.5500    0.3510   -0.2310 O   0  0  0  0  0  0  0  0  0  0  0  0
    0.8270   -1.9080   -0.1390 N   0  0  0  0  0  0  0  0  0  0  0  0
   -0.5460   -2.1330   -0.0620 C   0  0  0  0  0  0  0  0  0  0  0  0
   -1.2510   -1.5130    1.1060 C   0  0  0  0  0  0  0  0  0  0  0  0
   -2.6650   -1.8950    0.9750 N   0  0  0  0  0  0  0  0  0  0  0  0
   -3.3600   -0.7540    0.4170 C   0  0  2  0  0  0  0  0  0  0  0  0
   -3.6770    0.2730    1.4660 C   0  0  0  0  0  0  0  0  0  0  0  0
   -3.9380    1.5810    0.7220 C   0  0  0  0  0  0  0  0  0  0  0  0
   -5.1270    1.3220   -0.1750 C   0  0  0  0  0  0  0  0  0  0  0  0
   -5.6620   -0.0840   -0.0570 C   0  0  0  0  0  0  0  0  0  0  0  0
   -4.6220   -1.1450   -0.2890 C   0  0  0  0  0  0  0  0  0  0  0  0
  1  2  1  0
  2  3  2  0
  2  4  1  0
  4  5  2  3
  5  6  1  0
  5  8  1  0
  6  7  1  0
  8  9  2  0
  8 10  1  0
 10 11  1  0
 11 12  2  0
 11 13  1  0
 13 14  1  0
 14 15  1  0
 15 16  1  0
 17 16  1  1
 17 18  1  0
 17 22  1  0
 18 19  1  0
 19 20  1  0
 20 21  1  0
 21 22  1  0
M  CHG  1  16   1
M  END
