
     RDKit          3D

 25 26  0  0  0  0  0  0  0  0999 V2000
    7.9660   -0.2330    0.2660 C   0  0  0  0  0  0  0  0  0  0  0  0
    6.8020    0.0190   -0.3270 C   0  0  0  0  0  0  0  0  0  0  0  0
    5.6510    0.3090    0.5540 C   0  0  0  0  0  0  0  0  0  0  0  0
    4.5130    0.4710   -0.0200 C   0  0  0  0  0  0  0  0  0  0  0  0
    3.2400    0.7700    0.7540 C   0  0  0  0  0  0  0  0  0  0  0  0
    2.4940   -0.3940    0.1360 N   0  0  0  0  0  0  0  0  0  0  0  0
    1.7560   -1.3060    0.8810 C   0  0  2  0  0  0  0  0  0  0  0  0
    1.0030   -2.3760    0.1840 C   0  0  0  0  0  0  0  0  0  0  0  0
   -0.1110   -2.7230    1.1900 C   0  0  0  0  0  0  0  0  0  0  0  0
   -0.5510   -1.3450    1.5660 C   0  0  2  0  0  0  0  0  0  0  0  0
   -1.3220   -0.7050    0.5590 N   0  0  0  0  0  0  0  0  0  0  0  0
   -2.6050   -0.2660    0.6360 C   0  0  0  0  0  0  0  0  0  0  0  0
   -3.1190   -0.5890    1.9360 O   0  0  0  0  0  0  0  0  0  0  0  0
   -3.5190    0.3990   -0.2510 C   0  0  0  0  0  0  0  0  0  0  0  0
   -4.6240    0.8450   -0.2580 C   0  0  0  0  0  0  0  0  0  0  0  0
   -5.9270    1.3040   -0.0650 C   0  0  0  0  0  0  0  0  0  0  0  0
   -6.0820    0.5440    1.5870 C   0  0  0  0  0  0  0  0  0  0  0  0
   -7.0430    1.7390   -0.0050 C   0  0  0  0  0  0  0  0  0  0  0  0
   -8.1760    1.8640    0.8550 C   0  0  0  0  0  0  0  0  0  0  0  0
    0.7730   -0.5950    1.8200 C   0  0  0  0  0  0  0  0  0  0  0  0
    2.7790   -0.1610   -1.2420 C   0  0  0  0  0  0  0  0  0  0  0  0
    1.8740   -0.4140   -2.3600 C   0  0  0  0  0  0  0  0  0  0  0  0
    2.4080    0.1240   -3.5250 O   0  0  0  0  0  0  0  0  0  0  0  0
    3.4860   -0.5340   -4.0370 C   0  0  0  0  0  0  0  0  0  0  0  0
    4.0040    0.3590   -1.3500 N   0  0  0  0  0  0  0  0  0  0  0  0
  1  2  2  0
  2  3  1  0
  3  4  2  3
  4  5  1  0
  4 25  1  0
  5  6  1  0
  7  6  1  6
  6 21  1  0
  7  8  1  0
  7 20  1  0
  8  9  1  0
  9 10  1  0
 10 11  1  6
 10 20  1  0
 11 12  1  0
 12 13  2  0
 12 14  1  0
 14 15  2  3
 15 16  1  0
 16 17  1  0
 16 18  2  3
 18 19  1  0
 21 22  1  0
 21 25  2  0
 22 23  1  0
 23 24  1  0
M  END
