
     RDKit          3D

 21 21  0  0  0  0  0  0  0  0999 V2000
   -5.5040   -1.7560    0.1020 C   0  0  0  0  0  0  0  0  0  0  0  0
   -4.6050   -0.5510   -0.1380 C   0  0  1  0  0  0  0  0  0  0  0  0
   -4.6290    0.2460    1.0590 N   0  0  0  0  0  0  0  0  0  0  0  0
   -3.2090   -1.1110   -0.3870 C   0  0  0  0  0  0  0  0  0  0  0  0
   -2.2560    0.0370   -0.6350 C   0  0  0  0  0  0  0  0  0  0  0  0
   -2.6690    1.2240   -0.6140 O   0  0  0  0  0  0  0  0  0  0  0  0
   -0.9090   -0.2360   -0.8880 N   0  0  0  0  0  0  0  0  0  0  0  0
    0.0320    0.8220   -1.1320 C   0  0  0  0  0  0  0  0  0  0  0  0
    1.0210    0.9460   -0.2950 C   0  0  0  0  0  0  0  0  0  0  0  0
    2.0340    1.9680   -0.4280 C   0  0  0  0  0  0  0  0  0  0  0  0
    3.0380    2.0700    0.4490 C   0  0  0  0  0  0  0  0  0  0  0  0
    3.0920    1.1520    1.5200 N   0  0  0  0  0  0  0  0  0  0  0  0
    3.9660    0.0160    1.4450 C   0  0  0  0  0  0  0  0  0  0  0  0
    3.6540   -1.2160    1.1020 C   0  0  0  0  0  0  0  0  0  0  0  0
    4.8350   -2.0420    1.1600 C   0  0  0  0  0  0  0  0  0  0  0  0
    4.8940   -3.2750    0.8940 O   0  0  0  0  0  0  0  0  0  0  0  0
    5.9120   -1.2170    1.5710 N   0  0  0  0  0  0  0  0  0  0  0  0
    5.3860    0.0770    1.7540 C   0  0  0  0  0  0  0  0  0  0  0  0
    6.0400    1.1060    2.1230 O   0  0  0  0  0  0  0  0  0  0  0  0
   -0.2230    1.6520   -2.3300 C   0  0  0  0  0  0  0  0  0  0  0  0
   -0.2010    0.7550   -3.4230 O   0  0  0  0  0  0  0  0  0  0  0  0
  2  1  1  1
  2  3  1  0
  2  4  1  0
  4  5  1  0
  5  6  2  0
  5  7  1  0
  7  8  1  0
  8  9  2  3
  8 20  1  0
  9 10  1  0
 10 11  2  3
 11 12  1  0
 12 13  1  0
 13 14  2  0
 13 18  1  0
 14 15  1  0
 15 16  2  0
 15 17  1  0
 17 18  1  0
 18 19  2  0
 20 21  1  0
M  END
