
     RDKit          3D

 22 23  0  0  0  0  0  0  0  0999 V2000
    7.2970    0.9080   -0.2790 C   0  0  0  0  0  0  0  0  0  0  0  0
    6.9690   -0.4450    0.2080 C   0  0  0  0  0  0  0  0  0  0  0  0
    5.6810   -0.7620    0.3480 C   0  0  0  0  0  0  0  0  0  0  0  0
    4.6440    0.1930    0.0320 C   0  0  0  0  0  0  0  0  0  0  0  0
    3.3690   -0.0840    0.1580 C   0  0  0  0  0  0  0  0  0  0  0  0
    2.8430   -1.3770    0.6290 C   0  0  0  0  0  0  0  0  0  0  0  0
    2.2300    1.2200   -0.2890 S   0  0  0  0  0  0  0  0  0  0  0  0
    0.5510    0.5990   -0.0770 C   0  0  0  0  0  0  0  0  0  0  0  0
    0.3160   -0.5540    0.3070 O   0  0  0  0  0  0  0  0  0  0  0  0
   -0.4870    1.4970   -0.3730 N   0  0  0  0  0  0  0  0  0  0  0  0
   -1.8620    1.2010   -0.2720 C   0  0  0  0  0  0  0  0  0  0  0  0
   -2.3940    0.0120    0.1250 C   0  0  0  0  0  0  0  0  0  0  0  0
   -3.7810   -0.2220    0.2070 C   0  0  0  0  0  0  0  0  0  0  0  0
   -4.2640   -1.4470    0.6160 C   0  0  0  0  0  0  0  0  0  0  0  0
   -5.6290   -1.7030    0.7040 C   0  0  0  0  0  0  0  0  0  0  0  0
   -6.1330   -2.9300    1.1140 O   0  0  0  0  0  0  0  0  0  0  0  0
   -6.4960   -0.6820    0.3670 C   0  0  0  0  0  0  0  0  0  0  0  0
   -6.0080    0.5480   -0.0440 C   0  0  0  0  0  0  0  0  0  0  0  0
   -4.6530    0.7870   -0.1270 C   0  0  0  0  0  0  0  0  0  0  0  0
   -4.1340    1.9700   -0.5220 N   0  0  0  0  0  0  0  0  0  0  0  0
   -2.8150    2.1880   -0.5970 C   0  0  0  0  0  0  0  0  0  0  0  0
   -2.4230    3.3270   -0.9780 O   0  0  0  0  0  0  0  0  0  0  0  0
  1  2  1  0
  2  3  2  3
  3  4  1  0
  4  5  2  3
  5  6  1  0
  5  7  1  0
  7  8  1  0
  8  9  2  0
  8 10  1  0
 10 11  1  0
 11 12  2  0
 11 21  1  0
 12 13  1  0
 13 14  2  0
 13 19  1  0
 14 15  1  0
 15 16  1  0
 15 17  2  0
 17 18  1  0
 18 19  2  0
 19 20  1  0
 20 21  1  0
 21 22  2  0
M  END
