
     RDKit          3D

 22 24  0  0  0  0  0  0  0  0999 V2000
   -3.6200   -2.5230   -0.2220 C   0  0  0  0  0  0  0  0  0  0  0  0
   -1.8740   -2.8070   -0.2840 S   0  0  1  0  0  0  0  0  0  0  0  0
   -1.6500   -4.2460    0.1610 O   0  0  0  0  0  0  0  0  0  0  0  0
   -1.4630   -2.7620   -1.7370 O   0  0  0  0  0  0  0  0  0  0  0  0
   -0.9640   -1.7150    0.6680 N   0  0  0  0  0  0  0  0  0  0  0  0
   -0.9870   -0.3440    0.4060 C   0  0  0  0  0  0  0  0  0  0  0  0
   -2.1440    0.3650    0.6740 C   0  0  0  0  0  0  0  0  0  0  0  0
   -2.1330    1.7190    0.4680 C   0  0  0  0  0  0  0  0  0  0  0  0
   -3.2730    2.4400    0.7320 C   0  0  0  0  0  0  0  0  0  0  0  0
   -3.3020    3.7840    0.5430 C   0  0  0  0  0  0  0  0  0  0  0  0
   -2.1600    4.4060    0.0810 C   0  0  0  0  0  0  0  0  0  0  0  0
   -2.1980    5.6680   -0.0930 O   0  0  0  0  0  0  0  0  0  0  0  0
   -1.0490    3.7000   -0.1760 N   0  0  0  0  0  0  0  0  0  0  0  0
   -1.0110    2.3800    0.0070 C   0  0  0  0  0  0  0  0  0  0  0  0
    0.1170    1.6200   -0.2460 C   0  0  0  0  0  0  0  0  0  0  0  0
    0.1740    0.2420   -0.0580 C   0  0  0  0  0  0  0  0  0  0  0  0
    1.4040   -0.4240   -0.4410 C   0  0  1  0  0  0  0  0  0  0  0  0
    2.5290    0.5840   -0.3860 C   0  0  0  0  0  0  0  0  0  0  0  0
    3.8700    0.0000   -0.0260 C   0  0  0  0  0  0  0  0  0  0  0  0
    4.1810   -1.2820   -0.6860 C   0  0  0  0  0  0  0  0  0  0  0  0
    3.0250   -2.1890   -0.7070 C   0  0  0  0  0  0  0  0  0  0  0  0
    1.8100   -1.7000    0.1180 C   0  0  0  0  0  0  0  0  0  0  0  0
  2  1  1  6
  2  3  2  0
  2  4  2  0
  2  5  1  0
  5  6  1  0
  6  7  2  0
  6 16  1  0
  7  8  1  0
  8  9  1  0
  8 14  2  0
  9 10  2  0
 10 11  1  0
 11 12  2  0
 11 13  1  0
 13 14  1  0
 14 15  1  0
 15 16  2  0
 17 16  1  1
 17 18  1  0
 17 22  1  0
 18 19  1  0
 19 20  1  0
 20 21  1  0
 21 22  1  0
M  END
