
     RDKit          3D

 22 24  0  0  0  0  0  0  0  0999 V2000
   -3.8050    2.1570   -1.1330 C   0  0  0  0  0  0  0  0  0  0  0  0
   -2.9580    1.1950   -0.5890 O   0  0  0  0  0  0  0  0  0  0  0  0
   -3.4370    0.1370    0.1240 C   0  0  0  0  0  0  0  0  0  0  0  0
   -4.8300    0.0430    0.2980 C   0  0  0  0  0  0  0  0  0  0  0  0
   -5.3770   -0.9970    1.0060 C   0  0  0  0  0  0  0  0  0  0  0  0
   -4.5340   -1.9090    1.5170 N   0  0  0  0  0  0  0  0  0  0  0  0
   -3.2050   -1.8410    1.3640 C   0  0  0  0  0  0  0  0  0  0  0  0
   -2.4550   -2.7290    1.8680 O   0  0  0  0  0  0  0  0  0  0  0  0
   -2.5910   -0.7960    0.6480 C   0  0  0  0  0  0  0  0  0  0  0  0
   -1.1540   -0.7860    0.5180 C   0  0  0  0  0  0  0  0  0  0  0  0
   -0.5160    0.2040   -0.3820 C   0  0  2  0  0  0  0  0  0  0  0  0
   -0.9490    0.0690   -1.7240 O   0  0  0  0  0  0  0  0  0  0  0  0
    0.9560    0.0280   -0.4470 C   0  0  0  0  0  0  0  0  0  0  0  0
    1.6030   -0.9400   -1.1720 C   0  0  0  0  0  0  0  0  0  0  0  0
    2.9240   -1.1030   -1.2320 N   0  0  0  0  0  0  0  0  0  0  0  0
    3.7770   -0.2790   -0.5430 C   0  0  0  0  0  0  0  0  0  0  0  0
    5.1140   -0.3550   -0.5330 C   0  0  0  0  0  0  0  0  0  0  0  0
    5.8410    0.5370    0.2040 C   0  0  0  0  0  0  0  0  0  0  0  0
    7.2660    0.7080    0.4140 C   0  0  0  0  0  0  0  0  0  0  0  0
    4.5390    1.5640    0.9410 S   0  0  0  0  0  0  0  0  0  0  0  0
    3.1650    0.6990    0.1920 C   0  0  0  0  0  0  0  0  0  0  0  0
    1.7860    0.8810    0.2640 C   0  0  0  0  0  0  0  0  0  0  0  0
  1  2  1  0
  2  3  1  0
  3  4  1  0
  3  9  2  0
  4  5  2  0
  5  6  1  0
  6  7  1  0
  7  8  2  0
  7  9  1  0
  9 10  1  0
 10 11  1  0
 11 12  1  6
 11 13  1  0
 13 14  2  0
 13 22  1  0
 14 15  1  0
 15 16  2  0
 16 17  1  0
 16 21  1  0
 17 18  2  0
 18 19  1  0
 18 20  1  0
 20 21  1  0
 21 22  2  0
M  END
