
     RDKit          3D

 22 24  0  0  0  0  0  0  0  0999 V2000
   -4.7010    1.2700    2.2830 C   0  0  0  0  0  0  0  0  0  0  0  0
   -4.1490    0.4970    1.1170 C   0  0  0  0  0  0  0  0  0  0  0  0
   -5.0030   -0.2210    0.3330 C   0  0  0  0  0  0  0  0  0  0  0  0
   -4.5260   -0.9350   -0.7350 C   0  0  0  0  0  0  0  0  0  0  0  0
   -3.1570   -0.9190   -1.0140 C   0  0  0  0  0  0  0  0  0  0  0  0
   -2.4110   -1.5020   -1.9640 N   0  0  0  0  0  0  0  0  0  0  0  0
   -1.1000   -1.1710   -1.8050 C   0  0  0  0  0  0  0  0  0  0  0  0
   -0.0280   -1.6590   -2.7030 C   0  0  0  0  0  0  0  0  0  0  0  0
   -0.9720   -0.3470   -0.7180 C   0  0  0  0  0  0  0  0  0  0  0  0
    0.2130    0.2650   -0.1410 C   0  0  0  0  0  0  0  0  0  0  0  0
    0.0160    1.0350    0.8760 O   0  0  0  0  0  0  0  0  0  0  0  0
    1.5180    0.0860   -0.5940 N   0  0  0  0  0  0  0  0  0  0  0  0
    2.6180    0.7580    0.0730 C   0  0  2  0  0  0  0  0  0  0  0  0
    2.3340    2.2610   -0.0380 C   0  0  0  0  0  0  0  0  0  0  0  0
    3.9200    0.5080   -0.5980 C   0  0  0  0  0  0  0  0  0  0  0  0
    4.3990   -0.8660   -0.2170 C   0  0  0  0  0  0  0  0  0  0  0  0
    3.8590   -0.9800    1.4810 S   0  0  1  0  0  0  0  0  0  0  0  0
    3.1250   -2.2570    1.7460 O   0  0  0  0  0  0  0  0  0  0  0  0
    4.9880   -0.7770    2.4390 O   0  0  0  0  0  0  0  0  0  0  0  0
    2.7350    0.4240    1.5220 C   0  0  0  0  0  0  0  0  0  0  0  0
   -2.2860   -0.1970   -0.2290 C   0  0  0  0  0  0  0  0  0  0  0  0
   -2.8100    0.5030    0.8320 C   0  0  0  0  0  0  0  0  0  0  0  0
  1  2  1  0
  2  3  2  0
  2 22  1  0
  3  4  1  0
  4  5  2  0
  5  6  1  0
  5 21  1  0
  6  7  1  0
  7  8  1  0
  7  9  2  0
  9 10  1  0
  9 21  1  0
 10 11  2  0
 10 12  1  0
 12 13  1  0
 13 14  1  1
 13 15  1  0
 13 20  1  0
 15 16  1  0
 17 16  1  6
 17 18  2  0
 17 19  2  0
 17 20  1  0
 21 22  2  0
M  END
