
     RDKit          3D

 22 23  0  0  0  0  0  0  0  0999 V2000
   -0.0750    4.3780   -0.6460 C   0  0  0  0  0  0  0  0  0  0  0  0
   -0.8040    3.0580   -0.5400 C   0  0  0  0  0  0  0  0  0  0  0  0
   -0.1730    2.0430   -0.0310 C   0  0  0  0  0  0  0  0  0  0  0  0
   -0.7940    0.7330    0.1110 C   0  0  0  0  0  0  0  0  0  0  0  0
   -2.0850    0.6080   -0.3690 C   0  0  0  0  0  0  0  0  0  0  0  0
   -2.7080   -0.6160   -0.2750 C   0  0  0  0  0  0  0  0  0  0  0  0
   -4.0120   -0.8050   -0.7420 C   0  0  0  0  0  0  0  0  0  0  0  0
   -4.5960   -2.0380   -0.6310 C   0  0  0  0  0  0  0  0  0  0  0  0
   -3.9210   -3.0930   -0.0670 C   0  0  0  0  0  0  0  0  0  0  0  0
   -4.5640   -4.3310    0.0230 O   0  0  0  0  0  0  0  0  0  0  0  0
   -2.6380   -2.9120    0.3950 C   0  0  0  0  0  0  0  0  0  0  0  0
   -2.0250   -1.6670    0.2910 C   0  0  0  0  0  0  0  0  0  0  0  0
   -0.7450   -1.4900    0.7530 C   0  0  0  0  0  0  0  0  0  0  0  0
   -0.1060   -2.4410    1.2740 O   0  0  0  0  0  0  0  0  0  0  0  0
   -0.1280   -0.3010    0.6680 N   0  0  0  0  0  0  0  0  0  0  0  0
    1.2050   -0.0900    1.1390 C   0  0  0  0  0  0  0  0  0  0  0  0
    2.2530   -0.2570    0.1320 C   0  0  0  0  0  0  0  0  0  0  0  0
    1.9490   -0.5630   -1.0480 O   0  0  0  0  0  0  0  0  0  0  0  0
    3.6120   -0.0750    0.4730 N   0  0  0  0  0  0  0  0  0  0  0  0
    4.6770   -0.2240   -0.4670 C   0  0  0  0  0  0  0  0  0  0  0  0
    6.0720   -0.0160   -0.0260 C   0  0  0  0  0  0  0  0  0  0  0  0
    4.4090   -0.6180   -2.0210 S   0  0  0  0  0  0  0  0  0  0  0  0
  1  2  1  0
  2  3  2  3
  3  4  1  0
  4  5  2  0
  4 15  1  0
  5  6  1  0
  6  7  2  0
  6 12  1  0
  7  8  1  0
  8  9  2  0
  9 10  1  0
  9 11  1  0
 11 12  2  0
 12 13  1  0
 13 14  2  0
 13 15  1  0
 15 16  1  0
 16 17  1  0
 17 18  2  0
 17 19  1  0
 19 20  1  0
 20 21  1  0
 20 22  2  0
M  END
