
     RDKit          3D

 22 23  0  0  0  0  0  0  0  0999 V2000
   -5.8130    2.6580   -0.9750 C   0  0  0  0  0  0  0  0  0  0  0  0
   -4.8950    1.7680   -0.3760 O   0  0  0  0  0  0  0  0  0  0  0  0
   -3.5500    1.7620   -0.6130 C   0  0  0  0  0  0  0  0  0  0  0  0
   -3.0610    2.5920   -1.4130 O   0  0  0  0  0  0  0  0  0  0  0  0
   -2.6440    0.8170    0.0350 C   0  0  0  0  0  0  0  0  0  0  0  0
   -1.2940    0.8450   -0.2320 C   0  0  0  0  0  0  0  0  0  0  0  0
   -0.4680   -0.0720    0.4060 C   0  0  0  0  0  0  0  0  0  0  0  0
    0.9360   -0.0260    0.1150 C   0  0  0  0  0  0  0  0  0  0  0  0
    1.8820   -0.7900    0.6000 C   0  0  0  0  0  0  0  0  0  0  0  0
    3.2890   -0.5870    0.1730 C   0  0  0  0  0  0  0  0  0  0  0  0
    3.7570    0.3200   -0.6890 N   0  0  0  0  0  0  0  0  0  0  0  0
    5.0940    0.2160   -0.8410 C   0  0  0  0  0  0  0  0  0  0  0  0
    6.0190    1.0080   -1.6860 C   0  0  0  0  0  0  0  0  0  0  0  0
    5.4750   -0.8150   -0.0250 C   0  0  0  0  0  0  0  0  0  0  0  0
    4.3710   -1.3200    0.6080 C   0  0  0  0  0  0  0  0  0  0  0  0
    4.3730   -2.4410    1.5690 C   0  0  0  0  0  0  0  0  0  0  0  0
   -1.0410   -0.9670    1.2770 C   0  0  0  0  0  0  0  0  0  0  0  0
   -0.3410   -1.8220    1.8850 O   0  0  0  0  0  0  0  0  0  0  0  0
   -2.3900   -0.9660    1.5190 N   0  0  0  0  0  0  0  0  0  0  0  0
   -3.2030   -0.0920    0.9150 C   0  0  0  0  0  0  0  0  0  0  0  0
   -4.9480   -0.0520    1.1960 S   0  0  0  0  0  0  0  0  0  0  0  0
   -5.8570   -1.1150    0.0490 C   0  0  0  0  0  0  0  0  0  0  0  0
  1  2  1  0
  2  3  1  0
  3  4  2  0
  3  5  1  0
  5  6  1  0
  5 20  2  0
  6  7  2  0
  7  8  1  0
  7 17  1  0
  8  9  2  3
  9 10  1  0
 10 11  1  0
 10 15  2  0
 11 12  1  0
 12 13  1  0
 12 14  2  0
 14 15  1  0
 15 16  1  0
 17 18  2  0
 17 19  1  0
 19 20  1  0
 20 21  1  0
 21 22  1  0
M  END
