
     RDKit          3D

 19 20  0  0  0  0  0  0  0  0999 V2000
   -5.6800    1.3780    1.1460 C   0  0  0  0  0  0  0  0  0  0  0  0
   -4.4510    0.5970    1.0380 C   0  0  0  0  0  0  0  0  0  0  0  0
   -3.8420   -0.2160    1.8690 C   0  0  0  0  0  0  0  0  0  0  0  0
   -2.6820   -0.7980    1.4840 N   0  0  0  0  0  0  0  0  0  0  0  0
   -2.1740   -0.5760    0.3860 C   0  0  0  0  0  0  0  0  0  0  0  0
   -0.9490   -1.2760    0.1800 N   0  0  0  0  0  0  0  0  0  0  0  0
   -0.1080   -0.7270   -0.7850 C   0  0  0  0  0  0  0  0  0  0  0  0
   -0.4720    0.3440   -1.2940 O   0  0  0  0  0  0  0  0  0  0  0  0
    1.0800   -1.3930   -1.1130 N   0  0  0  0  0  0  0  0  0  0  0  0
    1.9800   -0.8120   -2.0730 C   0  0  0  0  0  0  0  0  0  0  0  0
    2.4830    0.5530   -1.6490 C   0  0  2  0  0  0  0  0  0  0  0  0
    3.3430    0.9990   -2.6570 O   0  0  0  0  0  0  0  0  0  0  0  0
    3.2540    0.3770   -0.3910 C   0  0  0  0  0  0  0  0  0  0  0  0
    2.9010    0.7780    0.8840 C   0  0  0  0  0  0  0  0  0  0  0  0
    3.9030    0.4090    1.7120 N   0  0  0  0  0  0  0  0  0  0  0  0
    4.8560   -0.2040    0.9910 C   0  0  0  0  0  0  0  0  0  0  0  0
    4.4560   -0.2210   -0.2920 N   0  0  0  0  0  0  0  0  0  0  0  0
   -3.4370    0.3820   -0.4060 S   0  0  0  0  0  0  0  0  0  0  0  0
   -4.2240   -0.4200   -1.4530 O   0  0  0  0  0  0  0  0  0  0  0  0
  1  2  1  0
  2  3  2  0
 18  2  1  1
  3  4  1  0
  4  5  2  0
  5  6  1  0
  5 18  1  0
  6  7  1  0
  7  8  2  0
  7  9  1  0
  9 10  1  0
 10 11  1  0
 11 12  1  6
 11 13  1  0
 13 14  2  0
 13 17  1  0
 14 15  1  0
 15 16  1  0
 16 17  2  0
 18 19  2  0
M  END
