
     RDKit          3D

 19 20  0  0  0  0  0  0  0  0999 V2000
    6.0460   -0.9010   -1.7330 C   0  0  0  0  0  0  0  0  0  0  0  0
    5.7780   -0.5480   -0.3570 N   0  0  0  0  0  0  0  0  0  0  0  0
    4.4390   -0.2710    0.0500 C   0  0  0  0  0  0  0  0  0  0  0  0
    3.4280   -0.6530   -0.6420 N   0  0  0  0  0  0  0  0  0  0  0  0
    2.0850   -0.3650   -0.2170 C   0  0  0  0  0  0  0  0  0  0  0  0
    1.8140    0.2990    0.8920 C   0  0  0  0  0  0  0  0  0  0  0  0
    0.4540    0.5890    1.3190 C   0  0  0  0  0  0  0  0  0  0  0  0
    0.2830    1.2320    2.3970 O   0  0  0  0  0  0  0  0  0  0  0  0
   -0.7030    0.2070    0.6220 N   0  0  0  0  0  0  0  0  0  0  0  0
   -2.0460    0.5140    1.0780 C   0  0  0  0  0  0  0  0  0  0  0  0
   -3.0980   -0.0030    0.1560 C   0  0  2  0  0  0  0  0  0  0  0  0
   -4.4870    0.3050    0.6150 C   0  0  0  0  0  0  0  0  0  0  0  0
   -4.7620    1.7120    0.7450 N   0  0  0  0  0  0  0  0  0  0  0  0
   -2.9580   -1.4950    0.0370 C   0  0  0  0  0  0  0  0  0  0  0  0
   -3.8780   -1.9330   -0.9140 O   0  0  0  0  0  0  0  0  0  0  0  0
   -3.4910   -0.8640   -2.2320 S   0  0  0  0  0  0  0  0  0  0  0  0
   -2.8790    0.5640   -1.2500 C   0  0  0  0  0  0  0  0  0  0  0  0
    2.9020    0.7150    1.6450 O   0  0  0  0  0  0  0  0  0  0  0  0
    4.1940    0.4480    1.2520 N   0  0  0  0  0  0  0  0  0  0  0  0
  1  2  1  0
  2  3  1  0
  3  4  2  0
  3 19  1  0
  4  5  1  0
  5  6  2  0
  6  7  1  0
  6 18  1  0
  7  8  2  0
  7  9  1  0
  9 10  1  0
 11 10  1  1
 11 12  1  0
 11 14  1  0
 11 17  1  0
 12 13  1  0
 14 15  1  0
 15 16  1  0
 16 17  1  0
 18 19  1  0
M  END
