
     RDKit          3D

 19 20  0  0  0  0  0  0  0  0999 V2000
   -1.4630    2.7090    2.2740 O   0  0  0  0  0  0  0  0  0  0  0  0
   -2.3470    2.7340    1.0500 S   0  0  0  0  0  0  0  0  0  0  0  0
   -2.3530    1.1320    0.2460 C   0  0  0  0  0  0  0  0  0  0  0  0
   -1.7760    0.1200    1.2190 C   0  0  0  0  0  0  0  0  0  0  0  0
   -1.7140   -1.1960    0.6630 N   0  0  0  0  0  0  0  0  0  0  0  0
   -2.8300   -1.9580    0.7800 C   0  0  0  0  0  0  0  0  0  0  0  0
   -3.8760   -1.5190    1.3600 O   0  0  0  0  0  0  0  0  0  0  0  0
   -2.8860   -3.1910    0.2980 N   0  0  0  0  0  0  0  0  0  0  0  0
   -1.8090   -3.7130   -0.3280 C   0  0  0  0  0  0  0  0  0  0  0  0
   -1.8460   -4.8890   -0.7940 O   0  0  0  0  0  0  0  0  0  0  0  0
   -0.7280   -2.9700   -0.4390 N   0  0  0  0  0  0  0  0  0  0  0  0
   -0.6160   -1.6670    0.0510 C   0  0  0  0  0  0  0  0  0  0  0  0
    0.4720   -1.1290   -0.1090 N   0  0  0  0  0  0  0  0  0  0  0  0
    1.2700   -0.0630    0.0750 C   0  0  1  0  0  0  0  0  0  0  0  0
    2.7120   -0.3710   -0.3980 C   0  0  0  0  0  0  0  0  0  0  0  0
    3.6220    0.7840   -0.2360 C   0  0  0  0  0  0  0  0  0  0  0  0
    3.0300    2.1110   -0.6430 C   0  0  0  0  0  0  0  0  0  0  0  0
    1.6930    2.2210    0.0590 C   0  0  0  0  0  0  0  0  0  0  0  0
    0.8470    1.1980   -0.5260 N   0  0  0  0  0  0  0  0  0  0  0  0
  1  2  2  0
  2  3  1  0
  3  4  1  0
  4  5  1  0
  5  6  1  0
  5 12  1  0
  6  7  2  0
  6  8  1  0
  8  9  1  0
  9 10  2  0
  9 11  1  0
 11 12  1  0
 12 13  2  3
 14 13  1  6
 14 15  1  0
 14 19  1  0
 15 16  1  0
 16 17  1  0
 17 18  1  0
 18 19  1  0
M  END
