
     RDKit          3D

 19 21  0  0  0  0  0  0  0  0999 V2000
   -4.6080    0.8790   -2.1100 O   0  0  0  0  0  0  0  0  0  0  0  0
   -3.6730    0.2290   -1.5610 C   0  0  0  0  0  0  0  0  0  0  0  0
   -3.3930    0.0380   -0.1150 C   0  0  0  0  0  0  0  0  0  0  0  0
   -1.9260   -0.3180   -0.1370 C   0  0  1  0  0  0  0  0  0  0  0  0
   -1.0550    0.8700    0.1530 C   0  0  0  0  0  0  0  0  0  0  0  0
    0.3610    0.4310    0.3450 N   0  0  0  0  0  0  0  0  0  0  0  0
    1.2950    0.8030   -0.6320 C   0  0  0  0  0  0  0  0  0  0  0  0
    0.8460    1.5250   -1.6290 O   0  0  0  0  0  0  0  0  0  0  0  0
    2.6870    0.4940   -0.6810 C   0  0  0  0  0  0  0  0  0  0  0  0
    3.4650   -0.2360    0.1540 C   0  0  0  0  0  0  0  0  0  0  0  0
    4.7870   -0.2560   -0.3370 C   0  0  0  0  0  0  0  0  0  0  0  0
    4.7330    0.4620   -1.4390 N   0  0  0  0  0  0  0  0  0  0  0  0
    3.5290    0.9170   -1.6760 N   0  0  0  0  0  0  0  0  0  0  0  0
    0.7170   -0.3190    1.5040 C   0  0  0  0  0  0  0  0  0  0  0  0
   -0.5450   -0.5650    2.3540 C   0  0  2  0  0  0  0  0  0  0  0  0
   -0.2290   -1.2960    3.4930 O   0  0  0  0  0  0  0  0  0  0  0  0
   -1.6640   -1.4800    1.2600 S   0  0  0  0  0  0  0  0  0  0  0  0
   -1.6410   -0.9060   -1.3950 N   0  0  0  0  0  0  0  0  0  0  0  0
   -2.6640   -0.4780   -2.2700 N   0  0  0  0  0  0  0  0  0  0  0  0
  1  2  2  0
  2  3  1  0
  2 19  1  0
  4  3  1  6
  4  5  1  0
  4 17  1  0
  4 18  1  0
  5  6  1  0
  6  7  1  0
  6 14  1  0
  7  8  2  0
  7  9  1  0
  9 10  2  0
  9 13  1  0
 10 11  1  0
 11 12  2  0
 12 13  1  0
 14 15  1  0
 15 16  1  1
 15 17  1  0
 18 19  1  0
M  END
