
     RDKit          3D

 19 20  0  0  0  0  0  0  0  0999 V2000
   -2.8690   -0.9040   -1.1030 C   0  0  0  0  0  0  0  0  0  0  0  0
   -2.6160   -0.6630    0.3920 C   0  0  2  0  0  0  0  0  0  0  0  0
   -1.8740   -1.7510    0.8470 O   0  0  0  0  0  0  0  0  0  0  0  0
   -3.9600   -0.5950    1.0840 C   0  0  0  0  0  0  0  0  0  0  0  0
   -4.6590    0.5480    0.4690 N   0  0  0  0  0  0  0  0  0  0  0  0
   -4.0130    1.8370    0.6110 C   0  0  0  0  0  0  0  0  0  0  0  0
   -4.6190    2.9090    0.6920 O   0  0  0  0  0  0  0  0  0  0  0  0
   -2.5520    1.7430    0.6470 C   0  0  0  0  0  0  0  0  0  0  0  0
   -1.8790    0.6000    0.5530 C   0  0  0  0  0  0  0  0  0  0  0  0
   -0.4530    0.5960    0.6510 N   0  0  0  0  0  0  0  0  0  0  0  0
    0.4510    0.1810   -0.3440 C   0  0  0  0  0  0  0  0  0  0  0  0
   -0.0080   -0.2270   -1.4380 O   0  0  0  0  0  0  0  0  0  0  0  0
    1.8800    0.2200   -0.1230 N   0  0  0  0  0  0  0  0  0  0  0  0
    2.7380   -0.2280   -1.2040 C   0  0  0  0  0  0  0  0  0  0  0  0
    4.1910   -0.1110   -0.7780 C   0  0  0  0  0  0  0  0  0  0  0  0
    4.9470   -1.0860   -0.7300 N   0  0  0  0  0  0  0  0  0  0  0  0
    6.3060   -0.9390   -0.3250 C   0  0  0  0  0  0  0  0  0  0  0  0
    6.4560    0.8790   -0.3110 S   0  0  0  0  0  0  0  0  0  0  0  0
    4.7090    1.1580   -0.4210 N   0  0  0  0  0  0  0  0  0  0  0  0
  2  1  1  6
  2  3  1  0
  2  4  1  0
  2  9  1  0
  4  5  1  0
  5  6  1  0
  6  7  2  0
  6  8  1  0
  8  9  2  0
  9 10  1  0
 10 11  1  0
 11 12  2  0
 11 13  1  0
 13 14  1  0
 14 15  1  0
 15 16  2  0
 15 19  1  0
 16 17  1  0
 17 18  1  0
 18 19  1  0
M  END
