
     RDKit          3D

 19 20  0  0  0  0  0  0  0  0999 V2000
    6.0610    1.3740    0.5030 C   0  0  0  0  0  0  0  0  0  0  0  0
    5.7790    0.1090    0.4230 C   0  0  0  0  0  0  0  0  0  0  0  0
    6.9190   -0.7890    0.4040 N   0  0  0  0  0  0  0  0  0  0  0  0
    4.5040   -0.4680    0.3540 N   0  0  0  0  0  0  0  0  0  0  0  0
    3.2850    0.2450    0.3600 C   0  0  0  0  0  0  0  0  0  0  0  0
    3.2420    1.4750    0.4290 O   0  0  0  0  0  0  0  0  0  0  0  0
    2.0540   -0.4660    0.2860 N   0  0  0  0  0  0  0  0  0  0  0  0
    0.8020    0.1550    0.2850 N   0  0  0  0  0  0  0  0  0  0  0  0
   -0.2890   -0.3130   -0.4960 C   0  0  0  0  0  0  0  0  0  0  0  0
   -0.0630   -1.3470   -1.2070 O   0  0  0  0  0  0  0  0  0  0  0  0
   -1.5690    0.3080   -0.5070 N   0  0  0  0  0  0  0  0  0  0  0  0
   -2.5910   -0.2590   -1.3370 C   0  0  2  0  0  0  0  0  0  0  0  0
   -3.0410    1.0510   -2.5610 S   0  0  0  0  0  0  0  0  0  0  0  0
   -4.4680    1.6350   -1.6590 C   0  0  0  0  0  0  0  0  0  0  0  0
   -4.7470    0.7320   -0.7620 C   0  0  0  0  0  0  0  0  0  0  0  0
   -5.7020    0.5370    0.2590 O   0  0  0  0  0  0  0  0  0  0  0  0
   -5.3170   -0.4800    1.1310 C   0  0  0  0  0  0  0  0  0  0  0  0
   -3.8440   -0.6850    0.8050 C   0  0  0  0  0  0  0  0  0  0  0  0
   -3.9040   -0.4420   -0.7110 C   0  0  2  0  0  0  0  0  0  0  0  0
  1  2  2  0
  2  3  1  0
  2  4  1  0
  4  5  1  0
  5  6  2  0
  5  7  1  0
  7  8  1  0
  8  9  1  0
  9 10  2  0
  9 11  1  0
 12 11  1  1
 12 13  1  0
 12 19  1  0
 13 14  1  0
 14 15  2  0
 15 16  1  0
 15 19  1  0
 16 17  1  0
 17 18  1  0
 19 18  1  1
M  END
