
     RDKit          3D

 14 14  0  0  0  0  0  0  0  0999 V2000
   -3.3940   -0.5480   -1.2090 C   0  0  0  0  0  0  0  0  0  0  0  0
   -2.9210    0.5550    0.1350 S   0  0  1  0  0  0  0  0  0  0  0  0
   -2.4330   -0.2810    1.9020 S   0  0  0  0  0  0  0  0  0  0  0  0
   -1.2340    0.4650    0.7650 C   0  0  2  0  0  0  0  0  0  0  0  0
   -0.5070    2.0020    1.4250 S   0  0  0  0  0  0  0  0  0  0  0  0
   -1.4880    2.6870    2.6390 F   0  0  0  0  0  0  0  0  0  0  0  0
   -0.1460   -0.6000   -0.1930 S   0  0  0  0  0  0  0  0  0  0  0  0
    1.2900   -1.1650    0.7310 C   0  0  0  0  0  0  0  0  0  0  0  0
    2.4720   -0.2420    0.6160 C   0  0  1  0  0  0  0  0  0  0  0  0
    2.0810    1.0460    0.9460 F   0  0  0  0  0  0  0  0  0  0  0  0
    3.4170   -0.6140    1.5490 F   0  0  0  0  0  0  0  0  0  0  0  0
    3.1320   -0.1950   -1.0600 S   0  0  0  0  0  0  0  0  0  0  0  0
    4.9220    0.9750   -1.0080 S   0  0  0  0  0  0  0  0  0  0  0  0
    6.2300   -0.1350   -1.0680 F   0  0  0  0  0  0  0  0  0  0  0  0
  2  1  1  6
  2  3  1  0
  2  4  1  0
  3  4  1  0
  4  5  1  1
  4  7  1  0
  5  6  1  0
  7  8  1  0
  8  9  1  0
  9 10  1  1
  9 11  1  0
  9 12  1  0
 12 13  1  0
 13 14  1  0
M  END
