
     RDKit          3D

 36 38  0  0  0  0  0  0  0  0999 V2000
   -7.7010    1.6940   -2.1660 C   0  0  0  0  0  0  0  0  0  0  0  0
   -7.0230    1.2170   -1.1480 C   0  0  0  0  0  0  0  0  0  0  0  0
   -7.0750    1.8090    0.2390 C   0  0  0  0  0  0  0  0  0  0  0  0
   -8.1160    2.3920    0.7180 N   0  0  0  0  0  0  0  0  0  0  0  0
   -5.7930    1.5650    0.8160 N   0  0  0  0  0  0  0  0  0  0  0  0
   -5.0510    0.7950   -0.1440 C   0  0  1  0  0  0  0  0  0  0  0  0
   -3.9440    0.0050    0.3720 C   0  0  0  0  0  0  0  0  0  0  0  0
   -4.0180   -0.5260    1.6460 C   0  0  0  0  0  0  0  0  0  0  0  0
   -2.9950   -1.3030    2.1200 C   0  0  0  0  0  0  0  0  0  0  0  0
   -1.8470   -1.6000    1.3560 C   0  0  0  0  0  0  0  0  0  0  0  0
   -0.8930   -2.4270    1.9250 O   0  0  0  0  0  0  0  0  0  0  0  0
   -1.7630   -1.0740    0.1080 C   0  0  0  0  0  0  0  0  0  0  0  0
   -0.5740   -1.1380   -0.7050 C   0  0  0  0  0  0  0  0  0  0  0  0
    0.6390   -0.9040   -0.3470 C   0  0  0  0  0  0  0  0  0  0  0  0
    1.0670   -0.5110    0.9490 N   0  0  0  0  0  0  0  0  0  0  0  0
    2.0330   -1.2090    1.6230 C   0  0  0  0  0  0  0  0  0  0  0  0
    3.3520   -1.2520    1.4390 C   0  0  0  0  0  0  0  0  0  0  0  0
    4.1090   -2.1040    2.3300 C   0  0  0  0  0  0  0  0  0  0  0  0
    3.3980   -2.8480    3.3410 N   0  0  0  0  0  0  0  0  0  0  0  0
    5.3850   -2.2210    2.3510 N   0  0  0  0  0  0  0  0  0  0  0  0
    3.9500   -0.4340    0.4120 C   0  0  0  0  0  0  0  0  0  0  0  0
    5.1850   -0.5410   -0.1910 C   0  0  0  0  0  0  0  0  0  0  0  0
    5.3600    0.5590   -1.0200 C   0  0  0  0  0  0  0  0  0  0  0  0
    6.5940    0.7870   -1.7440 C   0  0  0  0  0  0  0  0  0  0  0  0
    7.5830   -0.0120   -1.5850 O   0  0  0  0  0  0  0  0  0  0  0  0
    6.7050    1.8860   -2.6180 O   0  0  0  0  0  0  0  0  0  0  0  0
    8.0320    1.9660   -3.1840 C   0  0  0  0  0  0  0  0  0  0  0  0
    8.9010    2.3840   -2.0160 C   0  0  0  0  0  0  0  0  0  0  0  0
   10.3330    2.3760   -2.3820 C   0  0  0  0  0  0  0  0  0  0  0  0
   11.4630    2.3760   -2.6700 N   0  0  0  0  0  0  0  0  0  0  0  0
    4.2270    1.3010   -0.9020 C   0  0  0  0  0  0  0  0  0  0  0  0
    3.3710    0.7140   -0.0440 N   0  0  0  0  0  0  0  0  0  0  0  0
   -2.8330   -0.2670   -0.3770 C   0  0  0  0  0  0  0  0  0  0  0  0
   -6.0950    0.0860   -0.9300 C   0  0  1  0  0  0  0  0  0  0  0  0
   -6.8640   -0.9560   -0.1430 C   0  0  0  0  0  0  0  0  0  0  0  0
   -5.5600   -0.4750   -2.2250 C   0  0  0  0  0  0  0  0  0  0  0  0
  1  2  2  0
  2  3  1  0
  2 34  1  0
  3  4  2  0
  3  5  1  0
  5  6  1  0
  6  7  1  1
  6 34  1  0
  7  8  2  0
  7 33  1  0
  8  9  1  0
  9 10  2  0
 10 11  1  0
 10 12  1  0
 12 13  1  0
 12 33  2  0
 13 14  2  3
 14 15  1  0
 15 16  1  0
 16 17  2  3
 17 18  1  0
 17 21  1  0
 18 19  1  0
 18 20  2  0
 21 22  2  0
 21 32  1  0
 22 23  1  0
 23 24  1  0
 23 31  2  0
 24 25  2  0
 24 26  1  0
 26 27  1  0
 27 28  1  0
 28 29  1  0
 29 30  3  0
 31 32  1  0
 34 35  1  1
 34 36  1  0
M  CHG  2   4   1  20   1
M  END
