
     RDKit          3D

 36 39  0  0  0  0  0  0  0  0999 V2000
   -8.0840    0.8570    3.0290 C   0  0  0  0  0  0  0  0  0  0  0  0
   -7.6600   -0.1720    2.0330 C   0  0  0  0  0  0  0  0  0  0  0  0
   -8.1210   -1.4200    2.0410 N   0  0  0  0  0  0  0  0  0  0  0  0
   -7.5750   -2.1140    1.0420 C   0  0  0  0  0  0  0  0  0  0  0  0
   -6.7040   -1.2460    0.3450 C   0  0  0  0  0  0  0  0  0  0  0  0
   -5.9750   -1.6780   -0.8390 C   0  0  0  0  0  0  0  0  0  0  0  0
   -5.5040   -0.8920   -1.8920 N   0  0  0  0  0  0  0  0  0  0  0  0
   -5.7330   -2.9340   -0.9530 O   0  0  0  0  0  0  0  0  0  0  0  0
   -6.7540   -0.0290    0.9710 C   0  0  0  0  0  0  0  0  0  0  0  0
   -6.1220    1.2600    0.7250 C   0  0  0  0  0  0  0  0  0  0  0  0
   -5.1090    1.3690   -0.2040 O   0  0  0  0  0  0  0  0  0  0  0  0
   -3.8570    0.7400   -0.0260 C   0  0  0  0  0  0  0  0  0  0  0  0
   -3.5990   -0.0140    1.0970 C   0  0  0  0  0  0  0  0  0  0  0  0
   -2.3710   -0.6180    1.2480 C   0  0  0  0  0  0  0  0  0  0  0  0
   -1.3680   -0.4860    0.2840 C   0  0  0  0  0  0  0  0  0  0  0  0
   -1.6110    0.2690   -0.8420 C   0  0  0  0  0  0  0  0  0  0  0  0
   -0.6680    0.3770   -1.8300 C   0  0  0  0  0  0  0  0  0  0  0  0
    0.7460   -0.0150   -1.6930 C   0  0  0  0  0  0  0  0  0  0  0  0
    1.4070   -0.0250   -0.5740 C   0  0  0  0  0  0  0  0  0  0  0  0
    2.8310   -0.4570   -0.5920 C   0  0  0  0  0  0  0  0  0  0  0  0
    3.5180   -0.4690    0.5390 C   0  0  0  0  0  0  0  0  0  0  0  0
    4.9320   -0.8740    0.6680 C   0  0  2  0  0  0  0  0  0  0  0  0
    5.1230   -1.6660    1.8790 N   0  0  0  0  0  0  0  0  0  0  0  0
    5.8710    0.3100    0.6440 C   0  0  1  0  0  0  0  0  0  0  0  0
    5.5940    1.1760   -0.5620 C   0  0  0  0  0  0  0  0  0  0  0  0
    5.5700    1.0560    1.7910 O   0  0  0  0  0  0  0  0  0  0  0  0
    7.3040   -0.0780    0.6540 C   0  0  0  0  0  0  0  0  0  0  0  0
    8.1790    1.0730    0.6870 N   0  0  0  0  0  0  0  0  0  0  0  0
    9.5270    0.6810    0.7010 N   0  0  0  0  0  0  0  0  0  0  0  0
    3.4160   -0.8400   -1.8150 N   0  0  0  0  0  0  0  0  0  0  0  0
    2.6030   -0.7980   -3.0110 C   0  0  0  0  0  0  0  0  0  0  0  0
    1.3930   -0.4200   -2.9270 N   0  0  0  0  0  0  0  0  0  0  0  0
   -0.9910    1.1020   -3.0040 C   0  0  0  0  0  0  0  0  0  0  0  0
   -2.2020    1.6730   -3.1290 C   0  0  0  0  0  0  0  0  0  0  0  0
   -3.1280    1.5580   -2.1230 C   0  0  0  0  0  0  0  0  0  0  0  0
   -2.8710    0.8660   -0.9660 C   0  0  0  0  0  0  0  0  0  0  0  0
  1  2  1  0
  2  3  1  0
  2  9  2  0
  3  4  1  0
  4  5  2  0
  5  6  1  0
  5  9  1  0
  6  7  1  0
  6  8  2  0
  9 10  1  0
 10 11  1  0
 11 12  1  0
 12 13  2  0
 12 36  1  0
 13 14  1  0
 14 15  2  0
 15 16  1  0
 16 17  2  0
 16 36  1  0
 17 18  1  0
 17 33  1  0
 18 19  2  0
 18 32  1  0
 19 20  1  0
 20 21  2  3
 20 30  1  0
 21 22  1  0
 22 23  1  1
 22 24  1  0
 24 25  1  6
 24 26  1  0
 24 27  1  0
 27 28  1  0
 28 29  1  0
 30 31  1  0
 31 32  2  0
 33 34  2  0
 34 35  1  0
 35 36  2  0
M  CHG  2  23   1  29   1
M  END
