
     RDKit          3D

 36 38  0  0  0  0  0  0  0  0999 V2000
   -3.6690    3.6400    2.1130 C   0  0  0  0  0  0  0  0  0  0  0  0
   -3.7170    2.3820    1.6670 C   0  0  0  0  0  0  0  0  0  0  0  0
   -2.9300    1.4750    2.3440 O   0  0  0  0  0  0  0  0  0  0  0  0
   -4.5350    1.9820    0.5600 C   0  0  0  0  0  0  0  0  0  0  0  0
   -4.7180    0.8510   -0.0390 C   0  0  0  0  0  0  0  0  0  0  0  0
   -4.0160   -0.3710    0.3490 C   0  0  0  0  0  0  0  0  0  0  0  0
   -2.6340   -0.4930    0.2890 N   0  0  0  0  0  0  0  0  0  0  0  0
   -1.6900    0.4260   -0.2100 C   0  0  0  0  0  0  0  0  0  0  0  0
   -2.0900    1.4920   -0.7140 O   0  0  0  0  0  0  0  0  0  0  0  0
   -0.2580    0.1860   -0.1630 N   0  0  0  0  0  0  0  0  0  0  0  0
    0.6480    1.1650   -0.6890 C   0  0  0  0  0  0  0  0  0  0  0  0
    2.0550    0.8310   -0.5900 C   0  0  0  0  0  0  0  0  0  0  0  0
    2.8840    1.6930   -1.0550 O   0  0  0  0  0  0  0  0  0  0  0  0
    2.5890   -0.3420   -0.0340 N   0  0  0  0  0  0  0  0  0  0  0  0
    3.9410   -0.7090    0.0920 C   0  0  0  0  0  0  0  0  0  0  0  0
    4.2350   -2.0220    0.4400 C   0  0  0  0  0  0  0  0  0  0  0  0
    5.5120   -2.4880    0.6050 C   0  0  0  0  0  0  0  0  0  0  0  0
    6.5410   -1.6040    0.4150 C   0  0  0  0  0  0  0  0  0  0  0  0
    7.9140   -1.9900    0.5620 N   0  0  0  0  0  0  0  0  0  0  0  0
    6.2910   -0.3160    0.0750 C   0  0  0  0  0  0  0  0  0  0  0  0
    7.3560    0.6770   -0.1410 C   0  0  0  0  0  0  0  0  0  0  0  0
    7.3400    1.5310   -1.2150 C   0  0  0  0  0  0  0  0  0  0  0  0
    8.3530    2.4630   -1.4060 C   0  0  0  0  0  0  0  0  0  0  0  0
    9.4100    2.5650   -0.5230 C   0  0  0  0  0  0  0  0  0  0  0  0
    9.4160    1.7010    0.5530 C   0  0  0  0  0  0  0  0  0  0  0  0
    8.4050    0.7600    0.7550 C   0  0  0  0  0  0  0  0  0  0  0  0
    4.9790    0.1410   -0.0890 C   0  0  0  0  0  0  0  0  0  0  0  0
   -4.8430   -1.3420    0.8060 C   0  0  0  0  0  0  0  0  0  0  0  0
   -4.3710   -2.6130    1.2440 C   0  0  0  0  0  0  0  0  0  0  0  0
   -5.0460   -3.6340    1.7070 C   0  0  0  0  0  0  0  0  0  0  0  0
   -6.4370   -3.7070    1.8830 N   0  0  0  0  0  0  0  0  0  0  0  0
   -6.2830   -0.9610    0.7220 C   0  0  0  0  0  0  0  0  0  0  0  0
   -6.6230   -0.4960   -0.6190 N   0  0  0  0  0  0  0  0  0  0  0  0
   -5.8080    0.6210   -1.0650 C   0  0  2  0  0  0  0  0  0  0  0  0
   -5.3070    0.5260   -2.4580 C   0  0  0  0  0  0  0  0  0  0  0  0
   -4.3700   -0.5440   -2.6850 N   0  0  0  0  0  0  0  0  0  0  0  0
  1  2  2  0
  2  3  1  0
  2  4  1  0
  4  5  2  3
  5  6  1  0
  5 34  1  0
  6  7  1  0
  6 28  2  0
  7  8  1  0
  8  9  2  0
  8 10  1  0
 10 11  1  0
 11 12  1  0
 12 13  2  0
 12 14  1  0
 14 15  1  0
 15 16  2  0
 15 27  1  0
 16 17  1  0
 17 18  2  0
 18 19  1  0
 18 20  1  0
 20 21  1  0
 20 27  2  0
 21 22  2  0
 21 26  1  0
 22 23  1  0
 23 24  2  0
 24 25  1  0
 25 26  2  0
 28 29  1  0
 28 32  1  0
 29 30  2  3
 30 31  1  0
 32 33  1  0
 33 34  1  0
 34 35  1  6
 35 36  1  0
M  CHG  2  33   1  36   1
M  END
