
     RDKit          3D

 36 39  0  0  0  0  0  0  0  0999 V2000
   -6.7090   -0.5120    3.6870 N   0  0  0  0  0  0  0  0  0  0  0  0
   -6.8610   -0.5470    2.2650 C   0  0  0  0  0  0  0  0  0  0  0  0
   -5.5480   -0.4590    1.5960 C   0  0  0  0  0  0  0  0  0  0  0  0
   -4.4380   -0.3640    2.3160 N   0  0  0  0  0  0  0  0  0  0  0  0
   -3.2330   -0.2830    1.7300 C   0  0  0  0  0  0  0  0  0  0  0  0
   -2.1640   -0.1920    2.3970 O   0  0  0  0  0  0  0  0  0  0  0  0
   -3.1010   -0.2960    0.3420 C   0  0  0  0  0  0  0  0  0  0  0  0
   -4.2160   -0.3930   -0.4480 C   0  0  0  0  0  0  0  0  0  0  0  0
   -5.4490   -0.4750    0.2100 C   0  0  0  0  0  0  0  0  0  0  0  0
   -6.6180   -0.5800   -0.5400 N   0  0  0  0  0  0  0  0  0  0  0  0
   -6.9890    0.6030   -1.2700 C   0  0  0  0  0  0  0  0  0  0  0  0
   -6.3950    1.8450   -0.7650 C   0  0  0  0  0  0  0  0  0  0  0  0
   -6.6910    3.0730   -1.4100 N   0  0  0  0  0  0  0  0  0  0  0  0
   -5.6380    1.8470    0.2160 O   0  0  0  0  0  0  0  0  0  0  0  0
   -4.1250   -0.4210   -1.9220 C   0  0  0  0  0  0  0  0  0  0  0  0
   -2.8190   -1.1180   -2.3130 C   0  0  0  0  0  0  0  0  0  0  0  0
   -1.6210   -0.4380   -1.7190 C   0  0  0  0  0  0  0  0  0  0  0  0
   -1.7790   -0.2020   -0.2760 C   0  0  0  0  0  0  0  0  0  0  0  0
   -0.7870    0.0870    0.4690 N   0  0  0  0  0  0  0  0  0  0  0  0
    0.4870    0.1770   -0.1320 N   0  0  0  0  0  0  0  0  0  0  0  0
    1.5390   -0.5090    0.5340 C   0  0  0  0  0  0  0  0  0  0  0  0
    1.3200   -1.1570    1.6050 O   0  0  0  0  0  0  0  0  0  0  0  0
    2.8800   -0.4750   -0.0070 C   0  0  0  0  0  0  0  0  0  0  0  0
    3.9050   -1.1460    0.6610 C   0  0  0  0  0  0  0  0  0  0  0  0
    5.1900   -1.1350    0.1770 C   0  0  0  0  0  0  0  0  0  0  0  0
    5.5450   -0.4750   -0.9790 C   0  0  0  0  0  0  0  0  0  0  0  0
    6.9330   -0.4610   -1.5060 C   0  0  0  0  0  0  0  0  0  0  0  0
    7.7300    0.7050   -0.9550 C   0  0  0  0  0  0  0  0  0  0  0  0
    7.7860    0.5950    0.5300 C   0  0  0  0  0  0  0  0  0  0  0  0
    8.8420   -0.1170    1.1020 C   0  0  0  0  0  0  0  0  0  0  0  0
    8.8900   -0.2170    2.4750 C   0  0  0  0  0  0  0  0  0  0  0  0
    7.9730    0.3370    3.2680 N   0  0  0  0  0  0  0  0  0  0  0  0
    6.9640    1.0180    2.7130 C   0  0  0  0  0  0  0  0  0  0  0  0
    6.8560    1.1560    1.3590 C   0  0  0  0  0  0  0  0  0  0  0  0
    4.5300    0.1860   -1.6350 C   0  0  0  0  0  0  0  0  0  0  0  0
    3.2170    0.1810   -1.1490 C   0  0  0  0  0  0  0  0  0  0  0  0
  1  2  1  0
  2  3  1  0
  3  4  1  0
  3  9  2  0
  4  5  1  0
  5  6  2  0
  5  7  1  0
  7  8  2  0
  7 18  1  0
  8  9  1  0
  8 15  1  0
  9 10  1  0
 10 11  1  0
 11 12  1  0
 12 13  1  0
 12 14  2  0
 15 16  1  0
 16 17  1  0
 17 18  1  0
 18 19  2  3
 19 20  1  0
 20 21  1  0
 21 22  2  0
 21 23  1  0
 23 24  2  0
 23 36  1  0
 24 25  1  0
 25 26  2  0
 26 27  1  0
 26 35  1  0
 27 28  1  0
 28 29  1  0
 29 30  2  0
 29 34  1  0
 30 31  1  0
 31 32  2  0
 32 33  1  0
 33 34  2  0
 35 36  2  0
M  CHG  2  10   1  32   1
M  END
