
     RDKit          3D

 36 39  0  0  0  0  0  0  0  0999 V2000
   -4.0260    1.6410   -3.3020 C   0  0  0  0  0  0  0  0  0  0  0  0
   -5.1190    0.9270   -2.6030 C   0  0  0  0  0  0  0  0  0  0  0  0
   -4.8700    0.4230   -1.3970 C   0  0  0  0  0  0  0  0  0  0  0  0
   -3.6780    0.5040   -0.7290 O   0  0  0  0  0  0  0  0  0  0  0  0
   -3.6010    0.8400    0.6210 C   0  0  1  0  0  0  0  0  0  0  0  0
   -3.1540    2.2900    0.8010 C   0  0  0  0  0  0  0  0  0  0  0  0
   -1.8740    2.4640    0.2030 N   0  0  0  0  0  0  0  0  0  0  0  0
   -0.6710    1.8070    0.5770 C   0  0  0  0  0  0  0  0  0  0  0  0
   -0.7040    0.9860    1.5340 O   0  0  0  0  0  0  0  0  0  0  0  0
    0.5800    2.0900   -0.1450 C   0  0  0  0  0  0  0  0  0  0  0  0
    1.6650    1.1490    0.2670 C   0  0  1  0  0  0  0  0  0  0  0  0
    1.2880   -0.2590   -0.0770 C   0  0  0  0  0  0  0  0  0  0  0  0
    2.1410   -1.1710    0.7770 C   0  0  0  0  0  0  0  0  0  0  0  0
    3.5460   -0.5570    0.8100 C   0  0  1  0  0  0  0  0  0  0  0  0
    4.5400   -1.5890    1.0440 N   0  0  0  0  0  0  0  0  0  0  0  0
    5.4950   -1.6830    0.0280 N   0  0  0  0  0  0  0  0  0  0  0  0
    5.3160   -2.4370   -1.0920 C   0  0  0  0  0  0  0  0  0  0  0  0
    4.2680   -3.1240   -1.3250 O   0  0  0  0  0  0  0  0  0  0  0  0
    6.4070   -2.3000   -1.8320 N   0  0  0  0  0  0  0  0  0  0  0  0
    7.2830   -1.4820   -1.2220 C   0  0  0  0  0  0  0  0  0  0  0  0
    8.5440   -1.0250   -1.5690 C   0  0  0  0  0  0  0  0  0  0  0  0
    9.2240   -0.1720   -0.7280 C   0  0  0  0  0  0  0  0  0  0  0  0
    8.6160    0.2030    0.4490 C   0  0  0  0  0  0  0  0  0  0  0  0
    7.3650   -0.2260    0.8360 C   0  0  0  0  0  0  0  0  0  0  0  0
    6.7460    0.2030    2.1100 C   0  0  0  0  0  0  0  0  0  0  0  0
    6.6900   -1.0890   -0.0270 C   0  0  0  0  0  0  0  0  0  0  0  0
    3.8320    0.2430   -0.4450 C   0  0  0  0  0  0  0  0  0  0  0  0
    3.0080    1.5310   -0.3420 C   0  0  0  0  0  0  0  0  0  0  0  0
   -4.8680    0.6310    1.3520 C   0  0  0  0  0  0  0  0  0  0  0  0
   -5.8630   -0.3210    0.7710 C   0  0  2  0  0  0  0  0  0  0  0  0
   -7.2300    0.1720    1.2940 C   0  0  0  0  0  0  0  0  0  0  0  0
   -8.3290   -0.6150    0.8270 N   0  0  0  0  0  0  0  0  0  0  0  0
   -5.6210   -1.6730    1.3650 C   0  0  0  0  0  0  0  0  0  0  0  0
   -4.3050   -2.2160    1.1230 N   0  0  0  0  0  0  0  0  0  0  0  0
   -5.9650   -0.2970   -0.6950 C   0  0  0  0  0  0  0  0  0  0  0  0
   -6.9100   -0.8450   -1.3470 N   0  0  0  0  0  0  0  0  0  0  0  0
  1  2  1  0
  2  3  2  3
  3  4  1  0
  3 35  1  0
  4  5  1  0
  5  6  1  6
  5 29  1  0
  6  7  1  0
  7  8  1  0
  8  9  2  0
  8 10  1  0
 11 10  1  6
 11 12  1  0
 11 28  1  0
 12 13  1  0
 13 14  1  0
 14 15  1  6
 14 27  1  0
 15 16  1  0
 16 17  1  0
 16 26  1  0
 17 18  2  0
 17 19  1  0
 19 20  1  0
 20 21  2  0
 20 26  1  0
 21 22  1  0
 22 23  2  0
 23 24  1  0
 24 25  1  0
 24 26  2  0
 27 28  1  0
 29 30  1  0
 30 31  1  1
 30 33  1  0
 30 35  1  0
 31 32  1  0
 33 34  1  0
 35 36  2  0
M  CHG  3  15   1  32   1  34   1
M  END
