
     RDKit          3D

 35 39  0  0  0  0  0  0  0  0999 V2000
   -4.0800   -0.8530   -3.1310 N   0  0  0  0  0  0  0  0  0  0  0  0
   -5.3190   -0.6260   -2.4110 C   0  0  0  0  0  0  0  0  0  0  0  0
   -5.0460   -0.3180   -0.9700 C   0  0  0  0  0  0  0  0  0  0  0  0
   -3.8160   -0.2630   -0.4320 N   0  0  0  0  0  0  0  0  0  0  0  0
   -3.9600    0.0360    0.8680 C   0  0  0  0  0  0  0  0  0  0  0  0
   -2.8380    0.1990    1.8600 C   0  0  0  0  0  0  0  0  0  0  0  0
   -2.3590    1.6120    1.9170 C   0  0  0  0  0  0  0  0  0  0  0  0
   -1.8380    2.1090    0.5890 C   0  0  0  0  0  0  0  0  0  0  0  0
   -0.7340    1.3570    0.0800 N   0  0  0  0  0  0  0  0  0  0  0  0
    0.5120    1.2280    0.7880 C   0  0  0  0  0  0  0  0  0  0  0  0
    0.5820    1.8200    1.8940 O   0  0  0  0  0  0  0  0  0  0  0  0
    1.5430    0.4700    0.2140 N   0  0  0  0  0  0  0  0  0  0  0  0
    2.8010    0.2840    0.8650 C   0  0  0  0  0  0  0  0  0  0  0  0
    3.0280    0.5090    2.1940 C   0  0  0  0  0  0  0  0  0  0  0  0
    4.3030    0.3120    2.7120 C   0  0  0  0  0  0  0  0  0  0  0  0
    5.3130   -0.1000    1.9080 N   0  0  0  0  0  0  0  0  0  0  0  0
    5.1680   -0.3340    0.6190 C   0  0  0  0  0  0  0  0  0  0  0  0
    6.2060   -0.6860   -0.3410 C   0  0  0  0  0  0  0  0  0  0  0  0
    5.8500   -1.5770   -1.3810 C   0  0  0  0  0  0  0  0  0  0  0  0
    6.7680   -1.9310   -2.3220 C   0  0  0  0  0  0  0  0  0  0  0  0
    8.0600   -1.4610   -2.3230 C   0  0  0  0  0  0  0  0  0  0  0  0
    8.4220   -0.5910   -1.3220 C   0  0  0  0  0  0  0  0  0  0  0  0
    9.7040   -0.1000   -1.3730 C   0  0  0  0  0  0  0  0  0  0  0  0
   10.0760    0.8110   -0.4100 C   0  0  0  0  0  0  0  0  0  0  0  0
    9.1960    1.2030    0.5460 C   0  0  0  0  0  0  0  0  0  0  0  0
    7.8980    0.7100    0.6020 C   0  0  0  0  0  0  0  0  0  0  0  0
    7.4920   -0.2130   -0.3470 C   0  0  0  0  0  0  0  0  0  0  0  0
    3.8880   -0.1400    0.0850 C   0  0  0  0  0  0  0  0  0  0  0  0
   -5.2740    0.1590    1.1090 N   0  0  0  0  0  0  0  0  0  0  0  0
   -5.9790   -0.0550   -0.0140 C   0  0  0  0  0  0  0  0  0  0  0  0
   -7.4580   -0.0200   -0.2050 C   0  0  1  0  0  0  0  0  0  0  0  0
   -7.8560    0.9350   -1.1370 O   0  0  0  0  0  0  0  0  0  0  0  0
   -8.0290   -1.3920   -0.5060 C   0  0  0  0  0  0  0  0  0  0  0  0
   -9.0540   -1.1290    0.4870 N   0  0  0  0  0  0  0  0  0  0  0  0
   -8.2560   -0.0560    1.0560 C   0  0  0  0  0  0  0  0  0  0  0  0
  1  2  1  0
  2  3  1  0
  3  4  1  0
  3 30  2  0
  4  5  1  0
  5  6  1  0
  5 29  2  0
  6  7  1  0
  7  8  1  0
  8  9  1  0
  9 10  1  0
 10 11  2  0
 10 12  1  0
 12 13  1  0
 13 14  2  0
 13 28  1  0
 14 15  1  0
 15 16  2  0
 16 17  1  0
 17 18  1  0
 17 28  2  0
 18 19  2  0
 18 27  1  0
 19 20  1  0
 20 21  2  0
 21 22  1  0
 22 23  2  0
 22 27  1  0
 23 24  1  0
 24 25  2  0
 25 26  1  0
 26 27  2  0
 29 30  1  0
 30 31  1  0
 31 32  1  6
 31 33  1  0
 31 35  1  0
 33 34  1  0
 34 35  1  0
M  CHG  3   1   1  16   1  34   1
M  END
