
     RDKit          3D

 37 42  0  0  0  0  0  0  0  0999 V2000
    3.2050   -2.1810   -0.9840 C   0  0  0  0  0  0  0  0  0  0  0  0
    3.1490   -0.7650   -0.7020 N   0  0  0  0  0  0  0  0  0  0  0  0
    4.1660    0.0820   -0.5700 C   0  0  0  0  0  0  0  0  0  0  0  0
    5.6020   -0.1880   -0.6770 C   0  0  0  0  0  0  0  0  0  0  0  0
    6.2400   -1.3680   -0.9240 C   0  0  0  0  0  0  0  0  0  0  0  0
    7.5920   -1.1490   -0.9370 N   0  0  0  0  0  0  0  0  0  0  0  0
    7.8620    0.1480   -0.7060 C   0  0  0  0  0  0  0  0  0  0  0  0
    9.0360    0.8750   -0.6170 C   0  0  0  0  0  0  0  0  0  0  0  0
    9.0040    2.2230   -0.3640 C   0  0  0  0  0  0  0  0  0  0  0  0
   10.2330    3.0010   -0.2670 C   0  0  0  0  0  0  0  0  0  0  0  0
   11.2080    3.6200   -0.2090 N   0  0  0  0  0  0  0  0  0  0  0  0
    7.7770    2.8260   -0.2020 C   0  0  0  0  0  0  0  0  0  0  0  0
    6.6150    2.0930   -0.2920 C   0  0  0  0  0  0  0  0  0  0  0  0
    6.6270    0.7370   -0.5460 C   0  0  0  0  0  0  0  0  0  0  0  0
    3.6250    1.3110   -0.3060 N   0  0  0  0  0  0  0  0  0  0  0  0
    2.2890    1.2560   -0.2690 C   0  0  0  0  0  0  0  0  0  0  0  0
    1.2780    2.1580   -0.0520 C   0  0  0  0  0  0  0  0  0  0  0  0
   -0.0320    1.7400   -0.0880 C   0  0  0  0  0  0  0  0  0  0  0  0
   -0.3700    0.4480   -0.3320 C   0  0  0  0  0  0  0  0  0  0  0  0
   -1.7530   -0.0460   -0.3690 C   0  0  0  0  0  0  0  0  0  0  0  0
   -1.8100   -1.3230   -0.6740 O   0  0  0  0  0  0  0  0  0  0  0  0
   -2.9610    0.5650   -0.1490 N   0  0  0  0  0  0  0  0  0  0  0  0
   -3.1180    1.9580    0.2010 C   0  0  0  0  0  0  0  0  0  0  0  0
   -4.6230    2.1980    0.4180 C   0  0  0  0  0  0  0  0  0  0  0  0
   -5.1920    1.3460    1.3110 O   0  0  0  0  0  0  0  0  0  0  0  0
   -4.8690    0.0280    1.1390 C   0  0  1  0  0  0  0  0  0  0  0  0
   -5.9930   -0.8900    1.3230 C   0  0  0  0  0  0  0  0  0  0  0  0
   -5.8960   -2.0690    2.0280 C   0  0  0  0  0  0  0  0  0  0  0  0
   -6.9880   -2.9200    2.1840 C   0  0  0  0  0  0  0  0  0  0  0  0
   -8.2070   -2.5970    1.6280 C   0  0  0  0  0  0  0  0  0  0  0  0
   -8.2970   -1.4170    0.9260 C   0  0  0  0  0  0  0  0  0  0  0  0
   -7.2180   -0.5780    0.7730 C   0  0  0  0  0  0  0  0  0  0  0  0
   -4.2180   -0.1370   -0.2560 C   0  0  2  0  0  0  0  0  0  0  0  0
   -4.1770   -1.5760   -0.6320 C   0  0  0  0  0  0  0  0  0  0  0  0
   -5.4930   -2.1040   -0.7200 O   0  0  0  0  0  0  0  0  0  0  0  0
    0.6730   -0.4640   -0.5520 C   0  0  0  0  0  0  0  0  0  0  0  0
    1.9820   -0.0650   -0.5200 C   0  0  0  0  0  0  0  0  0  0  0  0
  1  2  1  0
  2  3  1  0
  2 37  1  0
  3  4  1  0
  3 15  2  0
  4  5  2  0
  4 14  1  0
  5  6  1  0
  6  7  1  0
  7  8  2  0
  7 14  1  0
  8  9  1  0
  9 10  1  0
  9 12  2  0
 10 11  3  0
 12 13  1  0
 13 14  2  0
 15 16  1  0
 16 17  2  0
 16 37  1  0
 17 18  1  0
 18 19  2  0
 19 20  1  0
 19 36  1  0
 20 21  2  0
 20 22  1  0
 22 23  1  0
 22 33  1  0
 23 24  1  0
 24 25  1  0
 25 26  1  0
 26 27  1  6
 26 33  1  0
 27 28  2  0
 27 32  1  0
 28 29  1  0
 29 30  2  0
 30 31  1  0
 31 32  2  0
 33 34  1  1
 34 35  1  0
 36 37  2  0
M  END
