
     RDKit          3D

 36 39  0  0  0  0  0  0  0  0999 V2000
   -8.1110    2.2810   -0.8140 C   0  0  0  0  0  0  0  0  0  0  0  0
   -6.6850    2.0520   -0.4380 C   0  0  0  0  0  0  0  0  0  0  0  0
   -5.6880    2.8140   -0.9310 N   0  0  0  0  0  0  0  0  0  0  0  0
   -4.4050    2.6000   -0.5860 C   0  0  0  0  0  0  0  0  0  0  0  0
   -3.4660    3.3280   -1.0580 O   0  0  0  0  0  0  0  0  0  0  0  0
   -4.0110    1.5990    0.2880 C   0  0  0  0  0  0  0  0  0  0  0  0
   -2.6500    1.4200    0.6180 N   0  0  0  0  0  0  0  0  0  0  0  0
   -1.7800    0.5550   -0.1310 C   0  0  0  0  0  0  0  0  0  0  0  0
   -2.3110   -0.0250   -1.0890 O   0  0  0  0  0  0  0  0  0  0  0  0
   -0.4370    0.3820    0.1990 N   0  0  0  0  0  0  0  0  0  0  0  0
    0.4480   -0.4630   -0.5040 C   0  0  0  0  0  0  0  0  0  0  0  0
   -0.0020   -1.4520   -1.3350 C   0  0  0  0  0  0  0  0  0  0  0  0
    0.9190   -2.2400   -2.0160 C   0  0  0  0  0  0  0  0  0  0  0  0
    0.4650   -3.3320   -2.9360 C   0  0  0  0  0  0  0  0  0  0  0  0
    0.3250   -2.7000   -4.2500 N   0  0  0  0  0  0  0  0  0  0  0  0
    2.2570   -2.0230   -1.8490 C   0  0  0  0  0  0  0  0  0  0  0  0
    2.7780   -1.0280   -1.0120 C   0  0  0  0  0  0  0  0  0  0  0  0
    4.1770   -0.8520   -0.8870 N   0  0  0  0  0  0  0  0  0  0  0  0
    4.8770    0.0280   -0.0720 C   0  0  0  0  0  0  0  0  0  0  0  0
    4.2160    0.7940    0.6770 O   0  0  0  0  0  0  0  0  0  0  0  0
    6.3240    0.1610    0.0110 C   0  0  0  0  0  0  0  0  0  0  0  0
    7.1310   -0.7120   -0.6640 C   0  0  0  0  0  0  0  0  0  0  0  0
    8.5160   -0.6320   -0.6260 C   0  0  0  0  0  0  0  0  0  0  0  0
    9.1180    0.3580    0.1150 C   0  0  0  0  0  0  0  0  0  0  0  0
    8.3220    1.2500    0.8050 C   0  0  0  0  0  0  0  0  0  0  0  0
    8.9560    2.3250    1.6100 C   0  0  0  0  0  0  0  0  0  0  0  0
    9.2020    1.9550    2.9700 N   0  0  0  0  0  0  0  0  0  0  0  0
    6.9280    1.1510    0.7520 C   0  0  0  0  0  0  0  0  0  0  0  0
    1.8420   -0.2750   -0.3620 C   0  0  0  0  0  0  0  0  0  0  0  0
   -5.0360    0.8050    0.8040 C   0  0  0  0  0  0  0  0  0  0  0  0
   -6.3530    1.0380    0.4380 C   0  0  0  0  0  0  0  0  0  0  0  0
   -7.4760    0.2080    0.9710 C   0  0  0  0  0  0  0  0  0  0  0  0
   -6.8750   -1.0830    1.4590 C   0  0  0  0  0  0  0  0  0  0  0  0
   -5.7920   -0.8230    2.3700 N   0  0  1  0  0  0  0  0  0  0  0  0
   -5.5080   -2.0600    3.0720 C   0  0  0  0  0  0  0  0  0  0  0  0
   -4.6280   -0.2650    1.7360 C   0  0  0  0  0  0  0  0  0  0  0  0
  1  2  1  0
  2  3  1  0
  2 31  2  0
  3  4  1  0
  4  5  2  0
  4  6  1  0
  6  7  1  0
  6 30  2  0
  7  8  1  0
  8  9  2  0
  8 10  1  0
 10 11  1  0
 11 12  2  0
 11 29  1  0
 12 13  1  0
 13 14  1  0
 13 16  2  0
 14 15  1  0
 16 17  1  0
 17 18  1  0
 17 29  2  0
 18 19  1  0
 19 20  2  0
 19 21  1  0
 21 22  2  0
 21 28  1  0
 22 23  1  0
 23 24  2  0
 24 25  1  0
 25 26  1  0
 25 28  2  0
 26 27  1  0
 30 31  1  0
 30 36  1  0
 31 32  1  0
 32 33  1  0
 33 34  1  0
 34 35  1  6
 34 36  1  0
M  CHG  3  15   1  27   1  34   1
M  END
