
     RDKit          3D

 18 19  0  0  0  0  0  0  0  0999 V2000
   -1.5360    2.9850   -1.8750 C   0  0  0  0  0  0  0  0  0  0  0  0
   -2.0620    2.3730   -0.8400 C   0  0  0  0  0  0  0  0  0  0  0  0
   -2.0230    0.9420   -0.5730 C   0  0  0  0  0  0  0  0  0  0  0  0
   -2.6380    0.5750    0.5550 C   0  0  0  0  0  0  0  0  0  0  0  0
   -2.8030   -0.7170    1.1290 N   0  0  0  0  0  0  0  0  0  0  0  0
   -3.4210   -1.6230    0.1640 C   0  0  0  0  0  0  0  0  0  0  0  0
   -2.3200   -1.8940   -0.8820 C   0  0  0  0  0  0  0  0  0  0  0  0
   -2.3490   -0.9270   -1.9440 N   0  0  0  0  0  0  0  0  0  0  0  0
   -1.3370    0.1270   -1.5910 C   0  0  2  0  0  0  0  0  0  0  0  0
   -0.1680   -0.5770   -1.2280 N   0  0  0  0  0  0  0  0  0  0  0  0
    0.9820   -0.2080   -0.5420 C   0  0  0  0  0  0  0  0  0  0  0  0
    1.9210   -1.1760   -0.1780 C   0  0  0  0  0  0  0  0  0  0  0  0
    3.0850   -0.8800    0.4940 C   0  0  0  0  0  0  0  0  0  0  0  0
    3.3710    0.4200    0.8420 C   0  0  0  0  0  0  0  0  0  0  0  0
    4.5330    0.7660    1.5210 O   0  0  0  0  0  0  0  0  0  0  0  0
    5.4930   -0.1750    1.9000 C   0  0  0  0  0  0  0  0  0  0  0  0
    2.4690    1.3940    0.4990 C   0  0  0  0  0  0  0  0  0  0  0  0
    1.2860    1.0710   -0.1880 C   0  0  0  0  0  0  0  0  0  0  0  0
  1  2  2  0
  2  3  1  0
  3  4  2  0
  3  9  1  0
  4  5  1  0
  5  6  1  0
  6  7  1  0
  7  8  1  0
  8  9  1  0
  9 10  1  1
 10 11  1  0
 11 12  2  0
 11 18  1  0
 12 13  1  0
 13 14  2  0
 14 15  1  0
 14 17  1  0
 15 16  1  0
 17 18  2  0
M  CHG  1   5   1
M  END
