
     RDKit          3D

 18 19  0  0  0  0  0  0  0  0999 V2000
   -3.3940    2.4560   -1.5380 C   0  0  0  0  0  0  0  0  0  0  0  0
   -2.3020    1.4550   -1.5600 C   0  0  0  0  0  0  0  0  0  0  0  0
   -2.2340    0.4970   -0.6500 C   0  0  0  0  0  0  0  0  0  0  0  0
   -3.1750    0.3020    0.4450 C   0  0  0  0  0  0  0  0  0  0  0  0
   -4.0250    0.8710    1.2950 C   0  0  0  0  0  0  0  0  0  0  0  0
   -4.6370   -0.1630    2.1800 C   0  0  0  0  0  0  0  0  0  0  0  0
   -3.5550   -1.2530    2.1450 C   0  0  0  0  0  0  0  0  0  0  0  0
   -3.1530   -1.1850    0.6970 C   0  0  2  0  0  0  0  0  0  0  0  0
   -1.7050   -1.5000    0.4470 C   0  0  0  0  0  0  0  0  0  0  0  0
   -1.2470   -0.5250   -0.5450 N   0  0  0  0  0  0  0  0  0  0  0  0
   -0.0180   -0.5800   -1.2900 C   0  0  0  0  0  0  0  0  0  0  0  0
    1.1640   -0.3760   -0.3980 C   0  0  0  0  0  0  0  0  0  0  0  0
    1.0350   -0.1870    0.8350 O   0  0  0  0  0  0  0  0  0  0  0  0
    2.4730   -0.3960   -0.9490 N   0  0  0  0  0  0  0  0  0  0  0  0
    3.6440   -0.2050   -0.1210 C   0  0  1  0  0  0  0  0  0  0  0  0
    4.4710   -1.4730   -0.2120 C   0  0  0  0  0  0  0  0  0  0  0  0
    4.5180    0.9360   -0.5960 C   0  0  0  0  0  0  0  0  0  0  0  0
    5.6450    0.9860    0.3480 N   0  0  0  0  0  0  0  0  0  0  0  0
  1  2  1  0
  2  3  2  3
  3  4  1  0
  3 10  1  0
  4  5  2  0
  4  8  1  0
  5  6  1  0
  6  7  1  0
  8  7  1  1
  8  9  1  0
  9 10  1  0
 10 11  1  0
 11 12  1  0
 12 13  2  0
 12 14  1  0
 14 15  1  0
 15 16  1  6
 15 17  1  0
 17 18  1  0
M  CHG  1  18   1
M  END
