
     RDKit          3D

 17 18  0  0  0  0  0  0  0  0999 V2000
   -0.9410   -0.0570   -2.1650 C   0  0  0  0  0  0  0  0  0  0  0  0
   -0.9700    0.0900   -0.7380 N   0  0  0  0  0  0  0  0  0  0  0  0
    0.3620   -0.1920   -0.2590 C   0  0  0  0  0  0  0  0  0  0  0  0
    1.2370    0.9760   -0.7500 C   0  0  0  0  0  0  0  0  0  0  0  0
    2.6430    0.7880   -0.3260 C   0  0  0  0  0  0  0  0  0  0  0  0
    3.2870    1.6330    0.4690 C   0  0  0  0  0  0  0  0  0  0  0  0
    4.6700    1.1250    0.6760 C   0  0  0  0  0  0  0  0  0  0  0  0
    4.6520   -0.2580    0.0890 C   0  0  0  0  0  0  0  0  0  0  0  0
    3.4560   -0.3050   -0.7220 N   0  0  0  0  0  0  0  0  0  0  0  0
   -1.9590   -0.6220   -0.0460 C   0  0  1  0  0  0  0  0  0  0  0  0
   -1.8750   -2.0980   -0.0900 C   0  0  0  0  0  0  0  0  0  0  0  0
   -2.7770   -2.9170    0.6330 N   0  0  0  0  0  0  0  0  0  0  0  0
   -0.9980   -2.6870   -0.7710 O   0  0  0  0  0  0  0  0  0  0  0  0
   -1.9930   -0.1470    1.3870 C   0  0  0  0  0  0  0  0  0  0  0  0
   -2.3280    1.3330    1.1260 C   0  0  0  0  0  0  0  0  0  0  0  0
   -3.5660    1.1410    0.2380 C   0  0  0  0  0  0  0  0  0  0  0  0
   -3.3800   -0.1810   -0.4250 C   0  0  0  0  0  0  0  0  0  0  0  0
  1  2  1  0
  2  3  1  0
 10  2  1  6
  3  4  1  0
  4  5  1  0
  5  6  2  0
  5  9  1  0
  6  7  1  0
  7  8  1  0
  8  9  1  0
 10 11  1  0
 10 14  1  0
 10 17  1  0
 11 12  1  0
 11 13  2  0
 14 15  1  0
 15 16  1  0
 16 17  1  0
M  CHG  1   9   1
M  END
