
     RDKit          3D

 18 19  0  0  0  0  0  0  0  0999 V2000
   -5.4370   -0.2620   -2.7260 N   0  0  0  0  0  0  0  0  0  0  0  0
   -4.6350   -0.6220   -1.9820 C   0  0  0  0  0  0  0  0  0  0  0  0
   -3.6130   -1.0790   -1.0060 C   0  0  1  0  0  0  0  0  0  0  0  0
   -2.3400   -0.4230   -1.3330 C   0  0  0  0  0  0  0  0  0  0  0  0
   -1.6000    0.3000   -0.5300 C   0  0  0  0  0  0  0  0  0  0  0  0
   -0.3330    0.9090   -0.9790 C   0  0  0  0  0  0  0  0  0  0  0  0
    0.7660    0.3560   -0.1100 C   0  0  0  0  0  0  0  0  0  0  0  0
    2.0540    0.9500   -0.5360 C   0  0  0  0  0  0  0  0  0  0  0  0
    2.0330    1.7740   -1.4980 O   0  0  0  0  0  0  0  0  0  0  0  0
    3.2380    0.5850    0.1300 N   0  0  0  0  0  0  0  0  0  0  0  0
    3.3710   -0.3310    1.2220 C   0  0  0  0  0  0  0  0  0  0  0  0
    4.8510   -0.7310    1.2610 C   0  0  0  0  0  0  0  0  0  0  0  0
    5.3650   -0.1960   -0.0720 C   0  0  0  0  0  0  0  0  0  0  0  0
    4.5490    1.0820   -0.1790 C   0  0  0  0  0  0  0  0  0  0  0  0
   -2.0650    0.4930    0.8310 C   0  0  0  0  0  0  0  0  0  0  0  0
   -3.1960   -0.0560    1.2070 C   0  0  0  0  0  0  0  0  0  0  0  0
   -4.0680   -0.8680    0.3730 C   0  0  1  0  0  0  0  0  0  0  0  0
   -5.3890   -0.1910    0.3960 N   0  0  0  0  0  0  0  0  0  0  0  0
  1  2  3  0
  3  2  1  6
  3  4  1  0
  3 17  1  0
  4  5  2  0
  5  6  1  0
  5 15  1  0
  6  7  1  0
  7  8  1  0
  8  9  2  0
  8 10  1  0
 10 11  1  0
 10 14  1  0
 11 12  1  0
 12 13  1  0
 13 14  1  0
 15 16  2  0
 16 17  1  0
 17 18  1  6
M  CHG  1  18   1
M  END
