
     RDKit          3D

 17 18  0  0  0  0  0  0  0  0999 V2000
    5.2480    0.8210   -1.4510 C   0  0  0  0  0  0  0  0  0  0  0  0
    4.7010    0.2170   -0.1820 C   0  0  0  0  0  0  0  0  0  0  0  0
    3.2120    0.5450   -0.0300 C   0  0  0  0  0  0  0  0  0  0  0  0
    2.6800   -0.0470    1.2110 C   0  0  0  0  0  0  0  0  0  0  0  0
    1.7120   -0.9150    1.2630 C   0  0  0  0  0  0  0  0  0  0  0  0
    1.0030   -1.4380    0.1000 C   0  0  1  0  0  0  0  0  0  0  0  0
    0.5710   -2.8340    0.3440 N   0  0  0  0  0  0  0  0  0  0  0  0
   -0.2580   -0.6580   -0.1780 C   0  0  0  0  0  0  0  0  0  0  0  0
   -0.3540    0.2210   -1.2300 C   0  0  0  0  0  0  0  0  0  0  0  0
   -1.4820    0.9490   -1.5130 C   0  0  0  0  0  0  0  0  0  0  0  0
   -2.5960    0.7790   -0.6730 C   0  0  0  0  0  0  0  0  0  0  0  0
   -2.4960   -0.0980    0.3730 C   0  0  0  0  0  0  0  0  0  0  0  0
   -1.3390   -0.7950    0.6010 N   0  0  0  0  0  0  0  0  0  0  0  0
   -3.6340   -0.3250    1.2970 C   0  0  0  0  0  0  0  0  0  0  0  0
   -4.6270    0.7790    1.2660 C   0  0  0  0  0  0  0  0  0  0  0  0
   -4.9620    1.2300   -0.1380 C   0  0  0  0  0  0  0  0  0  0  0  0
   -3.7840    1.5010   -0.9130 N   0  0  0  0  0  0  0  0  0  0  0  0
  1  2  1  0
  2  3  1  0
  3  4  1  0
  4  5  2  3
  5  6  1  0
  6  7  1  1
  6  8  1  0
  8  9  2  0
  8 13  1  0
  9 10  1  0
 10 11  2  0
 11 12  1  0
 11 17  1  0
 12 13  2  0
 12 14  1  0
 14 15  1  0
 15 16  1  0
 16 17  1  0
M  CHG  1   7   1
M  END
