
     RDKit          3D

 18 18  0  0  0  0  0  0  0  0999 V2000
   -5.8790    0.4540    0.7180 C   0  0  0  0  0  0  0  0  0  0  0  0
   -4.6870   -0.0440    0.8820 C   0  0  0  0  0  0  0  0  0  0  0  0
   -4.3300   -1.0470    1.8090 N   0  0  0  0  0  0  0  0  0  0  0  0
   -2.9270   -0.9310    2.0770 C   0  0  0  0  0  0  0  0  0  0  0  0
   -2.3690    0.1410    1.1580 C   0  0  1  0  0  0  0  0  0  0  0  0
   -1.1410   -0.3850    0.5900 N   0  0  0  0  0  0  0  0  0  0  0  0
    0.1190    0.2140    0.7320 C   0  0  0  0  0  0  0  0  0  0  0  0
    0.1990    1.2850    1.3980 O   0  0  0  0  0  0  0  0  0  0  0  0
    1.3210   -0.2890    0.1830 N   0  0  0  0  0  0  0  0  0  0  0  0
    2.5960    0.4040    0.3820 C   0  0  0  0  0  0  0  0  0  0  0  0
    3.7270   -0.3150   -0.2910 C   0  0  1  0  0  0  0  0  0  0  0  0
    3.8000   -1.7080    0.3250 C   0  0  0  0  0  0  0  0  0  0  0  0
    3.5510   -0.4790   -1.7590 C   0  0  0  0  0  0  0  0  0  0  0  0
    5.0110    0.3920    0.0330 C   0  0  0  0  0  0  0  0  0  0  0  0
    4.9820    1.8240   -0.4510 C   0  0  0  0  0  0  0  0  0  0  0  0
   -3.4380    0.2930    0.1650 C   0  0  0  0  0  0  0  0  0  0  0  0
   -3.3510    0.6470   -1.1040 C   0  0  0  0  0  0  0  0  0  0  0  0
   -4.4990    0.7650   -2.0260 C   0  0  0  0  0  0  0  0  0  0  0  0
  1  2  2  0
  2  3  1  0
  2 16  1  0
  3  4  1  0
  4  5  1  0
  5  6  1  6
  5 16  1  0
  6  7  1  0
  7  8  2  0
  7  9  1  0
  9 10  1  0
 10 11  1  0
 11 12  1  1
 11 13  1  0
 11 14  1  0
 14 15  1  0
 16 17  2  3
 17 18  1  0
M  CHG  1   3   1
M  END
