
     RDKit          3D

 24 27  0  0  0  0  0  0  0  0999 V2000
   -0.8980    0.0460    2.7310 O   0  0  0  0  0  0  0  0  0  0  0  0
   -1.5300   -0.1230    1.6200 C   0  0  0  0  0  0  0  0  0  0  0  0
   -2.5580    0.8680    1.3390 C   0  0  0  0  0  0  0  0  0  0  0  0
   -3.4260    1.0680    0.3410 C   0  0  0  0  0  0  0  0  0  0  0  0
   -4.2770    2.0900    0.3430 C   0  0  0  0  0  0  0  0  0  0  0  0
   -4.2100    2.9400    1.4430 C   0  0  0  0  0  0  0  0  0  0  0  0
   -5.2740    4.5490    1.8370 Br  0  0  0  0  0  0  0  0  0  0  0  0
   -2.9240    2.2390    2.4400 S   0  0  0  0  0  0  0  0  0  0  0  0
   -1.1290   -1.2550    0.8310 C   0  0  1  0  0  0  0  0  0  0  0  0
   -2.1690   -2.2930    0.5180 C   0  0  0  0  0  0  0  0  0  0  0  0
   -1.3320   -3.2320   -0.2570 N   0  0  0  0  0  0  0  0  0  0  0  0
   -0.4100   -2.4260   -1.0210 C   0  0  0  0  0  0  0  0  0  0  0  0
   -0.6290   -0.9700   -0.5690 C   0  0  2  0  0  0  0  0  0  0  0  0
    0.6230   -0.2120   -0.5880 C   0  0  0  0  0  0  0  0  0  0  0  0
    0.7220    0.8900   -1.3860 C   0  0  0  0  0  0  0  0  0  0  0  0
    1.9170    1.5850   -1.3830 C   0  0  0  0  0  0  0  0  0  0  0  0
    2.9880    1.1940   -0.6070 C   0  0  0  0  0  0  0  0  0  0  0  0
    4.1750    1.9200   -0.6310 C   0  0  0  0  0  0  0  0  0  0  0  0
    4.2590    2.9330   -1.3680 O   0  0  0  0  0  0  0  0  0  0  0  0
    5.2060    1.5120    0.1420 N   0  0  0  0  0  0  0  0  0  0  0  0
    5.0890    0.4290    0.9160 C   0  0  0  0  0  0  0  0  0  0  0  0
    3.9260   -0.2760    0.9360 N   0  0  0  0  0  0  0  0  0  0  0  0
    2.8810    0.0800    0.1980 C   0  0  0  0  0  0  0  0  0  0  0  0
    1.6750   -0.6270    0.1990 C   0  0  0  0  0  0  0  0  0  0  0  0
  1  2  2  0
  2  3  1  0
  9  2  1  6
  3  4  2  0
  3  8  1  0
  4  5  1  0
  5  6  2  0
  6  7  1  0
  6  8  1  0
  9 10  1  0
  9 13  1  0
 10 11  1  0
 11 12  1  0
 12 13  1  0
 13 14  1  1
 14 15  2  0
 14 24  1  0
 15 16  1  0
 16 17  2  0
 17 18  1  0
 17 23  1  0
 18 19  2  0
 18 20  1  0
 20 21  1  0
 21 22  2  0
 22 23  1  0
 23 24  2  0
M  CHG  1  11   1
M  END
