
     RDKit          3D

 25 28  0  0  0  0  0  0  0  0999 V2000
   -1.7760    1.7380   -1.2700 O   0  0  0  0  0  0  0  0  0  0  0  0
   -1.9610    0.7380   -0.5260 C   0  0  0  0  0  0  0  0  0  0  0  0
   -3.1700    0.6160    0.2860 C   0  0  0  0  0  0  0  0  0  0  0  0
   -3.3250   -0.4650    1.1110 C   0  0  0  0  0  0  0  0  0  0  0  0
   -4.4710   -0.6200    1.8960 C   0  0  0  0  0  0  0  0  0  0  0  0
   -5.4330    0.3620    1.8020 C   0  0  0  0  0  0  0  0  0  0  0  0
   -5.2930    1.4580    0.9760 C   0  0  0  0  0  0  0  0  0  0  0  0
   -6.5380    2.7020    0.8730 Cl  0  0  0  0  0  0  0  0  0  0  0  0
   -4.1600    1.5900    0.2130 C   0  0  0  0  0  0  0  0  0  0  0  0
   -0.9130   -0.3010   -0.5080 C   0  0  1  0  0  0  0  0  0  0  0  0
   -1.4100   -1.6180   -0.9960 C   0  0  0  0  0  0  0  0  0  0  0  0
   -0.8660   -1.8430   -2.3130 N   0  0  0  0  0  0  0  0  0  0  0  0
    0.3430   -1.0650   -2.4060 C   0  0  0  0  0  0  0  0  0  0  0  0
    0.2450    0.0360   -1.4080 C   0  0  2  0  0  0  0  0  0  0  0  0
    1.5240    0.0410   -0.6130 C   0  0  0  0  0  0  0  0  0  0  0  0
    1.8500   -1.1370    0.0330 C   0  0  0  0  0  0  0  0  0  0  0  0
    3.0180   -1.1600    0.7690 C   0  0  0  0  0  0  0  0  0  0  0  0
    3.8190   -0.0190    0.8380 C   0  0  0  0  0  0  0  0  0  0  0  0
    4.9970   -0.0070    1.5680 C   0  0  0  0  0  0  0  0  0  0  0  0
    5.3130   -1.0620    2.1610 O   0  0  0  0  0  0  0  0  0  0  0  0
    5.7450    1.1210    1.6090 N   0  0  0  0  0  0  0  0  0  0  0  0
    5.3870    2.2470    0.9620 C   0  0  0  0  0  0  0  0  0  0  0  0
    4.2480    2.2650    0.2450 N   0  0  0  0  0  0  0  0  0  0  0  0
    3.4840    1.1520    0.1890 C   0  0  0  0  0  0  0  0  0  0  0  0
    2.3170    1.1700   -0.5440 C   0  0  0  0  0  0  0  0  0  0  0  0
  1  2  2  0
  2  3  1  0
 10  2  1  6
  3  4  2  0
  3  9  1  0
  4  5  1  0
  5  6  2  0
  6  7  1  0
  7  8  1  0
  7  9  2  0
 10 11  1  0
 10 14  1  0
 11 12  1  0
 12 13  1  0
 13 14  1  0
 14 15  1  1
 15 16  2  0
 15 25  1  0
 16 17  1  0
 17 18  2  0
 18 19  1  0
 18 24  1  0
 19 20  2  0
 19 21  1  0
 21 22  1  0
 22 23  2  0
 23 24  1  0
 24 25  2  0
M  CHG  1  12   1
M  END
