
     RDKit          3D

 12 12  0  0  0  0  0  0  0  0999 V2000
    2.2650   -1.8600   -0.4380 C   0  0  0  0  0  0  0  0  0  0  0  0
    1.5240   -1.2050    0.5400 O   0  0  0  0  0  0  0  0  0  0  0  0
    0.8120   -0.1160    0.0310 C   0  0  2  0  0  0  0  0  0  0  0  0
    1.3550    1.0100    0.6120 O   0  0  0  0  0  0  0  0  0  0  0  0
    0.5730    2.1420    0.4870 C   0  0  0  0  0  0  0  0  0  0  0  0
   -0.6770    2.0550    0.9940 O   0  0  0  0  0  0  0  0  0  0  0  0
   -1.3080    0.8630    0.9730 C   0  0  2  0  0  0  0  0  0  0  0  0
   -1.5030    0.4880    2.3260 O   0  0  0  0  0  0  0  0  0  0  0  0
   -0.6700   -0.2490    0.2370 C   0  0  2  0  0  0  0  0  0  0  0  0
   -0.8720   -1.4390    0.9590 O   0  0  0  0  0  0  0  0  0  0  0  0
   -1.3400   -0.4580   -1.1090 C   0  0  0  0  0  0  0  0  0  0  0  0
   -1.1990    0.6660   -1.9060 O   0  0  0  0  0  0  0  0  0  0  0  0
  1  2  1  0
  3  2  1  1
  3  4  1  0
  3  9  1  0
  4  5  1  0
  5  6  1  0
  6  7  1  0
  7  8  1  1
  7  9  1  0
  9 10  1  1
  9 11  1  0
 11 12  1  0
M  END
