
     RDKit          3D

 12 12  0  0  0  0  0  0  0  0999 V2000
   -1.7090   -1.3200   -0.1270 C   0  0  0  0  0  0  0  0  0  0  0  0
   -0.6290   -0.2450   -0.1530 C   0  0  1  0  0  0  0  0  0  0  0  0
   -1.0580    0.8030   -1.1270 C   0  0  0  0  0  0  0  0  0  0  0  0
   -2.3150    1.2790   -0.6940 O   0  0  0  0  0  0  0  0  0  0  0  0
   -0.5350    0.3140    1.1040 O   0  0  0  0  0  0  0  0  0  0  0  0
    0.5370    1.1480    1.2740 C   0  0  2  0  0  0  0  0  0  0  0  0
    0.0940    2.4480    1.5490 O   0  0  0  0  0  0  0  0  0  0  0  0
    1.4130    1.1860    0.2080 O   0  0  0  0  0  0  0  0  0  0  0  0
    1.8700   -0.1160   -0.0070 C   0  0  2  0  0  0  0  0  0  0  0  0
    2.9070   -0.1550   -0.9290 O   0  0  0  0  0  0  0  0  0  0  0  0
    0.6600   -0.9110   -0.4960 C   0  0  1  0  0  0  0  0  0  0  0  0
    0.7030   -2.1290    0.2190 O   0  0  0  0  0  0  0  0  0  0  0  0
  2  1  1  1
  2  3  1  0
  2  5  1  0
  2 11  1  0
  3  4  1  0
  5  6  1  0
  6  7  1  6
  6  8  1  0
  8  9  1  0
  9 10  1  6
  9 11  1  0
 11 12  1  1
M  END
