
     RDKit          3D

 12 12  0  0  0  0  0  0  0  0999 V2000
    2.9130    0.7800    0.2290 C   0  0  0  0  0  0  0  0  0  0  0  0
    1.6480    0.4820    0.6500 O   0  0  0  0  0  0  0  0  0  0  0  0
    1.1180   -0.6760    0.1430 C   0  0  1  0  0  0  0  0  0  0  0  0
    0.9340   -1.5590    1.2100 O   0  0  0  0  0  0  0  0  0  0  0  0
   -0.2030   -0.5050   -0.5410 C   0  0  1  0  0  0  0  0  0  0  0  0
   -0.6290   -1.7470   -1.0080 O   0  0  0  0  0  0  0  0  0  0  0  0
   -1.5920   -2.0980   -0.0640 C   0  0  0  0  0  0  0  0  0  0  0  0
   -2.3140   -0.9040    0.1180 O   0  0  0  0  0  0  0  0  0  0  0  0
   -1.2570   -0.0220    0.4070 C   0  0  2  0  0  0  0  0  0  0  0  0
   -1.6870    1.3820    0.0820 C   0  0  2  0  0  0  0  0  0  0  0  0
   -2.0120    1.4810   -1.2490 O   0  0  0  0  0  0  0  0  0  0  0  0
   -0.5990    2.2210    0.3560 O   0  0  0  0  0  0  0  0  0  0  0  0
  1  2  1  0
  2  3  1  0
  3  4  1  1
  3  5  1  0
  5  6  1  1
  5  9  1  0
  6  7  1  0
  7  8  1  0
  9  8  1  6
  9 10  1  0
 10 11  1  6
 10 12  1  0
M  END
