
     RDKit          3D

 12 12  0  0  0  0  0  0  0  0999 V2000
    3.8310    0.2000    0.0070 O   0  0  0  0  0  0  0  0  0  0  0  0
    2.6650    0.4420   -0.7200 C   0  0  0  0  0  0  0  0  0  0  0  0
    1.4650   -0.0700    0.0880 C   0  0  1  0  0  0  0  0  0  0  0  0
    1.4610    0.6210    1.2730 O   0  0  0  0  0  0  0  0  0  0  0  0
    0.3220    0.2430    1.9840 C   0  0  0  0  0  0  0  0  0  0  0  0
   -0.7640    0.6900    1.2530 O   0  0  0  0  0  0  0  0  0  0  0  0
   -0.8420    0.1590   -0.0080 C   0  0  2  0  0  0  0  0  0  0  0  0
   -1.7410    1.0890   -0.8350 C   0  0  0  0  0  0  0  0  0  0  0  0
   -3.0050    1.1860   -0.2950 O   0  0  0  0  0  0  0  0  0  0  0  0
   -1.5480   -1.1660    0.0710 C   0  0  0  0  0  0  0  0  0  0  0  0
   -1.6690   -1.7770   -1.1850 O   0  0  0  0  0  0  0  0  0  0  0  0
    0.3510    0.0680   -0.6800 O   0  0  0  0  0  0  0  0  0  0  0  0
  1  2  1  0
  3  2  1  6
  3  4  1  0
  3 12  1  0
  4  5  1  0
  5  6  1  0
  6  7  1  0
  7  8  1  6
  7 10  1  0
  7 12  1  0
  8  9  1  0
 10 11  1  0
M  END
