
     RDKit          3D

 12 12  0  0  0  0  0  0  0  0999 V2000
    3.7020    0.2090    0.0920 O   0  0  0  0  0  0  0  0  0  0  0  0
    2.7320    0.5680    1.0500 C   0  0  0  0  0  0  0  0  0  0  0  0
    1.5150    0.6440    0.3870 O   0  0  0  0  0  0  0  0  0  0  0  0
    1.2080   -0.5870   -0.1800 C   0  0  0  0  0  0  0  0  0  0  0  0
   -0.1230   -0.4520   -0.8890 C   0  0  1  0  0  0  0  0  0  0  0  0
   -0.5190   -1.6390   -1.4920 O   0  0  0  0  0  0  0  0  0  0  0  0
   -1.5880   -2.0720   -0.7100 C   0  0  0  0  0  0  0  0  0  0  0  0
   -2.2380   -0.9120   -0.2650 O   0  0  0  0  0  0  0  0  0  0  0  0
   -1.1640   -0.1490    0.1700 C   0  0  2  0  0  0  0  0  0  0  0  0
   -1.4650    1.3260    0.1750 C   0  0  1  0  0  0  0  0  0  0  0  0
   -1.7890    1.7740   -1.0840 O   0  0  0  0  0  0  0  0  0  0  0  0
   -2.3960    1.6430    1.1470 O   0  0  0  0  0  0  0  0  0  0  0  0
  1  2  1  0
  2  3  1  0
  3  4  1  0
  5  4  1  1
  5  6  1  0
  5  9  1  0
  6  7  1  0
  7  8  1  0
  9  8  1  6
  9 10  1  0
 10 11  1  6
 10 12  1  0
M  END
