
     RDKit          3D

 39 41  0  0  0  0  0  0  0  0999 V2000
    2.9330   -3.4780   -1.9500 C   0  0  0  0  0  0  0  0  0  0  0  0
    2.1660   -3.3610   -0.8420 C   0  0  0  0  0  0  0  0  0  0  0  0
    2.4950   -2.2660    0.0840 C   0  0  0  0  0  0  0  0  0  0  0  0
    3.2260   -1.0980   -0.4900 C   0  0  1  0  0  0  0  0  0  0  0  0
    2.8800   -0.8100   -1.8330 O   0  0  0  0  0  0  0  0  0  0  0  0
    3.1600    0.1600    0.3340 C   0  0  1  0  0  0  0  0  0  0  0  0
    3.8270   -0.0620    1.6600 C   0  0  0  0  0  0  0  0  0  0  0  0
    5.2520   -0.4060    1.6150 C   0  0  0  0  0  0  0  0  0  0  0  0
    5.8890   -0.7080    2.8470 N   0  0  0  0  0  0  0  0  0  0  0  0
    5.9640   -0.4610    0.5930 O   0  0  0  0  0  0  0  0  0  0  0  0
    3.6880    1.3420   -0.2710 N   0  0  0  0  0  0  0  0  0  0  0  0
    2.8440    2.1460   -1.0330 C   0  0  2  0  0  0  0  0  0  0  0  0
    3.4480    3.4260   -1.5630 C   0  0  0  0  0  0  0  0  0  0  0  0
    2.1960    4.2830   -1.9040 C   0  0  0  0  0  0  0  0  0  0  0  0
    1.0120    3.4190   -1.4340 C   0  0  2  0  0  0  0  0  0  0  0  0
   -0.2570    4.0880   -1.2640 C   0  0  0  0  0  0  0  0  0  0  0  0
   -1.2480    3.3940   -0.4050 C   0  0  0  0  0  0  0  0  0  0  0  0
   -2.4330    3.9750   -0.4910 O   0  0  0  0  0  0  0  0  0  0  0  0
   -1.1030    2.2790    0.4340 N   0  0  0  0  0  0  0  0  0  0  0  0
   -1.3690    0.8510    0.1090 C   0  0  0  0  0  0  0  0  0  0  0  0
   -0.4980    0.2320   -0.7770 C   0  0  0  0  0  0  0  0  0  0  0  0
   -0.4830   -1.1500   -1.1120 C   0  0  0  0  0  0  0  0  0  0  0  0
   -1.3790   -1.9910   -0.5390 C   0  0  0  0  0  0  0  0  0  0  0  0
   -2.2540   -1.3800    0.3320 C   0  0  0  0  0  0  0  0  0  0  0  0
   -2.3130    0.0070    0.6950 C   0  0  0  0  0  0  0  0  0  0  0  0
   -3.5210    0.2750    1.6040 C   0  0  0  0  0  0  0  0  0  0  0  0
   -4.1430   -0.9770    1.8700 O   0  0  0  0  0  0  0  0  0  0  0  0
   -5.2420   -0.8210    2.6460 C   0  0  0  0  0  0  0  0  0  0  0  0
   -6.3420   -0.1430    1.9560 C   0  0  0  0  0  0  0  0  0  0  0  0
   -7.1970    0.4950    2.6820 O   0  0  0  0  0  0  0  0  0  0  0  0
   -6.4990   -0.1680    0.5580 N   0  0  0  0  0  0  0  0  0  0  0  0
   -5.6750   -0.9140   -0.3580 C   0  0  0  0  0  0  0  0  0  0  0  0
   -7.5860    0.6240   -0.0420 C   0  0  0  0  0  0  0  0  0  0  0  0
   -1.2350   -3.4650   -0.7400 C   0  0  0  0  0  0  0  0  0  0  0  0
   -1.7790   -4.3520   -1.4650 O   0  0  0  0  0  0  0  0  0  0  0  0
   -0.1610   -4.1590    0.1320 C   0  0  0  0  0  0  0  0  0  0  0  0
    1.1100   -4.3190   -0.5900 C   0  0  0  0  0  0  0  0  0  0  0  0
    1.3210   -5.5390   -1.0690 N   0  0  0  0  0  0  0  0  0  0  0  0
    1.6870    2.8100   -0.2290 C   0  0  0  0  0  0  0  0  0  0  0  0
  1  2  2  0
  2  3  1  0
  2 37  1  0
  3  4  1  0
  4  5  1  6
  4  6  1  0
  6  7  1  1
  6 11  1  0
  7  8  1  0
  8  9  1  0
  8 10  2  0
 11 12  1  0
 12 13  1  1
 12 39  1  0
 13 14  1  0
 15 14  1  1
 15 16  1  0
 15 39  1  0
 16 17  1  0
 17 18  2  0
 17 19  1  0
 19 20  1  0
 20 21  2  0
 20 25  1  0
 21 22  1  0
 22 23  2  0
 23 24  1  0
 23 34  1  0
 24 25  2  0
 25 26  1  0
 26 27  1  0
 27 28  1  0
 28 29  1  0
 29 30  2  0
 29 31  1  0
 31 32  1  0
 31 33  1  0
 34 35  2  0
 34 36  1  0
 36 37  1  0
 37 38  2  0
M  CHG  1  11   1
M  END
