
     RDKit          3D

 39 42  0  0  0  0  0  0  0  0999 V2000
    4.5560    2.5300   -0.0260 C   0  0  0  0  0  0  0  0  0  0  0  0
    4.6740    1.0330   -0.1400 C   0  0  2  0  0  0  0  0  0  0  0  0
    4.1610    0.4230    1.0520 N   0  0  0  0  0  0  0  0  0  0  0  0
    2.8030   -0.0830    1.1240 C   0  0  0  0  0  0  0  0  0  0  0  0
    1.8420    0.1210    0.1920 C   0  0  0  0  0  0  0  0  0  0  0  0
    0.6010   -0.5500    0.1460 C   0  0  0  0  0  0  0  0  0  0  0  0
   -0.5190   -0.1950   -1.0970 S   0  0  2  0  0  0  0  0  0  0  0  0
   -0.3390   -1.0970   -2.2630 O   0  0  0  0  0  0  0  0  0  0  0  0
   -0.0540    1.2110   -1.6660 O   0  0  0  0  0  0  0  0  0  0  0  0
   -2.1940   -0.0090   -0.7130 N   0  0  0  0  0  0  0  0  0  0  0  0
   -2.7370    1.1540   -1.1140 C   0  0  0  0  0  0  0  0  0  0  0  0
   -3.5110    2.2800   -0.6630 C   0  0  0  0  0  0  0  0  0  0  0  0
   -4.8940    2.1250   -0.1790 C   0  0  0  0  0  0  0  0  0  0  0  0
   -5.9160    2.5040   -0.9990 C   0  0  0  0  0  0  0  0  0  0  0  0
   -7.1920    2.2720   -0.3200 C   0  0  0  0  0  0  0  0  0  0  0  0
   -6.7950    1.7960    0.9960 C   0  0  0  0  0  0  0  0  0  0  0  0
   -5.4720    1.7030    1.0660 C   0  0  0  0  0  0  0  0  0  0  0  0
   -4.8650    1.3690    2.2180 F   0  0  0  0  0  0  0  0  0  0  0  0
   -2.5010   -0.6450    0.5400 C   0  0  0  0  0  0  0  0  0  0  0  0
   -3.3280   -1.8440    0.4010 C   0  0  0  0  0  0  0  0  0  0  0  0
   -4.5750   -1.9300    1.0420 C   0  0  0  0  0  0  0  0  0  0  0  0
   -5.3470   -3.0830    1.0570 C   0  0  0  0  0  0  0  0  0  0  0  0
   -4.8580   -4.1940    0.4070 C   0  0  0  0  0  0  0  0  0  0  0  0
   -3.6450   -4.1630   -0.2310 C   0  0  0  0  0  0  0  0  0  0  0  0
   -2.8840   -2.9710   -0.2230 C   0  0  0  0  0  0  0  0  0  0  0  0
   -1.7060   -3.0170   -0.8870 F   0  0  0  0  0  0  0  0  0  0  0  0
    0.3950   -1.4710    1.1430 C   0  0  0  0  0  0  0  0  0  0  0  0
    1.3920   -1.6590    2.0980 C   0  0  0  0  0  0  0  0  0  0  0  0
    2.5440   -1.0070    2.1060 N   0  0  0  0  0  0  0  0  0  0  0  0
    6.0620    0.6750   -0.5120 C   0  0  0  0  0  0  0  0  0  0  0  0
    6.9830    1.6640   -0.7600 C   0  0  0  0  0  0  0  0  0  0  0  0
    8.2350    1.3420   -1.1800 C   0  0  0  0  0  0  0  0  0  0  0  0
    8.5850   -0.0030   -1.3580 C   0  0  0  0  0  0  0  0  0  0  0  0
    7.6680   -0.9180   -1.1070 N   0  0  0  0  0  0  0  0  0  0  0  0
    6.3990   -0.6430   -0.6820 C   0  0  0  0  0  0  0  0  0  0  0  0
    5.5410   -1.8060   -0.4120 C   0  0  2  0  0  0  0  0  0  0  0  0
    5.2550   -1.9470    0.9240 F   0  0  0  0  0  0  0  0  0  0  0  0
    6.1960   -2.9600   -0.7910 F   0  0  0  0  0  0  0  0  0  0  0  0
    4.3730   -1.7710   -1.1680 F   0  0  0  0  0  0  0  0  0  0  0  0
  2  1  1  1
  2  3  1  0
  2 30  1  0
  3  4  1  0
  4  5  2  0
  4 29  1  0
  5  6  1  0
  6  7  1  0
  6 27  2  0
  7  8  2  0
  7  9  2  0
  7 10  1  1
 10 11  1  0
 10 19  1  0
 11 12  1  0
 12 13  1  0
 13 14  2  0
 13 17  1  0
 14 15  1  0
 15 16  1  0
 16 17  2  0
 17 18  1  0
 19 20  1  0
 20 21  2  0
 20 25  1  0
 21 22  1  0
 22 23  2  0
 23 24  1  0
 24 25  2  0
 25 26  1  0
 27 28  1  0
 28 29  2  0
 30 31  2  0
 30 35  1  0
 31 32  1  0
 32 33  2  0
 33 34  1  0
 34 35  2  0
 35 36  1  0
 36 37  1  1
 36 38  1  0
 36 39  1  0
M  END
