
     RDKit          3D

 39 42  0  0  0  0  0  0  0  0999 V2000
    7.7010   -0.0830    1.9190 C   0  0  0  0  0  0  0  0  0  0  0  0
    6.5560   -0.1990    1.3320 C   0  0  0  0  0  0  0  0  0  0  0  0
    6.4350   -0.3290   -0.1290 C   0  0  0  0  0  0  0  0  0  0  0  0
    7.4290   -0.8170   -0.8470 C   0  0  0  0  0  0  0  0  0  0  0  0
    7.3510   -0.9660   -2.3140 C   0  0  0  0  0  0  0  0  0  0  0  0
    5.2500    0.0770   -0.6930 O   0  0  0  0  0  0  0  0  0  0  0  0
    4.0030   -0.2490   -0.0430 C   0  0  2  0  0  0  0  0  0  0  0  0
    2.9890    0.7830   -0.3730 C   0  0  0  0  0  0  0  0  0  0  0  0
    1.6660    0.7240    0.1340 N   0  0  0  0  0  0  0  0  0  0  0  0
    1.2000    0.8610    1.4420 C   0  0  0  0  0  0  0  0  0  0  0  0
    1.9610    1.0900    2.3930 O   0  0  0  0  0  0  0  0  0  0  0  0
   -0.2600    0.7440    1.7880 C   0  0  2  0  0  0  0  0  0  0  0  0
   -0.5550   -0.6330    2.3540 C   0  0  0  0  0  0  0  0  0  0  0  0
   -0.9910   -1.3830    1.0790 C   0  0  0  0  0  0  0  0  0  0  0  0
   -1.8940   -0.3140    0.4870 C   0  0  1  0  0  0  0  0  0  0  0  0
   -3.1610   -0.2090    1.2600 C   0  0  0  0  0  0  0  0  0  0  0  0
   -3.2460    0.7480    2.0810 O   0  0  0  0  0  0  0  0  0  0  0  0
   -4.2430   -1.1370    1.0990 N   0  0  0  0  0  0  0  0  0  0  0  0
   -5.4040   -0.9710    1.9310 C   0  0  0  0  0  0  0  0  0  0  0  0
   -6.2000   -2.1980    2.1910 C   0  0  0  0  0  0  0  0  0  0  0  0
   -6.2460   -3.1260    0.9810 C   0  0  0  0  0  0  0  0  0  0  0  0
   -4.7700   -3.4320    0.6920 C   0  0  1  0  0  0  0  0  0  0  0  0
   -4.6200   -4.6240   -0.2240 C   0  0  0  0  0  0  0  0  0  0  0  0
   -5.2280   -4.4480   -1.4400 O   0  0  0  0  0  0  0  0  0  0  0  0
   -4.1960   -2.1850    0.1190 C   0  0  0  0  0  0  0  0  0  0  0  0
   -1.0810    0.8680    0.6130 N   0  0  0  0  0  0  0  0  0  0  0  0
   -1.0860    1.9750   -0.2890 C   0  0  0  0  0  0  0  0  0  0  0  0
   -0.3100    2.9180    0.0060 O   0  0  0  0  0  0  0  0  0  0  0  0
   -1.8800    2.0480   -1.4410 N   0  0  0  0  0  0  0  0  0  0  0  0
   -1.9050    3.1230   -2.3620 C   0  0  0  0  0  0  0  0  0  0  0  0
   -2.8160    3.0550   -3.4330 C   0  0  0  0  0  0  0  0  0  0  0  0
   -2.9210    4.0430   -4.3850 C   0  0  0  0  0  0  0  0  0  0  0  0
   -2.1090    5.1400   -4.2960 C   0  0  0  0  0  0  0  0  0  0  0  0
   -2.2240    6.1370   -5.2660 O   0  0  0  0  0  0  0  0  0  0  0  0
   -1.2030    5.2490   -3.2650 C   0  0  0  0  0  0  0  0  0  0  0  0
   -1.1150    4.2310   -2.3080 C   0  0  0  0  0  0  0  0  0  0  0  0
    4.1810   -0.7980    1.2920 C   0  0  0  0  0  0  0  0  0  0  0  0
    5.2970   -0.2040    2.1340 C   0  0  2  0  0  0  0  0  0  0  0  0
    5.0660    1.1450    2.5700 N   0  0  0  0  0  0  0  0  0  0  0  0
  1  2  2  0
  2  3  1  0
  2 38  1  0
  3  4  2  3
  3  6  1  0
  4  5  1  0
  6  7  1  0
  7  8  1  1
  7 37  1  0
  8  9  1  0
  9 10  1  0
 10 11  2  0
 12 10  1  6
 12 13  1  0
 12 26  1  0
 13 14  1  0
 14 15  1  0
 15 16  1  1
 15 26  1  0
 16 17  2  0
 16 18  1  0
 18 19  1  0
 18 25  1  0
 19 20  1  0
 20 21  1  0
 21 22  1  0
 22 23  1  6
 22 25  1  0
 23 24  1  0
 26 27  1  0
 27 28  2  0
 27 29  1  0
 29 30  1  0
 30 31  2  0
 30 36  1  0
 31 32  1  0
 32 33  2  0
 33 34  1  0
 33 35  1  0
 35 36  2  0
 37 38  1  0
 38 39  1  6
M  CHG  1  39   1
M  END
