
     RDKit          3D

 39 42  0  0  0  0  0  0  0  0999 V2000
   -7.5340   -0.2720   -1.1390 N   0  0  0  0  0  0  0  0  0  0  0  0
   -6.6460    0.7040   -1.6890 C   0  0  0  0  0  0  0  0  0  0  0  0
   -6.1230    1.7170   -0.7210 C   0  0  1  0  0  0  0  0  0  0  0  0
   -7.1970    2.5280   -0.0630 C   0  0  0  0  0  0  0  0  0  0  0  0
   -7.6120    2.0920    1.2980 C   0  0  0  0  0  0  0  0  0  0  0  0
   -6.5270    1.5370    2.1640 C   0  0  0  0  0  0  0  0  0  0  0  0
   -5.1910    1.9560    1.5390 C   0  0  0  0  0  0  0  0  0  0  0  0
   -5.1380    1.1360    0.2260 C   0  0  2  0  0  0  0  0  0  0  0  0
   -3.7650    1.1310   -0.2450 N   0  0  0  0  0  0  0  0  0  0  0  0
   -2.8970    0.0480    0.0260 C   0  0  0  0  0  0  0  0  0  0  0  0
   -3.2890   -0.9350    0.6800 O   0  0  0  0  0  0  0  0  0  0  0  0
   -1.5110    0.0970   -0.4830 C   0  0  1  0  0  0  0  0  0  0  0  0
   -0.8720    1.4520   -0.2010 C   0  0  0  0  0  0  0  0  0  0  0  0
    0.5260    1.4560   -0.8100 C   0  0  0  0  0  0  0  0  0  0  0  0
    1.3140    0.3680   -0.2140 N   0  0  0  0  0  0  0  0  0  0  0  0
    2.6340    0.5630    0.2130 C   0  0  0  0  0  0  0  0  0  0  0  0
    3.2840   -0.3570    0.7380 O   0  0  0  0  0  0  0  0  0  0  0  0
    3.3160    1.8770    0.0550 C   0  0  0  0  0  0  0  0  0  0  0  0
    4.7170    1.8690    0.5720 C   0  0  0  0  0  0  0  0  0  0  0  0
    5.3010    3.2310    0.3490 C   0  0  0  0  0  0  0  0  0  0  0  0
    4.6230    4.1590   -0.1840 O   0  0  0  0  0  0  0  0  0  0  0  0
    6.6320    3.5740    0.7120 N   0  0  0  0  0  0  0  0  0  0  0  0
    7.1640    4.9180    0.4720 C   0  0  1  0  0  0  0  0  0  0  0  0
    8.3130    5.4450    1.2100 C   0  0  0  0  0  0  0  0  0  0  0  0
    8.5190    4.9050   -0.1770 C   0  0  0  0  0  0  0  0  0  0  0  0
    0.6890   -0.9060   -0.0950 C   0  0  0  0  0  0  0  0  0  0  0  0
    1.3780   -2.0140   -0.3250 C   0  0  0  0  0  0  0  0  0  0  0  0
    0.8300   -3.3330   -0.2260 C   0  0  0  0  0  0  0  0  0  0  0  0
    1.5440   -4.4490   -0.4610 C   0  0  0  0  0  0  0  0  0  0  0  0
    0.9030   -5.7710   -0.3380 C   0  0  0  0  0  0  0  0  0  0  0  0
   -0.3460   -5.8510   -0.4980 O   0  0  0  0  0  0  0  0  0  0  0  0
    1.7110   -6.9040   -0.0460 N   0  0  0  0  0  0  0  0  0  0  0  0
    3.1060   -6.6900    0.1110 C   0  0  0  0  0  0  0  0  0  0  0  0
    3.9170   -7.6710    0.1860 O   0  0  0  0  0  0  0  0  0  0  0  0
    3.6950   -5.3290    0.1980 C   0  0  0  0  0  0  0  0  0  0  0  0
    2.9660   -4.4600   -0.8400 C   0  0  1  0  0  0  0  0  0  0  0  0
    3.0860   -5.2340   -2.1580 C   0  0  0  0  0  0  0  0  0  0  0  0
    4.4200   -5.2820   -2.5740 O   0  0  0  0  0  0  0  0  0  0  0  0
   -0.7340   -0.9710    0.2890 C   0  0  0  0  0  0  0  0  0  0  0  0
  1  2  1  0
  3  2  1  1
  3  4  1  0
  3  8  1  0
  4  5  1  0
  5  6  1  0
  6  7  1  0
  7  8  1  0
  8  9  1  6
  9 10  1  0
 10 11  2  0
 12 10  1  1
 12 13  1  0
 12 39  1  0
 13 14  1  0
 14 15  1  0
 15 16  1  0
 15 26  1  0
 16 17  2  0
 16 18  1  0
 18 19  1  0
 19 20  1  0
 20 21  2  0
 20 22  1  0
 23 22  1  1
 23 24  1  0
 23 25  1  0
 24 25  1  0
 26 27  2  3
 26 39  1  0
 27 28  1  0
 28 29  2  3
 29 30  1  0
 29 36  1  0
 30 31  2  0
 30 32  1  0
 32 33  1  0
 33 34  2  0
 33 35  1  0
 35 36  1  0
 36 37  1  6
 37 38  1  0
M  CHG  1   1   1
M  END
