
     RDKit          3D

 39 42  0  0  0  0  0  0  0  0999 V2000
    6.0940    1.5150   -2.8680 C   0  0  0  0  0  0  0  0  0  0  0  0
    6.8810    0.2300   -2.7350 C   0  0  0  0  0  0  0  0  0  0  0  0
    7.4470    0.1900   -1.3260 C   0  0  1  0  0  0  0  0  0  0  0  0
    6.3510    0.2240   -0.3540 C   0  0  0  0  0  0  0  0  0  0  0  0
    6.2900    1.1600    0.4930 O   0  0  0  0  0  0  0  0  0  0  0  0
    5.3100   -0.7460   -0.2800 N   0  0  0  0  0  0  0  0  0  0  0  0
    4.2490   -0.6940    0.6740 C   0  0  2  0  0  0  0  0  0  0  0  0
    4.4530   -1.8810    1.6340 C   0  0  0  0  0  0  0  0  0  0  0  0
    3.0820   -2.4490    1.8920 C   0  0  0  0  0  0  0  0  0  0  0  0
    2.1520   -1.4450    1.3250 C   0  0  2  0  0  0  0  0  0  0  0  0
    0.8370   -1.9210    1.0650 N   0  0  0  0  0  0  0  0  0  0  0  0
   -0.3300   -1.2390    1.4370 C   0  0  0  0  0  0  0  0  0  0  0  0
   -0.2440   -0.1410    2.0240 O   0  0  0  0  0  0  0  0  0  0  0  0
   -1.6740   -1.7820    1.1550 C   0  0  0  0  0  0  0  0  0  0  0  0
   -2.7760   -0.8600    1.6130 C   0  0  0  0  0  0  0  0  0  0  0  0
   -3.3510   -1.2050    2.8210 C   0  0  0  0  0  0  0  0  0  0  0  0
   -4.3320   -0.3620    3.2730 C   0  0  0  0  0  0  0  0  0  0  0  0
   -4.7300    0.7860    2.5550 C   0  0  0  0  0  0  0  0  0  0  0  0
   -4.1500    1.1230    1.3640 C   0  0  0  0  0  0  0  0  0  0  0  0
   -3.1600    0.2840    0.8800 C   0  0  0  0  0  0  0  0  0  0  0  0
   -2.4520    0.4170   -0.3110 O   0  0  0  0  0  0  0  0  0  0  0  0
   -2.7840    0.4010   -1.6660 C   0  0  0  0  0  0  0  0  0  0  0  0
   -3.8190    1.3190   -2.1360 C   0  0  0  0  0  0  0  0  0  0  0  0
   -3.4930    1.9710   -3.2220 O   0  0  0  0  0  0  0  0  0  0  0  0
   -5.0790    1.6320   -1.6540 N   0  0  0  0  0  0  0  0  0  0  0  0
   -6.2350    0.8160   -1.3750 C   0  0  1  0  0  0  0  0  0  0  0  0
   -5.9510   -0.6160   -1.0470 C   0  0  0  0  0  0  0  0  0  0  0  0
   -7.1590    1.4950   -0.3700 C   0  0  1  0  0  0  0  0  0  0  0  0
   -8.2480    2.1770   -1.1070 N   0  0  0  0  0  0  0  0  0  0  0  0
   -7.7220    0.5860    0.6410 C   0  0  0  0  0  0  0  0  0  0  0  0
   -7.6860    0.7040    1.9480 C   0  0  0  0  0  0  0  0  0  0  0  0
   -7.0810    1.7610    2.7540 C   0  0  0  0  0  0  0  0  0  0  0  0
   -5.7690    1.4680    3.2340 O   0  0  0  0  0  0  0  0  0  0  0  0
    2.8690   -0.9310    0.0970 C   0  0  0  0  0  0  0  0  0  0  0  0
    8.3140   -1.0420   -1.2400 C   0  0  0  0  0  0  0  0  0  0  0  0
    9.4230   -0.7080   -0.2620 C   0  0  0  0  0  0  0  0  0  0  0  0
    9.5230    0.7790   -0.4140 C   0  0  0  0  0  0  0  0  0  0  0  0
   10.4720    1.4770    0.0380 O   0  0  0  0  0  0  0  0  0  0  0  0
    8.3980    1.2600   -1.1350 N   0  0  0  0  0  0  0  0  0  0  0  0
  1  2  1  0
  3  2  1  6
  3  4  1  0
  3 35  1  0
  3 39  1  0
  4  5  2  0
  4  6  1  0
  7  6  1  6
  7  8  1  0
  7 34  1  0
  8  9  1  0
  9 10  1  0
 10 11  1  6
 10 34  1  0
 11 12  1  0
 12 13  2  0
 12 14  1  0
 14 15  1  0
 15 16  2  0
 15 20  1  0
 16 17  1  0
 17 18  2  0
 18 19  1  0
 18 33  1  0
 19 20  2  0
 20 21  1  0
 21 22  1  0
 22 23  1  0
 23 24  2  0
 23 25  1  0
 25 26  1  0
 26 27  1  1
 26 28  1  0
 28 29  1  6
 28 30  1  0
 30 31  2  0
 31 32  1  0
 32 33  1  0
 35 36  1  0
 36 37  1  0
 37 38  2  0
 37 39  1  0
M  CHG  1  29   1
M  END
