
     RDKit          3D

 31 36  0  0  0  0  0  0  0  0999 V2000
   -0.1850   -0.0100    3.1350 C   0  0  0  0  0  0  0  0  0  0  0  0
    1.0780   -0.0420    2.4820 O   0  0  0  0  0  0  0  0  0  0  0  0
    1.1670    0.0840    1.1020 C   0  0  0  0  0  0  0  0  0  0  0  0
    0.0630    0.2450    0.2980 C   0  0  0  0  0  0  0  0  0  0  0  0
    0.2520    0.3610   -1.0600 C   0  0  0  0  0  0  0  0  0  0  0  0
    1.5330    0.3190   -1.6090 C   0  0  0  0  0  0  0  0  0  0  0  0
    2.6160    0.1580   -0.7870 C   0  0  0  0  0  0  0  0  0  0  0  0
    2.4540    0.0380    0.5780 C   0  0  0  0  0  0  0  0  0  0  0  0
    3.6410   -0.1290    1.4050 C   0  0  0  0  0  0  0  0  0  0  0  0
    4.1540   -1.3720    1.7190 C   0  0  0  0  0  0  0  0  0  0  0  0
    3.6760   -2.7100    1.3370 C   0  0  0  0  0  0  0  0  0  0  0  0
    5.2310   -1.1440    2.4810 N   0  0  0  0  0  0  0  0  0  0  0  0
    5.3940    0.1220    2.6420 O   0  0  0  0  0  0  0  0  0  0  0  0
    4.4490    0.7970    2.0050 C   0  0  0  0  0  0  0  0  0  0  0  0
    4.2500    2.2560    1.9190 C   0  0  0  0  0  0  0  0  0  0  0  0
    1.4260    0.4560   -2.9340 N   0  0  0  0  0  0  0  0  0  0  0  0
    0.1490    0.5850   -3.2710 C   0  0  0  0  0  0  0  0  0  0  0  0
   -0.4360    0.7490   -4.4980 C   0  0  0  0  0  0  0  0  0  0  0  0
   -1.8020    0.8570   -4.5470 C   0  0  0  0  0  0  0  0  0  0  0  0
   -2.5440    0.8030   -3.4270 N   0  0  0  0  0  0  0  0  0  0  0  0
   -2.0000    0.6400   -2.1880 C   0  0  0  0  0  0  0  0  0  0  0  0
   -2.8110    0.5800   -1.0040 C   0  0  0  0  0  0  0  0  0  0  0  0
   -3.3490   -0.5540   -0.4470 C   0  0  0  0  0  0  0  0  0  0  0  0
   -3.2030   -1.9310   -0.9130 C   0  0  2  0  0  0  0  0  0  0  0  0
   -3.9090   -3.0640   -0.2800 C   0  0  0  0  0  0  0  0  0  0  0  0
   -2.4730   -2.9230    0.0490 C   0  0  0  0  0  0  0  0  0  0  0  0
   -4.0730   -0.2020    0.6590 N   0  0  0  0  0  0  0  0  0  0  0  0
   -3.9820    1.1140    0.7780 N   0  0  0  0  0  0  0  0  0  0  0  0
   -3.2140    1.6330   -0.2260 C   0  0  0  0  0  0  0  0  0  0  0  0
   -2.9130    3.0850   -0.3850 C   0  0  0  0  0  0  0  0  0  0  0  0
   -0.6360    0.5310   -2.1170 C   0  0  0  0  0  0  0  0  0  0  0  0
  1  2  1  0
  2  3  1  0
  3  4  2  0
  3  8  1  0
  4  5  1  0
  5  6  2  0
  5 31  1  0
  6  7  1  0
  6 16  1  0
  7  8  2  0
  8  9  1  0
  9 10  1  0
  9 14  2  0
 10 11  1  0
 10 12  2  0
 12 13  1  0
 13 14  1  0
 14 15  1  0
 16 17  1  0
 17 18  2  0
 17 31  1  0
 18 19  1  0
 19 20  2  0
 20 21  1  0
 21 22  1  0
 21 31  2  0
 22 23  1  0
 22 29  2  0
 24 23  1  1
 23 27  2  0
 24 25  1  0
 24 26  1  0
 25 26  1  0
 27 28  1  0
 28 29  1  0
 29 30  1  0
M  END
