
     RDKit          3D

 39 42  0  0  0  0  0  0  0  0999 V2000
    2.4510    5.9590    0.1710 C   0  0  0  0  0  0  0  0  0  0  0  0
    1.4020    5.1920    0.2640 O   0  0  0  0  0  0  0  0  0  0  0  0
    0.8700    3.9720    0.3860 C   0  0  0  0  0  0  0  0  0  0  0  0
    1.5610    2.7510    0.5060 C   0  0  0  0  0  0  0  0  0  0  0  0
    0.9540    1.5410    0.6220 C   0  0  0  0  0  0  0  0  0  0  0  0
    1.7350    0.3230    0.9310 C   0  0  0  0  0  0  0  0  0  0  0  0
    2.9140    0.3930    0.1080 N   0  0  0  0  0  0  0  0  0  0  0  0
    3.9070   -0.6120   -0.0310 C   0  0  0  0  0  0  0  0  0  0  0  0
    3.8600   -1.6490    0.6210 O   0  0  0  0  0  0  0  0  0  0  0  0
    5.0030   -0.3250   -1.0510 C   0  0  0  0  0  0  0  0  0  0  0  0
    6.5110   -0.1060   -0.1520 S   0  0  0  0  0  0  0  0  0  0  0  0
    7.2680   -1.7160    0.1070 C   0  0  0  0  0  0  0  0  0  0  0  0
    7.1510   -2.6550   -0.8720 C   0  0  0  0  0  0  0  0  0  0  0  0
    7.8250   -3.8720   -0.8050 C   0  0  0  0  0  0  0  0  0  0  0  0
    8.6210   -4.1220    0.2850 C   0  0  0  0  0  0  0  0  0  0  0  0
    9.3210   -5.2620    0.4100 F   0  0  0  0  0  0  0  0  0  0  0  0
    8.7280   -3.1700    1.2720 C   0  0  0  0  0  0  0  0  0  0  0  0
    9.5250   -3.4220    2.3430 F   0  0  0  0  0  0  0  0  0  0  0  0
    8.0490   -1.9410    1.2020 C   0  0  0  0  0  0  0  0  0  0  0  0
   -0.4430    1.5020    0.6240 C   0  0  0  0  0  0  0  0  0  0  0  0
   -0.9460    0.1030    0.5350 C   0  0  0  0  0  0  0  0  0  0  0  0
   -1.8930   -0.0980   -0.4530 N   0  0  0  0  0  0  0  0  0  0  0  0
   -2.2950   -1.4660   -0.6250 C   0  0  0  0  0  0  0  0  0  0  0  0
   -3.6590   -1.6340    0.0380 C   0  0  0  0  0  0  0  0  0  0  0  0
   -4.5790   -0.5370   -0.2020 C   0  0  0  0  0  0  0  0  0  0  0  0
   -5.8660   -0.5700   -0.2160 N   0  0  0  0  0  0  0  0  0  0  0  0
   -6.7120   -1.6200    0.0170 N   0  0  0  0  0  0  0  0  0  0  0  0
   -6.7280   -2.4100    1.2310 C   0  0  0  0  0  0  0  0  0  0  0  0
   -7.4900   -3.4320    1.0730 C   0  0  0  0  0  0  0  0  0  0  0  0
   -8.0780   -3.4400   -0.2880 C   0  0  0  0  0  0  0  0  0  0  0  0
   -7.7560   -2.0910   -0.8110 C   0  0  0  0  0  0  0  0  0  0  0  0
   -4.0520    0.8830   -0.3430 C   0  0  0  0  0  0  0  0  0  0  0  0
   -2.7320    0.8230   -1.0520 C   0  0  0  0  0  0  0  0  0  0  0  0
   -1.1580    2.6060    0.5260 C   0  0  0  0  0  0  0  0  0  0  0  0
   -0.5360    3.8330    0.4040 C   0  0  0  0  0  0  0  0  0  0  0  0
   -1.3150    5.0890    0.1880 C   0  0  1  0  0  0  0  0  0  0  0  0
   -1.0240    5.9930    1.1590 F   0  0  0  0  0  0  0  0  0  0  0  0
   -0.8530    5.5310   -1.0730 F   0  0  0  0  0  0  0  0  0  0  0  0
   -2.6550    4.8610    0.0410 F   0  0  0  0  0  0  0  0  0  0  0  0
  1  2  1  0
  2  3  1  0
  3  4  2  0
  3 35  1  0
  4  5  1  0
  5  6  1  0
  5 20  2  0
  6  7  1  0
  7  8  1  0
  8  9  2  0
  8 10  1  0
 10 11  1  0
 11 12  1  0
 12 13  2  0
 12 19  1  0
 13 14  1  0
 14 15  2  0
 15 16  1  0
 15 17  1  0
 17 18  1  0
 17 19  2  0
 20 21  1  0
 20 34  1  0
 21 22  1  0
 22 23  1  0
 22 33  1  0
 23 24  1  0
 24 25  1  0
 25 26  2  3
 25 32  1  0
 26 27  1  0
 27 28  1  0
 27 31  1  0
 28 29  2  0
 29 30  1  0
 30 31  1  0
 32 33  1  0
 34 35  2  0
 35 36  1  0
 36 37  1  1
 36 38  1  0
 36 39  1  0
M  END
