
     RDKit          3D

 39 42  0  0  0  0  0  0  0  0999 V2000
    0.2410   -3.2240   -2.6050 C   0  0  0  0  0  0  0  0  0  0  0  0
    0.1660   -1.9080   -1.7910 C   0  0  2  0  0  0  0  0  0  0  0  0
    0.5060   -2.2590   -0.4670 N   0  0  0  0  0  0  0  0  0  0  0  0
    1.9770   -2.1610   -0.3440 C   0  0  0  0  0  0  0  0  0  0  0  0
    2.3490   -1.4270    0.8940 C   0  0  0  0  0  0  0  0  0  0  0  0
    2.4440   -2.1830    1.9320 O   0  0  0  0  0  0  0  0  0  0  0  0
    2.5940   -0.0660    1.0430 N   0  0  0  0  0  0  0  0  0  0  0  0
    3.5240    0.7820    0.3300 C   0  0  1  0  0  0  0  0  0  0  0  0
    3.3350    2.2210    0.8300 C   0  0  0  0  0  0  0  0  0  0  0  0
    4.9600    0.4210    0.6450 C   0  0  0  0  0  0  0  0  0  0  0  0
    5.3680    0.5220    2.0620 C   0  0  0  0  0  0  0  0  0  0  0  0
    6.8470    0.0890    2.1270 C   0  0  0  0  0  0  0  0  0  0  0  0
    7.6170    0.9470    1.3140 O   0  0  0  0  0  0  0  0  0  0  0  0
    3.3630    0.7120   -1.1380 C   0  0  0  0  0  0  0  0  0  0  0  0
    4.3440    0.2810   -1.7940 O   0  0  0  0  0  0  0  0  0  0  0  0
    2.2430    1.0780   -1.7660 O   0  0  0  0  0  0  0  0  0  0  0  0
    1.5140    2.1970   -2.0260 C   0  0  0  0  0  0  0  0  0  0  0  0
    0.0100    1.8880   -2.2210 C   0  0  0  0  0  0  0  0  0  0  0  0
   -0.3320    0.7510   -1.2840 C   0  0  1  0  0  0  0  0  0  0  0  0
   -0.6570    1.3090    0.0850 C   0  0  0  0  0  0  0  0  0  0  0  0
   -2.0510    1.7270    0.2450 C   0  0  0  0  0  0  0  0  0  0  0  0
   -2.8690    1.6470   -0.7840 C   0  0  0  0  0  0  0  0  0  0  0  0
   -2.6420    0.7180   -1.8950 N   0  0  0  0  0  0  0  0  0  0  0  0
   -1.5140   -0.0680   -1.7930 C   0  0  0  0  0  0  0  0  0  0  0  0
   -1.2180   -1.3570   -2.0000 C   0  0  0  0  0  0  0  0  0  0  0  0
   -2.2190   -2.3230   -2.4580 C   0  0  0  0  0  0  0  0  0  0  0  0
   -3.3800   -2.6440   -1.9530 C   0  0  0  0  0  0  0  0  0  0  0  0
   -4.0500   -2.1280   -0.7450 C   0  0  0  0  0  0  0  0  0  0  0  0
   -3.2330   -2.4600    0.4890 C   0  0  0  0  0  0  0  0  0  0  0  0
   -3.9670   -2.2800    1.7730 C   0  0  0  0  0  0  0  0  0  0  0  0
   -3.5310   -1.1550    2.5610 N   0  0  0  0  0  0  0  0  0  0  0  0
   -3.6170    0.0090    1.7250 C   0  0  0  0  0  0  0  0  0  0  0  0
   -3.2070    1.2800    2.4340 C   0  0  0  0  0  0  0  0  0  0  0  0
   -2.5150    2.2390    1.5490 C   0  0  2  0  0  0  0  0  0  0  0  0
   -3.3460    3.4750    1.3440 C   0  0  0  0  0  0  0  0  0  0  0  0
   -3.1980    4.4560    2.1000 O   0  0  0  0  0  0  0  0  0  0  0  0
   -4.2790    3.4530    0.2670 N   0  0  0  0  0  0  0  0  0  0  0  0
   -4.0470    2.5440   -0.7960 C   0  0  0  0  0  0  0  0  0  0  0  0
   -4.8620    2.4880   -1.7860 O   0  0  0  0  0  0  0  0  0  0  0  0
  2  1  1  6
  2  3  1  0
  2 25  1  0
  3  4  1  0
  4  5  1  0
  5  6  2  0
  5  7  1  0
  7  8  1  0
  8  9  1  1
  8 10  1  0
  8 14  1  0
 10 11  1  0
 11 12  1  0
 12 13  1  0
 14 15  2  0
 14 16  1  0
 16 17  1  0
 17 18  1  0
 19 18  1  6
 19 20  1  0
 19 24  1  0
 20 21  1  0
 21 22  2  0
 21 34  1  0
 22 23  1  0
 22 38  1  0
 23 24  1  0
 24 25  2  0
 25 26  1  0
 26 27  2  0
 27 28  1  0
 28 29  1  0
 29 30  1  0
 30 31  1  0
 31 32  1  0
 32 33  1  0
 34 33  1  6
 34 35  1  0
 35 36  2  0
 35 37  1  0
 37 38  1  0
 38 39  2  0
M  CHG  1   3   1
M  END
