
     RDKit          3D

 34 38  0  0  0  0  0  0  0  0999 V2000
    1.4880    4.2420   -0.6950 C   0  0  0  0  0  0  0  0  0  0  0  0
    0.7870    3.0730   -0.3370 O   0  0  0  0  0  0  0  0  0  0  0  0
    1.4690    2.0440    0.2400 C   0  0  0  0  0  0  0  0  0  0  0  0
    2.8510    2.1580    0.4690 C   0  0  0  0  0  0  0  0  0  0  0  0
    3.5760    1.1470    1.0470 C   0  0  0  0  0  0  0  0  0  0  0  0
    2.8890    0.0070    1.3950 C   0  0  0  0  0  0  0  0  0  0  0  0
    1.5350   -0.1030    1.1690 C   0  0  0  0  0  0  0  0  0  0  0  0
    0.7680    0.9130    0.5810 C   0  0  0  0  0  0  0  0  0  0  0  0
   -0.6360    0.6690    0.4030 C   0  0  0  0  0  0  0  0  0  0  0  0
   -1.1330   -0.4610    0.7860 O   0  0  0  0  0  0  0  0  0  0  0  0
   -1.5980    1.5270   -0.1570 N   0  0  0  0  0  0  0  0  0  0  0  0
   -2.9800    1.1560   -0.2740 C   0  0  0  0  0  0  0  0  0  0  0  0
   -3.8920    1.9730   -0.8080 N   0  0  0  0  0  0  0  0  0  0  0  0
   -5.1950    1.6350   -0.9230 C   0  0  0  0  0  0  0  0  0  0  0  0
   -6.2030    2.5510   -1.5180 C   0  0  0  0  0  0  0  0  0  0  0  0
   -5.5830    0.3940   -0.4660 C   0  0  0  0  0  0  0  0  0  0  0  0
   -4.6610   -0.4560    0.0840 C   0  0  0  0  0  0  0  0  0  0  0  0
   -3.3730   -0.0430    0.1630 N   0  0  0  0  0  0  0  0  0  0  0  0
   -4.8770   -1.8290    0.6320 C   0  0  0  0  0  0  0  0  0  0  0  0
   -5.4490   -2.7150   -0.4760 C   0  0  0  0  0  0  0  0  0  0  0  0
   -6.9050   -2.3920   -0.7040 C   0  0  0  0  0  0  0  0  0  0  0  0
   -7.1130   -1.1410   -1.5110 C   0  0  0  0  0  0  0  0  0  0  0  0
   -7.0370    0.1180   -0.6390 C   0  0  0  0  0  0  0  0  0  0  0  0
    3.6320   -1.0090    1.9780 O   0  0  0  0  0  0  0  0  0  0  0  0
    4.9070   -0.8350    2.5290 C   0  0  1  0  0  0  0  0  0  0  0  0
    5.9110   -1.8280    2.0070 C   0  0  0  0  0  0  0  0  0  0  0  0
    6.0930   -1.7570    0.5900 N   0  0  0  0  0  0  0  0  0  0  0  0
    5.3220   -2.5160   -0.3900 C   0  0  0  0  0  0  0  0  0  0  0  0
    5.4560   -1.7200   -1.6610 C   0  0  0  0  0  0  0  0  0  0  0  0
    6.5490   -0.7180   -1.4690 C   0  0  0  0  0  0  0  0  0  0  0  0
    7.0420   -0.9430   -0.0820 C   0  0  0  0  0  0  0  0  0  0  0  0
    8.1230   -0.4650    0.3560 O   0  0  0  0  0  0  0  0  0  0  0  0
    5.4750    0.5380    2.4130 C   0  0  0  0  0  0  0  0  0  0  0  0
    4.9520    1.2500    1.2800 O   0  0  0  0  0  0  0  0  0  0  0  0
  1  2  1  0
  2  3  1  0
  3  4  2  0
  3  8  1  0
  4  5  1  0
  5  6  2  0
  5 34  1  0
  6  7  1  0
  6 24  1  0
  7  8  2  0
  8  9  1  0
  9 10  2  0
  9 11  1  0
 11 12  1  0
 12 13  2  0
 12 18  1  0
 13 14  1  0
 14 15  1  0
 14 16  2  0
 16 17  1  0
 16 23  1  0
 17 18  2  0
 17 19  1  0
 19 20  1  0
 20 21  1  0
 21 22  1  0
 22 23  1  0
 24 25  1  0
 25 26  1  6
 25 33  1  0
 26 27  1  0
 27 28  1  0
 27 31  1  0
 28 29  1  0
 29 30  1  0
 30 31  1  0
 31 32  2  0
 33 34  1  0
M  END
