
     RDKit          3D

 34 37  0  0  0  0  0  0  0  0999 V2000
   -6.9670    2.6650    1.5590 C   0  0  0  0  0  0  0  0  0  0  0  0
   -7.6440    1.3510    1.8880 C   0  0  0  0  0  0  0  0  0  0  0  0
   -7.6120    0.5290    0.7660 O   0  0  0  0  0  0  0  0  0  0  0  0
   -6.4300    0.0900    0.2060 C   0  0  0  0  0  0  0  0  0  0  0  0
   -6.4560   -0.7220   -0.9380 C   0  0  0  0  0  0  0  0  0  0  0  0
   -5.3380   -1.2020   -1.5570 C   0  0  0  0  0  0  0  0  0  0  0  0
   -5.4080   -2.0100   -2.6970 O   0  0  0  0  0  0  0  0  0  0  0  0
   -6.6880   -2.3220   -3.2020 C   0  0  0  0  0  0  0  0  0  0  0  0
   -4.1110   -0.8670   -1.0230 C   0  0  0  0  0  0  0  0  0  0  0  0
   -4.0010   -0.0830    0.0860 C   0  0  0  0  0  0  0  0  0  0  0  0
   -2.7130    0.2890    0.6680 C   0  0  0  0  0  0  0  0  0  0  0  0
   -1.4710   -0.0850    0.1620 C   0  0  0  0  0  0  0  0  0  0  0  0
   -0.4820    0.4490    0.9570 C   0  0  0  0  0  0  0  0  0  0  0  0
    0.9860    0.3190    0.8080 C   0  0  0  0  0  0  0  0  0  0  0  0
    1.3000   -0.4760   -0.3450 N   0  0  2  0  0  0  0  0  0  0  0  0
    1.4100   -1.8770   -0.0120 C   0  0  0  0  0  0  0  0  0  0  0  0
    2.3440   -2.3860   -1.1140 C   0  0  0  0  0  0  0  0  0  0  0  0
    3.3840   -1.3160   -1.0250 C   0  0  0  0  0  0  0  0  0  0  0  0
    4.6880   -1.3880   -1.0370 C   0  0  0  0  0  0  0  0  0  0  0  0
    5.6080   -0.2680   -0.9440 C   0  0  0  0  0  0  0  0  0  0  0  0
    5.4260    0.9310   -1.5840 C   0  0  0  0  0  0  0  0  0  0  0  0
    6.2830    2.0110   -1.4980 C   0  0  0  0  0  0  0  0  0  0  0  0
    7.4070    1.8820   -0.7140 C   0  0  0  0  0  0  0  0  0  0  0  0
    8.3000    2.9250   -0.5880 O   0  0  0  0  0  0  0  0  0  0  0  0
    7.6240    0.6880   -0.0540 C   0  0  0  0  0  0  0  0  0  0  0  0
    6.7580   -0.3760   -0.1520 C   0  0  0  0  0  0  0  0  0  0  0  0
    6.9850   -1.5890    0.5220 O   0  0  0  0  0  0  0  0  0  0  0  0
    8.0950   -1.8190    1.3410 C   0  0  0  0  0  0  0  0  0  0  0  0
    2.5850   -0.0760   -0.8980 C   0  0  0  0  0  0  0  0  0  0  0  0
   -1.1640    1.1510    1.9510 C   0  0  0  0  0  0  0  0  0  0  0  0
   -0.4890    1.8760    3.0140 C   0  0  0  0  0  0  0  0  0  0  0  0
    0.7570    1.9330    3.1290 O   0  0  0  0  0  0  0  0  0  0  0  0
   -2.4850    1.0350    1.7490 N   0  0  0  0  0  0  0  0  0  0  0  0
   -5.1730    0.3800    0.6790 C   0  0  0  0  0  0  0  0  0  0  0  0
  1  2  1  0
  2  3  1  0
  3  4  1  0
  4  5  2  0
  4 34  1  0
  5  6  1  0
  6  7  1  0
  6  9  2  0
  7  8  1  0
  9 10  1  0
 10 11  1  0
 10 34  2  0
 11 12  2  0
 11 33  1  0
 12 13  1  0
 13 14  1  0
 13 30  2  0
 15 14  1  1
 15 16  1  0
 15 29  1  0
 16 17  1  0
 17 18  1  0
 18 19  2  3
 18 29  1  0
 19 20  1  0
 20 21  2  0
 20 26  1  0
 21 22  1  0
 22 23  2  0
 23 24  1  0
 23 25  1  0
 25 26  2  0
 26 27  1  0
 27 28  1  0
 30 31  1  0
 30 33  1  0
 31 32  2  0
M  CHG  1  15   1
M  END
