
     RDKit          3D

 34 37  0  0  0  0  0  0  0  0999 V2000
    1.1040    6.0540   -1.0960 C   0  0  0  0  0  0  0  0  0  0  0  0
    1.0260    5.4460    0.2890 C   0  0  0  0  0  0  0  0  0  0  0  0
    1.5760    4.0740    0.2430 C   0  0  0  0  0  0  0  0  0  0  0  0
    2.9190    3.8550    0.4690 C   0  0  0  0  0  0  0  0  0  0  0  0
    3.3710    2.5540    0.4120 C   0  0  0  0  0  0  0  0  0  0  0  0
    2.5190    1.4740    0.1360 C   0  0  0  0  0  0  0  0  0  0  0  0
    1.2040    1.7070   -0.0840 C   0  0  0  0  0  0  0  0  0  0  0  0
    0.7380    3.0110   -0.0290 C   0  0  0  0  0  0  0  0  0  0  0  0
    0.5560    0.4780   -0.3390 N   0  0  0  0  0  0  0  0  0  0  0  0
   -0.8300    0.2670   -0.6190 C   0  0  0  0  0  0  0  0  0  0  0  0
   -1.6950    0.7050    0.4610 N   0  0  0  0  0  0  0  0  0  0  0  0
   -2.8550    1.4220   -0.0310 C   0  0  2  0  0  0  0  0  0  0  0  0
   -3.4370    2.2280    1.0710 C   0  0  0  0  0  0  0  0  0  0  0  0
   -3.7780    0.6040   -0.8420 C   0  0  0  0  0  0  0  0  0  0  0  0
   -4.3940   -0.5950   -0.2330 C   0  0  2  0  0  0  0  0  0  0  0  0
   -5.2440   -0.3350    0.9890 C   0  0  0  0  0  0  0  0  0  0  0  0
   -5.8330   -1.6410    1.5210 C   0  0  0  0  0  0  0  0  0  0  0  0
   -6.6000   -1.2840    2.6480 O   0  0  0  0  0  0  0  0  0  0  0  0
   -3.4920   -1.5930    0.0890 O   0  0  0  0  0  0  0  0  0  0  0  0
   -3.7700   -2.7070   -0.6850 C   0  0  0  0  0  0  0  0  0  0  0  0
   -4.5570   -2.1410   -1.8280 C   0  0  0  0  0  0  0  0  0  0  0  0
   -5.2710   -1.1270   -1.1980 O   0  0  0  0  0  0  0  0  0  0  0  0
    1.5990   -0.5380   -0.2540 C   0  0  0  0  0  0  0  0  0  0  0  0
    1.4340   -1.8160   -0.4170 C   0  0  0  0  0  0  0  0  0  0  0  0
    2.3360   -2.8890   -0.3700 C   0  0  0  0  0  0  0  0  0  0  0  0
    1.7210   -4.0670   -0.4930 O   0  0  0  0  0  0  0  0  0  0  0  0
    3.7630   -2.9870   -0.2170 C   0  0  0  0  0  0  0  0  0  0  0  0
    4.2670   -4.2150    0.2500 C   0  0  0  0  0  0  0  0  0  0  0  0
    5.6120   -4.4790    0.3700 C   0  0  0  0  0  0  0  0  0  0  0  0
    6.5250   -3.5270    0.0270 C   0  0  0  0  0  0  0  0  0  0  0  0
    7.9730   -3.8140    0.1580 C   0  0  0  0  0  0  0  0  0  0  0  0
    6.0770   -2.3330   -0.4280 C   0  0  0  0  0  0  0  0  0  0  0  0
    4.7070   -2.0540   -0.5550 C   0  0  0  0  0  0  0  0  0  0  0  0
    2.7550    0.1360    0.0340 O   0  0  0  0  0  0  0  0  0  0  0  0
  1  2  1  0
  2  3  1  0
  3  4  2  0
  3  8  1  0
  4  5  1  0
  5  6  2  0
  6  7  1  0
  6 34  1  0
  7  8  2  0
  7  9  1  0
  9 10  1  0
  9 23  1  0
 10 11  1  0
 11 12  1  0
 12 13  1  1
 12 14  1  0
 15 14  1  6
 15 16  1  0
 15 19  1  0
 15 22  1  0
 16 17  1  0
 17 18  1  0
 19 20  1  0
 20 21  1  0
 21 22  1  0
 23 24  2  3
 23 34  1  0
 24 25  1  0
 25 26  2  0
 25 27  1  0
 27 28  2  0
 27 33  1  0
 28 29  1  0
 29 30  2  0
 30 31  1  0
 30 32  1  0
 32 33  2  0
M  CHG  1  11   1
M  END
