
     RDKit          3D

 35 39  0  0  0  0  0  0  0  0999 V2000
   -7.7200   -1.9840    0.6960 C   0  0  0  0  0  0  0  0  0  0  0  0
   -6.4150   -1.3310    0.9490 C   0  0  0  0  0  0  0  0  0  0  0  0
   -5.3620   -1.5500    0.0900 C   0  0  0  0  0  0  0  0  0  0  0  0
   -4.1220   -0.9470    0.3050 C   0  0  0  0  0  0  0  0  0  0  0  0
   -2.9450   -0.9720   -0.3420 N   0  0  0  0  0  0  0  0  0  0  0  0
   -2.1020   -0.1840    0.3440 C   0  0  0  0  0  0  0  0  0  0  0  0
   -0.6750    0.1390    0.0540 C   0  0  1  0  0  0  0  0  0  0  0  0
   -0.1320   -1.0280   -0.7020 C   0  0  0  0  0  0  0  0  0  0  0  0
    1.2650   -0.9070   -1.0910 N   0  0  0  0  0  0  0  0  0  0  0  0
    2.3000   -0.7540   -0.1360 C   0  0  0  0  0  0  0  0  0  0  0  0
    1.9000   -0.7440    1.0780 O   0  0  0  0  0  0  0  0  0  0  0  0
    3.7220   -0.6140   -0.3620 C   0  0  0  0  0  0  0  0  0  0  0  0
    4.3250   -0.2690   -1.5410 C   0  0  0  0  0  0  0  0  0  0  0  0
    3.3800    0.1560   -2.9370 Cl  0  0  0  0  0  0  0  0  0  0  0  0
    5.7170   -0.2360   -1.5800 C   0  0  0  0  0  0  0  0  0  0  0  0
    6.5220   -0.5230   -0.5200 C   0  0  0  0  0  0  0  0  0  0  0  0
    7.9470   -0.4810   -0.5860 N   0  0  0  0  0  0  0  0  0  0  0  0
    8.8240   -0.2930    0.4170 C   0  0  0  0  0  0  0  0  0  0  0  0
   10.0750   -0.3170   -0.0280 N   0  0  0  0  0  0  0  0  0  0  0  0
    9.9920   -0.5250   -1.3470 N   0  0  0  0  0  0  0  0  0  0  0  0
    8.7010   -0.6270   -1.6990 C   0  0  0  0  0  0  0  0  0  0  0  0
    5.8960   -0.8680    0.6640 C   0  0  0  0  0  0  0  0  0  0  0  0
    4.5300   -0.9150    0.7480 C   0  0  0  0  0  0  0  0  0  0  0  0
    3.8080   -1.3710    2.3010 Cl  0  0  0  0  0  0  0  0  0  0  0  0
   -0.5140    1.3760   -0.7280 C   0  0  0  0  0  0  0  0  0  0  0  0
   -0.4360    1.4520   -2.0810 C   0  0  0  0  0  0  0  0  0  0  0  0
   -0.2860    2.7000   -2.6850 C   0  0  0  0  0  0  0  0  0  0  0  0
   -0.2150    3.8690   -1.9550 C   0  0  0  0  0  0  0  0  0  0  0  0
   -0.2950    3.7760   -0.5940 C   0  0  0  0  0  0  0  0  0  0  0  0
   -0.4410    2.5690    0.0080 C   0  0  0  0  0  0  0  0  0  0  0  0
   -2.7440    0.3290    1.4080 N   0  0  0  0  0  0  0  0  0  0  0  0
   -4.0060   -0.1310    1.4100 C   0  0  0  0  0  0  0  0  0  0  0  0
   -5.0690    0.0870    2.2720 C   0  0  0  0  0  0  0  0  0  0  0  0
   -6.2880   -0.5150    2.0480 C   0  0  0  0  0  0  0  0  0  0  0  0
   -7.4290   -0.3000    2.9470 C   0  0  0  0  0  0  0  0  0  0  0  0
  1  2  1  0
  2  3  2  0
  2 34  1  0
  3  4  1  0
  4  5  1  0
  4 32  2  0
  5  6  2  0
  6  7  1  0
  6 31  1  0
  7  8  1  6
  7 25  1  0
  8  9  1  0
  9 10  1  0
 10 11  2  0
 10 12  1  0
 12 13  2  0
 12 23  1  0
 13 14  1  0
 13 15  1  0
 15 16  2  0
 16 17  1  0
 16 22  1  0
 17 18  1  0
 17 21  1  0
 18 19  2  0
 19 20  1  0
 20 21  2  0
 22 23  2  0
 23 24  1  0
 25 26  2  0
 25 30  1  0
 26 27  1  0
 27 28  2  0
 28 29  1  0
 29 30  2  0
 31 32  1  0
 32 33  1  0
 33 34  2  0
 34 35  1  0
M  END
