
     RDKit          3D

 34 37  0  0  0  0  0  0  0  0999 V2000
   -8.8750   -1.3240    1.0250 C   0  0  0  0  0  0  0  0  0  0  0  0
   -8.9060   -1.0210   -0.2420 C   0  0  0  0  0  0  0  0  0  0  0  0
   -8.1570    0.1630   -0.7720 C   0  0  0  0  0  0  0  0  0  0  0  0
   -7.2330   -0.2800   -1.8030 N   0  0  0  0  0  0  0  0  0  0  0  0
   -6.2070   -1.1400   -1.3790 C   0  0  0  0  0  0  0  0  0  0  0  0
   -5.4060   -0.8470   -0.2070 C   0  0  0  0  0  0  0  0  0  0  0  0
   -4.4970    0.2960   -0.1440 C   0  0  0  0  0  0  0  0  0  0  0  0
   -3.1550    0.0820   -0.0320 C   0  0  0  0  0  0  0  0  0  0  0  0
   -2.1070   -0.9540    0.0600 C   0  0  0  0  0  0  0  0  0  0  0  0
   -2.3290   -2.1880    0.0130 O   0  0  0  0  0  0  0  0  0  0  0  0
   -0.8030   -0.3330    0.2110 C   0  0  0  0  0  0  0  0  0  0  0  0
    0.4820   -0.8750    0.3320 C   0  0  0  0  0  0  0  0  0  0  0  0
    1.5860   -0.0840    0.4610 C   0  0  0  0  0  0  0  0  0  0  0  0
    2.8770   -0.6070    0.6010 N   0  0  0  0  0  0  0  0  0  0  0  0
    3.2280   -1.9170    0.9640 C   0  0  0  0  0  0  0  0  0  0  0  0
    2.3460   -2.7610    1.2130 O   0  0  0  0  0  0  0  0  0  0  0  0
    4.6350   -2.3410    1.0680 C   0  0  0  0  0  0  0  0  0  0  0  0
    5.5410   -1.3370    0.6910 O   0  0  0  0  0  0  0  0  0  0  0  0
    6.9210   -1.4730    0.6920 C   0  0  0  0  0  0  0  0  0  0  0  0
    7.3940   -2.5760    1.0620 O   0  0  0  0  0  0  0  0  0  0  0  0
    7.8110   -0.3860    0.2760 C   0  0  0  0  0  0  0  0  0  0  0  0
    7.4720    0.8070   -0.1330 O   0  0  0  0  0  0  0  0  0  0  0  0
    8.5360    1.5220   -0.4260 C   0  0  0  0  0  0  0  0  0  0  0  0
    8.5560    2.9390   -0.9280 C   0  0  0  0  0  0  0  0  0  0  0  0
    9.6630    0.7690   -0.2010 C   0  0  0  0  0  0  0  0  0  0  0  0
    9.1830   -0.4690    0.2540 C   0  0  0  0  0  0  0  0  0  0  0  0
   10.0360   -1.6260    0.6350 C   0  0  0  0  0  0  0  0  0  0  0  0
    1.3760    1.2960    0.4640 C   0  0  0  0  0  0  0  0  0  0  0  0
    0.1120    1.8350    0.3450 C   0  0  0  0  0  0  0  0  0  0  0  0
   -0.9980    1.0270    0.2160 C   0  0  0  0  0  0  0  0  0  0  0  0
   -2.4450    1.3310    0.0700 C   0  0  0  0  0  0  0  0  0  0  0  0
   -3.3110    2.3090    0.0180 C   0  0  0  0  0  0  0  0  0  0  0  0
   -4.6620    1.7450   -0.1270 C   0  0  1  0  0  0  0  0  0  0  0  0
   -5.3420    2.3620   -1.3340 C   0  0  0  0  0  0  0  0  0  0  0  0
  1  2  2  0
  2  3  1  0
  3  4  1  0
  4  5  1  0
  5  6  1  0
  6  7  1  0
  7  8  2  0
  7 33  1  0
  8  9  1  0
  8 31  1  0
  9 10  2  0
  9 11  1  0
 11 12  2  0
 11 30  1  0
 12 13  1  0
 13 14  1  0
 13 28  2  0
 14 15  1  0
 15 16  2  0
 15 17  1  0
 17 18  1  0
 18 19  1  0
 19 20  2  0
 19 21  1  0
 21 22  1  0
 21 26  2  0
 22 23  1  0
 23 24  1  0
 23 25  2  0
 25 26  1  0
 26 27  1  0
 28 29  1  0
 29 30  2  0
 30 31  1  0
 31 32  2  0
 32 33  1  0
 33 34  1  6
M  CHG  1   4   1
M  END
