
     RDKit          3D

 35 39  0  0  0  0  0  0  0  0999 V2000
   -4.6440   -1.4410    2.7430 O   0  0  0  0  0  0  0  0  0  0  0  0
   -3.9090   -0.9080    1.9070 C   0  0  0  0  0  0  0  0  0  0  0  0
   -4.3620   -0.9310    0.6180 O   0  0  0  0  0  0  0  0  0  0  0  0
   -5.5600   -1.4950    0.1740 C   0  0  2  0  0  0  0  0  0  0  0  0
   -5.2560   -2.6590   -0.7190 C   0  0  0  0  0  0  0  0  0  0  0  0
   -5.5640   -2.4000   -2.1670 C   0  0  0  0  0  0  0  0  0  0  0  0
   -5.3280   -0.9660   -2.5740 C   0  0  0  0  0  0  0  0  0  0  0  0
   -6.1050    0.0110   -1.7650 C   0  0  1  0  0  0  0  0  0  0  0  0
   -7.2620    0.4810   -2.5750 C   0  0  0  0  0  0  0  0  0  0  0  0
   -7.4990    0.1140   -3.6970 O   0  0  0  0  0  0  0  0  0  0  0  0
   -8.0940    1.3880   -1.9800 F   0  0  0  0  0  0  0  0  0  0  0  0
   -6.5420   -0.5390   -0.4270 C   0  0  0  0  0  0  0  0  0  0  0  0
   -2.6380   -0.3000    2.3190 C   0  0  0  0  0  0  0  0  0  0  0  0
   -2.2910   -0.3300    3.6530 C   0  0  0  0  0  0  0  0  0  0  0  0
   -1.1270    0.2030    4.1560 C   0  0  0  0  0  0  0  0  0  0  0  0
   -0.2710    0.7980    3.2450 C   0  0  0  0  0  0  0  0  0  0  0  0
   -0.5880    0.8440    1.9040 C   0  0  0  0  0  0  0  0  0  0  0  0
    0.2530    1.4420    0.9240 N   0  0  0  0  0  0  0  0  0  0  0  0
    0.0360    1.4980   -0.5020 C   0  0  0  0  0  0  0  0  0  0  0  0
    1.4190    1.8190   -1.0200 C   0  0  0  0  0  0  0  0  0  0  0  0
    1.7030    2.2040   -2.1690 O   0  0  0  0  0  0  0  0  0  0  0  0
    2.3080    1.5990    0.0510 N   0  0  0  0  0  0  0  0  0  0  0  0
    3.5960    1.1140    0.1750 C   0  0  0  0  0  0  0  0  0  0  0  0
    4.1070    1.2200    1.3740 O   0  0  0  0  0  0  0  0  0  0  0  0
    4.4490    0.5110   -0.8240 C   0  0  0  0  0  0  0  0  0  0  0  0
    4.1870    0.2110   -2.0980 N   0  0  0  0  0  0  0  0  0  0  0  0
    5.2900   -0.3150   -2.6760 N   0  0  0  0  0  0  0  0  0  0  0  0
    6.2580   -0.3560   -1.7800 C   0  0  0  0  0  0  0  0  0  0  0  0
    5.7750    0.1520   -0.6060 C   0  0  0  0  0  0  0  0  0  0  0  0
    6.6900    0.2050    0.5410 C   0  0  0  0  0  0  0  0  0  0  0  0
    7.9540    0.9140    0.0670 C   0  0  0  0  0  0  0  0  0  0  0  0
    8.5690    0.2190   -1.1010 C   0  0  0  0  0  0  0  0  0  0  0  0
    7.6940   -0.8070   -1.7590 C   0  0  0  0  0  0  0  0  0  0  0  0
    1.5030    2.1130    1.2100 C   0  0  0  0  0  0  0  0  0  0  0  0
   -1.7800    0.2900    1.4470 C   0  0  0  0  0  0  0  0  0  0  0  0
  1  2  2  0
  2  3  1  0
  2 13  1  0
  4  3  1  6
  4  5  1  0
  4 12  1  0
  5  6  1  0
  6  7  1  0
  7  8  1  0
  8  9  1  6
  8 12  1  0
  9 10  2  0
  9 11  1  0
 13 14  2  0
 13 35  1  0
 14 15  1  0
 15 16  2  0
 16 17  1  0
 17 18  1  0
 17 35  2  0
 18 19  1  0
 18 34  1  0
 19 20  1  0
 20 21  2  0
 20 22  1  0
 22 23  1  0
 22 34  1  0
 23 24  2  0
 23 25  1  0
 25 26  1  0
 25 29  2  0
 26 27  1  0
 27 28  2  0
 28 29  1  0
 28 33  1  0
 29 30  1  0
 30 31  1  0
 31 32  1  0
 32 33  1  0
M  END
