
     RDKit          3D

 28 31  0  0  0  0  0  0  0  0999 V2000
   -5.3560   -3.1340   -1.1000 C   0  0  0  0  0  0  0  0  0  0  0  0
   -3.9470   -2.6030   -1.2530 C   0  0  0  0  0  0  0  0  0  0  0  0
   -3.9770   -1.1680   -1.4710 N   0  0  0  0  0  0  0  0  0  0  0  0
   -3.5800   -0.5200   -0.2730 C   0  0  0  0  0  0  0  0  0  0  0  0
   -2.3170    0.2930   -0.3850 C   0  0  2  0  0  0  0  0  0  0  0  0
   -1.1420   -0.5290   -0.7850 C   0  0  0  0  0  0  0  0  0  0  0  0
    0.1300    0.0640   -0.4510 N   0  0  0  0  0  0  0  0  0  0  0  0
    1.3560   -0.6410   -0.4680 C   0  0  0  0  0  0  0  0  0  0  0  0
    1.5540   -1.9530   -0.7840 N   0  0  0  0  0  0  0  0  0  0  0  0
    2.8440   -2.2260   -0.6780 N   0  0  0  0  0  0  0  0  0  0  0  0
    3.4880   -1.1260   -0.3010 C   0  0  0  0  0  0  0  0  0  0  0  0
    4.9240   -0.9150   -0.0490 C   0  0  0  0  0  0  0  0  0  0  0  0
    5.5090    0.2790    0.3430 C   0  0  0  0  0  0  0  0  0  0  0  0
    6.8700    0.1150    0.4880 C   0  0  0  0  0  0  0  0  0  0  0  0
    7.8800    1.1360    0.8940 C   0  0  0  0  0  0  0  0  0  0  0  0
    7.1140   -1.1610    0.1880 N   0  0  0  0  0  0  0  0  0  0  0  0
    5.9580   -1.8110   -0.1400 C   0  0  0  0  0  0  0  0  0  0  0  0
    5.8770   -3.2400   -0.5250 C   0  0  0  0  0  0  0  0  0  0  0  0
    2.5530   -0.1610   -0.1780 N   0  0  0  0  0  0  0  0  0  0  0  0
    0.1310    1.4590   -0.0800 C   0  0  0  0  0  0  0  0  0  0  0  0
   -0.7490    1.5260    1.1660 C   0  0  0  0  0  0  0  0  0  0  0  0
   -2.1380    1.0940    0.8740 C   0  0  1  0  0  0  0  0  0  0  0  0
   -3.0230    2.2820    0.9160 C   0  0  0  0  0  0  0  0  0  0  0  0
   -3.8990    2.4020    1.8950 C   0  0  0  0  0  0  0  0  0  0  0  0
   -4.8370    3.5370    2.0490 C   0  0  0  0  0  0  0  0  0  0  0  0
   -4.7240    4.5020    1.0490 O   0  0  0  0  0  0  0  0  0  0  0  0
   -3.8180    4.3970    0.0190 C   0  0  0  0  0  0  0  0  0  0  0  0
   -2.9900    3.3480   -0.0730 C   0  0  0  0  0  0  0  0  0  0  0  0
  1  2  1  0
  2  3  1  0
  3  4  1  0
  5  4  1  1
  5  6  1  0
  5 22  1  0
  6  7  1  0
  7  8  1  0
  7 20  1  0
  8  9  2  0
  8 19  1  0
  9 10  1  0
 10 11  1  0
 11 12  1  0
 11 19  2  0
 12 13  1  0
 12 17  2  0
 13 14  2  0
 14 15  1  0
 14 16  1  0
 16 17  1  0
 17 18  1  0
 20 21  1  0
 21 22  1  0
 22 23  1  6
 23 24  2  0
 23 28  1  0
 24 25  1  0
 25 26  1  0
 26 27  1  0
 27 28  2  0
M  CHG  1   3   1
M  END
