
     RDKit          3D

 29 32  0  0  0  0  0  0  0  0999 V2000
    1.2330    0.2990    1.3560 C   0  0  0  0  0  0  0  0  0  0  0  0
    0.5030    0.1190    0.1190 N   0  0  0  0  0  0  0  0  0  0  0  0
    1.2250   -0.1200   -1.0580 C   0  0  0  0  0  0  0  0  0  0  0  0
    2.5440    0.3130   -1.2720 N   0  0  0  0  0  0  0  0  0  0  0  0
    3.7050   -0.1500   -0.5860 C   0  0  0  0  0  0  0  0  0  0  0  0
    3.5760   -1.0150    0.2740 O   0  0  0  0  0  0  0  0  0  0  0  0
    4.9470    0.4110   -0.9300 N   0  0  0  0  0  0  0  0  0  0  0  0
    6.1510    0.0290   -0.3080 C   0  0  0  0  0  0  0  0  0  0  0  0
    7.3480    0.5110   -0.8660 C   0  0  0  0  0  0  0  0  0  0  0  0
    8.5870    0.2210   -0.3470 C   0  0  0  0  0  0  0  0  0  0  0  0
    8.7090   -0.5740    0.7700 C   0  0  0  0  0  0  0  0  0  0  0  0
    7.5640   -1.0560    1.3350 C   0  0  0  0  0  0  0  0  0  0  0  0
    6.3150   -0.7530    0.7970 C   0  0  0  0  0  0  0  0  0  0  0  0
    0.5840   -0.7840   -2.0140 C   0  0  0  0  0  0  0  0  0  0  0  0
   -0.7790   -1.1990   -1.8210 C   0  0  0  0  0  0  0  0  0  0  0  0
   -1.5150   -0.9310   -0.7180 C   0  0  0  0  0  0  0  0  0  0  0  0
   -2.8420   -1.4380   -0.6240 C   0  0  0  0  0  0  0  0  0  0  0  0
   -3.6560   -1.4070    0.3420 N   0  0  0  0  0  0  0  0  0  0  0  0
   -3.3100   -0.8250    1.5330 O   0  0  0  0  0  0  0  0  0  0  0  0
   -4.9980   -2.0170    0.2150 C   0  0  0  0  0  0  0  0  0  0  0  0
   -6.0900   -1.0820    0.4200 C   0  0  0  0  0  0  0  0  0  0  0  0
   -5.9370    0.2540    0.6920 C   0  0  0  0  0  0  0  0  0  0  0  0
   -7.0290    1.0950    0.8780 C   0  0  0  0  0  0  0  0  0  0  0  0
   -8.2700    0.5950    0.7910 N   0  0  0  0  0  0  0  0  0  0  0  0
   -8.4110   -0.7160    0.5250 C   0  0  0  0  0  0  0  0  0  0  0  0
   -7.3600   -1.5340    0.3440 N   0  0  0  0  0  0  0  0  0  0  0  0
   -0.9630    0.1930    0.0880 C   0  0  0  0  0  0  0  0  0  0  0  0
   -1.6640    1.2640    0.7440 C   0  0  0  0  0  0  0  0  0  0  0  0
   -1.2930    1.5220   -0.7130 C   0  0  0  0  0  0  0  0  0  0  0  0
  1  2  1  0
  2  3  1  0
  2 27  1  0
  3  4  1  0
  3 14  2  0
  4  5  1  0
  5  6  2  0
  5  7  1  0
  7  8  1  0
  8  9  2  0
  8 13  1  0
  9 10  1  0
 10 11  2  0
 11 12  1  0
 12 13  2  0
 14 15  1  0
 15 16  2  0
 16 17  1  0
 16 27  1  0
 17 18  2  3
 18 19  1  0
 18 20  1  0
 20 21  1  0
 21 22  2  0
 21 26  1  0
 22 23  1  0
 23 24  2  0
 24 25  1  0
 25 26  2  0
 27 28  1  0
 27 29  1  0
 28 29  1  0
M  CHG  3  18   1  19  -1  24   1
M  END
