
     RDKit          3D

 29 31  0  0  0  0  0  0  0  0999 V2000
    0.3080    1.4780   -3.3620 C   0  0  0  0  0  0  0  0  0  0  0  0
    1.3260    1.1970   -2.2390 C   0  0  2  0  0  0  0  0  0  0  0  0
    1.7450   -0.1690   -2.3060 N   0  0  0  0  0  0  0  0  0  0  0  0
    2.7450   -0.6770   -1.4540 C   0  0  0  0  0  0  0  0  0  0  0  0
    2.9320   -2.0660   -1.3450 C   0  0  0  0  0  0  0  0  0  0  0  0
    3.9080   -2.6040   -0.5380 C   0  0  0  0  0  0  0  0  0  0  0  0
    4.7340   -1.8330    0.1870 N   0  0  0  0  0  0  0  0  0  0  0  0
    4.5830   -0.5020    0.1070 C   0  0  0  0  0  0  0  0  0  0  0  0
    5.4360    0.3460    0.8580 N   0  0  0  0  0  0  0  0  0  0  0  0
    5.2870    1.7720    0.7830 C   0  0  0  0  0  0  0  0  0  0  0  0
    6.4460   -0.2480    1.6920 C   0  0  0  0  0  0  0  0  0  0  0  0
    3.6020    0.0890   -0.7020 C   0  0  0  0  0  0  0  0  0  0  0  0
    0.7140    1.5890   -0.9460 C   0  0  0  0  0  0  0  0  0  0  0  0
    1.1350    2.5210   -0.1150 C   0  0  0  0  0  0  0  0  0  0  0  0
    0.2630    2.5870    1.0190 C   0  0  0  0  0  0  0  0  0  0  0  0
   -0.7000    1.6900    0.8800 N   0  0  0  0  0  0  0  0  0  0  0  0
   -1.6700    1.5360    1.8150 O   0  0  0  0  0  0  0  0  0  0  0  0
   -0.5240    0.9870   -0.3350 C   0  0  0  0  0  0  0  0  0  0  0  0
   -1.1610    0.0340   -0.9480 C   0  0  0  0  0  0  0  0  0  0  0  0
   -2.3240   -0.7140   -0.6360 C   0  0  0  0  0  0  0  0  0  0  0  0
   -2.6850   -1.6410   -1.5440 O   0  0  0  0  0  0  0  0  0  0  0  0
   -3.2130   -0.7170    0.4240 N   0  0  0  0  0  0  0  0  0  0  0  0
   -4.3730   -1.6250    0.5000 C   0  0  1  0  0  0  0  0  0  0  0  0
   -4.1600   -2.4380    1.7830 C   0  0  0  0  0  0  0  0  0  0  0  0
   -5.6020   -0.8000    0.6100 C   0  0  0  0  0  0  0  0  0  0  0  0
   -5.8040    0.2960    1.4200 C   0  0  0  0  0  0  0  0  0  0  0  0
   -7.1000    0.7810    1.2190 C   0  0  0  0  0  0  0  0  0  0  0  0
   -7.6510   -0.0520    0.2760 C   0  0  0  0  0  0  0  0  0  0  0  0
   -6.7460   -0.9840   -0.0720 N   0  0  0  0  0  0  0  0  0  0  0  0
  2  1  1  6
  2  3  1  0
  2 13  1  0
  3  4  1  0
  4  5  2  0
  4 12  1  0
  5  6  1  0
  6  7  2  0
  7  8  1  0
  8  9  1  0
  8 12  2  0
  9 10  1  0
  9 11  1  0
 13 14  2  0
 13 18  1  0
 14 15  1  0
 15 16  2  0
 16 17  1  0
 16 18  1  0
 18 19  2  3
 19 20  1  0
 20 21  2  0
 20 22  1  0
 22 23  1  0
 23 24  1  1
 23 25  1  0
 25 26  2  0
 25 29  1  0
 26 27  1  0
 27 28  2  0
 28 29  1  0
M  CHG  3   7   1  16   1  17  -1
M  END
