
     RDKit          3D

 29 32  0  0  0  0  0  0  0  0999 V2000
   -7.5820    0.8560   -1.1360 C   0  0  0  0  0  0  0  0  0  0  0  0
   -6.3040    0.1320   -1.1650 N   0  0  0  0  0  0  0  0  0  0  0  0
   -5.7450    0.1970    0.1500 C   0  0  1  0  0  0  0  0  0  0  0  0
   -6.2980   -0.8560    1.0850 C   0  0  0  0  0  0  0  0  0  0  0  0
   -5.1910   -1.2210    2.0340 C   0  0  0  0  0  0  0  0  0  0  0  0
   -4.0250   -0.3050    1.6640 C   0  0  0  0  0  0  0  0  0  0  0  0
   -4.2630   -0.0930    0.1860 C   0  0  2  0  0  0  0  0  0  0  0  0
   -3.4710    1.0820   -0.3460 C   0  0  0  0  0  0  0  0  0  0  0  0
   -2.0110    0.8110   -0.3160 C   0  0  0  0  0  0  0  0  0  0  0  0
   -1.1700    1.0950    0.7350 C   0  0  0  0  0  0  0  0  0  0  0  0
    0.1150    0.6850    0.3570 C   0  0  0  0  0  0  0  0  0  0  0  0
   -0.0380    0.1750   -0.9110 C   0  0  0  0  0  0  0  0  0  0  0  0
    0.9590   -0.4020   -1.8040 C   0  0  0  0  0  0  0  0  0  0  0  0
    2.3230   -0.6160   -1.1720 C   0  0  0  0  0  0  0  0  0  0  0  0
    2.2870   -1.5940   -0.0600 C   0  0  0  0  0  0  0  0  0  0  0  0
    3.5800   -1.8360    0.6900 C   0  0  0  0  0  0  0  0  0  0  0  0
    4.1230   -0.6590    1.2670 N   0  0  0  0  0  0  0  0  0  0  0  0
    3.6320   -0.1280    2.4430 C   0  0  0  0  0  0  0  0  0  0  0  0
    4.2530    0.9980    2.7150 N   0  0  0  0  0  0  0  0  0  0  0  0
    5.1560    1.2360    1.7420 C   0  0  0  0  0  0  0  0  0  0  0  0
    6.0200    2.2200    1.5550 N   0  0  0  0  0  0  0  0  0  0  0  0
    6.8380    2.2630    0.5140 C   0  0  0  0  0  0  0  0  0  0  0  0
    6.7710    1.2680   -0.3630 N   0  0  0  0  0  0  0  0  0  0  0  0
    5.9170    0.2120   -0.2580 C   0  0  0  0  0  0  0  0  0  0  0  0
    5.9530   -0.7050   -1.1320 N   0  0  0  0  0  0  0  0  0  0  0  0
    6.9580   -0.5350   -2.2290 C   0  0  0  0  0  0  0  0  0  0  0  0
    5.2670   -1.8170   -1.2550 O   0  0  0  0  0  0  0  0  0  0  0  0
    5.0660    0.1830    0.8360 C   0  0  0  0  0  0  0  0  0  0  0  0
   -1.3190    0.2710   -1.2680 O   0  0  0  0  0  0  0  0  0  0  0  0
  1  2  1  0
  3  2  1  6
  3  4  1  0
  3  7  1  0
  4  5  1  0
  5  6  1  0
  6  7  1  0
  7  8  1  1
  8  9  1  0
  9 10  2  0
  9 29  1  0
 10 11  1  0
 11 12  2  0
 12 13  1  0
 12 29  1  0
 13 14  1  0
 14 15  1  0
 15 16  1  0
 16 17  1  0
 17 18  1  0
 17 28  1  0
 18 19  2  0
 19 20  1  0
 20 21  1  0
 20 28  2  0
 21 22  2  0
 22 23  1  0
 23 24  1  0
 24 25  2  3
 24 28  1  0
 25 26  1  0
 25 27  1  0
M  CHG  3   2   1  25   1  27  -1
M  END
