
     RDKit          3D

 28 30  0  0  0  0  0  0  0  0999 V2000
    8.8140    0.0670   -1.7370 C   0  0  0  0  0  0  0  0  0  0  0  0
    7.6250    0.1780   -0.7400 C   0  0  0  0  0  0  0  0  0  0  0  0
    6.5320    0.8210   -1.5130 C   0  0  0  0  0  0  0  0  0  0  0  0
    5.3190    1.1480   -0.9620 N   0  0  0  0  0  0  0  0  0  0  0  0
    4.3270    0.3050   -0.4980 C   0  0  1  0  0  0  0  0  0  0  0  0
    4.6700   -0.4820    0.7340 C   0  0  0  0  0  0  0  0  0  0  0  0
    3.7480   -1.6810    0.8890 C   0  0  0  0  0  0  0  0  0  0  0  0
    2.8260   -1.4440    2.0490 C   0  0  0  0  0  0  0  0  0  0  0  0
    2.3130   -0.0330    2.0420 C   0  0  0  0  0  0  0  0  0  0  0  0
    2.1600    0.4760    0.6970 N   0  0  0  0  0  0  0  0  0  0  0  0
    0.8630    0.2590    0.1610 C   0  0  0  0  0  0  0  0  0  0  0  0
    0.6750   -0.7120   -0.6490 N   0  0  0  0  0  0  0  0  0  0  0  0
   -0.5870   -1.0110   -1.2370 C   0  0  0  0  0  0  0  0  0  0  0  0
   -0.7030   -1.9710   -2.0180 O   0  0  0  0  0  0  0  0  0  0  0  0
   -1.7230   -0.1450   -0.8790 C   0  0  0  0  0  0  0  0  0  0  0  0
   -2.8510   -0.4310   -1.4110 N   0  0  0  0  0  0  0  0  0  0  0  0
   -3.9740    0.3460   -1.1200 N   0  0  0  0  0  0  0  0  0  0  0  0
   -5.1590   -0.2990   -0.6330 C   0  0  0  0  0  0  0  0  0  0  0  0
   -5.9920   -0.7620   -1.5250 C   0  0  0  0  0  0  0  0  0  0  0  0
   -7.2320   -1.4400   -1.1650 C   0  0  0  0  0  0  0  0  0  0  0  0
   -7.7470   -0.9300    0.1430 C   0  0  0  0  0  0  0  0  0  0  0  0
   -6.6920   -0.9860    1.2110 C   0  0  0  0  0  0  0  0  0  0  0  0
   -5.3760   -0.4060    0.8070 C   0  0  2  0  0  0  0  0  0  0  0  0
   -5.2770    0.9100    1.4260 N   0  0  0  0  0  0  0  0  0  0  0  0
   -5.8810    1.8650    0.5360 C   0  0  0  0  0  0  0  0  0  0  0  0
   -1.4880    0.9510    0.0420 C   0  0  0  0  0  0  0  0  0  0  0  0
   -0.2580    1.1170    0.5160 C   0  0  0  0  0  0  0  0  0  0  0  0
    3.0990    1.1610   -0.1220 C   0  0  0  0  0  0  0  0  0  0  0  0
  1  2  1  0
  2  3  1  0
  3  4  1  0
  5  4  1  1
  5  6  1  0
  5 28  1  0
  6  7  1  0
  7  8  1  0
  8  9  1  0
  9 10  1  0
 10 11  1  0
 10 28  1  0
 11 12  2  0
 11 27  1  0
 12 13  1  0
 13 14  2  0
 13 15  1  0
 15 16  2  3
 15 26  1  0
 16 17  1  0
 17 18  1  0
 18 19  2  0
 18 23  1  0
 19 20  1  0
 20 21  1  0
 21 22  1  0
 22 23  1  0
 23 24  1  1
 24 25  1  0
 26 27  2  0
M  CHG  1  24   1
M  END
