
     RDKit          3D

 29 33  0  0  0  0  0  0  0  0999 V2000
   -0.3660    1.9620   -0.4480 O   0  0  0  0  0  0  0  0  0  0  0  0
   -1.5870    1.8380   -0.5020 C   0  0  0  0  0  0  0  0  0  0  0  0
   -2.2490    2.9770   -1.0100 O   0  0  0  0  0  0  0  0  0  0  0  0
   -2.3020    0.6570   -0.0960 C   0  0  0  0  0  0  0  0  0  0  0  0
   -1.8530   -0.5270    0.3880 C   0  0  0  0  0  0  0  0  0  0  0  0
   -0.5560   -1.0980    0.6920 C   0  0  0  0  0  0  0  0  0  0  0  0
    0.7070   -0.3770    0.5200 C   0  0  0  0  0  0  0  0  0  0  0  0
    1.8800   -1.3170    0.9560 C   0  0  0  0  0  0  0  0  0  0  0  0
    3.1070   -0.7540    0.8480 O   0  0  0  0  0  0  0  0  0  0  0  0
    3.8800   -0.2830   -0.1630 C   0  0  0  0  0  0  0  0  0  0  0  0
    3.6000   -0.2670   -1.5020 C   0  0  0  0  0  0  0  0  0  0  0  0
    4.4450    0.2320   -2.4810 C   0  0  0  0  0  0  0  0  0  0  0  0
    5.6530    0.7500   -2.0900 C   0  0  0  0  0  0  0  0  0  0  0  0
    6.0100    0.7680   -0.7400 C   0  0  0  0  0  0  0  0  0  0  0  0
    7.2370    1.2980   -0.3740 C   0  0  0  0  0  0  0  0  0  0  0  0
    7.5870    1.3150    0.9580 C   0  0  0  0  0  0  0  0  0  0  0  0
    6.7360    0.8150    1.9200 C   0  0  0  0  0  0  0  0  0  0  0  0
    5.5210    0.2970    1.5080 C   0  0  0  0  0  0  0  0  0  0  0  0
    5.1370    0.2640    0.1740 C   0  0  0  0  0  0  0  0  0  0  0  0
   -3.0140   -1.3330    0.6210 C   0  0  0  0  0  0  0  0  0  0  0  0
   -3.2250   -2.5930    1.0880 C   0  0  0  0  0  0  0  0  0  0  0  0
   -4.5410   -3.0570    1.1770 C   0  0  0  0  0  0  0  0  0  0  0  0
   -5.5980   -2.2520    0.7990 C   0  0  0  0  0  0  0  0  0  0  0  0
   -5.3650   -0.9880    0.3320 C   0  0  0  0  0  0  0  0  0  0  0  0
   -4.0580   -0.5490    0.2520 C   0  0  0  0  0  0  0  0  0  0  0  0
   -3.6810    0.6280   -0.1740 N   0  0  0  0  0  0  0  0  0  0  0  0
   -4.6570    1.5900   -0.5990 C   0  0  0  0  0  0  0  0  0  0  0  0
   -6.0310    1.3360   -0.1220 C   0  0  0  0  0  0  0  0  0  0  0  0
   -6.4470   -0.0920   -0.0820 C   0  0  0  0  0  0  0  0  0  0  0  0
  1  2  2  0
  2  3  1  0
  2  4  1  0
  4  5  2  0
  4 26  1  0
  5  6  1  0
  5 20  1  0
  6  7  1  0
  7  8  1  0
  8  9  1  0
  9 10  1  0
 10 11  2  0
 10 19  1  0
 11 12  1  0
 12 13  2  0
 13 14  1  0
 14 15  2  0
 14 19  1  0
 15 16  1  0
 16 17  2  0
 17 18  1  0
 18 19  2  0
 20 21  2  0
 20 25  1  0
 21 22  1  0
 22 23  2  0
 23 24  1  0
 24 25  2  0
 24 29  1  0
 25 26  1  0
 26 27  1  0
 27 28  1  0
 28 29  1  0
M  END
