
     RDKit          3D

 29 31  0  0  0  0  0  0  0  0999 V2000
   -0.6730    1.2820    1.4410 O   0  0  0  0  0  0  0  0  0  0  0  0
    0.0110    0.8230    0.6310 C   0  0  0  0  0  0  0  0  0  0  0  0
    1.4500    0.8430    0.4340 C   0  0  0  0  0  0  0  0  0  0  0  0
    2.0850   -0.0160   -0.9850 S   0  0  0  0  0  0  0  0  0  0  0  0
    3.8270    0.0960   -1.1390 C   0  0  0  0  0  0  0  0  0  0  0  0
    4.2780   -0.2470   -2.3210 O   0  0  0  0  0  0  0  0  0  0  0  0
    4.7890    0.5110   -0.1660 N   0  0  0  0  0  0  0  0  0  0  0  0
    4.5320    0.8120    1.1920 C   0  0  0  0  0  0  0  0  0  0  0  0
    5.9000    1.0840    1.8210 C   0  0  0  0  0  0  0  0  0  0  0  0
    6.7720    1.4150    0.6670 C   0  0  0  0  0  0  0  0  0  0  0  0
    6.1680    0.7200   -0.4990 C   0  0  1  0  0  0  0  0  0  0  0  0
    6.8280   -0.5830   -0.8390 C   0  0  0  0  0  0  0  0  0  0  0  0
    6.8250   -1.6170    0.2270 C   0  0  0  0  0  0  0  0  0  0  0  0
    7.4960   -2.7440   -0.3070 F   0  0  0  0  0  0  0  0  0  0  0  0
   -0.8340   -0.0600   -0.5910 N   0  0  0  0  0  0  0  0  0  0  0  0
   -2.1070    0.1400   -0.0970 C   0  0  0  0  0  0  0  0  0  0  0  0
   -2.6320    0.7140    0.8250 O   0  0  0  0  0  0  0  0  0  0  0  0
   -3.0810   -0.5960   -1.0050 N   0  0  0  0  0  0  0  0  0  0  0  0
   -4.4040   -0.5550   -0.6150 C   0  0  0  0  0  0  0  0  0  0  0  0
   -4.8600   -1.2920    0.4930 C   0  0  0  0  0  0  0  0  0  0  0  0
   -6.1560   -1.2180    0.9040 C   0  0  0  0  0  0  0  0  0  0  0  0
   -7.0660   -0.4130    0.2450 C   0  0  0  0  0  0  0  0  0  0  0  0
   -6.6380    0.3150   -0.8370 C   0  0  0  0  0  0  0  0  0  0  0  0
   -5.3150    0.2370   -1.2570 C   0  0  0  0  0  0  0  0  0  0  0  0
   -7.5740    1.1450   -1.5250 N   0  0  0  0  0  0  0  0  0  0  0  0
   -8.9150    1.1840   -1.0580 C   0  0  0  0  0  0  0  0  0  0  0  0
   -9.7850    1.7250   -1.7560 O   0  0  0  0  0  0  0  0  0  0  0  0
   -9.3080    0.5950    0.2500 C   0  0  0  0  0  0  0  0  0  0  0  0
   -8.3940   -0.3600    0.6970 O   0  0  0  0  0  0  0  0  0  0  0  0
  1  2  2  0
  2  3  1  0
  2 15  1  0
  3  4  1  0
  4  5  1  0
  5  6  2  0
  5  7  1  0
  7  8  1  0
  7 11  1  0
  8  9  1  0
  9 10  1  0
 10 11  1  0
 11 12  1  1
 12 13  1  0
 13 14  1  0
 15 16  1  0
 16 17  2  0
 16 18  1  0
 18 19  1  0
 19 20  2  0
 19 24  1  0
 20 21  1  0
 21 22  2  0
 22 23  1  0
 22 29  1  0
 23 24  2  0
 23 25  1  0
 25 26  1  0
 26 27  2  0
 26 28  1  0
 28 29  1  0
M  END
