
     RDKit          3D

 29 31  0  0  0  0  0  0  0  0999 V2000
   -0.1460   -4.5240   -0.5710 C   0  0  0  0  0  0  0  0  0  0  0  0
    0.5860   -3.2940   -1.0520 C   0  0  0  0  0  0  0  0  0  0  0  0
    0.1220   -2.0640   -0.9150 C   0  0  0  0  0  0  0  0  0  0  0  0
   -1.1780   -1.7430   -0.2810 C   0  0  0  0  0  0  0  0  0  0  0  0
   -1.8230   -2.6950    0.2280 O   0  0  0  0  0  0  0  0  0  0  0  0
   -1.6750   -0.4230   -0.2560 N   0  0  0  0  0  0  0  0  0  0  0  0
   -2.8790   -0.0240    0.3360 C   0  0  0  0  0  0  0  0  0  0  0  0
   -3.7370   -0.8790    0.9730 C   0  0  0  0  0  0  0  0  0  0  0  0
   -4.9300   -0.4210    1.5480 C   0  0  0  0  0  0  0  0  0  0  0  0
   -5.7280   -1.3230    2.1610 F   0  0  0  0  0  0  0  0  0  0  0  0
   -5.2140    0.9020    1.4550 C   0  0  0  0  0  0  0  0  0  0  0  0
   -4.3700    1.7890    0.8190 C   0  0  0  0  0  0  0  0  0  0  0  0
   -4.7300    3.2360    0.7450 C   0  0  0  0  0  0  0  0  0  0  0  0
   -3.2160    1.3260    0.2670 C   0  0  0  0  0  0  0  0  0  0  0  0
   -2.3010    2.2740   -0.4190 C   0  0  0  0  0  0  0  0  0  0  0  0
    1.0420   -1.0690   -1.3300 N   0  0  0  0  0  0  0  0  0  0  0  0
    1.4070    0.2320   -0.8840 C   0  0  0  0  0  0  0  0  0  0  0  0
    2.8020    0.1660   -0.2900 C   0  0  0  0  0  0  0  0  0  0  0  0
    3.4500   -0.9000   -0.2430 O   0  0  0  0  0  0  0  0  0  0  0  0
    3.3680    1.3610    0.2200 N   0  0  0  0  0  0  0  0  0  0  0  0
    4.6650    1.4380    0.8020 C   0  0  0  0  0  0  0  0  0  0  0  0
    5.2180    2.5960    1.2990 C   0  0  0  0  0  0  0  0  0  0  0  0
    6.4860    2.2650    1.7790 C   0  0  0  0  0  0  0  0  0  0  0  0
    6.6800    0.9830    1.5800 O   0  0  0  0  0  0  0  0  0  0  0  0
    5.6150    0.4660    1.0020 C   0  0  0  0  0  0  0  0  0  0  0  0
    1.8100   -1.9240   -2.6990 S   0  0  1  0  0  0  0  0  0  0  0  0
    0.9140   -1.9900   -3.8580 O   0  0  0  0  0  0  0  0  0  0  0  0
    3.1740   -1.4290   -2.9290 O   0  0  0  0  0  0  0  0  0  0  0  0
    1.7950   -3.4270   -1.7610 N   0  0  0  0  0  0  0  0  0  0  0  0
  1  2  1  0
  2  3  2  0
  2 29  1  0
  3  4  1  0
  3 16  1  0
  4  5  2  0
  4  6  1  0
  6  7  1  0
  7  8  2  0
  7 14  1  0
  8  9  1  0
  9 10  1  0
  9 11  2  0
 11 12  1  0
 12 13  1  0
 12 14  2  0
 14 15  1  0
 16 17  1  0
 16 26  1  0
 17 18  1  0
 18 19  2  0
 18 20  1  0
 20 21  1  0
 21 22  1  0
 21 25  2  0
 22 23  2  0
 23 24  1  0
 24 25  1  0
 26 27  2  0
 26 28  2  0
 26 29  1  1
M  END
