
     RDKit          3D

 24 25  0  0  0  0  0  0  0  0999 V2000
   -4.5470   -0.5270    2.5060 C   0  0  0  0  0  0  0  0  0  0  0  0
   -4.8650   -0.2390    1.2210 C   0  0  0  0  0  0  0  0  0  0  0  0
   -6.0200    0.6360    0.9910 C   0  0  0  0  0  0  0  0  0  0  0  0
   -4.0710   -0.7960    0.1720 C   0  0  0  0  0  0  0  0  0  0  0  0
   -4.1670   -0.6740   -1.1110 C   0  0  0  0  0  0  0  0  0  0  0  0
   -5.1730    0.1100   -1.8360 C   0  0  0  0  0  0  0  0  0  0  0  0
   -2.9650   -1.6450    0.6510 N   0  0  0  0  0  0  0  0  0  0  0  0
   -1.6840   -1.0570    0.6210 C   0  0  0  0  0  0  0  0  0  0  0  0
   -1.4780    0.2300    0.1740 C   0  0  0  0  0  0  0  0  0  0  0  0
   -0.2020    0.7500    0.1690 C   0  0  0  0  0  0  0  0  0  0  0  0
    0.9010    0.0410    0.5960 C   0  0  0  0  0  0  0  0  0  0  0  0
    2.1530    0.6690    0.5470 N   0  0  0  0  0  0  0  0  0  0  0  0
    3.1840    0.2180   -0.0890 C   0  0  0  0  0  0  0  0  0  0  0  0
    3.0880   -1.0500   -0.8370 C   0  0  0  0  0  0  0  0  0  0  0  0
    4.4060    1.0110   -0.0260 C   0  0  0  0  0  0  0  0  0  0  0  0
    4.5730    2.1880    0.6390 N   0  0  0  0  0  0  0  0  0  0  0  0
    5.8270    2.6390    0.4800 C   0  0  0  0  0  0  0  0  0  0  0  0
    6.2840    3.7010    0.9730 O   0  0  0  0  0  0  0  0  0  0  0  0
    6.4990    1.7700   -0.2880 N   0  0  0  0  0  0  0  0  0  0  0  0
    5.6320    0.7680   -0.6010 C   0  0  0  0  0  0  0  0  0  0  0  0
    6.0080   -0.3790   -1.4360 C   0  0  0  0  0  0  0  0  0  0  0  0
    0.6820   -1.2140    1.0290 N   0  0  0  0  0  0  0  0  0  0  0  0
   -0.5480   -1.7500    1.0470 C   0  0  0  0  0  0  0  0  0  0  0  0
   -0.7280   -2.9230    1.4560 O   0  0  0  0  0  0  0  0  0  0  0  0
  1  2  2  0
  2  3  1  0
  2  4  1  0
  4  5  2  3
  4  7  1  0
  5  6  1  0
  7  8  1  0
  8  9  2  0
  8 23  1  0
  9 10  1  0
 10 11  2  0
 11 12  1  0
 11 22  1  0
 12 13  2  3
 13 14  1  0
 13 15  1  0
 15 16  1  0
 15 20  2  0
 16 17  1  0
 17 18  2  0
 17 19  1  0
 19 20  1  0
 20 21  1  0
 22 23  1  0
 23 24  2  0
M  END
