
     RDKit          3D

 24 26  0  0  0  0  0  0  0  0999 V2000
    6.6520    1.2690    1.2680 C   0  0  0  0  0  0  0  0  0  0  0  0
    6.8080   -0.0540    0.6650 C   0  0  0  0  0  0  0  0  0  0  0  0
    5.8980   -0.7140    0.0450 C   0  0  0  0  0  0  0  0  0  0  0  0
    4.5240   -0.3920   -0.2350 C   0  0  0  0  0  0  0  0  0  0  0  0
    3.8140    0.6170    0.3680 C   0  0  0  0  0  0  0  0  0  0  0  0
    2.5040    0.9400   -0.0190 C   0  0  0  0  0  0  0  0  0  0  0  0
    1.8700    0.2580   -1.0170 C   0  0  0  0  0  0  0  0  0  0  0  0
    0.5940    0.6040   -1.4540 N   0  0  0  0  0  0  0  0  0  0  0  0
   -0.6390    0.4440   -0.8950 N   0  0  0  0  0  0  0  0  0  0  0  0
   -1.0160   -0.3470    0.2140 C   0  0  0  0  0  0  0  0  0  0  0  0
   -0.1290   -1.0000    0.7930 O   0  0  0  0  0  0  0  0  0  0  0  0
   -2.4140   -0.3970    0.6690 C   0  0  0  0  0  0  0  0  0  0  0  0
   -3.4420   -0.2110   -0.2620 C   0  0  0  0  0  0  0  0  0  0  0  0
   -4.7510   -0.2550    0.1840 C   0  0  0  0  0  0  0  0  0  0  0  0
   -5.9430   -0.1020   -0.5100 C   0  0  0  0  0  0  0  0  0  0  0  0
   -6.0500    0.1600   -1.9840 C   0  0  0  0  0  0  0  0  0  0  0  0
   -6.9150   -0.2320    0.3880 N   0  0  0  0  0  0  0  0  0  0  0  0
   -6.3920   -0.4530    1.5830 N   0  0  0  0  0  0  0  0  0  0  0  0
   -5.0380   -0.4750    1.5110 C   0  0  0  0  0  0  0  0  0  0  0  0
   -4.0450   -0.6540    2.4110 N   0  0  0  0  0  0  0  0  0  0  0  0
   -2.7720   -0.6100    1.9700 C   0  0  0  0  0  0  0  0  0  0  0  0
   -1.8820   -0.7850    2.8690 O   0  0  0  0  0  0  0  0  0  0  0  0
    2.5770   -0.7600   -1.6230 C   0  0  0  0  0  0  0  0  0  0  0  0
    3.8510   -1.0900   -1.2670 C   0  0  0  0  0  0  0  0  0  0  0  0
  1  2  1  0
  2  3  2  3
  3  4  1  0
  4  5  2  0
  4 24  1  0
  5  6  1  0
  6  7  2  0
  7  8  1  0
  7 23  1  0
  8  9  1  0
  9 10  1  0
 10 11  2  0
 10 12  1  0
 12 13  2  0
 12 21  1  0
 13 14  1  0
 14 15  2  0
 14 19  1  0
 15 16  1  0
 15 17  1  0
 17 18  1  0
 18 19  2  0
 19 20  1  0
 20 21  1  0
 21 22  2  0
 23 24  2  0
M  END
