
     RDKit          3D

 24 26  0  0  0  0  0  0  0  0999 V2000
   -3.9280   -1.2010   -0.9960 C   0  0  0  0  0  0  0  0  0  0  0  0
   -4.3790    0.0010   -0.2840 C   0  0  0  0  0  0  0  0  0  0  0  0
   -5.5400    0.5610   -0.6780 C   0  0  0  0  0  0  0  0  0  0  0  0
   -6.2740   -0.0190   -1.7880 C   0  0  0  0  0  0  0  0  0  0  0  0
   -6.1390    1.6100    0.1700 C   0  0  2  0  0  0  0  0  0  0  0  0
   -6.2430    2.9750    0.1340 C   0  0  0  0  0  0  0  0  0  0  0  0
   -5.0220    2.5020    0.6130 C   0  0  0  0  0  0  0  0  0  0  0  0
   -3.8060    1.8750    1.0910 C   0  0  0  0  0  0  0  0  0  0  0  0
   -3.4640    0.6510    0.6510 C   0  0  0  0  0  0  0  0  0  0  0  0
   -2.2580    0.0050    1.0660 N   0  0  0  0  0  0  0  0  0  0  0  0
   -1.0730    0.2970    0.3000 C   0  0  0  0  0  0  0  0  0  0  0  0
    0.1080   -0.4420    0.7840 C   0  0  0  0  0  0  0  0  0  0  0  0
    0.0510   -1.2240    1.7510 O   0  0  0  0  0  0  0  0  0  0  0  0
    1.3530   -0.2600    0.1280 N   0  0  0  0  0  0  0  0  0  0  0  0
    2.4600   -0.9580    0.5750 N   0  0  0  0  0  0  0  0  0  0  0  0
    3.7540   -0.6050    0.1360 C   0  0  0  0  0  0  0  0  0  0  0  0
    3.9270    0.3680   -0.6790 O   0  0  0  0  0  0  0  0  0  0  0  0
    4.9450   -1.2750    0.5420 N   0  0  0  0  0  0  0  0  0  0  0  0
    6.2230   -0.8590    0.0540 C   0  0  0  0  0  0  0  0  0  0  0  0
    6.7800   -1.4820   -1.0500 C   0  0  0  0  0  0  0  0  0  0  0  0
    8.0220   -1.0990   -1.5360 C   0  0  0  0  0  0  0  0  0  0  0  0
    8.6750   -0.1100   -0.9120 N   0  0  0  0  0  0  0  0  0  0  0  0
    8.1740    0.5180    0.1570 C   0  0  0  0  0  0  0  0  0  0  0  0
    6.9490    0.1470    0.6440 C   0  0  0  0  0  0  0  0  0  0  0  0
  1  2  1  0
  2  3  2  0
  2  9  1  0
  3  4  1  0
  3  5  1  0
  5  6  1  6
  5  7  1  0
  6  7  2  0
  7  8  1  0
  8  9  2  0
  9 10  1  0
 10 11  1  0
 11 12  1  0
 12 13  2  0
 12 14  1  0
 14 15  1  0
 15 16  1  0
 16 17  2  0
 16 18  1  0
 18 19  1  0
 19 20  2  0
 19 24  1  0
 20 21  1  0
 21 22  2  0
 22 23  1  0
 23 24  2  0
M  END
