
     RDKit          3D

 19 20  0  0  0  0  0  0  0  0999 V2000
   -6.2310   -0.5240    0.6380 C   0  0  0  0  0  0  0  0  0  0  0  0
   -4.7460   -0.2660    0.4700 C   0  0  0  0  0  0  0  0  0  0  0  0
   -3.8290   -1.2660    0.2370 C   0  0  0  0  0  0  0  0  0  0  0  0
   -2.4820   -1.0890    0.0820 C   0  0  0  0  0  0  0  0  0  0  0  0
   -1.3730   -2.4440   -0.1880 Cl  0  0  0  0  0  0  0  0  0  0  0  0
   -1.9720    0.2020    0.1690 C   0  0  0  0  0  0  0  0  0  0  0  0
   -0.6000    0.5340   -0.1390 C   0  0  0  0  0  0  0  0  0  0  0  0
    0.4670   -0.1080    0.6280 N   0  0  0  0  0  0  0  0  0  0  0  0
    1.7580    0.3940    0.1260 C   0  0  0  0  0  0  0  0  0  0  0  0
    2.8250   -0.5290    0.6310 C   0  0  2  0  0  0  0  0  0  0  0  0
    2.9440   -0.6220    1.9770 O   0  0  0  0  0  0  0  0  0  0  0  0
    4.1200   -0.1870   -0.0450 C   0  0  0  0  0  0  0  0  0  0  0  0
    4.5570   -0.6490   -1.2640 C   0  0  0  0  0  0  0  0  0  0  0  0
    5.7970   -0.0740   -1.5150 C   0  0  0  0  0  0  0  0  0  0  0  0
    6.0730    0.7250   -0.4150 C   0  0  0  0  0  0  0  0  0  0  0  0
    5.0630    0.6200    0.4090 O   0  0  0  0  0  0  0  0  0  0  0  0
   -2.8740    1.2380    0.4080 C   0  0  0  0  0  0  0  0  0  0  0  0
   -4.2460    1.0110    0.5510 C   0  0  0  0  0  0  0  0  0  0  0  0
   -5.3880    2.3080    0.7450 Cl  0  0  0  0  0  0  0  0  0  0  0  0
  1  2  1  0
  2  3  2  0
  2 18  1  0
  3  4  1  0
  4  5  1  0
  4  6  2  0
  6  7  1  0
  6 17  1  0
  7  8  1  0
  8  9  1  0
  9 10  1  0
 10 11  1  1
 10 12  1  0
 12 13  2  0
 12 16  1  0
 13 14  1  0
 14 15  2  0
 15 16  1  0
 17 18  2  0
 18 19  1  0
M  END
