
     RDKit          3D

 24 26  0  0  0  0  0  0  0  0999 V2000
   -8.4270    0.0220   -0.6920 C   0  0  0  0  0  0  0  0  0  0  0  0
   -7.1100    0.0170   -0.6420 C   0  0  0  0  0  0  0  0  0  0  0  0
   -6.4050    1.0630    0.0090 N   0  0  0  0  0  0  0  0  0  0  0  0
   -4.9820    1.0470    0.0580 C   0  0  0  0  0  0  0  0  0  0  0  0
   -4.3390    2.0930    0.7060 C   0  0  0  0  0  0  0  0  0  0  0  0
   -2.9460    2.1180    0.7770 C   0  0  0  0  0  0  0  0  0  0  0  0
   -2.2100    1.1030    0.2040 C   0  0  0  0  0  0  0  0  0  0  0  0
   -0.7490    1.1430    0.2870 C   0  0  0  0  0  0  0  0  0  0  0  0
    0.1590    0.2390   -0.2130 C   0  0  0  0  0  0  0  0  0  0  0  0
    1.4240    0.6820    0.1020 C   0  0  0  0  0  0  0  0  0  0  0  0
    2.6930    0.0340   -0.2310 C   0  0  0  0  0  0  0  0  0  0  0  0
    2.6780   -1.0290   -0.8640 O   0  0  0  0  0  0  0  0  0  0  0  0
    3.9400    0.5930    0.1520 N   0  0  0  0  0  0  0  0  0  0  0  0
    5.2140   -0.0060   -0.1510 C   0  0  0  0  0  0  0  0  0  0  0  0
    5.3220   -1.3940    0.4640 C   0  0  0  0  0  0  0  0  0  0  0  0
    6.6880   -1.9400    0.0940 C   0  0  0  0  0  0  0  0  0  0  0  0
    7.7130   -0.9940    0.6660 C   0  0  0  0  0  0  0  0  0  0  0  0
    1.2460    1.8320    0.7790 N   0  0  0  0  0  0  0  0  0  0  0  0
   -0.0320    2.1060    0.8890 N   0  0  0  0  0  0  0  0  0  0  0  0
   -2.8810    0.0800   -0.4310 C   0  0  0  0  0  0  0  0  0  0  0  0
   -4.2580    0.0250   -0.5210 C   0  0  0  0  0  0  0  0  0  0  0  0
   -4.9380   -1.0400   -1.1810 N   0  0  0  0  0  0  0  0  0  0  0  0
   -6.3550   -1.0680   -1.2560 C   0  0  0  0  0  0  0  0  0  0  0  0
   -7.0020   -1.9850   -1.8270 O   0  0  0  0  0  0  0  0  0  0  0  0
  1  2  2  0
  2  3  1  0
  2 23  1  0
  3  4  1  0
  4  5  2  0
  4 21  1  0
  5  6  1  0
  6  7  2  0
  7  8  1  0
  7 20  1  0
  8  9  1  0
  8 19  2  0
  9 10  2  0
 10 11  1  0
 10 18  1  0
 11 12  2  0
 11 13  1  0
 13 14  1  0
 14 15  1  0
 15 16  1  0
 16 17  1  0
 18 19  1  0
 20 21  2  0
 21 22  1  0
 22 23  1  0
 23 24  2  0
M  END
