
     RDKit          3D

 24 26  0  0  0  0  0  0  0  0999 V2000
   -6.2320    1.1240   -1.0740 C   0  0  0  0  0  0  0  0  0  0  0  0
   -5.8090    0.0210   -0.1720 C   0  0  0  0  0  0  0  0  0  0  0  0
   -6.6540   -0.6550    0.5940 C   0  0  0  0  0  0  0  0  0  0  0  0
   -5.9200   -1.6890    1.3750 C   0  0  0  0  0  0  0  0  0  0  0  0
   -4.5270   -1.4930    0.9320 C   0  0  0  0  0  0  0  0  0  0  0  0
   -4.4700   -0.5120    0.0450 C   0  0  0  0  0  0  0  0  0  0  0  0
   -3.2760    0.0350   -0.6730 C   0  0  0  0  0  0  0  0  0  0  0  0
   -2.0160   -0.6890   -0.2700 C   0  0  0  0  0  0  0  0  0  0  0  0
   -0.9090   -0.1160   -0.9930 N   0  0  0  0  0  0  0  0  0  0  0  0
    0.4190   -0.5900   -0.8270 C   0  0  0  0  0  0  0  0  0  0  0  0
    0.6000   -1.7330   -0.2930 N   0  0  0  0  0  0  0  0  0  0  0  0
    1.5550    0.1370   -1.2240 N   0  0  0  0  0  0  0  0  0  0  0  0
    2.7670    0.2130   -0.5020 C   0  0  0  0  0  0  0  0  0  0  0  0
    2.8880   -0.3250    0.7510 C   0  0  0  0  0  0  0  0  0  0  0  0
    4.0950   -0.2550    1.4630 C   0  0  0  0  0  0  0  0  0  0  0  0
    5.2010    0.3590    0.9230 C   0  0  0  0  0  0  0  0  0  0  0  0
    6.4070    0.4310    1.6280 C   0  0  0  0  0  0  0  0  0  0  0  0
    6.4800   -0.0720    2.7700 O   0  0  0  0  0  0  0  0  0  0  0  0
    7.4290    1.0530    1.0120 N   0  0  0  0  0  0  0  0  0  0  0  0
    7.3370    1.5890   -0.2170 C   0  0  0  0  0  0  0  0  0  0  0  0
    8.3440    2.1670   -0.7490 O   0  0  0  0  0  0  0  0  0  0  0  0
    6.1670    1.5030   -0.8670 N   0  0  0  0  0  0  0  0  0  0  0  0
    5.0870    0.9020   -0.3370 C   0  0  0  0  0  0  0  0  0  0  0  0
    3.8980    0.8290   -1.0280 C   0  0  0  0  0  0  0  0  0  0  0  0
  1  2  1  0
  2  3  2  0
  2  6  1  0
  3  4  1  0
  4  5  1  0
  5  6  2  0
  6  7  1  0
  7  8  1  0
  8  9  1  0
  9 10  1  0
 10 11  2  0
 10 12  1  0
 12 13  1  0
 13 14  2  0
 13 24  1  0
 14 15  1  0
 15 16  2  0
 16 17  1  0
 16 23  1  0
 17 18  2  0
 17 19  1  0
 19 20  1  0
 20 21  2  0
 20 22  1  0
 22 23  1  0
 23 24  2  0
M  END
