
     RDKit          3D

 19 20  0  0  0  0  0  0  0  0999 V2000
   -2.1150    1.6030    1.3680 O   0  0  0  0  0  0  0  0  0  0  0  0
   -2.4290    1.9680    0.2090 C   0  0  0  0  0  0  0  0  0  0  0  0
   -2.7860    3.2880    0.0210 O   0  0  0  0  0  0  0  0  0  0  0  0
   -2.4280    1.0210   -0.9650 C   0  0  0  0  0  0  0  0  0  0  0  0
   -2.0130   -0.2970   -0.4790 C   0  0  0  0  0  0  0  0  0  0  0  0
   -2.9660   -1.2910   -0.3230 C   0  0  0  0  0  0  0  0  0  0  0  0
   -2.5920   -2.5470    0.1310 C   0  0  0  0  0  0  0  0  0  0  0  0
   -1.2470   -2.7790    0.4230 C   0  0  0  0  0  0  0  0  0  0  0  0
   -0.3270   -1.7580    0.2540 C   0  0  0  0  0  0  0  0  0  0  0  0
   -0.6920   -0.5100   -0.1960 C   0  0  0  0  0  0  0  0  0  0  0  0
    0.2520    0.4840   -0.3470 N   0  0  0  0  0  0  0  0  0  0  0  0
    1.6440    0.3890   -0.0980 C   0  0  0  0  0  0  0  0  0  0  0  0
    2.1120    0.6890    1.1620 C   0  0  0  0  0  0  0  0  0  0  0  0
    1.0780    1.1850    2.4830 Cl  0  0  0  0  0  0  0  0  0  0  0  0
    3.4770    0.5930    1.3960 C   0  0  0  0  0  0  0  0  0  0  0  0
    4.3320    0.2050    0.3790 C   0  0  0  0  0  0  0  0  0  0  0  0
    3.8660   -0.0970   -0.8840 C   0  0  0  0  0  0  0  0  0  0  0  0
    2.5040    0.0020   -1.1040 C   0  0  0  0  0  0  0  0  0  0  0  0
    1.9290   -0.3890   -2.7270 Cl  0  0  0  0  0  0  0  0  0  0  0  0
  1  2  2  0
  2  3  1  0
  2  4  1  0
  4  5  1  0
  5  6  2  0
  5 10  1  0
  6  7  1  0
  7  8  2  0
  8  9  1  0
  9 10  2  0
 10 11  1  0
 11 12  1  0
 12 13  2  0
 12 18  1  0
 13 14  1  0
 13 15  1  0
 15 16  2  0
 16 17  1  0
 17 18  2  0
 18 19  1  0
M  END
