
     RDKit          3D

 24 26  0  0  0  0  0  0  0  0999 V2000
   -0.3710    0.5890   -1.7820 O   0  0  0  0  0  0  0  0  0  0  0  0
   -0.0860    1.4420   -0.9190 C   0  0  0  0  0  0  0  0  0  0  0  0
   -1.0200    2.5240   -0.6780 N   0  0  0  0  0  0  0  0  0  0  0  0
   -2.2500    2.6010   -1.4270 C   0  0  0  0  0  0  0  0  0  0  0  0
   -3.1430    1.4030   -1.2460 C   0  0  0  0  0  0  0  0  0  0  0  0
   -3.4940    1.2720    0.1500 N   0  0  0  0  0  0  0  0  0  0  0  0
   -4.3330    0.2240    0.6230 C   0  0  0  0  0  0  0  0  0  0  0  0
   -4.8570   -0.7260   -0.2340 C   0  0  0  0  0  0  0  0  0  0  0  0
   -5.6770   -1.7470    0.2430 C   0  0  0  0  0  0  0  0  0  0  0  0
   -5.9830   -1.8260    1.5930 C   0  0  0  0  0  0  0  0  0  0  0  0
   -5.4640   -0.8960    2.4010 N   0  0  0  0  0  0  0  0  0  0  0  0
   -4.6620    0.1080    1.9560 C   0  0  0  0  0  0  0  0  0  0  0  0
    1.1300    1.3400   -0.1970 N   0  0  0  0  0  0  0  0  0  0  0  0
    2.1150    0.3480   -0.3250 C   0  0  0  0  0  0  0  0  0  0  0  0
    2.0190   -0.7750   -1.0890 C   0  0  0  0  0  0  0  0  0  0  0  0
    3.0950   -1.6680   -1.1210 C   0  0  0  0  0  0  0  0  0  0  0  0
    4.2530   -1.4800   -0.4230 C   0  0  0  0  0  0  0  0  0  0  0  0
    5.3130   -2.3640   -0.4570 C   0  0  0  0  0  0  0  0  0  0  0  0
    6.4520   -2.1100    0.2730 C   0  0  0  0  0  0  0  0  0  0  0  0
    6.5090   -0.9580    1.0360 C   0  0  0  0  0  0  0  0  0  0  0  0
    7.5500   -0.7370    1.6960 O   0  0  0  0  0  0  0  0  0  0  0  0
    5.4610   -0.1190    1.0480 N   0  0  0  0  0  0  0  0  0  0  0  0
    4.3310   -0.3380    0.3440 C   0  0  0  0  0  0  0  0  0  0  0  0
    3.2950    0.5660    0.4030 C   0  0  0  0  0  0  0  0  0  0  0  0
  1  2  2  0
  2  3  1  0
  2 13  1  0
  3  4  1  0
  4  5  1  0
  5  6  1  0
  6  7  1  0
  7  8  2  0
  7 12  1  0
  8  9  1  0
  9 10  2  0
 10 11  1  0
 11 12  2  0
 13 14  1  0
 14 15  2  0
 14 24  1  0
 15 16  1  0
 16 17  2  0
 17 18  1  0
 17 23  1  0
 18 19  2  0
 19 20  1  0
 20 21  2  0
 20 22  1  0
 22 23  1  0
 23 24  2  0
M  END
