
     RDKit          3D

 31 31  0  0  0  0  0  0  0  0999 V2000
   -4.8920    4.4600    0.5050 C   0  0  0  0  0  0  0  0  0  0  0  0
   -4.7480    3.3780    1.5370 C   0  0  0  0  0  0  0  0  0  0  0  0
   -4.4910    2.1110    1.0020 O   0  0  0  0  0  0  0  0  0  0  0  0
   -3.4210    1.7510    0.2320 C   0  0  0  0  0  0  0  0  0  0  0  0
   -2.5630    2.6480   -0.0340 O   0  0  0  0  0  0  0  0  0  0  0  0
   -3.2610    0.4030   -0.2660 N   0  0  0  0  0  0  0  0  0  0  0  0
   -2.1270    0.0730   -1.0670 C   0  0  0  0  0  0  0  0  0  0  0  0
   -0.9260   -0.3760   -0.2570 C   0  0  1  0  0  0  0  0  0  0  0  0
   -1.2840   -1.4960    0.4730 O   0  0  0  0  0  0  0  0  0  0  0  0
   -1.2540   -1.2590    1.8520 C   0  0  0  0  0  0  0  0  0  0  0  0
    0.1190   -0.6150   -1.1290 O   0  0  0  0  0  0  0  0  0  0  0  0
    1.2380    0.1740   -0.9360 C   0  0  1  0  0  0  0  0  0  0  0  0
    2.4490   -0.6260   -0.5280 C   0  0  2  0  0  0  0  0  0  0  0  0
    3.1490    0.0190    0.5760 N   0  0  0  0  0  0  0  0  0  0  0  0
    4.3080   -0.5030    1.1660 C   0  0  0  0  0  0  0  0  0  0  0  0
    5.2880    0.3170    1.4950 C   0  0  0  0  0  0  0  0  0  0  0  0
    6.4710   -0.1460    2.0880 O   0  0  0  0  0  0  0  0  0  0  0  0
    6.9620    0.3190    3.2190 O   0  0  0  0  0  0  0  0  0  0  0  0
    4.4280   -1.9520    1.4150 C   0  0  0  0  0  0  0  0  0  0  0  0
    5.6570   -2.2750    2.0110 O   0  0  0  0  0  0  0  0  0  0  0  0
    3.4240   -0.9070   -1.6080 C   0  0  0  0  0  0  0  0  0  0  0  0
    3.3400   -0.0550   -2.8270 C   0  0  1  0  0  0  0  0  0  0  0  0
    3.8220   -0.8300   -3.9080 O   0  0  0  0  0  0  0  0  0  0  0  0
    2.0650    0.3490   -3.1810 O   0  0  0  0  0  0  0  0  0  0  0  0
    1.5690    1.0760   -2.0940 C   0  0  1  0  0  0  0  0  0  0  0  0
    0.5770    1.9590   -2.4120 O   0  0  0  0  0  0  0  0  0  0  0  0
   -4.2560   -0.5390    0.0490 C   0  0  0  0  0  0  0  0  0  0  0  0
   -5.2460   -0.1960    0.7850 O   0  0  0  0  0  0  0  0  0  0  0  0
   -4.1940   -1.8680   -0.4300 N   0  0  0  0  0  0  0  0  0  0  0  0
   -5.1910   -2.7580   -0.0940 O   0  0  0  0  0  0  0  0  0  0  0  0
   -5.2440   -3.7150   -1.1120 C   0  0  0  0  0  0  0  0  0  0  0  0
  1  2  1  0
  2  3  1  0
  3  4  1  0
  4  5  2  0
  4  6  1  0
  6  7  1  0
  6 27  1  0
  8  7  1  6
  8  9  1  0
  8 11  1  0
  9 10  1  0
 12 11  1  6
 12 13  1  0
 12 25  1  0
 13 14  1  1
 13 21  1  0
 14 15  1  0
 15 16  2  3
 15 19  1  0
 16 17  1  0
 17 18  1  0
 19 20  1  0
 21 22  1  0
 22 23  1  6
 22 24  1  0
 24 25  1  0
 25 26  1  6
 27 28  2  0
 27 29  1  0
 29 30  1  0
 30 31  1  0
M  END
