
     RDKit          3D

 31 32  0  0  0  0  0  0  0  0999 V2000
   -3.9670    3.5870   -1.5060 C   0  0  0  0  0  0  0  0  0  0  0  0
   -2.9570    2.8850   -0.8310 O   0  0  0  0  0  0  0  0  0  0  0  0
   -3.2660    1.8800    0.1030 C   0  0  0  0  0  0  0  0  0  0  0  0
   -3.8870    2.1690    1.2260 C   0  0  0  0  0  0  0  0  0  0  0  0
   -4.1940    1.0810    2.1860 C   0  0  0  0  0  0  0  0  0  0  0  0
   -3.5840    1.3070    3.4180 O   0  0  0  0  0  0  0  0  0  0  0  0
   -3.8810    0.3280    4.2280 O   0  0  0  0  0  0  0  0  0  0  0  0
   -2.8660    0.5670   -0.2520 N   0  0  0  0  0  0  0  0  0  0  0  0
   -1.7650    0.0910    0.2410 C   0  0  0  0  0  0  0  0  0  0  0  0
   -0.9450    0.8930    1.1490 C   0  0  0  0  0  0  0  0  0  0  0  0
    0.3370    1.1590    0.6490 O   0  0  0  0  0  0  0  0  0  0  0  0
    1.3160    0.2400    0.3410 C   0  0  0  0  0  0  0  0  0  0  0  0
    1.0320   -0.9830    0.5350 O   0  0  0  0  0  0  0  0  0  0  0  0
    2.5890    0.6220   -0.1690 N   0  0  0  0  0  0  0  0  0  0  0  0
    3.0560    1.9610   -0.4410 C   0  0  0  0  0  0  0  0  0  0  0  0
    4.2010    1.7880   -1.4000 C   0  0  0  0  0  0  0  0  0  0  0  0
    4.7710    0.5230   -0.9780 N   0  0  0  0  0  0  0  0  0  0  0  0
    6.1400    0.1140   -1.0070 C   0  0  0  0  0  0  0  0  0  0  0  0
    7.0590    0.8300   -1.4210 O   0  0  0  0  0  0  0  0  0  0  0  0
    6.4800   -1.2470   -0.5150 C   0  0  0  0  0  0  0  0  0  0  0  0
    7.8210   -1.5210   -0.5950 O   0  0  0  0  0  0  0  0  0  0  0  0
    8.0120   -2.7410   -0.1370 O   0  0  0  0  0  0  0  0  0  0  0  0
    3.6500   -0.2550   -0.5110 C   0  0  0  0  0  0  0  0  0  0  0  0
    3.6570   -1.5190   -0.4360 O   0  0  0  0  0  0  0  0  0  0  0  0
   -1.4450   -1.1940   -0.1520 O   0  0  0  0  0  0  0  0  0  0  0  0
   -2.3880   -2.1650   -0.4040 C   0  0  0  0  0  0  0  0  0  0  0  0
   -3.7490   -2.1070   -0.3330 C   0  0  0  0  0  0  0  0  0  0  0  0
   -4.2230   -3.3110   -0.6730 N   0  0  0  0  0  0  0  0  0  0  0  0
   -3.2030   -4.1400   -0.9580 C   0  0  0  0  0  0  0  0  0  0  0  0
   -2.0390   -3.4420   -0.7960 C   0  0  0  0  0  0  0  0  0  0  0  0
   -0.7320   -3.9280   -0.9920 O   0  0  0  0  0  0  0  0  0  0  0  0
  1  2  1  0
  2  3  1  0
  3  4  2  3
  3  8  1  0
  4  5  1  0
  5  6  1  0
  6  7  1  0
  8  9  2  3
  9 10  1  0
  9 25  1  0
 10 11  1  0
 11 12  1  0
 12 13  2  0
 12 14  1  0
 14 15  1  0
 14 23  1  0
 15 16  1  0
 16 17  1  0
 17 18  1  0
 17 23  1  0
 18 19  2  0
 18 20  1  0
 20 21  1  0
 21 22  1  0
 23 24  2  0
 25 26  1  0
 26 27  2  0
 26 30  1  0
 27 28  1  0
 28 29  1  0
 29 30  2  0
 30 31  1  0
M  END
