
     RDKit          3D

 31 32  0  0  0  0  0  0  0  0999 V2000
    4.8110    0.7100   -0.8830 C   0  0  0  0  0  0  0  0  0  0  0  0
    3.3430    0.6020   -1.1880 C   0  0  0  0  0  0  0  0  0  0  0  0
    2.5430    0.0910   -0.0550 C   0  0  0  0  0  0  0  0  0  0  0  0
    1.8630   -1.0370   -0.2520 C   0  0  0  0  0  0  0  0  0  0  0  0
    0.9770   -1.8130    0.6520 C   0  0  2  0  0  0  0  0  0  0  0  0
   -0.3170   -1.1510    0.6720 N   0  0  0  0  0  0  0  0  0  0  0  0
   -1.1030   -0.9760   -0.4840 C   0  0  0  0  0  0  0  0  0  0  0  0
   -1.0370   -1.8550   -1.4140 N   0  0  0  0  0  0  0  0  0  0  0  0
   -1.7460   -1.8410   -2.6300 C   0  0  0  0  0  0  0  0  0  0  0  0
   -2.8420   -2.4430   -2.7550 O   0  0  0  0  0  0  0  0  0  0  0  0
   -1.1650   -1.1200   -3.6910 O   0  0  0  0  0  0  0  0  0  0  0  0
   -1.8060   -1.0580   -4.9280 C   0  0  0  0  0  0  0  0  0  0  0  0
   -1.9860    0.1900   -0.6400 C   0  0  2  0  0  0  0  0  0  0  0  0
   -2.6820    0.1520   -1.8570 O   0  0  0  0  0  0  0  0  0  0  0  0
   -1.2500    1.4780   -0.5020 C   0  0  0  0  0  0  0  0  0  0  0  0
   -0.5770    2.0160   -1.3950 O   0  0  0  0  0  0  0  0  0  0  0  0
   -1.5080    1.8940    0.8340 N   0  0  0  0  0  0  0  0  0  0  0  0
   -2.1690    0.9160    1.4940 O   0  0  0  0  0  0  0  0  0  0  0  0
   -2.9390    0.2820    0.5280 C   0  0  1  0  0  0  0  0  0  0  0  0
   -3.9910    1.1470    0.2260 O   0  0  0  0  0  0  0  0  0  0  0  0
   -4.7150    1.3650    1.3980 C   0  0  0  0  0  0  0  0  0  0  0  0
   -3.3950   -0.9590    0.9550 O   0  0  0  0  0  0  0  0  0  0  0  0
   -4.0260   -1.5400   -0.0410 O   0  0  0  0  0  0  0  0  0  0  0  0
    1.5520   -1.9400    1.9950 C   0  0  0  0  0  0  0  0  0  0  0  0
    1.4250   -3.0580    2.5430 O   0  0  0  0  0  0  0  0  0  0  0  0
    2.2170   -0.9940    2.7430 O   0  0  0  0  0  0  0  0  0  0  0  0
    3.0560    0.0520    2.3620 C   0  0  2  0  0  0  0  0  0  0  0  0
    3.1860    0.9880    3.5320 C   0  0  0  0  0  0  0  0  0  0  0  0
    3.8890    2.0270    3.4650 O   0  0  0  0  0  0  0  0  0  0  0  0
    2.5300    0.7310    4.7260 O   0  0  0  0  0  0  0  0  0  0  0  0
    2.5610    0.8720    1.2090 C   0  0  0  0  0  0  0  0  0  0  0  0
  1  2  1  0
  2  3  1  0
  3  4  2  0
  3 31  1  0
  4  5  1  0
  5  6  1  1
  5 24  1  0
  6  7  1  0
  7  8  2  3
  7 13  1  0
  8  9  1  0
  9 10  2  0
  9 11  1  0
 11 12  1  0
 13 14  1  6
 13 15  1  0
 13 19  1  0
 15 16  2  0
 15 17  1  0
 17 18  1  0
 18 19  1  0
 19 20  1  6
 19 22  1  0
 20 21  1  0
 22 23  1  0
 24 25  2  0
 24 26  1  0
 26 27  1  0
 27 28  1  1
 27 31  1  0
 28 29  2  0
 28 30  1  0
M  END
