
     RDKit          3D

 31 32  0  0  0  0  0  0  0  0999 V2000
   -3.8300    0.1500   -3.1030 C   0  0  0  0  0  0  0  0  0  0  0  0
   -2.8160   -0.1900   -2.1990 O   0  0  0  0  0  0  0  0  0  0  0  0
   -1.4900   -0.2010   -2.5510 C   0  0  0  0  0  0  0  0  0  0  0  0
   -1.0870    0.1090   -3.6420 O   0  0  0  0  0  0  0  0  0  0  0  0
   -0.5520   -0.5970   -1.4100 C   0  0  0  0  0  0  0  0  0  0  0  0
   -0.5020    0.3600   -0.2300 C   0  0  1  0  0  0  0  0  0  0  0  0
   -1.8630    0.7000    0.1070 N   0  0  0  0  0  0  0  0  0  0  0  0
   -2.8470   -0.1280    0.6250 C   0  0  0  0  0  0  0  0  0  0  0  0
   -2.6490   -1.3500    0.9400 O   0  0  0  0  0  0  0  0  0  0  0  0
   -4.1540    0.3920    0.9080 N   0  0  0  0  0  0  0  0  0  0  0  0
   -5.2950   -0.2970    1.3410 C   0  0  0  0  0  0  0  0  0  0  0  0
   -6.0210   -0.8130    0.0940 C   0  0  0  0  0  0  0  0  0  0  0  0
   -7.1990   -1.3610    0.6520 O   0  0  0  0  0  0  0  0  0  0  0  0
   -8.1850   -0.6650    0.0920 O   0  0  0  0  0  0  0  0  0  0  0  0
    0.0130   -0.5320    0.8910 C   0  0  0  0  0  0  0  0  0  0  0  0
    0.4860   -1.5810    0.5780 O   0  0  0  0  0  0  0  0  0  0  0  0
   -0.0520   -0.0870    2.2360 O   0  0  0  0  0  0  0  0  0  0  0  0
    0.5310   -1.2080    3.0780 O   0  0  0  0  0  0  0  0  0  0  0  0
    1.9400   -0.7760    3.1800 C   0  0  0  0  0  0  0  0  0  0  0  0
    2.5730   -1.0590    2.0010 N   0  0  0  0  0  0  0  0  0  0  0  0
    3.7640   -0.5850    2.0830 C   0  0  0  0  0  0  0  0  0  0  0  0
    4.6940   -0.4030    0.9420 C   0  0  0  0  0  0  0  0  0  0  0  0
    5.3610   -1.4180    0.3800 C   0  0  0  0  0  0  0  0  0  0  0  0
    6.3330   -1.1000   -0.4940 C   0  0  0  0  0  0  0  0  0  0  0  0
    6.6140    0.2530   -0.7560 C   0  0  0  0  0  0  0  0  0  0  0  0
    7.7200    0.4660   -1.6840 O   0  0  0  0  0  0  0  0  0  0  0  0
    8.8990   -0.0560   -1.0770 O   0  0  0  0  0  0  0  0  0  0  0  0
    5.9410    1.2450   -0.1480 C   0  0  0  0  0  0  0  0  0  0  0  0
    4.9760    0.9220    0.6890 C   0  0  0  0  0  0  0  0  0  0  0  0
    3.9150   -0.0250    3.2470 N   0  0  0  0  0  0  0  0  0  0  0  0
    2.7600   -0.1780    3.8940 O   0  0  0  0  0  0  0  0  0  0  0  0
  1  2  1  0
  2  3  1  0
  3  4  2  0
  3  5  1  0
  6  5  1  6
  6  7  1  0
  6 15  1  0
  7  8  1  0
  8  9  2  0
  8 10  1  0
 10 11  1  0
 11 12  1  0
 12 13  1  0
 13 14  1  0
 15 16  2  0
 15 17  1  0
 17 18  1  0
 18 19  1  0
 19 20  2  0
 19 31  1  0
 20 21  1  0
 21 22  1  0
 21 30  2  0
 22 23  2  0
 22 29  1  0
 23 24  1  0
 24 25  2  0
 25 26  1  0
 25 28  1  0
 26 27  1  0
 28 29  2  0
 30 31  1  0
M  END
