
     RDKit          3D

 29 30  0  0  0  0  0  0  0  0999 V2000
   -3.5140    1.7000   -1.7860 C   0  0  0  0  0  0  0  0  0  0  0  0
   -2.4140    1.5430   -0.8010 C   0  0  0  0  0  0  0  0  0  0  0  0
   -2.0530    0.1930   -0.3540 C   0  0  2  0  0  0  0  0  0  0  0  0
   -1.0220    0.1270    0.5730 O   0  0  0  0  0  0  0  0  0  0  0  0
    0.1480    0.6780    0.1800 C   0  0  1  0  0  0  0  0  0  0  0  0
    0.4510    1.7280    1.0440 O   0  0  0  0  0  0  0  0  0  0  0  0
    1.3600   -0.2540    0.2390 C   0  0  2  0  0  0  0  0  0  0  0  0
    2.6550    0.4330    0.0560 C   0  0  0  0  0  0  0  0  0  0  0  0
    3.1990    0.4310   -1.0730 O   0  0  0  0  0  0  0  0  0  0  0  0
    3.3120    1.0860    1.0930 O   0  0  0  0  0  0  0  0  0  0  0  0
    4.5350    1.7460    1.0070 C   0  0  0  0  0  0  0  0  0  0  0  0
    4.5690    2.8840    0.0930 C   0  0  0  0  0  0  0  0  0  0  0  0
    5.7520    3.6330   -0.0950 N   0  0  0  0  0  0  0  0  0  0  0  0
    3.5400    3.2190   -0.5450 O   0  0  0  0  0  0  0  0  0  0  0  0
    1.1180   -1.3450   -0.6820 N   0  0  0  0  0  0  0  0  0  0  0  0
    1.7080   -2.2130    0.2390 N   0  0  0  0  0  0  0  0  0  0  0  0
    2.3560   -3.4170    0.1600 O   0  0  0  0  0  0  0  0  0  0  0  0
    2.7540   -3.5580   -1.1860 C   0  0  0  0  0  0  0  0  0  0  0  0
    3.4190   -4.7290   -1.4390 O   0  0  0  0  0  0  0  0  0  0  0  0
    1.3290   -1.2850    1.2700 C   0  0  0  0  0  0  0  0  0  0  0  0
    1.1030   -1.4510    2.4900 O   0  0  0  0  0  0  0  0  0  0  0  0
   -1.6850   -0.7820   -1.4180 C   0  0  0  0  0  0  0  0  0  0  0  0
   -1.2950   -0.6580   -2.5840 O   0  0  0  0  0  0  0  0  0  0  0  0
   -1.8690   -2.0590   -0.8220 O   0  0  0  0  0  0  0  0  0  0  0  0
   -2.3560   -1.9030    0.5050 C   0  0  0  0  0  0  0  0  0  0  0  0
   -3.2080   -0.6160    0.2620 C   0  0  2  0  0  0  0  0  0  0  0  0
   -4.2230   -1.0430   -0.7470 C   0  0  0  0  0  0  0  0  0  0  0  0
   -3.7460   -0.0890    1.5260 C   0  0  0  0  0  0  0  0  0  0  0  0
   -4.2510    1.1890    1.3570 O   0  0  0  0  0  0  0  0  0  0  0  0
  1  2  1  0
  3  2  1  6
  3  4  1  0
  3 22  1  0
  3 26  1  0
  4  5  1  0
  5  6  1  1
  5  7  1  0
  7  8  1  6
  7 15  1  0
  7 20  1  0
  8  9  2  0
  8 10  1  0
 10 11  1  0
 11 12  1  0
 12 13  1  0
 12 14  2  0
 15 16  1  0
 16 17  1  0
 16 20  1  0
 17 18  1  0
 18 19  1  0
 20 21  2  0
 22 23  2  0
 22 24  1  0
 24 25  1  0
 25 26  1  0
 26 27  1  6
 26 28  1  0
 28 29  1  0
M  END
