
     RDKit          3D

 31 31  0  0  0  0  0  0  0  0999 V2000
    5.1750    2.5980    2.0700 C   0  0  0  0  0  0  0  0  0  0  0  0
    4.4710    3.2550    0.8850 C   0  0  0  0  0  0  0  0  0  0  0  0
    3.7150    2.2460    0.2400 O   0  0  0  0  0  0  0  0  0  0  0  0
    2.7060    1.5410    0.8930 C   0  0  0  0  0  0  0  0  0  0  0  0
    2.5020    1.8570    2.1070 O   0  0  0  0  0  0  0  0  0  0  0  0
    1.9510    0.5290    0.2420 N   0  0  0  0  0  0  0  0  0  0  0  0
    2.1400    0.1340   -1.1220 C   0  0  0  0  0  0  0  0  0  0  0  0
    0.8990   -0.6420   -1.4210 C   0  0  0  0  0  0  0  0  0  0  0  0
    0.6320   -1.0020   -2.5630 O   0  0  0  0  0  0  0  0  0  0  0  0
    0.1760   -0.8400   -0.1590 C   0  0  2  0  0  0  0  0  0  0  0  0
    0.0920   -2.3350    0.1920 C   0  0  2  0  0  0  0  0  0  0  0  0
   -0.5110   -2.3630    1.4520 O   0  0  0  0  0  0  0  0  0  0  0  0
    1.4220   -2.9720    0.2870 C   0  0  0  0  0  0  0  0  0  0  0  0
    2.0890   -3.0190   -1.0210 N   0  0  0  0  0  0  0  0  0  0  0  0
   -0.6510   -2.9310   -0.8220 O   0  0  0  0  0  0  0  0  0  0  0  0
   -0.9640   -4.2460   -0.8490 C   0  0  0  0  0  0  0  0  0  0  0  0
   -0.6100   -5.0310    0.0480 O   0  0  0  0  0  0  0  0  0  0  0  0
   -1.2890   -0.3190   -0.2100 C   0  0  1  0  0  0  0  0  0  0  0  0
   -1.8410   -1.0230   -1.2610 O   0  0  0  0  0  0  0  0  0  0  0  0
   -3.0590   -0.8370   -1.5550 O   0  0  0  0  0  0  0  0  0  0  0  0
   -1.9250   -0.5430    1.0860 C   0  0  0  0  0  0  0  0  0  0  0  0
   -3.1110   -1.4040    1.3350 C   0  0  0  0  0  0  0  0  0  0  0  0
   -1.4460    0.0180    2.0600 O   0  0  0  0  0  0  0  0  0  0  0  0
   -1.2090    1.1090   -0.6080 C   0  0  2  0  0  0  0  0  0  0  0  0
   -0.3290    1.2310   -1.7310 O   0  0  0  0  0  0  0  0  0  0  0  0
   -0.5580    1.8850    0.3850 O   0  0  0  0  0  0  0  0  0  0  0  0
   -2.4380    1.8260   -1.0050 C   0  0  0  0  0  0  0  0  0  0  0  0
   -3.5420    2.0090   -0.0820 C   0  0  0  0  0  0  0  0  0  0  0  0
   -4.8680    2.5920   -0.6000 C   0  0  0  0  0  0  0  0  0  0  0  0
   -3.5890    1.7630    1.0990 O   0  0  0  0  0  0  0  0  0  0  0  0
    0.9350   -0.2000    0.8560 N   0  0  0  0  0  0  0  0  0  0  0  0
  1  2  1  0
  2  3  1  0
  3  4  1  0
  4  5  2  0
  4  6  1  0
  6  7  1  0
  6 31  1  0
  7  8  1  0
  8  9  2  0
  8 10  1  0
 10 11  1  0
 10 18  1  0
 10 31  1  1
 11 12  1  1
 11 13  1  0
 11 15  1  0
 13 14  1  0
 15 16  1  0
 16 17  2  0
 18 19  1  6
 18 21  1  0
 18 24  1  0
 19 20  1  0
 21 22  1  0
 21 23  2  0
 24 25  1  6
 24 26  1  0
 24 27  1  0
 27 28  1  0
 28 29  1  0
 28 30  2  0
M  END
