
     RDKit          3D

 31 32  0  0  0  0  0  0  0  0999 V2000
    4.8670   -1.5470   -1.0370 C   0  0  0  0  0  0  0  0  0  0  0  0
    4.6630   -0.2190   -0.3460 N   0  0  0  0  0  0  0  0  0  0  0  0
    5.8020    0.2760    0.2750 C   0  0  0  0  0  0  0  0  0  0  0  0
    6.0380    1.4250    0.7910 C   0  0  0  0  0  0  0  0  0  0  0  0
    5.1940    2.5270    0.8680 N   0  0  0  0  0  0  0  0  0  0  0  0
    7.4300    1.6590    1.4030 C   0  0  0  0  0  0  0  0  0  0  0  0
    7.3000    1.9690    2.7370 O   0  0  0  0  0  0  0  0  0  0  0  0
    3.4160    0.3680   -0.4980 C   0  0  0  0  0  0  0  0  0  0  0  0
    3.0740    1.3770    0.1530 O   0  0  0  0  0  0  0  0  0  0  0  0
    2.4110   -0.1330   -1.4170 N   0  0  0  0  0  0  0  0  0  0  0  0
    1.0970    0.4700   -1.5280 C   0  0  0  0  0  0  0  0  0  0  0  0
    0.1450   -0.1460   -0.6510 O   0  0  0  0  0  0  0  0  0  0  0  0
   -0.1260   -1.5240   -0.7840 C   0  0  0  0  0  0  0  0  0  0  0  0
   -1.2750   -2.0530   -0.9780 C   0  0  0  0  0  0  0  0  0  0  0  0
   -2.5230   -1.4560   -1.1020 O   0  0  0  0  0  0  0  0  0  0  0  0
   -3.1520   -1.1330    0.1150 C   0  0  2  0  0  0  0  0  0  0  0  0
   -2.4650   -0.2530    0.9110 O   0  0  0  0  0  0  0  0  0  0  0  0
   -3.1490   -2.3950    0.8810 O   0  0  0  0  0  0  0  0  0  0  0  0
   -4.0180   -2.0730    1.9600 C   0  0  0  0  0  0  0  0  0  0  0  0
   -4.8980   -1.1910    1.5670 C   0  0  0  0  0  0  0  0  0  0  0  0
   -6.0450   -0.3430    1.8680 C   0  0  0  0  0  0  0  0  0  0  0  0
   -6.9560   -0.5860    2.6780 O   0  0  0  0  0  0  0  0  0  0  0  0
   -5.9450    0.8910    1.0350 C   0  0  0  0  0  0  0  0  0  0  0  0
   -5.1720    0.4000   -0.1770 C   0  0  1  0  0  0  0  0  0  0  0  0
   -6.1650    0.2220   -1.1880 O   0  0  0  0  0  0  0  0  0  0  0  0
   -4.2240    1.4170   -0.7320 C   0  0  0  0  0  0  0  0  0  0  0  0
   -4.9900    2.5780   -0.9610 O   0  0  0  0  0  0  0  0  0  0  0  0
   -4.6180   -0.9380    0.0940 C   0  0  1  0  0  0  0  0  0  0  0  0
   -5.2260   -1.9520   -0.6610 O   0  0  0  0  0  0  0  0  0  0  0  0
    2.6900   -1.1590   -2.1970 O   0  0  0  0  0  0  0  0  0  0  0  0
    1.8030   -1.3690   -3.1210 O   0  0  0  0  0  0  0  0  0  0  0  0
  1  2  1  0
  2  3  1  0
  2  8  1  0
  3  4  2  3
  4  5  1  0
  4  6  1  0
  6  7  1  0
  8  9  2  0
  8 10  1  0
 10 11  1  0
 10 30  1  0
 11 12  1  0
 12 13  1  0
 13 14  2  3
 14 15  1  0
 15 16  1  0
 16 17  1  1
 16 18  1  0
 16 28  1  0
 18 19  1  0
 19 20  2  0
 20 21  1  0
 20 28  1  0
 21 22  2  0
 21 23  1  0
 23 24  1  0
 24 25  1  6
 24 26  1  0
 24 28  1  0
 26 27  1  0
 28 29  1  6
 30 31  1  0
M  END
