
     RDKit          3D

 26 27  0  0  0  0  0  0  0  0999 V2000
   -7.2620    0.7090   -2.2240 C   0  0  0  0  0  0  0  0  0  0  0  0
   -6.1470    0.2280   -1.3820 C   0  0  0  0  0  0  0  0  0  0  0  0
   -6.0800   -1.0140   -1.0570 C   0  0  0  0  0  0  0  0  0  0  0  0
   -5.0400   -1.5760   -0.2450 C   0  0  0  0  0  0  0  0  0  0  0  0
   -4.0180   -0.9290    0.2830 C   0  0  0  0  0  0  0  0  0  0  0  0
   -3.0970   -1.6870    1.0590 C   0  0  0  0  0  0  0  0  0  0  0  0
   -2.0450   -1.5150    1.7090 C   0  0  0  0  0  0  0  0  0  0  0  0
   -1.1130   -0.5490    2.1010 C   0  0  0  0  0  0  0  0  0  0  0  0
   -0.1360   -1.0920    2.8710 O   0  0  0  0  0  0  0  0  0  0  0  0
   -0.9160    0.8150    1.9140 N   0  0  0  0  0  0  0  0  0  0  0  0
    0.2350    1.5160    2.5080 C   0  0  0  0  0  0  0  0  0  0  0  0
    1.5490    0.9960    2.0430 C   0  0  0  0  0  0  0  0  0  0  0  0
    1.6520    1.1460    0.5390 C   0  0  2  0  0  0  0  0  0  0  0  0
    0.6140    0.4120   -0.0370 O   0  0  0  0  0  0  0  0  0  0  0  0
    2.9370    0.5790    0.0660 C   0  0  0  0  0  0  0  0  0  0  0  0
    3.1740   -0.7900    0.0290 C   0  0  0  0  0  0  0  0  0  0  0  0
    4.4140   -1.2530   -0.4300 C   0  0  0  0  0  0  0  0  0  0  0  0
    5.3900   -0.3830   -0.8400 C   0  0  0  0  0  0  0  0  0  0  0  0
    6.6620   -0.8990   -1.3090 C   0  0  0  0  0  0  0  0  0  0  0  0
    6.8920   -2.1430   -1.3490 O   0  0  0  0  0  0  0  0  0  0  0  0
    7.6970   -0.0780   -1.7400 O   0  0  0  0  0  0  0  0  0  0  0  0
    8.8730   -0.5510   -2.1740 O   0  0  0  0  0  0  0  0  0  0  0  0
    5.1660    0.9730   -0.8070 C   0  0  0  0  0  0  0  0  0  0  0  0
    3.9250    1.4280   -0.3470 C   0  0  0  0  0  0  0  0  0  0  0  0
   -3.7480    0.5120    0.1570 C   0  0  0  0  0  0  0  0  0  0  0  0
   -4.9300    1.3680   -0.8530 S   0  0  0  0  0  0  0  0  0  0  0  0
  1  2  1  0
  2  3  2  0
  2 26  1  0
  3  4  1  0
  4  5  2  0
  5  6  1  0
  5 25  1  0
  6  7  2  3
  7  8  1  0
  8  9  2  0
  8 10  1  0
 10 11  1  0
 11 12  1  0
 12 13  1  0
 13 14  1  6
 13 15  1  0
 15 16  2  0
 15 24  1  0
 16 17  1  0
 17 18  2  0
 18 19  1  0
 18 23  1  0
 19 20  2  0
 19 21  1  0
 21 22  1  0
 23 24  2  0
 25 26  1  0
M  END
