
     RDKit          3D

 26 28  0  0  0  0  0  0  0  0999 V2000
   -5.1800    3.4970   -1.9860 O   0  0  0  0  0  0  0  0  0  0  0  0
   -5.9460    3.2550   -1.0220 C   0  0  0  0  0  0  0  0  0  0  0  0
   -7.1600    3.9690   -0.9800 O   0  0  0  0  0  0  0  0  0  0  0  0
   -5.6380    2.3460   -0.0480 O   0  0  0  0  0  0  0  0  0  0  0  0
   -4.4440    1.6120   -0.0500 C   0  0  0  0  0  0  0  0  0  0  0  0
   -4.2780    0.7270   -1.2570 C   0  0  0  0  0  0  0  0  0  0  0  0
   -3.0440   -0.0280   -1.2420 N   0  0  0  0  0  0  0  0  0  0  0  0
   -2.7500   -1.1020   -0.3840 C   0  0  0  0  0  0  0  0  0  0  0  0
   -3.7090   -1.6030    0.4430 C   0  0  0  0  0  0  0  0  0  0  0  0
   -3.4710   -2.6840    1.3020 C   0  0  0  0  0  0  0  0  0  0  0  0
   -2.2310   -3.2270    1.2820 C   0  0  0  0  0  0  0  0  0  0  0  0
   -1.2530   -2.7330    0.4530 C   0  0  0  0  0  0  0  0  0  0  0  0
   -1.4650   -1.6780   -0.3910 C   0  0  0  0  0  0  0  0  0  0  0  0
   -0.5410   -1.1350   -1.2460 O   0  0  0  0  0  0  0  0  0  0  0  0
    0.7820   -1.4900   -1.4250 C   0  0  0  0  0  0  0  0  0  0  0  0
    1.5880   -1.2220   -0.2060 C   0  0  0  0  0  0  0  0  0  0  0  0
    3.0480   -1.6220   -0.3690 C   0  0  1  0  0  0  0  0  0  0  0  0
    3.7350   -0.9020   -1.4750 C   0  0  0  0  0  0  0  0  0  0  0  0
    5.0240   -0.4100   -1.1510 O   0  0  0  0  0  0  0  0  0  0  0  0
    5.2790    0.4990   -0.1380 C   0  0  0  0  0  0  0  0  0  0  0  0
    5.9900    1.6570   -0.2600 C   0  0  0  0  0  0  0  0  0  0  0  0
    6.1850    2.4990    0.8260 C   0  0  0  0  0  0  0  0  0  0  0  0
    5.6600    2.1820    2.0580 C   0  0  0  0  0  0  0  0  0  0  0  0
    4.9400    1.0140    2.1910 C   0  0  0  0  0  0  0  0  0  0  0  0
    4.7580    0.1890    1.1010 C   0  0  0  0  0  0  0  0  0  0  0  0
    3.8400   -1.3420    1.2390 S   0  0  0  0  0  0  0  0  0  0  0  0
  1  2  2  0
  2  3  1  0
  2  4  1  0
  4  5  1  0
  5  6  1  0
  6  7  1  0
  7  8  1  0
  8  9  2  0
  8 13  1  0
  9 10  1  0
 10 11  2  0
 11 12  1  0
 12 13  2  0
 13 14  1  0
 14 15  1  0
 15 16  1  0
 17 16  1  1
 17 18  1  0
 17 26  1  0
 18 19  1  0
 19 20  1  0
 20 21  2  0
 20 25  1  0
 21 22  1  0
 22 23  2  0
 23 24  1  0
 24 25  2  0
 25 26  1  0
M  END
