
     RDKit          3D

 26 27  0  0  0  0  0  0  0  0999 V2000
   -0.7750    4.6570    0.5820 C   0  0  0  0  0  0  0  0  0  0  0  0
   -0.4850    3.6270   -0.5640 C   0  0  0  0  0  0  0  0  0  0  0  0
   -1.5770    2.6760   -0.5060 C   0  0  0  0  0  0  0  0  0  0  0  0
   -1.6610    1.4320   -0.4210 C   0  0  0  0  0  0  0  0  0  0  0  0
   -0.9050    0.2410   -0.3530 C   0  0  0  0  0  0  0  0  0  0  0  0
   -1.6640   -0.9190   -0.0960 C   0  0  0  0  0  0  0  0  0  0  0  0
   -3.0180   -0.9620    0.0870 N   0  0  0  0  0  0  0  0  0  0  0  0
   -3.6350   -2.2730    0.3420 C   0  0  0  0  0  0  0  0  0  0  0  0
   -2.8760   -3.2600    0.3750 O   0  0  0  0  0  0  0  0  0  0  0  0
   -5.0890   -2.3250    0.5390 C   0  0  2  0  0  0  0  0  0  0  0  0
   -5.4220   -1.4030    1.7150 C   0  0  0  0  0  0  0  0  0  0  0  0
   -5.5550   -3.6270    0.7740 O   0  0  0  0  0  0  0  0  0  0  0  0
   -6.5310   -4.2220   -0.0440 C   0  0  0  0  0  0  0  0  0  0  0  0
   -6.9560   -3.5130   -0.9960 O   0  0  0  0  0  0  0  0  0  0  0  0
    0.4650   -0.1490   -0.5030 C   0  0  0  0  0  0  0  0  0  0  0  0
    1.6270    0.2270   -0.7990 C   0  0  0  0  0  0  0  0  0  0  0  0
    2.2140    1.4570   -1.2210 C   0  0  0  0  0  0  0  0  0  0  0  0
    3.4620    1.8430   -1.2500 C   0  0  0  0  0  0  0  0  0  0  0  0
    4.5530    1.0070   -0.8460 C   0  0  0  0  0  0  0  0  0  0  0  0
    5.8360    1.3030   -0.7980 O   0  0  0  0  0  0  0  0  0  0  0  0
    6.5630    0.3290   -0.3680 C   0  0  0  0  0  0  0  0  0  0  0  0
    5.7160   -0.7250   -0.0980 C   0  0  0  0  0  0  0  0  0  0  0  0
    6.0170   -1.9770    0.3810 O   0  0  0  0  0  0  0  0  0  0  0  0
    7.3590   -2.3320    0.6700 C   0  0  0  0  0  0  0  0  0  0  0  0
    4.4490   -0.2700   -0.4120 C   0  0  0  0  0  0  0  0  0  0  0  0
    2.9070   -1.0880   -0.4590 S   0  0  0  0  0  0  0  0  0  0  0  0
  1  2  1  0
  2  3  1  0
  3  4  2  3
  4  5  1  0
  5  6  2  3
  5 15  1  0
  6  7  1  0
  7  8  1  0
  8  9  2  0
  8 10  1  0
 10 11  1  1
 10 12  1  0
 12 13  1  0
 13 14  2  0
 15 16  2  3
 16 17  1  0
 16 26  1  0
 17 18  2  0
 18 19  1  0
 19 20  1  0
 19 25  2  0
 20 21  1  0
 21 22  2  0
 22 23  1  0
 22 25  1  0
 23 24  1  0
 25 26  1  0
M  END
