
     RDKit          3D

 26 27  0  0  0  0  0  0  0  0999 V2000
   -5.5430   -1.0170    1.9800 C   0  0  0  0  0  0  0  0  0  0  0  0
   -5.8150   -0.4900    0.6110 C   0  0  2  0  0  0  0  0  0  0  0  0
   -4.7870   -0.9500   -0.3810 C   0  0  0  0  0  0  0  0  0  0  0  0
   -3.3720   -0.6240   -0.0800 C   0  0  0  0  0  0  0  0  0  0  0  0
   -2.5720   -1.6790    0.0160 C   0  0  0  0  0  0  0  0  0  0  0  0
   -1.1670   -1.6550    0.2830 C   0  0  0  0  0  0  0  0  0  0  0  0
   -0.4690   -0.5430    0.4610 C   0  0  0  0  0  0  0  0  0  0  0  0
    0.9530   -0.6280    0.7350 C   0  0  0  0  0  0  0  0  0  0  0  0
    1.8880   -0.0560   -0.2660 C   0  0  2  0  0  0  0  0  0  0  0  0
    3.3250   -0.2630    0.1760 C   0  0  0  0  0  0  0  0  0  0  0  0
    3.6190   -0.8410    1.2470 O   0  0  0  0  0  0  0  0  0  0  0  0
    4.3700    0.1910   -0.6050 O   0  0  0  0  0  0  0  0  0  0  0  0
    5.7190    0.0520   -0.2900 C   0  0  2  0  0  0  0  0  0  0  0  0
    6.5240    0.6830   -1.4070 C   0  0  0  0  0  0  0  0  0  0  0  0
    6.1380   -1.4010   -0.1490 C   0  0  0  0  0  0  0  0  0  0  0  0
    6.1120    0.7490    0.9910 C   0  0  0  0  0  0  0  0  0  0  0  0
    1.7300    1.4140   -0.4560 C   0  0  0  0  0  0  0  0  0  0  0  0
    1.3670    1.5610   -1.9010 C   0  0  0  0  0  0  0  0  0  0  0  0
    1.9050    0.4380   -2.5290 O   0  0  0  0  0  0  0  0  0  0  0  0
    1.7490   -0.6250   -1.6380 C   0  0  0  0  0  0  0  0  0  0  0  0
   -1.2600    1.0220    0.3060 S   0  0  0  0  0  0  0  0  0  0  0  0
   -3.0330    0.7720    0.1500 C   0  0  0  0  0  0  0  0  0  0  0  0
   -6.1280    0.8780    0.4660 N   0  0  0  0  0  0  0  0  0  0  0  0
   -7.3160    1.3110   -0.2360 C   0  0  0  0  0  0  0  0  0  0  0  0
   -8.0620    0.4510   -0.7130 O   0  0  0  0  0  0  0  0  0  0  0  0
   -7.5330    2.6800   -0.3220 O   0  0  0  0  0  0  0  0  0  0  0  0
  2  1  1  1
  2  3  1  0
  2 23  1  0
  3  4  1  0
  4  5  2  0
  4 22  1  0
  5  6  1  0
  6  7  2  0
  7  8  1  0
  7 21  1  0
  9  8  1  1
  9 10  1  0
  9 17  1  0
  9 20  1  0
 10 11  2  0
 10 12  1  0
 12 13  1  0
 13 14  1  6
 13 15  1  0
 13 16  1  0
 17 18  1  0
 18 19  1  0
 19 20  1  0
 21 22  1  0
 23 24  1  0
 24 25  2  0
 24 26  1  0
M  END
