
     RDKit          3D

 26 27  0  0  0  0  0  0  0  0999 V2000
    7.9470    1.9760    1.2820 C   0  0  0  0  0  0  0  0  0  0  0  0
    8.1910    0.7120    1.1360 C   0  0  0  0  0  0  0  0  0  0  0  0
    7.2840   -0.3290    0.7050 C   0  0  0  0  0  0  0  0  0  0  0  0
    7.7750   -1.5530    0.6290 C   0  0  0  0  0  0  0  0  0  0  0  0
    5.9060   -0.0630    0.3700 C   0  0  0  0  0  0  0  0  0  0  0  0
    5.4160    1.1020    0.4420 O   0  0  0  0  0  0  0  0  0  0  0  0
    5.0040   -1.0750   -0.0660 N   0  0  0  0  0  0  0  0  0  0  0  0
    3.6390   -0.8770   -0.4050 C   0  0  0  0  0  0  0  0  0  0  0  0
    3.0350   -1.7440   -1.3300 C   0  0  0  0  0  0  0  0  0  0  0  0
    1.7410   -1.5720   -1.6520 C   0  0  0  0  0  0  0  0  0  0  0  0
    0.9150   -0.5760   -1.1320 C   0  0  0  0  0  0  0  0  0  0  0  0
   -0.4520   -0.4370   -1.5480 C   0  0  0  0  0  0  0  0  0  0  0  0
   -0.8800   -1.2310   -2.4250 O   0  0  0  0  0  0  0  0  0  0  0  0
   -1.4350    0.5610   -1.0500 C   0  0  0  0  0  0  0  0  0  0  0  0
   -2.5560   -0.1410   -0.1100 S   0  0  0  0  0  0  0  0  0  0  0  0
   -1.5120    0.0100    1.2330 O   0  0  0  0  0  0  0  0  0  0  0  0
   -2.2370   -1.8090    0.4110 O   0  0  0  0  0  0  0  0  0  0  0  0
   -3.7230    0.6370    0.7890 C   0  0  0  0  0  0  0  0  0  0  0  0
   -5.0460    0.8480    0.0050 C   0  0  2  0  0  0  0  0  0  0  0  0
   -5.9610    1.7320    0.8240 C   0  0  0  0  0  0  0  0  0  0  0  0
   -7.2470    1.9580    0.0800 C   0  0  0  0  0  0  0  0  0  0  0  0
   -5.6060   -0.5500   -0.1460 C   0  0  0  0  0  0  0  0  0  0  0  0
   -4.5390   -1.4320   -0.6970 C   0  0  0  0  0  0  0  0  0  0  0  0
   -3.3810   -0.6840   -0.9990 O   0  0  0  0  0  0  0  0  0  0  0  0
    1.5370    0.2590   -0.2240 C   0  0  0  0  0  0  0  0  0  0  0  0
    2.8830    0.1000    0.1270 C   0  0  0  0  0  0  0  0  0  0  0  0
  1  2  2  0
  2  3  1  0
  3  4  2  0
  3  5  1  0
  5  6  2  0
  5  7  1  0
  7  8  1  0
  8  9  2  0
  8 26  1  0
  9 10  1  0
 10 11  2  0
 11 12  1  0
 11 25  1  0
 12 13  2  0
 12 14  1  0
 14 15  1  0
 15 16  2  0
 15 17  1  0
 15 18  1  0
 15 24  1  0
 18 19  1  0
 19 20  1  1
 19 22  1  0
 20 21  1  0
 22 23  1  0
 23 24  1  0
 25 26  2  0
M  END
