
     RDKit          3D

 26 28  0  0  0  0  0  0  0  0999 V2000
   -7.8860   -0.8180   -0.4580 C   0  0  0  0  0  0  0  0  0  0  0  0
   -6.8250    0.1140    0.1070 C   0  0  0  0  0  0  0  0  0  0  0  0
   -5.6040   -0.1250   -0.5430 O   0  0  0  0  0  0  0  0  0  0  0  0
   -4.4980    0.6230   -0.1720 C   0  0  0  0  0  0  0  0  0  0  0  0
   -4.4780    1.6180    0.8140 C   0  0  0  0  0  0  0  0  0  0  0  0
   -3.1920    2.0930    0.8530 C   0  0  0  0  0  0  0  0  0  0  0  0
   -2.4720    1.4520   -0.0290 O   0  0  0  0  0  0  0  0  0  0  0  0
   -3.2120    0.5670   -0.6620 C   0  0  0  0  0  0  0  0  0  0  0  0
   -2.7380   -0.3360   -1.7240 C   0  0  0  0  0  0  0  0  0  0  0  0
   -0.9700   -0.0370   -2.0200 S   0  0  0  0  0  0  0  0  0  0  0  0
   -0.0060   -0.5200   -0.5930 C   0  0  0  0  0  0  0  0  0  0  0  0
   -0.6570   -1.0680    0.4860 C   0  0  0  0  0  0  0  0  0  0  0  0
    0.1040   -1.4260    1.5750 C   0  0  0  0  0  0  0  0  0  0  0  0
    1.4630   -1.2360    1.5670 C   0  0  0  0  0  0  0  0  0  0  0  0
    2.1570   -0.6780    0.4820 C   0  0  0  0  0  0  0  0  0  0  0  0
    3.5510   -0.5450    0.5920 N   0  0  0  0  0  0  0  0  0  0  0  0
    4.3810    0.2110   -0.2380 C   0  0  0  0  0  0  0  0  0  0  0  0
    3.8670    0.8540   -1.1880 O   0  0  0  0  0  0  0  0  0  0  0  0
    5.8560    0.2830   -0.0400 C   0  0  0  0  0  0  0  0  0  0  0  0
    6.5030   -0.4080    0.9480 C   0  0  0  0  0  0  0  0  0  0  0  0
    7.8860   -0.3260    1.1170 C   0  0  0  0  0  0  0  0  0  0  0  0
    8.5630    0.4390    0.2970 O   0  0  0  0  0  0  0  0  0  0  0  0
    7.9860    1.1220   -0.6670 C   0  0  0  0  0  0  0  0  0  0  0  0
    8.7000    1.8500   -1.4350 O   0  0  0  0  0  0  0  0  0  0  0  0
    6.6200    1.0770   -0.8790 C   0  0  0  0  0  0  0  0  0  0  0  0
    1.3690   -0.3350   -0.5830 C   0  0  0  0  0  0  0  0  0  0  0  0
  1  2  1  0
  2  3  1  0
  3  4  1  0
  4  5  1  0
  4  8  2  0
  5  6  2  0
  6  7  1  0
  7  8  1  0
  8  9  1  0
  9 10  1  0
 10 11  1  0
 11 12  2  0
 11 26  1  0
 12 13  1  0
 13 14  2  0
 14 15  1  0
 15 16  1  0
 15 26  2  0
 16 17  1  0
 17 18  2  0
 17 19  1  0
 19 20  1  0
 19 25  2  0
 20 21  2  0
 21 22  1  0
 22 23  1  0
 23 24  2  0
 23 25  1  0
M  END
