
     RDKit          3D

 25 27  0  0  0  0  0  0  0  0999 V2000
    6.9280   -0.5370   -0.0300 C   0  0  0  0  0  0  0  0  0  0  0  0
    6.0500    0.6410    0.3170 C   0  0  0  0  0  0  0  0  0  0  0  0
    4.5880    0.2690    0.4220 C   0  0  2  0  0  0  0  0  0  0  0  0
    4.2360   -0.7570    1.4500 C   0  0  0  0  0  0  0  0  0  0  0  0
    3.0400   -1.1700    0.6060 C   0  0  1  0  0  0  0  0  0  0  0  0
    1.8560   -0.2640    0.7600 C   0  0  0  0  0  0  0  0  0  0  0  0
    1.9160    0.7050    1.5170 O   0  0  0  0  0  0  0  0  0  0  0  0
    0.7140   -0.5770    0.0150 N   0  0  0  0  0  0  0  0  0  0  0  0
   -0.4910    0.1780    0.0460 C   0  0  0  0  0  0  0  0  0  0  0  0
   -0.7010    1.2980    0.8030 C   0  0  0  0  0  0  0  0  0  0  0  0
   -1.9300    1.9780    0.7670 C   0  0  0  0  0  0  0  0  0  0  0  0
   -2.9380    1.5050   -0.0440 C   0  0  0  0  0  0  0  0  0  0  0  0
   -2.7740    0.3810   -0.8240 C   0  0  0  0  0  0  0  0  0  0  0  0
   -3.7550   -0.1230   -1.6470 O   0  0  0  0  0  0  0  0  0  0  0  0
   -5.0350    0.3710   -1.8390 C   0  0  0  0  0  0  0  0  0  0  0  0
   -5.7890    0.3520   -0.5610 C   0  0  0  0  0  0  0  0  0  0  0  0
   -5.3940   -0.2940    0.5780 C   0  0  0  0  0  0  0  0  0  0  0  0
   -6.3660   -0.0640    1.5260 C   0  0  0  0  0  0  0  0  0  0  0  0
   -7.3230    0.7200    0.9250 C   0  0  0  0  0  0  0  0  0  0  0  0
   -6.9440    0.9440   -0.3090 O   0  0  0  0  0  0  0  0  0  0  0  0
   -1.5610   -0.2560   -0.7630 C   0  0  0  0  0  0  0  0  0  0  0  0
   -1.3690   -1.4790   -1.6070 C   0  0  0  0  0  0  0  0  0  0  0  0
    3.9860   -0.7950   -0.8290 S   0  0  1  0  0  0  0  0  0  0  0  0
    3.2330   -0.1350   -1.9440 O   0  0  0  0  0  0  0  0  0  0  0  0
    4.8450   -1.9350   -1.2250 O   0  0  0  0  0  0  0  0  0  0  0  0
  1  2  1  0
  3  2  1  6
  3  4  1  0
 23  3  1  1
  4  5  1  0
  5  6  1  1
  5 23  1  0
  6  7  2  0
  6  8  1  0
  8  9  1  0
  9 10  2  0
  9 21  1  0
 10 11  1  0
 11 12  2  0
 12 13  1  0
 13 14  1  0
 13 21  2  0
 14 15  1  0
 15 16  1  0
 16 17  2  0
 16 20  1  0
 17 18  1  0
 18 19  2  0
 19 20  1  0
 21 22  1  0
 23 24  2  0
 23 25  2  0
M  END
