
     RDKit          3D

 26 28  0  0  0  0  0  0  0  0999 V2000
    0.3190   -1.8480    1.1440 O   0  0  0  0  0  0  0  0  0  0  0  0
    0.2240   -2.6510    0.1820 C   0  0  0  0  0  0  0  0  0  0  0  0
   -1.0680   -3.1900   -0.0140 O   0  0  0  0  0  0  0  0  0  0  0  0
   -2.1420   -2.8500    0.8000 C   0  0  0  0  0  0  0  0  0  0  0  0
   -2.5780   -1.4410    0.8250 C   0  0  0  0  0  0  0  0  0  0  0  0
   -3.0990   -0.8360   -0.4210 C   0  0  2  0  0  0  0  0  0  0  0  0
   -2.1200   -0.8450   -1.5440 C   0  0  0  0  0  0  0  0  0  0  0  0
   -1.1800    0.1600   -1.0980 O   0  0  0  0  0  0  0  0  0  0  0  0
   -1.9880    1.1800   -0.5760 C   0  0  0  0  0  0  0  0  0  0  0  0
   -1.7470    2.5320   -0.4510 C   0  0  0  0  0  0  0  0  0  0  0  0
   -2.7310    3.3260    0.1060 C   0  0  0  0  0  0  0  0  0  0  0  0
   -3.9300    2.7880    0.5320 C   0  0  0  0  0  0  0  0  0  0  0  0
   -4.1700    1.4440    0.4090 C   0  0  0  0  0  0  0  0  0  0  0  0
   -3.1880    0.6550   -0.1470 C   0  0  0  0  0  0  0  0  0  0  0  0
    1.3370   -3.0090   -0.6690 C   0  0  0  0  0  0  0  0  0  0  0  0
    1.1990   -4.1490   -2.0320 S   0  0  0  0  0  0  0  0  0  0  0  0
    2.5170   -2.4730   -0.4350 C   0  0  0  0  0  0  0  0  0  0  0  0
    2.6900   -1.5630    0.6300 N   0  0  0  0  0  0  0  0  0  0  0  0
    2.9740   -0.2110    0.3640 C   0  0  0  0  0  0  0  0  0  0  0  0
    3.0950    0.2860   -0.9250 C   0  0  0  0  0  0  0  0  0  0  0  0
    3.3690    1.5910   -1.1970 C   0  0  0  0  0  0  0  0  0  0  0  0
    3.5380    2.4790   -0.1600 C   0  0  0  0  0  0  0  0  0  0  0  0
    3.8180    3.8170   -0.3680 O   0  0  0  0  0  0  0  0  0  0  0  0
    5.0490    4.2260   -0.7350 O   0  0  0  0  0  0  0  0  0  0  0  0
    3.4290    2.0390    1.1500 C   0  0  0  0  0  0  0  0  0  0  0  0
    3.1460    0.6890    1.3870 C   0  0  0  0  0  0  0  0  0  0  0  0
  1  2  2  0
  2  3  1  0
  2 15  1  0
  3  4  1  0
  4  5  1  0
  6  5  1  1
  6  7  1  0
  6 14  1  0
  7  8  1  0
  8  9  1  0
  9 10  2  0
  9 14  1  0
 10 11  1  0
 11 12  2  0
 12 13  1  0
 13 14  2  0
 15 16  1  0
 15 17  2  3
 17 18  1  0
 18 19  1  0
 19 20  2  0
 19 26  1  0
 20 21  1  0
 21 22  2  0
 22 23  1  0
 22 25  1  0
 23 24  1  0
 25 26  2  0
M  END
