
     RDKit          3D

 25 27  0  0  0  0  0  0  0  0999 V2000
    4.9310    1.2530   -1.5640 C   0  0  0  0  0  0  0  0  0  0  0  0
    3.8260    0.9420   -0.9080 C   0  0  0  0  0  0  0  0  0  0  0  0
    3.8190    0.6760    0.5250 C   0  0  0  0  0  0  0  0  0  0  0  0
    2.6960    0.3610    1.1630 C   0  0  0  0  0  0  0  0  0  0  0  0
    2.4010    0.0490    2.5780 C   0  0  0  0  0  0  0  0  0  0  0  0
    1.1350   -0.6240    2.1400 C   0  0  0  0  0  0  0  0  0  0  0  0
    1.2700    0.1660    0.8580 C   0  0  2  0  0  0  0  0  0  0  0  0
    0.9510   -0.5960   -0.3280 N   0  0  0  0  0  0  0  0  0  0  0  0
   -0.4090   -0.7520   -0.6700 C   0  0  0  0  0  0  0  0  0  0  0  0
   -1.4060   -0.2180    0.0700 N   0  0  0  0  0  0  0  0  0  0  0  0
   -2.6930   -0.3440   -0.2210 C   0  0  0  0  0  0  0  0  0  0  0  0
   -3.0560   -1.0580   -1.3380 C   0  0  0  0  0  0  0  0  0  0  0  0
   -4.4390   -1.0390   -1.4140 C   0  0  0  0  0  0  0  0  0  0  0  0
   -4.8480   -0.3240   -0.3550 N   0  0  0  0  0  0  0  0  0  0  0  0
   -3.8250    0.0960    0.3640 N   0  0  0  0  0  0  0  0  0  0  0  0
   -3.8190    0.8910    1.5770 C   0  0  0  0  0  0  0  0  0  0  0  0
   -3.7570    2.3500    1.1780 C   0  0  0  0  0  0  0  0  0  0  0  0
   -2.0970   -1.6120   -2.1100 N   0  0  0  0  0  0  0  0  0  0  0  0
   -2.5570   -2.3530   -3.2740 C   0  0  0  0  0  0  0  0  0  0  0  0
   -0.8080   -1.4730   -1.8000 C   0  0  0  0  0  0  0  0  0  0  0  0
    0.0770   -1.9860   -2.5140 O   0  0  0  0  0  0  0  0  0  0  0  0
    5.1230    0.7780    1.2340 C   0  0  2  0  0  0  0  0  0  0  0  0
    5.9920   -0.1360    0.6550 F   0  0  0  0  0  0  0  0  0  0  0  0
    5.0560    0.4810    2.5640 F   0  0  0  0  0  0  0  0  0  0  0  0
    5.5620    2.0930    1.0260 F   0  0  0  0  0  0  0  0  0  0  0  0
  1  2  2  0
  2  3  1  0
  3  4  2  3
  3 22  1  0
  4  5  1  0
  4  7  1  0
  5  6  1  0
  6  7  1  0
  7  8  1  6
  8  9  1  0
  9 10  2  0
  9 20  1  0
 10 11  1  0
 11 12  2  0
 11 15  1  0
 12 13  1  0
 12 18  1  0
 13 14  2  0
 14 15  1  0
 15 16  1  0
 16 17  1  0
 18 19  1  0
 18 20  1  0
 20 21  2  0
 22 23  1  6
 22 24  1  0
 22 25  1  0
M  END
