
     RDKit          3D

 25 26  0  0  0  0  0  0  0  0999 V2000
    2.1460   -2.6980    1.2420 C   0  0  0  0  0  0  0  0  0  0  0  0
    1.7590   -1.5360    0.4270 N   0  0  0  0  0  0  0  0  0  0  0  0
    0.3970   -1.3570   -0.0190 C   0  0  0  0  0  0  0  0  0  0  0  0
   -0.5600   -1.0240    1.1010 C   0  0  2  0  0  0  0  0  0  0  0  0
   -0.5030   -2.0680    2.0240 O   0  0  0  0  0  0  0  0  0  0  0  0
   -1.9590   -0.9350    0.5940 C   0  0  0  0  0  0  0  0  0  0  0  0
   -2.5760   -2.1310    0.2650 C   0  0  0  0  0  0  0  0  0  0  0  0
   -3.8370   -2.0660   -0.1930 N   0  0  0  0  0  0  0  0  0  0  0  0
   -4.4710   -0.8900   -0.3260 C   0  0  0  0  0  0  0  0  0  0  0  0
   -3.8530    0.3130    0.0030 C   0  0  0  0  0  0  0  0  0  0  0  0
   -4.5770    1.5200   -0.1530 N   0  0  0  0  0  0  0  0  0  0  0  0
   -5.9360    1.5050   -0.6030 C   0  0  0  0  0  0  0  0  0  0  0  0
   -3.9430    2.7870    0.1370 C   0  0  0  0  0  0  0  0  0  0  0  0
   -2.5820    0.2420    0.4640 N   0  0  0  0  0  0  0  0  0  0  0  0
    2.8090   -0.6290    0.1190 C   0  0  0  0  0  0  0  0  0  0  0  0
    2.7830    0.5900    0.5590 C   0  0  0  0  0  0  0  0  0  0  0  0
    3.8290    1.6130    0.2920 C   0  0  0  0  0  0  0  0  0  0  0  0
    3.7140    2.7610    0.7650 N   0  0  0  0  0  0  0  0  0  0  0  0
    4.3060    3.8780    0.8020 F   0  0  0  0  0  0  0  0  0  0  0  0
    4.9480    1.1800   -0.5260 C   0  0  0  0  0  0  0  0  0  0  0  0
    5.9630    1.9150   -0.8740 C   0  0  0  0  0  0  0  0  0  0  0  0
    6.1160    3.1910   -0.5200 F   0  0  0  0  0  0  0  0  0  0  0  0
    6.9490    1.3890   -1.6500 F   0  0  0  0  0  0  0  0  0  0  0  0
    4.9250   -0.2060   -0.9950 C   0  0  0  0  0  0  0  0  0  0  0  0
    3.9460   -1.0270   -0.6970 C   0  0  0  0  0  0  0  0  0  0  0  0
  1  2  1  0
  2  3  1  0
  2 15  1  0
  3  4  1  0
  4  5  1  1
  4  6  1  0
  6  7  2  0
  6 14  1  0
  7  8  1  0
  8  9  2  0
  9 10  1  0
 10 11  1  0
 10 14  2  0
 11 12  1  0
 11 13  1  0
 15 16  2  0
 15 25  1  0
 16 17  1  0
 17 18  2  3
 17 20  1  0
 18 19  1  0
 20 21  2  3
 20 24  1  0
 21 22  1  0
 21 23  1  0
 24 25  2  0
M  END
