
     RDKit          3D

 25 27  0  0  0  0  0  0  0  0999 V2000
   -2.0390    1.1000   -1.4340 O   0  0  0  0  0  0  0  0  0  0  0  0
   -1.5300   -0.1360   -1.2140 C   0  0  2  0  0  0  0  0  0  0  0  0
   -2.5120   -1.0580   -0.5520 C   0  0  0  0  0  0  0  0  0  0  0  0
   -3.6510   -0.7370   -0.0000 C   0  0  0  0  0  0  0  0  0  0  0  0
   -4.3080   -1.9650    0.5370 C   0  0  0  0  0  0  0  0  0  0  0  0
   -3.3650   -3.0360    0.2050 C   0  0  0  0  0  0  0  0  0  0  0  0
   -2.3260   -2.4910   -0.4290 C   0  0  0  0  0  0  0  0  0  0  0  0
   -0.2370   -0.2120   -0.5120 C   0  0  0  0  0  0  0  0  0  0  0  0
    0.8390   -0.9770   -0.8840 N   0  0  0  0  0  0  0  0  0  0  0  0
    1.8290   -0.8560    0.0160 C   0  0  0  0  0  0  0  0  0  0  0  0
    3.1400   -1.5100   -0.0170 C   0  0  0  0  0  0  0  0  0  0  0  0
    3.5030   -2.3660   -1.0420 C   0  0  0  0  0  0  0  0  0  0  0  0
    4.7430   -2.9270   -0.9850 C   0  0  0  0  0  0  0  0  0  0  0  0
    5.5890   -2.6400    0.0610 C   0  0  0  0  0  0  0  0  0  0  0  0
    5.1820   -1.8060    1.0200 N   0  0  0  0  0  0  0  0  0  0  0  0
    3.9960   -1.2640    0.9750 N   0  0  0  0  0  0  0  0  0  0  0  0
    1.3900   -0.0290    0.9420 N   0  0  0  0  0  0  0  0  0  0  0  0
    0.1360    0.3620    0.6180 N   0  0  0  0  0  0  0  0  0  0  0  0
   -0.5280    1.3210    1.4620 C   0  0  0  0  0  0  0  0  0  0  0  0
   -0.0570    2.7200    1.2610 C   0  0  0  0  0  0  0  0  0  0  0  0
   -0.2410    3.3020   -0.1030 C   0  0  0  0  0  0  0  0  0  0  0  0
    0.3360    4.7170   -0.1050 C   0  0  1  0  0  0  0  0  0  0  0  0
    0.1680    5.2570   -1.3650 F   0  0  0  0  0  0  0  0  0  0  0  0
   -0.3930    5.4840    0.7880 F   0  0  0  0  0  0  0  0  0  0  0  0
    1.6500    4.7010    0.2510 F   0  0  0  0  0  0  0  0  0  0  0  0
  2  1  1  1
  2  3  1  0
  2  8  1  0
  3  4  2  0
  3  7  1  0
  4  5  1  0
  5  6  1  0
  6  7  2  0
  8  9  2  0
  8 18  1  0
  9 10  1  0
 10 11  1  0
 10 17  2  0
 11 12  2  0
 11 16  1  0
 12 13  1  0
 13 14  2  0
 14 15  1  0
 15 16  2  0
 17 18  1  0
 18 19  1  0
 19 20  1  0
 20 21  1  0
 21 22  1  0
 22 23  1  6
 22 24  1  0
 22 25  1  0
M  END
