
     RDKit          3D

 25 26  0  0  0  0  0  0  0  0999 V2000
   -0.5980    1.4770    1.4540 C   0  0  0  0  0  0  0  0  0  0  0  0
   -1.4420    0.5110    0.7030 C   0  0  1  0  0  0  0  0  0  0  0  0
   -2.1030    1.0630   -0.5010 C   0  0  0  0  0  0  0  0  0  0  0  0
   -2.9730    0.1780   -1.2370 N   0  0  0  0  0  0  0  0  0  0  0  0
   -3.2300    0.7640   -2.5650 C   0  0  0  0  0  0  0  0  0  0  0  0
   -4.3360    0.2590   -0.5920 C   0  0  0  0  0  0  0  0  0  0  0  0
   -1.0400   -0.9040    0.6700 C   0  0  0  0  0  0  0  0  0  0  0  0
    0.2090   -1.3650    0.5620 C   0  0  0  0  0  0  0  0  0  0  0  0
    1.5460   -0.8100    0.4350 C   0  0  0  0  0  0  0  0  0  0  0  0
    1.7440    0.4450    0.3930 N   0  0  0  0  0  0  0  0  0  0  0  0
    3.0810    0.9280    0.2580 C   0  0  0  0  0  0  0  0  0  0  0  0
    3.8700    1.3830    1.3620 C   0  0  0  0  0  0  0  0  0  0  0  0
    3.5190    1.4270    2.6070 C   0  0  0  0  0  0  0  0  0  0  0  0
    4.4210    1.9010    3.5310 F   0  0  0  0  0  0  0  0  0  0  0  0
    2.3320    1.0270    3.0710 F   0  0  0  0  0  0  0  0  0  0  0  0
    3.6340    0.9480   -0.9630 C   0  0  0  0  0  0  0  0  0  0  0  0
    2.8660    0.4810   -2.1380 C   0  0  0  0  0  0  0  0  0  0  0  0
    3.4170   -0.5720   -2.7920 F   0  0  0  0  0  0  0  0  0  0  0  0
    2.6890   -1.6900    0.3470 N   0  0  0  0  0  0  0  0  0  0  0  0
    2.5800   -2.9720    0.3740 C   0  0  0  0  0  0  0  0  0  0  0  0
    1.3000   -3.5140    0.4960 N   0  0  0  0  0  0  0  0  0  0  0  0
    0.2050   -2.8510    0.5840 C   0  0  0  0  0  0  0  0  0  0  0  0
   -1.1410   -3.2710    0.7160 N   0  0  0  0  0  0  0  0  0  0  0  0
   -1.9190   -2.0900    0.7710 C   0  0  0  0  0  0  0  0  0  0  0  0
   -3.1440   -2.0970    0.8890 O   0  0  0  0  0  0  0  0  0  0  0  0
  2  1  1  6
  2  3  1  0
  2  7  1  0
  3  4  1  0
  4  5  1  0
  4  6  1  0
  7  8  2  0
  7 24  1  0
  8  9  1  0
  8 22  1  0
  9 10  2  3
  9 19  1  0
 10 11  1  0
 11 12  1  0
 11 16  2  3
 12 13  2  3
 13 14  1  0
 13 15  1  0
 16 17  1  0
 17 18  1  0
 19 20  2  0
 20 21  1  0
 21 22  2  0
 22 23  1  0
 23 24  1  0
 24 25  2  0
M  END
