
     RDKit          3D

 24 26  0  0  0  0  0  0  0  0999 V2000
    0.1570    0.8740   -2.4550 C   0  0  0  0  0  0  0  0  0  0  0  0
   -1.1420    0.5940   -1.8090 C   0  0  0  0  0  0  0  0  0  0  0  0
   -2.3240    0.9420   -2.1830 N   0  0  0  0  0  0  0  0  0  0  0  0
   -3.3030    0.4960   -1.3210 N   0  0  0  0  0  0  0  0  0  0  0  0
   -2.8040   -0.1800   -0.3190 C   0  0  0  0  0  0  0  0  0  0  0  0
   -3.4700   -0.7900    0.7580 N   0  0  0  0  0  0  0  0  0  0  0  0
   -4.1060   -0.1320    1.8650 C   0  0  0  0  0  0  0  0  0  0  0  0
   -5.4280   -0.9010    1.9470 C   0  0  0  0  0  0  0  0  0  0  0  0
   -5.1420   -2.2550    1.3150 C   0  0  0  0  0  0  0  0  0  0  0  0
   -3.6480   -2.1990    0.9690 C   0  0  0  0  0  0  0  0  0  0  0  0
   -1.3480   -0.1580   -0.5770 C   0  0  0  0  0  0  0  0  0  0  0  0
   -0.4300   -0.7190    0.1790 C   0  0  0  0  0  0  0  0  0  0  0  0
    0.8980   -0.6560   -0.1260 O   0  0  0  0  0  0  0  0  0  0  0  0
    1.7690    0.3270    0.2610 C   0  0  0  0  0  0  0  0  0  0  0  0
    1.5670    1.4570    1.0180 C   0  0  0  0  0  0  0  0  0  0  0  0
    2.7220    2.1340    1.1410 N   0  0  0  0  0  0  0  0  0  0  0  0
    3.6380    1.4520    0.4780 N   0  0  0  0  0  0  0  0  0  0  0  0
    3.1350    0.3440   -0.0830 C   0  0  0  0  0  0  0  0  0  0  0  0
    3.7640   -0.6820   -0.8860 C   0  0  0  0  0  0  0  0  0  0  0  0
    5.0320   -0.6540   -1.1980 C   0  0  0  0  0  0  0  0  0  0  0  0
    6.0170    0.3490   -0.8280 C   0  0  0  0  0  0  0  0  0  0  0  0
    7.2820    0.2670   -1.2060 C   0  0  0  0  0  0  0  0  0  0  0  0
    8.1740    1.2060   -0.8520 F   0  0  0  0  0  0  0  0  0  0  0  0
    7.6500   -0.7880   -1.9600 F   0  0  0  0  0  0  0  0  0  0  0  0
  1  2  1  0
  2  3  2  0
  2 11  1  0
  3  4  1  0
  4  5  2  0
  5  6  1  0
  5 11  1  0
  6  7  1  0
  6 10  1  0
  7  8  1  0
  8  9  1  0
  9 10  1  0
 11 12  2  3
 12 13  1  0
 13 14  1  0
 14 15  2  0
 14 18  1  0
 15 16  1  0
 16 17  1  0
 17 18  2  0
 18 19  1  0
 19 20  2  3
 20 21  1  0
 21 22  2  3
 22 23  1  0
 22 24  1  0
M  END
