
     RDKit          3D

 25 26  0  0  0  0  0  0  0  0999 V2000
    7.9470   -0.2310    0.7720 C   0  0  0  0  0  0  0  0  0  0  0  0
    6.6870    0.1460    0.7450 C   0  0  0  0  0  0  0  0  0  0  0  0
    5.6970   -0.6840    0.1180 C   0  0  0  0  0  0  0  0  0  0  0  0
    4.4220   -0.3230    0.0790 C   0  0  0  0  0  0  0  0  0  0  0  0
    3.4340   -1.1580   -0.5490 C   0  0  0  0  0  0  0  0  0  0  0  0
    3.7400   -2.3210   -1.1180 N   0  0  0  0  0  0  0  0  0  0  0  0
    2.8320   -3.0840   -1.6930 N   0  0  0  0  0  0  0  0  0  0  0  0
    1.5340   -2.6830   -1.7160 C   0  0  0  0  0  0  0  0  0  0  0  0
    1.1840   -1.4940   -1.1410 C   0  0  0  0  0  0  0  0  0  0  0  0
   -0.1170   -1.0630   -1.1470 O   0  0  0  0  0  0  0  0  0  0  0  0
   -0.4570    0.1650   -0.5500 C   0  0  0  0  0  0  0  0  0  0  0  0
   -1.9470    0.3630   -0.7160 C   0  0  2  0  0  0  0  0  0  0  0  0
   -2.4000    1.6110   -0.1290 N   0  0  0  0  0  0  0  0  0  0  0  0
   -3.6210    1.7350    0.5900 C   0  0  0  0  0  0  0  0  0  0  0  0
   -4.2170    2.9110    0.7760 C   0  0  0  0  0  0  0  0  0  0  0  0
   -3.6300    4.1660    0.2360 C   0  0  0  0  0  0  0  0  0  0  0  0
   -5.3780    2.9500    1.4720 F   0  0  0  0  0  0  0  0  0  0  0  0
   -4.2190    0.4900    1.1360 C   0  0  2  0  0  0  0  0  0  0  0  0
   -5.5550    0.6890    1.4550 F   0  0  0  0  0  0  0  0  0  0  0  0
   -3.5740    0.0860    2.2950 F   0  0  0  0  0  0  0  0  0  0  0  0
   -4.1110   -0.5670    0.0560 C   0  0  0  0  0  0  0  0  0  0  0  0
   -2.7060   -0.7570   -0.2270 N   0  0  0  0  0  0  0  0  0  0  0  0
   -2.0390   -1.9980   -0.0440 C   0  0  0  0  0  0  0  0  0  0  0  0
   -1.5080   -2.3290    1.1150 C   0  0  0  0  0  0  0  0  0  0  0  0
    2.1350   -0.7480   -0.5670 N   0  0  0  0  0  0  0  0  0  0  0  0
  1  2  2  0
  2  3  1  0
  3  4  2  3
  4  5  1  0
  5  6  2  0
  5 25  1  0
  6  7  1  0
  7  8  2  0
  8  9  1  0
  9 10  1  0
  9 25  2  0
 10 11  1  0
 12 11  1  1
 12 13  1  0
 12 22  1  0
 13 14  1  0
 14 15  2  3
 14 18  1  0
 15 16  1  0
 15 17  1  0
 18 19  1  1
 18 20  1  0
 18 21  1  0
 21 22  1  0
 22 23  1  0
 23 24  2  0
M  END
