
     RDKit          3D

 25 27  0  0  0  0  0  0  0  0999 V2000
   -4.9420    1.5160    1.6340 C   0  0  0  0  0  0  0  0  0  0  0  0
   -4.1920    0.9580    0.4620 C   0  0  1  0  0  0  0  0  0  0  0  0
   -3.7460    2.0320   -0.5040 C   0  0  0  0  0  0  0  0  0  0  0  0
   -3.0620    0.0830    0.8860 C   0  0  0  0  0  0  0  0  0  0  0  0
   -2.7110   -0.2040    2.1510 N   0  0  0  0  0  0  0  0  0  0  0  0
   -1.6650   -1.0090    2.1710 N   0  0  0  0  0  0  0  0  0  0  0  0
   -0.9800   -1.5510    3.3360 C   0  0  0  0  0  0  0  0  0  0  0  0
   -1.3150   -1.2590    0.8780 C   0  0  0  0  0  0  0  0  0  0  0  0
   -2.1870   -0.5780    0.0800 C   0  0  0  0  0  0  0  0  0  0  0  0
   -1.8520   -0.8160   -1.2820 N   0  0  0  0  0  0  0  0  0  0  0  0
   -0.6960   -1.6600   -1.2880 C   0  0  1  0  0  0  0  0  0  0  0  0
    0.4790   -1.0180   -1.8470 N   0  0  0  0  0  0  0  0  0  0  0  0
    1.5620   -1.9750   -1.7900 C   0  0  0  0  0  0  0  0  0  0  0  0
    2.8010   -1.4080   -2.4510 C   0  0  0  0  0  0  0  0  0  0  0  0
    3.2940   -0.2760   -1.5650 C   0  0  0  0  0  0  0  0  0  0  0  0
    2.2170   -0.0540   -0.5310 C   0  0  0  0  0  0  0  0  0  0  0  0
    2.4420   -0.0470    0.7170 N   0  0  0  0  0  0  0  0  0  0  0  0
    3.6960   -0.2390    1.3350 C   0  0  0  0  0  0  0  0  0  0  0  0
    4.4280    1.0910    1.5530 C   0  0  2  0  0  0  0  0  0  0  0  0
    3.6330    1.8990    2.3750 F   0  0  0  0  0  0  0  0  0  0  0  0
    4.6790    1.7370    0.3620 F   0  0  0  0  0  0  0  0  0  0  0  0
    5.6300    0.8840    2.1890 F   0  0  0  0  0  0  0  0  0  0  0  0
    0.8570    0.1590   -1.1010 C   0  0  1  0  0  0  0  0  0  0  0  0
    0.9900    1.3270   -2.0850 C   0  0  0  0  0  0  0  0  0  0  0  0
   -0.4190   -1.9360    0.0650 O   0  0  0  0  0  0  0  0  0  0  0  0
  2  1  1  1
  2  3  1  0
  2  4  1  0
  4  5  2  0
  4  9  1  0
  5  6  1  0
  6  7  1  0
  6  8  1  0
  8  9  2  0
  8 25  1  0
  9 10  1  0
 10 11  1  0
 11 12  1  1
 11 25  1  0
 12 13  1  0
 12 23  1  0
 13 14  1  0
 14 15  1  0
 15 16  1  0
 16 17  2  3
 16 23  1  0
 17 18  1  0
 18 19  1  0
 19 20  1  1
 19 21  1  0
 19 22  1  0
 23 24  1  6
M  END
