
     RDKit          3D

 15 14  0  0  0  0  0  0  0  0999 V2000
   -3.7180   -2.0800   -0.2840 C   0  0  0  0  0  0  0  0  0  0  0  0
   -2.6720   -1.5040    0.4480 O   0  0  0  0  0  0  0  0  0  0  0  0
   -1.8190   -0.3810   -0.5370 P   0  0  0  0  0  0  0  0  0  0  0  0
   -0.3500    0.2550    0.4400 C   0  0  0  0  0  0  0  0  0  0  0  0
    0.6590   -0.7550    0.3590 N   0  0  0  0  0  0  0  0  0  0  0  0
    1.8710   -0.5190    1.0650 C   0  0  0  0  0  0  0  0  0  0  0  0
    2.7700    0.5360    0.5380 C   0  0  2  0  0  0  0  0  0  0  0  0
    2.1260    1.7560    0.4990 O   0  0  0  0  0  0  0  0  0  0  0  0
    3.4770    0.1590   -1.1320 P   0  0  0  0  0  0  0  0  0  0  0  0
    2.8600   -1.3280   -1.7790 O   0  0  0  0  0  0  0  0  0  0  0  0
    5.2220    0.1220   -1.0740 O   0  0  0  0  0  0  0  0  0  0  0  0
   -2.8240    0.9210   -1.0970 O   0  0  0  0  0  0  0  0  0  0  0  0
   -3.2310    1.9370   -0.2330 C   0  0  0  0  0  0  0  0  0  0  0  0
   -2.8800    1.9430    0.9780 O   0  0  0  0  0  0  0  0  0  0  0  0
   -4.0340    2.9550   -0.7110 O   0  0  0  0  0  0  0  0  0  0  0  0
  1  2  1  0
  2  3  1  0
  3  4  1  0
  3 12  1  0
  4  5  1  0
  5  6  1  0
  6  7  1  0
  7  8  1  6
  7  9  1  0
  9 10  1  0
  9 11  1  0
 12 13  1  0
 13 14  2  0
 13 15  1  0
M  END
