
     RDKit          3D

 15 14  0  0  0  0  0  0  0  0999 V2000
    4.1790    0.3790   -1.6120 O   0  0  0  0  0  0  0  0  0  0  0  0
    3.8090    0.6140   -0.4170 C   0  0  0  0  0  0  0  0  0  0  0  0
    4.5560    1.5400    0.3140 O   0  0  0  0  0  0  0  0  0  0  0  0
    2.6810   -0.0590    0.1100 N   0  0  0  0  0  0  0  0  0  0  0  0
    1.9070   -1.0150   -0.6350 C   0  0  0  0  0  0  0  0  0  0  0  0
    0.7600   -1.5770    0.1740 C   0  0  0  0  0  0  0  0  0  0  0  0
   -0.1900   -0.4880    0.6180 C   0  0  0  0  0  0  0  0  0  0  0  0
   -0.9200    0.4060   -0.8070 P   0  0  0  0  0  0  0  0  0  0  0  0
   -2.2200   -0.4950   -1.5710 O   0  0  0  0  0  0  0  0  0  0  0  0
   -3.3250   -0.9320   -0.8300 C   0  0  0  0  0  0  0  0  0  0  0  0
   -3.3100   -0.6330    0.4000 O   0  0  0  0  0  0  0  0  0  0  0  0
   -4.3670   -1.6420   -1.3920 O   0  0  0  0  0  0  0  0  0  0  0  0
   -1.5800    2.4260   -0.2730 P   0  0  0  0  0  0  0  0  0  0  0  0
   -3.1160    2.7110   -1.0430 O   0  0  0  0  0  0  0  0  0  0  0  0
   -1.8140    2.6070    1.4280 O   0  0  0  0  0  0  0  0  0  0  0  0
  1  2  2  0
  2  3  1  0
  2  4  1  0
  4  5  1  0
  5  6  1  0
  6  7  1  0
  7  8  1  0
  8  9  1  0
  8 13  1  0
  9 10  1  0
 10 11  2  0
 10 12  1  0
 13 14  1  0
 13 15  1  0
M  END
