
     RDKit          3D

 14 13  0  0  0  0  0  0  0  0999 V2000
   -1.2890   -0.9830   -3.1060 O   0  0  0  0  0  0  0  0  0  0  0  0
   -0.1810   -0.2520   -2.2650 P   0  0  0  0  0  0  0  0  0  0  0  0
   -0.5960    0.0020   -0.4470 C   0  0  1  0  0  0  0  0  0  0  0  0
   -0.9540   -1.3340    0.1370 C   0  0  0  0  0  0  0  0  0  0  0  0
   -1.3120   -1.2880    1.5730 C   0  0  0  0  0  0  0  0  0  0  0  0
   -0.4830   -1.0830    2.4910 O   0  0  0  0  0  0  0  0  0  0  0  0
   -2.6480   -1.4780    1.9920 O   0  0  0  0  0  0  0  0  0  0  0  0
    0.5320    0.6520    0.1840 N   0  0  0  0  0  0  0  0  0  0  0  0
    1.7470   -0.1230    0.0410 C   0  0  0  0  0  0  0  0  0  0  0  0
    2.8940    0.6850    0.6470 C   0  0  0  0  0  0  0  0  0  0  0  0
    4.0770   -0.0690    0.5080 O   0  0  0  0  0  0  0  0  0  0  0  0
   -2.0270    1.1760   -0.3920 P   0  0  0  0  0  0  0  0  0  0  0  0
   -2.9910    1.0800   -1.8370 O   0  0  0  0  0  0  0  0  0  0  0  0
   -1.5330    2.8050   -0.0780 O   0  0  0  0  0  0  0  0  0  0  0  0
  1  2  2  0
  2  3  1  0
  3  4  1  1
  3  8  1  0
  3 12  1  0
  4  5  1  0
  5  6  2  0
  5  7  1  0
  8  9  1  0
  9 10  1  0
 10 11  1  0
 12 13  1  0
 12 14  1  0
M  END
