
     RDKit          3D

 15 14  0  0  0  0  0  0  0  0999 V2000
    3.2210   -0.0590    0.0210 O   0  0  0  0  0  0  0  0  0  0  0  0
    3.1150    1.1660   -0.4450 C   0  0  0  0  0  0  0  0  0  0  0  0
    4.1160    2.0210   -0.1400 O   0  0  0  0  0  0  0  0  0  0  0  0
    1.9900    1.4610   -1.1410 O   0  0  0  0  0  0  0  0  0  0  0  0
    0.9460    0.4980   -1.3610 C   0  0  0  0  0  0  0  0  0  0  0  0
    0.2860    0.5030    0.0150 C   0  0  0  0  0  0  0  0  0  0  0  0
   -0.8280   -0.2390    0.3180 N   0  0  0  0  0  0  0  0  0  0  0  0
   -0.8300   -1.5260    0.6800 C   0  0  0  0  0  0  0  0  0  0  0  0
   -0.7730   -2.7480   -0.1470 C   0  0  0  0  0  0  0  0  0  0  0  0
    0.3730   -2.6560   -0.9520 O   0  0  0  0  0  0  0  0  0  0  0  0
    1.0170   -3.8310   -0.7400 O   0  0  0  0  0  0  0  0  0  0  0  0
   -1.8830    0.7000    1.4510 P   0  0  0  0  0  0  0  0  0  0  0  0
   -3.0480    2.2330    0.6180 P   0  0  0  0  0  0  0  0  0  0  0  0
   -2.7310    3.8360    1.0390 O   0  0  0  0  0  0  0  0  0  0  0  0
   -4.0800    1.9310   -0.6530 O   0  0  0  0  0  0  0  0  0  0  0  0
  1  2  2  0
  2  3  1  0
  2  4  1  0
  4  5  1  0
  5  6  1  0
  6  7  1  0
  7  8  1  0
  7 12  1  0
  8  9  1  0
  9 10  1  0
 10 11  1  0
 12 13  1  0
 13 14  1  0
 13 15  1  0
M  END
