
     RDKit          3D

 15 14  0  0  0  0  0  0  0  0999 V2000
   -0.1130    2.2650    0.8520 C   0  0  0  0  0  0  0  0  0  0  0  0
    0.2270    0.8540    0.7140 N   0  0  0  0  0  0  0  0  0  0  0  0
   -0.2470    0.1430   -0.4070 C   0  0  0  0  0  0  0  0  0  0  0  0
    0.5600    0.0340   -1.5230 O   0  0  0  0  0  0  0  0  0  0  0  0
    1.8200    0.6200   -1.5280 C   0  0  0  0  0  0  0  0  0  0  0  0
    2.6820    0.1430   -0.5260 O   0  0  0  0  0  0  0  0  0  0  0  0
    3.0870   -1.1560   -0.3780 C   0  0  0  0  0  0  0  0  0  0  0  0
    2.6590   -2.0030   -1.2010 O   0  0  0  0  0  0  0  0  0  0  0  0
    3.9440   -1.4640    0.6660 O   0  0  0  0  0  0  0  0  0  0  0  0
   -1.4300   -0.4010   -0.3870 C   0  0  0  0  0  0  0  0  0  0  0  0
   -2.0400   -1.3150   -1.8300 P   0  0  0  0  0  0  0  0  0  0  0  0
   -3.4920   -1.2910   -2.3340 O   0  0  0  0  0  0  0  0  0  0  0  0
   -2.4510   -0.2270    1.1040 P   0  0  0  0  0  0  0  0  0  0  0  0
   -2.2980   -1.6770    2.0360 O   0  0  0  0  0  0  0  0  0  0  0  0
   -4.0800    0.1870    0.7700 O   0  0  0  0  0  0  0  0  0  0  0  0
  1  2  1  0
  2  3  1  0
  3  4  1  0
  3 10  2  3
  4  5  1  0
  5  6  1  0
  6  7  1  0
  7  8  2  0
  7  9  1  0
 10 11  1  0
 10 13  1  0
 11 12  2  0
 13 14  1  0
 13 15  1  0
M  END
