
     RDKit          3D

 22 23  0  0  0  0  0  0  0  0999 V2000
   -5.9410    2.2690   -0.3500 C   0  0  0  0  0  0  0  0  0  0  0  0
   -4.7560    1.6670   -0.9650 N   0  0  0  0  0  0  0  0  0  0  0  0
   -3.5130    1.6750   -0.2450 C   0  0  0  0  0  0  0  0  0  0  0  0
   -3.5160    2.2110    0.8990 O   0  0  0  0  0  0  0  0  0  0  0  0
   -2.3450    1.1050   -0.8040 N   0  0  0  0  0  0  0  0  0  0  0  0
   -1.2050    1.1350   -0.0940 O   0  0  0  0  0  0  0  0  0  0  0  0
   -0.5130   -0.0800   -0.1500 C   0  0  1  0  0  0  0  0  0  0  0  0
   -1.4120   -1.1120    0.4030 N   0  0  0  0  0  0  0  0  0  0  0  0
   -0.7680   -2.3690    0.0980 C   0  0  0  0  0  0  0  0  0  0  0  0
    0.6870   -2.4030    0.3090 C   0  0  0  0  0  0  0  0  0  0  0  0
    1.3770   -1.0980    0.4720 C   0  0  1  0  0  0  0  0  0  0  0  0
    2.3230   -1.1380    1.5220 O   0  0  0  0  0  0  0  0  0  0  0  0
    2.9480    0.0070    1.6900 O   0  0  0  0  0  0  0  0  0  0  0  0
    4.3070    0.1720    1.4550 C   0  0  0  0  0  0  0  0  0  0  0  0
    4.9480   -0.8320    1.0630 O   0  0  0  0  0  0  0  0  0  0  0  0
    4.9990    1.3490    1.6200 O   0  0  0  0  0  0  0  0  0  0  0  0
    6.3230    1.3990    1.3630 O   0  0  0  0  0  0  0  0  0  0  0  0
    6.4440    1.3900    0.0460 O   0  0  0  0  0  0  0  0  0  0  0  0
    2.1000   -0.7660   -0.8200 C   0  0  0  0  0  0  0  0  0  0  0  0
    1.0650   -0.3740   -1.8330 C   0  0  0  0  0  0  0  0  0  0  0  0
   -0.2240   -0.4680   -1.4220 O   0  0  0  0  0  0  0  0  0  0  0  0
    0.5450   -0.0280    0.7220 O   0  0  0  0  0  0  0  0  0  0  0  0
  1  2  1  0
  2  3  1  0
  3  4  2  0
  3  5  1  0
  5  6  1  0
  7  6  1  6
  7  8  1  0
  7 21  1  0
  7 22  1  0
  8  9  1  0
  9 10  1  0
 10 11  1  0
 11 12  1  1
 11 19  1  0
 11 22  1  0
 12 13  1  0
 13 14  1  0
 14 15  2  0
 14 16  1  0
 16 17  1  0
 17 18  1  0
 19 20  1  0
 20 21  1  0
M  END
