
     RDKit          3D

 17 17  0  0  0  0  0  0  0  0999 V2000
    4.3820    0.2870   -0.6310 C   0  0  0  0  0  0  0  0  0  0  0  0
    3.3930    0.2200    0.5390 C   0  0  1  0  0  0  0  0  0  0  0  0
    3.9230    1.1930    1.5850 C   0  0  0  0  0  0  0  0  0  0  0  0
    2.1710    0.5690    0.0620 O   0  0  0  0  0  0  0  0  0  0  0  0
    0.9780   -0.5840    0.1040 P   0  0  0  0  0  0  0  0  0  0  0  0
    0.8850   -0.6320   -1.4070 O   0  0  0  0  0  0  0  0  0  0  0  0
    1.4200   -2.2240    0.1180 O   0  0  0  0  0  0  0  0  0  0  0  0
   -0.5490   -0.1850    0.4190 O   0  0  0  0  0  0  0  0  0  0  0  0
   -1.5430   -0.5300   -0.4370 C   0  0  2  0  0  0  0  0  0  0  0  0
   -2.2640    0.7150   -0.9650 C   0  0  1  0  0  0  0  0  0  0  0  0
   -3.1650    0.3730   -1.9710 O   0  0  0  0  0  0  0  0  0  0  0  0
   -3.0160    1.2950    0.2290 C   0  0  1  0  0  0  0  0  0  0  0  0
   -3.4930    2.5690   -0.0690 O   0  0  0  0  0  0  0  0  0  0  0  0
   -4.1430    0.3510    0.5430 C   0  0  0  0  0  0  0  0  0  0  0  0
   -3.8880   -0.9170   -0.0220 O   0  0  0  0  0  0  0  0  0  0  0  0
   -2.5890   -1.3330    0.3070 C   0  0  1  0  0  0  0  0  0  0  0  0
   -2.4710   -2.6680   -0.0350 O   0  0  0  0  0  0  0  0  0  0  0  0
  2  1  1  6
  2  3  1  0
  2  4  1  0
  4  5  1  0
  5  6  1  0
  5  7  1  0
  5  8  1  0
  9  8  1  1
  9 10  1  0
  9 16  1  0
 10 11  1  6
 10 12  1  0
 12 13  1  6
 12 14  1  0
 14 15  1  0
 15 16  1  0
 16 17  1  6
M  END
