
     RDKit          3D

 22 25  0  0  0  0  0  0  0  0999 V2000
    4.1140   -1.6850   -0.9490 C   0  0  0  0  0  0  0  0  0  0  0  0
    3.0340   -1.2090   -1.7310 O   0  0  0  0  0  0  0  0  0  0  0  0
    2.1300   -0.3400   -1.1230 C   0  0  0  0  0  0  0  0  0  0  0  0
    1.0640   -0.7690   -0.5240 C   0  0  0  0  0  0  0  0  0  0  0  0
    0.0760   -1.6420   -0.0200 O   0  0  0  0  0  0  0  0  0  0  0  0
   -1.2120   -0.9320   -0.2380 C   0  0  1  0  0  0  0  0  0  0  0  0
   -1.7600   -1.5130   -1.3660 O   0  0  0  0  0  0  0  0  0  0  0  0
   -2.9070   -0.9790   -1.6740 O   0  0  0  0  0  0  0  0  0  0  0  0
   -2.0370   -1.2000    0.9200 C   0  0  0  0  0  0  0  0  0  0  0  0
   -1.7070   -1.9150    1.9340 N   0  0  0  0  0  0  0  0  0  0  0  0
   -2.7220   -1.9520    2.8310 O   0  0  0  0  0  0  0  0  0  0  0  0
   -3.5560   -0.9570    2.5150 O   0  0  0  0  0  0  0  0  0  0  0  0
   -3.3430   -0.7580    1.1960 O   0  0  0  0  0  0  0  0  0  0  0  0
   -0.8100    0.4010   -0.4850 N   0  0  0  0  0  0  0  0  0  0  0  0
   -1.5680    1.5290   -0.1550 C   0  0  0  0  0  0  0  0  0  0  0  0
   -0.8240    2.8060   -0.3500 C   0  0  0  0  0  0  0  0  0  0  0  0
    0.5970    2.8040   -0.0690 O   0  0  0  0  0  0  0  0  0  0  0  0
    1.2310    1.6180   -0.4790 C   0  0  0  0  0  0  0  0  0  0  0  0
    2.2160    1.1180   -1.0950 N   0  0  0  0  0  0  0  0  0  0  0  0
    0.4730    0.4920    0.0380 C   0  0  2  0  0  0  0  0  0  0  0  0
    0.5110    0.4350    1.4490 O   0  0  0  0  0  0  0  0  0  0  0  0
    1.7860    0.3160    1.8110 O   0  0  0  0  0  0  0  0  0  0  0  0
  1  2  1  0
  2  3  1  0
  3  4  2  0
  3 19  1  0
  4  5  1  0
  4 20  1  0
  5  6  1  0
  6  7  1  6
  6  9  1  0
  6 14  1  0
  7  8  1  0
  9 10  2  0
  9 13  1  0
 10 11  1  0
 11 12  1  0
 12 13  1  0
 14 15  1  0
 14 20  1  0
 15 16  1  0
 16 17  1  0
 17 18  1  0
 18 19  2  0
 18 20  1  0
 20 21  1  1
 21 22  1  0
M  END
