
     RDKit          3D

 24 24  0  0  0  0  0  0  0  0999 V2000
   -2.4400    4.2640    1.9730 O   0  0  0  0  0  0  0  0  0  0  0  0
   -1.7330    3.0350    2.6260 P   0  0  0  0  0  0  0  0  0  0  0  0
   -1.0620    1.8470    1.5560 O   0  0  0  0  0  0  0  0  0  0  0  0
   -2.0650    0.9670    1.1620 C   0  0  0  0  0  0  0  0  0  0  0  0
   -1.5550   -0.0980    0.2270 C   0  0  1  0  0  0  0  0  0  0  0  0
   -2.6700   -0.9110   -0.0870 O   0  0  0  0  0  0  0  0  0  0  0  0
   -3.8790    0.0710   -0.8430 P   0  0  0  0  0  0  0  0  0  0  0  0
   -3.3910    0.6900   -2.3620 O   0  0  0  0  0  0  0  0  0  0  0  0
   -5.4270   -0.6480   -0.8370 O   0  0  0  0  0  0  0  0  0  0  0  0
   -1.1570    0.4540   -1.0080 O   0  0  0  0  0  0  0  0  0  0  0  0
   -0.7970   -0.6660   -1.7930 C   0  0  0  0  0  0  0  0  0  0  0  0
    0.4400   -1.0780   -1.3300 O   0  0  0  0  0  0  0  0  0  0  0  0
    0.6070   -0.9060    0.0250 C   0  0  2  0  0  0  0  0  0  0  0  0
    1.5170    0.3000    0.2620 C   0  0  0  0  0  0  0  0  0  0  0  0
    2.7710    0.0670   -0.3500 O   0  0  0  0  0  0  0  0  0  0  0  0
    3.8450    1.3770   -0.1260 P   0  0  0  0  0  0  0  0  0  0  0  0
    3.8370    2.5200   -1.4010 O   0  0  0  0  0  0  0  0  0  0  0  0
    5.4340    0.7900    0.2480 O   0  0  0  0  0  0  0  0  0  0  0  0
    6.3140    1.3920   -0.5070 O   0  0  0  0  0  0  0  0  0  0  0  0
    1.3560   -2.0340    0.5040 O   0  0  0  0  0  0  0  0  0  0  0  0
    0.8890   -3.3240    0.3730 C   0  0  0  0  0  0  0  0  0  0  0  0
   -0.2050   -3.5210   -0.1710 O   0  0  0  0  0  0  0  0  0  0  0  0
    1.6940   -4.3550    0.8730 O   0  0  0  0  0  0  0  0  0  0  0  0
   -0.5410   -0.8470    0.7580 O   0  0  0  0  0  0  0  0  0  0  0  0
  1  2  2  0
  2  3  1  0
  3  4  1  0
  5  4  1  1
  5  6  1  0
  5 10  1  0
  5 24  1  0
  6  7  1  0
  7  8  1  0
  7  9  1  0
 10 11  1  0
 11 12  1  0
 12 13  1  0
 13 14  1  6
 13 20  1  0
 13 24  1  0
 14 15  1  0
 15 16  1  0
 16 17  1  0
 16 18  1  0
 18 19  1  0
 20 21  1  0
 21 22  2  0
 21 23  1  0
M  END
