
     RDKit          3D

 47 51  0  0  0  0  0  0  0  0999 V2000
    7.0100    2.6160   -1.5610 C   0  0  0  0  0  0  0  0  0  0  0  0
    6.2540    1.7570   -0.7450 O   0  0  0  0  0  0  0  0  0  0  0  0
    6.7810    0.8820    0.1750 C   0  0  0  0  0  0  0  0  0  0  0  0
    8.1320    0.7950    0.3560 C   0  0  0  0  0  0  0  0  0  0  0  0
    8.6890   -0.0820    1.2790 C   0  0  0  0  0  0  0  0  0  0  0  0
    7.8410   -0.8730    2.0210 C   0  0  0  0  0  0  0  0  0  0  0  0
    6.4690   -0.7730    1.8270 C   0  0  0  0  0  0  0  0  0  0  0  0
    5.9120    0.0880    0.9190 C   0  0  0  0  0  0  0  0  0  0  0  0
    4.5660    0.2000    0.7130 O   0  0  0  0  0  0  0  0  0  0  0  0
    3.5140   -0.4720    1.3250 C   0  0  0  0  0  0  0  0  0  0  0  0
    2.2020   -0.0280    0.7140 C   0  0  0  0  0  0  0  0  0  0  0  0
    2.0790    1.2800    0.3990 C   0  0  0  0  0  0  0  0  0  0  0  0
    0.9000    1.7100   -0.2100 C   0  0  0  0  0  0  0  0  0  0  0  0
   -0.0820    0.7890   -0.4620 C   0  0  0  0  0  0  0  0  0  0  0  0
   -0.0240   -0.5550   -0.1650 C   0  0  0  0  0  0  0  0  0  0  0  0
    1.2110   -0.8930    0.4490 C   0  0  0  0  0  0  0  0  0  0  0  0
   -1.0150   -1.5840   -0.3690 C   0  0  0  0  0  0  0  0  0  0  0  0
   -0.4550   -2.6220   -0.9580 O   0  0  0  0  0  0  0  0  0  0  0  0
   -2.4060   -1.7870   -0.1100 N   0  0  0  0  0  0  0  0  0  0  0  0
   -3.0900   -2.8280   -0.8680 C   0  0  1  0  0  0  0  0  0  0  0  0
   -3.4050   -4.0430   -0.0440 C   0  0  0  0  0  0  0  0  0  0  0  0
   -2.8490   -4.1430    1.2640 N   0  0  0  0  0  0  0  0  0  0  0  0
   -4.1240   -4.9700   -0.4380 O   0  0  0  0  0  0  0  0  0  0  0  0
   -4.1060   -2.4600   -1.8680 C   0  0  1  0  0  0  0  0  0  0  0  0
   -3.5960   -1.5960   -2.9960 C   0  0  0  0  0  0  0  0  0  0  0  0
   -4.7360   -3.6990   -2.5150 C   0  0  0  0  0  0  0  0  0  0  0  0
   -3.1700   -1.1440    0.9110 C   0  0  0  0  0  0  0  0  0  0  0  0
   -4.6220   -0.9870    0.8700 C   0  0  0  0  0  0  0  0  0  0  0  0
   -5.4630   -1.9300    1.3730 C   0  0  0  0  0  0  0  0  0  0  0  0
   -6.8420   -1.5570    1.2330 C   0  0  0  0  0  0  0  0  0  0  0  0
   -6.8840   -0.3810    0.6490 C   0  0  0  0  0  0  0  0  0  0  0  0
   -5.4800    0.0750    0.3700 C   0  0  0  0  0  0  0  0  0  0  0  0
   -5.1690    1.1650   -0.3350 C   0  0  0  0  0  0  0  0  0  0  0  0
   -6.2380    2.0970   -0.6990 C   0  0  0  0  0  0  0  0  0  0  0  0
   -7.4340    1.9620   -0.3680 O   0  0  0  0  0  0  0  0  0  0  0  0
   -3.8750    1.5510   -0.9400 C   0  0  0  0  0  0  0  0  0  0  0  0
   -3.0880    2.5370   -0.3070 N   0  0  2  0  0  0  0  0  0  0  0  0
   -3.6650    3.7540    0.0830 C   0  0  0  0  0  0  0  0  0  0  0  0
   -3.7780    4.8670   -0.8290 C   0  0  0  0  0  0  0  0  0  0  0  0
   -3.3380    4.8820   -2.1560 N   0  0  0  0  0  0  0  0  0  0  0  0
   -4.3290    5.9510   -0.3920 O   0  0  0  0  0  0  0  0  0  0  0  0
   -1.7560    2.6640   -0.9650 C   0  0  0  0  0  0  0  0  0  0  0  0
   -1.2990    1.2600   -1.1220 C   0  0  1  0  0  0  0  0  0  0  0  0
   -1.1970    0.8720   -2.4510 O   0  0  0  0  0  0  0  0  0  0  0  0
    8.6270   -1.7330    2.9350 C   0  0  0  0  0  0  0  0  0  0  0  0
    9.9680   -1.0750    2.9790 C   0  0  0  0  0  0  0  0  0  0  0  0
   10.0900   -0.3800    1.6620 C   0  0  0  0  0  0  0  0  0  0  0  0
  1  2  1  0
  2  3  1  0
  3  4  2  0
  3  8  1  0
  4  5  1  0
  5  6  2  0
  5 47  1  0
  6  7  1  0
  6 45  1  0
  7  8  2  0
  8  9  1  0
  9 10  1  0
 10 11  1  0
 11 12  2  0
 11 16  1  0
 12 13  1  0
 13 14  2  0
 14 15  1  0
 14 43  1  0
 15 16  2  0
 15 17  1  0
 17 18  2  0
 17 19  1  0
 20 19  1  1
 19 27  1  0
 20 21  1  0
 20 24  1  0
 21 22  1  0
 21 23  2  0
 24 25  1  6
 24 26  1  0
 27 28  1  0
 28 29  2  0
 28 32  1  0
 29 30  1  0
 30 31  2  0
 31 32  1  0
 32 33  2  0
 33 34  1  0
 33 36  1  0
 34 35  2  0
 36 37  1  0
 37 38  1  6
 37 42  1  0
 38 39  1  0
 39 40  1  0
 39 41  2  0
 42 43  1  0
 43 44  1  6
 45 46  1  0
 46 47  1  0
M  CHG  1  37   1
M  END
