
     RDKit          3D

 47 51  0  0  0  0  0  0  0  0999 V2000
   14.8400   -1.4420   -1.0220 C   0  0  0  0  0  0  0  0  0  0  0  0
   13.8620   -1.8060   -1.9990 O   0  0  0  0  0  0  0  0  0  0  0  0
   12.5150   -1.6600   -1.6460 C   0  0  0  0  0  0  0  0  0  0  0  0
   11.5480   -2.0040   -2.5690 C   0  0  0  0  0  0  0  0  0  0  0  0
   10.1890   -1.8840   -2.2850 C   0  0  0  0  0  0  0  0  0  0  0  0
    9.8210   -1.4120   -1.0540 C   0  0  0  0  0  0  0  0  0  0  0  0
    8.3980   -1.2650   -0.7020 C   0  0  0  0  0  0  0  0  0  0  0  0
    7.9880    0.0380   -1.0610 O   0  0  0  0  0  0  0  0  0  0  0  0
    6.7010    0.4570   -0.8470 C   0  0  0  0  0  0  0  0  0  0  0  0
    6.3310    1.7370   -1.2100 C   0  0  0  0  0  0  0  0  0  0  0  0
    5.0340    2.1260   -0.9810 C   0  0  0  0  0  0  0  0  0  0  0  0
    4.1240    1.2700   -0.4090 C   0  0  0  0  0  0  0  0  0  0  0  0
    2.7720    1.4060   -0.0720 C   0  0  0  0  0  0  0  0  0  0  0  0
    2.0510    2.6700   -0.3430 C   0  0  0  0  0  0  0  0  0  0  0  0
    2.3240    0.2420    0.4830 C   0  0  0  0  0  0  0  0  0  0  0  0
    1.0140   -0.0640    0.9950 C   0  0  0  0  0  0  0  0  0  0  0  0
    0.7520   -1.2790    1.3490 O   0  0  0  0  0  0  0  0  0  0  0  0
   -0.0290    0.8580    1.1520 N   0  0  0  0  0  0  0  0  0  0  0  0
   -1.3270    0.4520    1.6790 C   0  0  1  0  0  0  0  0  0  0  0  0
   -1.6060    1.1350    3.0050 C   0  0  0  0  0  0  0  0  0  0  0  0
   -2.3230    2.4340    2.6920 C   0  0  1  0  0  0  0  0  0  0  0  0
   -1.6950    3.1620    1.7020 O   0  0  0  0  0  0  0  0  0  0  0  0
   -3.7250    2.1140    2.2990 C   0  0  0  0  0  0  0  0  0  0  0  0
   -3.7120    1.2030    1.1430 N   0  0  0  0  0  0  0  0  0  0  0  0
   -4.8990    0.7650    0.4560 C   0  0  1  0  0  0  0  0  0  0  0  0
   -5.0380    1.2510   -0.9430 C   0  0  0  0  0  0  0  0  0  0  0  0
   -6.2940    0.7540   -1.5610 C   0  0  0  0  0  0  0  0  0  0  0  0
   -6.2770   -0.3900   -2.0490 O   0  0  0  0  0  0  0  0  0  0  0  0
   -7.4750    1.5490   -1.5980 N   0  0  0  0  0  0  0  0  0  0  0  0
   -8.7210    1.1050   -2.1880 C   0  0  0  0  0  0  0  0  0  0  0  0
   -9.3160    2.3440   -2.7930 C   0  0  0  0  0  0  0  0  0  0  0  0
   -8.4430    3.5000   -2.3020 C   0  0  0  0  0  0  0  0  0  0  0  0
   -7.7290    2.8790   -1.1100 C   0  0  0  0  0  0  0  0  0  0  0  0
   -5.2510   -0.6880    0.6770 C   0  0  2  0  0  0  0  0  0  0  0  0
   -5.4720   -0.7970    2.1950 C   0  0  0  0  0  0  0  0  0  0  0  0
   -4.2620   -1.6580    0.1620 C   0  0  0  0  0  0  0  0  0  0  0  0
   -4.5350   -3.0930    0.3020 C   0  0  2  0  0  0  0  0  0  0  0  0
   -5.7730   -3.6200   -0.3360 C   0  0  0  0  0  0  0  0  0  0  0  0
   -4.4040   -3.5480    1.7260 C   0  0  0  0  0  0  0  0  0  0  0  0
   -3.3730   -3.7960   -0.4500 C   0  0  0  0  0  0  0  0  0  0  0  0
   -2.4130    0.7620    0.7220 C   0  0  0  0  0  0  0  0  0  0  0  0
   -2.1570    0.6240   -0.5130 O   0  0  0  0  0  0  0  0  0  0  0  0
    3.3980   -0.6100    0.4860 N   0  0  0  0  0  0  0  0  0  0  0  0
    4.4660   -0.0120   -0.0390 C   0  0  0  0  0  0  0  0  0  0  0  0
    5.7860   -0.3840   -0.2790 C   0  0  0  0  0  0  0  0  0  0  0  0
   10.7860   -1.0620   -0.1140 C   0  0  0  0  0  0  0  0  0  0  0  0
   12.1330   -1.1800   -0.3940 C   0  0  0  0  0  0  0  0  0  0  0  0
  1  2  1  0
  2  3  1  0
  3  4  2  0
  3 47  1  0
  4  5  1  0
  5  6  2  0
  6  7  1  0
  6 46  1  0
  7  8  1  0
  8  9  1  0
  9 10  2  0
  9 45  1  0
 10 11  1  0
 11 12  2  0
 12 13  1  0
 12 44  1  0
 13 14  1  0
 13 15  2  0
 15 16  1  0
 15 43  1  0
 16 17  2  0
 16 18  1  0
 19 18  1  6
 19 20  1  0
 19 41  1  0
 20 21  1  0
 21 22  1  6
 21 23  1  0
 23 24  1  0
 24 25  1  0
 24 41  1  0
 25 26  1  6
 25 34  1  0
 26 27  1  0
 27 28  2  0
 27 29  1  0
 29 30  1  0
 29 33  1  0
 30 31  1  0
 31 32  1  0
 32 33  1  0
 34 35  1  1
 34 36  1  0
 36 37  1  0
 37 38  1  6
 37 39  1  0
 37 40  1  0
 41 42  2  0
 43 44  1  0
 44 45  2  0
 46 47  2  0
M  END
