
     RDKit          3D

 47 51  0  0  0  0  0  0  0  0999 V2000
    1.2360   -1.8780   -6.9980 C   0  0  0  0  0  0  0  0  0  0  0  0
    0.7210   -1.8050   -5.7020 O   0  0  0  0  0  0  0  0  0  0  0  0
   -0.2590   -1.0200   -5.2690 C   0  0  0  0  0  0  0  0  0  0  0  0
   -0.9830   -0.1270   -5.9570 C   0  0  0  0  0  0  0  0  0  0  0  0
   -1.9570    0.6550   -5.5330 C   0  0  0  0  0  0  0  0  0  0  0  0
   -2.3780    0.6030   -4.1000 C   0  0  0  0  0  0  0  0  0  0  0  0
   -3.3580    1.3900   -3.7170 O   0  0  0  0  0  0  0  0  0  0  0  0
   -3.9760    2.2780   -4.6230 C   0  0  0  0  0  0  0  0  0  0  0  0
   -1.6450   -0.2900   -3.4190 C   0  0  0  0  0  0  0  0  0  0  0  0
   -1.8610   -0.3520   -1.9180 C   0  0  2  0  0  0  0  0  0  0  0  0
   -2.8850    0.5320   -1.3630 C   0  0  0  0  0  0  0  0  0  0  0  0
   -2.5500    1.9640   -1.3210 C   0  0  0  0  0  0  0  0  0  0  0  0
   -2.2870    3.0540   -1.3000 N   0  0  0  0  0  0  0  0  0  0  0  0
   -4.0410    0.0640   -0.9310 C   0  0  0  0  0  0  0  0  0  0  0  0
   -4.2470   -1.4230   -1.0450 C   0  0  0  0  0  0  0  0  0  0  0  0
   -5.6280   -1.8680   -0.7590 C   0  0  0  0  0  0  0  0  0  0  0  0
   -6.5160   -0.9780    0.0130 C   0  0  0  0  0  0  0  0  0  0  0  0
   -5.9140    0.2500    0.6050 C   0  0  0  0  0  0  0  0  0  0  0  0
   -5.0550    0.8750   -0.3960 N   0  0  0  0  0  0  0  0  0  0  0  0
   -5.2950    2.2000   -0.8260 C   0  0  0  0  0  0  0  0  0  0  0  0
   -5.1070    3.2600    0.2600 C   0  0  0  0  0  0  0  0  0  0  0  0
   -6.0380    3.0890    1.3630 N   0  0  0  0  0  0  0  0  0  0  0  0
   -0.4990   -0.1580   -1.2770 C   0  0  0  0  0  0  0  0  0  0  0  0
    0.4020    0.7750   -1.7050 C   0  0  0  0  0  0  0  0  0  0  0  0
    0.2070    1.5580   -2.8490 N   0  0  0  0  0  0  0  0  0  0  0  0
    1.5080    0.9280   -0.9960 O   0  0  0  0  0  0  0  0  0  0  0  0
    1.8230    0.2550    0.0950 C   0  0  0  0  0  0  0  0  0  0  0  0
    1.0040   -0.6630    0.5660 C   0  0  0  0  0  0  0  0  0  0  0  0
   -0.2030   -0.9040   -0.1170 C   0  0  0  0  0  0  0  0  0  0  0  0
   -0.9820   -1.7520    0.2980 O   0  0  0  0  0  0  0  0  0  0  0  0
    1.3140   -1.4570    1.7740 C   0  0  1  0  0  0  0  0  0  0  0  0
    1.3130   -2.8460    1.4550 O   0  0  0  0  0  0  0  0  0  0  0  0
    2.5350   -1.0880    2.5010 C   0  0  0  0  0  0  0  0  0  0  0  0
    3.4440   -0.1050    1.9250 C   0  0  0  0  0  0  0  0  0  0  0  0
    4.6700    0.1530    2.5660 C   0  0  0  0  0  0  0  0  0  0  0  0
    4.9430   -0.5120    3.7740 N   0  0  0  0  0  0  0  0  0  0  0  0
    6.1770   -0.4360    4.4700 C   0  0  0  0  0  0  0  0  0  0  0  0
    7.1360    0.2390    4.0160 O   0  0  0  0  0  0  0  0  0  0  0  0
    6.3650   -1.1650    5.7880 C   0  0  2  0  0  0  0  0  0  0  0  0
    6.2140   -2.6460    5.5840 C   0  0  0  0  0  0  0  0  0  0  0  0
    5.2750   -0.6890    6.7370 C   0  0  0  0  0  0  0  0  0  0  0  0
    7.7100   -0.7770    6.3450 C   0  0  0  0  0  0  0  0  0  0  0  0
    5.4660    1.1020    1.9550 C   0  0  0  0  0  0  0  0  0  0  0  0
    5.1290    1.7720    0.8060 C   0  0  0  0  0  0  0  0  0  0  0  0
    3.9370    1.5020    0.2120 C   0  0  0  0  0  0  0  0  0  0  0  0
    3.0920    0.5850    0.7420 C   0  0  0  0  0  0  0  0  0  0  0  0
   -0.6640   -1.0830   -3.8430 C   0  0  0  0  0  0  0  0  0  0  0  0
  1  2  1  0
  2  3  1  0
  3  4  2  0
  3 47  1  0
  4  5  1  0
  5  6  2  0
  6  7  1  0
  6  9  1  0
  7  8  1  0
  9 10  1  0
  9 47  2  0
 10 11  1  1
 10 23  1  0
 11 12  1  0
 11 14  2  3
 12 13  3  0
 14 15  1  0
 14 19  1  0
 15 16  1  0
 16 17  1  0
 17 18  1  0
 18 19  1  0
 19 20  1  0
 20 21  1  0
 21 22  1  0
 23 24  2  0
 23 29  1  0
 24 25  1  0
 24 26  1  0
 26 27  1  0
 27 28  2  0
 27 46  1  0
 28 29  1  0
 28 31  1  0
 29 30  2  0
 31 32  1  6
 31 33  1  0
 33 34  1  0
 34 35  2  0
 34 46  1  0
 35 36  1  0
 35 43  1  0
 36 37  1  0
 37 38  2  0
 37 39  1  0
 39 40  1  6
 39 41  1  0
 39 42  1  0
 43 44  2  0
 44 45  1  0
 45 46  2  0
M  END
