
     RDKit          3D

 44 47  0  0  0  0  0  0  0  0999 V2000
    4.8870   -3.4160   -1.6800 N   0  0  0  0  0  0  0  0  0  0  0  0
    4.2840   -2.4950   -1.9910 C   0  0  0  0  0  0  0  0  0  0  0  0
    3.4840   -1.3080   -2.3940 C   0  0  0  0  0  0  0  0  0  0  0  0
    2.9940   -0.6150   -1.4470 C   0  0  0  0  0  0  0  0  0  0  0  0
    2.8730   -0.5220   -0.1050 N   0  0  0  0  0  0  0  0  0  0  0  0
    3.1780   -0.3390    1.1370 C   0  0  0  0  0  0  0  0  0  0  0  0
    3.9960   -0.8580    2.2380 C   0  0  0  0  0  0  0  0  0  0  0  0
    5.2390   -0.8550    2.2540 O   0  0  0  0  0  0  0  0  0  0  0  0
    6.5450   -0.5760    2.0100 C   0  0  0  0  0  0  0  0  0  0  0  0
    6.9870    0.1010    1.0940 C   0  0  0  0  0  0  0  0  0  0  0  0
    8.4140    0.3850    0.8750 C   0  0  0  0  0  0  0  0  0  0  0  0
    8.8250    1.1150   -0.1940 O   0  0  0  0  0  0  0  0  0  0  0  0
    9.2040   -0.1930    1.8610 C   0  0  0  0  0  0  0  0  0  0  0  0
    8.6820   -0.9350    2.8880 C   0  0  0  0  0  0  0  0  0  0  0  0
    7.3340   -1.2360    3.1190 C   0  0  0  0  0  0  0  0  0  0  0  0
    6.7570   -1.9290    4.0290 O   0  0  0  0  0  0  0  0  0  0  0  0
    2.6070    0.7700   -2.0590 N   0  0  0  0  0  0  0  0  0  0  0  0
    1.6240    0.7520   -2.9850 N   0  0  0  0  0  0  0  0  0  0  0  0
    0.6850    2.1080   -2.9910 S   0  0  1  0  0  0  0  0  0  0  0  0
    1.4340    3.4160   -3.1440 O   0  0  0  0  0  0  0  0  0  0  0  0
   -0.5730    2.0190   -3.7820 O   0  0  0  0  0  0  0  0  0  0  0  0
    0.1160    2.1770   -1.2280 N   0  0  0  0  0  0  0  0  0  0  0  0
   -1.0040    1.7770   -0.9720 C   0  0  0  0  0  0  0  0  0  0  0  0
   -2.1050    1.2580   -1.5640 N   0  0  0  0  0  0  0  0  0  0  0  0
   -3.4070    1.9230   -1.3140 C   0  0  0  0  0  0  0  0  0  0  0  0
   -3.4460    2.7010   -0.0990 C   0  0  0  0  0  0  0  0  0  0  0  0
   -2.2850    2.7090    0.8470 C   0  0  0  0  0  0  0  0  0  0  0  0
   -1.2310    1.7160    0.6540 C   0  0  1  0  0  0  0  0  0  0  0  0
   -1.3510    0.3020    1.0270 C   0  0  0  0  0  0  0  0  0  0  0  0
   -2.4970   -0.4070    0.5760 N   0  0  0  0  0  0  0  0  0  0  0  0
   -3.8610   -0.1150    1.2340 C   0  0  0  0  0  0  0  0  0  0  0  0
   -3.9270    0.5350    2.1870 O   0  0  0  0  0  0  0  0  0  0  0  0
   -4.7350   -0.7860    0.3610 N   0  0  0  0  0  0  0  0  0  0  0  0
   -6.3440   -0.3310    1.2810 C   0  0  0  0  0  0  0  0  0  0  0  0
   -5.8900    0.1060    2.0820 O   0  0  0  0  0  0  0  0  0  0  0  0
   -7.2410   -0.9100    0.2250 C   0  0  1  0  0  0  0  0  0  0  0  0
   -7.1430   -0.2260   -1.0850 C   0  0  0  0  0  0  0  0  0  0  0  0
   -7.1110   -1.1470   -2.2440 N   0  0  0  0  0  0  0  0  0  0  0  0
   -6.6830   -2.3730   -1.8650 N   0  0  0  0  0  0  0  0  0  0  0  0
   -6.7440   -2.9980   -0.9070 N   0  0  0  0  0  0  0  0  0  0  0  0
   -7.4840   -2.3430    0.2920 C   0  0  0  0  0  0  0  0  0  0  0  0
    1.8270   -0.1640   -3.9180 N   0  0  0  0  0  0  0  0  0  0  0  0
    2.9380   -1.1510   -3.7230 C   0  0  0  0  0  0  0  0  0  0  0  0
    3.3190   -1.7900   -4.6870 O   0  0  0  0  0  0  0  0  0  0  0  0
  1  2  3  0
  2  3  1  0
  3  4  2  0
  3 43  1  0
  4  5  1  0
  4 17  1  0
  5  6  1  0
  6  7  1  0
  7  8  1  0
  8  9  1  0
  9 10  2  0
  9 15  1  0
 10 11  1  0
 11 12  1  0
 11 13  2  0
 13 14  1  0
 14 15  2  0
 15 16  1  0
 17 18  1  0
 19 18  1  1
 18 42  1  0
 19 20  2  0
 19 21  2  0
 19 22  1  0
 22 23  2  3
 23 24  1  0
 23 28  1  0
 24 25  1  0
 25 26  1  0
 26 27  1  0
 27 28  1  0
 28 29  1  6
 29 30  1  0
 30 31  1  0
 31 32  2  0
 31 33  1  0
 33 34  1  0
 34 35  2  0
 36 34  1  6
 36 37  1  0
 36 41  1  0
 37 38  1  0
 38 39  1  0
 39 40  2  0
 40 41  1  0
 42 43  1  0
 43 44  2  0
M  CHG  1  40   1
M  END
