
     RDKit          3D

 47 51  0  0  0  0  0  0  0  0999 V2000
    5.6730    2.3580    4.7490 C   0  0  0  0  0  0  0  0  0  0  0  0
    4.8210    1.6700    3.8800 O   0  0  0  0  0  0  0  0  0  0  0  0
    5.2160    1.3050    2.5720 C   0  0  0  0  0  0  0  0  0  0  0  0
    6.4640    1.6290    2.1320 C   0  0  0  0  0  0  0  0  0  0  0  0
    6.8350    1.2660    0.8500 C   0  0  0  0  0  0  0  0  0  0  0  0
    5.9200    0.5900    0.0810 C   0  0  0  0  0  0  0  0  0  0  0  0
    6.3490    0.2450   -1.2090 O   0  0  0  0  0  0  0  0  0  0  0  0
    7.6580    0.5630   -1.6690 C   0  0  0  0  0  0  0  0  0  0  0  0
    4.6430    0.2370    0.4770 C   0  0  0  0  0  0  0  0  0  0  0  0
    3.6780   -0.3640   -0.4680 C   0  0  2  0  0  0  0  0  0  0  0  0
    2.2900   -0.4280    0.2360 C   0  0  0  0  0  0  0  0  0  0  0  0
    1.6400   -1.5110   -0.1620 C   0  0  0  0  0  0  0  0  0  0  0  0
    0.3770   -2.2380    0.0440 C   0  0  0  0  0  0  0  0  0  0  0  0
   -0.6760   -1.7040    0.9050 C   0  0  0  0  0  0  0  0  0  0  0  0
   -1.1570   -0.3410    0.7840 C   0  0  2  0  0  0  0  0  0  0  0  0
   -1.4030    0.2100    2.1900 C   0  0  0  0  0  0  0  0  0  0  0  0
   -2.2600    0.0180   -0.0400 N   0  0  2  0  0  0  0  0  0  0  0  0
   -3.3270    0.6990    0.5620 C   0  0  0  0  0  0  0  0  0  0  0  0
   -4.7390    0.3990    0.2770 C   0  0  0  0  0  0  0  0  0  0  0  0
   -5.1140   -0.4860   -0.4740 O   0  0  0  0  0  0  0  0  0  0  0  0
   -5.7690    1.1820    0.9010 N   0  0  0  0  0  0  0  0  0  0  0  0
   -7.1390    1.0530    0.7540 C   0  0  0  0  0  0  0  0  0  0  0  0
   -7.7640    0.0500    0.0760 C   0  0  0  0  0  0  0  0  0  0  0  0
   -9.1590   -0.0170   -0.0220 C   0  0  0  0  0  0  0  0  0  0  0  0
   -9.9530    0.9160    0.5530 C   0  0  0  0  0  0  0  0  0  0  0  0
   -9.3480    1.9400    1.2450 C   0  0  0  0  0  0  0  0  0  0  0  0
   -7.9770    2.0290    1.3580 C   0  0  0  0  0  0  0  0  0  0  0  0
   -7.3270    3.0350    2.0360 O   0  0  0  0  0  0  0  0  0  0  0  0
   -8.0160    4.0710    2.6760 C   0  0  0  0  0  0  0  0  0  0  0  0
   -2.5700   -0.7410   -1.1810 C   0  0  2  0  0  0  0  0  0  0  0  0
   -3.0390   -2.1460   -1.0380 C   0  0  0  0  0  0  0  0  0  0  0  0
   -1.5250   -0.7600   -2.3060 C   0  0  0  0  0  0  0  0  0  0  0  0
   -0.6160    0.3210   -2.3130 N   0  0  0  0  0  0  0  0  0  0  0  0
    0.7440    0.4990   -2.4830 C   0  0  0  0  0  0  0  0  0  0  0  0
    1.1310    1.7010   -2.0840 O   0  0  0  0  0  0  0  0  0  0  0  0
    1.8980   -0.2440   -2.9790 C   0  0  0  0  0  0  0  0  0  0  0  0
    2.3790    0.3010   -4.2160 C   0  0  0  0  0  0  0  0  0  0  0  0
    3.4190   -0.1760   -4.9470 C   0  0  0  0  0  0  0  0  0  0  0  0
    4.0760   -1.2820   -4.4610 C   0  0  0  0  0  0  0  0  0  0  0  0
    3.6420   -1.8250   -3.2770 C   0  0  0  0  0  0  0  0  0  0  0  0
    2.5580   -1.3220   -2.5160 C   0  0  0  0  0  0  0  0  0  0  0  0
    2.4770   -2.0970   -1.2490 C   0  0  1  0  0  0  0  0  0  0  0  0
    3.8260   -1.9030   -0.4650 C   0  0  2  0  0  0  0  0  0  0  0  0
    3.6260   -2.5410    0.7980 C   0  0  0  0  0  0  0  0  0  0  0  0
    3.7910   -3.9620    0.9280 N   0  0  0  0  0  0  0  0  0  0  0  0
    3.3000   -1.9860    1.8870 O   0  0  0  0  0  0  0  0  0  0  0  0
    4.3180    0.6200    1.7610 C   0  0  0  0  0  0  0  0  0  0  0  0
  1  2  1  0
  2  3  1  0
  3  4  2  0
  3 47  1  0
  4  5  1  0
  5  6  2  0
  6  7  1  0
  6  9  1  0
  7  8  1  0
 10  9  1  1
  9 47  2  0
 10 11  1  0
 10 43  1  0
 11 12  2  0
 12 13  1  0
 12 42  1  0
 13 14  1  0
 14 15  1  0
 15 16  1  1
 15 17  1  0
 17 18  1  1
 17 30  1  0
 18 19  1  0
 19 20  2  0
 19 21  1  0
 21 22  1  0
 22 23  2  0
 22 27  1  0
 23 24  1  0
 24 25  2  0
 25 26  1  0
 26 27  2  0
 27 28  1  0
 28 29  1  0
 30 31  1  1
 30 32  1  0
 32 33  1  0
 33 34  1  0
 34 35  2  0
 34 36  1  0
 36 37  2  0
 36 41  1  0
 37 38  1  0
 38 39  2  0
 39 40  1  0
 40 41  2  0
 42 41  1  6
 42 43  1  0
 43 44  1  1
 44 45  1  0
 44 46  2  0
M  CHG  1  17   1
M  END
