
     RDKit          3D

 33 37  0  0  0  0  0  0  0  0999 V2000
   -0.2830   -2.7450   -1.8510 O   0  0  0  0  0  0  0  0  0  0  0  0
    0.0360   -1.6250   -1.2880 C   0  0  0  0  0  0  0  0  0  0  0  0
    1.2900   -1.2530   -0.8830 O   0  0  0  0  0  0  0  0  0  0  0  0
    1.1890    0.0390   -0.3260 C   0  0  2  0  0  0  0  0  0  0  0  0
    2.0990    0.7510   -1.0940 O   0  0  0  0  0  0  0  0  0  0  0  0
    1.6830   -0.1780    1.0910 C   0  0  0  0  0  0  0  0  0  0  0  0
    3.0850   -0.6830    0.9700 C   0  0  0  0  0  0  0  0  0  0  0  0
    3.3590   -2.0300    0.8820 C   0  0  0  0  0  0  0  0  0  0  0  0
    4.6570   -2.4950    0.7710 C   0  0  0  0  0  0  0  0  0  0  0  0
    5.7250   -1.6270    0.7420 C   0  0  0  0  0  0  0  0  0  0  0  0
    7.3840   -2.1900    0.6010 Cl  0  0  0  0  0  0  0  0  0  0  0  0
    5.4750   -0.2760    0.8290 C   0  0  0  0  0  0  0  0  0  0  0  0
    4.1770    0.1750    0.9400 C   0  0  0  0  0  0  0  0  0  0  0  0
   -0.1990    0.4610   -0.3980 C   0  0  0  0  0  0  0  0  0  0  0  0
   -0.9020    1.6720    0.0580 C   0  0  0  0  0  0  0  0  0  0  0  0
   -1.9990    1.6320    0.9230 C   0  0  0  0  0  0  0  0  0  0  0  0
   -2.3960    2.9020    1.0980 N   0  0  0  0  0  0  0  0  0  0  0  0
   -1.6060    3.7300    0.3900 C   0  0  0  0  0  0  0  0  0  0  0  0
   -1.5790    5.0980    0.2150 C   0  0  0  0  0  0  0  0  0  0  0  0
   -0.6710    5.7580   -0.5760 C   0  0  0  0  0  0  0  0  0  0  0  0
   -0.6800    7.5090   -0.7650 Cl  0  0  0  0  0  0  0  0  0  0  0  0
    0.2830    4.9820   -1.2430 C   0  0  0  0  0  0  0  0  0  0  0  0
    0.2890    3.6150   -1.0940 C   0  0  0  0  0  0  0  0  0  0  0  0
   -0.6330    2.9800   -0.2940 C   0  0  0  0  0  0  0  0  0  0  0  0
   -0.8700   -0.5350   -0.9700 C   0  0  0  0  0  0  0  0  0  0  0  0
   -2.3280   -0.6500   -1.2670 C   0  0  0  0  0  0  0  0  0  0  0  0
   -2.8780   -1.9340   -0.7870 C   0  0  0  0  0  0  0  0  0  0  0  0
   -3.0750   -2.9920   -1.6830 C   0  0  0  0  0  0  0  0  0  0  0  0
   -3.5770   -4.1930   -1.2490 C   0  0  0  0  0  0  0  0  0  0  0  0
   -3.9110   -4.4240    0.0700 C   0  0  0  0  0  0  0  0  0  0  0  0
   -4.5450   -5.9730    0.5620 Cl  0  0  0  0  0  0  0  0  0  0  0  0
   -3.7240   -3.4020    0.9520 C   0  0  0  0  0  0  0  0  0  0  0  0
   -3.2120   -2.1730    0.5160 C   0  0  0  0  0  0  0  0  0  0  0  0
  1  2  2  0
  2  3  1  0
  2 25  1  0
  3  4  1  0
  4  5  1  6
  4  6  1  0
  4 14  1  0
  6  7  1  0
  7  8  2  0
  7 13  1  0
  8  9  1  0
  9 10  2  0
 10 11  1  0
 10 12  1  0
 12 13  2  0
 14 15  1  0
 14 25  2  0
 15 16  2  0
 15 24  1  0
 16 17  1  0
 17 18  1  0
 18 19  2  0
 18 24  1  0
 19 20  1  0
 20 21  1  0
 20 22  2  0
 22 23  1  0
 23 24  2  0
 25 26  1  0
 26 27  1  0
 27 28  2  0
 27 33  1  0
 28 29  1  0
 29 30  2  0
 30 31  1  0
 30 32  1  0
 32 33  2  0
M  END
