
     RDKit          3D

 44 47  0  0  0  0  0  0  0  0999 V2000
    0.0060   -5.1350   -1.3200 N   0  0  0  0  0  0  0  0  0  0  0  0
   -1.1590   -4.4770   -0.7600 C   0  0  0  0  0  0  0  0  0  0  0  0
   -2.2560   -4.5850   -1.3400 O   0  0  0  0  0  0  0  0  0  0  0  0
   -1.0450   -3.7310    0.4180 N   0  0  0  0  0  0  0  0  0  0  0  0
   -2.0550   -3.0030    1.0960 C   0  0  0  0  0  0  0  0  0  0  0  0
   -2.6540   -1.7910    0.5030 C   0  0  1  0  0  0  0  0  0  0  0  0
   -1.6180   -0.7290    0.2530 C   0  0  0  0  0  0  0  0  0  0  0  0
   -1.5720    0.4040    0.7740 N   0  0  0  0  0  0  0  0  0  0  0  0
   -2.5460    1.2010    1.8900 S   0  0  2  0  0  0  0  0  0  0  0  0
   -1.6330    2.1190    2.7070 O   0  0  0  0  0  0  0  0  0  0  0  0
   -3.2490    0.3600    2.8850 O   0  0  0  0  0  0  0  0  0  0  0  0
   -3.6810    2.2270    0.9860 C   0  0  0  0  0  0  0  0  0  0  0  0
   -4.9400    1.9550    1.0320 C   0  0  0  0  0  0  0  0  0  0  0  0
   -5.9820    2.7200    0.3350 C   0  0  0  0  0  0  0  0  0  0  0  0
   -7.2520    2.3790    0.4280 C   0  0  0  0  0  0  0  0  0  0  0  0
   -8.3180    3.1120   -0.2490 C   0  0  0  0  0  0  0  0  0  0  0  0
   -7.8800    4.2300   -0.9980 N   0  0  0  0  0  0  0  0  0  0  0  0
   -6.5490    4.5020   -1.0350 N   0  0  0  0  0  0  0  0  0  0  0  0
   -5.5930    3.8740   -0.4610 C   0  0  0  0  0  0  0  0  0  0  0  0
   -0.5720   -1.0450   -0.6810 N   0  0  0  0  0  0  0  0  0  0  0  0
    0.6670   -1.1670   -0.2690 C   0  0  0  0  0  0  0  0  0  0  0  0
    1.6550   -1.4620   -1.1270 N   0  0  0  0  0  0  0  0  0  0  0  0
    2.9310   -1.5890   -0.7100 C   0  0  0  0  0  0  0  0  0  0  0  0
    3.8570   -1.8710   -1.5510 O   0  0  0  0  0  0  0  0  0  0  0  0
    3.2740   -1.4300    0.5650 N   0  0  0  0  0  0  0  0  0  0  0  0
    4.6490   -1.5590    1.0350 C   0  0  0  0  0  0  0  0  0  0  0  0
    5.3600   -0.2640    0.9870 C   0  0  0  0  0  0  0  0  0  0  0  0
    5.0470    0.6220    1.8050 O   0  0  0  0  0  0  0  0  0  0  0  0
    6.3750   -0.0240    0.0400 N   0  0  0  0  0  0  0  0  0  0  0  0
    6.8440   -0.8470   -0.8880 N   0  0  0  0  0  0  0  0  0  0  0  0
    7.8040   -0.2570   -1.6100 C   0  0  0  0  0  0  0  0  0  0  0  0
    8.4740   -0.7310   -2.5730 O   0  0  0  0  0  0  0  0  0  0  0  0
    7.9510    1.0160   -1.1080 C   0  0  0  0  0  0  0  0  0  0  0  0
    8.7650    2.0760   -1.4320 C   0  0  0  0  0  0  0  0  0  0  0  0
    8.7150    3.2740   -0.7600 C   0  0  0  0  0  0  0  0  0  0  0  0
    7.8260    3.3940    0.2550 C   0  0  0  0  0  0  0  0  0  0  0  0
    7.0020    2.3570    0.6010 C   0  0  0  0  0  0  0  0  0  0  0  0
    7.0540    1.1390   -0.0840 C   0  0  0  0  0  0  0  0  0  0  0  0
    2.2820   -1.1310    1.4480 C   0  0  0  0  0  0  0  0  0  0  0  0
    2.5970   -0.9790    2.6590 O   0  0  0  0  0  0  0  0  0  0  0  0
    1.0050   -1.0050    1.0260 N   0  0  0  0  0  0  0  0  0  0  0  0
   -3.5830   -1.9270   -0.6350 C   0  0  2  0  0  0  0  0  0  0  0  0
   -4.1120   -0.6080   -1.0480 N   0  0  0  0  0  0  0  0  0  0  0  0
   -4.6630   -2.7290   -0.3460 O   0  0  0  0  0  0  0  0  0  0  0  0
  1  2  1  0
  2  3  2  0
  2  4  1  0
  4  5  1  0
  6  5  1  6
  6  7  1  0
  6 42  1  0
  7  8  2  3
  7 20  1  0
  8  9  1  0
  9 10  2  0
  9 11  2  0
  9 12  1  6
 12 13  2  3
 13 14  1  0
 14 15  2  0
 14 19  1  0
 15 16  1  0
 16 17  1  0
 17 18  1  0
 18 19  2  0
 20 21  2  3
 21 22  1  0
 21 41  1  0
 22 23  1  0
 23 24  2  0
 23 25  1  0
 25 26  1  0
 25 39  1  0
 26 27  1  0
 27 28  2  0
 27 29  1  0
 29 30  1  0
 29 38  1  0
 30 31  1  0
 31 32  2  0
 31 33  1  0
 33 34  2  0
 33 38  1  0
 34 35  1  0
 35 36  2  0
 36 37  1  0
 37 38  2  0
 39 40  2  0
 39 41  1  0
 42 43  1  1
 42 44  1  0
M  CHG  1  17   1
M  END
