
     RDKit          3D

 47 50  0  0  0  0  0  0  0  0999 V2000
   10.3730    3.1590   -1.8890 C   0  0  0  0  0  0  0  0  0  0  0  0
    9.8770    1.9370   -1.1220 C   0  0  0  0  0  0  0  0  0  0  0  0
    9.0150    1.1360   -2.0420 C   0  0  1  0  0  0  0  0  0  0  0  0
    9.7670    0.6670   -3.2710 C   0  0  0  0  0  0  0  0  0  0  0  0
    8.3660    0.0830   -1.3750 O   0  0  0  0  0  0  0  0  0  0  0  0
    6.9780   -0.0040   -1.3080 C   0  0  0  0  0  0  0  0  0  0  0  0
    6.3620    0.9250   -1.8860 O   0  0  0  0  0  0  0  0  0  0  0  0
    6.3400   -1.1120   -0.6030 C   0  0  0  0  0  0  0  0  0  0  0  0
    7.1140   -2.0930    0.0090 C   0  0  0  0  0  0  0  0  0  0  0  0
    8.6000   -2.0260   -0.0440 C   0  0  0  0  0  0  0  0  0  0  0  0
    6.5540   -3.1630    0.6880 C   0  0  0  0  0  0  0  0  0  0  0  0
    5.1880   -3.2760    0.7710 C   0  0  0  0  0  0  0  0  0  0  0  0
    4.4320   -2.2970    0.1610 C   0  0  0  0  0  0  0  0  0  0  0  0
    4.9490   -1.2190   -0.5240 C   0  0  0  0  0  0  0  0  0  0  0  0
    4.0970   -0.1890   -1.1620 C   0  0  0  0  0  0  0  0  0  0  0  0
    2.6900   -0.3920   -1.0470 N   0  0  0  0  0  0  0  0  0  0  0  0
    2.0710    0.2680    0.0950 C   0  0  0  0  0  0  0  0  0  0  0  0
    0.7670   -0.4260    0.4010 C   0  0  0  0  0  0  0  0  0  0  0  0
    0.0250    0.2020    1.5490 C   0  0  2  0  0  0  0  0  0  0  0  0
    0.7330    0.2260    2.8390 C   0  0  0  0  0  0  0  0  0  0  0  0
    1.1060   -1.1290    3.3740 C   0  0  0  0  0  0  0  0  0  0  0  0
    1.7780   -1.0200    4.6020 O   0  0  0  0  0  0  0  0  0  0  0  0
   -1.2340   -0.5030    1.6840 N   0  0  0  0  0  0  0  0  0  0  0  0
   -2.4610    0.0060    1.2100 C   0  0  0  0  0  0  0  0  0  0  0  0
   -2.4880    1.1130    0.6400 O   0  0  0  0  0  0  0  0  0  0  0  0
   -3.7210   -0.7270    1.3640 C   0  0  0  0  0  0  0  0  0  0  0  0
   -3.6800   -1.8230    1.9740 O   0  0  0  0  0  0  0  0  0  0  0  0
   -4.9470   -0.2650    0.8680 N   0  0  0  0  0  0  0  0  0  0  0  0
   -6.2160   -0.8860    0.9650 C   0  0  0  0  0  0  0  0  0  0  0  0
   -6.4700   -2.0480    1.6640 C   0  0  0  0  0  0  0  0  0  0  0  0
   -7.7370   -2.6270    1.7510 C   0  0  0  0  0  0  0  0  0  0  0  0
   -7.9560   -3.8830    2.5230 C   0  0  0  0  0  0  0  0  0  0  0  0
   -8.4100   -3.5500    3.8230 O   0  0  0  0  0  0  0  0  0  0  0  0
   -8.7520   -1.9740    1.0910 C   0  0  0  0  0  0  0  0  0  0  0  0
   -8.5150   -0.8040    0.3820 C   0  0  0  0  0  0  0  0  0  0  0  0
   -9.5450   -0.1550   -0.2860 C   0  0  0  0  0  0  0  0  0  0  0  0
  -10.7980   -0.7340   -0.1970 O   0  0  0  0  0  0  0  0  0  0  0  0
   -9.3040    0.9850   -0.9820 N   0  0  0  0  0  0  0  0  0  0  0  0
   -8.0820    1.5300   -1.0560 C   0  0  0  0  0  0  0  0  0  0  0  0
   -7.8190    2.7640   -1.8110 C   0  0  0  0  0  0  0  0  0  0  0  0
   -8.7890    3.4540   -2.4880 C   0  0  0  0  0  0  0  0  0  0  0  0
   -8.5010    4.6270   -3.2020 C   0  0  0  0  0  0  0  0  0  0  0  0
   -7.2110    5.1160   -3.2350 C   0  0  0  0  0  0  0  0  0  0  0  0
   -6.2400    4.4170   -2.5510 C   0  0  0  0  0  0  0  0  0  0  0  0
   -6.5310    3.2600   -1.8490 C   0  0  0  0  0  0  0  0  0  0  0  0
   -7.0800    0.8980   -0.4050 N   0  0  0  0  0  0  0  0  0  0  0  0
   -7.2680   -0.2420    0.3020 C   0  0  0  0  0  0  0  0  0  0  0  0
  1  2  1  0
  2  3  1  0
  3  4  1  6
  3  5  1  0
  5  6  1  0
  6  7  2  0
  6  8  1  0
  8  9  2  0
  8 14  1  0
  9 10  1  0
  9 11  1  0
 11 12  2  0
 12 13  1  0
 13 14  2  0
 14 15  1  0
 15 16  1  0
 16 17  1  0
 17 18  1  0
 19 18  1  6
 19 20  1  0
 19 23  1  0
 20 21  1  0
 21 22  1  0
 23 24  1  0
 24 25  2  0
 24 26  1  0
 26 27  2  0
 26 28  1  0
 28 29  1  0
 29 30  2  0
 29 47  1  0
 30 31  1  0
 31 32  1  0
 31 34  2  0
 32 33  1  0
 34 35  1  0
 35 36  2  0
 35 47  1  0
 36 37  1  0
 36 38  1  0
 38 39  2  0
 39 40  1  0
 39 46  1  0
 40 41  2  0
 40 45  1  0
 41 42  1  0
 42 43  2  0
 43 44  1  0
 44 45  2  0
 46 47  2  0
M  CHG  2  16   1  38   1
M  END
