
     RDKit          3D

 47 51  0  0  0  0  0  0  0  0999 V2000
    4.1690   -1.1880   -1.1400 C   0  0  0  0  0  0  0  0  0  0  0  0
    3.7800   -0.8020    0.0390 C   0  0  0  0  0  0  0  0  0  0  0  0
    3.6900    0.4740    0.5270 C   0  0  0  0  0  0  0  0  0  0  0  0
    3.9550    1.6790    0.0560 C   0  0  0  0  0  0  0  0  0  0  0  0
    4.4660    1.9990   -1.2240 C   0  0  0  0  0  0  0  0  0  0  0  0
    4.7130    3.2330   -1.6670 C   0  0  0  0  0  0  0  0  0  0  0  0
    5.2260    3.4710   -2.9570 O   0  0  0  0  0  0  0  0  0  0  0  0
    6.2420    4.4340   -3.1150 C   0  0  1  0  0  0  0  0  0  0  0  0
    6.3880    4.8130   -4.5940 C   0  0  0  0  0  0  0  0  0  0  0  0
    6.0230    5.6650   -2.3030 C   0  0  0  0  0  0  0  0  0  0  0  0
    4.8250    5.6190   -1.5890 O   0  0  0  0  0  0  0  0  0  0  0  0
    4.4810    4.4200   -0.8860 C   0  0  0  0  0  0  0  0  0  0  0  0
    4.0400    4.5090    0.2630 O   0  0  0  0  0  0  0  0  0  0  0  0
    3.2330    0.2870    1.8600 C   0  0  0  0  0  0  0  0  0  0  0  0
    3.0700   -1.0480    2.1280 C   0  0  0  0  0  0  0  0  0  0  0  0
    2.6750   -1.5330    3.4540 C   0  0  0  0  0  0  0  0  0  0  0  0
    2.6310   -2.7370    3.7220 O   0  0  0  0  0  0  0  0  0  0  0  0
    2.3260   -0.6590    4.4840 O   0  0  0  0  0  0  0  0  0  0  0  0
    1.9390   -1.1470    5.7750 C   0  0  0  0  0  0  0  0  0  0  0  0
    3.3930   -1.7100    1.0240 N   0  0  0  0  0  0  0  0  0  0  0  0
    3.2480   -3.1300    0.7750 C   0  0  0  0  0  0  0  0  0  0  0  0
    2.1550   -3.6130   -0.0150 C   0  0  0  0  0  0  0  0  0  0  0  0
    2.4900   -4.1010   -1.2080 O   0  0  0  0  0  0  0  0  0  0  0  0
    0.7290   -3.7040    0.1800 N   0  0  0  0  0  0  0  0  0  0  0  0
    0.1610   -3.2010    1.3830 C   0  0  0  0  0  0  0  0  0  0  0  0
   -0.2990   -1.8750    1.4890 N   0  0  0  0  0  0  0  0  0  0  0  0
   -1.6280   -1.4650    1.1650 C   0  0  0  0  0  0  0  0  0  0  0  0
   -2.5130   -2.2730    0.8080 O   0  0  0  0  0  0  0  0  0  0  0  0
   -1.9870   -0.0730    1.2440 N   0  0  0  0  0  0  0  0  0  0  0  0
   -3.3330    0.2910    0.9330 C   0  0  0  0  0  0  0  0  0  0  0  0
   -3.6560    1.7110    1.0080 C   0  0  0  0  0  0  0  0  0  0  0  0
   -2.7690    2.6880    1.3400 C   0  0  0  0  0  0  0  0  0  0  0  0
   -3.1270    4.0410    1.3960 C   0  0  0  0  0  0  0  0  0  0  0  0
   -4.4010    4.4170    1.1130 C   0  0  0  0  0  0  0  0  0  0  0  0
   -5.3250    3.4320    0.7710 C   0  0  0  0  0  0  0  0  0  0  0  0
   -6.6250    3.8070    0.4840 C   0  0  0  0  0  0  0  0  0  0  0  0
   -7.5570    2.8650    0.1470 C   0  0  0  0  0  0  0  0  0  0  0  0
   -8.9550    3.3090   -0.1560 C   0  0  0  0  0  0  0  0  0  0  0  0
   -7.2190    1.5360    0.0880 C   0  0  0  0  0  0  0  0  0  0  0  0
   -5.9170    1.1460    0.3740 C   0  0  0  0  0  0  0  0  0  0  0  0
   -4.9790    2.0950    0.7130 C   0  0  0  0  0  0  0  0  0  0  0  0
   -0.0440   -4.4220   -0.8520 C   0  0  2  0  0  0  0  0  0  0  0  0
   -0.7960   -3.5180   -1.7750 C   0  0  0  0  0  0  0  0  0  0  0  0
   -1.8920   -4.2980   -2.5080 C   0  0  0  0  0  0  0  0  0  0  0  0
   -2.9110   -4.7380   -1.5180 C   0  0  0  0  0  0  0  0  0  0  0  0
   -2.3080   -5.4320   -0.3440 C   0  0  0  0  0  0  0  0  0  0  0  0
   -0.8240   -5.5660   -0.3430 C   0  0  0  0  0  0  0  0  0  0  0  0
  1  2  2  0
  2  3  1  0
  2 20  1  0
  3  4  2  3
  3 14  1  0
  4  5  1  0
  5  6  2  3
  6  7  1  0
  6 12  1  0
  7  8  1  0
  8  9  1  6
  8 10  1  0
 10 11  1  0
 11 12  1  0
 12 13  2  0
 14 15  2  0
 15 16  1  0
 15 20  1  0
 16 17  2  0
 16 18  1  0
 18 19  1  0
 20 21  1  0
 21 22  1  0
 22 23  2  0
 22 24  1  0
 24 25  1  0
 42 24  1  1
 25 26  1  0
 26 27  1  0
 27 28  2  0
 27 29  1  0
 29 30  1  0
 30 31  1  0
 31 32  2  0
 31 41  1  0
 32 33  1  0
 33 34  2  0
 34 35  1  0
 35 36  2  0
 35 41  1  0
 36 37  1  0
 37 38  1  0
 37 39  2  0
 39 40  1  0
 40 41  2  0
 42 43  1  0
 42 47  1  0
 43 44  1  0
 44 45  1  0
 45 46  1  0
 46 47  1  0
M  END
