
     RDKit          3D

 46 49  0  0  0  0  0  0  0  0999 V2000
   -4.0740    7.7800    0.5390 C   0  0  0  0  0  0  0  0  0  0  0  0
   -4.8820    6.7350    0.1600 O   0  0  0  0  0  0  0  0  0  0  0  0
   -4.5470    5.5090    0.7050 C   0  0  0  0  0  0  0  0  0  0  0  0
   -3.1620    5.1260    0.3050 C   0  0  0  0  0  0  0  0  0  0  0  0
   -2.7400    3.7890    0.8600 C   0  0  0  0  0  0  0  0  0  0  0  0
   -3.6330    2.6600    0.4000 C   0  0  1  0  0  0  0  0  0  0  0  0
   -3.6600    2.4950   -1.0780 C   0  0  0  0  0  0  0  0  0  0  0  0
   -2.5880    1.4900   -1.3800 C   0  0  0  0  0  0  0  0  0  0  0  0
   -1.9710    1.4480   -2.4380 O   0  0  0  0  0  0  0  0  0  0  0  0
   -2.4560    0.6640   -0.2630 N   0  0  0  0  0  0  0  0  0  0  0  0
   -1.9290   -0.6430   -0.1660 C   0  0  1  0  0  0  0  0  0  0  0  0
   -2.7870   -1.7250   -0.7870 C   0  0  0  0  0  0  0  0  0  0  0  0
   -3.7830   -1.4650   -1.4550 O   0  0  0  0  0  0  0  0  0  0  0  0
   -2.3750   -3.0340   -0.5500 N   0  0  0  0  0  0  0  0  0  0  0  0
   -3.0260   -4.1850   -1.0500 C   0  0  0  0  0  0  0  0  0  0  0  0
   -3.8410   -4.0780   -2.1400 C   0  0  0  0  0  0  0  0  0  0  0  0
   -4.4210   -5.1970   -2.7000 C   0  0  0  0  0  0  0  0  0  0  0  0
   -4.1970   -6.4380   -2.1840 C   0  0  0  0  0  0  0  0  0  0  0  0
   -3.3660   -6.5320   -1.0750 C   0  0  0  0  0  0  0  0  0  0  0  0
   -2.7750   -5.4460   -0.4920 C   0  0  0  0  0  0  0  0  0  0  0  0
   -1.9810   -5.5150    0.6630 N   0  0  0  0  0  0  0  0  0  0  0  0
   -1.5500   -6.7320    1.2210 C   0  0  0  0  0  0  0  0  0  0  0  0
   -0.7000   -6.7060    2.4780 C   0  0  0  0  0  0  0  0  0  0  0  0
   -1.7910   -7.8730    0.7890 O   0  0  0  0  0  0  0  0  0  0  0  0
   -0.5080   -0.8130   -0.5120 C   0  0  0  0  0  0  0  0  0  0  0  0
    0.5060   -0.5550    0.4030 C   0  0  0  0  0  0  0  0  0  0  0  0
    1.8530   -0.6630    0.1020 C   0  0  0  0  0  0  0  0  0  0  0  0
    2.8660   -0.3570    1.1240 C   0  0  0  0  0  0  0  0  0  0  0  0
    2.5280   -0.2960    2.3240 O   0  0  0  0  0  0  0  0  0  0  0  0
    4.2060   -0.1260    0.7930 N   0  0  0  0  0  0  0  0  0  0  0  0
    5.2680    0.1910    1.7260 C   0  0  1  0  0  0  0  0  0  0  0  0
    6.2880   -0.9120    1.6750 C   0  0  0  0  0  0  0  0  0  0  0  0
    5.8860    1.5300    1.3580 C   0  0  0  0  0  0  0  0  0  0  0  0
    7.1750    1.6600    1.0580 C   0  0  0  0  0  0  0  0  0  0  0  0
    7.6460    2.9480    0.7290 C   0  0  0  0  0  0  0  0  0  0  0  0
    9.0350    3.3380    0.3620 C   0  0  0  0  0  0  0  0  0  0  0  0
    6.2460    3.9460    0.8540 S   0  0  0  0  0  0  0  0  0  0  0  0
    5.0680    2.6320    1.3400 C   0  0  0  0  0  0  0  0  0  0  0  0
    3.6600    2.8430    1.6040 C   0  0  0  0  0  0  0  0  0  0  0  0
    2.1650   -1.0500   -1.1830 C   0  0  0  0  0  0  0  0  0  0  0  0
    1.1810   -1.3190   -2.1320 C   0  0  0  0  0  0  0  0  0  0  0  0
   -0.1610   -1.1980   -1.7890 C   0  0  0  0  0  0  0  0  0  0  0  0
   -1.1650   -1.4590   -2.7040 O   0  0  0  0  0  0  0  0  0  0  0  0
   -0.9120   -1.8590   -4.0330 C   0  0  0  0  0  0  0  0  0  0  0  0
   -2.9900    1.4020    0.8700 C   0  0  0  0  0  0  0  0  0  0  0  0
   -2.9360    1.0640    2.0820 O   0  0  0  0  0  0  0  0  0  0  0  0
  1  2  1  0
  2  3  1  0
  3  4  1  0
  4  5  1  0
  6  5  1  6
  6  7  1  0
  6 45  1  0
  7  8  1  0
  8  9  2  0
  8 10  1  0
 11 10  1  6
 10 45  1  0
 11 12  1  0
 11 25  1  0
 12 13  2  0
 12 14  1  0
 14 15  1  0
 15 16  2  0
 15 20  1  0
 16 17  1  0
 17 18  2  0
 18 19  1  0
 19 20  2  0
 20 21  1  0
 21 22  1  0
 22 23  1  0
 22 24  2  0
 25 26  2  0
 25 42  1  0
 26 27  1  0
 27 28  1  0
 27 40  2  0
 28 29  2  0
 28 30  1  0
 30 31  1  0
 31 32  1  6
 31 33  1  0
 33 34  1  0
 33 38  2  0
 34 35  2  0
 35 36  1  0
 35 37  1  0
 37 38  1  0
 38 39  1  0
 40 41  1  0
 41 42  2  0
 42 43  1  0
 43 44  1  0
 45 46  2  0
M  END
