
     RDKit          3D

 47 50  0  0  0  0  0  0  0  0999 V2000
   -2.1740   -3.1760   -3.2020 C   0  0  0  0  0  0  0  0  0  0  0  0
   -2.1920   -1.8140   -2.7910 O   0  0  0  0  0  0  0  0  0  0  0  0
   -1.0370   -1.2970   -2.1360 C   0  0  0  0  0  0  0  0  0  0  0  0
    0.0360   -2.1370   -1.9330 C   0  0  0  0  0  0  0  0  0  0  0  0
    1.1900   -1.6360   -1.3000 C   0  0  0  0  0  0  0  0  0  0  0  0
    1.2710   -0.3410   -0.8820 C   0  0  0  0  0  0  0  0  0  0  0  0
    2.4400    0.2670   -0.3420 C   0  0  0  0  0  0  0  0  0  0  0  0
    2.2430    1.2960    0.4190 O   0  0  0  0  0  0  0  0  0  0  0  0
    3.7820   -0.1020   -0.5280 N   0  0  0  0  0  0  0  0  0  0  0  0
    4.8410    0.5750    0.2410 C   0  0  0  0  0  0  0  0  0  0  0  0
    6.0260    0.8590   -0.5850 C   0  0  0  0  0  0  0  0  0  0  0  0
    6.4850   -0.2720   -1.4570 C   0  0  1  0  0  0  0  0  0  0  0  0
    7.0120   -1.4710   -0.7350 C   0  0  0  0  0  0  0  0  0  0  0  0
    8.1640   -1.1020    0.0530 N   0  0  0  0  0  0  0  0  0  0  0  0
    9.3430   -0.5860   -0.5730 C   0  0  0  0  0  0  0  0  0  0  0  0
    9.4340   -0.4320   -1.8170 O   0  0  0  0  0  0  0  0  0  0  0  0
   10.5100   -0.2070    0.1770 N   0  0  0  0  0  0  0  0  0  0  0  0
   11.6760    0.3100   -0.4980 C   0  0  0  0  0  0  0  0  0  0  0  0
   12.7640    0.6070    0.4760 C   0  0  0  0  0  0  0  0  0  0  0  0
   13.7500    1.5630    0.2590 C   0  0  0  0  0  0  0  0  0  0  0  0
   14.5670    1.5390    1.3730 C   0  0  0  0  0  0  0  0  0  0  0  0
   14.0390    0.5640    2.2250 C   0  0  0  0  0  0  0  0  0  0  0  0
   14.6460    0.2360    3.5440 C   0  0  0  0  0  0  0  0  0  0  0  0
   12.9990    0.0790    1.6250 O   0  0  0  0  0  0  0  0  0  0  0  0
    5.3390   -0.5960   -2.3790 C   0  0  0  0  0  0  0  0  0  0  0  0
    4.1680   -1.0770   -1.5080 C   0  0  0  0  0  0  0  0  0  0  0  0
    0.1770    0.4680   -1.0960 C   0  0  0  0  0  0  0  0  0  0  0  0
   -0.9920    0.0010   -1.7250 C   0  0  0  0  0  0  0  0  0  0  0  0
   -2.0810    0.9540   -1.8720 C   0  0  0  0  0  0  0  0  0  0  0  0
   -3.1460    1.0380   -0.8340 C   0  0  2  0  0  0  0  0  0  0  0  0
   -2.5490    1.3450    0.5440 C   0  0  0  0  0  0  0  0  0  0  0  0
   -4.1800    0.0360   -0.8230 C   0  0  0  0  0  0  0  0  0  0  0  0
   -4.0550   -1.2330   -0.7410 O   0  0  0  0  0  0  0  0  0  0  0  0
   -5.6060    0.4060   -0.9060 N   0  0  0  0  0  0  0  0  0  0  0  0
   -6.6440   -0.5600   -0.9150 C   0  0  2  0  0  0  0  0  0  0  0  0
   -7.2720   -0.6820   -2.3110 C   0  0  0  0  0  0  0  0  0  0  0  0
   -8.6960   -1.1840   -2.2500 C   0  0  0  0  0  0  0  0  0  0  0  0
   -8.7640   -2.2230   -1.1370 C   0  0  0  0  0  0  0  0  0  0  0  0
   -8.6690   -1.4650    0.0650 O   0  0  0  0  0  0  0  0  0  0  0  0
   -7.7420   -0.3900    0.0220 C   0  0  0  0  0  0  0  0  0  0  0  0
   -7.9530    0.6460    0.8220 C   0  0  0  0  0  0  0  0  0  0  0  0
   -9.0990    0.6430    1.6840 C   0  0  0  0  0  0  0  0  0  0  0  0
   -9.4220    1.6340    2.5260 C   0  0  0  0  0  0  0  0  0  0  0  0
  -10.6090    1.5620    3.3780 C   0  0  1  0  0  0  0  0  0  0  0  0
  -11.3340    0.2270    3.1630 C   0  0  0  0  0  0  0  0  0  0  0  0
  -10.2820    1.6820    4.8670 C   0  0  0  0  0  0  0  0  0  0  0  0
  -11.5910    2.6760    3.0510 C   0  0  0  0  0  0  0  0  0  0  0  0
  1  2  1  0
  2  3  1  0
  3  4  2  0
  3 28  1  0
  4  5  1  0
  5  6  2  0
  6  7  1  0
  6 27  1  0
  7  8  2  0
  7  9  1  0
  9 10  1  0
  9 26  1  0
 10 11  1  0
 11 12  1  0
 12 13  1  1
 12 25  1  0
 13 14  1  0
 14 15  1  0
 15 16  2  0
 15 17  1  0
 17 18  1  0
 18 19  1  0
 19 20  2  0
 19 24  1  0
 20 21  1  0
 21 22  2  0
 22 23  1  0
 22 24  1  0
 25 26  1  0
 27 28  2  0
 28 29  1  0
 29 30  1  0
 30 31  1  1
 30 32  1  0
 32 33  2  0
 32 34  1  0
 35 34  1  6
 35 36  1  0
 35 40  1  0
 36 37  1  0
 37 38  1  0
 38 39  1  0
 39 40  1  0
 40 41  2  3
 41 42  1  0
 42 43  2  3
 43 44  1  0
 44 45  1  1
 44 46  1  0
 44 47  1  0
M  END
