
     RDKit          3D

 49 52  0  0  0  0  0  0  0  0999 V2000
  -11.3160    0.2780   -2.1080 C   0  0  0  0  0  0  0  0  0  0  0  0
  -10.2850    1.2310   -2.2250 O   0  0  0  0  0  0  0  0  0  0  0  0
   -9.0980    1.0840   -1.5400 C   0  0  0  0  0  0  0  0  0  0  0  0
   -8.8220    0.0250   -0.7080 C   0  0  0  0  0  0  0  0  0  0  0  0
   -7.6210   -0.0810   -0.0410 C   0  0  0  0  0  0  0  0  0  0  0  0
   -6.6150    0.8850   -0.1730 C   0  0  0  0  0  0  0  0  0  0  0  0
   -5.1120    0.7070    0.6940 S   0  0  1  0  0  0  0  0  0  0  0  0
   -4.7280    2.1230    1.0990 O   0  0  0  0  0  0  0  0  0  0  0  0
   -5.3330   -0.0460    1.9710 O   0  0  0  0  0  0  0  0  0  0  0  0
   -3.8270    0.0900   -0.2320 N   0  0  0  0  0  0  0  0  0  0  0  0
   -3.9710   -1.1970   -0.7910 C   0  0  0  0  0  0  0  0  0  0  0  0
   -4.7000   -1.1500   -2.1420 C   0  0  2  0  0  0  0  0  0  0  0  0
   -4.7690   -2.6120   -2.6050 C   0  0  0  0  0  0  0  0  0  0  0  0
   -3.9250   -0.4000   -3.1860 C   0  0  0  0  0  0  0  0  0  0  0  0
   -2.5340    0.3550    0.3620 C   0  0  0  0  0  0  0  0  0  0  0  0
   -2.1540   -0.5800    1.4480 C   0  0  1  0  0  0  0  0  0  0  0  0
   -2.1120   -1.9260    0.9450 O   0  0  0  0  0  0  0  0  0  0  0  0
   -0.9500   -0.4010    2.2300 C   0  0  2  0  0  0  0  0  0  0  0  0
   -0.8730    0.6250    3.3050 C   0  0  0  0  0  0  0  0  0  0  0  0
   -1.0570    2.0220    2.9810 C   0  0  0  0  0  0  0  0  0  0  0  0
   -2.3010    2.5870    3.1210 C   0  0  0  0  0  0  0  0  0  0  0  0
   -2.5400    3.9060    2.8320 C   0  0  0  0  0  0  0  0  0  0  0  0
   -1.5210    4.7150    2.3860 C   0  0  0  0  0  0  0  0  0  0  0  0
   -0.2820    4.1340    2.2520 C   0  0  0  0  0  0  0  0  0  0  0  0
   -0.0280    2.8160    2.5380 C   0  0  0  0  0  0  0  0  0  0  0  0
    0.3350   -0.5120    1.6110 N   0  0  0  0  0  0  0  0  0  0  0  0
    1.2960   -1.5300    1.8040 C   0  0  0  0  0  0  0  0  0  0  0  0
    0.9480   -2.4280    2.6180 O   0  0  0  0  0  0  0  0  0  0  0  0
    2.5880   -1.5720    1.1420 C   0  0  0  0  0  0  0  0  0  0  0  0
    2.6760   -2.0620   -0.1340 C   0  0  0  0  0  0  0  0  0  0  0  0
    3.8650   -2.1360   -0.8230 C   0  0  0  0  0  0  0  0  0  0  0  0
    3.9920   -2.6630   -2.2040 C   0  0  0  0  0  0  0  0  0  0  0  0
    5.0270   -1.6810   -0.1660 C   0  0  0  0  0  0  0  0  0  0  0  0
    5.0030   -1.1830    1.1050 C   0  0  0  0  0  0  0  0  0  0  0  0
    6.1710   -0.7330    1.7980 C   0  0  0  0  0  0  0  0  0  0  0  0
    5.9250   -0.1990    2.9750 O   0  0  0  0  0  0  0  0  0  0  0  0
    7.5180   -0.7480    1.4720 N   0  0  0  0  0  0  0  0  0  0  0  0
    8.4260   -0.1230    2.5040 C   0  0  0  0  0  0  0  0  0  0  0  0
    8.2010   -1.2860    0.3320 C   0  0  0  0  0  0  0  0  0  0  0  0
    8.3210   -0.3250   -0.7780 C   0  0  0  0  0  0  0  0  0  0  0  0
    7.8490    0.9250   -0.7950 N   0  0  0  0  0  0  0  0  0  0  0  0
    8.1620    1.4610   -1.9950 C   0  0  0  0  0  0  0  0  0  0  0  0
    7.8210    2.8290   -2.4220 C   0  0  0  0  0  0  0  0  0  0  0  0
    8.8090    0.5650   -2.6990 O   0  0  0  0  0  0  0  0  0  0  0  0
    8.9270   -0.5400   -1.9890 C   0  0  0  0  0  0  0  0  0  0  0  0
    9.5880   -1.7760   -2.4220 C   0  0  0  0  0  0  0  0  0  0  0  0
    3.7370   -1.1440    1.7390 C   0  0  0  0  0  0  0  0  0  0  0  0
   -6.9030    1.9420   -1.0100 C   0  0  0  0  0  0  0  0  0  0  0  0
   -8.1050    2.0520   -1.6800 C   0  0  0  0  0  0  0  0  0  0  0  0
  1  2  1  0
  2  3  1  0
  3  4  2  0
  3 49  1  0
  4  5  1  0
  5  6  2  0
  6  7  1  0
  6 48  1  0
  7  8  2  0
  7  9  2  0
  7 10  1  6
 10 11  1  0
 10 15  1  0
 11 12  1  0
 12 13  1  6
 12 14  1  0
 15 16  1  0
 16 17  1  6
 16 18  1  0
 18 19  1  6
 18 26  1  0
 19 20  1  0
 20 21  2  0
 20 25  1  0
 21 22  1  0
 22 23  2  0
 23 24  1  0
 24 25  2  0
 26 27  1  0
 27 28  2  0
 27 29  1  0
 29 30  2  0
 29 47  1  0
 30 31  1  0
 31 32  1  0
 31 33  2  0
 33 34  1  0
 34 35  1  0
 34 47  2  0
 35 36  2  0
 35 37  1  0
 37 38  1  0
 37 39  1  0
 39 40  1  0
 40 41  1  0
 40 45  2  0
 41 42  2  0
 42 43  1  0
 42 44  1  0
 44 45  1  0
 45 46  1  0
 48 49  2  0
M  END
