
     RDKit          3D

 47 51  0  0  0  0  0  0  0  0999 V2000
   10.6820   -1.2420   -1.0220 C   0  0  0  0  0  0  0  0  0  0  0  0
    9.4580   -1.5590   -0.1700 C   0  0  0  0  0  0  0  0  0  0  0  0
    8.2930   -1.9470   -1.0230 C   0  0  0  0  0  0  0  0  0  0  0  0
    7.0500   -2.2900   -0.3140 C   0  0  0  0  0  0  0  0  0  0  0  0
    6.1030   -1.2710   -0.0630 C   0  0  0  0  0  0  0  0  0  0  0  0
    4.9290   -1.4880    0.5980 C   0  0  0  0  0  0  0  0  0  0  0  0
    4.0330   -0.4730    0.8240 O   0  0  0  0  0  0  0  0  0  0  0  0
    2.8070   -0.6340    1.4900 C   0  0  0  0  0  0  0  0  0  0  0  0
    2.0810    0.6780    1.5690 C   0  0  0  0  0  0  0  0  0  0  0  0
    2.6250    1.7130    1.1130 O   0  0  0  0  0  0  0  0  0  0  0  0
    0.8320    0.7810    2.1270 O   0  0  0  0  0  0  0  0  0  0  0  0
    0.0970    1.9700    2.2310 C   0  0  0  0  0  0  0  0  0  0  0  0
   -0.1690    2.5320    0.8980 C   0  0  2  0  0  0  0  0  0  0  0  0
   -0.8990    3.7970    0.8880 N   0  0  0  0  0  0  0  0  0  0  0  0
   -0.4310    4.9760    0.3440 C   0  0  0  0  0  0  0  0  0  0  0  0
    0.7550    4.8850   -0.1740 O   0  0  0  0  0  0  0  0  0  0  0  0
   -1.1280    6.2090    0.3220 C   0  0  0  0  0  0  0  0  0  0  0  0
   -0.4910    7.3650   -0.0790 N   0  0  0  0  0  0  0  0  0  0  0  0
   -1.3080    8.4080   -0.0480 C   0  0  0  0  0  0  0  0  0  0  0  0
   -1.0110    9.5930   -0.3590 O   0  0  0  0  0  0  0  0  0  0  0  0
   -2.4820    7.9330    0.3770 N   0  0  0  0  0  0  0  0  0  0  0  0
   -2.4000    6.6100    0.6060 C   0  0  0  0  0  0  0  0  0  0  0  0
   -3.4920    5.7410    1.0630 C   0  0  1  0  0  0  0  0  0  0  0  0
   -4.7010    6.6810    1.3250 C   0  0  0  0  0  0  0  0  0  0  0  0
   -4.0370    4.8420   -0.0470 C   0  0  0  0  0  0  0  0  0  0  0  0
   -1.0020    1.6080    0.0870 C   0  0  0  0  0  0  0  0  0  0  0  0
   -1.3900    1.9770   -1.2070 C   0  0  0  0  0  0  0  0  0  0  0  0
   -2.1720    1.1350   -1.9500 C   0  0  0  0  0  0  0  0  0  0  0  0
   -2.6020   -0.0830   -1.4690 C   0  0  0  0  0  0  0  0  0  0  0  0
   -2.2350   -0.4550   -0.2190 C   0  0  0  0  0  0  0  0  0  0  0  0
   -1.4300    0.3980    0.5630 C   0  0  0  0  0  0  0  0  0  0  0  0
   -2.6610   -1.7480    0.3470 C   0  0  0  0  0  0  0  0  0  0  0  0
   -3.6480   -2.4470   -0.4080 N   0  0  0  0  0  0  0  0  0  0  0  0
   -4.9690   -2.0850   -0.0230 C   0  0  0  0  0  0  0  0  0  0  0  0
   -6.0870   -2.7810   -0.7060 C   0  0  2  0  0  0  0  0  0  0  0  0
   -6.1320   -4.2530   -0.3040 C   0  0  0  0  0  0  0  0  0  0  0  0
   -7.4830   -4.8210   -0.7030 C   0  0  0  0  0  0  0  0  0  0  0  0
   -7.9940   -4.1280   -1.9600 C   0  0  0  0  0  0  0  0  0  0  0  0
   -6.7390   -3.7200   -2.7310 C   0  0  0  0  0  0  0  0  0  0  0  0
   -6.1720   -2.6460   -2.0610 O   0  0  0  0  0  0  0  0  0  0  0  0
   -3.3540   -2.3490   -1.8140 C   0  0  0  0  0  0  0  0  0  0  0  0
   -3.4430   -0.9290   -2.3180 C   0  0  0  0  0  0  0  0  0  0  0  0
    4.6920   -2.7830    1.0260 C   0  0  0  0  0  0  0  0  0  0  0  0
    5.5950   -3.7890    0.7940 C   0  0  0  0  0  0  0  0  0  0  0  0
    6.7950   -3.5580    0.1170 C   0  0  0  0  0  0  0  0  0  0  0  0
    7.6670   -4.7040   -0.0810 C   0  0  0  0  0  0  0  0  0  0  0  0
    8.7360   -4.7930    0.9470 C   0  0  0  0  0  0  0  0  0  0  0  0
  1  2  1  0
  2  3  1  0
  3  4  1  0
  4  5  2  0
  4 45  1  0
  5  6  1  0
  6  7  1  0
  6 43  2  0
  7  8  1  0
  8  9  1  0
  9 10  2  0
  9 11  1  0
 11 12  1  0
 13 12  1  1
 13 14  1  0
 13 26  1  0
 14 15  1  0
 15 16  2  0
 15 17  1  0
 17 18  1  0
 17 22  2  0
 18 19  1  0
 19 20  2  0
 19 21  1  0
 21 22  1  0
 22 23  1  0
 23 24  1  6
 23 25  1  0
 26 27  2  0
 26 31  1  0
 27 28  1  0
 28 29  2  0
 29 30  1  0
 29 42  1  0
 30 31  2  0
 30 32  1  0
 32 33  1  0
 33 34  1  0
 33 41  1  0
 35 34  1  6
 35 36  1  0
 35 40  1  0
 36 37  1  0
 37 38  1  0
 38 39  1  0
 39 40  1  0
 41 42  1  0
 43 44  1  0
 44 45  2  0
 45 46  1  0
 46 47  1  0
M  END
