
     RDKit          3D

 47 51  0  0  0  0  0  0  0  0999 V2000
   12.0660   -0.4390    2.5080 C   0  0  0  0  0  0  0  0  0  0  0  0
   10.6110   -0.1010    2.4720 C   0  0  0  0  0  0  0  0  0  0  0  0
   10.1530    0.8690    3.0420 O   0  0  0  0  0  0  0  0  0  0  0  0
    9.7140   -1.0160    1.6930 C   0  0  1  0  0  0  0  0  0  0  0  0
    9.7390   -2.4000    2.2630 C   0  0  0  0  0  0  0  0  0  0  0  0
    8.3680   -0.4700    1.7940 N   0  0  0  0  0  0  0  0  0  0  0  0
    7.7310    0.0100    0.6250 C   0  0  0  0  0  0  0  0  0  0  0  0
    8.3500   -0.0540   -0.4530 O   0  0  0  0  0  0  0  0  0  0  0  0
    6.3810    0.5630    0.7130 C   0  0  0  0  0  0  0  0  0  0  0  0
    5.7550    0.9680   -0.5980 C   0  0  0  0  0  0  0  0  0  0  0  0
    5.5670   -0.1590   -1.5560 C   0  0  0  0  0  0  0  0  0  0  0  0
    4.9400    0.2070   -2.8530 C   0  0  2  0  0  0  0  0  0  0  0  0
    5.8560    1.2510   -3.5300 C   0  0  0  0  0  0  0  0  0  0  0  0
    5.2660    2.5990   -3.5170 C   0  0  0  0  0  0  0  0  0  0  0  0
    5.9020    3.5790   -3.1230 O   0  0  0  0  0  0  0  0  0  0  0  0
    3.9290    2.6940   -3.9810 N   0  0  0  0  0  0  0  0  0  0  0  0
    3.2240    1.4750   -4.0520 C   0  0  0  0  0  0  0  0  0  0  0  0
    2.4010    1.2670   -4.9440 O   0  0  0  0  0  0  0  0  0  0  0  0
    3.5170    0.4470   -2.9960 C   0  0  2  0  0  0  0  0  0  0  0  0
    2.6160    0.7610   -1.8730 C   0  0  0  0  0  0  0  0  0  0  0  0
    2.4530   -0.2520   -0.7840 C   0  0  0  0  0  0  0  0  0  0  0  0
    1.4550    0.2680    0.2470 C   0  0  0  0  0  0  0  0  0  0  0  0
    1.8740    1.0190    1.3120 C   0  0  0  0  0  0  0  0  0  0  0  0
    0.9020    1.4510    2.1860 C   0  0  0  0  0  0  0  0  0  0  0  0
   -0.4340    1.1690    2.0430 C   0  0  0  0  0  0  0  0  0  0  0  0
   -0.8570    0.4040    0.9590 C   0  0  0  0  0  0  0  0  0  0  0  0
   -2.2420    0.1670    0.8430 N   0  0  0  0  0  0  0  0  0  0  0  0
   -2.8260   -0.8940    0.1360 C   0  0  0  0  0  0  0  0  0  0  0  0
   -2.0070   -1.7110   -0.4240 O   0  0  0  0  0  0  0  0  0  0  0  0
   -4.2630   -1.1440   -0.0120 C   0  0  0  0  0  0  0  0  0  0  0  0
   -4.7880   -2.3810   -0.4260 C   0  0  0  0  0  0  0  0  0  0  0  0
   -6.1520   -2.2350   -0.4240 C   0  0  0  0  0  0  0  0  0  0  0  0
   -7.1690   -3.2840   -0.7920 C   0  0  0  0  0  0  0  0  0  0  0  0
   -6.4890   -0.9940   -0.0380 N   0  0  0  0  0  0  0  0  0  0  0  0
   -7.7910   -0.4390    0.0840 C   0  0  0  0  0  0  0  0  0  0  0  0
   -8.3230    0.3510   -0.9400 C   0  0  0  0  0  0  0  0  0  0  0  0
   -9.5750    0.8990   -0.8540 C   0  0  0  0  0  0  0  0  0  0  0  0
  -10.3730    0.6890    0.2690 C   0  0  0  0  0  0  0  0  0  0  0  0
   -9.8580   -0.0830    1.2740 C   0  0  0  0  0  0  0  0  0  0  0  0
   -8.5840   -0.6400    1.1840 C   0  0  0  0  0  0  0  0  0  0  0  0
  -10.6680   -0.2920    2.4070 O   0  0  0  0  0  0  0  0  0  0  0  0
  -12.0590   -0.0630    2.4150 C   0  0  0  0  0  0  0  0  0  0  0  0
  -12.6070    0.2400    1.0300 C   0  0  0  0  0  0  0  0  0  0  0  0
  -11.7310    1.2780    0.3650 C   0  0  0  0  0  0  0  0  0  0  0  0
   -5.3210   -0.3190    0.2160 C   0  0  0  0  0  0  0  0  0  0  0  0
   -5.3080    1.1060    0.6540 C   0  0  0  0  0  0  0  0  0  0  0  0
    0.0990   -0.0330    0.0770 C   0  0  0  0  0  0  0  0  0  0  0  0
  1  2  1  0
  2  3  2  0
  2  4  1  0
  4  5  1  1
  4  6  1  0
  6  7  1  0
  7  8  2  0
  7  9  1  0
  9 10  1  0
 10 11  1  0
 12 11  1  1
 12 13  1  0
 12 19  1  0
 13 14  1  0
 14 15  2  0
 14 16  1  0
 16 17  1  0
 17 18  2  0
 17 19  1  0
 19 20  1  1
 20 21  1  0
 21 22  1  0
 22 23  2  0
 22 47  1  0
 23 24  1  0
 24 25  2  0
 25 26  1  0
 26 27  1  0
 26 47  2  0
 27 28  1  0
 28 29  2  0
 28 30  1  0
 30 31  1  0
 30 45  2  0
 31 32  2  0
 32 33  1  0
 32 34  1  0
 34 35  1  0
 34 45  1  0
 35 36  2  0
 35 40  1  0
 36 37  1  0
 37 38  2  0
 38 39  1  0
 38 44  1  0
 39 40  2  0
 39 41  1  0
 41 42  1  0
 42 43  1  0
 43 44  1  0
 45 46  1  0
M  END
