
     RDKit          3D

 15 16  0  0  0  0  0  0  0  0999 V2000
   -4.7660    0.6420    0.2120 C   0  0  0  0  0  0  0  0  0  0  0  0
   -3.4680    0.0690   -0.3110 C   0  0  0  0  0  0  0  0  0  0  0  0
   -2.2850    0.5500    0.4950 C   0  0  0  0  0  0  0  0  0  0  0  0
   -1.0340    0.0090    0.0040 N   0  0  0  0  0  0  0  0  0  0  0  0
   -0.5520   -1.2380    0.5360 C   0  0  0  0  0  0  0  0  0  0  0  0
    0.8560   -1.5520    0.1800 C   0  0  0  0  0  0  0  0  0  0  0  0
    1.5570   -0.5120   -0.4910 N   0  0  0  0  0  0  0  0  0  0  0  0
    2.8950   -0.1510   -0.1480 C   0  0  0  0  0  0  0  0  0  0  0  0
    3.8470   -0.9100    0.2700 N   0  0  0  0  0  0  0  0  0  0  0  0
    5.0240   -0.1060    0.4880 C   0  0  0  0  0  0  0  0  0  0  0  0
    4.6660    1.2390    0.1510 N   0  0  0  0  0  0  0  0  0  0  0  0
    3.4460    1.2000   -0.2110 C   0  0  0  0  0  0  0  0  0  0  0  0
    0.8900    0.2020   -1.5560 C   0  0  0  0  0  0  0  0  0  0  0  0
   -0.3550    0.7640   -0.9900 C   0  0  0  0  0  0  0  0  0  0  0  0
   -0.7480    1.8790   -1.4170 O   0  0  0  0  0  0  0  0  0  0  0  0
  1  2  1  0
  2  3  1  0
  3  4  1  0
  4  5  1  0
  4 14  1  0
  5  6  1  0
  6  7  1  0
  7  8  1  0
  7 13  1  0
  8  9  2  0
  8 12  1  0
  9 10  1  0
 10 11  1  0
 11 12  2  0
 13 14  1  0
 14 15  2  0
M  END
