
     RDKit          3D

 11 11  0  0  0  0  0  0  0  0999 V2000
   -2.5160    0.8990    0.5280 O   0  0  0  0  0  0  0  0  0  0  0  0
   -2.2010    0.0970   -0.5770 C   0  0  2  0  0  0  0  0  0  0  0  0
   -3.3390   -0.6020   -0.9140 O   0  0  0  0  0  0  0  0  0  0  0  0
   -1.0910   -0.8680   -0.1860 C   0  0  0  0  0  0  0  0  0  0  0  0
    0.0830   -0.0290    0.2260 C   0  0  2  0  0  0  0  0  0  0  0  0
   -0.2490    0.7760    1.2910 O   0  0  0  0  0  0  0  0  0  0  0  0
    0.6720    0.7480   -0.9360 C   0  0  0  0  0  0  0  0  0  0  0  0
    1.8820    1.1600   -0.4370 O   0  0  0  0  0  0  0  0  0  0  0  0
    2.3620    0.2190    0.4310 C   0  0  2  0  0  0  0  0  0  0  0  0
    3.6060   -0.2930    0.0970 O   0  0  0  0  0  0  0  0  0  0  0  0
    1.3090   -0.8770    0.5440 C   0  0  0  0  0  0  0  0  0  0  0  0
  2  1  1  1
  2  3  1  0
  2  4  1  0
  4  5  1  0
  5  6  1  1
  5  7  1  0
  5 11  1  0
  7  8  1  0
  8  9  1  0
  9 10  1  6
  9 11  1  0
M  END
