
     RDKit          3D

 11 11  0  0  0  0  0  0  0  0999 V2000
   -2.2440   -0.7420    1.0130 O   0  0  0  0  0  0  0  0  0  0  0  0
   -2.0990    0.0430   -0.1320 C   0  0  0  0  0  0  0  0  0  0  0  0
   -0.6750   -0.0150   -0.6120 C   0  0  2  0  0  0  0  0  0  0  0  0
   -0.5680    0.7760   -1.7510 O   0  0  0  0  0  0  0  0  0  0  0  0
   -0.2370   -1.4440   -0.9070 C   0  0  0  0  0  0  0  0  0  0  0  0
    0.9970   -1.3650   -1.5380 O   0  0  0  0  0  0  0  0  0  0  0  0
    1.9970   -0.9250   -0.6780 C   0  0  0  0  0  0  0  0  0  0  0  0
    1.6760    0.4370   -0.1050 C   0  0  1  0  0  0  0  0  0  0  0  0
    1.7870    1.3500   -1.1690 O   0  0  0  0  0  0  0  0  0  0  0  0
    0.2750    0.5100    0.4540 C   0  0  1  0  0  0  0  0  0  0  0  0
   -0.0120    1.8130    0.7860 O   0  0  0  0  0  0  0  0  0  0  0  0
  1  2  1  0
  2  3  1  0
  3  4  1  6
  3  5  1  0
  3 10  1  0
  5  6  1  0
  6  7  1  0
  7  8  1  0
  8  9  1  6
  8 10  1  0
 10 11  1  6
M  END
