
     RDKit          3D

 26 29  0  0  0  0  0  0  0  0999 V2000
    4.3300   -0.2600   -1.4470 C   0  0  0  0  0  0  0  0  0  0  0  0
    3.7850   -0.9820   -0.1930 C   0  0  0  0  0  0  0  0  0  0  0  0
    2.6070   -0.3470    0.2910 N   0  0  0  0  0  0  0  0  0  0  0  0
    2.6780    1.0810    0.4670 C   0  0  0  0  0  0  0  0  0  0  0  0
    3.9650    1.4600    0.7440 C   0  0  0  0  0  0  0  0  0  0  0  0
    4.1980    2.8060    0.9430 C   0  0  0  0  0  0  0  0  0  0  0  0
    3.1460    3.6990    0.8570 C   0  0  0  0  0  0  0  0  0  0  0  0
    3.4090    5.0290    1.0600 F   0  0  0  0  0  0  0  0  0  0  0  0
    1.8600    3.2910    0.5770 C   0  0  0  0  0  0  0  0  0  0  0  0
    1.6010    1.9420    0.3730 C   0  0  0  0  0  0  0  0  0  0  0  0
    0.2180    1.6690    0.0820 N   0  0  0  0  0  0  0  0  0  0  0  0
   -0.3960    0.5080    0.1240 C   0  0  0  0  0  0  0  0  0  0  0  0
   -1.7730    0.4990   -0.2090 N   0  0  0  0  0  0  0  0  0  0  0  0
   -2.7090    0.9970    0.7510 C   0  0  0  0  0  0  0  0  0  0  0  0
   -4.1380    0.7190    0.4640 C   0  0  0  0  0  0  0  0  0  0  0  0
   -4.4190   -0.0240   -0.7220 N   0  0  2  0  0  0  0  0  0  0  0  0
   -4.4740   -1.4540   -0.4820 C   0  0  0  0  0  0  0  0  0  0  0  0
   -3.5890    0.3340   -1.8300 C   0  0  0  0  0  0  0  0  0  0  0  0
   -2.1550   -0.0080   -1.5110 C   0  0  0  0  0  0  0  0  0  0  0  0
    0.1440   -0.7990    0.4770 C   0  0  0  0  0  0  0  0  0  0  0  0
   -0.8020   -1.7520    0.7750 C   0  0  0  0  0  0  0  0  0  0  0  0
   -0.4270   -3.0340    1.1430 C   0  0  0  0  0  0  0  0  0  0  0  0
   -1.6840   -4.2250    1.5160 Cl  0  0  0  0  0  0  0  0  0  0  0  0
    0.9060   -3.3810    1.2180 C   0  0  0  0  0  0  0  0  0  0  0  0
    1.8800   -2.4550    0.9270 C   0  0  0  0  0  0  0  0  0  0  0  0
    1.4680   -1.1960    0.5660 C   0  0  0  0  0  0  0  0  0  0  0  0
  1  2  1  0
  2  3  1  0
  3  4  1  0
  3 26  1  0
  4  5  2  0
  4 10  1  0
  5  6  1  0
  6  7  2  0
  7  8  1  0
  7  9  1  0
  9 10  2  0
 10 11  1  0
 11 12  2  0
 12 13  1  0
 12 20  1  0
 13 14  1  0
 13 19  1  0
 14 15  1  0
 15 16  1  0
 16 17  1  1
 16 18  1  0
 18 19  1  0
 20 21  2  0
 20 26  1  0
 21 22  1  0
 22 23  1  0
 22 24  2  0
 24 25  1  0
 25 26  2  0
M  CHG  1  16   1
M  END
