
     RDKit          3D

 11 11  0  0  0  0  0  0  0  0999 V2000
    3.7820   -0.7680   -0.5850 C   0  0  0  0  0  0  0  0  0  0  0  0
    2.4280   -0.3640   -0.6910 O   0  0  0  0  0  0  0  0  0  0  0  0
    1.5390   -0.3790    0.3510 C   0  0  0  0  0  0  0  0  0  0  0  0
    1.9510   -0.7760    1.4710 O   0  0  0  0  0  0  0  0  0  0  0  0
    0.1400    0.0480    0.1990 C   0  0  0  0  0  0  0  0  0  0  0  0
   -0.3030    0.4670   -0.9760 C   0  0  0  0  0  0  0  0  0  0  0  0
   -1.7210    0.9100   -1.1680 C   0  0  0  0  0  0  0  0  0  0  0  0
   -2.5580   -0.0090   -0.2720 C   0  0  0  0  0  0  0  0  0  0  0  0
   -2.2030    0.3460    1.1540 C   0  0  0  0  0  0  0  0  0  0  0  0
   -0.7550    0.0110    1.3360 C   0  0  0  0  0  0  0  0  0  0  0  0
   -0.3820   -0.2930    2.4980 O   0  0  0  0  0  0  0  0  0  0  0  0
  1  2  1  0
  2  3  1  0
  3  4  2  0
  3  5  1  0
  5  6  2  0
  5 10  1  0
  6  7  1  0
  7  8  1  0
  8  9  1  0
  9 10  1  0
 10 11  2  0
M  END
