
     RDKit          3D

 22 21  0  0  0  0  0  0  0  0999 V2000
    6.3570   -0.4490   -1.5490 C   0  0  0  0  0  0  0  0  0  0  0  0
    5.1030   -0.6180   -0.7820 C   0  0  0  0  0  0  0  0  0  0  0  0
    4.8540    0.1150    0.2740 C   0  0  0  0  0  0  0  0  0  0  0  0
    5.9180    1.1300    0.6530 C   0  0  0  0  0  0  0  0  0  0  0  0
    5.4080    2.4200    0.6310 O   0  0  0  0  0  0  0  0  0  0  0  0
    3.6900    0.0900    1.1520 C   0  0  1  0  0  0  0  0  0  0  0  0
    3.1130    1.3590    1.3760 O   0  0  0  0  0  0  0  0  0  0  0  0
    2.5890   -0.8480    0.8240 C   0  0  2  0  0  0  0  0  0  0  0  0
    2.9870   -2.2810    0.7200 C   0  0  0  0  0  0  0  0  0  0  0  0
    1.8160   -0.4890   -0.3310 N   0  0  0  0  0  0  0  0  0  0  0  0
    0.4120   -0.1390   -0.2760 C   0  0  0  0  0  0  0  0  0  0  0  0
   -0.0890   -0.1730    0.8780 O   0  0  0  0  0  0  0  0  0  0  0  0
   -0.2970    0.2060   -1.4490 N   0  0  0  0  0  0  0  0  0  0  0  0
   -1.7110    0.5430   -1.3530 C   0  0  0  0  0  0  0  0  0  0  0  0
   -2.5130   -0.5970   -0.8310 C   0  0  0  0  0  0  0  0  0  0  0  0
   -3.9740   -0.4070   -0.7090 C   0  0  2  0  0  0  0  0  0  0  0  0
   -4.5520   -1.7240   -0.1530 C   0  0  0  0  0  0  0  0  0  0  0  0
   -4.5130   -0.3210   -2.0030 O   0  0  0  0  0  0  0  0  0  0  0  0
   -4.4700    0.6730    0.1800 C   0  0  1  0  0  0  0  0  0  0  0  0
   -4.0100    0.5170    1.6150 C   0  0  0  0  0  0  0  0  0  0  0  0
   -4.1730    2.0690   -0.2710 C   0  0  0  0  0  0  0  0  0  0  0  0
   -6.0200    0.5940    0.2860 C   0  0  0  0  0  0  0  0  0  0  0  0
  1  2  1  0
  2  3  2  3
  3  4  1  0
  3  6  1  0
  4  5  1  0
  6  7  1  6
  6  8  1  0
  8  9  1  6
  8 10  1  0
 10 11  1  0
 11 12  2  0
 11 13  1  0
 13 14  1  0
 14 15  1  0
 15 16  1  0
 16 17  1  1
 16 18  1  0
 16 19  1  0
 19 20  1  1
 19 21  1  0
 19 22  1  0
M  END
