
     RDKit          3D

 22 23  0  0  0  0  0  0  0  0999 V2000
   -3.1780   -1.7660    1.4680 C   0  0  0  0  0  0  0  0  0  0  0  0
   -1.8020   -1.1600    1.2210 C   0  0  1  0  0  0  0  0  0  0  0  0
   -1.4440   -0.4500    2.5050 C   0  0  0  0  0  0  0  0  0  0  0  0
   -0.8670   -2.3250    1.0730 C   0  0  0  0  0  0  0  0  0  0  0  0
    0.5050   -1.8080    0.7740 C   0  0  0  0  0  0  0  0  0  0  0  0
    0.4830   -1.1820   -0.5840 C   0  0  2  0  0  0  0  0  0  0  0  0
    1.5090   -0.1250   -0.6570 N   0  0  0  0  0  0  0  0  0  0  0  0
    2.8160   -0.7520   -0.4820 C   0  0  0  0  0  0  0  0  0  0  0  0
    3.8660    0.2990   -0.5340 C   0  0  0  0  0  0  0  0  0  0  0  0
    4.7330    0.5950    0.4280 C   0  0  0  0  0  0  0  0  0  0  0  0
    5.6050    1.6840    0.0070 C   0  0  0  0  0  0  0  0  0  0  0  0
    6.5500    2.2230    0.6760 O   0  0  0  0  0  0  0  0  0  0  0  0
    5.2250    2.0630   -1.3070 N   0  0  0  0  0  0  0  0  0  0  0  0
    4.1420    1.1980   -1.6400 C   0  0  0  0  0  0  0  0  0  0  0  0
    3.5070    1.1990   -2.7280 O   0  0  0  0  0  0  0  0  0  0  0  0
   -0.8490   -0.6980   -1.0510 C   0  0  0  0  0  0  0  0  0  0  0  0
   -1.7830   -0.2510    0.0040 C   0  0  1  0  0  0  0  0  0  0  0  0
   -3.0970   -0.3720   -0.5100 O   0  0  0  0  0  0  0  0  0  0  0  0
   -1.6380    1.1910    0.3940 C   0  0  0  0  0  0  0  0  0  0  0  0
   -1.5800    2.1870   -0.7150 C   0  0  0  0  0  0  0  0  0  0  0  0
   -2.7270    2.2960   -1.6360 C   0  0  0  0  0  0  0  0  0  0  0  0
   -3.0640    1.2200   -2.3970 O   0  0  0  0  0  0  0  0  0  0  0  0
  2  1  1  1
  2  3  1  0
  2  4  1  0
  2 17  1  0
  4  5  1  0
  5  6  1  0
  6  7  1  1
  6 16  1  0
  7  8  1  0
  8  9  1  0
  9 10  2  0
  9 14  1  0
 10 11  1  0
 11 12  2  0
 11 13  1  0
 13 14  1  0
 14 15  2  0
 16 17  1  0
 17 18  1  6
 17 19  1  0
 19 20  1  0
 20 21  1  0
 21 22  1  0
M  END
