
     RDKit          3D

 22 22  0  0  0  0  0  0  0  0999 V2000
   -4.4740    0.5540    3.4610 C   0  0  0  0  0  0  0  0  0  0  0  0
   -3.8110    0.4590    2.0800 C   0  0  0  0  0  0  0  0  0  0  0  0
   -4.1630   -0.8500    1.4330 C   0  0  0  0  0  0  0  0  0  0  0  0
   -3.5260   -1.0050    0.0830 C   0  0  0  0  0  0  0  0  0  0  0  0
   -3.9800    0.0760   -0.8280 C   0  0  0  0  0  0  0  0  0  0  0  0
   -3.3890   -0.0230   -2.2170 C   0  0  2  0  0  0  0  0  0  0  0  0
   -3.7690   -1.2430   -2.7730 O   0  0  0  0  0  0  0  0  0  0  0  0
   -1.9130    0.0790   -2.2080 C   0  0  0  0  0  0  0  0  0  0  0  0
   -1.1960   -0.8520   -2.6580 O   0  0  0  0  0  0  0  0  0  0  0  0
   -1.2290    1.2190   -1.6980 N   0  0  0  0  0  0  0  0  0  0  0  0
    0.2070    1.3480   -1.6750 C   0  0  0  0  0  0  0  0  0  0  0  0
    0.8460    0.2510   -0.8530 C   0  0  0  0  0  0  0  0  0  0  0  0
    2.3560    0.3860   -0.8270 C   0  0  2  0  0  0  0  0  0  0  0  0
    2.8190    0.2920   -2.2850 C   0  0  0  0  0  0  0  0  0  0  0  0
    2.9010   -0.7410   -0.0250 C   0  0  0  0  0  0  0  0  0  0  0  0
    4.1910   -0.4590    0.6800 C   0  0  2  0  0  0  0  0  0  0  0  0
    4.4000   -1.3710    1.8310 C   0  0  0  0  0  0  0  0  0  0  0  0
    4.4730   -2.7850    1.6790 N   0  0  0  0  0  0  0  0  0  0  0  0
    4.5220   -0.9220    2.9970 O   0  0  0  0  0  0  0  0  0  0  0  0
    4.2180    0.9610    1.1960 C   0  0  0  0  0  0  0  0  0  0  0  0
    3.9780    1.8340   -0.0290 C   0  0  0  0  0  0  0  0  0  0  0  0
    2.6560    1.6430   -0.3780 O   0  0  0  0  0  0  0  0  0  0  0  0
  1  2  1  0
  2  3  1  0
  3  4  1  0
  4  5  1  0
  5  6  1  0
  6  7  1  1
  6  8  1  0
  8  9  2  0
  8 10  1  0
 10 11  1  0
 11 12  1  0
 12 13  1  0
 13 14  1  6
 13 15  1  0
 13 22  1  0
 15 16  1  0
 16 17  1  1
 16 20  1  0
 17 18  1  0
 17 19  2  0
 20 21  1  0
 21 22  1  0
M  END
