
     RDKit          3D

 11 11  0  0  0  0  0  0  0  0999 V2000
    0.8210    0.2620    1.8580 O   0  0  0  0  0  0  0  0  0  0  0  0
    0.3730   -0.0740    0.7260 C   0  0  0  0  0  0  0  0  0  0  0  0
    1.2720   -0.6280   -0.1700 O   0  0  0  0  0  0  0  0  0  0  0  0
    2.6340   -0.8180    0.1450 C   0  0  0  0  0  0  0  0  0  0  0  0
    3.3600    0.4520    0.4750 C   0  0  0  0  0  0  0  0  0  0  0  0
    4.6880    0.1530    0.7680 O   0  0  0  0  0  0  0  0  0  0  0  0
   -1.0350    0.1100    0.3680 C   0  0  0  0  0  0  0  0  0  0  0  0
   -1.9880    0.6220    1.1230 C   0  0  0  0  0  0  0  0  0  0  0  0
   -3.2940    0.6530    0.4310 C   0  0  0  0  0  0  0  0  0  0  0  0
   -3.1170   -0.3080   -0.7090 C   0  0  0  0  0  0  0  0  0  0  0  0
   -1.6240   -0.2640   -0.9420 C   0  0  0  0  0  0  0  0  0  0  0  0
  1  2  2  0
  2  3  1  0
  2  7  1  0
  3  4  1  0
  4  5  1  0
  5  6  1  0
  7  8  2  0
  7 11  1  0
  8  9  1  0
  9 10  1  0
 10 11  1  0
M  END
