
     RDKit          3D

 22 22  0  0  0  0  0  0  0  0999 V2000
   -4.7660    1.0040   -1.5960 C   0  0  0  0  0  0  0  0  0  0  0  0
   -3.9830    1.5440   -0.4600 C   0  0  1  0  0  0  0  0  0  0  0  0
   -4.8250    1.3670    0.8020 C   0  0  0  0  0  0  0  0  0  0  0  0
   -2.5940    1.1070   -0.2780 C   0  0  0  0  0  0  0  0  0  0  0  0
   -2.2610   -0.3070   -0.0290 C   0  0  2  0  0  0  0  0  0  0  0  0
   -0.7650   -0.2990    0.1000 N   0  0  0  0  0  0  0  0  0  0  0  0
   -0.1400   -0.6540    1.2850 C   0  0  0  0  0  0  0  0  0  0  0  0
   -0.9380   -0.9790    2.2470 O   0  0  0  0  0  0  0  0  0  0  0  0
    1.3200   -0.6850    1.5200 C   0  0  1  0  0  0  0  0  0  0  0  0
    1.4200   -0.8830    2.9380 O   0  0  0  0  0  0  0  0  0  0  0  0
    2.0170   -1.8700    0.8880 C   0  0  2  0  0  0  0  0  0  0  0  0
    3.3800   -1.8360    1.5060 N   0  0  0  0  0  0  0  0  0  0  0  0
    2.3350   -1.5930   -0.5780 C   0  0  0  0  0  0  0  0  0  0  0  0
    3.2350   -0.4400   -0.7560 C   0  0  0  0  0  0  0  0  0  0  0  0
    4.6120   -0.6510   -0.7580 C   0  0  0  0  0  0  0  0  0  0  0  0
    5.5120    0.3650   -0.9190 C   0  0  0  0  0  0  0  0  0  0  0  0
    5.0750    1.6670   -1.0890 C   0  0  0  0  0  0  0  0  0  0  0  0
    3.7280    1.9050   -1.0900 C   0  0  0  0  0  0  0  0  0  0  0  0
    2.8330    0.8580   -0.9250 C   0  0  0  0  0  0  0  0  0  0  0  0
   -2.5540   -1.3100   -1.0180 C   0  0  0  0  0  0  0  0  0  0  0  0
   -1.6270   -1.8870   -1.6590 O   0  0  0  0  0  0  0  0  0  0  0  0
   -3.8340   -1.7090   -1.3290 O   0  0  0  0  0  0  0  0  0  0  0  0
  2  1  1  6
  2  3  1  0
  2  4  1  0
  5  4  1  6
  5  6  1  0
  5 20  1  0
  6  7  1  0
  7  8  2  0
  7  9  1  0
  9 10  1  1
  9 11  1  0
 11 12  1  1
 11 13  1  0
 13 14  1  0
 14 15  2  0
 14 19  1  0
 15 16  1  0
 16 17  2  0
 17 18  1  0
 18 19  2  0
 20 21  2  0
 20 22  1  0
M  END
