
     RDKit          3D

 11 11  0  0  0  0  0  0  0  0999 V2000
    4.0570   -0.7430   -0.5190 C   0  0  0  0  0  0  0  0  0  0  0  0
    3.0830    0.2380   -0.3470 O   0  0  0  0  0  0  0  0  0  0  0  0
    1.8660   -0.3000    0.0310 C   0  0  0  0  0  0  0  0  0  0  0  0
    0.8350    0.7920    0.2070 C   0  0  0  0  0  0  0  0  0  0  0  0
   -0.5040    0.2440    0.6200 C   0  0  2  0  0  0  0  0  0  0  0  0
   -0.4280   -0.4470    1.8390 O   0  0  0  0  0  0  0  0  0  0  0  0
   -1.0310   -0.7040   -0.4180 C   0  0  0  0  0  0  0  0  0  0  0  0
   -2.5180   -0.8240   -0.4360 C   0  0  0  0  0  0  0  0  0  0  0  0
   -3.0310   -0.2800    0.7520 O   0  0  0  0  0  0  0  0  0  0  0  0
   -2.8650    1.1070    0.6380 C   0  0  0  0  0  0  0  0  0  0  0  0
   -1.4220    1.4250    0.8580 C   0  0  0  0  0  0  0  0  0  0  0  0
  1  2  1  0
  2  3  1  0
  3  4  1  0
  4  5  1  0
  5  6  1  1
  5  7  1  0
  5 11  1  0
  7  8  1  0
  8  9  1  0
  9 10  1  0
 10 11  1  0
M  END
