
     RDKit          3D

 19 20  0  0  0  0  0  0  0  0999 V2000
    6.5790    0.7820   -0.1920 N   0  0  0  0  0  0  0  0  0  0  0  0
    5.3160    0.6040    0.3270 C   0  0  0  0  0  0  0  0  0  0  0  0
    5.2850    0.7390    1.6290 O   0  0  0  0  0  0  0  0  0  0  0  0
    4.0990    0.3120   -0.3600 C   0  0  0  0  0  0  0  0  0  0  0  0
    3.8030    0.1860   -1.4430 O   0  0  0  0  0  0  0  0  0  0  0  0
    2.8160    0.1150    0.7960 N   0  0  0  0  0  0  0  0  0  0  0  0
    1.7700   -0.1800   -0.2040 C   0  0  0  0  0  0  0  0  0  0  0  0
    1.8180   -0.4550   -1.3300 O   0  0  0  0  0  0  0  0  0  0  0  0
    0.5050   -0.0560    0.5060 N   0  0  0  0  0  0  0  0  0  0  0  0
   -0.7610   -0.2340   -0.0060 C   0  0  0  0  0  0  0  0  0  0  0  0
   -0.9840   -0.7140   -1.2470 C   0  0  0  0  0  0  0  0  0  0  0  0
   -2.3130   -0.8590   -1.7010 N   0  0  0  0  0  0  0  0  0  0  0  0
   -3.4440   -0.5330   -0.9240 C   0  0  0  0  0  0  0  0  0  0  0  0
   -4.6630   -0.6300   -1.2720 N   0  0  0  0  0  0  0  0  0  0  0  0
   -5.7340   -0.2720   -0.4250 C   0  0  0  0  0  0  0  0  0  0  0  0
   -5.4850    0.1840    0.7780 C   0  0  0  0  0  0  0  0  0  0  0  0
   -4.1960    0.3360    1.2700 O   0  0  0  0  0  0  0  0  0  0  0  0
   -3.1390   -0.0180    0.4240 C   0  0  0  0  0  0  0  0  0  0  0  0
   -1.9150    0.1130    0.8340 C   0  0  0  0  0  0  0  0  0  0  0  0
  1  2  1  0
  2  3  2  0
  2  4  1  0
  4  5  2  0
  4  6  1  0
  6  7  1  0
  7  8  2  0
  7  9  1  0
  9 10  1  0
 10 11  2  0
 10 19  1  0
 11 12  1  0
 12 13  1  0
 13 14  2  0
 13 18  1  0
 14 15  1  0
 15 16  2  0
 16 17  1  0
 17 18  1  0
 18 19  2  0
M  END
