
     RDKit          3D

 19 20  0  0  0  0  0  0  0  0999 V2000
    3.2420   -2.3730    1.6110 C   0  0  0  0  0  0  0  0  0  0  0  0
    1.9350   -1.7200    1.6040 C   0  0  0  0  0  0  0  0  0  0  0  0
    1.3940   -1.0040    0.6550 C   0  0  0  0  0  0  0  0  0  0  0  0
    2.0510   -0.7410   -0.5950 C   0  0  0  0  0  0  0  0  0  0  0  0
    3.3550   -1.2740   -0.8330 N   0  0  0  0  0  0  0  0  0  0  0  0
    1.4620   -0.0220   -1.5000 N   0  0  0  0  0  0  0  0  0  0  0  0
    0.1560    0.5240   -1.2840 C   0  0  0  0  0  0  0  0  0  0  0  0
   -0.5070    0.3270   -0.1680 C   0  0  0  0  0  0  0  0  0  0  0  0
    0.0760   -0.4540    0.8760 N   0  0  0  0  0  0  0  0  0  0  0  0
   -0.6160   -0.6800    2.0840 N   0  0  0  0  0  0  0  0  0  0  0  0
   -1.1120   -1.8260    2.2260 O   0  0  0  0  0  0  0  0  0  0  0  0
   -1.8740    0.8680    0.1220 C   0  0  2  0  0  0  0  0  0  0  0  0
   -1.6820    2.2140    0.8200 C   0  0  0  0  0  0  0  0  0  0  0  0
   -2.5580   -0.0060    0.9260 O   0  0  0  0  0  0  0  0  0  0  0  0
   -2.6130    1.1560   -1.1790 C   0  0  2  0  0  0  0  0  0  0  0  0
   -3.1610   -0.0020   -1.7270 O   0  0  0  0  0  0  0  0  0  0  0  0
   -1.7080    1.8480   -2.1320 C   0  0  0  0  0  0  0  0  0  0  0  0
   -2.0540    2.8870   -2.7600 O   0  0  0  0  0  0  0  0  0  0  0  0
   -0.4210    1.3010   -2.3250 N   0  0  0  0  0  0  0  0  0  0  0  0
  1  2  1  0
  2  3  2  3
  3  4  1  0
  3  9  1  0
  4  5  1  0
  4  6  2  0
  6  7  1  0
  7  8  2  0
  7 19  1  0
  8  9  1  0
  8 12  1  0
  9 10  1  0
 10 11  2  0
 12 13  1  1
 12 14  1  0
 12 15  1  0
 15 16  1  6
 15 17  1  0
 17 18  2  0
 17 19  1  0
M  END
