
     RDKit          3D

 19 20  0  0  0  0  0  0  0  0999 V2000
    5.2210    0.6450   -1.6230 N   0  0  0  0  0  0  0  0  0  0  0  0
    3.7900    0.5070   -1.6140 C   0  0  0  0  0  0  0  0  0  0  0  0
    3.2880    0.0460   -0.2870 C   0  0  0  0  0  0  0  0  0  0  0  0
    1.9620   -0.1480   -0.0710 N   0  0  0  0  0  0  0  0  0  0  0  0
    1.4930   -0.5620    1.1150 C   0  0  0  0  0  0  0  0  0  0  0  0
    0.1040   -0.7770    1.3810 N   0  0  0  0  0  0  0  0  0  0  0  0
   -0.9110   -0.5590    0.3710 C   0  0  1  0  0  0  0  0  0  0  0  0
   -2.2510   -0.8840    0.9420 C   0  0  0  0  0  0  0  0  0  0  0  0
   -3.3820   -0.1360    0.2780 C   0  0  2  0  0  0  0  0  0  0  0  0
   -3.9050   -0.8550   -0.9480 C   0  0  0  0  0  0  0  0  0  0  0  0
   -4.9340   -0.0770   -1.4670 O   0  0  0  0  0  0  0  0  0  0  0  0
   -3.0050    1.3000   -0.0250 C   0  0  0  0  0  0  0  0  0  0  0  0
   -1.8080    1.5980    0.6510 O   0  0  0  0  0  0  0  0  0  0  0  0
   -0.7980    0.9210   -0.0100 C   0  0  2  0  0  0  0  0  0  0  0  0
   -0.9630    1.0960   -1.3790 O   0  0  0  0  0  0  0  0  0  0  0  0
    2.3660   -0.7880    2.1090 N   0  0  0  0  0  0  0  0  0  0  0  0
    3.7080   -0.6020    1.9250 C   0  0  0  0  0  0  0  0  0  0  0  0
    4.5220   -0.8200    2.8750 O   0  0  0  0  0  0  0  0  0  0  0  0
    4.1440   -0.1870    0.7230 N   0  0  0  0  0  0  0  0  0  0  0  0
  1  2  1  0
  2  3  1  0
  3  4  1  0
  3 19  2  0
  4  5  2  0
  5  6  1  0
  5 16  1  0
  7  6  1  1
  7  8  1  0
  7 14  1  0
  8  9  1  0
  9 10  1  6
  9 12  1  0
 10 11  1  0
 12 13  1  0
 13 14  1  0
 14 15  1  6
 16 17  1  0
 17 18  2  0
 17 19  1  0
M  END
