
     RDKit          3D

 19 20  0  0  0  0  0  0  0  0999 V2000
   -1.4880    3.0620   -0.2140 C   0  0  0  0  0  0  0  0  0  0  0  0
   -1.5430    1.6010   -0.1360 N   0  0  0  0  0  0  0  0  0  0  0  0
   -2.8540    1.0900   -0.0030 C   0  0  0  0  0  0  0  0  0  0  0  0
   -3.0010   -0.3160    0.0180 N   0  0  0  0  0  0  0  0  0  0  0  0
   -2.1190   -1.3270    0.5080 C   0  0  0  0  0  0  0  0  0  0  0  0
   -2.7370   -2.5610    1.0600 C   0  0  1  0  0  0  0  0  0  0  0  0
   -3.5860   -3.3930    0.2270 C   0  0  0  0  0  0  0  0  0  0  0  0
   -2.3060   -3.7860    0.5500 O   0  0  0  0  0  0  0  0  0  0  0  0
   -0.8250   -1.2760    0.5190 N   0  0  0  0  0  0  0  0  0  0  0  0
    0.0690   -0.2510    0.0700 C   0  0  0  0  0  0  0  0  0  0  0  0
    1.4670   -0.5980   -0.0960 C   0  0  0  0  0  0  0  0  0  0  0  0
    1.9330   -1.7400    0.1300 O   0  0  0  0  0  0  0  0  0  0  0  0
    2.3280    0.3910   -0.5290 O   0  0  0  0  0  0  0  0  0  0  0  0
    3.7080    0.1960   -0.7340 C   0  0  0  0  0  0  0  0  0  0  0  0
    4.3850   -0.2240    0.5070 C   0  0  0  0  0  0  0  0  0  0  0  0
    5.7740   -0.4630    0.4760 N   0  0  0  0  0  0  0  0  0  0  0  0
    3.6870   -0.3550    1.5570 O   0  0  0  0  0  0  0  0  0  0  0  0
   -0.2450    0.9890   -0.2110 C   0  0  0  0  0  0  0  0  0  0  0  0
    0.7810    1.8590   -0.6420 N   0  0  0  0  0  0  0  0  0  0  0  0
  1  2  1  0
  2  3  1  0
  2 18  1  0
  3  4  1  0
  4  5  1  0
  6  5  1  6
  5  9  2  0
  6  7  1  0
  6  8  1  0
  7  8  1  0
  9 10  1  0
 10 11  1  0
 10 18  2  0
 11 12  2  0
 11 13  1  0
 13 14  1  0
 14 15  1  0
 15 16  1  0
 15 17  2  0
 18 19  1  0
M  END
