
     RDKit          3D

 19 20  0  0  0  0  0  0  0  0999 V2000
    4.1930    1.8690   -0.5160 N   0  0  0  0  0  0  0  0  0  0  0  0
    3.8970    0.6770    0.2230 C   0  0  0  0  0  0  0  0  0  0  0  0
    3.8760    0.7820    1.4750 O   0  0  0  0  0  0  0  0  0  0  0  0
    3.6310   -0.6180   -0.4730 C   0  0  2  0  0  0  0  0  0  0  0  0
    2.4010   -0.5440   -1.3310 C   0  0  0  0  0  0  0  0  0  0  0  0
    1.3410   -1.3740   -0.6230 C   0  0  2  0  0  0  0  0  0  0  0  0
    0.4870   -0.4340    0.0820 N   0  0  0  0  0  0  0  0  0  0  0  0
   -0.9030   -0.3260   -0.1170 C   0  0  0  0  0  0  0  0  0  0  0  0
   -1.4620   -1.0720   -0.9410 O   0  0  0  0  0  0  0  0  0  0  0  0
   -1.7180    0.6080    0.5910 N   0  0  0  0  0  0  0  0  0  0  0  0
   -3.1260    0.6630    0.3400 C   0  0  0  0  0  0  0  0  0  0  0  0
   -4.0160    0.4440    1.2880 C   0  0  0  0  0  0  0  0  0  0  0  0
   -5.4860    0.4890    1.0810 C   0  0  0  0  0  0  0  0  0  0  0  0
   -5.7710    0.7960   -0.2530 O   0  0  0  0  0  0  0  0  0  0  0  0
   -4.8520    1.0210   -1.2230 N   0  0  0  0  0  0  0  0  0  0  0  0
   -3.6010    0.9720   -1.0010 C   0  0  0  0  0  0  0  0  0  0  0  0
    2.1090   -2.2280    0.3280 C   0  0  0  0  0  0  0  0  0  0  0  0
    1.7750   -3.3090    0.8790 O   0  0  0  0  0  0  0  0  0  0  0  0
    3.3710   -1.6100    0.5470 N   0  0  0  0  0  0  0  0  0  0  0  0
  1  2  1  0
  2  3  2  0
  4  2  1  1
  4  5  1  0
  4 19  1  0
  5  6  1  0
  6  7  1  1
  6 17  1  0
  7  8  1  0
  8  9  2  0
  8 10  1  0
 10 11  1  0
 11 12  2  0
 11 16  1  0
 12 13  1  0
 13 14  1  0
 14 15  1  0
 15 16  2  0
 17 18  2  0
 17 19  1  0
M  END
