
     RDKit          3D

 19 20  0  0  0  0  0  0  0  0999 V2000
    0.1260    0.4570    0.7770 O   0  0  0  0  0  0  0  0  0  0  0  0
    0.0130   -0.6720    0.5010 C   0  0  0  0  0  0  0  0  0  0  0  0
   -1.0540   -1.6430    0.3660 C   0  0  0  0  0  0  0  0  0  0  0  0
   -2.3790   -1.1370    0.8360 C   0  0  2  0  0  0  0  0  0  0  0  0
   -3.3940   -2.1770    0.7140 N   0  0  0  0  0  0  0  0  0  0  0  0
   -4.3680   -1.7440   -0.1430 N   0  0  0  0  0  0  0  0  0  0  0  0
   -4.1010   -0.5540   -0.5850 C   0  0  0  0  0  0  0  0  0  0  0  0
   -4.6340    0.5180   -1.4860 C   0  0  0  0  0  0  0  0  0  0  0  0
   -3.6160    1.5550   -1.3770 C   0  0  0  0  0  0  0  0  0  0  0  0
   -3.6040    2.8050   -2.0240 O   0  0  0  0  0  0  0  0  0  0  0  0
   -2.6240    1.2080   -0.5560 C   0  0  0  0  0  0  0  0  0  0  0  0
   -2.8870   -0.0910   -0.0450 N   0  0  0  0  0  0  0  0  0  0  0  0
    1.5520   -1.4160    0.1620 N   0  0  0  0  0  0  0  0  0  0  0  0
    2.3410   -0.2600    0.3690 C   0  0  0  0  0  0  0  0  0  0  0  0
    2.1610    0.8900    0.5840 O   0  0  0  0  0  0  0  0  0  0  0  0
    3.7720   -0.6750    0.2790 N   0  0  0  0  0  0  0  0  0  0  0  0
    4.8150    0.2320    0.4240 C   0  0  0  0  0  0  0  0  0  0  0  0
    4.8310    1.3560   -0.5910 C   0  0  0  0  0  0  0  0  0  0  0  0
    5.9260    2.1440   -0.2750 O   0  0  0  0  0  0  0  0  0  0  0  0
  1  2  2  0
  2  3  1  0
  2 13  1  0
  4  3  1  6
  4  5  1  0
  4 12  1  0
  5  6  1  0
  6  7  2  0
  7  8  1  0
  7 12  1  0
  8  9  1  0
  9 10  1  0
  9 11  2  0
 11 12  1  0
 13 14  1  0
 14 15  2  0
 14 16  1  0
 16 17  1  0
 17 18  1  0
 18 19  1  0
M  END
