
     RDKit          3D

 19 20  0  0  0  0  0  0  0  0999 V2000
    4.1940   -1.6850   -0.5100 C   0  0  0  0  0  0  0  0  0  0  0  0
    3.6290   -0.4900    0.2230 C   0  0  2  0  0  0  0  0  0  0  0  0
    2.2060   -0.5010    0.3110 N   0  0  0  0  0  0  0  0  0  0  0  0
    1.6810    0.6590   -0.3330 C   0  0  1  0  0  0  0  0  0  0  0  0
    1.0280    1.6100    0.6220 C   0  0  0  0  0  0  0  0  0  0  0  0
   -0.0660    1.0840    1.3500 N   0  0  0  0  0  0  0  0  0  0  0  0
   -1.2580    0.5690    0.8010 C   0  0  0  0  0  0  0  0  0  0  0  0
   -1.3660    0.5740   -0.4430 O   0  0  0  0  0  0  0  0  0  0  0  0
   -2.3740    0.0300    1.6130 C   0  0  0  0  0  0  0  0  0  0  0  0
   -3.5160   -0.4510    0.7870 C   0  0  2  0  0  0  0  0  0  0  0  0
   -3.1700   -1.5070   -0.1280 N   0  0  0  0  0  0  0  0  0  0  0  0
   -4.1510   -1.4280   -1.1820 C   0  0  0  0  0  0  0  0  0  0  0  0
   -4.4800   -2.3570   -1.9830 O   0  0  0  0  0  0  0  0  0  0  0  0
   -4.7050   -0.1110   -1.1820 N   0  0  0  0  0  0  0  0  0  0  0  0
   -4.0480    0.5920   -0.1230 C   0  0  0  0  0  0  0  0  0  0  0  0
   -3.9800    1.8410   -0.0530 O   0  0  0  0  0  0  0  0  0  0  0  0
    2.8230    1.3510   -0.9160 N   0  0  0  0  0  0  0  0  0  0  0  0
    4.0250    0.7340   -0.5210 C   0  0  0  0  0  0  0  0  0  0  0  0
    5.2010    1.0790   -0.7160 O   0  0  0  0  0  0  0  0  0  0  0  0
  2  1  1  6
  2  3  1  0
  2 18  1  0
  3  4  1  0
  4  5  1  1
  4 17  1  0
  5  6  1  0
  6  7  1  0
  7  8  2  0
  7  9  1  0
 10  9  1  6
 10 11  1  0
 10 15  1  0
 11 12  1  0
 12 13  2  0
 12 14  1  0
 14 15  1  0
 15 16  2  0
 17 18  1  0
 18 19  2  0
M  END
