
     RDKit          3D

 37 41  0  0  0  0  0  0  0  0999 V2000
    6.4480   -3.0160    0.2810 C   0  0  0  0  0  0  0  0  0  0  0  0
    5.9420   -1.6390   -0.0230 C   0  0  0  0  0  0  0  0  0  0  0  0
    5.2340   -1.5270   -1.2610 N   0  0  2  0  0  0  0  0  0  0  0  0
    3.8240   -1.6560   -1.0540 C   0  0  0  0  0  0  0  0  0  0  0  0
    3.1890   -0.4660   -0.4570 C   0  0  0  0  0  0  0  0  0  0  0  0
    3.8420    0.6730   -0.1170 C   0  0  0  0  0  0  0  0  0  0  0  0
    3.2180    1.8080    0.4570 C   0  0  0  0  0  0  0  0  0  0  0  0
    4.0640    2.9020    0.8490 C   0  0  0  0  0  0  0  0  0  0  0  0
    5.1010    3.0840    0.1010 O   0  0  0  0  0  0  0  0  0  0  0  0
    3.9080    3.7310    1.8880 O   0  0  0  0  0  0  0  0  0  0  0  0
    4.8340    4.7630    2.1590 C   0  0  0  0  0  0  0  0  0  0  0  0
    1.8750    1.7530    0.6760 C   0  0  0  0  0  0  0  0  0  0  0  0
    1.2010    0.5810    0.3270 C   0  0  0  0  0  0  0  0  0  0  0  0
    1.8360   -0.5130   -0.2290 C   0  0  0  0  0  0  0  0  0  0  0  0
   -0.1410    0.7590    0.6180 C   0  0  0  0  0  0  0  0  0  0  0  0
   -1.2160   -0.0610    0.4760 N   0  0  0  0  0  0  0  0  0  0  0  0
   -2.4450    0.3410    0.8360 C   0  0  0  0  0  0  0  0  0  0  0  0
   -3.5910   -0.5220    0.6890 N   0  0  0  0  0  0  0  0  0  0  0  0
   -4.5580   -0.2330   -0.0990 C   0  0  0  0  0  0  0  0  0  0  0  0
   -4.5430    0.9210   -0.8430 C   0  0  0  0  0  0  0  0  0  0  0  0
   -5.6000    1.2380   -1.7050 C   0  0  0  0  0  0  0  0  0  0  0  0
   -6.6470    0.3470   -1.7740 C   0  0  0  0  0  0  0  0  0  0  0  0
   -6.6190   -0.7970   -1.0090 C   0  0  0  0  0  0  0  0  0  0  0  0
   -5.5900   -1.0580   -0.2010 N   0  0  0  0  0  0  0  0  0  0  0  0
   -5.6070   -2.2710    0.5790 C   0  0  0  0  0  0  0  0  0  0  0  0
   -6.0010   -3.3800   -0.4060 C   0  0  0  0  0  0  0  0  0  0  0  0
   -7.4280   -3.1550   -0.7890 C   0  0  0  0  0  0  0  0  0  0  0  0
   -7.7900   -1.7460   -1.1140 C   0  0  0  0  0  0  0  0  0  0  0  0
   -2.5670    1.6130    1.3520 C   0  0  0  0  0  0  0  0  0  0  0  0
   -1.4890    2.4620    1.5050 C   0  0  0  0  0  0  0  0  0  0  0  0
   -0.2270    2.0180    1.1240 C   0  0  0  0  0  0  0  0  0  0  0  0
    0.9910    2.6370    1.1640 N   0  0  0  0  0  0  0  0  0  0  0  0
    1.1890    4.0130    1.6200 C   0  0  0  0  0  0  0  0  0  0  0  0
    5.6530   -2.5380   -2.2420 C   0  0  1  0  0  0  0  0  0  0  0  0
    6.9700   -2.8880   -2.0810 F   0  0  0  0  0  0  0  0  0  0  0  0
    4.8000   -3.6220   -2.2420 F   0  0  0  0  0  0  0  0  0  0  0  0
    5.5540   -1.9770   -3.5220 F   0  0  0  0  0  0  0  0  0  0  0  0
  1  2  1  0
  3  2  1  1
  3  4  1  0
  3 34  1  0
  4  5  1  0
  5  6  2  0
  5 14  1  0
  6  7  1  0
  7  8  1  0
  7 12  2  0
  8  9  2  0
  8 10  1  0
 10 11  1  0
 12 13  1  0
 12 32  1  0
 13 14  2  0
 13 15  1  0
 15 16  2  0
 15 31  1  0
 16 17  1  0
 17 18  1  0
 17 29  2  0
 18 19  2  3
 19 20  1  0
 19 24  1  0
 20 21  2  0
 21 22  1  0
 22 23  2  0
 23 24  1  0
 23 28  1  0
 24 25  1  0
 25 26  1  0
 26 27  1  0
 27 28  1  0
 29 30  1  0
 30 31  2  0
 31 32  1  0
 32 33  1  0
 34 35  1  1
 34 36  1  0
 34 37  1  0
M  CHG  1   3   1
M  END
