
     RDKit          3D

 37 41  0  0  0  0  0  0  0  0999 V2000
    7.0420   -0.1480   -2.7040 C   0  0  0  0  0  0  0  0  0  0  0  0
    6.3580    1.1880   -2.5980 C   0  0  0  0  0  0  0  0  0  0  0  0
    5.0080    1.0520   -1.9710 C   0  0  2  0  0  0  0  0  0  0  0  0
    4.3200    2.4340   -1.9010 C   0  0  0  0  0  0  0  0  0  0  0  0
    3.2070    2.0260   -0.9820 N   0  0  0  0  0  0  0  0  0  0  0  0
    1.8870    2.4270   -1.2020 C   0  0  0  0  0  0  0  0  0  0  0  0
    0.7420    1.7790   -0.6400 C   0  0  0  0  0  0  0  0  0  0  0  0
   -0.3980    2.3600   -0.8780 O   0  0  0  0  0  0  0  0  0  0  0  0
    0.6780    0.6020    0.1240 N   0  0  0  0  0  0  0  0  0  0  0  0
   -0.6340    0.1140    0.6040 C   0  0  0  0  0  0  0  0  0  0  0  0
   -1.4240   -0.2420   -0.5900 C   0  0  0  0  0  0  0  0  0  0  0  0
   -1.1470   -0.2090   -1.9000 N   0  0  0  0  0  0  0  0  0  0  0  0
   -2.1990   -0.6530   -2.6040 N   0  0  0  0  0  0  0  0  0  0  0  0
   -2.2650   -0.7580   -4.0510 C   0  0  0  0  0  0  0  0  0  0  0  0
   -3.1970   -0.9900   -1.7680 C   0  0  0  0  0  0  0  0  0  0  0  0
   -2.7140   -0.7330   -0.4960 C   0  0  0  0  0  0  0  0  0  0  0  0
   -3.4520   -0.9600    0.7520 C   0  0  0  0  0  0  0  0  0  0  0  0
   -3.1750   -0.0940    1.6660 N   0  0  0  0  0  0  0  0  0  0  0  0
   -3.8390   -0.2350    2.9130 C   0  0  0  0  0  0  0  0  0  0  0  0
   -3.4320   -1.2370    3.7820 C   0  0  0  0  0  0  0  0  0  0  0  0
   -4.1050   -1.3580    5.0000 C   0  0  0  0  0  0  0  0  0  0  0  0
   -5.1530   -0.5080    5.3470 C   0  0  0  0  0  0  0  0  0  0  0  0
   -5.8030   -0.6250    6.5190 F   0  0  0  0  0  0  0  0  0  0  0  0
   -5.5070    0.4600    4.4470 C   0  0  0  0  0  0  0  0  0  0  0  0
   -4.8680    0.6180    3.2270 C   0  0  0  0  0  0  0  0  0  0  0  0
   -4.4620   -2.0130    1.0830 C   0  0  0  0  0  0  0  0  0  0  0  0
   -5.1010   -2.5760   -0.1430 C   0  0  0  0  0  0  0  0  0  0  0  0
   -5.5240   -1.5920   -1.1780 C   0  0  0  0  0  0  0  0  0  0  0  0
   -4.4610   -1.4990   -2.1460 O   0  0  0  0  0  0  0  0  0  0  0  0
    3.9070    1.3080    0.0270 C   0  0  0  0  0  0  0  0  0  0  0  0
    3.6410    1.1870    1.3530 C   0  0  0  0  0  0  0  0  0  0  0  0
    4.4770    0.4550    2.1590 C   0  0  0  0  0  0  0  0  0  0  0  0
    4.2520    0.3080    3.4870 F   0  0  0  0  0  0  0  0  0  0  0  0
    5.5810   -0.1480    1.6020 C   0  0  0  0  0  0  0  0  0  0  0  0
    6.4450   -0.8920    2.3760 F   0  0  0  0  0  0  0  0  0  0  0  0
    5.8730   -0.0370    0.2440 C   0  0  0  0  0  0  0  0  0  0  0  0
    5.0270    0.6970   -0.5370 C   0  0  0  0  0  0  0  0  0  0  0  0
  1  2  1  0
  3  2  1  1
  3  4  1  0
  3 37  1  0
  4  5  1  0
  5  6  1  0
  5 30  1  0
  6  7  1  0
  7  8  2  0
  7  9  1  0
  9 10  1  0
 10 11  1  0
 11 12  2  0
 11 16  1  0
 12 13  1  0
 13 14  1  0
 13 15  1  0
 15 16  2  0
 15 29  1  0
 16 17  1  0
 17 18  2  3
 17 26  1  0
 18 19  1  0
 19 20  2  0
 19 25  1  0
 20 21  1  0
 21 22  2  0
 22 23  1  0
 22 24  1  0
 24 25  2  0
 26 27  1  0
 27 28  1  0
 28 29  1  0
 30 31  2  0
 30 37  1  0
 31 32  1  0
 32 33  1  0
 32 34  2  0
 34 35  1  0
 34 36  1  0
 36 37  2  0
M  CHG  1  12   1
M  END
