
     RDKit          3D

 37 41  0  0  0  0  0  0  0  0999 V2000
   -6.8190   -1.9290   -2.7310 C   0  0  0  0  0  0  0  0  0  0  0  0
   -6.7550   -1.3190   -1.5700 O   0  0  0  0  0  0  0  0  0  0  0  0
   -6.7210   -1.0110   -0.3210 C   0  0  0  0  0  0  0  0  0  0  0  0
   -6.9370   -1.9020    0.6660 C   0  0  0  0  0  0  0  0  0  0  0  0
   -7.1990   -3.1790    0.2900 F   0  0  0  0  0  0  0  0  0  0  0  0
   -6.8720   -1.6240    2.1020 C   0  0  0  0  0  0  0  0  0  0  0  0
   -8.1190   -1.8740    2.6380 F   0  0  0  0  0  0  0  0  0  0  0  0
   -6.4360    0.3490    0.1320 C   0  0  0  0  0  0  0  0  0  0  0  0
   -7.2270    1.1240    0.9430 C   0  0  0  0  0  0  0  0  0  0  0  0
   -6.5840    2.2500    1.2860 N   0  0  0  0  0  0  0  0  0  0  0  0
   -7.1450    3.3540    2.0870 C   0  0  0  0  0  0  0  0  0  0  0  0
   -5.4250    2.1840    0.7110 N   0  0  0  0  0  0  0  0  0  0  0  0
   -5.2550    1.0630   -0.0130 C   0  0  0  0  0  0  0  0  0  0  0  0
   -4.0410    0.5860   -0.6840 C   0  0  0  0  0  0  0  0  0  0  0  0
   -3.5470    1.4460   -1.7110 C   0  0  0  0  0  0  0  0  0  0  0  0
   -2.3080    1.2340   -2.2700 C   0  0  0  0  0  0  0  0  0  0  0  0
   -1.5180    0.1630   -1.8350 C   0  0  0  0  0  0  0  0  0  0  0  0
   -0.2700   -0.0010   -2.4170 O   0  0  0  0  0  0  0  0  0  0  0  0
    0.8890    0.1750   -1.6670 C   0  0  0  0  0  0  0  0  0  0  0  0
    2.1250    0.2680   -2.2280 C   0  0  0  0  0  0  0  0  0  0  0  0
    3.2450    0.4290   -1.3840 C   0  0  0  0  0  0  0  0  0  0  0  0
    3.1340    0.4970   -0.0240 C   0  0  0  0  0  0  0  0  0  0  0  0
    4.1750    0.6620    0.8300 N   0  0  0  0  0  0  0  0  0  0  0  0
    5.3110    0.2070    1.0480 C   0  0  0  0  0  0  0  0  0  0  0  0
    5.9070   -0.8520    0.2380 C   0  0  0  0  0  0  0  0  0  0  0  0
    7.2140   -0.8010    0.0590 C   0  0  0  0  0  0  0  0  0  0  0  0
    8.1910   -1.6590   -0.6810 C   0  0  0  0  0  0  0  0  0  0  0  0
    9.3330   -1.5840    0.2460 N   0  0  0  0  0  0  0  0  0  0  0  0
    9.3800   -0.2000    0.6580 C   0  0  0  0  0  0  0  0  0  0  0  0
    7.9590    0.3260    0.6700 C   0  0  2  0  0  0  0  0  0  0  0  0
    7.5320    0.6910    1.9770 N   0  0  0  0  0  0  0  0  0  0  0  0
    6.1430    0.6920    2.2090 C   0  0  0  0  0  0  0  0  0  0  0  0
    1.8640    0.4010    0.5040 C   0  0  0  0  0  0  0  0  0  0  0  0
    0.7740    0.2470   -0.2880 C   0  0  0  0  0  0  0  0  0  0  0  0
   -2.0440   -0.6330   -0.8570 C   0  0  0  0  0  0  0  0  0  0  0  0
   -3.2690   -0.4440   -0.2820 C   0  0  0  0  0  0  0  0  0  0  0  0
   -3.7230   -1.3010    0.6990 F   0  0  0  0  0  0  0  0  0  0  0  0
  1  2  1  0
  2  3  1  0
  3  4  2  3
  3  8  1  0
  4  5  1  0
  4  6  1  0
  6  7  1  0
  8  9  2  0
  8 13  1  0
  9 10  1  0
 10 11  1  0
 10 12  1  0
 12 13  2  0
 13 14  1  0
 14 15  2  0
 14 36  1  0
 15 16  1  0
 16 17  2  0
 17 18  1  0
 17 35  1  0
 18 19  1  0
 19 20  2  0
 19 34  1  0
 20 21  1  0
 21 22  2  0
 22 23  1  0
 22 33  1  0
 23 24  2  3
 24 25  1  0
 24 32  1  0
 25 26  2  0
 26 27  1  0
 26 30  1  0
 27 28  1  0
 28 29  1  0
 30 29  1  1
 30 31  1  0
 31 32  1  0
 33 34  2  0
 35 36  2  0
 36 37  1  0
M  CHG  1  28   1
M  END
