
     RDKit          3D

 37 41  0  0  0  0  0  0  0  0999 V2000
   -0.1980    4.5510    0.7920 C   0  0  0  0  0  0  0  0  0  0  0  0
   -1.4780    4.6350    0.7850 C   0  0  0  0  0  0  0  0  0  0  0  0
   -2.4790    3.6530    0.5720 C   0  0  0  0  0  0  0  0  0  0  0  0
   -3.7600    4.0910    0.6490 C   0  0  0  0  0  0  0  0  0  0  0  0
   -4.0510    5.4890    0.9330 C   0  0  0  0  0  0  0  0  0  0  0  0
   -2.2760    2.2360    0.2560 C   0  0  0  0  0  0  0  0  0  0  0  0
   -3.3600    1.5620    0.1080 N   0  0  0  0  0  0  0  0  0  0  0  0
   -3.3610    0.1520   -0.2080 C   0  0  0  0  0  0  0  0  0  0  0  0
   -4.5130   -0.4550   -0.2990 C   0  0  0  0  0  0  0  0  0  0  0  0
   -4.7350   -1.7110   -0.5670 F   0  0  0  0  0  0  0  0  0  0  0  0
   -5.7530    0.3880   -0.0740 C   0  0  2  0  0  0  0  0  0  0  0  0
   -5.6670    1.4660   -0.9430 F   0  0  0  0  0  0  0  0  0  0  0  0
   -5.6070    0.8890    1.2040 F   0  0  0  0  0  0  0  0  0  0  0  0
   -2.0580   -0.4780   -0.3550 C   0  0  0  0  0  0  0  0  0  0  0  0
   -1.7310   -1.7650   -0.6590 C   0  0  0  0  0  0  0  0  0  0  0  0
   -2.5190   -2.9290   -1.0220 C   0  0  0  0  0  0  0  0  0  0  0  0
   -2.9910   -2.9960   -2.2170 O   0  0  0  0  0  0  0  0  0  0  0  0
   -2.7910   -3.9970   -0.1250 N   0  0  0  0  0  0  0  0  0  0  0  0
   -3.5800   -5.1300   -0.5500 C   0  0  1  0  0  0  0  0  0  0  0  0
   -3.0690   -6.4870   -0.1930 C   0  0  0  0  0  0  0  0  0  0  0  0
   -4.2320   -5.9290    0.5610 C   0  0  0  0  0  0  0  0  0  0  0  0
   -0.3610   -1.7930   -0.6650 N   0  0  0  0  0  0  0  0  0  0  0  0
    0.1160   -0.5690   -0.3780 C   0  0  0  0  0  0  0  0  0  0  0  0
    1.5780   -0.3570   -0.3270 C   0  0  0  0  0  0  0  0  0  0  0  0
    2.1760    0.8320   -0.0080 C   0  0  0  0  0  0  0  0  0  0  0  0
    3.5770    0.9780    0.0250 C   0  0  0  0  0  0  0  0  0  0  0  0
    4.4130   -0.0730   -0.2630 C   0  0  0  0  0  0  0  0  0  0  0  0
    5.8290    0.0500   -0.2280 N   0  0  0  0  0  0  0  0  0  0  0  0
    6.5610    1.0910    0.4920 C   0  0  0  0  0  0  0  0  0  0  0  0
    7.9920    0.9310    0.1040 C   0  0  0  0  0  0  0  0  0  0  0  0
    8.1250   -0.5160   -0.2650 C   0  0  0  0  0  0  0  0  0  0  0  0
    6.7790   -0.7920   -0.8630 C   0  0  0  0  0  0  0  0  0  0  0  0
    6.5730   -1.6340   -1.7690 O   0  0  0  0  0  0  0  0  0  0  0  0
    3.8320   -1.2690   -0.5860 C   0  0  0  0  0  0  0  0  0  0  0  0
    2.4670   -1.4000   -0.6150 C   0  0  0  0  0  0  0  0  0  0  0  0
   -0.9140    0.2480   -0.1870 N   0  0  0  0  0  0  0  0  0  0  0  0
   -0.9470    1.6530    0.1280 C   0  0  0  0  0  0  0  0  0  0  0  0
  1  2  2  0
  2  3  1  0
  3  4  2  3
  3  6  1  0
  4  5  1  0
  6  7  2  0
  6 37  1  0
  7  8  1  0
  8  9  2  3
  8 14  1  0
  9 10  1  0
  9 11  1  0
 11 12  1  6
 11 13  1  0
 14 15  2  0
 14 36  1  0
 15 16  1  0
 15 22  1  0
 16 17  2  0
 16 18  1  0
 19 18  1  1
 19 20  1  0
 19 21  1  0
 20 21  1  0
 22 23  2  0
 23 24  1  0
 23 36  1  0
 24 25  2  0
 24 35  1  0
 25 26  1  0
 26 27  2  0
 27 28  1  0
 27 34  1  0
 28 29  1  0
 28 32  1  0
 29 30  1  0
 30 31  1  0
 31 32  1  0
 32 33  2  0
 34 35  2  0
 36 37  1  0
M  CHG  1  22   1
M  END
