
     RDKit          3D

 37 41  0  0  0  0  0  0  0  0999 V2000
   -8.1110    1.4710   -0.7870 C   0  0  0  0  0  0  0  0  0  0  0  0
   -8.1360    0.0180   -1.0120 N   0  0  2  0  0  0  0  0  0  0  0  0
   -9.1250   -0.5370   -0.1150 C   0  0  0  0  0  0  0  0  0  0  0  0
   -6.8260   -0.5350   -0.8060 C   0  0  0  0  0  0  0  0  0  0  0  0
   -6.1440    0.0480    0.4140 C   0  0  0  0  0  0  0  0  0  0  0  0
   -4.8370   -0.4970    0.6260 N   0  0  0  0  0  0  0  0  0  0  0  0
   -4.5820   -1.5940    1.3660 C   0  0  0  0  0  0  0  0  0  0  0  0
   -3.2290   -1.8560    1.3710 C   0  0  0  0  0  0  0  0  0  0  0  0
   -2.6310   -0.8610    0.5890 C   0  0  0  0  0  0  0  0  0  0  0  0
   -1.3210   -0.6100    0.2370 C   0  0  0  0  0  0  0  0  0  0  0  0
   -0.2630   -1.4530    0.6720 N   0  0  0  0  0  0  0  0  0  0  0  0
    1.1220   -1.2020    0.3660 C   0  0  0  0  0  0  0  0  0  0  0  0
    1.6840    0.0020    1.0380 C   0  0  0  0  0  0  0  0  0  0  0  0
    0.9500    0.7180    1.8590 C   0  0  0  0  0  0  0  0  0  0  0  0
    1.4770    1.9110    2.5350 C   0  0  0  0  0  0  0  0  0  0  0  0
    2.8690    2.2830    2.2700 C   0  0  0  0  0  0  0  0  0  0  0  0
    3.6410    1.4330    1.3330 C   0  0  0  0  0  0  0  0  0  0  0  0
    4.9330    1.7580    1.0650 N   0  0  0  0  0  0  0  0  0  0  0  0
    5.6890    1.0100    0.2120 C   0  0  0  0  0  0  0  0  0  0  0  0
    5.1520   -0.0820   -0.3880 C   0  0  0  0  0  0  0  0  0  0  0  0
    3.8310   -0.4200   -0.1190 C   0  0  0  0  0  0  0  0  0  0  0  0
    3.0690    0.3450    0.7490 C   0  0  0  0  0  0  0  0  0  0  0  0
    5.9480   -0.8940   -1.3050 C   0  0  0  0  0  0  0  0  0  0  0  0
    5.4170   -1.8980   -1.8430 O   0  0  0  0  0  0  0  0  0  0  0  0
    7.2870   -0.5120   -1.5480 N   0  0  0  0  0  0  0  0  0  0  0  0
    8.1180   -1.2990   -2.4610 C   0  0  0  0  0  0  0  0  0  0  0  0
    8.8500   -2.3940   -1.7170 C   0  0  2  0  0  0  0  0  0  0  0  0
    7.9890   -3.2640   -1.0950 F   0  0  0  0  0  0  0  0  0  0  0  0
    9.7680   -1.8310   -0.8610 F   0  0  0  0  0  0  0  0  0  0  0  0
    9.5480   -3.1230   -2.6650 F   0  0  0  0  0  0  0  0  0  0  0  0
    7.8190    0.6290   -0.9100 C   0  0  0  0  0  0  0  0  0  0  0  0
    9.0520    0.9100   -1.1870 O   0  0  0  0  0  0  0  0  0  0  0  0
    7.0650    1.4730    0.0140 C   0  0  0  0  0  0  0  0  0  0  0  0
   -1.0830    0.4980   -0.5780 C   0  0  0  0  0  0  0  0  0  0  0  0
   -2.0950    1.3110   -1.0170 C   0  0  0  0  0  0  0  0  0  0  0  0
   -3.3960    1.0480   -0.6580 C   0  0  0  0  0  0  0  0  0  0  0  0
   -3.6450   -0.0400    0.1440 C   0  0  0  0  0  0  0  0  0  0  0  0
  2  1  1  1
  2  3  1  0
  2  4  1  0
  4  5  1  0
  5  6  1  0
  6  7  1  0
  6 37  1  0
  7  8  2  0
  8  9  1  0
  9 10  2  0
  9 37  1  0
 10 11  1  0
 10 34  1  0
 11 12  1  0
 12 13  1  0
 13 14  2  0
 13 22  1  0
 14 15  1  0
 15 16  1  0
 16 17  1  0
 17 18  2  0
 17 22  1  0
 18 19  1  0
 19 20  2  0
 19 33  1  0
 20 21  1  0
 20 23  1  0
 21 22  2  0
 23 24  2  0
 23 25  1  0
 25 26  1  0
 25 31  1  0
 26 27  1  0
 27 28  1  1
 27 29  1  0
 27 30  1  0
 31 32  2  0
 31 33  1  0
 34 35  2  0
 35 36  1  0
 36 37  2  0
M  CHG  1   2   1
M  END
