
     RDKit          3D

 37 41  0  0  0  0  0  0  0  0999 V2000
    2.8360    2.2100    0.0220 C   0  0  0  0  0  0  0  0  0  0  0  0
    2.0770    0.9960   -0.5930 C   0  0  1  0  0  0  0  0  0  0  0  0
    2.9370   -0.1000   -0.1000 C   0  0  0  0  0  0  0  0  0  0  0  0
    3.8930   -0.6160   -0.9140 C   0  0  0  0  0  0  0  0  0  0  0  0
    4.7320   -1.6870   -0.4370 C   0  0  0  0  0  0  0  0  0  0  0  0
    5.6570   -2.2750   -1.2120 C   0  0  0  0  0  0  0  0  0  0  0  0
    6.4410   -3.3660   -0.5450 C   0  0  0  0  0  0  0  0  0  0  0  0
    6.4380   -3.6300    0.7750 C   0  0  0  0  0  0  0  0  0  0  0  0
    7.2770   -4.6940    0.9290 N   0  0  0  0  0  0  0  0  0  0  0  0
    7.7440   -5.0270   -0.2810 N   0  0  0  0  0  0  0  0  0  0  0  0
    7.2250   -4.2000   -1.1690 O   0  0  0  0  0  0  0  0  0  0  0  0
    2.6470   -0.7880    1.1260 C   0  0  0  0  0  0  0  0  0  0  0  0
    1.4230   -0.7020    1.6080 C   0  0  0  0  0  0  0  0  0  0  0  0
    0.4280    0.1720    0.9070 C   0  0  0  0  0  0  0  0  0  0  0  0
   -0.9240   -0.3600    0.9640 N   0  0  0  0  0  0  0  0  0  0  0  0
   -1.8570   -0.2360   -0.0310 C   0  0  0  0  0  0  0  0  0  0  0  0
   -1.7400    0.2320   -1.1450 O   0  0  0  0  0  0  0  0  0  0  0  0
   -3.2290   -0.7450    0.2630 C   0  0  0  0  0  0  0  0  0  0  0  0
   -4.1160    0.0300    0.9590 C   0  0  0  0  0  0  0  0  0  0  0  0
   -5.4040   -0.4180    1.2250 C   0  0  0  0  0  0  0  0  0  0  0  0
   -5.8080   -1.6610    0.7880 C   0  0  0  0  0  0  0  0  0  0  0  0
   -4.9130   -2.4310    0.0910 C   0  0  0  0  0  0  0  0  0  0  0  0
   -3.6160   -1.9690   -0.1720 C   0  0  0  0  0  0  0  0  0  0  0  0
   -5.5720   -3.7020   -0.2710 C   0  0  0  0  0  0  0  0  0  0  0  0
   -6.9610   -3.4820   -0.0180 N   0  0  0  0  0  0  0  0  0  0  0  0
   -7.1020   -2.4110    0.9020 C   0  0  0  0  0  0  0  0  0  0  0  0
    0.7390    0.9500   -0.1120 N   0  0  0  0  0  0  0  0  0  0  0  0
   -0.3710    1.8700   -0.3430 C   0  0  0  0  0  0  0  0  0  0  0  0
    0.0210    3.3010   -0.1680 C   0  0  0  0  0  0  0  0  0  0  0  0
   -0.6050    4.1200    0.8060 C   0  0  0  0  0  0  0  0  0  0  0  0
   -1.3790    3.4570    1.7310 F   0  0  0  0  0  0  0  0  0  0  0  0
   -0.4710    5.4640    0.8790 C   0  0  0  0  0  0  0  0  0  0  0  0
    0.3080    6.1190   -0.0200 C   0  0  0  0  0  0  0  0  0  0  0  0
    0.9310    5.3830   -0.9770 C   0  0  0  0  0  0  0  0  0  0  0  0
    1.7150    6.0430   -1.8930 F   0  0  0  0  0  0  0  0  0  0  0  0
    0.7770    4.0250   -1.0360 C   0  0  0  0  0  0  0  0  0  0  0  0
    1.3170    3.4320   -2.1410 F   0  0  0  0  0  0  0  0  0  0  0  0
  2  1  1  1
  2  3  1  0
  2 27  1  0
  3  4  2  3
  3 12  1  0
  4  5  1  0
  5  6  2  3
  6  7  1  0
  7  8  2  0
  7 11  1  0
  8  9  1  0
  9 10  2  0
 10 11  1  0
 12 13  2  0
 13 14  1  0
 14 15  1  0
 14 27  2  0
 15 16  1  0
 16 17  2  0
 16 18  1  0
 18 19  2  0
 18 23  1  0
 19 20  1  0
 20 21  2  0
 21 22  1  0
 21 26  1  0
 22 23  2  0
 22 24  1  0
 24 25  1  0
 25 26  1  0
 27 28  1  0
 28 29  1  0
 29 30  2  0
 29 36  1  0
 30 31  1  0
 30 32  1  0
 32 33  2  0
 33 34  1  0
 34 35  1  0
 34 36  2  0
 36 37  1  0
M  CHG  1  27   1
M  END
