
     RDKit          3D

 37 40  0  0  0  0  0  0  0  0999 V2000
   -5.3480   -0.6870    0.5330 C   0  0  0  0  0  0  0  0  0  0  0  0
   -4.9360   -0.7840   -0.8850 C   0  0  0  0  0  0  0  0  0  0  0  0
   -5.8280   -0.8840   -1.7580 O   0  0  0  0  0  0  0  0  0  0  0  0
   -3.5140   -0.7600   -1.2050 C   0  0  0  0  0  0  0  0  0  0  0  0
   -3.1290   -0.8470   -2.4560 C   0  0  0  0  0  0  0  0  0  0  0  0
   -1.7640   -0.8620   -2.7800 N   0  0  0  0  0  0  0  0  0  0  0  0
   -1.2400   -0.8920   -4.1320 C   0  0  0  0  0  0  0  0  0  0  0  0
   -0.7810   -0.8460   -1.7150 C   0  0  0  0  0  0  0  0  0  0  0  0
    0.4480   -0.6930   -1.9800 N   0  0  0  0  0  0  0  0  0  0  0  0
    1.5870   -0.6240   -1.2800 N   0  0  0  0  0  0  0  0  0  0  0  0
    2.0350    0.3930   -0.6430 C   0  0  0  0  0  0  0  0  0  0  0  0
    3.2880    0.3770    0.0930 C   0  0  0  0  0  0  0  0  0  0  0  0
    3.7680    1.4680    0.7760 C   0  0  0  0  0  0  0  0  0  0  0  0
    4.9540    1.4680    1.4770 C   0  0  0  0  0  0  0  0  0  0  0  0
    5.7090    0.2980    1.4950 C   0  0  0  0  0  0  0  0  0  0  0  0
    6.9850    0.2730    2.2400 C   0  0  1  0  0  0  0  0  0  0  0  0
    7.8540    1.2250    1.7410 F   0  0  0  0  0  0  0  0  0  0  0  0
    6.7060    0.5730    3.5600 F   0  0  0  0  0  0  0  0  0  0  0  0
    5.2660   -0.8200    0.8240 C   0  0  0  0  0  0  0  0  0  0  0  0
    4.0790   -0.7700    0.1410 C   0  0  0  0  0  0  0  0  0  0  0  0
   -1.2680   -0.8780   -0.3900 N   0  0  0  0  0  0  0  0  0  0  0  0
   -0.6660   -1.6280    0.6740 C   0  0  0  0  0  0  0  0  0  0  0  0
   -1.0640   -1.2530    1.8560 O   0  0  0  0  0  0  0  0  0  0  0  0
    0.2690   -2.7030    0.6160 C   0  0  0  0  0  0  0  0  0  0  0  0
    0.8210   -3.3750   -0.3610 C   0  0  0  0  0  0  0  0  0  0  0  0
    1.7320   -4.3950    0.1350 C   0  0  0  0  0  0  0  0  0  0  0  0
    1.6950   -4.2980    1.4360 C   0  0  0  0  0  0  0  0  0  0  0  0
    0.8220   -3.2850    1.8150 N   0  0  0  0  0  0  0  0  0  0  0  0
   -2.5640   -0.2940   -0.1130 C   0  0  1  0  0  0  0  0  0  0  0  0
   -2.5060    1.1930   -0.1410 C   0  0  0  0  0  0  0  0  0  0  0  0
   -3.4540    1.9490   -0.7940 C   0  0  0  0  0  0  0  0  0  0  0  0
   -3.3360    3.3330   -0.7770 C   0  0  0  0  0  0  0  0  0  0  0  0
   -2.3040    3.9830   -0.1320 C   0  0  0  0  0  0  0  0  0  0  0  0
   -2.2270    5.4720   -0.1450 C   0  0  0  0  0  0  0  0  0  0  0  0
   -2.8890    6.0420    0.9130 F   0  0  0  0  0  0  0  0  0  0  0  0
   -1.3560    3.2220    0.5200 C   0  0  0  0  0  0  0  0  0  0  0  0
   -1.4710    1.8270    0.5060 C   0  0  0  0  0  0  0  0  0  0  0  0
  1  2  1  0
  2  3  2  0
  2  4  1  0
  4  5  2  0
  4 29  1  0
  5  6  1  0
  6  7  1  0
  6  8  1  0
  8  9  2  3
  8 21  1  0
  9 10  1  0
 10 11  2  3
 11 12  1  0
 12 13  2  0
 12 20  1  0
 13 14  1  0
 14 15  2  0
 15 16  1  0
 15 19  1  0
 16 17  1  6
 16 18  1  0
 19 20  2  0
 21 22  1  0
 21 29  1  0
 22 23  2  0
 22 24  1  0
 24 25  2  0
 24 28  1  0
 25 26  1  0
 26 27  2  0
 27 28  1  0
 29 30  1  6
 30 31  2  0
 30 37  1  0
 31 32  1  0
 32 33  2  0
 33 34  1  0
 33 36  1  0
 34 35  1  0
 36 37  2  0
M  CHG  1  28   1
M  END
