
     RDKit          3D

 36 40  0  0  0  0  0  0  0  0999 V2000
   -2.5320    5.2610   -3.4270 C   0  0  0  0  0  0  0  0  0  0  0  0
   -2.5180    4.9540   -2.0710 O   0  0  0  0  0  0  0  0  0  0  0  0
   -2.7450    3.6730   -1.5610 C   0  0  0  0  0  0  0  0  0  0  0  0
   -2.7230    3.4080   -0.2100 C   0  0  0  0  0  0  0  0  0  0  0  0
   -2.9470    2.1380    0.2890 C   0  0  0  0  0  0  0  0  0  0  0  0
   -3.2050    1.0720   -0.5480 C   0  0  0  0  0  0  0  0  0  0  0  0
   -3.4420   -0.2520   -0.0730 N   0  0  0  0  0  0  0  0  0  0  0  0
   -2.4540   -1.1500    0.0890 C   0  0  0  0  0  0  0  0  0  0  0  0
   -1.0580   -0.7590   -0.2360 C   0  0  0  0  0  0  0  0  0  0  0  0
   -0.0970   -1.9080    0.0130 C   0  0  0  0  0  0  0  0  0  0  0  0
    1.2660   -1.5350   -0.3030 N   0  0  0  0  0  0  0  0  0  0  0  0
    1.8530   -1.6990   -1.5720 C   0  0  0  0  0  0  0  0  0  0  0  0
    1.3350   -2.1790   -2.6350 O   0  0  0  0  0  0  0  0  0  0  0  0
    3.2180   -1.2080   -1.4770 C   0  0  0  0  0  0  0  0  0  0  0  0
    4.2190   -1.1450   -2.4430 C   0  0  0  0  0  0  0  0  0  0  0  0
    5.4430   -0.6270   -2.0830 C   0  0  0  0  0  0  0  0  0  0  0  0
    5.7250   -0.1640   -0.7980 C   0  0  0  0  0  0  0  0  0  0  0  0
    4.7290   -0.2330    0.1420 C   0  0  0  0  0  0  0  0  0  0  0  0
    4.9260    0.1960    1.4090 O   0  0  0  0  0  0  0  0  0  0  0  0
    6.0450    0.7470    2.0130 C   0  0  2  0  0  0  0  0  0  0  0  0
    6.5570   -0.0770    3.1780 C   0  0  0  0  0  0  0  0  0  0  0  0
    5.8100    2.1580    2.5170 C   0  0  0  0  0  0  0  0  0  0  0  0
    3.4930   -0.7490   -0.1970 C   0  0  0  0  0  0  0  0  0  0  0  0
    2.2450   -0.9580    0.5530 C   0  0  0  0  0  0  0  0  0  0  0  0
    2.1020   -0.6590    1.7690 O   0  0  0  0  0  0  0  0  0  0  0  0
   -2.7130   -2.3980    0.5420 N   0  0  0  0  0  0  0  0  0  0  0  0
   -3.9340   -2.8220    0.8540 C   0  0  0  0  0  0  0  0  0  0  0  0
   -4.2090   -4.1060    1.3210 C   0  0  0  0  0  0  0  0  0  0  0  0
   -5.4870   -4.5140    1.6350 C   0  0  0  0  0  0  0  0  0  0  0  0
   -6.5390   -3.6140    1.4820 C   0  0  0  0  0  0  0  0  0  0  0  0
   -6.2500   -2.3480    1.0190 C   0  0  0  0  0  0  0  0  0  0  0  0
   -4.9780   -1.9230    0.7000 C   0  0  0  0  0  0  0  0  0  0  0  0
   -4.6870   -0.6670    0.2400 C   0  0  0  0  0  0  0  0  0  0  0  0
   -5.6410    0.1680    0.0940 O   0  0  0  0  0  0  0  0  0  0  0  0
   -3.2270    1.3380   -1.9030 C   0  0  0  0  0  0  0  0  0  0  0  0
   -3.0010    2.6120   -2.4020 C   0  0  0  0  0  0  0  0  0  0  0  0
  1  2  1  0
  2  3  1  0
  3  4  2  0
  3 36  1  0
  4  5  1  0
  5  6  2  0
  6  7  1  0
  6 35  1  0
  7  8  1  0
  7 33  1  0
  8  9  1  0
  8 26  2  0
  9 10  1  0
 10 11  1  0
 11 12  1  0
 11 24  1  0
 12 13  2  0
 12 14  1  0
 14 15  2  0
 14 23  1  0
 15 16  1  0
 16 17  2  0
 17 18  1  0
 18 19  1  0
 18 23  2  0
 19 20  1  0
 20 21  1  1
 20 22  1  0
 23 24  1  0
 24 25  2  0
 26 27  1  0
 27 28  2  0
 27 32  1  0
 28 29  1  0
 29 30  2  0
 30 31  1  0
 31 32  2  0
 32 33  1  0
 33 34  2  0
 35 36  2  0
M  END
