
     RDKit          3D

 10 10  0  0  0  0  0  0  0  0999 V2000
    2.7290   -1.0940    0.2700 O   0  0  0  0  0  0  0  0  0  0  0  0
    2.2120    0.1430   -0.0920 C   0  0  0  0  0  0  0  0  0  0  0  0
    0.7630    0.2440    0.3350 C   0  0  1  0  0  0  0  0  0  0  0  0
    0.2150    1.5930   -0.0650 C   0  0  0  0  0  0  0  0  0  0  0  0
   -1.1800    1.6150   -0.1240 N   0  0  0  0  0  0  0  0  0  0  0  0
   -1.9110    0.5900    0.4950 C   0  0  0  0  0  0  0  0  0  0  0  0
   -1.4620   -0.8130    0.1690 C   0  0  1  0  0  0  0  0  0  0  0  0
   -2.2490   -1.3710   -0.8370 O   0  0  0  0  0  0  0  0  0  0  0  0
   -0.0290   -0.8640   -0.3170 C   0  0  2  0  0  0  0  0  0  0  0  0
    0.5760   -2.0850   -0.0640 O   0  0  0  0  0  0  0  0  0  0  0  0
  1  2  1  0
  3  2  1  6
  3  4  1  0
  3  9  1  0
  4  5  1  0
  5  6  1  0
  6  7  1  0
  7  8  1  6
  7  9  1  0
  9 10  1  1
M  END
