
     RDKit          3D

 23 26  0  0  0  0  0  0  0  0999 V2000
   -5.4150    1.1840   -0.9280 N   0  0  0  0  0  0  0  0  0  0  0  0
   -4.7810    0.1200   -0.2360 C   0  0  0  0  0  0  0  0  0  0  0  0
   -5.5800   -0.8200    0.3580 C   0  0  0  0  0  0  0  0  0  0  0  0
   -5.0120   -1.8610    1.0350 C   0  0  0  0  0  0  0  0  0  0  0  0
   -3.6390   -1.9450    1.1080 C   0  0  0  0  0  0  0  0  0  0  0  0
   -2.8130   -1.0030    0.5130 C   0  0  0  0  0  0  0  0  0  0  0  0
   -1.3800   -1.1580    0.6330 C   0  0  0  0  0  0  0  0  0  0  0  0
   -0.8560   -2.2220    1.3240 N   0  0  0  0  0  0  0  0  0  0  0  0
    0.4310   -2.4320    1.4760 N   0  0  0  0  0  0  0  0  0  0  0  0
    1.2980   -1.5910    0.9480 N   0  0  0  0  0  0  0  0  0  0  0  0
    0.8510   -0.5210    0.2540 C   0  0  0  0  0  0  0  0  0  0  0  0
    1.5300    0.4950   -0.3900 C   0  0  0  0  0  0  0  0  0  0  0  0
    2.9850    0.5890   -0.4310 C   0  0  0  0  0  0  0  0  0  0  0  0
    3.6680    1.7630   -0.2060 C   0  0  0  0  0  0  0  0  0  0  0  0
    5.0520    1.8430   -0.2470 C   0  0  0  0  0  0  0  0  0  0  0  0
    5.8050    0.7010   -0.5250 C   0  0  0  0  0  0  0  0  0  0  0  0
    7.1740    0.8330   -0.5540 O   0  0  0  0  0  0  0  0  0  0  0  0
    5.1350   -0.4730   -0.7500 C   0  0  0  0  0  0  0  0  0  0  0  0
    3.7650   -0.5380   -0.7070 C   0  0  0  0  0  0  0  0  0  0  0  0
    0.6010    1.2770   -0.9050 N   0  0  0  0  0  0  0  0  0  0  0  0
   -0.5750    0.7750   -0.5990 N   0  0  0  0  0  0  0  0  0  0  0  0
   -0.4740   -0.3180    0.1050 N   0  0  0  0  0  0  0  0  0  0  0  0
   -3.3870    0.0210   -0.1530 C   0  0  0  0  0  0  0  0  0  0  0  0
  1  2  1  0
  2  3  2  0
  2 23  1  0
  3  4  1  0
  4  5  2  0
  5  6  1  0
  6  7  1  0
  6 23  2  0
  7  8  2  0
  7 22  1  0
  8  9  1  0
  9 10  2  0
 10 11  1  0
 11 12  2  0
 11 22  1  0
 12 13  1  0
 12 20  1  0
 13 14  2  0
 13 19  1  0
 14 15  1  0
 15 16  2  0
 16 17  1  0
 16 18  1  0
 18 19  2  0
 20 21  2  0
 21 22  1  0
M  END
