
     RDKit          3D

 23 26  0  0  0  0  0  0  0  0999 V2000
   -6.6630    2.2280   -0.7320 O   0  0  0  0  0  0  0  0  0  0  0  0
   -5.9780    1.1890   -0.5050 C   0  0  0  0  0  0  0  0  0  0  0  0
   -4.6130    1.3230   -0.5110 C   0  0  0  0  0  0  0  0  0  0  0  0
   -3.8220    0.2220   -0.2700 C   0  0  0  0  0  0  0  0  0  0  0  0
   -2.4460    0.2770   -0.2590 C   0  0  0  0  0  0  0  0  0  0  0  0
   -1.6650   -0.8270   -0.0180 C   0  0  0  0  0  0  0  0  0  0  0  0
   -0.2080   -0.7360   -0.0130 C   0  0  0  0  0  0  0  0  0  0  0  0
    0.6930   -1.7080    0.2030 N   0  0  0  0  0  0  0  0  0  0  0  0
    1.9090   -1.2020    0.1180 N   0  0  0  0  0  0  0  0  0  0  0  0
    1.8630    0.1070   -0.1540 C   0  0  0  0  0  0  0  0  0  0  0  0
    2.8880    1.0590   -0.3350 N   0  0  0  0  0  0  0  0  0  0  0  0
    4.2480    0.7360   -0.2460 C   0  0  0  0  0  0  0  0  0  0  0  0
    4.7560   -0.4980    0.0180 C   0  0  0  0  0  0  0  0  0  0  0  0
    6.1490   -0.7230    0.0870 C   0  0  0  0  0  0  0  0  0  0  0  0
    6.9360    0.3690   -0.1270 C   0  0  0  0  0  0  0  0  0  0  0  0
    6.4380    1.5850   -0.3870 N   0  0  0  0  0  0  0  0  0  0  0  0
    5.1410    1.7860   -0.4500 C   0  0  0  0  0  0  0  0  0  0  0  0
    0.5130    0.3660   -0.2300 N   0  0  0  0  0  0  0  0  0  0  0  0
   -2.2730   -2.0490    0.2260 C   0  0  0  0  0  0  0  0  0  0  0  0
   -3.6520   -2.1320    0.2210 C   0  0  0  0  0  0  0  0  0  0  0  0
   -4.4280   -1.0080   -0.0250 C   0  0  0  0  0  0  0  0  0  0  0  0
   -5.7670   -1.0510   -0.0370 N   0  0  0  0  0  0  0  0  0  0  0  0
   -6.5460   -0.0070   -0.2660 N   0  0  0  0  0  0  0  0  0  0  0  0
  1  2  2  0
  2  3  1  0
  2 23  1  0
  3  4  2  0
  4  5  1  0
  4 21  1  0
  5  6  2  0
  6  7  1  0
  6 19  1  0
  7  8  2  0
  7 18  1  0
  8  9  1  0
  9 10  2  0
 10 11  1  0
 10 18  1  0
 11 12  1  0
 12 13  2  0
 12 17  1  0
 13 14  1  0
 14 15  2  0
 15 16  1  0
 16 17  2  0
 19 20  2  0
 20 21  1  0
 21 22  2  0
 22 23  1  0
M  END
