
     RDKit          3D

 23 26  0  0  0  0  0  0  0  0999 V2000
    5.1060    3.6360   -0.3220 O   0  0  0  0  0  0  0  0  0  0  0  0
    4.3330    2.8690   -0.9180 N   0  0  0  0  0  0  0  0  0  0  0  0
    4.5190    1.4950   -1.0340 N   0  0  0  0  0  0  0  0  0  0  0  0
    3.4970    0.5850   -0.6850 C   0  0  0  0  0  0  0  0  0  0  0  0
    2.5840    0.0920   -1.5890 C   0  0  0  0  0  0  0  0  0  0  0  0
    1.6140   -0.7880   -1.1570 C   0  0  0  0  0  0  0  0  0  0  0  0
    1.5740   -1.1570    0.1610 C   0  0  0  0  0  0  0  0  0  0  0  0
    0.5890   -2.0680    0.7180 C   0  0  0  0  0  0  0  0  0  0  0  0
    0.7780   -3.2460    1.3290 N   0  0  0  0  0  0  0  0  0  0  0  0
   -0.3580   -3.7740    1.7230 N   0  0  0  0  0  0  0  0  0  0  0  0
   -1.3360   -2.9370    1.3720 C   0  0  0  0  0  0  0  0  0  0  0  0
   -0.7600   -1.8410    0.7300 C   0  0  0  0  0  0  0  0  0  0  0  0
   -1.5570   -0.7330    0.1970 C   0  0  0  0  0  0  0  0  0  0  0  0
   -1.8500   -0.6340   -1.1490 C   0  0  0  0  0  0  0  0  0  0  0  0
   -2.5980    0.4160   -1.6660 C   0  0  0  0  0  0  0  0  0  0  0  0
   -3.0830    1.4120   -0.8470 C   0  0  0  0  0  0  0  0  0  0  0  0
   -3.8190    2.5230   -1.0720 N   0  0  0  0  0  0  0  0  0  0  0  0
   -3.9920    3.1180    0.0980 N   0  0  0  0  0  0  0  0  0  0  0  0
   -3.3910    2.4280    1.0710 C   0  0  0  0  0  0  0  0  0  0  0  0
   -2.7940    1.3230    0.5140 C   0  0  0  0  0  0  0  0  0  0  0  0
   -2.0460    0.2710    1.0170 C   0  0  0  0  0  0  0  0  0  0  0  0
    2.5090   -0.6520    1.0820 C   0  0  0  0  0  0  0  0  0  0  0  0
    3.4240    0.1960    0.6040 N   0  0  0  0  0  0  0  0  0  0  0  0
  1  2  2  0
  2  3  1  0
  3  4  1  0
  4  5  2  0
  4 23  1  0
  5  6  1  0
  6  7  2  0
  7  8  1  0
  7 22  1  0
  8  9  1  0
  8 12  2  0
  9 10  1  0
 10 11  2  0
 11 12  1  0
 12 13  1  0
 13 14  2  0
 13 21  1  0
 14 15  1  0
 15 16  2  0
 16 17  1  0
 16 20  1  0
 17 18  1  0
 18 19  2  0
 19 20  1  0
 20 21  2  0
 22 23  2  0
M  END
