
     RDKit          3D

 23 26  0  0  0  0  0  0  0  0999 V2000
   -6.4240    2.3760   -0.1390 C   0  0  0  0  0  0  0  0  0  0  0  0
   -5.3900    1.2840   -0.0720 C   0  0  0  0  0  0  0  0  0  0  0  0
   -5.8050   -0.0140    0.0520 C   0  0  0  0  0  0  0  0  0  0  0  0
   -4.8590   -1.0200    0.1150 C   0  0  0  0  0  0  0  0  0  0  0  0
   -3.5130   -0.7270    0.0530 C   0  0  0  0  0  0  0  0  0  0  0  0
   -2.5270   -1.7000    0.1110 C   0  0  0  0  0  0  0  0  0  0  0  0
   -1.1870   -1.3880    0.0480 C   0  0  0  0  0  0  0  0  0  0  0  0
   -0.1810   -2.3290    0.1030 C   0  0  0  0  0  0  0  0  0  0  0  0
    1.1500   -1.9330    0.0330 C   0  0  0  0  0  0  0  0  0  0  0  0
    1.4210   -0.5870   -0.0920 C   0  0  0  0  0  0  0  0  0  0  0  0
    2.7720   -0.1650   -0.1650 N   0  0  0  0  0  0  0  0  0  0  0  0
    3.8830   -1.0930   -0.1140 C   0  0  0  0  0  0  0  0  0  0  0  0
    5.1460   -0.3330   -0.2140 C   0  0  0  0  0  0  0  0  0  0  0  0
    5.3260    1.0030   -0.3360 N   0  0  0  0  0  0  0  0  0  0  0  0
    6.6500    1.2840   -0.3960 C   0  0  0  0  0  0  0  0  0  0  0  0
    7.2190    2.5660   -0.5230 N   0  0  0  0  0  0  0  0  0  0  0  0
    7.2570    0.0750   -0.3060 N   0  0  0  0  0  0  0  0  0  0  0  0
    6.3440   -0.8480   -0.2010 O   0  0  0  0  0  0  0  0  0  0  0  0
    0.4400    0.3140   -0.1440 N   0  0  0  0  0  0  0  0  0  0  0  0
   -0.8590   -0.0550   -0.0770 C   0  0  0  0  0  0  0  0  0  0  0  0
   -1.8210    0.8800   -0.1330 N   0  0  0  0  0  0  0  0  0  0  0  0
   -3.1490    0.5950   -0.0720 C   0  0  0  0  0  0  0  0  0  0  0  0
   -4.0780    1.5650   -0.1320 N   0  0  0  0  0  0  0  0  0  0  0  0
  1  2  1  0
  2  3  2  0
  2 23  1  0
  3  4  1  0
  4  5  2  0
  5  6  1  0
  5 22  1  0
  6  7  2  0
  7  8  1  0
  7 20  1  0
  8  9  2  0
  9 10  1  0
 10 11  1  0
 10 19  2  0
 11 12  1  0
 12 13  1  0
 13 14  2  0
 13 18  1  0
 14 15  1  0
 15 16  1  0
 15 17  2  0
 17 18  1  0
 19 20  1  0
 20 21  2  0
 21 22  1  0
 22 23  2  0
M  END
