
     RDKit          3D

 23 26  0  0  0  0  0  0  0  0999 V2000
    1.3130   -0.5100    1.8590 O   0  0  0  0  0  0  0  0  0  0  0  0
    0.9120   -0.1920    0.7150 C   0  0  0  0  0  0  0  0  0  0  0  0
   -0.4810   -0.1200    0.4620 N   0  0  0  0  0  0  0  0  0  0  0  0
   -1.4760   -0.3900    1.4390 C   0  0  0  0  0  0  0  0  0  0  0  0
   -1.3400   -0.7910    2.7490 C   0  0  0  0  0  0  0  0  0  0  0  0
   -2.5410   -0.9510    3.3290 N   0  0  0  0  0  0  0  0  0  0  0  0
   -3.4370   -0.6590    2.4090 N   0  0  0  0  0  0  0  0  0  0  0  0
   -2.8340   -0.3120    1.2410 C   0  0  0  0  0  0  0  0  0  0  0  0
   -3.5330    0.0630    0.0210 C   0  0  0  0  0  0  0  0  0  0  0  0
   -4.5870   -0.7030   -0.4480 C   0  0  0  0  0  0  0  0  0  0  0  0
   -5.2830   -0.3790   -1.5910 C   0  0  0  0  0  0  0  0  0  0  0  0
   -4.9540    0.7010   -2.2910 N   0  0  0  0  0  0  0  0  0  0  0  0
   -3.9330    1.4660   -1.8590 C   0  0  0  0  0  0  0  0  0  0  0  0
   -3.2100    1.1790   -0.7210 C   0  0  0  0  0  0  0  0  0  0  0  0
    1.8730    0.1080   -0.3710 C   0  0  0  0  0  0  0  0  0  0  0  0
    1.6270    0.4590   -1.6330 N   0  0  0  0  0  0  0  0  0  0  0  0
    2.7400    0.6490   -2.3220 N   0  0  0  0  0  0  0  0  0  0  0  0
    3.8130    0.4310   -1.5410 C   0  0  0  0  0  0  0  0  0  0  0  0
    5.1490    0.4710   -1.6910 N   0  0  0  0  0  0  0  0  0  0  0  0
    5.9800    0.1870   -0.6720 C   0  0  0  0  0  0  0  0  0  0  0  0
    5.4700   -0.1590    0.5760 C   0  0  0  0  0  0  0  0  0  0  0  0
    4.1070   -0.2140    0.7810 C   0  0  0  0  0  0  0  0  0  0  0  0
    3.2330    0.0670   -0.2290 C   0  0  0  0  0  0  0  0  0  0  0  0
  1  2  2  0
  2  3  1  0
  2 15  1  0
  3  4  1  0
  4  5  2  0
  4  8  1  0
  5  6  1  0
  6  7  1  0
  7  8  2  0
  8  9  1  0
  9 10  2  0
  9 14  1  0
 10 11  1  0
 11 12  2  0
 12 13  1  0
 13 14  2  0
 15 16  2  0
 15 23  1  0
 16 17  1  0
 17 18  2  0
 18 19  1  0
 18 23  1  0
 19 20  1  0
 20 21  2  0
 21 22  1  0
 22 23  2  0
M  END
