
     RDKit          3D

 23 26  0  0  0  0  0  0  0  0999 V2000
   -4.3150   -1.9730    0.1500 C   0  0  0  0  0  0  0  0  0  0  0  0
   -2.9870   -1.7850    0.6780 N   0  0  0  0  0  0  0  0  0  0  0  0
   -2.4420   -2.5210    1.6570 C   0  0  0  0  0  0  0  0  0  0  0  0
   -1.1730   -2.0430    1.8820 C   0  0  0  0  0  0  0  0  0  0  0  0
   -0.9710   -0.9970    1.0090 C   0  0  0  0  0  0  0  0  0  0  0  0
    0.1130   -0.1500    0.7900 C   0  0  0  0  0  0  0  0  0  0  0  0
    0.0700    0.8460   -0.1650 C   0  0  0  0  0  0  0  0  0  0  0  0
    1.1480    1.6750   -0.3700 C   0  0  0  0  0  0  0  0  0  0  0  0
    2.2190    1.6250    0.2440 N   0  0  0  0  0  0  0  0  0  0  0  0
    2.8410    0.9420    1.2140 N   0  0  0  0  0  0  0  0  0  0  0  0
    3.8040   -0.0860    1.0320 C   0  0  0  0  0  0  0  0  0  0  0  0
    4.4730   -0.8190    1.9840 C   0  0  0  0  0  0  0  0  0  0  0  0
    5.3190   -1.7140    1.3330 C   0  0  0  0  0  0  0  0  0  0  0  0
    5.1410   -1.5000    0.0340 N   0  0  0  0  0  0  0  0  0  0  0  0
    4.2390   -0.5310   -0.1480 N   0  0  0  0  0  0  0  0  0  0  0  0
    0.9810    2.6270   -1.3500 N   0  0  0  0  0  0  0  0  0  0  0  0
   -0.1530    2.7290   -2.0480 C   0  0  0  0  0  0  0  0  0  0  0  0
   -0.2960    3.6190   -2.9560 O   0  0  0  0  0  0  0  0  0  0  0  0
   -1.2120    1.9280   -1.8580 N   0  0  0  0  0  0  0  0  0  0  0  0
   -2.4170    2.0790   -2.6390 C   0  0  0  0  0  0  0  0  0  0  0  0
   -1.0740    0.9910   -0.9070 C   0  0  0  0  0  0  0  0  0  0  0  0
   -2.1290    0.1520   -0.6810 C   0  0  0  0  0  0  0  0  0  0  0  0
   -2.1070   -0.8600    0.2790 C   0  0  0  0  0  0  0  0  0  0  0  0
  1  2  1  0
  2  3  1  0
  2 23  1  0
  3  4  2  0
  4  5  1  0
  5  6  2  0
  5 23  1  0
  6  7  1  0
  7  8  1  0
  7 21  2  0
  8  9  2  3
  8 16  1  0
  9 10  1  0
 10 11  1  0
 11 12  2  0
 11 15  1  0
 12 13  1  0
 13 14  2  0
 14 15  1  0
 16 17  1  0
 17 18  2  0
 17 19  1  0
 19 20  1  0
 19 21  1  0
 21 22  1  0
 22 23  2  0
M  END
