
     RDKit          3D

 23 26  0  0  0  0  0  0  0  0999 V2000
    4.2470   -1.0530   -2.2750 C   0  0  0  0  0  0  0  0  0  0  0  0
    2.8360   -0.8730   -2.0360 N   0  0  0  0  0  0  0  0  0  0  0  0
    1.9040   -1.1090   -2.9730 N   0  0  0  0  0  0  0  0  0  0  0  0
    0.7170   -0.8620   -2.4750 N   0  0  0  0  0  0  0  0  0  0  0  0
    0.8230   -0.4610   -1.2120 C   0  0  0  0  0  0  0  0  0  0  0  0
   -0.1880   -0.0870   -0.2830 N   0  0  0  0  0  0  0  0  0  0  0  0
   -1.5650   -0.0620   -0.5140 C   0  0  0  0  0  0  0  0  0  0  0  0
   -2.0840   -0.4200   -1.7380 C   0  0  0  0  0  0  0  0  0  0  0  0
   -3.4610   -0.4000   -1.9860 C   0  0  0  0  0  0  0  0  0  0  0  0
   -4.3140   -0.0180   -0.9950 C   0  0  0  0  0  0  0  0  0  0  0  0
   -3.8270    0.3440    0.2340 C   0  0  0  0  0  0  0  0  0  0  0  0
   -4.6850    0.7370    1.2540 C   0  0  0  0  0  0  0  0  0  0  0  0
   -4.2230    1.1050    2.4970 C   0  0  0  0  0  0  0  0  0  0  0  0
   -2.8850    1.0890    2.7460 C   0  0  0  0  0  0  0  0  0  0  0  0
   -2.0110    0.6940    1.7220 C   0  0  0  0  0  0  0  0  0  0  0  0
   -2.4610    0.3250    0.4800 C   0  0  0  0  0  0  0  0  0  0  0  0
    2.2010   -0.4720   -0.9370 C   0  0  0  0  0  0  0  0  0  0  0  0
    2.8380   -0.1080    0.3300 C   0  0  0  0  0  0  0  0  0  0  0  0
    2.2100    0.3050    1.4670 N   0  0  0  0  0  0  0  0  0  0  0  0
    3.0540    0.5560    2.4320 N   0  0  0  0  0  0  0  0  0  0  0  0
    4.2730    0.3080    1.9370 C   0  0  0  0  0  0  0  0  0  0  0  0
    5.3430    0.4380    2.5780 O   0  0  0  0  0  0  0  0  0  0  0  0
    4.1330   -0.1030    0.6340 N   0  0  0  0  0  0  0  0  0  0  0  0
  1  2  1  0
  2  3  1  0
  2 17  1  0
  3  4  2  0
  4  5  1  0
  5  6  1  0
  5 17  2  0
  6  7  1  0
  7  8  2  0
  7 16  1  0
  8  9  1  0
  9 10  2  0
 10 11  1  0
 11 12  2  0
 11 16  1  0
 12 13  1  0
 13 14  2  0
 14 15  1  0
 15 16  2  0
 17 18  1  0
 18 19  2  0
 18 23  1  0
 19 20  1  0
 20 21  1  0
 21 22  2  0
 21 23  1  0
M  END
