
     RDKit          3D

 16 16  0  0  0  0  0  0  0  0999 V2000
    2.0710    0.5190    1.6520 C   0  0  0  0  0  0  0  0  0  0  0  0
    2.2310    0.6690    0.1640 C   0  0  2  0  0  0  0  0  0  0  0  0
    0.9220    1.0980   -0.4410 C   0  0  1  0  0  0  0  0  0  0  0  0
    1.0500    1.2260   -1.8200 O   0  0  0  0  0  0  0  0  0  0  0  0
   -0.1090    0.0370   -0.1650 C   0  0  0  0  0  0  0  0  0  0  0  0
   -1.3650    0.3880   -0.7260 O   0  0  0  0  0  0  0  0  0  0  0  0
   -2.4300   -0.4870   -0.5620 C   0  0  0  0  0  0  0  0  0  0  0  0
   -3.2080   -0.4440    0.4940 C   0  0  0  0  0  0  0  0  0  0  0  0
   -2.9800    0.5530    1.5710 C   0  0  0  0  0  0  0  0  0  0  0  0
   -4.1160    1.3730    1.7130 O   0  0  0  0  0  0  0  0  0  0  0  0
   -2.6680   -1.4880   -1.6320 C   0  0  0  0  0  0  0  0  0  0  0  0
   -3.7690   -2.2860   -1.3160 O   0  0  0  0  0  0  0  0  0  0  0  0
    2.7160   -0.5730   -0.5120 C   0  0  0  0  0  0  0  0  0  0  0  0
    4.0720   -0.3500   -0.8440 O   0  0  0  0  0  0  0  0  0  0  0  0
    4.3800    0.7470   -0.0340 C   0  0  0  0  0  0  0  0  0  0  0  0
    3.2560    1.5710   -0.0750 O   0  0  0  0  0  0  0  0  0  0  0  0
  2  1  1  1
  2  3  1  0
  2 13  1  0
  2 16  1  0
  3  4  1  6
  3  5  1  0
  5  6  1  0
  6  7  1  0
  7  8  2  3
  7 11  1  0
  8  9  1  0
  9 10  1  0
 11 12  1  0
 13 14  1  0
 14 15  1  0
 15 16  1  0
M  END
