
     RDKit          3D

 16 16  0  0  0  0  0  0  0  0999 V2000
   -1.5350    3.1850   -0.3510 O   0  0  0  0  0  0  0  0  0  0  0  0
   -2.4200    2.4340   -1.0550 C   0  0  0  0  0  0  0  0  0  0  0  0
   -2.5660    1.1580   -0.9390 C   0  0  0  0  0  0  0  0  0  0  0  0
   -1.8510    0.2560   -0.0710 C   0  0  0  0  0  0  0  0  0  0  0  0
   -0.8500    0.5310    0.7850 O   0  0  0  0  0  0  0  0  0  0  0  0
    0.4230    1.0000    0.7170 C   0  0  0  0  0  0  0  0  0  0  0  0
    1.3470    0.1990   -0.1350 C   0  0  2  0  0  0  0  0  0  0  0  0
    1.5990   -1.2060    0.2420 C   0  0  0  0  0  0  0  0  0  0  0  0
    2.9590   -1.4660    0.0430 O   0  0  0  0  0  0  0  0  0  0  0  0
    3.5140   -0.4340   -0.6640 C   0  0  2  0  0  0  0  0  0  0  0  0
    4.8710   -0.3490   -0.4640 O   0  0  0  0  0  0  0  0  0  0  0  0
    2.7740    0.7750   -0.0730 C   0  0  0  0  0  0  0  0  0  0  0  0
   -2.2480   -1.0550   -0.1400 C   0  0  0  0  0  0  0  0  0  0  0  0
   -3.2600   -1.4190   -1.0040 O   0  0  0  0  0  0  0  0  0  0  0  0
   -1.6360   -2.0910    0.6870 C   0  0  0  0  0  0  0  0  0  0  0  0
   -2.6170   -2.6960    1.5010 O   0  0  0  0  0  0  0  0  0  0  0  0
  1  2  1  0
  2  3  2  3
  3  4  1  0
  4  5  1  0
  4 13  2  3
  5  6  1  0
  7  6  1  1
  7  8  1  0
  7 12  1  0
  8  9  1  0
  9 10  1  0
 10 11  1  1
 10 12  1  0
 13 14  1  0
 13 15  1  0
 15 16  1  0
M  END
