
     RDKit          3D

 20 20  0  0  0  0  0  0  0  0999 V2000
    3.2810    1.7620   -0.2270 O   0  0  0  0  0  0  0  0  0  0  0  0
    3.5110    0.8550    0.5850 C   0  0  0  0  0  0  0  0  0  0  0  0
    2.3930    0.0620    1.0170 N   0  0  0  0  0  0  0  0  0  0  0  0
    1.0480    0.2990    0.5320 C   0  0  2  0  0  0  0  0  0  0  0  0
    0.1650    0.7340    1.6770 C   0  0  0  0  0  0  0  0  0  0  0  0
    0.7350    1.9190    2.1860 O   0  0  0  0  0  0  0  0  0  0  0  0
    0.4930   -0.9090   -0.1840 C   0  0  2  0  0  0  0  0  0  0  0  0
    1.3550   -1.1660   -1.2680 O   0  0  0  0  0  0  0  0  0  0  0  0
   -0.9000   -0.7610   -0.5810 C   0  0  0  0  0  0  0  0  0  0  0  0
   -1.2400    0.0020   -1.6740 C   0  0  0  0  0  0  0  0  0  0  0  0
   -2.5570    0.1630   -2.0760 C   0  0  0  0  0  0  0  0  0  0  0  0
   -3.5860   -0.4470   -1.3840 C   0  0  0  0  0  0  0  0  0  0  0  0
   -4.9430   -0.2950   -1.7810 N   0  0  0  0  0  0  0  0  0  0  0  0
   -5.8330   -0.8570   -1.1340 O   0  0  0  0  0  0  0  0  0  0  0  0
   -5.2190    0.4740   -2.8720 O   0  0  0  0  0  0  0  0  0  0  0  0
   -3.2600   -1.2100   -0.2940 C   0  0  0  0  0  0  0  0  0  0  0  0
   -1.9370   -1.3600    0.0960 C   0  0  0  0  0  0  0  0  0  0  0  0
    4.8770    0.6280    1.0660 C   0  0  1  0  0  0  0  0  0  0  0  0
    5.9620    1.8070    0.3020 Cl  0  0  0  0  0  0  0  0  0  0  0  0
    4.9600    0.7410    2.8370 Cl  0  0  0  0  0  0  0  0  0  0  0  0
  1  2  2  0
  2  3  1  0
  2 18  1  0
  3  4  1  0
  4  5  1  1
  4  7  1  0
  5  6  1  0
  7  8  1  6
  7  9  1  0
  9 10  2  0
  9 17  1  0
 10 11  1  0
 11 12  2  0
 12 13  1  0
 12 16  1  0
 13 14  2  0
 13 15  1  0
 16 17  2  0
 18 19  1  6
 18 20  1  0
M  CHG  2  13   1  15  -1
M  END
