
     RDKit          3D

 16 16  0  0  0  0  0  0  0  0999 V2000
   -0.4680    1.5880   -0.9150 O   0  0  0  0  0  0  0  0  0  0  0  0
   -0.5260    0.4220   -0.4780 C   0  0  0  0  0  0  0  0  0  0  0  0
    0.6280   -0.1480    0.0250 O   0  0  0  0  0  0  0  0  0  0  0  0
    1.8730    0.5320    0.0670 C   0  0  0  0  0  0  0  0  0  0  0  0
    2.8660   -0.3730    0.6600 C   0  0  0  0  0  0  0  0  0  0  0  0
    2.5620   -0.8020    1.9880 O   0  0  0  0  0  0  0  0  0  0  0  0
    3.9700   -0.8160    0.1190 C   0  0  0  0  0  0  0  0  0  0  0  0
    4.4050   -0.4630   -1.2250 C   0  0  0  0  0  0  0  0  0  0  0  0
    5.6550    0.1830   -1.2230 O   0  0  0  0  0  0  0  0  0  0  0  0
   -1.7640   -0.4040   -0.4620 C   0  0  1  0  0  0  0  0  0  0  0  0
   -2.0460   -0.7570    0.9840 C   0  0  0  0  0  0  0  0  0  0  0  0
   -3.4960   -0.5170    1.3550 C   0  0  0  0  0  0  0  0  0  0  0  0
   -3.8800    0.7940    1.1770 O   0  0  0  0  0  0  0  0  0  0  0  0
   -3.3060    1.4020    0.0740 C   0  0  0  0  0  0  0  0  0  0  0  0
   -2.9630    0.3560   -0.9560 C   0  0  1  0  0  0  0  0  0  0  0  0
   -2.7830    0.9020   -2.2150 O   0  0  0  0  0  0  0  0  0  0  0  0
  1  2  2  0
  2  3  1  0
 10  2  1  1
  3  4  1  0
  4  5  1  0
  5  6  1  0
  5  7  2  3
  7  8  1  0
  8  9  1  0
 10 11  1  0
 10 15  1  0
 11 12  1  0
 12 13  1  0
 13 14  1  0
 14 15  1  0
 15 16  1  6
M  END
