
     RDKit          3D

 16 16  0  0  0  0  0  0  0  0999 V2000
    4.5730    2.0450   -0.1130 C   0  0  0  0  0  0  0  0  0  0  0  0
    3.6670    0.9560   -0.1520 O   0  0  0  0  0  0  0  0  0  0  0  0
    2.4840    0.9280    0.5570 C   0  0  0  0  0  0  0  0  0  0  0  0
    2.2010    1.9170    1.2690 O   0  0  0  0  0  0  0  0  0  0  0  0
    1.5650   -0.2420    0.4830 C   0  0  0  0  0  0  0  0  0  0  0  0
    1.8550   -1.2740   -0.2570 C   0  0  0  0  0  0  0  0  0  0  0  0
    1.1720   -2.4310   -0.4620 O   0  0  0  0  0  0  0  0  0  0  0  0
    0.3240   -0.1210    1.2390 C   0  0  0  0  0  0  0  0  0  0  0  0
   -0.8400   -0.9220    0.8070 C   0  0  1  0  0  0  0  0  0  0  0  0
   -1.9290   -0.7260    1.7100 O   0  0  0  0  0  0  0  0  0  0  0  0
   -1.4230   -0.3820   -0.5200 C   0  0  2  0  0  0  0  0  0  0  0  0
   -0.5780   -0.3970   -1.5750 O   0  0  0  0  0  0  0  0  0  0  0  0
   -2.1180    0.9460   -0.3100 C   0  0  0  0  0  0  0  0  0  0  0  0
   -3.5510    0.5300   -0.0600 C   0  0  0  0  0  0  0  0  0  0  0  0
   -3.5060   -0.8330    0.2310 O   0  0  0  0  0  0  0  0  0  0  0  0
   -2.6410   -1.2910   -0.7610 C   0  0  0  0  0  0  0  0  0  0  0  0
  1  2  1  0
  2  3  1  0
  3  4  2  0
  3  5  1  0
  5  6  2  3
  5  8  1  0
  6  7  1  0
  8  9  1  0
  9 10  1  1
  9 11  1  0
 11 12  1  6
 11 13  1  0
 11 16  1  0
 13 14  1  0
 14 15  1  0
 15 16  1  0
M  END
