
     RDKit          3D

 29 32  0  0  0  0  0  0  0  0999 V2000
   -3.2810    3.4980    0.1310 C   0  0  0  0  0  0  0  0  0  0  0  0
   -3.3050    2.0310   -0.2160 C   0  0  2  0  0  0  0  0  0  0  0  0
   -4.2320    1.3570    0.6650 N   0  0  0  0  0  0  0  0  0  0  0  0
   -4.5930   -0.0120    0.5340 C   0  0  0  0  0  0  0  0  0  0  0  0
   -4.1310   -0.8010   -0.5070 C   0  0  0  0  0  0  0  0  0  0  0  0
   -4.5070   -2.1430   -0.6230 C   0  0  0  0  0  0  0  0  0  0  0  0
   -5.3560   -2.6740    0.3270 C   0  0  0  0  0  0  0  0  0  0  0  0
   -5.8220   -1.9070    1.3620 C   0  0  0  0  0  0  0  0  0  0  0  0
   -6.9060   -2.5430    2.5930 Cl  0  0  0  0  0  0  0  0  0  0  0  0
   -5.4420   -0.5870    1.4620 C   0  0  0  0  0  0  0  0  0  0  0  0
   -6.0390    0.3970    2.7880 Cl  0  0  0  0  0  0  0  0  0  0  0  0
   -1.9480    1.4300   -0.1480 C   0  0  0  0  0  0  0  0  0  0  0  0
   -1.7710    0.4860    0.6430 O   0  0  0  0  0  0  0  0  0  0  0  0
   -0.9090    1.9210   -0.9560 N   0  0  0  0  0  0  0  0  0  0  0  0
    0.4320    1.4510   -0.9930 C   0  0  0  0  0  0  0  0  0  0  0  0
    1.2370    1.9370   -2.0420 C   0  0  0  0  0  0  0  0  0  0  0  0
    2.5500    1.5630   -2.1750 C   0  0  0  0  0  0  0  0  0  0  0  0
    3.0730    0.6830   -1.2430 C   0  0  0  0  0  0  0  0  0  0  0  0
    4.2730    0.1330   -1.0870 O   0  0  0  0  0  0  0  0  0  0  0  0
    4.2970   -0.6490   -0.0430 C   0  0  0  0  0  0  0  0  0  0  0  0
    5.4150   -1.4370    0.4760 C   0  0  0  0  0  0  0  0  0  0  0  0
    5.2530   -2.2120    1.5990 C   0  0  0  0  0  0  0  0  0  0  0  0
    6.2980   -2.9600    2.1000 C   0  0  0  0  0  0  0  0  0  0  0  0
    7.4720   -2.9070    1.4590 N   0  0  0  0  0  0  0  0  0  0  0  0
    7.6510   -2.1540    0.3570 C   0  0  0  0  0  0  0  0  0  0  0  0
    6.6210   -1.3840   -0.1810 C   0  0  0  0  0  0  0  0  0  0  0  0
    3.0480   -0.6060    0.5080 N   0  0  0  0  0  0  0  0  0  0  0  0
    2.2980    0.2080   -0.2250 C   0  0  0  0  0  0  0  0  0  0  0  0
    0.9580    0.5970   -0.0970 C   0  0  0  0  0  0  0  0  0  0  0  0
  2  1  1  1
  2  3  1  0
  2 12  1  0
  3  4  1  0
  4  5  2  0
  4 10  1  0
  5  6  1  0
  6  7  2  0
  7  8  1  0
  8  9  1  0
  8 10  2  0
 10 11  1  0
 12 13  2  0
 12 14  1  0
 14 15  1  0
 15 16  2  0
 15 29  1  0
 16 17  1  0
 17 18  2  0
 18 19  1  0
 18 28  1  0
 19 20  1  0
 20 21  1  0
 20 27  2  0
 21 22  2  0
 21 26  1  0
 22 23  1  0
 23 24  2  0
 24 25  1  0
 25 26  2  0
 27 28  1  0
 28 29  2  0
M  END
