
     RDKit          3D

 29 31  0  0  0  0  0  0  0  0999 V2000
   -1.9520   -0.7940   -2.1420 C   0  0  0  0  0  0  0  0  0  0  0  0
   -2.1500   -1.7530   -1.0110 C   0  0  0  0  0  0  0  0  0  0  0  0
   -1.4290   -1.3300    0.2650 C   0  0  0  0  0  0  0  0  0  0  0  0
   -0.2700   -2.1630    0.3990 C   0  0  0  0  0  0  0  0  0  0  0  0
    0.6150   -2.1170    1.4700 C   0  0  0  0  0  0  0  0  0  0  0  0
    0.2510   -1.1760    2.4090 C   0  0  0  0  0  0  0  0  0  0  0  0
   -0.9130   -0.3160    2.3120 C   0  0  0  0  0  0  0  0  0  0  0  0
   -0.9840    0.4130    3.6270 C   0  0  0  0  0  0  0  0  0  0  0  0
   -1.8760    0.6210    4.4120 O   0  0  0  0  0  0  0  0  0  0  0  0
   -1.7510   -0.3900    1.2300 C   0  0  0  0  0  0  0  0  0  0  0  0
   -2.7930    0.6090    1.1170 N   0  0  0  0  0  0  0  0  0  0  0  0
   -2.9680    1.7360    0.5960 C   0  0  0  0  0  0  0  0  0  0  0  0
   -4.3230    2.4300    0.7630 C   0  0  0  0  0  0  0  0  0  0  0  0
   -1.9780    2.4550   -0.1730 C   0  0  0  0  0  0  0  0  0  0  0  0
   -2.5130    2.8470   -1.5780 C   0  0  0  0  0  0  0  0  0  0  0  0
   -0.7340    2.8540    0.1190 C   0  0  0  0  0  0  0  0  0  0  0  0
    0.1090    2.7400    1.2790 C   0  0  0  0  0  0  0  0  0  0  0  0
    1.1870    2.0150    1.5370 C   0  0  0  0  0  0  0  0  0  0  0  0
    2.0150    1.0390    0.8370 C   0  0  0  0  0  0  0  0  0  0  0  0
    1.8360    0.2570   -0.2060 C   0  0  0  0  0  0  0  0  0  0  0  0
    2.6740   -0.7470   -0.9340 C   0  0  0  0  0  0  0  0  0  0  0  0
    2.9230   -0.3910   -2.2830 C   0  0  0  0  0  0  0  0  0  0  0  0
    3.7060   -1.1210   -3.1400 C   0  0  0  0  0  0  0  0  0  0  0  0
    4.2670   -2.2550   -2.6350 C   0  0  0  0  0  0  0  0  0  0  0  0
    4.0440   -2.6240   -1.3450 C   0  0  0  0  0  0  0  0  0  0  0  0
    3.2490   -1.9180   -0.4220 C   0  0  0  0  0  0  0  0  0  0  0  0
    3.0940   -2.4590    0.8800 N   0  0  0  0  0  0  0  0  0  0  0  0
    1.8780   -2.9380    1.5470 C   0  0  0  0  0  0  0  0  0  0  0  0
    2.0420   -4.0930    2.1720 O   0  0  0  0  0  0  0  0  0  0  0  0
  1  2  1  0
  2  3  1  0
  3  4  2  0
  3 10  1  0
  4  5  1  0
  5  6  2  0
  5 28  1  0
  6  7  1  0
  7  8  1  0
  7 10  2  0
  8  9  2  0
 10 11  1  0
 11 12  2  0
 12 13  1  0
 12 14  1  0
 14 15  1  0
 14 16  2  0
 16 17  1  0
 17 18  2  0
 18 19  1  0
 19 20  2  0
 20 21  1  0
 21 22  2  0
 21 26  1  0
 22 23  1  0
 23 24  2  0
 24 25  1  0
 25 26  2  0
 26 27  1  0
 27 28  1  0
 28 29  2  0
M  END
