
     RDKit          3D

 28 32  0  0  0  0  0  0  0  0999 V2000
   -3.2350    0.5190    1.5360 O   0  0  0  0  0  0  0  0  0  0  0  0
   -3.4860    0.3380    0.3130 C   0  0  0  0  0  0  0  0  0  0  0  0
   -4.6310   -0.4850   -0.0230 C   0  0  0  0  0  0  0  0  0  0  0  0
   -5.4060   -1.0400    0.8950 C   0  0  0  0  0  0  0  0  0  0  0  0
   -6.5870   -1.8870    0.5970 C   0  0  0  0  0  0  0  0  0  0  0  0
   -7.5410   -1.4510    1.7170 C   0  0  0  0  0  0  0  0  0  0  0  0
   -6.5570   -1.3270    2.8740 C   0  0  0  0  0  0  0  0  0  0  0  0
   -5.3100   -0.9690    2.2740 O   0  0  0  0  0  0  0  0  0  0  0  0
   -2.6460    0.9390   -0.7400 C   0  0  0  0  0  0  0  0  0  0  0  0
   -1.6070    1.6850   -0.4570 C   0  0  0  0  0  0  0  0  0  0  0  0
   -0.6990    2.3350   -1.4280 C   0  0  1  0  0  0  0  0  0  0  0  0
    0.4930    1.6030   -1.7220 N   0  0  0  0  0  0  0  0  0  0  0  0
    1.5310    1.2910   -0.7940 C   0  0  0  0  0  0  0  0  0  0  0  0
    1.5960    1.7960    0.4860 C   0  0  0  0  0  0  0  0  0  0  0  0
    2.6350    1.4440    1.3550 C   0  0  0  0  0  0  0  0  0  0  0  0
    3.6330    0.5790    0.9640 C   0  0  0  0  0  0  0  0  0  0  0  0
    4.6570    0.2370    1.8310 C   0  0  0  0  0  0  0  0  0  0  0  0
    5.6530   -0.6320    1.4270 C   0  0  0  0  0  0  0  0  0  0  0  0
    5.6180   -1.1540    0.1540 C   0  0  0  0  0  0  0  0  0  0  0  0
    4.5800   -0.7910   -0.6890 C   0  0  0  0  0  0  0  0  0  0  0  0
    3.5720    0.0720   -0.3170 C   0  0  0  0  0  0  0  0  0  0  0  0
    2.5430    0.4250   -1.1660 C   0  0  0  0  0  0  0  0  0  0  0  0
    6.7800   -2.0580   -0.0620 C   0  0  0  0  0  0  0  0  0  0  0  0
    7.7000   -1.7730    1.1030 C   0  0  0  0  0  0  0  0  0  0  0  0
    6.8300   -1.1370    2.1640 C   0  0  0  0  0  0  0  0  0  0  0  0
   -1.4890    2.5290   -2.7040 C   0  0  0  0  0  0  0  0  0  0  0  0
   -2.0210    1.1790   -3.1230 C   0  0  0  0  0  0  0  0  0  0  0  0
   -3.0350    0.6610   -2.1410 C   0  0  0  0  0  0  0  0  0  0  0  0
  1  2  2  0
  2  3  1  0
  2  9  1  0
  3  4  2  3
  4  5  1  0
  4  8  1  0
  5  6  1  0
  6  7  1  0
  7  8  1  0
  9 10  2  0
  9 28  1  0
 10 11  1  0
 11 12  1  6
 11 26  1  0
 12 13  1  0
 13 14  2  0
 13 22  1  0
 14 15  1  0
 15 16  2  0
 16 17  1  0
 16 21  1  0
 17 18  2  0
 18 19  1  0
 18 25  1  0
 19 20  2  0
 19 23  1  0
 20 21  1  0
 21 22  2  0
 23 24  1  0
 24 25  1  0
 26 27  1  0
 27 28  1  0
M  END
