
     RDKit          3D

 30 32  0  0  0  0  0  0  0  0999 V2000
   -4.1910   -0.7880   -5.2960 C   0  0  0  0  0  0  0  0  0  0  0  0
   -4.8090   -0.6100   -4.1580 C   0  0  0  0  0  0  0  0  0  0  0  0
   -4.1480   -0.8930   -2.8590 C   0  0  0  0  0  0  0  0  0  0  0  0
   -4.8250   -0.6980   -1.7750 C   0  0  0  0  0  0  0  0  0  0  0  0
   -4.3540   -0.9190   -0.3650 C   0  0  0  0  0  0  0  0  0  0  0  0
   -3.1760   -0.0430   -0.0050 C   0  0  0  0  0  0  0  0  0  0  0  0
   -3.2890    1.3140   -0.6150 C   0  0  0  0  0  0  0  0  0  0  0  0
   -2.1000    2.1850   -0.5230 C   0  0  0  0  0  0  0  0  0  0  0  0
   -2.2920    3.5580   -0.4590 N   0  0  0  0  0  0  0  0  0  0  0  0
   -1.1400    4.1740   -0.3310 N   0  0  0  0  0  0  0  0  0  0  0  0
   -0.2040    3.2300   -0.3110 C   0  0  0  0  0  0  0  0  0  0  0  0
   -0.7880    1.9330   -0.4360 C   0  0  0  0  0  0  0  0  0  0  0  0
    0.0340    0.6960   -0.4590 C   0  0  0  0  0  0  0  0  0  0  0  0
    0.8100    0.4880    0.7090 C   0  0  0  0  0  0  0  0  0  0  0  0
    1.6810   -0.5480    0.9020 C   0  0  0  0  0  0  0  0  0  0  0  0
    2.4410   -0.6680    2.1070 N   0  0  0  0  0  0  0  0  0  0  0  0
    1.7150   -0.9900    3.3200 C   0  0  0  0  0  0  0  0  0  0  0  0
    0.2210   -1.1260    3.0700 C   0  0  0  0  0  0  0  0  0  0  0  0
    3.8510   -0.5050    2.1690 C   0  0  0  0  0  0  0  0  0  0  0  0
    4.3550    0.6890    2.9100 C   0  0  0  0  0  0  0  0  0  0  0  0
    5.8880    0.6370    2.8340 C   0  0  0  0  0  0  0  0  0  0  0  0
    6.5170    1.7950    3.5390 C   0  0  0  0  0  0  0  0  0  0  0  0
    1.8040   -1.4490   -0.1240 C   0  0  0  0  0  0  0  0  0  0  0  0
    1.0710   -1.2810   -1.2710 C   0  0  0  0  0  0  0  0  0  0  0  0
    1.3340   -2.2930   -2.3500 C   0  0  0  0  0  0  0  0  0  0  0  0
    0.1680   -0.2140   -1.4770 C   0  0  0  0  0  0  0  0  0  0  0  0
   -0.4520   -0.2420   -2.7600 N   0  0  0  0  0  0  0  0  0  0  0  0
   -1.7920   -0.2570   -3.1650 C   0  0  0  0  0  0  0  0  0  0  0  0
   -2.2690    0.7400   -3.7720 O   0  0  0  0  0  0  0  0  0  0  0  0
   -2.7590   -1.3870   -2.9440 C   0  0  0  0  0  0  0  0  0  0  0  0
  1  2  2  0
  2  3  1  0
  3  4  2  0
  3 30  1  0
  4  5  1  0
  5  6  1  0
  6  7  1  0
  7  8  1  0
  8  9  1  0
  8 12  2  0
  9 10  1  0
 10 11  2  0
 11 12  1  0
 12 13  1  0
 13 14  2  0
 13 26  1  0
 14 15  1  0
 15 16  1  0
 15 23  2  0
 16 17  1  0
 16 19  1  0
 17 18  1  0
 19 20  1  0
 20 21  1  0
 21 22  1  0
 23 24  1  0
 24 25  1  0
 24 26  2  0
 26 27  1  0
 27 28  1  0
 28 29  2  0
 28 30  1  0
M  END
