
     RDKit          3D

 28 31  0  0  0  0  0  0  0  0999 V2000
    1.6250   -1.0440    0.3680 C   0  0  0  0  0  0  0  0  0  0  0  0
    2.1770    0.0020   -0.5050 C   0  0  0  0  0  0  0  0  0  0  0  0
    3.5050    0.0930   -0.5490 C   0  0  0  0  0  0  0  0  0  0  0  0
    4.4160   -0.7250    0.1640 C   0  0  0  0  0  0  0  0  0  0  0  0
    5.7470   -0.5090    0.0160 C   0  0  0  0  0  0  0  0  0  0  0  0
    6.7120   -1.3260    0.7300 C   0  0  0  0  0  0  0  0  0  0  0  0
    6.4570   -2.3590    1.5950 C   0  0  0  0  0  0  0  0  0  0  0  0
    7.6740   -2.8210    2.0160 C   0  0  0  0  0  0  0  0  0  0  0  0
    8.6410   -2.1110    1.4420 N   0  0  0  0  0  0  0  0  0  0  0  0
    8.0640   -1.2020    0.6600 C   0  0  0  0  0  0  0  0  0  0  0  0
    1.4410    0.9450   -1.3140 C   0  0  0  0  0  0  0  0  0  0  0  0
    0.1570    1.0890   -1.4740 C   0  0  0  0  0  0  0  0  0  0  0  0
   -0.9180    0.3330   -0.8800 C   0  0  0  0  0  0  0  0  0  0  0  0
   -2.2120    0.6140   -1.1440 C   0  0  0  0  0  0  0  0  0  0  0  0
   -2.6620    1.6590   -2.0150 C   0  0  0  0  0  0  0  0  0  0  0  0
   -1.7240    2.4010   -2.6030 C   0  0  0  0  0  0  0  0  0  0  0  0
   -0.3240    2.1820   -2.3870 C   0  0  0  0  0  0  0  0  0  0  0  0
    0.5430    2.8920   -2.9500 O   0  0  0  0  0  0  0  0  0  0  0  0
   -4.1050    1.9290   -2.2710 C   0  0  0  0  0  0  0  0  0  0  0  0
   -5.0520    0.9190   -1.7800 C   0  0  0  0  0  0  0  0  0  0  0  0
   -4.5120   -0.3490   -1.2720 C   0  0  0  0  0  0  0  0  0  0  0  0
   -3.2400   -0.2350   -0.4760 C   0  0  2  0  0  0  0  0  0  0  0  0
   -3.4850    0.1300    0.8900 N   0  0  0  0  0  0  0  0  0  0  0  0
   -3.2340   -0.7220    2.0520 C   0  0  0  0  0  0  0  0  0  0  0  0
   -4.5120   -0.4540    2.8580 C   0  0  0  0  0  0  0  0  0  0  0  0
   -4.7830    1.0290    2.6730 C   0  0  0  0  0  0  0  0  0  0  0  0
   -4.0040    1.3390    1.4370 C   0  0  0  0  0  0  0  0  0  0  0  0
   -3.7940    2.4690    0.9010 O   0  0  0  0  0  0  0  0  0  0  0  0
  1  2  1  0
  2  3  2  3
  2 11  1  0
  3  4  1  0
  4  5  2  3
  5  6  1  0
  6  7  1  0
  6 10  2  0
  7  8  2  0
  8  9  1  0
  9 10  1  0
 11 12  2  3
 12 13  1  0
 12 17  1  0
 13 14  2  0
 14 15  1  0
 14 22  1  0
 15 16  2  0
 15 19  1  0
 16 17  1  0
 17 18  2  0
 19 20  1  0
 20 21  1  0
 21 22  1  0
 22 23  1  1
 23 24  1  0
 23 27  1  0
 24 25  1  0
 25 26  1  0
 26 27  1  0
 27 28  2  0
M  END
