
     RDKit          3D

 30 32  0  0  0  0  0  0  0  0999 V2000
    3.9940    1.0340    2.1650 C   0  0  0  0  0  0  0  0  0  0  0  0
    4.1790    2.2660    1.7340 C   0  0  0  0  0  0  0  0  0  0  0  0
    4.5290    2.5370    0.3600 C   0  0  0  0  0  0  0  0  0  0  0  0
    4.6870    1.4330   -0.5920 C   0  0  0  0  0  0  0  0  0  0  0  0
    3.4230    0.6620   -0.7190 N   0  0  0  0  0  0  0  0  0  0  0  0
    3.4420   -0.4460   -1.5830 C   0  0  0  0  0  0  0  0  0  0  0  0
    4.6330   -0.7540   -2.2220 C   0  0  0  0  0  0  0  0  0  0  0  0
    4.7560   -1.8230   -3.0690 C   0  0  0  0  0  0  0  0  0  0  0  0
    3.6490   -2.5960   -3.2730 C   0  0  0  0  0  0  0  0  0  0  0  0
    2.4420   -2.2860   -2.6270 C   0  0  0  0  0  0  0  0  0  0  0  0
    2.3160   -1.2150   -1.7780 C   0  0  0  0  0  0  0  0  0  0  0  0
    1.1290   -0.8580   -1.1270 N   0  0  0  0  0  0  0  0  0  0  0  0
   -0.1180   -1.5400   -1.1580 C   0  0  0  0  0  0  0  0  0  0  0  0
   -0.2330   -2.5740   -1.8070 O   0  0  0  0  0  0  0  0  0  0  0  0
   -1.2670   -1.0720   -0.4590 N   0  0  0  0  0  0  0  0  0  0  0  0
   -2.5420   -1.7890   -0.5050 C   0  0  2  0  0  0  0  0  0  0  0  0
   -3.5280   -0.8740   -1.2320 C   0  0  0  0  0  0  0  0  0  0  0  0
   -4.7950   -1.6310   -1.6120 C   0  0  0  0  0  0  0  0  0  0  0  0
   -5.2040   -2.3930   -0.3610 C   0  0  0  0  0  0  0  0  0  0  0  0
   -4.5360   -1.8790    0.8130 N   0  0  0  0  0  0  0  0  0  0  0  0
   -5.2110   -1.2240    1.8630 C   0  0  0  0  0  0  0  0  0  0  0  0
   -6.4800   -0.7350    1.6950 C   0  0  0  0  0  0  0  0  0  0  0  0
   -7.1850   -0.0920    2.7210 C   0  0  0  0  0  0  0  0  0  0  0  0
   -6.6090    0.0660    3.9490 C   0  0  0  0  0  0  0  0  0  0  0  0
   -5.3430   -0.4140    4.1430 C   0  0  0  0  0  0  0  0  0  0  0  0
   -4.6490   -1.0530    3.1130 C   0  0  0  0  0  0  0  0  0  0  0  0
   -3.0710   -2.0640    0.8680 C   0  0  0  0  0  0  0  0  0  0  0  0
    4.7080    3.7740   -0.0420 C   0  0  0  0  0  0  0  0  0  0  0  0
    5.0730    4.0750   -1.4670 C   0  0  0  0  0  0  0  0  0  0  0  0
    4.5420    4.8790    0.9380 C   0  0  0  0  0  0  0  0  0  0  0  0
  1  2  2  0
  2  3  1  0
  3  4  1  0
  3 28  2  3
  4  5  1  0
  5  6  1  0
  6  7  2  0
  6 11  1  0
  7  8  1  0
  8  9  2  0
  9 10  1  0
 10 11  2  0
 11 12  1  0
 12 13  1  0
 13 14  2  0
 13 15  1  0
 16 15  1  1
 16 17  1  0
 16 27  1  0
 17 18  1  0
 18 19  1  0
 19 20  1  0
 20 21  1  0
 20 27  1  0
 21 22  2  0
 21 26  1  0
 22 23  1  0
 23 24  2  0
 24 25  1  0
 25 26  2  0
 28 29  1  0
 28 30  1  0
M  END
