
     RDKit          3D

 31 32  0  0  0  0  0  0  0  0999 V2000
   -0.8070   -1.5320    0.9730 N   0  0  0  0  0  0  0  0  0  0  0  0
   -1.4300   -0.8440    0.0780 C   0  0  0  0  0  0  0  0  0  0  0  0
   -1.0480    0.4650   -0.2950 N   0  0  0  0  0  0  0  0  0  0  0  0
    0.1990    0.6580   -0.9940 C   0  0  0  0  0  0  0  0  0  0  0  0
    1.3690    0.3480   -0.1120 C   0  0  0  0  0  0  0  0  0  0  0  0
    2.2730   -0.4790   -0.4330 N   0  0  0  0  0  0  0  0  0  0  0  0
    3.2680   -0.6210    0.5290 N   0  0  0  0  0  0  0  0  0  0  0  0
    4.4390   -1.5070    0.4280 C   0  0  1  0  0  0  0  0  0  0  0  0
    4.1520   -2.8950   -0.0260 C   0  0  0  0  0  0  0  0  0  0  0  0
    5.2950   -2.7480   -0.8810 O   0  0  0  0  0  0  0  0  0  0  0  0
    5.1520   -1.3710   -0.8700 C   0  0  0  0  0  0  0  0  0  0  0  0
    5.5150   -0.4790   -1.6730 O   0  0  0  0  0  0  0  0  0  0  0  0
    2.9290    0.2400    1.5950 C   0  0  0  0  0  0  0  0  0  0  0  0
    3.5650    0.3880    2.6430 O   0  0  0  0  0  0  0  0  0  0  0  0
    1.6810    0.9140    1.2110 C   0  0  1  0  0  0  0  0  0  0  0  0
    2.0260    2.2840    1.0930 O   0  0  0  0  0  0  0  0  0  0  0  0
    1.2390    2.9150    1.9350 O   0  0  0  0  0  0  0  0  0  0  0  0
    1.5570    4.6160    1.9800 P   0  0  0  0  0  0  0  0  0  0  0  0
    2.9380    5.1860    1.5430 O   0  0  0  0  0  0  0  0  0  0  0  0
   -1.9580    1.5350    0.0560 C   0  0  0  0  0  0  0  0  0  0  0  0
   -1.3660    3.1880   -0.5180 P   0  0  0  0  0  0  0  0  0  0  0  0
   -1.7980    3.5020   -2.1640 O   0  0  0  0  0  0  0  0  0  0  0  0
   -2.1540    4.3920    0.4570 O   0  0  0  0  0  0  0  0  0  0  0  0
   -2.5690   -1.4800   -0.5490 N   0  0  0  0  0  0  0  0  0  0  0  0
   -3.6810   -1.9010    0.2180 C   0  0  0  0  0  0  0  0  0  0  0  0
   -4.6460   -2.4500   -0.3600 O   0  0  0  0  0  0  0  0  0  0  0  0
   -3.7690   -1.7420    1.5960 O   0  0  0  0  0  0  0  0  0  0  0  0
   -4.7990   -2.1260    2.3220 O   0  0  0  0  0  0  0  0  0  0  0  0
   -2.6000   -1.7550   -2.3200 P   0  0  0  0  0  0  0  0  0  0  0  0
   -3.6880   -0.6300   -3.1060 O   0  0  0  0  0  0  0  0  0  0  0  0
   -3.1850   -3.3450   -2.6980 O   0  0  0  0  0  0  0  0  0  0  0  0
  1  2  2  0
  2  3  1  0
  2 24  1  0
  3  4  1  0
  3 20  1  0
  4  5  1  0
  5  6  2  0
  5 15  1  0
  6  7  1  0
  8  7  1  6
  7 13  1  0
  8  9  1  0
  8 11  1  0
  9 10  1  0
 10 11  1  0
 11 12  2  0
 13 14  2  0
 13 15  1  0
 15 16  1  6
 16 17  1  0
 17 18  1  0
 18 19  2  0
 20 21  1  0
 21 22  1  0
 21 23  1  0
 24 25  1  0
 24 29  1  0
 25 26  2  0
 25 27  1  0
 27 28  1  0
 29 30  1  0
 29 31  1  0
M  END
