
     RDKit          3D

 30 31  0  0  0  0  0  0  0  0999 V2000
    4.8360    0.2090   -0.3860 N   0  0  0  0  0  0  0  0  0  0  0  0
    4.3670    0.9350    0.5560 C   0  0  0  0  0  0  0  0  0  0  0  0
    2.9910    0.7680    0.8770 N   0  0  0  0  0  0  0  0  0  0  0  0
    2.1270    0.0400    0.1000 O   0  0  0  0  0  0  0  0  0  0  0  0
    2.2700   -1.3000   -0.1620 C   0  0  0  0  0  0  0  0  0  0  0  0
    3.2900   -1.8490    0.3780 O   0  0  0  0  0  0  0  0  0  0  0  0
    1.3700   -2.1350   -0.9920 C   0  0  1  0  0  0  0  0  0  0  0  0
    1.9790   -3.5480   -1.0790 C   0  0  0  0  0  0  0  0  0  0  0  0
    1.1810   -4.3460   -1.8530 O   0  0  0  0  0  0  0  0  0  0  0  0
   -0.1400   -4.3860   -1.4000 C   0  0  0  0  0  0  0  0  0  0  0  0
   -0.7150   -3.1460   -1.3530 O   0  0  0  0  0  0  0  0  0  0  0  0
   -0.0100   -2.2900   -0.4710 C   0  0  2  0  0  0  0  0  0  0  0  0
   -0.7930   -1.0520   -0.3280 C   0  0  0  0  0  0  0  0  0  0  0  0
   -0.4180    0.2210   -0.3880 N   0  0  0  0  0  0  0  0  0  0  0  0
   -1.4330    1.0100   -0.2070 O   0  0  0  0  0  0  0  0  0  0  0  0
   -2.5050    0.2540   -0.0230 C   0  0  0  0  0  0  0  0  0  0  0  0
   -3.8960    0.7580    0.2230 C   0  0  1  0  0  0  0  0  0  0  0  0
   -3.9130    1.6000    1.4810 C   0  0  0  0  0  0  0  0  0  0  0  0
   -3.5010    0.8250    2.5640 O   0  0  0  0  0  0  0  0  0  0  0  0
   -3.5290    1.5910    3.6340 O   0  0  0  0  0  0  0  0  0  0  0  0
   -4.4480    1.6970   -1.2570 P   0  0  0  0  0  0  0  0  0  0  0  0
   -3.5230    3.1240   -1.5210 O   0  0  0  0  0  0  0  0  0  0  0  0
   -6.6020    2.0850   -1.2050 P   0  0  0  0  0  0  0  0  0  0  0  0
   -6.9750    3.6230   -0.5160 O   0  0  0  0  0  0  0  0  0  0  0  0
   -7.3610    0.8710   -0.2100 O   0  0  0  0  0  0  0  0  0  0  0  0
   -2.1140   -1.0250   -0.0970 N   0  0  0  0  0  0  0  0  0  0  0  0
    5.2080    1.8480    1.2220 N   0  0  0  0  0  0  0  0  0  0  0  0
    6.9340    2.0800    0.7790 P   0  0  0  0  0  0  0  0  0  0  0  0
    7.8930    0.6980    1.2270 O   0  0  0  0  0  0  0  0  0  0  0  0
    7.0620    2.2700   -0.9380 O   0  0  0  0  0  0  0  0  0  0  0  0
  1  2  2  0
  2  3  1  0
  2 27  1  0
  3  4  1  0
  4  5  1  0
  5  6  2  0
  7  5  1  1
  7  8  1  0
  7 12  1  0
  8  9  1  0
  9 10  1  0
 10 11  1  0
 11 12  1  0
 12 13  1  6
 13 14  2  0
 13 26  1  0
 14 15  1  0
 15 16  1  0
 16 17  1  0
 16 26  2  0
 17 18  1  1
 17 21  1  0
 18 19  1  0
 19 20  1  0
 21 22  1  0
 21 23  1  0
 23 24  1  0
 23 25  1  0
 27 28  1  0
 28 29  1  0
 28 30  1  0
M  END
