
     RDKit          3D

 30 31  0  0  0  0  0  0  0  0999 V2000
    8.4030   -0.5170   -3.9070 O   0  0  0  0  0  0  0  0  0  0  0  0
    7.0150    0.1200   -4.1470 P   0  0  0  0  0  0  0  0  0  0  0  0
    6.0850    0.7690   -2.7540 N   0  0  0  0  0  0  0  0  0  0  0  0
    4.9770    0.0890   -2.1940 C   0  0  0  0  0  0  0  0  0  0  0  0
    4.6530   -1.0100   -2.7120 O   0  0  0  0  0  0  0  0  0  0  0  0
    4.2320    0.6470   -1.0490 C   0  0  1  0  0  0  0  0  0  0  0  0
    3.1980   -0.2270   -0.7070 O   0  0  0  0  0  0  0  0  0  0  0  0
    1.8890    0.1870   -0.6800 N   0  0  0  0  0  0  0  0  0  0  0  0
    1.1080   -0.2240    0.2650 C   0  0  0  0  0  0  0  0  0  0  0  0
    1.5680   -1.0510    1.2130 N   0  0  0  0  0  0  0  0  0  0  0  0
    0.7470   -1.4710    2.1880 C   0  0  0  0  0  0  0  0  0  0  0  0
    1.1740   -2.2550    3.0920 O   0  0  0  0  0  0  0  0  0  0  0  0
   -0.5240   -1.1010    2.2600 N   0  0  0  0  0  0  0  0  0  0  0  0
   -1.0230   -0.2690    1.3210 C   0  0  0  0  0  0  0  0  0  0  0  0
   -0.2050    0.1820    0.3040 C   0  0  0  0  0  0  0  0  0  0  0  0
   -1.0260    0.9980   -0.4620 O   0  0  0  0  0  0  0  0  0  0  0  0
   -2.1020    1.3340    0.2780 O   0  0  0  0  0  0  0  0  0  0  0  0
   -2.3280    0.2980    1.1290 N   0  0  0  0  0  0  0  0  0  0  0  0
   -3.5510   -0.1330    1.7120 C   0  0  0  0  0  0  0  0  0  0  0  0
   -3.4510   -1.1210    2.5110 O   0  0  0  0  0  0  0  0  0  0  0  0
   -4.8730    0.4390    1.4830 C   0  0  1  0  0  0  0  0  0  0  0  0
   -5.4560    0.1920    0.1150 C   0  0  0  0  0  0  0  0  0  0  0  0
   -4.5140    0.8340   -1.2940 P   0  0  0  0  0  0  0  0  0  0  0  0
   -5.0270    2.3570   -1.8800 O   0  0  0  0  0  0  0  0  0  0  0  0
   -4.3300   -0.3450   -2.5510 O   0  0  0  0  0  0  0  0  0  0  0  0
   -6.0720   -0.3810    2.6790 P   0  0  0  0  0  0  0  0  0  0  0  0
   -5.8280   -1.8860    2.9670 O   0  0  0  0  0  0  0  0  0  0  0  0
    5.1940    0.8450    0.0680 C   0  0  0  0  0  0  0  0  0  0  0  0
    6.1860    1.5840   -0.0280 O   0  0  0  0  0  0  0  0  0  0  0  0
    4.9550    0.1680    1.2560 O   0  0  0  0  0  0  0  0  0  0  0  0
  1  2  2  0
  2  3  1  0
  3  4  1  0
  4  5  2  0
  4  6  1  0
  6  7  1  1
  6 28  1  0
  7  8  1  0
  8  9  2  3
  9 10  1  0
  9 15  1  0
 10 11  1  0
 11 12  2  0
 11 13  1  0
 13 14  1  0
 14 15  2  0
 14 18  1  0
 15 16  1  0
 16 17  1  0
 17 18  1  0
 18 19  1  0
 19 20  2  0
 19 21  1  0
 21 22  1  6
 21 26  1  0
 22 23  1  0
 23 24  1  0
 23 25  1  0
 26 27  2  0
 28 29  2  0
 28 30  1  0
M  END
