
     RDKit          3D

 30 31  0  0  0  0  0  0  0  0999 V2000
   -2.9620   -1.4980   -3.1690 O   0  0  0  0  0  0  0  0  0  0  0  0
   -3.2410   -2.6660   -2.2250 P   0  0  0  0  0  0  0  0  0  0  0  0
   -3.2350   -2.5480   -0.4970 O   0  0  0  0  0  0  0  0  0  0  0  0
   -2.8380   -1.2780   -0.0880 C   0  0  1  0  0  0  0  0  0  0  0  0
   -3.7900   -0.3290   -0.6500 N   0  0  0  0  0  0  0  0  0  0  0  0
   -3.6500    1.0770   -0.5020 C   0  0  0  0  0  0  0  0  0  0  0  0
   -2.6940    1.5500    0.1200 O   0  0  0  0  0  0  0  0  0  0  0  0
   -4.6050    1.9850   -1.0670 N   0  0  0  0  0  0  0  0  0  0  0  0
   -4.4620    3.7450   -0.9130 P   0  0  0  0  0  0  0  0  0  0  0  0
   -4.1400    4.2800    0.6970 O   0  0  0  0  0  0  0  0  0  0  0  0
   -5.9020    4.4930   -1.5140 O   0  0  0  0  0  0  0  0  0  0  0  0
   -2.8640   -1.1230    1.3940 C   0  0  0  0  0  0  0  0  0  0  0  0
   -1.8280   -1.6710    2.0970 O   0  0  0  0  0  0  0  0  0  0  0  0
   -0.8760   -2.2250    1.2520 C   0  0  0  0  0  0  0  0  0  0  0  0
   -0.5570   -1.1160    0.2430 C   0  0  1  0  0  0  0  0  0  0  0  0
    0.7250   -1.5080   -0.4220 C   0  0  0  0  0  0  0  0  0  0  0  0
    1.7990   -0.8540   -0.3000 N   0  0  0  0  0  0  0  0  0  0  0  0
    3.0840   -1.1570   -0.8990 C   0  0  1  0  0  0  0  0  0  0  0  0
    3.9640   -1.3830    0.1190 O   0  0  0  0  0  0  0  0  0  0  0  0
    5.0030   -0.5350    0.3050 C   0  0  0  0  0  0  0  0  0  0  0  0
    4.6970    0.8710    0.6750 C   0  0  0  0  0  0  0  0  0  0  0  0
    3.9290    1.5510   -0.2520 O   0  0  0  0  0  0  0  0  0  0  0  0
    3.6250    3.1740    0.2890 P   0  0  0  0  0  0  0  0  0  0  0  0
    2.1140    3.2320    1.1570 O   0  0  0  0  0  0  0  0  0  0  0  0
    4.9140    3.7640    1.2930 O   0  0  0  0  0  0  0  0  0  0  0  0
    2.9880   -2.3250   -1.8240 C   0  0  0  0  0  0  0  0  0  0  0  0
    3.9930   -2.6490   -2.5030 O   0  0  0  0  0  0  0  0  0  0  0  0
    1.8050   -3.0870   -1.9710 N   0  0  0  0  0  0  0  0  0  0  0  0
    0.6750   -2.6560   -1.2570 N   0  0  0  0  0  0  0  0  0  0  0  0
   -1.6020   -0.9960   -0.6700 O   0  0  0  0  0  0  0  0  0  0  0  0
  1  2  2  0
  2  3  1  0
  3  4  1  0
  4  5  1  6
  4 12  1  0
  4 30  1  0
  5  6  1  0
  6  7  2  0
  6  8  1  0
  8  9  1  0
  9 10  1  0
  9 11  1  0
 12 13  1  0
 13 14  1  0
 14 15  1  0
 15 16  1  6
 15 30  1  0
 16 17  2  0
 16 29  1  0
 17 18  1  0
 18 19  1  1
 18 26  1  0
 19 20  1  0
 20 21  1  0
 21 22  1  0
 22 23  1  0
 23 24  1  0
 23 25  1  0
 26 27  2  0
 26 28  1  0
 28 29  1  0
M  END
