
     RDKit          3D

 31 33  0  0  0  0  0  0  0  0999 V2000
   -1.3490   -3.9530    0.5330 O   0  0  0  0  0  0  0  0  0  0  0  0
   -1.8660   -2.8520    0.2660 C   0  0  0  0  0  0  0  0  0  0  0  0
   -1.1500   -1.8340   -0.3930 O   0  0  0  0  0  0  0  0  0  0  0  0
   -1.6650   -0.5380   -0.2680 C   0  0  1  0  0  0  0  0  0  0  0  0
   -1.5020    0.0310    1.0740 C   0  0  0  0  0  0  0  0  0  0  0  0
   -0.9270   -0.6840    1.9590 O   0  0  0  0  0  0  0  0  0  0  0  0
   -1.9240    1.2820    1.4570 O   0  0  0  0  0  0  0  0  0  0  0  0
   -1.0900    0.4180   -1.2350 C   0  0  0  0  0  0  0  0  0  0  0  0
    0.1010    0.3740   -1.7150 N   0  0  0  0  0  0  0  0  0  0  0  0
    0.9940   -0.5960   -1.3690 O   0  0  0  0  0  0  0  0  0  0  0  0
    2.6230   -0.2020   -0.8000 P   0  0  0  0  0  0  0  0  0  0  0  0
    2.7990    1.5260   -0.8610 O   0  0  0  0  0  0  0  0  0  0  0  0
    2.7120   -0.6770    0.8540 O   0  0  0  0  0  0  0  0  0  0  0  0
    4.2790   -1.3540    1.2290 P   0  0  0  0  0  0  0  0  0  0  0  0
    4.3950   -2.9810    0.5800 O   0  0  0  0  0  0  0  0  0  0  0  0
    5.5580   -0.3750    0.4850 N   0  0  0  0  0  0  0  0  0  0  0  0
    6.1530    0.8540    0.9870 C   0  0  0  0  0  0  0  0  0  0  0  0
    6.4960    1.5540   -0.3120 C   0  0  0  0  0  0  0  0  0  0  0  0
    6.8770    0.5170   -1.1740 O   0  0  0  0  0  0  0  0  0  0  0  0
    6.2180   -0.6410   -0.7450 C   0  0  0  0  0  0  0  0  0  0  0  0
    6.1990   -1.7440   -1.3320 O   0  0  0  0  0  0  0  0  0  0  0  0
   -2.1250    1.3570   -1.4970 N   0  0  0  0  0  0  0  0  0  0  0  0
   -3.2770    0.8360   -1.1710 C   0  0  0  0  0  0  0  0  0  0  0  0
   -4.5590    1.4570   -1.2820 N   0  0  0  0  0  0  0  0  0  0  0  0
   -4.6260    3.2650   -1.4480 P   0  0  0  0  0  0  0  0  0  0  0  0
   -6.1840    3.7930   -1.9270 O   0  0  0  0  0  0  0  0  0  0  0  0
   -4.2530    3.9290    0.1120 O   0  0  0  0  0  0  0  0  0  0  0  0
   -3.0810   -0.4910   -0.6720 N   0  0  0  0  0  0  0  0  0  0  0  0
   -3.8830   -1.6600   -0.5020 C   0  0  0  0  0  0  0  0  0  0  0  0
   -3.2820   -2.4980    0.6120 C   0  0  1  0  0  0  0  0  0  0  0  0
   -3.9940   -3.6800    0.8020 O   0  0  0  0  0  0  0  0  0  0  0  0
  1  2  2  0
  2  3  1  0
  2 30  1  0
  3  4  1  0
  4  5  1  1
  4  8  1  0
  4 28  1  0
  5  6  2  0
  5  7  1  0
  8  9  2  3
  8 22  1  0
  9 10  1  0
 10 11  1  0
 11 12  1  0
 11 13  1  0
 13 14  1  0
 14 15  1  0
 14 16  1  0
 16 17  1  0
 16 20  1  0
 17 18  1  0
 18 19  1  0
 19 20  1  0
 20 21  2  0
 22 23  2  0
 23 24  1  0
 23 28  1  0
 24 25  1  0
 25 26  1  0
 25 27  1  0
 28 29  1  0
 29 30  1  0
 30 31  1  6
M  END
