
     RDKit          3D

 30 31  0  0  0  0  0  0  0  0999 V2000
    1.9860   -1.6790   -4.6900 O   0  0  0  0  0  0  0  0  0  0  0  0
    1.3530   -2.4360   -3.4740 P   0  0  0  0  0  0  0  0  0  0  0  0
    1.5790   -1.8260   -1.7850 N   0  0  0  0  0  0  0  0  0  0  0  0
    1.5440   -0.4320   -1.5020 C   0  0  0  0  0  0  0  0  0  0  0  0
    1.3500    0.3300   -2.4860 O   0  0  0  0  0  0  0  0  0  0  0  0
    1.7290    0.0960   -0.1080 C   0  0  1  0  0  0  0  0  0  0  0  0
    3.0610   -0.3520    0.4610 C   0  0  0  0  0  0  0  0  0  0  0  0
    3.1510    0.1940    1.7430 O   0  0  0  0  0  0  0  0  0  0  0  0
    4.6390   -0.2360    2.5270 P   0  0  0  0  0  0  0  0  0  0  0  0
    4.7880   -1.9440    2.7030 O   0  0  0  0  0  0  0  0  0  0  0  0
    5.9540    0.4540    1.6330 O   0  0  0  0  0  0  0  0  0  0  0  0
    1.6370    1.5340   -0.1790 N   0  0  0  0  0  0  0  0  0  0  0  0
    0.2470    1.8140   -0.1180 C   0  0  0  0  0  0  0  0  0  0  0  0
   -0.3300    2.8450   -0.5470 O   0  0  0  0  0  0  0  0  0  0  0  0
   -0.3410    0.6310    0.5530 C   0  0  1  0  0  0  0  0  0  0  0  0
   -0.9010    1.0950    1.8500 C   0  0  0  0  0  0  0  0  0  0  0  0
   -1.8900    2.0450    1.7650 O   0  0  0  0  0  0  0  0  0  0  0  0
   -3.1440    2.0200    1.2460 C   0  0  0  0  0  0  0  0  0  0  0  0
   -3.6150    1.0060    0.7270 O   0  0  0  0  0  0  0  0  0  0  0  0
   -3.9790    3.1550    1.2730 O   0  0  0  0  0  0  0  0  0  0  0  0
   -5.5980    3.0960    0.5950 P   0  0  0  0  0  0  0  0  0  0  0  0
   -6.1610    4.3680   -0.0710 O   0  0  0  0  0  0  0  0  0  0  0  0
   -1.2720   -0.1080   -0.3300 C   0  0  0  0  0  0  0  0  0  0  0  0
   -1.6390    0.2580   -1.5000 N   0  0  0  0  0  0  0  0  0  0  0  0
   -2.5210   -0.4440   -2.3360 C   0  0  0  0  0  0  0  0  0  0  0  0
   -2.8590   -0.0430   -3.4920 O   0  0  0  0  0  0  0  0  0  0  0  0
   -3.0610   -1.6740   -1.8470 N   0  0  0  0  0  0  0  0  0  0  0  0
   -2.8810   -2.0430   -0.4720 C   0  0  0  0  0  0  0  0  0  0  0  0
   -1.7880   -1.3510    0.1660 N   0  0  0  0  0  0  0  0  0  0  0  0
    0.7270   -0.2630    0.7430 O   0  0  0  0  0  0  0  0  0  0  0  0
  1  2  2  0
  2  3  1  0
  3  4  1  0
  4  5  2  0
  4  6  1  0
  6  7  1  1
  6 12  1  0
  6 30  1  0
  7  8  1  0
  8  9  1  0
  9 10  1  0
  9 11  1  0
 12 13  1  0
 13 14  2  0
 13 15  1  0
 15 16  1  1
 15 23  1  0
 15 30  1  0
 16 17  1  0
 17 18  1  0
 18 19  2  0
 18 20  1  0
 20 21  1  0
 21 22  2  0
 23 24  2  0
 23 29  1  0
 24 25  1  0
 25 26  2  0
 25 27  1  0
 27 28  1  0
 28 29  1  0
M  END
