
     RDKit          3D

 30 32  0  0  0  0  0  0  0  0999 V2000
   -0.7780   -1.3530   -2.2280 C   0  0  0  0  0  0  0  0  0  0  0  0
   -1.0660   -0.3130   -1.1710 C   0  0  1  0  0  0  0  0  0  0  0  0
   -0.5320   -0.6430    0.0860 O   0  0  0  0  0  0  0  0  0  0  0  0
    0.8370   -0.8150    0.1970 C   0  0  0  0  0  0  0  0  0  0  0  0
    1.5350   -0.6680   -0.8310 O   0  0  0  0  0  0  0  0  0  0  0  0
    1.5040   -1.1620    1.4700 C   0  0  0  0  0  0  0  0  0  0  0  0
    2.9260   -1.2630    1.2280 N   0  0  0  0  0  0  0  0  0  0  0  0
    3.6590   -2.4040    0.8510 C   0  0  0  0  0  0  0  0  0  0  0  0
    3.1720   -3.5570    0.6570 O   0  0  0  0  0  0  0  0  0  0  0  0
    5.0170   -2.0170    0.7320 N   0  0  0  0  0  0  0  0  0  0  0  0
    5.1470   -0.6810    1.0230 N   0  0  0  0  0  0  0  0  0  0  0  0
    3.8670   -0.1680    1.3390 C   0  0  0  0  0  0  0  0  0  0  0  0
    3.6580    1.0560    1.6550 N   0  0  0  0  0  0  0  0  0  0  0  0
    4.5780    2.1010    1.7580 C   0  0  0  0  0  0  0  0  0  0  0  0
    4.1890    3.2890    2.0930 O   0  0  0  0  0  0  0  0  0  0  0  0
    5.9380    1.9920    1.5240 O   0  0  0  0  0  0  0  0  0  0  0  0
    6.5730    0.4230    1.0620 P   0  0  0  0  0  0  0  0  0  0  0  0
    7.2950    0.4800   -0.5070 O   0  0  0  0  0  0  0  0  0  0  0  0
   -0.5250    1.0010   -1.6030 C   0  0  0  0  0  0  0  0  0  0  0  0
    0.4830    1.2610   -2.2780 O   0  0  0  0  0  0  0  0  0  0  0  0
   -1.4130    1.9980   -1.0800 N   0  0  0  0  0  0  0  0  0  0  0  0
   -2.7260    1.4190   -0.9340 C   0  0  0  0  0  0  0  0  0  0  0  0
   -2.5590   -0.0730   -1.1110 C   0  0  1  0  0  0  0  0  0  0  0  0
   -3.1410   -0.4510   -2.3150 O   0  0  0  0  0  0  0  0  0  0  0  0
   -3.1550   -0.6930   -0.0220 O   0  0  0  0  0  0  0  0  0  0  0  0
   -4.8480   -0.3350   -0.0810 P   0  0  0  0  0  0  0  0  0  0  0  0
   -5.3680    0.0490   -1.6760 O   0  0  0  0  0  0  0  0  0  0  0  0
   -5.4340    1.1670    1.3930 P   0  0  0  0  0  0  0  0  0  0  0  0
   -4.6590    0.8300    2.8920 O   0  0  0  0  0  0  0  0  0  0  0  0
   -7.1430    1.1310    1.5830 O   0  0  0  0  0  0  0  0  0  0  0  0
  2  1  1  6
  2  3  1  0
  2 19  1  0
  2 23  1  0
  3  4  1  0
  4  5  2  0
  4  6  1  0
  6  7  1  0
  7  8  1  0
  7 12  1  0
  8  9  2  0
  8 10  1  0
 10 11  1  0
 11 12  1  0
 11 17  1  0
 12 13  2  0
 13 14  1  0
 14 15  2  0
 14 16  1  0
 16 17  1  0
 17 18  1  0
 19 20  2  0
 19 21  1  0
 21 22  1  0
 22 23  1  0
 23 24  1  6
 23 25  1  0
 25 26  1  0
 26 27  1  0
 26 28  1  0
 28 29  1  0
 28 30  1  0
M  END
