
     RDKit          3D

 30 31  0  0  0  0  0  0  0  0999 V2000
    3.9030   -1.4000   -1.2090 N   0  0  0  0  0  0  0  0  0  0  0  0
    3.0210   -1.4620   -0.3080 C   0  0  0  0  0  0  0  0  0  0  0  0
    2.9220   -2.5940    0.5160 N   0  0  0  0  0  0  0  0  0  0  0  0
    4.0090   -3.9830    0.2860 P   0  0  0  0  0  0  0  0  0  0  0  0
    5.3780   -3.8060    1.3020 O   0  0  0  0  0  0  0  0  0  0  0  0
    4.3710   -4.3390   -1.3480 O   0  0  0  0  0  0  0  0  0  0  0  0
    2.1180   -0.3800   -0.1120 N   0  0  0  0  0  0  0  0  0  0  0  0
    0.7260   -0.6600   -0.3490 C   0  0  0  0  0  0  0  0  0  0  0  0
   -0.1430    0.4460    0.1020 C   0  0  0  0  0  0  0  0  0  0  0  0
    0.3310    1.4630    0.6260 O   0  0  0  0  0  0  0  0  0  0  0  0
   -1.5690    0.3080   -0.0790 N   0  0  0  0  0  0  0  0  0  0  0  0
   -2.2580   -0.7950   -0.7040 C   0  0  0  0  0  0  0  0  0  0  0  0
   -3.6590   -0.3030   -0.8660 C   0  0  1  0  0  0  0  0  0  0  0  0
   -3.7520    0.3700   -2.0840 O   0  0  0  0  0  0  0  0  0  0  0  0
   -4.6740   -1.4190   -0.9080 C   0  0  0  0  0  0  0  0  0  0  0  0
   -4.6920   -2.2120    0.2830 N   0  0  0  0  0  0  0  0  0  0  0  0
   -3.8660    0.6320    0.2760 C   0  0  2  0  0  0  0  0  0  0  0  0
   -4.9160    1.5040    0.1020 O   0  0  0  0  0  0  0  0  0  0  0  0
   -4.6830    2.8000    0.5380 C   0  0  0  0  0  0  0  0  0  0  0  0
   -3.6710    3.3290   -0.3130 O   0  0  0  0  0  0  0  0  0  0  0  0
   -2.5210    2.5440   -0.4010 C   0  0  0  0  0  0  0  0  0  0  0  0
   -1.5440    2.8830   -1.1270 O   0  0  0  0  0  0  0  0  0  0  0  0
   -2.5120    1.3020    0.4010 C   0  0  2  0  0  0  0  0  0  0  0  0
    2.6460    1.2460    0.3570 P   0  0  0  0  0  0  0  0  0  0  0  0
    3.2890    1.3590    1.9360 O   0  0  0  0  0  0  0  0  0  0  0  0
    4.2210    0.4590    2.1410 O   0  0  0  0  0  0  0  0  0  0  0  0
    3.6130    1.9640   -0.8630 O   0  0  0  0  0  0  0  0  0  0  0  0
    4.5870    3.2680   -0.2860 P   0  0  0  0  0  0  0  0  0  0  0  0
    3.9570    3.9630    1.1590 O   0  0  0  0  0  0  0  0  0  0  0  0
    6.2510    2.8000   -0.1370 O   0  0  0  0  0  0  0  0  0  0  0  0
  1  2  2  0
  2  3  1  0
  2  7  1  0
  3  4  1  0
  4  5  1  0
  4  6  1  0
  7  8  1  0
  7 24  1  0
  8  9  1  0
  9 10  2  0
  9 11  1  0
 11 12  1  0
 23 11  1  6
 12 13  1  0
 13 14  1  6
 13 15  1  0
 13 17  1  0
 15 16  1  0
 17 18  1  6
 17 23  1  0
 18 19  1  0
 19 20  1  0
 20 21  1  0
 21 22  2  0
 21 23  1  0
 24 25  1  0
 24 27  1  0
 25 26  1  0
 27 28  1  0
 28 29  1  0
 28 30  1  0
M  END
