
     RDKit          3D

  8  8  0  0  0  0  0  0  0  0999 V2000
    3.1610   -0.4820    0.1140 O   0  0  0  0  0  0  0  0  0  0  0  0
    2.2750    0.2240   -0.6600 N   0  0  0  0  0  0  0  0  0  0  0  0
    1.0140    0.1090   -0.4310 C   0  0  0  0  0  0  0  0  0  0  0  0
    0.5200   -0.7610    0.6400 C   0  0  0  0  0  0  0  0  0  0  0  0
   -0.8470   -0.5100    1.0150 N   0  0  0  0  0  0  0  0  0  0  0  0
   -1.6870   -0.1940   -0.1220 C   0  0  0  0  0  0  0  0  0  0  0  0
   -1.2180    1.0980   -0.7130 C   0  0  0  0  0  0  0  0  0  0  0  0
    0.1250    0.8640   -1.2620 N   0  0  0  0  0  0  0  0  0  0  0  0
  1  2  1  0
  2  3  2  3
  3  4  1  0
  3  8  1  0
  4  5  1  0
  5  6  1  0
  6  7  1  0
  7  8  1  0
M  CHG  1   5   1
M  END
