
     RDKit          3D

  8  8  0  0  0  0  0  0  0  0999 V2000
    0.3150    1.7630    0.1940 C   0  0  0  0  0  0  0  0  0  0  0  0
   -0.1560    0.4060   -0.2150 C   0  0  2  0  0  0  0  0  0  0  0  0
   -0.9880   -0.2240    0.8230 N   0  0  0  0  0  0  0  0  0  0  0  0
   -1.7040   -1.2760    0.1250 C   0  0  0  0  0  0  0  0  0  0  0  0
   -0.7630   -2.1030   -0.5210 O   0  0  0  0  0  0  0  0  0  0  0  0
    0.5800   -1.7810   -0.6260 N   0  0  0  0  0  0  0  0  0  0  0  0
    0.9390   -0.5540   -0.4830 C   0  0  0  0  0  0  0  0  0  0  0  0
    2.3050   -0.2000   -0.5860 N   0  0  0  0  0  0  0  0  0  0  0  0
  2  1  1  1
  2  3  1  0
  2  7  1  0
  3  4  1  0
  4  5  1  0
  5  6  1  0
  6  7  2  0
  7  8  1  0
M  CHG  1   3   1
M  END
