
     RDKit          3D

  8  8  0  0  0  0  0  0  0  0999 V2000
    2.1220   -0.9220    0.6070 O   0  0  0  0  0  0  0  0  0  0  0  0
    1.3480   -0.3810   -0.4150 C   0  0  1  0  0  0  0  0  0  0  0  0
    0.1750   -1.2760   -0.6630 C   0  0  0  0  0  0  0  0  0  0  0  0
   -1.0800   -1.0200   -0.6050 N   0  0  0  0  0  0  0  0  0  0  0  0
   -1.7280    0.2020   -0.2850 C   0  0  0  0  0  0  0  0  0  0  0  0
   -1.3290    0.7450    0.9800 N   0  0  0  0  0  0  0  0  0  0  0  0
    0.0230    0.7370    1.2180 N   0  0  0  0  0  0  0  0  0  0  0  0
    0.8520    0.9700    0.0830 C   0  0  0  0  0  0  0  0  0  0  0  0
  2  1  1  1
  2  3  1  0
  2  8  1  0
  3  4  2  0
  4  5  1  0
  5  6  1  0
  6  7  1  0
  7  8  1  0
M  CHG  1   4   1
M  END
