
     RDKit          3D

  7  7  0  0  0  0  0  0  0  0999 V2000
   -2.3750   -0.3810    0.6850 O   0  0  0  0  0  0  0  0  0  0  0  0
   -1.7380    0.2680   -0.3840 C   0  0  0  0  0  0  0  0  0  0  0  0
   -0.2630    0.1300   -0.1710 C   0  0  0  0  0  0  0  0  0  0  0  0
    0.5460    0.9840    0.5130 N   0  0  0  0  0  0  0  0  0  0  0  0
    1.8040    0.5100    0.4780 C   0  0  0  0  0  0  0  0  0  0  0  0
    1.7350   -0.6580   -0.2490 C   0  0  0  0  0  0  0  0  0  0  0  0
    0.4700   -0.8980   -0.6510 N   0  0  0  0  0  0  0  0  0  0  0  0
  1  2  1  0
  2  3  1  0
  3  4  1  0
  3  7  2  0
  4  5  1  0
  5  6  2  0
  6  7  1  0
M  CHG  1   7   1
M  END
