
     RDKit          3D

  8  8  0  0  0  0  0  0  0  0999 V2000
    3.9910   -1.0730   -0.0150 O   0  0  0  0  0  0  0  0  0  0  0  0
    2.8590   -0.8930    0.4540 N   0  0  0  0  0  0  0  0  0  0  0  0
    2.0360    0.1270   -0.0150 N   0  0  0  0  0  0  0  0  0  0  0  0
    0.6190    0.0540    0.0300 C   0  0  0  0  0  0  0  0  0  0  0  0
   -0.1070   -1.0500    0.0070 C   0  0  0  0  0  0  0  0  0  0  0  0
   -1.5480   -0.8020    0.0660 C   0  0  0  0  0  0  0  0  0  0  0  0
   -1.6190    0.5830    0.4760 N   0  0  0  0  0  0  0  0  0  0  0  0
   -0.3590    1.1860    0.1120 C   0  0  0  0  0  0  0  0  0  0  0  0
  1  2  2  0
  2  3  1  0
  3  4  1  0
  4  5  2  0
  4  8  1  0
  5  6  1  0
  6  7  1  0
  7  8  1  0
M  CHG  1   7   1
M  END
