
     RDKit          3D

  8  8  0  0  0  0  0  0  0  0999 V2000
    2.0540    0.1180   -0.4250 N   0  0  0  0  0  0  0  0  0  0  0  0
    0.6440    0.0840   -0.1200 C   0  0  0  0  0  0  0  0  0  0  0  0
    0.0750    1.2020    0.1110 N   0  0  0  0  0  0  0  0  0  0  0  0
   -1.3090    1.3200    0.4250 C   0  0  0  0  0  0  0  0  0  0  0  0
   -1.8390    2.4480    0.6480 O   0  0  0  0  0  0  0  0  0  0  0  0
   -2.0420    0.1130    0.4710 N   0  0  0  0  0  0  0  0  0  0  0  0
   -1.5050   -1.0090    0.2460 C   0  0  0  0  0  0  0  0  0  0  0  0
   -0.0870   -1.1780   -0.0800 C   0  0  0  0  0  0  0  0  0  0  0  0
  1  2  1  0
  2  3  2  0
  2  8  1  0
  3  4  1  0
  4  5  2  0
  4  6  1  0
  6  7  2  0
  7  8  1  0
M  CHG  1   3   1
M  END
