
     RDKit          3D

  7  6  0  0  0  0  0  0  0  0999 V2000
   -1.8490   -1.4400   -0.3270 C   0  0  0  0  0  0  0  0  0  0  0  0
   -0.8830   -0.7890   -0.9580 C   0  0  0  0  0  0  0  0  0  0  0  0
   -0.2000    0.2540   -0.3190 N   0  0  0  0  0  0  0  0  0  0  0  0
   -0.7430    1.5760   -0.3230 C   0  0  0  0  0  0  0  0  0  0  0  0
    1.0160   -0.0130    0.3210 C   0  0  0  0  0  0  0  0  0  0  0  0
    1.0310   -0.0430    1.7440 N   0  0  0  0  0  0  0  0  0  0  0  0
    2.1180   -0.2340   -0.3150 N   0  0  0  0  0  0  0  0  0  0  0  0
  1  2  2  0
  2  3  1  0
  3  4  1  0
  3  5  1  0
  5  6  1  0
  5  7  2  0
M  CHG  1   7   1
M  END
