
     RDKit          3D

 16 17  0  0  0  0  0  0  0  0999 V2000
    4.1900    0.9220    0.1270 C   0  0  0  0  0  0  0  0  0  0  0  0
    4.1100   -0.2320   -0.8180 C   0  0  0  0  0  0  0  0  0  0  0  0
    3.1140   -1.2550   -0.4260 C   0  0  0  0  0  0  0  0  0  0  0  0
    1.7830   -0.6740   -0.3890 C   0  0  0  0  0  0  0  0  0  0  0  0
    1.2620    0.5270   -0.6580 C   0  0  0  0  0  0  0  0  0  0  0  0
   -0.0460    0.7840   -0.5230 C   0  0  0  0  0  0  0  0  0  0  0  0
   -0.8440   -0.2850   -0.0830 C   0  0  0  0  0  0  0  0  0  0  0  0
   -2.2840   -0.3750    0.1750 C   0  0  0  0  0  0  0  0  0  0  0  0
   -2.8190   -1.5430    0.6020 N   0  0  0  0  0  0  0  0  0  0  0  0
   -4.1190   -1.6980    0.8560 C   0  0  0  0  0  0  0  0  0  0  0  0
   -4.6220   -2.7800    1.2530 O   0  0  0  0  0  0  0  0  0  0  0  0
   -4.9610   -0.6640    0.6880 N   0  0  0  0  0  0  0  0  0  0  0  0
   -4.4830    0.5020    0.2700 C   0  0  0  0  0  0  0  0  0  0  0  0
   -3.1410    0.6600    0.0090 C   0  0  0  0  0  0  0  0  0  0  0  0
   -2.6830    1.9160   -0.4320 O   0  0  0  0  0  0  0  0  0  0  0  0
    0.2840   -1.5690    0.1130 S   0  0  0  0  0  0  0  0  0  0  0  0
  1  2  1  0
  2  3  1  0
  3  4  1  0
  4  5  2  0
  4 16  1  0
  5  6  1  0
  6  7  2  0
  7  8  1  0
  7 16  1  0
  8  9  2  0
  8 14  1  0
  9 10  1  0
 10 11  2  0
 10 12  1  0
 12 13  1  0
 13 14  2  0
 14 15  1  0
M  END
