
     RDKit          3D

 16 17  0  0  0  0  0  0  0  0999 V2000
   -0.5300    0.5670    1.2760 O   0  0  0  0  0  0  0  0  0  0  0  0
   -0.2550    0.1090    0.1330 C   0  0  0  0  0  0  0  0  0  0  0  0
   -1.3190   -0.3310   -0.6780 N   0  0  0  0  0  0  0  0  0  0  0  0
   -2.6470   -0.2490   -0.1980 C   0  0  0  0  0  0  0  0  0  0  0  0
   -3.4770   -1.2640   -0.0340 C   0  0  0  0  0  0  0  0  0  0  0  0
   -4.7690   -0.7960    0.4820 C   0  0  0  0  0  0  0  0  0  0  0  0
   -4.5950    0.6640    0.6060 C   0  0  0  0  0  0  0  0  0  0  0  0
   -3.3660    0.9420    0.2070 C   0  0  0  0  0  0  0  0  0  0  0  0
    1.1540    0.0530   -0.3030 C   0  0  0  0  0  0  0  0  0  0  0  0
    1.3520   -0.4110   -1.4450 O   0  0  0  0  0  0  0  0  0  0  0  0
    2.2060    0.4910    0.5040 N   0  0  0  0  0  0  0  0  0  0  0  0
    3.5990    0.4530    0.1280 C   0  0  0  0  0  0  0  0  0  0  0  0
    4.0960   -0.2360   -0.8760 C   0  0  0  0  0  0  0  0  0  0  0  0
    5.4750   -0.1590   -1.1350 C   0  0  0  0  0  0  0  0  0  0  0  0
    6.0660    0.9660    0.1430 S   0  0  0  0  0  0  0  0  0  0  0  0
    4.4860    1.2360    0.8950 C   0  0  0  0  0  0  0  0  0  0  0  0
  1  2  2  0
  2  3  1  0
  2  9  1  0
  3  4  1  0
  4  5  2  0
  4  8  1  0
  5  6  1  0
  6  7  1  0
  7  8  2  0
  9 10  2  0
  9 11  1  0
 11 12  1  0
 12 13  1  0
 12 16  2  0
 13 14  2  0
 14 15  1  0
 15 16  1  0
M  END
