
     RDKit          3D

 16 17  0  0  0  0  0  0  0  0999 V2000
    0.6680   -1.3810   -0.6430 O   0  0  0  0  0  0  0  0  0  0  0  0
    0.4010   -0.2620   -0.1680 C   0  0  0  0  0  0  0  0  0  0  0  0
    1.4480    0.6180    0.1960 N   0  0  0  0  0  0  0  0  0  0  0  0
    2.8370    0.3220    0.0600 C   0  0  0  0  0  0  0  0  0  0  0  0
    3.4390   -0.7550   -0.4010 C   0  0  0  0  0  0  0  0  0  0  0  0
    4.9320   -0.6030   -0.3490 C   0  0  0  0  0  0  0  0  0  0  0  0
    5.0870    0.7440    0.2200 C   0  0  0  0  0  0  0  0  0  0  0  0
    3.8980    1.2650    0.4500 C   0  0  0  0  0  0  0  0  0  0  0  0
   -1.0080    0.0900   -0.0070 C   0  0  0  0  0  0  0  0  0  0  0  0
   -1.2610    1.2330    0.4780 O   0  0  0  0  0  0  0  0  0  0  0  0
   -2.0630   -0.7630   -0.3590 N   0  0  0  0  0  0  0  0  0  0  0  0
   -3.4330   -0.3150   -0.1590 C   0  0  0  0  0  0  0  0  0  0  0  0
   -4.5990   -0.9110   -0.4020 C   0  0  0  0  0  0  0  0  0  0  0  0
   -5.7190   -0.2430   -0.1100 C   0  0  0  0  0  0  0  0  0  0  0  0
   -5.5990    1.0000    0.4150 C   0  0  0  0  0  0  0  0  0  0  0  0
   -3.9030    1.2610    0.5120 S   0  0  0  0  0  0  0  0  0  0  0  0
  1  2  2  0
  2  3  1  0
  2  9  1  0
  3  4  1  0
  4  5  2  0
  4  8  1  0
  5  6  1  0
  6  7  1  0
  7  8  2  0
  9 10  2  0
  9 11  1  0
 11 12  1  0
 12 13  2  0
 12 16  1  0
 13 14  1  0
 14 15  2  0
 15 16  1  0
M  END
