
     RDKit          3D

 16 17  0  0  0  0  0  0  0  0999 V2000
    2.9530    0.8740    1.0180 O   0  0  0  0  0  0  0  0  0  0  0  0
    2.6740    0.4790   -0.1170 C   0  0  0  0  0  0  0  0  0  0  0  0
    3.7670    0.3530   -1.1560 C   0  0  0  0  0  0  0  0  0  0  0  0
    5.3560    0.8490   -0.4340 S   0  0  0  0  0  0  0  0  0  0  0  0
    1.3540    0.1460   -0.4570 N   0  0  0  0  0  0  0  0  0  0  0  0
    0.2150    0.2020    0.3760 C   0  0  0  0  0  0  0  0  0  0  0  0
    0.2610    0.6100    1.6920 C   0  0  0  0  0  0  0  0  0  0  0  0
   -0.9090    0.6370    2.4500 C   0  0  0  0  0  0  0  0  0  0  0  0
   -0.8280    1.0160    3.6490 O   0  0  0  0  0  0  0  0  0  0  0  0
   -2.0860    0.2840    1.9610 N   0  0  0  0  0  0  0  0  0  0  0  0
   -2.1720   -0.1150    0.6980 C   0  0  0  0  0  0  0  0  0  0  0  0
   -3.4220   -0.4810    0.2090 C   0  0  0  0  0  0  0  0  0  0  0  0
   -3.4840   -0.8900   -1.0990 C   0  0  0  0  0  0  0  0  0  0  0  0
   -2.3980   -0.9510   -1.9210 C   0  0  0  0  0  0  0  0  0  0  0  0
   -1.1480   -0.5780   -1.4090 C   0  0  0  0  0  0  0  0  0  0  0  0
   -1.0350   -0.1660   -0.1190 C   0  0  0  0  0  0  0  0  0  0  0  0
  1  2  2  0
  2  3  1  0
  2  5  1  0
  3  4  1  0
  5  6  1  0
  6  7  2  0
  6 16  1  0
  7  8  1  0
  8  9  2  0
  8 10  1  0
 10 11  1  0
 11 12  2  0
 11 16  1  0
 12 13  1  0
 13 14  2  0
 14 15  1  0
 15 16  2  0
M  END
