
     RDKit          3D

 16 17  0  0  0  0  0  0  0  0999 V2000
   -4.1650    0.7930   -1.1980 C   0  0  0  0  0  0  0  0  0  0  0  0
   -2.8140    0.5070   -0.6430 C   0  0  0  0  0  0  0  0  0  0  0  0
   -2.5390   -0.6170    0.0950 C   0  0  0  0  0  0  0  0  0  0  0  0
   -1.2700   -0.8830    0.6150 C   0  0  0  0  0  0  0  0  0  0  0  0
   -0.9740   -2.0810    1.4030 C   0  0  0  0  0  0  0  0  0  0  0  0
   -0.2420    0.0260    0.3770 C   0  0  0  0  0  0  0  0  0  0  0  0
    1.0390   -0.1610    0.8530 C   0  0  0  0  0  0  0  0  0  0  0  0
    1.2940   -1.1900    1.5300 O   0  0  0  0  0  0  0  0  0  0  0  0
    2.0280    0.7660    0.5930 C   0  0  0  0  0  0  0  0  0  0  0  0
    3.7050    0.5230    1.2160 S   0  0  0  0  0  0  0  0  0  0  0  0
    4.6130   -0.4200   -0.0670 C   0  0  0  0  0  0  0  0  0  0  0  0
    5.9160   -0.6350    0.3630 O   0  0  0  0  0  0  0  0  0  0  0  0
    1.6880    1.8400   -0.1350 N   0  0  0  0  0  0  0  0  0  0  0  0
    0.4690    2.0360   -0.5990 N   0  0  0  0  0  0  0  0  0  0  0  0
   -0.5390    1.1590   -0.3730 C   0  0  0  0  0  0  0  0  0  0  0  0
   -1.8050    1.4110   -0.8840 C   0  0  0  0  0  0  0  0  0  0  0  0
  1  2  1  0
  2  3  2  0
  2 16  1  0
  3  4  1  0
  4  5  1  0
  4  6  2  0
  6  7  1  0
  6 15  1  0
  7  8  2  0
  7  9  1  0
  9 10  1  0
  9 13  2  0
 10 11  1  0
 11 12  1  0
 13 14  1  0
 14 15  1  0
 15 16  2  0
M  END
