
     RDKit          3D

 16 17  0  0  0  0  0  0  0  0999 V2000
    1.2060   -1.9050    0.7200 O   0  0  0  0  0  0  0  0  0  0  0  0
    0.5180   -0.9240    0.3420 C   0  0  0  0  0  0  0  0  0  0  0  0
   -0.8450   -1.0060    0.4010 N   0  0  0  0  0  0  0  0  0  0  0  0
   -1.6570   -0.0170    0.0220 C   0  0  0  0  0  0  0  0  0  0  0  0
   -3.1210   -0.1440    0.1020 C   0  0  0  0  0  0  0  0  0  0  0  0
   -3.7690   -1.2180    0.5430 C   0  0  0  0  0  0  0  0  0  0  0  0
   -5.1100   -1.2940    0.5990 C   0  0  0  0  0  0  0  0  0  0  0  0
   -5.5910    0.3740   -0.0570 S   0  0  0  0  0  0  0  0  0  0  0  0
   -3.9990    0.9360   -0.3120 C   0  0  0  0  0  0  0  0  0  0  0  0
   -1.0400    1.1170   -0.4420 C   0  0  0  0  0  0  0  0  0  0  0  0
    0.2820    1.2340   -0.5150 N   0  0  0  0  0  0  0  0  0  0  0  0
    1.1010    0.2120   -0.1230 C   0  0  0  0  0  0  0  0  0  0  0  0
    2.5520    0.4300   -0.2380 C   0  0  0  0  0  0  0  0  0  0  0  0
    3.4660   -0.4330    0.0890 C   0  0  0  0  0  0  0  0  0  0  0  0
    4.9380   -0.0940   -0.0750 C   0  0  0  0  0  0  0  0  0  0  0  0
    4.9960    1.1900   -0.5890 O   0  0  0  0  0  0  0  0  0  0  0  0
  1  2  2  0
  2  3  1  0
  2 12  1  0
  3  4  1  0
  4  5  1  0
  4 10  2  0
  5  6  1  0
  5  9  2  0
  6  7  2  0
  7  8  1  0
  8  9  1  0
 10 11  1  0
 11 12  2  0
 12 13  1  0
 13 14  2  3
 14 15  1  0
 15 16  1  0
M  END
