
     RDKit          3D

 16 17  0  0  0  0  0  0  0  0999 V2000
    5.4090    0.7310    0.1280 C   0  0  0  0  0  0  0  0  0  0  0  0
    3.9290    0.5660    0.0670 C   0  0  0  0  0  0  0  0  0  0  0  0
    3.2170    1.5180   -0.3720 O   0  0  0  0  0  0  0  0  0  0  0  0
    3.2820   -0.6100    0.4790 N   0  0  0  0  0  0  0  0  0  0  0  0
    1.8780   -0.7350    0.4080 C   0  0  0  0  0  0  0  0  0  0  0  0
    1.0650   -1.8170    0.7670 C   0  0  0  0  0  0  0  0  0  0  0  0
   -0.2420   -1.6820    0.6020 C   0  0  0  0  0  0  0  0  0  0  0  0
   -0.7300   -0.5170    0.0980 C   0  0  0  0  0  0  0  0  0  0  0  0
   -2.1290   -0.1420   -0.1710 C   0  0  0  0  0  0  0  0  0  0  0  0
   -3.1770   -0.9930    0.0770 C   0  0  0  0  0  0  0  0  0  0  0  0
   -4.4820   -0.5690   -0.2020 C   0  0  0  0  0  0  0  0  0  0  0  0
   -4.7470    0.6810   -0.7210 C   0  0  0  0  0  0  0  0  0  0  0  0
   -5.9220    1.0730   -0.9770 O   0  0  0  0  0  0  0  0  0  0  0  0
   -3.6940    1.4870   -0.9510 N   0  0  0  0  0  0  0  0  0  0  0  0
   -2.4130    1.1000   -0.6880 C   0  0  0  0  0  0  0  0  0  0  0  0
    0.6980    0.4280   -0.1550 S   0  0  0  0  0  0  0  0  0  0  0  0
  1  2  1  0
  2  3  2  0
  2  4  1  0
  4  5  1  0
  5  6  2  0
  5 16  1  0
  6  7  1  0
  7  8  2  0
  8  9  1  0
  8 16  1  0
  9 10  1  0
  9 15  2  0
 10 11  2  0
 11 12  1  0
 12 13  2  0
 12 14  1  0
 14 15  1  0
M  END
