
     RDKit          3D

 16 17  0  0  0  0  0  0  0  0999 V2000
    4.6010    0.7790    2.0320 C   0  0  0  0  0  0  0  0  0  0  0  0
    4.5790   -0.0130    0.9990 C   0  0  0  0  0  0  0  0  0  0  0  0
    3.3520   -0.3470    0.3170 C   0  0  0  0  0  0  0  0  0  0  0  0
    3.4370   -1.1180   -0.6670 O   0  0  0  0  0  0  0  0  0  0  0  0
    2.0910    0.1500    0.7070 N   0  0  0  0  0  0  0  0  0  0  0  0
    0.8470   -0.1130    0.1200 C   0  0  0  0  0  0  0  0  0  0  0  0
    0.5870   -1.0280   -0.8570 C   0  0  0  0  0  0  0  0  0  0  0  0
   -0.6810   -1.1950   -1.3740 C   0  0  0  0  0  0  0  0  0  0  0  0
   -1.7670   -0.4320   -0.9210 C   0  0  0  0  0  0  0  0  0  0  0  0
   -1.5080    0.4800    0.0520 C   0  0  0  0  0  0  0  0  0  0  0  0
   -0.2430    0.6360    0.5580 C   0  0  0  0  0  0  0  0  0  0  0  0
   -2.8430    1.5120    0.7000 S   0  0  0  0  0  0  0  0  0  0  0  0
   -4.3930    0.6780    0.2390 C   0  0  0  0  0  0  0  0  0  0  0  0
   -4.2250    0.0570   -1.1180 C   0  0  0  0  0  0  0  0  0  0  0  0
   -5.2000    0.1950   -1.9100 O   0  0  0  0  0  0  0  0  0  0  0  0
   -3.0470   -0.6350   -1.4770 N   0  0  0  0  0  0  0  0  0  0  0  0
  1  2  2  0
  2  3  1  0
  3  4  2  0
  3  5  1  0
  5  6  1  0
  6  7  2  0
  6 11  1  0
  7  8  1  0
  8  9  2  0
  9 10  1  0
  9 16  1  0
 10 11  2  0
 10 12  1  0
 12 13  1  0
 13 14  1  0
 14 15  2  0
 14 16  1  0
M  END
