
     RDKit          3D

 16 17  0  0  0  0  0  0  0  0999 V2000
    4.9710   -0.5950   -0.2260 C   0  0  0  0  0  0  0  0  0  0  0  0
    4.5640    0.6180    0.0520 C   0  0  0  0  0  0  0  0  0  0  0  0
    3.1540    1.0020    0.2180 C   0  0  0  0  0  0  0  0  0  0  0  0
    2.9280    2.2060    0.4830 O   0  0  0  0  0  0  0  0  0  0  0  0
    2.0950    0.1000    0.0940 N   0  0  0  0  0  0  0  0  0  0  0  0
    0.7080    0.3660    0.2400 C   0  0  0  0  0  0  0  0  0  0  0  0
    0.2330    1.5330    0.7830 C   0  0  0  0  0  0  0  0  0  0  0  0
   -1.1570    1.6800    0.8520 C   0  0  0  0  0  0  0  0  0  0  0  0
   -2.0360    0.7180    0.4050 C   0  0  0  0  0  0  0  0  0  0  0  0
   -1.5620   -0.4460   -0.1360 C   0  0  0  0  0  0  0  0  0  0  0  0
   -0.1980   -0.6070   -0.2120 C   0  0  0  0  0  0  0  0  0  0  0  0
   -2.4460   -1.4710   -0.6030 N   0  0  0  0  0  0  0  0  0  0  0  0
   -3.8420   -1.3810   -0.5510 C   0  0  0  0  0  0  0  0  0  0  0  0
   -4.5100   -2.0150   -1.4050 O   0  0  0  0  0  0  0  0  0  0  0  0
   -4.5950   -0.5890    0.4400 C   0  0  0  0  0  0  0  0  0  0  0  0
   -3.7840    1.0260    0.5370 S   0  0  0  0  0  0  0  0  0  0  0  0
  1  2  2  0
  2  3  1  0
  3  4  2  0
  3  5  1  0
  5  6  1  0
  6  7  2  0
  6 11  1  0
  7  8  1  0
  8  9  2  0
  9 10  1  0
  9 16  1  0
 10 11  2  0
 10 12  1  0
 12 13  1  0
 13 14  2  0
 13 15  1  0
 15 16  1  0
M  END
