
     RDKit          3D

 22 23  0  0  0  0  0  0  0  0999 V2000
   -4.0640   -1.9950    0.3960 C   0  0  0  0  0  0  0  0  0  0  0  0
   -4.0710   -0.5050    0.1740 C   0  0  2  0  0  0  0  0  0  0  0  0
   -4.3040   -0.2500   -1.2840 C   0  0  0  0  0  0  0  0  0  0  0  0
   -2.8380    0.1630    0.7010 C   0  0  0  0  0  0  0  0  0  0  0  0
   -1.6020   -0.3340    0.0730 C   0  0  0  0  0  0  0  0  0  0  0  0
   -1.6480   -1.2260   -0.8070 O   0  0  0  0  0  0  0  0  0  0  0  0
   -0.3600    0.2130    0.4790 N   0  0  0  0  0  0  0  0  0  0  0  0
    0.9070   -0.2170   -0.0860 C   0  0  1  0  0  0  0  0  0  0  0  0
    1.6200    0.9060   -0.7890 C   0  0  0  0  0  0  0  0  0  0  0  0
    2.7460    0.3150   -1.6180 C   0  0  0  0  0  0  0  0  0  0  0  0
    3.9780    0.3760   -0.7530 C   0  0  0  0  0  0  0  0  0  0  0  0
    5.1310    0.9080   -1.0860 C   0  0  0  0  0  0  0  0  0  0  0  0
    5.9990    0.7210    0.0800 C   0  0  0  0  0  0  0  0  0  0  0  0
    7.2320    1.1050    0.1660 N   0  0  0  0  0  0  0  0  0  0  0  0
    5.2380    0.0300    1.1220 C   0  0  0  0  0  0  0  0  0  0  0  0
    4.0300   -0.1690    0.6100 C   0  0  0  0  0  0  0  0  0  0  0  0
    3.0260   -0.8190    1.3520 O   0  0  0  0  0  0  0  0  0  0  0  0
    1.6900   -0.8320    0.9920 C   0  0  0  0  0  0  0  0  0  0  0  0
    0.9750   -1.5410    1.7770 O   0  0  0  0  0  0  0  0  0  0  0  0
   -5.2390    0.1000    0.9090 C   0  0  0  0  0  0  0  0  0  0  0  0
   -5.3830    1.5050    0.7970 N   0  0  0  0  0  0  0  0  0  0  0  0
   -6.0050   -0.6310    1.5640 O   0  0  0  0  0  0  0  0  0  0  0  0
  2  1  1  6
  2  3  1  0
  2  4  1  0
  2 20  1  0
  4  5  1  0
  5  6  2  0
  5  7  1  0
  8  7  1  1
  8  9  1  0
  8 18  1  0
  9 10  1  0
 10 11  1  0
 11 12  2  0
 11 16  1  0
 12 13  1  0
 13 14  2  0
 13 15  1  0
 15 16  2  0
 16 17  1  0
 17 18  1  0
 18 19  2  0
 20 21  1  0
 20 22  2  0
M  CHG  1  14   1
M  END
