
     RDKit          3D

 25 26  0  0  0  0  0  0  0  0999 V2000
   -5.7660   -0.1550   -0.7300 C   0  0  0  0  0  0  0  0  0  0  0  0
   -4.9230    0.8810   -0.0460 C   0  0  1  0  0  0  0  0  0  0  0  0
   -4.4380    1.8700   -1.0840 C   0  0  0  0  0  0  0  0  0  0  0  0
   -5.8330    1.6390    0.9050 C   0  0  0  0  0  0  0  0  0  0  0  0
   -3.8140    0.3630    0.6260 O   0  0  0  0  0  0  0  0  0  0  0  0
   -2.8060   -0.3540    0.0140 C   0  0  0  0  0  0  0  0  0  0  0  0
   -2.9150   -0.5410   -1.2260 O   0  0  0  0  0  0  0  0  0  0  0  0
   -1.6860   -0.8820    0.6660 N   0  0  0  0  0  0  0  0  0  0  0  0
   -0.6790   -1.6230   -0.0640 C   0  0  2  0  0  0  0  0  0  0  0  0
   -0.5940   -3.0320    0.3950 C   0  0  0  0  0  0  0  0  0  0  0  0
   -1.3200   -3.4990    1.3070 O   0  0  0  0  0  0  0  0  0  0  0  0
    0.3540   -3.8820   -0.2330 N   0  0  0  0  0  0  0  0  0  0  0  0
    0.4430   -5.1720    0.1760 O   0  0  0  0  0  0  0  0  0  0  0  0
    0.6420   -0.9530   -0.0140 C   0  0  0  0  0  0  0  0  0  0  0  0
    1.1660   -0.4250    1.1500 C   0  0  0  0  0  0  0  0  0  0  0  0
    2.4020    0.1870    1.1430 C   0  0  0  0  0  0  0  0  0  0  0  0
    3.1680    0.3050    0.0060 C   0  0  0  0  0  0  0  0  0  0  0  0
    4.4780    0.9510   -0.0130 C   0  0  0  0  0  0  0  0  0  0  0  0
    5.4370    0.5170   -0.8990 C   0  0  0  0  0  0  0  0  0  0  0  0
    6.6940    1.0930   -0.9610 C   0  0  0  0  0  0  0  0  0  0  0  0
    6.9960    2.1330   -0.1080 C   0  0  0  0  0  0  0  0  0  0  0  0
    6.0270    2.5560    0.7730 C   0  0  0  0  0  0  0  0  0  0  0  0
    4.7820    1.9850    0.8320 C   0  0  0  0  0  0  0  0  0  0  0  0
    2.6230   -0.2340   -1.1560 C   0  0  0  0  0  0  0  0  0  0  0  0
    1.3910   -0.8460   -1.1600 C   0  0  0  0  0  0  0  0  0  0  0  0
  2  1  1  6
  2  3  1  0
  2  4  1  0
  2  5  1  0
  5  6  1  0
  6  7  2  0
  6  8  1  0
  9  8  1  1
  9 10  1  0
  9 14  1  0
 10 11  2  0
 10 12  1  0
 12 13  1  0
 14 15  2  0
 14 25  1  0
 15 16  1  0
 16 17  2  0
 17 18  1  0
 17 24  1  0
 18 19  2  0
 18 23  1  0
 19 20  1  0
 20 21  2  0
 21 22  1  0
 22 23  2  0
 24 25  2  0
M  END
