
     RDKit          3D

 24 26  0  0  0  0  0  0  0  0999 V2000
   -2.9260   -2.8470    1.2220 C   0  0  0  0  0  0  0  0  0  0  0  0
   -3.5280   -1.5640    0.7190 C   0  0  2  0  0  0  0  0  0  0  0  0
   -4.4110   -1.8720   -0.3130 O   0  0  0  0  0  0  0  0  0  0  0  0
   -2.4980   -0.5870    0.2840 C   0  0  0  0  0  0  0  0  0  0  0  0
   -1.1610   -0.7860    0.4420 C   0  0  0  0  0  0  0  0  0  0  0  0
   -0.1700    0.1320    0.0380 C   0  0  0  0  0  0  0  0  0  0  0  0
    1.1870   -0.1710    0.2790 N   0  0  0  0  0  0  0  0  0  0  0  0
    2.2520    0.4860   -0.3500 C   0  0  0  0  0  0  0  0  0  0  0  0
    2.0760    1.4100   -1.2030 O   0  0  0  0  0  0  0  0  0  0  0  0
    3.6490    0.1250   -0.0400 C   0  0  0  0  0  0  0  0  0  0  0  0
    4.0140   -0.6230    1.0520 C   0  0  0  0  0  0  0  0  0  0  0  0
    5.3470   -0.9160    1.2610 C   0  0  0  0  0  0  0  0  0  0  0  0
    5.7560   -1.6770    2.3670 O   0  0  0  0  0  0  0  0  0  0  0  0
    6.3570   -0.4920    0.4180 C   0  0  0  0  0  0  0  0  0  0  0  0
    5.9790    0.2610   -0.6800 C   0  0  0  0  0  0  0  0  0  0  0  0
    6.9190    0.7230   -1.5670 F   0  0  0  0  0  0  0  0  0  0  0  0
    4.6500    0.5520   -0.8860 C   0  0  0  0  0  0  0  0  0  0  0  0
   -0.6540    1.2720   -0.5400 C   0  0  0  0  0  0  0  0  0  0  0  0
   -1.9930    1.5430   -0.7340 C   0  0  0  0  0  0  0  0  0  0  0  0
   -2.9140    0.5930   -0.3120 C   0  0  0  0  0  0  0  0  0  0  0  0
   -4.2380    0.8720   -0.5080 O   0  0  0  0  0  0  0  0  0  0  0  0
   -4.8020    1.9880   -1.0800 C   0  0  0  0  0  0  0  0  0  0  0  0
   -3.7970    2.9680   -1.5160 C   0  0  0  0  0  0  0  0  0  0  0  0
   -2.5150    2.7470   -1.3480 C   0  0  0  0  0  0  0  0  0  0  0  0
  2  1  1  6
  2  3  1  0
  2  4  1  0
  4  5  2  0
  4 20  1  0
  5  6  1  0
  6  7  1  0
  6 18  2  0
  7  8  1  0
  8  9  2  0
  8 10  1  0
 10 11  2  0
 10 17  1  0
 11 12  1  0
 12 13  1  0
 12 14  2  0
 14 15  1  0
 15 16  1  0
 15 17  2  0
 18 19  1  0
 19 20  2  0
 19 24  1  0
 20 21  1  0
 21 22  1  0
 22 23  1  0
 23 24  2  0
M  END
