
     RDKit          3D

 22 22  0  0  0  0  0  0  0  0999 V2000
    7.2600    0.8790    1.6790 C   0  0  0  0  0  0  0  0  0  0  0  0
    6.9170   -0.0910    0.8360 C   0  0  0  0  0  0  0  0  0  0  0  0
    5.6300   -0.0860    0.1950 C   0  0  0  0  0  0  0  0  0  0  0  0
    5.2170   -0.9870   -0.6320 C   0  0  0  0  0  0  0  0  0  0  0  0
    6.0890   -2.1420   -0.9890 C   0  0  0  0  0  0  0  0  0  0  0  0
    3.8830   -0.9240   -1.2510 C   0  0  0  0  0  0  0  0  0  0  0  0
    3.5190   -1.8340   -2.0430 O   0  0  0  0  0  0  0  0  0  0  0  0
    2.9480    0.1080   -1.0220 N   0  0  0  0  0  0  0  0  0  0  0  0
    1.6910    0.1550   -1.6090 N   0  0  0  0  0  0  0  0  0  0  0  0
    0.5510    0.4430   -0.8130 C   0  0  0  0  0  0  0  0  0  0  0  0
    0.7580    0.6460    0.3950 O   0  0  0  0  0  0  0  0  0  0  0  0
   -0.7520    0.4850   -1.4200 C   0  0  0  0  0  0  0  0  0  0  0  0
   -1.9500    0.8150   -0.5840 C   0  0  1  0  0  0  0  0  0  0  0  0
   -3.1390    0.7880   -1.4970 C   0  0  0  0  0  0  0  0  0  0  0  0
   -4.2500    0.1390   -1.0940 O   0  0  0  0  0  0  0  0  0  0  0  0
   -4.0750   -1.0760   -0.4950 C   0  0  0  0  0  0  0  0  0  0  0  0
   -4.1840   -0.8250    0.9970 C   0  0  2  0  0  0  0  0  0  0  0  0
   -5.6110   -0.5210    1.4000 C   0  0  0  0  0  0  0  0  0  0  0  0
   -3.1940    0.2080    1.4030 C   0  0  2  0  0  0  0  0  0  0  0  0
   -3.6990    1.6190    1.4670 C   0  0  0  0  0  0  0  0  0  0  0  0
   -4.8280    1.7670    2.2660 O   0  0  0  0  0  0  0  0  0  0  0  0
   -2.0140    0.0680    0.5840 N   0  0  0  0  0  0  0  0  0  0  0  0
  1  2  2  0
  2  3  1  0
  3  4  2  3
  4  5  1  0
  4  6  1  0
  6  7  2  0
  6  8  1  0
  8  9  1  0
  9 10  1  0
 10 11  2  0
 10 12  1  0
 13 12  1  6
 13 14  1  0
 13 22  1  0
 14 15  1  0
 15 16  1  0
 16 17  1  0
 17 18  1  6
 17 19  1  0
 19 20  1  6
 19 22  1  0
 20 21  1  0
M  CHG  1  22   1
M  END
