
     RDKit          3D

 22 23  0  0  0  0  0  0  0  0999 V2000
   -5.2520   -0.1250   -1.0910 C   0  0  0  0  0  0  0  0  0  0  0  0
   -3.8840    0.5230   -0.9920 C   0  0  2  0  0  0  0  0  0  0  0  0
   -3.9240    1.7100   -1.8190 N   0  0  0  0  0  0  0  0  0  0  0  0
   -2.7840   -0.4300   -1.4010 C   0  0  1  0  0  0  0  0  0  0  0  0
   -1.4890    0.2170   -1.6730 C   0  0  0  0  0  0  0  0  0  0  0  0
   -0.5120    0.1660   -0.5930 N   0  0  0  0  0  0  0  0  0  0  0  0
    0.6930    0.9100   -0.7680 C   0  0  0  0  0  0  0  0  0  0  0  0
    0.8170    1.5600   -1.8600 O   0  0  0  0  0  0  0  0  0  0  0  0
    1.7750    0.9810    0.1920 C   0  0  0  0  0  0  0  0  0  0  0  0
    1.7710    0.3940    1.2880 O   0  0  0  0  0  0  0  0  0  0  0  0
    2.9290    1.7710   -0.1210 N   0  0  0  0  0  0  0  0  0  0  0  0
    4.0280    1.8780    0.7840 C   0  0  0  0  0  0  0  0  0  0  0  0
    4.6760    0.5520    1.0760 C   0  0  0  0  0  0  0  0  0  0  0  0
    5.2110   -0.1000   -0.1800 C   0  0  0  0  0  0  0  0  0  0  0  0
    5.8460   -1.4240    0.1890 C   0  0  0  0  0  0  0  0  0  0  0  0
    4.8740   -2.2330    0.7760 O   0  0  0  0  0  0  0  0  0  0  0  0
   -0.8300   -0.6160    0.5460 C   0  0  1  0  0  0  0  0  0  0  0  0
   -1.3800    0.2030    1.6910 C   0  0  0  0  0  0  0  0  0  0  0  0
   -2.4790   -0.6110    2.3410 C   0  0  0  0  0  0  0  0  0  0  0  0
   -2.3620   -1.9860    1.7170 C   0  0  0  0  0  0  0  0  0  0  0  0
   -1.8280   -1.7140    0.2980 C   0  0  1  0  0  0  0  0  0  0  0  0
   -2.7890   -1.5150   -0.6030 O   0  0  0  0  0  0  0  0  0  0  0  0
  2  1  1  6
  2  3  1  0
  2  4  1  0
  4  5  1  1
  4 22  1  0
  5  6  1  0
  6  7  1  0
  6 17  1  0
  7  8  2  0
  7  9  1  0
  9 10  2  0
  9 11  1  0
 11 12  1  0
 12 13  1  0
 13 14  1  0
 14 15  1  0
 15 16  1  0
 17 18  1  1
 17 21  1  0
 18 19  1  0
 19 20  1  0
 21 20  1  1
 21 22  1  0
M  CHG  1   3   1
M  END
