
     RDKit          3D

 22 23  0  0  0  0  0  0  0  0999 V2000
   -4.2300    3.6900    0.7530 N   0  0  0  0  0  0  0  0  0  0  0  0
   -3.4660    2.8590   -0.1260 C   0  0  0  0  0  0  0  0  0  0  0  0
   -2.6840    3.3500   -0.9830 O   0  0  0  0  0  0  0  0  0  0  0  0
   -3.6050    1.4410   -0.0150 N   0  0  0  0  0  0  0  0  0  0  0  0
   -2.8850    0.5360   -0.8470 C   0  0  2  0  0  0  0  0  0  0  0  0
   -3.7410   -0.3530   -1.6890 C   0  0  0  0  0  0  0  0  0  0  0  0
   -4.5260   -1.3060   -0.8040 C   0  0  0  0  0  0  0  0  0  0  0  0
   -3.4860   -2.2540   -0.2090 C   0  0  0  0  0  0  0  0  0  0  0  0
   -2.5890   -1.4490    0.6680 C   0  0  0  0  0  0  0  0  0  0  0  0
   -1.9370   -0.2850   -0.0130 C   0  0  2  0  0  0  0  0  0  0  0  0
   -1.4440    0.5510    0.9870 O   0  0  0  0  0  0  0  0  0  0  0  0
   -0.0850    0.7280    0.9520 C   0  0  0  0  0  0  0  0  0  0  0  0
    0.7120   -0.5500    1.1090 C   0  0  0  0  0  0  0  0  0  0  0  0
    2.1110   -0.1870    1.0500 N   0  0  0  0  0  0  0  0  0  0  0  0
    2.9440   -1.2360    0.5090 C   0  0  0  0  0  0  0  0  0  0  0  0
    4.1430   -0.6010   -0.0730 C   0  0  0  0  0  0  0  0  0  0  0  0
    4.4530   -0.7240   -1.3450 C   0  0  0  0  0  0  0  0  0  0  0  0
    5.6390   -0.1080   -1.9710 C   0  0  0  0  0  0  0  0  0  0  0  0
    6.4370    0.6370   -1.0870 O   0  0  0  0  0  0  0  0  0  0  0  0
    6.1240    0.7740    0.2510 C   0  0  0  0  0  0  0  0  0  0  0  0
    5.0270    0.1890    0.7640 C   0  0  0  0  0  0  0  0  0  0  0  0
    4.7960    0.3830    2.1170 O   0  0  0  0  0  0  0  0  0  0  0  0
  1  2  1  0
  2  3  2  0
  2  4  1  0
  5  4  1  1
  5  6  1  0
  5 10  1  0
  6  7  1  0
  7  8  1  0
  8  9  1  0
  9 10  1  0
 10 11  1  1
 11 12  1  0
 12 13  1  0
 13 14  1  0
 14 15  1  0
 15 16  1  0
 16 17  2  0
 16 21  1  0
 17 18  1  0
 18 19  1  0
 19 20  1  0
 20 21  2  0
 21 22  1  0
M  CHG  1  14   1
M  END
