
     RDKit          3D

 26 28  0  0  0  0  0  0  0  0999 V2000
   -7.2230    1.4870    1.5740 C   0  0  0  0  0  0  0  0  0  0  0  0
   -6.0170    1.4950    1.1370 N   0  0  0  0  0  0  0  0  0  0  0  0
   -5.1580    0.4160    1.3610 N   0  0  0  0  0  0  0  0  0  0  0  0
   -5.6400   -0.9360    1.0600 C   0  0  0  0  0  0  0  0  0  0  0  0
   -3.8110    0.5980    1.8810 C   0  0  0  0  0  0  0  0  0  0  0  0
   -2.8630    0.2450    0.8040 C   0  0  0  0  0  0  0  0  0  0  0  0
   -1.9490   -0.7330    0.9020 C   0  0  0  0  0  0  0  0  0  0  0  0
   -1.0970   -0.9110   -0.3130 C   0  0  0  0  0  0  0  0  0  0  0  0
   -0.4790    0.3290   -0.6010 N   0  0  0  0  0  0  0  0  0  0  0  0
    0.5280    0.3070   -1.6160 C   0  0  0  0  0  0  0  0  0  0  0  0
    1.6750   -0.5700   -1.3210 C   0  0  0  0  0  0  0  0  0  0  0  0
    1.7720   -1.9100   -1.5900 C   0  0  0  0  0  0  0  0  0  0  0  0
    3.0170   -2.3470   -1.1530 C   0  0  0  0  0  0  0  0  0  0  0  0
    3.8230   -3.8730   -1.1570 S   0  0  0  0  0  0  0  0  0  0  0  0
    5.3730   -3.7670   -0.4620 C   0  0  0  0  0  0  0  0  0  0  0  0
    5.7150   -2.5170   -0.0250 C   0  0  0  0  0  0  0  0  0  0  0  0
    4.9580   -1.3680   -0.0870 C   0  0  0  0  0  0  0  0  0  0  0  0
    5.5140   -0.3320    0.3920 N   0  0  0  0  0  0  0  0  0  0  0  0
    5.1920    0.9780    0.5540 C   0  0  0  0  0  0  0  0  0  0  0  0
    4.6400    1.4590    1.6040 O   0  0  0  0  0  0  0  0  0  0  0  0
    5.4630    1.8980   -0.4600 O   0  0  0  0  0  0  0  0  0  0  0  0
    5.1600    3.2700   -0.3640 C   0  0  0  0  0  0  0  0  0  0  0  0
    3.6850   -1.2700   -0.6150 C   0  0  0  0  0  0  0  0  0  0  0  0
    2.8290   -0.2160   -0.7410 N   0  0  0  0  0  0  0  0  0  0  0  0
   -1.4940    1.2840   -0.9990 C   0  0  0  0  0  0  0  0  0  0  0  0
   -2.8630    0.9730   -0.4930 C   0  0  0  0  0  0  0  0  0  0  0  0
  1  2  2  0
  2  3  1  0
  3  4  1  0
  3  5  1  0
  5  6  1  0
  6  7  2  0
  6 26  1  0
  7  8  1  0
  8  9  1  0
  9 10  1  0
  9 25  1  0
 10 11  1  0
 11 12  2  0
 11 24  1  0
 12 13  1  0
 13 14  1  0
 13 23  2  0
 14 15  1  0
 15 16  2  0
 16 17  1  0
 17 18  2  3
 17 23  1  0
 18 19  1  0
 19 20  2  0
 19 21  1  0
 21 22  1  0
 23 24  1  0
 25 26  1  0
M  END
