
     RDKit          3D

 25 26  0  0  0  0  0  0  0  0999 V2000
    6.9920    1.6640   -2.1890 C   0  0  0  0  0  0  0  0  0  0  0  0
    6.1630    0.6360   -1.5670 N   0  0  0  0  0  0  0  0  0  0  0  0
    4.8440    0.7720   -1.3140 C   0  0  0  0  0  0  0  0  0  0  0  0
    4.3990   -0.4050   -0.7200 C   0  0  0  0  0  0  0  0  0  0  0  0
    3.0430   -0.6810   -0.2880 C   0  0  0  0  0  0  0  0  0  0  0  0
    1.9790   -0.1390   -0.9570 C   0  0  0  0  0  0  0  0  0  0  0  0
    0.6640   -0.3880   -0.5620 C   0  0  0  0  0  0  0  0  0  0  0  0
    0.4070   -1.1950    0.5250 C   0  0  0  0  0  0  0  0  0  0  0  0
   -0.9820   -1.4680    0.9810 C   0  0  2  0  0  0  0  0  0  0  0  0
   -1.6090   -0.1600    1.0900 N   0  0  0  0  0  0  0  0  0  0  0  0
   -2.6950    0.1590    0.2570 C   0  0  0  0  0  0  0  0  0  0  0  0
   -3.1740   -0.6110   -0.5870 O   0  0  0  0  0  0  0  0  0  0  0  0
   -3.2820    1.4130    0.3710 O   0  0  0  0  0  0  0  0  0  0  0  0
   -4.3740    1.8040   -0.4260 C   0  0  2  0  0  0  0  0  0  0  0  0
   -4.7220    3.2210   -0.0120 C   0  0  0  0  0  0  0  0  0  0  0  0
   -5.6090    0.9700   -0.1450 C   0  0  0  0  0  0  0  0  0  0  0  0
   -4.1120    1.8080   -1.8930 C   0  0  0  0  0  0  0  0  0  0  0  0
   -1.0810   -2.2470    2.2090 C   0  0  0  0  0  0  0  0  0  0  0  0
   -1.6040   -1.6940    3.2180 O   0  0  0  0  0  0  0  0  0  0  0  0
   -0.6390   -3.5840    2.3620 N   0  0  0  0  0  0  0  0  0  0  0  0
   -0.7540   -4.2560    3.5200 O   0  0  0  0  0  0  0  0  0  0  0  0
    1.4580   -1.7470    1.2080 C   0  0  0  0  0  0  0  0  0  0  0  0
    2.7740   -1.4850    0.7950 C   0  0  0  0  0  0  0  0  0  0  0  0
    5.4930   -1.2160   -0.6390 C   0  0  0  0  0  0  0  0  0  0  0  0
    6.5390   -0.5630   -1.1570 N   0  0  0  0  0  0  0  0  0  0  0  0
  1  2  1  0
  2  3  1  0
  2 25  1  0
  3  4  2  0
  4  5  1  0
  4 24  1  0
  5  6  2  0
  5 23  1  0
  6  7  1  0
  7  8  2  0
  8  9  1  0
  8 22  1  0
  9 10  1  1
  9 18  1  0
 10 11  1  0
 11 12  2  0
 11 13  1  0
 13 14  1  0
 14 15  1  1
 14 16  1  0
 14 17  1  0
 18 19  2  0
 18 20  1  0
 20 21  1  0
 22 23  2  0
 24 25  2  0
M  END
