
     RDKit          3D

 26 28  0  0  0  0  0  0  0  0999 V2000
   -2.9970    4.0280   -0.2050 C   0  0  0  0  0  0  0  0  0  0  0  0
   -2.4320    3.0480   -1.1070 N   0  0  0  0  0  0  0  0  0  0  0  0
   -2.7950    1.6690   -0.9490 C   0  0  0  0  0  0  0  0  0  0  0  0
   -2.3080    0.7120   -1.7490 N   0  0  0  0  0  0  0  0  0  0  0  0
   -2.6480   -0.5730   -1.6000 C   0  0  0  0  0  0  0  0  0  0  0  0
   -2.0770   -1.5170   -2.5030 N   0  0  0  0  0  0  0  0  0  0  0  0
   -0.8370   -1.8270   -2.3320 C   0  0  0  0  0  0  0  0  0  0  0  0
   -0.0680   -1.2850   -1.3280 C   0  0  0  0  0  0  0  0  0  0  0  0
    1.2450   -1.5560   -1.0780 C   0  0  0  0  0  0  0  0  0  0  0  0
    1.9100   -0.8710    0.0540 C   0  0  0  0  0  0  0  0  0  0  0  0
    1.2170   -0.0730    0.7230 O   0  0  0  0  0  0  0  0  0  0  0  0
    3.2380   -1.1010    0.3610 O   0  0  0  0  0  0  0  0  0  0  0  0
    3.8350   -0.4320    1.4420 C   0  0  0  0  0  0  0  0  0  0  0  0
    3.8430    1.0560    1.3400 C   0  0  1  0  0  0  0  0  0  0  0  0
    4.5320    1.5790    2.6050 C   0  0  0  0  0  0  0  0  0  0  0  0
    4.5240    1.5660    0.1030 C   0  0  0  0  0  0  0  0  0  0  0  0
    2.0230   -2.4430   -1.8190 C   0  0  0  0  0  0  0  0  0  0  0  0
    1.6070   -3.1660   -2.8870 C   0  0  0  0  0  0  0  0  0  0  0  0
   -0.0250   -2.9510   -3.3480 S   0  0  0  0  0  0  0  0  0  0  0  0
   -3.5170   -0.9670   -0.6110 C   0  0  0  0  0  0  0  0  0  0  0  0
   -3.8430   -2.2960   -0.4870 C   0  0  0  0  0  0  0  0  0  0  0  0
   -4.7310   -2.6250    0.5380 C   0  0  0  0  0  0  0  0  0  0  0  0
   -5.2470   -1.6570    1.3770 C   0  0  0  0  0  0  0  0  0  0  0  0
   -4.8810   -0.3760    1.1940 N   0  0  0  0  0  0  0  0  0  0  0  0
   -4.0270    0.0100    0.2220 C   0  0  0  0  0  0  0  0  0  0  0  0
   -3.6510    1.2850    0.0270 N   0  0  0  0  0  0  0  0  0  0  0  0
  1  2  1  0
  2  3  1  0
  3  4  2  0
  3 26  1  0
  4  5  1  0
  5  6  1  0
  5 20  2  0
  6  7  2  3
  7  8  1  0
  7 19  1  0
  8  9  2  0
  9 10  1  0
  9 17  1  0
 10 11  2  0
 10 12  1  0
 12 13  1  0
 13 14  1  0
 14 15  1  1
 14 16  1  0
 17 18  2  0
 18 19  1  0
 20 21  1  0
 20 25  1  0
 21 22  2  0
 22 23  1  0
 23 24  2  0
 24 25  1  0
 25 26  2  0
M  END
