
     RDKit          3D

 26 28  0  0  0  0  0  0  0  0999 V2000
    5.9570    2.5450   -0.1150 C   0  0  0  0  0  0  0  0  0  0  0  0
    4.6760    2.8150   -0.8480 C   0  0  0  0  0  0  0  0  0  0  0  0
    3.7430    1.6350   -0.8040 C   0  0  0  0  0  0  0  0  0  0  0  0
    3.3580    1.2560    0.6250 C   0  0  0  0  0  0  0  0  0  0  0  0
    2.4580    0.1010    0.4920 N   0  0  0  0  0  0  0  0  0  0  0  0
    1.0970    0.1450    0.3690 C   0  0  0  0  0  0  0  0  0  0  0  0
    0.5920   -1.1290    0.2630 C   0  0  0  0  0  0  0  0  0  0  0  0
   -1.0260   -1.6950    0.0590 S   0  0  1  0  0  0  0  0  0  0  0  0
   -0.9990   -2.5680   -1.2000 O   0  0  0  0  0  0  0  0  0  0  0  0
   -1.3300   -2.6820    1.1720 O   0  0  0  0  0  0  0  0  0  0  0  0
   -2.2560   -0.5650    0.0230 N   0  0  0  0  0  0  0  0  0  0  0  0
   -3.1510   -0.6770    1.1210 C   0  0  0  0  0  0  0  0  0  0  0  0
   -4.4260    0.0600    0.8620 C   0  0  0  0  0  0  0  0  0  0  0  0
   -5.6970   -0.0520    1.4380 C   0  0  0  0  0  0  0  0  0  0  0  0
   -6.4450    0.8600    0.8110 N   0  0  0  0  0  0  0  0  0  0  0  0
   -5.7290    1.5070   -0.0900 N   0  0  0  0  0  0  0  0  0  0  0  0
   -4.4660    1.0270   -0.0780 C   0  0  0  0  0  0  0  0  0  0  0  0
   -3.3150    1.4220   -0.8890 C   0  0  2  0  0  0  0  0  0  0  0  0
   -3.1410    2.9210   -0.7580 C   0  0  0  0  0  0  0  0  0  0  0  0
   -3.5530    1.1010   -2.3390 C   0  0  0  0  0  0  0  0  0  0  0  0
   -2.0310    0.7400   -0.4340 C   0  0  0  0  0  0  0  0  0  0  0  0
    1.6950   -1.9690    0.3250 C   0  0  0  0  0  0  0  0  0  0  0  0
    1.7160   -3.4820    0.2690 C   0  0  1  0  0  0  0  0  0  0  0  0
    3.1480   -3.9490    0.0670 C   0  0  0  0  0  0  0  0  0  0  0  0
    1.2790   -3.9650    1.6370 C   0  0  0  0  0  0  0  0  0  0  0  0
    2.7610   -1.1720    0.4600 N   0  0  0  0  0  0  0  0  0  0  0  0
  1  2  1  0
  2  3  1  0
  3  4  1  0
  4  5  1  0
  5  6  1  0
  5 26  1  0
  6  7  2  0
  7  8  1  0
  7 22  1  0
  8  9  2  0
  8 10  2  0
  8 11  1  6
 11 12  1  0
 11 21  1  0
 12 13  1  0
 13 14  2  0
 13 17  1  0
 14 15  1  0
 15 16  1  0
 16 17  2  0
 17 18  1  0
 18 19  1  6
 18 20  1  0
 18 21  1  0
 22 23  1  0
 22 26  2  0
 23 24  1  1
 23 25  1  0
M  END
