
     RDKit          3D

 26 28  0  0  0  0  0  0  0  0999 V2000
   -2.8800    0.8020   -1.1010 C   0  0  0  0  0  0  0  0  0  0  0  0
   -3.6240    0.3520    0.1340 C   0  0  0  0  0  0  0  0  0  0  0  0
   -4.0610   -1.0440   -0.0300 N   0  0  0  0  0  0  0  0  0  0  0  0
   -5.2250   -1.4190   -0.5330 N   0  0  0  0  0  0  0  0  0  0  0  0
   -5.3310   -2.7560   -0.5450 C   0  0  0  0  0  0  0  0  0  0  0  0
   -6.4970   -3.5360   -1.0390 C   0  0  0  0  0  0  0  0  0  0  0  0
   -4.1610   -3.2310   -0.0170 C   0  0  0  0  0  0  0  0  0  0  0  0
   -3.3810   -2.1480    0.2980 C   0  0  0  0  0  0  0  0  0  0  0  0
   -2.0310   -2.2370    0.8870 C   0  0  0  0  0  0  0  0  0  0  0  0
   -1.5620   -3.3810    1.1320 O   0  0  0  0  0  0  0  0  0  0  0  0
   -1.3080   -1.0460    1.1580 N   0  0  0  0  0  0  0  0  0  0  0  0
   -0.7390   -0.9390    2.3110 C   0  0  0  0  0  0  0  0  0  0  0  0
   -0.0210    0.2470    2.5750 N   0  0  0  0  0  0  0  0  0  0  0  0
    0.8830    0.7830    1.6280 C   0  0  0  0  0  0  0  0  0  0  0  0
    1.4600    2.0320    1.8120 C   0  0  0  0  0  0  0  0  0  0  0  0
    2.3350    2.5060    0.8780 C   0  0  0  0  0  0  0  0  0  0  0  0
    2.6960    1.8470   -0.2340 N   0  0  0  0  0  0  0  0  0  0  0  0
    3.6340    2.4310   -1.1690 C   0  0  0  0  0  0  0  0  0  0  0  0
    5.0340    2.0670   -0.8330 C   0  0  0  0  0  0  0  0  0  0  0  0
    5.8030    1.0340   -1.2110 C   0  0  0  0  0  0  0  0  0  0  0  0
    7.0580    0.9390   -0.7530 C   0  0  0  0  0  0  0  0  0  0  0  0
    7.5210    1.9060    0.0930 C   0  0  0  0  0  0  0  0  0  0  0  0
    6.0630    3.0040    0.2280 S   0  0  0  0  0  0  0  0  0  0  0  0
    2.1490    0.6410   -0.4260 C   0  0  0  0  0  0  0  0  0  0  0  0
    2.4440   -0.0350   -1.4520 O   0  0  0  0  0  0  0  0  0  0  0  0
    1.2440    0.1010    0.4970 C   0  0  0  0  0  0  0  0  0  0  0  0
  1  2  1  0
  2  3  1  0
  3  4  1  0
  3  8  1  0
  4  5  2  0
  5  6  1  0
  5  7  1  0
  7  8  2  0
  8  9  1  0
  9 10  2  0
  9 11  1  0
 11 12  2  3
 12 13  1  0
 13 14  1  0
 14 15  1  0
 14 26  2  0
 15 16  2  0
 16 17  1  0
 17 18  1  0
 17 24  1  0
 18 19  1  0
 19 20  2  0
 19 23  1  0
 20 21  1  0
 21 22  2  0
 22 23  1  0
 24 25  2  0
 24 26  1  0
M  END
