
     RDKit          3D

 25 27  0  0  0  0  0  0  0  0999 V2000
   -3.0980   -3.0810    0.4290 C   0  0  0  0  0  0  0  0  0  0  0  0
   -3.4980   -1.6770    0.1130 C   0  0  0  0  0  0  0  0  0  0  0  0
   -2.5250   -0.7470   -0.0020 C   0  0  0  0  0  0  0  0  0  0  0  0
   -1.1530   -1.1580    0.1870 C   0  0  0  0  0  0  0  0  0  0  0  0
   -0.0470   -0.4960    0.1380 C   0  0  0  0  0  0  0  0  0  0  0  0
    0.1120    0.8920   -0.1310 C   0  0  0  0  0  0  0  0  0  0  0  0
    0.2590    2.0310   -0.3390 N   0  0  0  0  0  0  0  0  0  0  0  0
    1.1860   -1.3050    0.3970 C   0  0  0  0  0  0  0  0  0  0  0  0
    1.2680   -2.6160    0.6690 N   0  0  0  0  0  0  0  0  0  0  0  0
    2.5330   -2.9220    0.8270 N   0  0  0  0  0  0  0  0  0  0  0  0
    3.2870   -1.8380    0.6640 C   0  0  0  0  0  0  0  0  0  0  0  0
    5.0690   -1.7480    0.7810 S   0  0  0  0  0  0  0  0  0  0  0  0
    2.4140   -0.8220    0.3920 N   0  0  0  0  0  0  0  0  0  0  0  0
    2.8920    0.4990    0.1600 C   0  0  0  0  0  0  0  0  0  0  0  0
    3.0110    1.3330    1.2730 C   0  0  0  0  0  0  0  0  0  0  0  0
    3.4810    2.6180    1.0950 C   0  0  0  0  0  0  0  0  0  0  0  0
    3.8220    3.0550   -0.1580 C   0  0  0  0  0  0  0  0  0  0  0  0
    3.7080    2.2400   -1.2580 C   0  0  0  0  0  0  0  0  0  0  0  0
    3.2390    0.9470   -1.1060 C   0  0  0  0  0  0  0  0  0  0  0  0
   -2.9700    0.5960   -0.3090 C   0  0  0  0  0  0  0  0  0  0  0  0
   -4.2690    0.9070   -0.4730 C   0  0  0  0  0  0  0  0  0  0  0  0
   -4.6060    2.2820   -0.7790 C   0  0  0  0  0  0  0  0  0  0  0  0
   -3.7270    3.1600   -0.8900 O   0  0  0  0  0  0  0  0  0  0  0  0
   -5.2300   -0.0890   -0.3440 O   0  0  0  0  0  0  0  0  0  0  0  0
   -4.8730   -1.3720   -0.0560 N   0  0  0  0  0  0  0  0  0  0  0  0
  1  2  1  0
  2  3  2  0
  2 25  1  0
  3  4  1  0
  3 20  1  0
  4  5  2  3
  5  6  1  0
  5  8  1  0
  6  7  3  0
  8  9  2  0
  8 13  1  0
  9 10  1  0
 10 11  2  0
 11 12  1  0
 11 13  1  0
 13 14  1  0
 14 15  2  0
 14 19  1  0
 15 16  1  0
 16 17  2  0
 17 18  1  0
 18 19  2  0
 20 21  2  0
 21 22  1  0
 21 24  1  0
 22 23  2  0
 24 25  1  0
M  END
