
     RDKit          3D

 26 28  0  0  0  0  0  0  0  0999 V2000
   -2.9260    2.0150    1.3340 C   0  0  0  0  0  0  0  0  0  0  0  0
   -2.8720    2.4350   -0.1100 C   0  0  0  0  0  0  0  0  0  0  0  0
   -3.6320    1.6220   -1.0000 N   0  0  0  0  0  0  0  0  0  0  0  0
   -3.3060    0.3000   -1.3700 C   0  0  0  0  0  0  0  0  0  0  0  0
   -2.1010   -0.2820   -0.9840 C   0  0  0  0  0  0  0  0  0  0  0  0
   -1.7640   -1.5310   -1.3450 N   0  0  0  0  0  0  0  0  0  0  0  0
   -0.6350   -2.0860   -0.9370 C   0  0  0  0  0  0  0  0  0  0  0  0
    0.4830   -1.4150   -0.3150 C   0  0  0  0  0  0  0  0  0  0  0  0
    0.8810   -0.1870   -0.4190 C   0  0  0  0  0  0  0  0  0  0  0  0
    2.0390    0.3240    0.2930 C   0  0  0  0  0  0  0  0  0  0  0  0
    2.8290   -0.5700    1.1480 C   0  0  0  0  0  0  0  0  0  0  0  0
    2.3590    1.5900    0.1280 C   0  0  0  0  0  0  0  0  0  0  0  0
    3.5250    2.2000    0.8160 C   0  0  0  0  0  0  0  0  0  0  0  0
    4.1390    2.2700    1.7780 N   0  0  0  0  0  0  0  0  0  0  0  0
    5.2090    2.9550    2.0920 C   0  0  0  0  0  0  0  0  0  0  0  0
    5.7110    3.7470    1.1050 C   0  0  0  0  0  0  0  0  0  0  0  0
    4.5360    3.4260   -0.2820 S   0  0  0  0  0  0  0  0  0  0  0  0
    1.2350   -2.2910    0.5480 O   0  0  0  0  0  0  0  0  0  0  0  0
    0.4540   -2.9520    1.5540 C   0  0  0  0  0  0  0  0  0  0  0  0
   -0.4190   -3.4280   -1.3270 C   0  0  0  0  0  0  0  0  0  0  0  0
   -1.3360   -4.0990   -2.0900 C   0  0  0  0  0  0  0  0  0  0  0  0
   -2.4380   -3.4580   -2.4580 N   0  0  0  0  0  0  0  0  0  0  0  0
   -2.6840   -2.1850   -2.1080 C   0  0  0  0  0  0  0  0  0  0  0  0
   -3.8480   -1.6530   -2.4950 N   0  0  0  0  0  0  0  0  0  0  0  0
   -4.2080   -0.4150   -2.1540 C   0  0  0  0  0  0  0  0  0  0  0  0
   -5.3000    0.1090   -2.5080 O   0  0  0  0  0  0  0  0  0  0  0  0
  1  2  1  0
  2  3  1  0
  3  4  1  0
  4  5  2  0
  4 25  1  0
  5  6  1  0
  6  7  1  0
  6 23  1  0
  7  8  1  0
  7 20  2  0
  8  9  2  3
  8 18  1  0
  9 10  1  0
 10 11  1  0
 10 12  2  3
 12 13  1  0
 13 14  2  0
 13 17  1  0
 14 15  1  0
 15 16  2  0
 16 17  1  0
 18 19  1  0
 20 21  1  0
 21 22  2  0
 22 23  1  0
 23 24  2  0
 24 25  1  0
 25 26  2  0
M  END
