
     RDKit          3D

 26 28  0  0  0  0  0  0  0  0999 V2000
    1.2100   -3.3580    0.5770 C   0  0  0  0  0  0  0  0  0  0  0  0
    0.0830   -3.2340   -0.4430 C   0  0  0  0  0  0  0  0  0  0  0  0
    0.1970   -1.9560   -1.2200 C   0  0  0  0  0  0  0  0  0  0  0  0
    0.1240   -0.7500   -0.4230 N   0  0  0  0  0  0  0  0  0  0  0  0
   -1.0010   -0.1880    0.2190 C   0  0  0  0  0  0  0  0  0  0  0  0
   -2.2760   -0.5220    0.2140 C   0  0  0  0  0  0  0  0  0  0  0  0
   -2.9060   -1.6360   -0.5110 C   0  0  0  0  0  0  0  0  0  0  0  0
   -3.2170    0.2770    1.0830 C   0  0  0  0  0  0  0  0  0  0  0  0
   -4.4520    1.1230    0.1840 S   0  0  1  0  0  0  0  0  0  0  0  0
   -3.8190    2.1660   -0.7150 O   0  0  0  0  0  0  0  0  0  0  0  0
   -5.4140    0.2790   -0.5580 O   0  0  0  0  0  0  0  0  0  0  0  0
   -5.4420    2.0400    1.3820 C   0  0  0  0  0  0  0  0  0  0  0  0
   -6.5160    2.7560    0.5750 C   0  0  0  0  0  0  0  0  0  0  0  0
   -0.4800    0.9770    0.9120 N   0  0  0  0  0  0  0  0  0  0  0  0
    0.9080    1.1110    0.6940 C   0  0  0  0  0  0  0  0  0  0  0  0
    1.8740    2.0190    1.1170 C   0  0  0  0  0  0  0  0  0  0  0  0
    3.1680    1.8210    0.7000 C   0  0  0  0  0  0  0  0  0  0  0  0
    3.5380    0.7680   -0.1140 C   0  0  0  0  0  0  0  0  0  0  0  0
    4.9240    0.5820   -0.5240 C   0  0  0  0  0  0  0  0  0  0  0  0
    5.3190   -0.4730   -1.3120 C   0  0  0  0  0  0  0  0  0  0  0  0
    6.6130   -0.6380   -1.6750 N   0  0  0  0  0  0  0  0  0  0  0  0
    7.5590    0.2500   -1.2630 C   0  0  0  0  0  0  0  0  0  0  0  0
    7.1410    1.2940   -0.4790 C   0  0  0  0  0  0  0  0  0  0  0  0
    5.8510    1.4740   -0.1050 N   0  0  0  0  0  0  0  0  0  0  0  0
    2.5690   -0.0790   -0.4960 N   0  0  0  0  0  0  0  0  0  0  0  0
    1.2860    0.0790   -0.1080 C   0  0  0  0  0  0  0  0  0  0  0  0
  1  2  1  0
  2  3  1  0
  3  4  1  0
  4  5  1  0
  4 26  1  0
  5  6  2  3
  5 14  1  0
  6  7  1  0
  6  8  1  0
  9  8  1  1
  9 10  2  0
  9 11  2  0
  9 12  1  0
 12 13  1  0
 14 15  1  0
 15 16  2  0
 15 26  1  0
 16 17  1  0
 17 18  2  0
 18 19  1  0
 18 25  1  0
 19 20  2  0
 19 24  1  0
 20 21  1  0
 21 22  2  0
 22 23  1  0
 23 24  2  0
 25 26  2  0
M  END
