
     RDKit          3D

 26 28  0  0  0  0  0  0  0  0999 V2000
   -4.6750    2.6360   -0.5260 C   0  0  0  0  0  0  0  0  0  0  0  0
   -3.5090    1.7280   -0.5740 C   0  0  0  0  0  0  0  0  0  0  0  0
   -3.3960    0.7380    0.2620 C   0  0  0  0  0  0  0  0  0  0  0  0
   -4.4730    0.5280    1.2910 C   0  0  0  0  0  0  0  0  0  0  0  0
   -2.3400   -0.1930    0.2100 N   0  0  0  0  0  0  0  0  0  0  0  0
   -1.3970   -0.3570    1.2290 C   0  0  0  0  0  0  0  0  0  0  0  0
   -1.4170    0.3570    2.2560 O   0  0  0  0  0  0  0  0  0  0  0  0
   -0.3190   -1.4120    1.1310 C   0  0  0  0  0  0  0  0  0  0  0  0
    0.0660   -1.6260   -0.2730 C   0  0  0  0  0  0  0  0  0  0  0  0
    0.9470   -0.9190   -1.0160 C   0  0  0  0  0  0  0  0  0  0  0  0
    1.8500    0.1800   -0.6810 C   0  0  0  0  0  0  0  0  0  0  0  0
    1.5960    1.5290   -0.5410 C   0  0  0  0  0  0  0  0  0  0  0  0
    0.2580    2.1720   -0.6720 C   0  0  0  0  0  0  0  0  0  0  0  0
    2.7700    2.1050   -0.2720 N   0  0  0  0  0  0  0  0  0  0  0  0
    3.7620    1.1870   -0.2340 N   0  0  0  0  0  0  0  0  0  0  0  0
    3.2510    0.0360   -0.4710 C   0  0  0  0  0  0  0  0  0  0  0  0
    4.1510   -1.1520   -0.4760 C   0  0  0  0  0  0  0  0  0  0  0  0
    5.7760   -0.3420   -0.5000 S   0  0  0  0  0  0  0  0  0  0  0  0
    5.1800    1.2700   -0.0200 C   0  0  0  0  0  0  0  0  0  0  0  0
    5.9110    2.2110    0.3880 N   0  0  0  0  0  0  0  0  0  0  0  0
    5.5070    3.5340    0.7750 C   0  0  0  0  0  0  0  0  0  0  0  0
    0.8780   -1.4730   -2.2560 N   0  0  0  0  0  0  0  0  0  0  0  0
    0.0200   -2.4390   -2.2550 O   0  0  0  0  0  0  0  0  0  0  0  0
   -0.5350   -2.6140   -1.0900 C   0  0  0  0  0  0  0  0  0  0  0  0
   -1.5550   -3.5800   -0.6130 C   0  0  0  0  0  0  0  0  0  0  0  0
   -1.0220   -4.6950    0.2180 C   0  0  0  0  0  0  0  0  0  0  0  0
  1  2  1  0
  2  3  2  3
  3  4  1  0
  3  5  1  0
  5  6  1  0
  6  7  2  0
  6  8  1  0
  8  9  1  0
  9 10  1  0
  9 24  2  0
 10 11  1  0
 10 22  2  0
 11 12  1  0
 11 16  2  0
 12 13  1  0
 12 14  2  0
 14 15  1  0
 15 16  1  0
 15 19  1  0
 16 17  1  0
 17 18  1  0
 18 19  1  0
 19 20  2  3
 20 21  1  0
 22 23  1  0
 23 24  1  0
 24 25  1  0
 25 26  1  0
M  END
