
     RDKit          3D

 12 13  0  0  0  0  0  0  0  0999 V2000
   -0.1660   -0.6690    0.0980 C   0  0  0  0  0  0  0  0  0  0  0  0
    0.7790    0.0570    1.4120 S   0  0  0  0  0  0  0  0  0  0  0  0
    2.5390    0.0400    1.0440 C   0  0  0  0  0  0  0  0  0  0  0  0
    3.4160   -0.9340    1.3480 N   0  0  0  0  0  0  0  0  0  0  0  0
    4.6490   -0.6040    0.9170 C   0  0  0  0  0  0  0  0  0  0  0  0
    4.5420    0.6410    0.3110 C   0  0  0  0  0  0  0  0  0  0  0  0
    3.2600    0.9840    0.4120 N   0  0  0  0  0  0  0  0  0  0  0  0
   -1.4550   -0.4940    0.0270 C   0  0  0  0  0  0  0  0  0  0  0  0
   -2.4210   -1.0070   -0.9770 C   0  0  0  0  0  0  0  0  0  0  0  0
   -3.3960    0.1650   -1.0600 C   0  0  0  0  0  0  0  0  0  0  0  0
   -3.3920    0.8080    0.2120 N   0  0  0  0  0  0  0  0  0  0  0  0
   -2.2790    0.2890    0.9780 C   0  0  0  0  0  0  0  0  0  0  0  0
  1  2  1  0
  1  8  2  3
  2  3  1  0
  3  4  2  0
  3  7  1  0
  4  5  1  0
  5  6  2  0
  6  7  1  0
  8  9  1  0
  8 12  1  0
  9 10  1  0
 10 11  1  0
 11 12  1  0
M  END
