
     RDKit          3D

 22 23  0  0  0  0  0  0  0  0999 V2000
   -1.7770    4.0620    1.4940 C   0  0  0  0  0  0  0  0  0  0  0  0
   -2.3820    2.7490    1.9180 C   0  0  0  0  0  0  0  0  0  0  0  0
   -2.6060    1.7510    0.8400 C   0  0  0  0  0  0  0  0  0  0  0  0
   -1.5530    1.2610    0.1010 N   0  0  0  0  0  0  0  0  0  0  0  0
   -0.8370    2.0390   -0.8280 C   0  0  0  0  0  0  0  0  0  0  0  0
    0.5720    1.6480   -1.0080 C   0  0  0  0  0  0  0  0  0  0  0  0
    0.8070    0.2430   -0.4510 C   0  0  0  0  0  0  0  0  0  0  0  0
   -0.2340   -0.5810   -0.1840 C   0  0  0  0  0  0  0  0  0  0  0  0
    0.5710   -1.9880    0.4040 S   0  0  0  0  0  0  0  0  0  0  0  0
    2.1890   -1.4700    0.2860 C   0  0  0  0  0  0  0  0  0  0  0  0
    3.3250   -2.3680    0.6960 C   0  0  0  0  0  0  0  0  0  0  0  0
    2.0760   -0.2310   -0.2020 C   0  0  0  0  0  0  0  0  0  0  0  0
    3.2700    0.6520   -0.4890 C   0  0  0  0  0  0  0  0  0  0  0  0
    4.5340    0.2010   -0.2560 N   0  0  2  0  0  0  0  0  0  0  0  0
    5.1590    0.5960    0.9990 C   0  0  0  0  0  0  0  0  0  0  0  0
    5.4510    0.8600   -1.2740 C   0  0  0  0  0  0  0  0  0  0  0  0
   -1.6090   -0.0900   -0.4330 C   0  0  1  0  0  0  0  0  0  0  0  0
   -2.7080   -0.9010   -0.0260 C   0  0  0  0  0  0  0  0  0  0  0  0
   -3.0360   -2.2710   -0.4260 C   0  0  2  0  0  0  0  0  0  0  0  0
   -3.2410   -2.4460   -1.9250 C   0  0  0  0  0  0  0  0  0  0  0  0
   -4.4900   -2.4930    0.1220 C   0  0  0  0  0  0  0  0  0  0  0  0
   -2.2700   -3.4020    0.1980 C   0  0  0  0  0  0  0  0  0  0  0  0
  1  2  1  0
  2  3  1  0
  3  4  1  0
  4  5  1  0
  4 17  1  0
  5  6  1  0
  6  7  1  0
  7  8  2  0
  7 12  1  0
  8  9  1  0
  8 17  1  0
  9 10  1  0
 10 11  1  0
 10 12  2  0
 12 13  1  0
 13 14  1  0
 14 15  1  1
 14 16  1  0
 17 18  1  1
 18 19  1  0
 19 20  1  6
 19 21  1  0
 19 22  1  0
M  CHG  1  14   1
M  END
