
     RDKit          3D

 12 13  0  0  0  0  0  0  0  0999 V2000
    3.5490   -0.8580    0.3380 C   0  0  0  0  0  0  0  0  0  0  0  0
    2.4280   -0.3710   -0.1850 C   0  0  0  0  0  0  0  0  0  0  0  0
    1.2400   -1.2650   -0.1370 C   0  0  0  0  0  0  0  0  0  0  0  0
    0.1370   -0.8690    0.6330 N   0  0  0  0  0  0  0  0  0  0  0  0
   -0.6920    0.2090    0.1910 C   0  0  2  0  0  0  0  0  0  0  0  0
   -1.5660    0.7220    1.3300 C   0  0  0  0  0  0  0  0  0  0  0  0
   -2.9880    0.5500    0.9390 C   0  0  0  0  0  0  0  0  0  0  0  0
   -3.0280    0.1210   -0.4880 C   0  0  0  0  0  0  0  0  0  0  0  0
   -1.6450   -0.2490   -0.9050 C   0  0  0  0  0  0  0  0  0  0  0  0
    2.5210    0.8650   -0.7480 N   0  0  0  0  0  0  0  0  0  0  0  0
    3.7310    1.5630   -0.6400 N   0  0  0  0  0  0  0  0  0  0  0  0
    4.7990    0.3900    0.1650 S   0  0  0  0  0  0  0  0  0  0  0  0
  1  2  2  0
  1 12  1  0
  2  3  1  0
  2 10  1  0
  3  4  1  0
  5  4  1  1
  5  6  1  0
  5  9  1  0
  6  7  1  0
  7  8  1  0
  8  9  1  0
 10 11  1  0
 11 12  1  0
M  END
