
     RDKit          3D

 12 13  0  0  0  0  0  0  0  0999 V2000
    3.8070    0.5200    0.0460 C   0  0  0  0  0  0  0  0  0  0  0  0
    2.4620   -0.1430   -0.1000 C   0  0  0  0  0  0  0  0  0  0  0  0
    2.2070   -1.4510   -0.4410 C   0  0  0  0  0  0  0  0  0  0  0  0
    0.8640   -1.5930   -0.4480 N   0  0  0  0  0  0  0  0  0  0  0  0
    0.2650   -0.4470   -0.1300 C   0  0  0  0  0  0  0  0  0  0  0  0
   -1.1720   -0.1580   -0.0210 C   0  0  0  0  0  0  0  0  0  0  0  0
   -2.1580   -1.0010   -0.2230 C   0  0  0  0  0  0  0  0  0  0  0  0
   -3.4810   -0.3920   -0.0310 C   0  0  0  0  0  0  0  0  0  0  0  0
   -3.1580    1.0110    0.3340 C   0  0  0  0  0  0  0  0  0  0  0  0
   -4.2780    2.1520    0.6620 S   0  0  0  0  0  0  0  0  0  0  0  0
   -1.7440    1.0870    0.3220 N   0  0  0  0  0  0  0  0  0  0  0  0
    1.2600    0.4370    0.0820 N   0  0  0  0  0  0  0  0  0  0  0  0
  1  2  1  0
  2  3  2  0
  2 12  1  0
  3  4  1  0
  4  5  2  0
  5  6  1  0
  5 12  1  0
  6  7  2  0
  6 11  1  0
  7  8  1  0
  8  9  1  0
  9 10  2  0
  9 11  1  0
M  END
