
     RDKit          3D

 28 29  0  0  0  0  0  0  0  0999 V2000
   -5.7620    0.4350    0.0150 C   0  0  0  0  0  0  0  0  0  0  0  0
   -4.7690    1.3160    0.7080 C   0  0  1  0  0  0  0  0  0  0  0  0
   -4.4710    2.5270   -0.1450 C   0  0  0  0  0  0  0  0  0  0  0  0
   -5.4180    1.8510    1.9810 C   0  0  0  0  0  0  0  0  0  0  0  0
   -3.6400    0.6010    1.0750 O   0  0  0  0  0  0  0  0  0  0  0  0
   -2.7940   -0.0650    0.2030 C   0  0  0  0  0  0  0  0  0  0  0  0
   -3.1040    0.0040   -1.0290 O   0  0  0  0  0  0  0  0  0  0  0  0
   -1.6490   -0.7850    0.6420 N   0  0  0  0  0  0  0  0  0  0  0  0
   -0.8100   -1.4570   -0.3310 C   0  0  2  0  0  0  0  0  0  0  0  0
   -0.8100   -2.9220   -0.0770 C   0  0  0  0  0  0  0  0  0  0  0  0
   -1.4700   -3.4300    0.8690 O   0  0  0  0  0  0  0  0  0  0  0  0
   -0.0470   -3.7740   -0.9210 N   0  0  0  0  0  0  0  0  0  0  0  0
   -0.0300   -5.1170   -0.7100 O   0  0  0  0  0  0  0  0  0  0  0  0
    0.5860   -0.9580   -0.2830 C   0  0  0  0  0  0  0  0  0  0  0  0
    1.1860   -0.7920    0.9370 C   0  0  0  0  0  0  0  0  0  0  0  0
    2.4940   -0.3240    0.9830 C   0  0  0  0  0  0  0  0  0  0  0  0
    3.1980   -0.0250   -0.1640 C   0  0  0  0  0  0  0  0  0  0  0  0
    4.5630    0.4640   -0.1020 C   0  0  0  0  0  0  0  0  0  0  0  0
    5.3960    0.0510    0.9150 C   0  0  0  0  0  0  0  0  0  0  0  0
    6.6810    0.5390    0.9360 C   0  0  0  0  0  0  0  0  0  0  0  0
    7.5280    0.1520    1.9260 F   0  0  0  0  0  0  0  0  0  0  0  0
    7.1480    1.4230   -0.0310 C   0  0  0  0  0  0  0  0  0  0  0  0
    8.4130    1.8500    0.0610 F   0  0  0  0  0  0  0  0  0  0  0  0
    6.2750    1.8080   -1.0320 C   0  0  0  0  0  0  0  0  0  0  0  0
    6.7700    2.6760   -1.9620 F   0  0  0  0  0  0  0  0  0  0  0  0
    4.9800    1.3370   -1.0810 C   0  0  0  0  0  0  0  0  0  0  0  0
    2.5670   -0.2010   -1.3840 C   0  0  0  0  0  0  0  0  0  0  0  0
    1.2520   -0.6720   -1.4340 C   0  0  0  0  0  0  0  0  0  0  0  0
  2  1  1  6
  2  3  1  0
  2  4  1  0
  2  5  1  0
  5  6  1  0
  6  7  2  0
  6  8  1  0
  9  8  1  1
  9 10  1  0
  9 14  1  0
 10 11  2  0
 10 12  1  0
 12 13  1  0
 14 15  2  0
 14 28  1  0
 15 16  1  0
 16 17  2  0
 17 18  1  0
 17 27  1  0
 18 19  2  0
 18 26  1  0
 19 20  1  0
 20 21  1  0
 20 22  2  0
 22 23  1  0
 22 24  1  0
 24 25  1  0
 24 26  2  0
 27 28  2  0
M  END
