
     RDKit          3D

 22 24  0  0  0  0  0  0  0  0999 V2000
   -4.2120    1.8410    1.0870 C   0  0  0  0  0  0  0  0  0  0  0  0
   -3.6300    1.2420    2.1480 C   0  0  0  0  0  0  0  0  0  0  0  0
   -3.9020    1.9040    3.4560 C   0  0  0  0  0  0  0  0  0  0  0  0
   -2.7590    0.1190    2.0040 C   0  0  0  0  0  0  0  0  0  0  0  0
   -2.2370   -0.5470    3.0080 C   0  0  0  0  0  0  0  0  0  0  0  0
   -2.3890   -0.3480    4.4470 C   0  0  0  0  0  0  0  0  0  0  0  0
   -2.3960   -0.3980    0.6340 C   0  0  0  0  0  0  0  0  0  0  0  0
   -1.4810    0.3480   -0.0850 N   0  0  0  0  0  0  0  0  0  0  0  0
   -1.5890    1.5870   -0.6410 C   0  0  0  0  0  0  0  0  0  0  0  0
   -0.3280    1.8640   -1.5120 C   0  0  0  0  0  0  0  0  0  0  0  0
   -0.2750    0.7060   -2.4790 C   0  0  0  0  0  0  0  0  0  0  0  0
    0.1780   -0.4860   -1.6670 C   0  0  1  0  0  0  0  0  0  0  0  0
    1.5560   -0.7690   -1.9030 N   0  0  1  0  0  0  0  0  0  0  0  0
    2.4410    0.3360   -2.0060 C   0  0  0  0  0  0  0  0  0  0  0  0
    3.6720   -0.1390   -2.7920 C   0  0  0  0  0  0  0  0  0  0  0  0
    4.4060   -1.0330   -1.7620 C   0  0  0  0  0  0  0  0  0  0  0  0
    5.7380   -1.1720   -1.5870 C   0  0  0  0  0  0  0  0  0  0  0  0
    6.1900   -1.9950   -0.6370 C   0  0  0  0  0  0  0  0  0  0  0  0
    4.6810   -2.6670    0.1180 S   0  0  0  0  0  0  0  0  0  0  0  0
    3.5470   -1.7200   -0.9840 C   0  0  0  0  0  0  0  0  0  0  0  0
    2.1040   -1.7310   -0.9870 C   0  0  0  0  0  0  0  0  0  0  0  0
   -0.1710   -0.2980   -0.2040 C   0  0  0  0  0  0  0  0  0  0  0  0
  1  2  2  0
  2  3  1  0
  2  4  1  0
  4  5  2  3
  4  7  1  0
  5  6  1  0
  7  8  1  0
  8  9  1  0
  8 22  1  0
  9 10  1  0
 10 11  1  0
 12 11  1  6
 12 13  1  0
 12 22  1  0
 13 14  1  1
 13 21  1  0
 14 15  1  0
 15 16  1  0
 16 17  1  0
 16 20  2  0
 17 18  2  0
 18 19  1  0
 19 20  1  0
 20 21  1  0
M  CHG  1  13   1
M  END
