
     RDKit          3D

 31 34  0  0  0  0  0  0  0  0999 V2000
    4.6280   -4.2760    0.1510 C   0  0  0  0  0  0  0  0  0  0  0  0
    4.7830   -2.9490    0.6670 O   0  0  0  0  0  0  0  0  0  0  0  0
    5.2670   -1.9280   -0.1390 C   0  0  0  0  0  0  0  0  0  0  0  0
    5.6100   -2.1500   -1.4390 N   0  0  0  0  0  0  0  0  0  0  0  0
    6.0800   -1.1630   -2.2280 C   0  0  0  0  0  0  0  0  0  0  0  0
    6.2160    0.0990   -1.6960 C   0  0  0  0  0  0  0  0  0  0  0  0
    6.7020    1.1070   -2.5190 O   0  0  0  0  0  0  0  0  0  0  0  0
    5.8720    0.3520   -0.3650 C   0  0  0  0  0  0  0  0  0  0  0  0
    5.3910   -0.6760    0.4240 C   0  0  0  0  0  0  0  0  0  0  0  0
    5.0340   -0.4690    1.7650 N   0  0  0  0  0  0  0  0  0  0  0  0
    4.0900    0.4420    2.0480 C   0  0  0  0  0  0  0  0  0  0  0  0
    3.5870    0.8130    3.2230 N   0  0  0  0  0  0  0  0  0  0  0  0
    2.6850    1.7170    3.1920 N   0  0  0  0  0  0  0  0  0  0  0  0
    2.2050    2.2990    2.2890 C   0  0  0  0  0  0  0  0  0  0  0  0
    1.2170    3.3350    1.8710 C   0  0  0  0  0  0  0  0  0  0  0  0
   -0.1290    2.7580    1.6100 C   0  0  0  0  0  0  0  0  0  0  0  0
   -0.1300    1.7270    0.5260 C   0  0  0  0  0  0  0  0  0  0  0  0
   -1.5400    1.2120    0.3480 C   0  0  0  0  0  0  0  0  0  0  0  0
   -2.4480    1.6750    1.0680 O   0  0  0  0  0  0  0  0  0  0  0  0
   -1.8440    0.2310   -0.6060 N   0  0  0  0  0  0  0  0  0  0  0  0
   -3.1040   -0.3460   -0.8950 C   0  0  0  0  0  0  0  0  0  0  0  0
   -3.1930   -1.4560   -1.7260 C   0  0  0  0  0  0  0  0  0  0  0  0
   -4.4010   -2.0260   -2.0330 C   0  0  0  0  0  0  0  0  0  0  0  0
   -5.5650   -1.4940   -1.5100 C   0  0  0  0  0  0  0  0  0  0  0  0
   -6.9140   -1.8300   -1.6240 C   0  0  0  0  0  0  0  0  0  0  0  0
   -7.6580   -0.9410   -0.8740 C   0  0  0  0  0  0  0  0  0  0  0  0
   -6.7920   -0.0810   -0.3130 N   0  0  0  0  0  0  0  0  0  0  0  0
   -7.1750    1.0130    0.5560 C   0  0  0  0  0  0  0  0  0  0  0  0
   -5.5330   -0.3970   -0.6820 C   0  0  0  0  0  0  0  0  0  0  0  0
   -4.2750    0.1550   -0.3950 C   0  0  0  0  0  0  0  0  0  0  0  0
    3.2030    1.4610    0.8700 S   0  0  0  0  0  0  0  0  0  0  0  0
  1  2  1  0
  2  3  1  0
  3  4  2  0
  3  9  1  0
  4  5  1  0
  5  6  2  0
  6  7  1  0
  6  8  1  0
  8  9  2  0
  9 10  1  0
 10 11  2  3
 11 12  1  0
 11 31  1  0
 12 13  1  0
 13 14  2  0
 14 15  1  0
 14 31  1  0
 15 16  1  0
 16 17  1  0
 17 18  1  0
 18 19  2  0
 18 20  1  0
 20 21  1  0
 21 22  2  0
 21 30  1  0
 22 23  1  0
 23 24  2  0
 24 25  1  0
 24 29  1  0
 25 26  2  0
 26 27  1  0
 27 28  1  0
 27 29  1  0
 29 30  2  0
M  END
