
     RDKit          3D

 29 30  0  0  0  0  0  0  0  0999 V2000
   -6.3880    0.5320   -0.4050 C   0  0  0  0  0  0  0  0  0  0  0  0
   -5.2590    1.3240   -1.0270 C   0  0  1  0  0  0  0  0  0  0  0  0
   -4.6950    0.5480   -2.2000 C   0  0  0  0  0  0  0  0  0  0  0  0
   -5.7600    2.6490   -1.5570 C   0  0  0  0  0  0  0  0  0  0  0  0
   -4.2070    1.5720   -0.0840 O   0  0  0  0  0  0  0  0  0  0  0  0
   -3.5440    0.5050    0.5030 C   0  0  0  0  0  0  0  0  0  0  0  0
   -3.9050   -0.6470    0.1730 O   0  0  0  0  0  0  0  0  0  0  0  0
   -2.4960    0.6380    1.4420 N   0  0  0  0  0  0  0  0  0  0  0  0
   -1.8690   -0.5200    1.9950 C   0  0  2  0  0  0  0  0  0  0  0  0
   -2.0280   -0.6650    3.4420 C   0  0  0  0  0  0  0  0  0  0  0  0
   -2.6070    0.2180    4.1670 O   0  0  0  0  0  0  0  0  0  0  0  0
   -1.5580   -1.7970    4.1640 N   0  0  0  0  0  0  0  0  0  0  0  0
   -1.7110   -1.9180    5.5080 O   0  0  0  0  0  0  0  0  0  0  0  0
   -0.4310   -0.6230    1.5600 C   0  0  0  0  0  0  0  0  0  0  0  0
   -0.1360   -0.5510    0.2160 C   0  0  0  0  0  0  0  0  0  0  0  0
    1.1580   -0.6210   -0.2630 C   0  0  0  0  0  0  0  0  0  0  0  0
    2.2190   -0.7680    0.6010 C   0  0  0  0  0  0  0  0  0  0  0  0
    3.6110   -0.8410    0.1000 C   0  0  0  0  0  0  0  0  0  0  0  0
    4.5160   -1.5990    0.8110 C   0  0  0  0  0  0  0  0  0  0  0  0
    5.8220   -1.7020    0.3950 C   0  0  0  0  0  0  0  0  0  0  0  0
    6.1920   -1.0130   -0.7660 C   0  0  0  0  0  0  0  0  0  0  0  0
    5.3070   -0.2550   -1.4870 C   0  0  0  0  0  0  0  0  0  0  0  0
    5.7140    0.4640   -2.7020 C   0  0  0  0  0  0  0  0  0  0  0  0
    6.8980    0.4300   -3.1380 N   0  0  0  0  0  0  0  0  0  0  0  0
    4.7500    1.2280   -3.4230 N   0  0  0  0  0  0  0  0  0  0  0  0
    5.2020    2.3500   -4.0480 O   0  0  0  0  0  0  0  0  0  0  0  0
    4.0100   -0.1900   -1.0200 C   0  0  0  0  0  0  0  0  0  0  0  0
    1.9320   -0.8400    1.9440 C   0  0  0  0  0  0  0  0  0  0  0  0
    0.6200   -0.7690    2.4290 C   0  0  0  0  0  0  0  0  0  0  0  0
  2  1  1  1
  2  3  1  0
  2  4  1  0
  2  5  1  0
  5  6  1  0
  6  7  2  0
  6  8  1  0
  9  8  1  1
  9 10  1  0
  9 14  1  0
 10 11  2  0
 10 12  1  0
 12 13  1  0
 14 15  2  0
 14 29  1  0
 15 16  1  0
 16 17  2  0
 17 18  1  0
 17 28  1  0
 18 19  2  0
 18 27  1  0
 19 20  1  0
 20 21  2  0
 21 22  1  0
 22 23  1  0
 22 27  2  0
 23 24  2  0
 23 25  1  0
 25 26  1  0
 28 29  2  0
M  CHG  1  24   1
M  END
