
     RDKit          3D

 31 34  0  0  0  0  0  0  0  0999 V2000
    8.1580   -2.7450    0.7640 C   0  0  0  0  0  0  0  0  0  0  0  0
    7.0850   -1.9690    0.1030 C   0  0  0  0  0  0  0  0  0  0  0  0
    7.1110   -1.3770   -1.1550 C   0  0  0  0  0  0  0  0  0  0  0  0
    5.8890   -0.7760   -1.3160 C   0  0  0  0  0  0  0  0  0  0  0  0
    5.1670   -1.0130   -0.1730 C   0  0  0  0  0  0  0  0  0  0  0  0
    3.8100   -0.5550    0.0890 C   0  0  0  0  0  0  0  0  0  0  0  0
    3.2030    0.1180   -0.7910 N   0  0  0  0  0  0  0  0  0  0  0  0
    1.9200    0.6410   -0.7330 N   0  0  0  0  0  0  0  0  0  0  0  0
    0.7330   -0.0540   -1.1360 C   0  0  0  0  0  0  0  0  0  0  0  0
    0.9160   -1.2380   -1.5710 O   0  0  0  0  0  0  0  0  0  0  0  0
   -0.5460    0.5300   -1.0580 N   0  0  0  0  0  0  0  0  0  0  0  0
   -1.7100   -0.1730   -1.4770 C   0  0  0  0  0  0  0  0  0  0  0  0
   -2.3310   -0.9570   -0.3630 C   0  0  0  0  0  0  0  0  0  0  0  0
   -1.8050   -0.9240    0.7570 O   0  0  0  0  0  0  0  0  0  0  0  0
   -3.4900   -1.7080   -0.6100 N   0  0  0  0  0  0  0  0  0  0  0  0
   -4.1990   -2.4950    0.3160 C   0  0  0  0  0  0  0  0  0  0  0  0
   -3.8820   -2.6480    1.6300 C   0  0  0  0  0  0  0  0  0  0  0  0
   -4.6320   -3.4430    2.4950 C   0  0  0  0  0  0  0  0  0  0  0  0
   -5.6980   -4.0820    2.0380 N   0  0  0  0  0  0  0  0  0  0  0  0
   -6.0460   -3.9530    0.7310 C   0  0  0  0  0  0  0  0  0  0  0  0
   -5.3270   -3.1820   -0.1300 C   0  0  0  0  0  0  0  0  0  0  0  0
   -5.7470   -3.0720   -1.5550 C   0  0  0  0  0  0  0  0  0  0  0  0
   -0.6580    1.8580   -0.5480 C   0  0  0  0  0  0  0  0  0  0  0  0
   -0.1560    2.9690   -0.8440 N   0  0  0  0  0  0  0  0  0  0  0  0
   -0.3930    4.0900   -0.2380 C   0  0  0  0  0  0  0  0  0  0  0  0
   -1.2880    4.0410    0.8390 C   0  0  0  0  0  0  0  0  0  0  0  0
   -1.6910    2.3300    0.8450 S   0  0  0  0  0  0  0  0  0  0  0  0
   -1.4610    5.3850    1.4340 C   0  0  0  0  0  0  0  0  0  0  0  0
   -0.1020    5.9970    1.0820 C   0  0  0  0  0  0  0  0  0  0  0  0
    0.0400    5.5540   -0.3530 C   0  0  0  0  0  0  0  0  0  0  0  0
    5.9220   -1.7230    0.6330 O   0  0  0  0  0  0  0  0  0  0  0  0
  1  2  1  0
  2  3  2  0
  2 31  1  0
  3  4  1  0
  4  5  2  0
  5  6  1  0
  5 31  1  0
  6  7  2  3
  7  8  1  0
  8  9  1  0
  9 10  2  0
  9 11  1  0
 11 12  1  0
 11 23  1  0
 12 13  1  0
 13 14  2  0
 13 15  1  0
 15 16  1  0
 16 17  2  0
 16 21  1  0
 17 18  1  0
 18 19  2  0
 19 20  1  0
 20 21  2  0
 21 22  1  0
 23 24  2  0
 23 27  1  0
 24 25  1  0
 25 26  2  0
 25 30  1  0
 26 27  1  0
 26 28  1  0
 28 29  1  0
 29 30  1  0
M  END
