
     RDKit          3D

 31 34  0  0  0  0  0  0  0  0999 V2000
   -2.4520   -4.2060    2.2420 C   0  0  0  0  0  0  0  0  0  0  0  0
   -2.1390   -3.0890    1.3320 C   0  0  0  0  0  0  0  0  0  0  0  0
   -1.6830   -1.8890    1.8360 C   0  0  0  0  0  0  0  0  0  0  0  0
   -1.3870   -0.8320    0.9780 C   0  0  0  0  0  0  0  0  0  0  0  0
   -1.5360   -0.9470   -0.3860 C   0  0  0  0  0  0  0  0  0  0  0  0
   -1.2210    0.1550   -1.3050 C   0  0  0  0  0  0  0  0  0  0  0  0
   -0.7590    1.3560   -0.6860 N   0  0  0  0  0  0  0  0  0  0  0  0
   -1.6370    2.3730   -0.2840 C   0  0  0  0  0  0  0  0  0  0  0  0
   -2.9000    2.2130   -0.4440 O   0  0  0  0  0  0  0  0  0  0  0  0
   -1.1710    3.6400    0.3210 C   0  0  0  0  0  0  0  0  0  0  0  0
   -2.2890    4.5360    0.6690 C   0  0  0  0  0  0  0  0  0  0  0  0
   -2.9270    5.4340   -0.1700 C   0  0  0  0  0  0  0  0  0  0  0  0
   -3.8820    6.0560    0.5340 N   0  0  0  0  0  0  0  0  0  0  0  0
   -3.8660    5.5800    1.7960 C   0  0  0  0  0  0  0  0  0  0  0  0
   -2.8880    4.6490    1.8680 N   0  0  0  0  0  0  0  0  0  0  0  0
    0.6410    1.5950   -0.4420 C   0  0  0  0  0  0  0  0  0  0  0  0
    1.3780    2.5280   -0.1220 N   0  0  0  0  0  0  0  0  0  0  0  0
    2.6320    2.4640    0.0380 N   0  0  0  0  0  0  0  0  0  0  0  0
    3.2560    1.3070   -0.1440 C   0  0  0  0  0  0  0  0  0  0  0  0
    4.6340    0.8740   -0.0520 C   0  0  0  0  0  0  0  0  0  0  0  0
    5.1610   -0.3790   -0.2620 C   0  0  0  0  0  0  0  0  0  0  0  0
    6.5050   -0.2960   -0.0630 C   0  0  0  0  0  0  0  0  0  0  0  0
    7.5570   -1.3390   -0.1590 C   0  0  0  0  0  0  0  0  0  0  0  0
    7.0720   -2.5690   -0.5370 O   0  0  0  0  0  0  0  0  0  0  0  0
    6.7460    0.9810    0.2560 N   0  0  0  0  0  0  0  0  0  0  0  0
    5.6130    1.6460    0.2530 O   0  0  0  0  0  0  0  0  0  0  0  0
    1.8570    0.2620   -0.5830 S   0  0  0  0  0  0  0  0  0  0  0  0
   -1.9910   -2.1470   -0.8810 C   0  0  0  0  0  0  0  0  0  0  0  0
   -2.1670   -2.3140   -2.3370 C   0  0  0  0  0  0  0  0  0  0  0  0
   -2.2880   -3.2020   -0.0320 C   0  0  0  0  0  0  0  0  0  0  0  0
   -2.7820   -4.4920   -0.5760 C   0  0  0  0  0  0  0  0  0  0  0  0
  1  2  1  0
  2  3  2  0
  2 30  1  0
  3  4  1  0
  4  5  2  0
  5  6  1  0
  5 28  1  0
  6  7  1  0
  7  8  1  0
  7 16  1  0
  8  9  2  0
  8 10  1  0
 10 11  1  0
 11 12  2  0
 11 15  1  0
 12 13  1  0
 13 14  2  0
 14 15  1  0
 16 17  2  0
 16 27  1  0
 17 18  1  0
 18 19  2  0
 19 20  1  0
 19 27  1  0
 20 21  2  0
 20 26  1  0
 21 22  1  0
 22 23  1  0
 22 25  2  0
 23 24  1  0
 25 26  1  0
 28 29  1  0
 28 30  2  0
 30 31  1  0
M  END
