
     RDKit          3D

 31 34  0  0  0  0  0  0  0  0999 V2000
   -5.5630   -3.5060    0.1320 C   0  0  0  0  0  0  0  0  0  0  0  0
   -5.5860   -2.2730    0.8900 N   0  0  0  0  0  0  0  0  0  0  0  0
   -4.1340   -1.3930    0.5220 S   0  0  1  0  0  0  0  0  0  0  0  0
   -4.1290   -1.2380   -0.9790 O   0  0  0  0  0  0  0  0  0  0  0  0
   -4.1530   -0.0430    1.1680 O   0  0  0  0  0  0  0  0  0  0  0  0
   -2.7240   -2.2800    0.9840 C   0  0  0  0  0  0  0  0  0  0  0  0
   -1.5140   -1.7970    0.7030 C   0  0  0  0  0  0  0  0  0  0  0  0
   -1.3110   -0.5370    0.0150 C   0  0  0  0  0  0  0  0  0  0  0  0
   -0.2090    0.0520   -0.2990 C   0  0  0  0  0  0  0  0  0  0  0  0
   -0.2650    1.3470   -1.0320 C   0  0  0  0  0  0  0  0  0  0  0  0
   -1.2490    1.9250   -1.3760 N   0  0  0  0  0  0  0  0  0  0  0  0
   -2.5550    1.9590   -1.4190 N   0  0  0  0  0  0  0  0  0  0  0  0
   -3.2630    3.0260   -0.7380 C   0  0  0  0  0  0  0  0  0  0  0  0
   -3.6120    2.9570    0.5470 N   0  0  0  0  0  0  0  0  0  0  0  0
   -4.2720    4.0180    1.0800 C   0  0  0  0  0  0  0  0  0  0  0  0
   -4.5840    5.1410    0.3430 C   0  0  0  0  0  0  0  0  0  0  0  0
   -4.2110    5.1840   -0.9830 C   0  0  0  0  0  0  0  0  0  0  0  0
   -3.5620    4.1140   -1.4640 N   0  0  0  0  0  0  0  0  0  0  0  0
    1.1200   -0.3380    0.1330 C   0  0  0  0  0  0  0  0  0  0  0  0
    1.4590   -1.0990    1.2040 C   0  0  0  0  0  0  0  0  0  0  0  0
    2.7600   -1.4760    1.4450 C   0  0  0  0  0  0  0  0  0  0  0  0
    3.7730   -1.0880    0.6000 C   0  0  0  0  0  0  0  0  0  0  0  0
    5.0950   -1.4660    0.8380 C   0  0  0  0  0  0  0  0  0  0  0  0
    6.0500   -1.0470   -0.0370 C   0  0  0  0  0  0  0  0  0  0  0  0
    5.7020   -0.2720   -1.1210 C   0  0  0  0  0  0  0  0  0  0  0  0
    4.4000    0.1040   -1.3610 C   0  0  0  0  0  0  0  0  0  0  0  0
    3.3970   -0.3130   -0.4770 C   0  0  0  0  0  0  0  0  0  0  0  0
    2.1380    0.0440   -0.7010 N   0  0  0  0  0  0  0  0  0  0  0  0
    6.9860   -0.0060   -1.8470 C   0  0  0  0  0  0  0  0  0  0  0  0
    7.9230   -0.8710   -1.3440 O   0  0  0  0  0  0  0  0  0  0  0  0
    7.4940   -1.2620   -0.0810 C   0  0  0  0  0  0  0  0  0  0  0  0
  1  2  1  0
  3  2  1  6
  3  4  2  0
  3  5  2  0
  3  6  1  0
  6  7  2  3
  7  8  1  0
  8  9  2  3
  9 10  1  0
  9 19  1  0
 10 11  2  3
 11 12  1  0
 12 13  1  0
 13 14  2  0
 13 18  1  0
 14 15  1  0
 15 16  2  0
 16 17  1  0
 17 18  2  0
 19 20  2  0
 19 28  1  0
 20 21  1  0
 21 22  2  0
 22 23  1  0
 22 27  1  0
 23 24  2  0
 24 25  1  0
 24 31  1  0
 25 26  2  0
 25 29  1  0
 26 27  1  0
 27 28  2  0
 29 30  1  0
 30 31  1  0
M  END
