
     RDKit          3D

 30 33  0  0  0  0  0  0  0  0999 V2000
   -3.1830    1.2980   -0.4830 O   0  0  0  0  0  0  0  0  0  0  0  0
   -2.1200    0.7550   -0.0550 C   0  0  0  0  0  0  0  0  0  0  0  0
   -2.0350   -0.5760    0.1080 N   0  0  0  0  0  0  0  0  0  0  0  0
   -0.9380   -1.2110    0.5580 C   0  0  0  0  0  0  0  0  0  0  0  0
   -0.9250   -2.6630    0.7160 C   0  0  0  0  0  0  0  0  0  0  0  0
    0.0800   -3.4730    0.4540 C   0  0  0  0  0  0  0  0  0  0  0  0
    1.6340   -2.9700   -0.1490 Cl  0  0  0  0  0  0  0  0  0  0  0  0
   -0.3260   -4.8660    0.7570 C   0  0  0  0  0  0  0  0  0  0  0  0
   -1.8470   -4.7180    0.6040 C   0  0  0  0  0  0  0  0  0  0  0  0
   -2.0470   -3.4090    1.1920 N   0  0  0  0  0  0  0  0  0  0  0  0
    0.1750   -0.4640    0.8730 C   0  0  0  0  0  0  0  0  0  0  0  0
    0.1620    0.9210    0.7290 C   0  0  0  0  0  0  0  0  0  0  0  0
    1.3130    1.7040    1.0700 N   0  0  0  0  0  0  0  0  0  0  0  0
    2.5500    1.1510    1.5220 C   0  0  0  0  0  0  0  0  0  0  0  0
    3.3200    0.4120    0.4620 C   0  0  0  0  0  0  0  0  0  0  0  0
    2.8700    0.3600   -0.7550 C   0  0  0  0  0  0  0  0  0  0  0  0
    3.4470   -0.2970   -1.9290 C   0  0  0  0  0  0  0  0  0  0  0  0
    4.9600   -1.1000   -1.5650 S   0  0  2  0  0  0  0  0  0  0  0  0
    6.0730   -0.4620   -2.3880 O   0  0  0  0  0  0  0  0  0  0  0  0
    4.9140   -2.5680   -1.9320 O   0  0  0  0  0  0  0  0  0  0  0  0
    5.3460   -0.8860    0.1160 C   0  0  0  0  0  0  0  0  0  0  0  0
    4.5630   -0.2130    0.9010 C   0  0  0  0  0  0  0  0  0  0  0  0
   -0.9990    1.4910    0.2640 C   0  0  0  0  0  0  0  0  0  0  0  0
   -1.0490    3.2550    0.0710 S   0  0  0  0  0  0  0  0  0  0  0  0
   -2.6030    3.8340   -0.5280 C   0  0  0  0  0  0  0  0  0  0  0  0
   -2.8730    3.9680   -1.8730 C   0  0  0  0  0  0  0  0  0  0  0  0
   -4.1070    4.4280   -2.3360 C   0  0  0  0  0  0  0  0  0  0  0  0
   -5.0610    4.7490   -1.3770 C   0  0  0  0  0  0  0  0  0  0  0  0
   -4.7460    4.5980   -0.0450 C   0  0  0  0  0  0  0  0  0  0  0  0
   -3.5510    4.1530    0.3870 N   0  0  0  0  0  0  0  0  0  0  0  0
  1  2  2  0
  2  3  1  0
  2 23  1  0
  3  4  1  0
  4  5  1  0
  4 11  2  0
  5  6  2  0
  5 10  1  0
  6  7  1  0
  6  8  1  0
  8  9  1  0
  9 10  1  0
 11 12  1  0
 12 13  1  0
 12 23  2  0
 13 14  1  0
 14 15  1  0
 15 16  2  0
 15 22  1  0
 16 17  1  0
 18 17  1  1
 18 19  2  0
 18 20  2  0
 18 21  1  0
 21 22  2  0
 23 24  1  0
 24 25  1  0
 25 26  2  0
 25 30  1  0
 26 27  1  0
 27 28  2  0
 28 29  1  0
 29 30  2  0
M  CHG  1  10   1
M  END
