
     RDKit          3D

 31 34  0  0  0  0  0  0  0  0999 V2000
   -1.4530   -2.3130    2.3430 C   0  0  0  0  0  0  0  0  0  0  0  0
   -2.1900   -2.5410    1.0640 C   0  0  0  0  0  0  0  0  0  0  0  0
   -3.4000   -3.1190    1.0130 N   0  0  0  0  0  0  0  0  0  0  0  0
   -3.7850   -3.1760   -0.2800 C   0  0  0  0  0  0  0  0  0  0  0  0
   -4.9390   -3.6750   -0.8570 C   0  0  0  0  0  0  0  0  0  0  0  0
   -5.0370   -3.5860   -2.2310 C   0  0  0  0  0  0  0  0  0  0  0  0
   -4.0320   -3.0280   -2.9930 C   0  0  0  0  0  0  0  0  0  0  0  0
   -2.9330   -2.5590   -2.3890 N   0  0  0  0  0  0  0  0  0  0  0  0
   -2.7800   -2.6160   -1.0640 C   0  0  0  0  0  0  0  0  0  0  0  0
   -1.7670   -2.2150   -0.1870 C   0  0  0  0  0  0  0  0  0  0  0  0
   -0.5290   -1.5800   -0.5900 C   0  0  0  0  0  0  0  0  0  0  0  0
    0.6600   -2.1100   -0.9230 N   0  0  0  0  0  0  0  0  0  0  0  0
    1.5360   -1.1780   -1.2300 N   0  0  0  0  0  0  0  0  0  0  0  0
    2.9190   -1.2790   -1.6410 C   0  0  0  0  0  0  0  0  0  0  0  0
    3.7690   -1.2500   -0.4450 C   0  0  0  0  0  0  0  0  0  0  0  0
    4.3440   -1.8020    0.4120 N   0  0  0  0  0  0  0  0  0  0  0  0
    5.0440   -1.2730    1.3620 N   0  0  0  0  0  0  0  0  0  0  0  0
    5.2140   -0.0960    1.5120 C   0  0  0  0  0  0  0  0  0  0  0  0
    5.8820    0.9030    2.3820 C   0  0  0  0  0  0  0  0  0  0  0  0
    7.2790    1.2050    1.8870 C   0  0  0  0  0  0  0  0  0  0  0  0
    7.8820    2.1310    2.7030 O   0  0  0  0  0  0  0  0  0  0  0  0
    4.2070    0.5360    0.0370 S   0  0  0  0  0  0  0  0  0  0  0  0
    0.9020    0.0020   -1.0940 C   0  0  0  0  0  0  0  0  0  0  0  0
   -0.3910   -0.1970   -0.6960 C   0  0  0  0  0  0  0  0  0  0  0  0
   -1.3880    0.8270   -0.4430 C   0  0  0  0  0  0  0  0  0  0  0  0
   -2.5280    0.4950   -0.0850 O   0  0  0  0  0  0  0  0  0  0  0  0
   -1.0710    2.1430   -0.6000 O   0  0  0  0  0  0  0  0  0  0  0  0
   -1.9590    3.2160   -0.3820 C   0  0  1  0  0  0  0  0  0  0  0  0
   -1.2350    4.5170   -0.6610 C   0  0  0  0  0  0  0  0  0  0  0  0
   -3.0820    3.0880   -1.3760 C   0  0  0  0  0  0  0  0  0  0  0  0
   -2.5430    3.2080    1.0090 C   0  0  0  0  0  0  0  0  0  0  0  0
  1  2  1  0
  2  3  1  0
  2 10  2  0
  3  4  1  0
  4  5  2  0
  4  9  1  0
  5  6  1  0
  6  7  2  0
  7  8  1  0
  8  9  2  0
  9 10  1  0
 10 11  1  0
 11 12  2  0
 11 24  1  0
 12 13  1  0
 13 14  1  0
 13 23  1  0
 14 15  1  0
 15 16  2  0
 15 22  1  0
 16 17  1  0
 17 18  2  0
 18 19  1  0
 18 22  1  0
 19 20  1  0
 20 21  1  0
 23 24  2  0
 24 25  1  0
 25 26  2  0
 25 27  1  0
 27 28  1  0
 28 29  1  6
 28 30  1  0
 28 31  1  0
M  END
