
     RDKit          3D

 30 33  0  0  0  0  0  0  0  0999 V2000
    2.3040   -3.3010   -2.2500 C   0  0  0  0  0  0  0  0  0  0  0  0
    1.5720   -2.7500   -1.0580 C   0  0  0  0  0  0  0  0  0  0  0  0
    2.1970   -2.1220   -0.0190 C   0  0  0  0  0  0  0  0  0  0  0  0
    1.2120   -1.7430    0.9020 C   0  0  0  0  0  0  0  0  0  0  0  0
    1.5460   -0.9000    2.4220 S   0  0  1  0  0  0  0  0  0  0  0  0
    0.9220    0.4660    2.4450 O   0  0  0  0  0  0  0  0  0  0  0  0
    1.0650   -1.7140    3.5770 O   0  0  0  0  0  0  0  0  0  0  0  0
    3.2660   -0.7110    2.5850 N   0  0  0  0  0  0  0  0  0  0  0  0
    3.9660    0.0460    1.6270 C   0  0  0  0  0  0  0  0  0  0  0  0
    5.1900   -0.0820    1.1560 C   0  0  0  0  0  0  0  0  0  0  0  0
    6.0600   -1.1560    1.6390 C   0  0  0  0  0  0  0  0  0  0  0  0
    6.7770   -2.0180    2.0140 N   0  0  0  0  0  0  0  0  0  0  0  0
    5.5930    0.8630    0.1650 C   0  0  0  0  0  0  0  0  0  0  0  0
    6.5040    0.6810   -0.7090 O   0  0  0  0  0  0  0  0  0  0  0  0
    4.8530    2.1520    0.2030 C   0  0  0  0  0  0  0  0  0  0  0  0
    3.2480    1.4690    0.8140 S   0  0  0  0  0  0  0  0  0  0  0  0
    0.0140   -2.1500    0.3980 C   0  0  0  0  0  0  0  0  0  0  0  0
   -1.3190   -2.0050    0.9460 C   0  0  0  0  0  0  0  0  0  0  0  0
   -1.9800   -0.6940    0.7610 C   0  0  0  0  0  0  0  0  0  0  0  0
   -2.1390    0.2270    1.7660 C   0  0  0  0  0  0  0  0  0  0  0  0
   -2.7650    1.4640    1.5720 C   0  0  0  0  0  0  0  0  0  0  0  0
   -2.9370    2.6010    2.8970 Cl  0  0  0  0  0  0  0  0  0  0  0  0
   -3.2500    1.7960    0.3370 C   0  0  0  0  0  0  0  0  0  0  0  0
   -3.0990    0.8740   -0.6970 C   0  0  0  0  0  0  0  0  0  0  0  0
   -2.4840   -0.3350   -0.4970 C   0  0  0  0  0  0  0  0  0  0  0  0
   -3.6160    1.2440   -2.0220 C   0  0  0  0  0  0  0  0  0  0  0  0
   -4.7990    2.1540   -2.0150 C   0  0  0  0  0  0  0  0  0  0  0  0
   -5.0790    2.8440   -0.7330 C   0  0  0  0  0  0  0  0  0  0  0  0
   -3.8970    3.0370    0.1050 N   0  0  0  0  0  0  0  0  0  0  0  0
    0.2740   -2.7610   -0.8000 N   0  0  0  0  0  0  0  0  0  0  0  0
  1  2  1  0
  2  3  2  0
  2 30  1  0
  3  4  1  0
  4  5  1  0
  4 17  2  0
  5  6  2  0
  5  7  2  0
  5  8  1  1
  8  9  1  0
  9 10  2  0
  9 16  1  0
 10 11  1  0
 10 13  1  0
 11 12  3  0
 13 14  2  0
 13 15  1  0
 15 16  1  0
 17 18  1  0
 17 30  1  0
 18 19  1  0
 19 20  2  0
 19 25  1  0
 20 21  1  0
 21 22  1  0
 21 23  2  0
 23 24  1  0
 23 29  1  0
 24 25  2  0
 24 26  1  0
 26 27  1  0
 27 28  1  0
 28 29  1  0
M  CHG  1  29   1
M  END
