
     RDKit          3D

 37 37  0  0  0  0  0  0  0  0999 V2000
   -2.2280   -1.0710    5.1290 C   0  0  0  0  0  0  0  0  0  0  0  0
   -2.2480    0.0350    4.1210 C   0  0  0  0  0  0  0  0  0  0  0  0
   -1.1490    0.5880    3.8890 O   0  0  0  0  0  0  0  0  0  0  0  0
   -3.3710    0.4440    3.4740 O   0  0  0  0  0  0  0  0  0  0  0  0
   -3.5180    1.4370    2.5280 C   0  0  0  0  0  0  0  0  0  0  0  0
   -2.7850    1.2530    1.2270 C   0  0  1  0  0  0  0  0  0  0  0  0
   -1.4470    1.1820    1.4400 O   0  0  0  0  0  0  0  0  0  0  0  0
   -0.6640    1.0680    0.3270 C   0  0  1  0  0  0  0  0  0  0  0  0
    0.6720   -0.0540    0.7370 S   0  0  2  0  0  0  0  0  0  0  0  0
    0.1550   -1.4490    0.9400 O   0  0  0  0  0  0  0  0  0  0  0  0
    1.3110    0.4210    1.9870 O   0  0  0  0  0  0  0  0  0  0  0  0
    1.8400   -0.1140   -0.5210 N   0  0  0  0  0  0  0  0  0  0  0  0
    2.4620    1.1660   -0.7600 C   0  0  0  0  0  0  0  0  0  0  0  0
    3.4680    1.0160   -1.8760 C   0  0  0  0  0  0  0  0  0  0  0  0
    4.5080    0.0130   -1.4880 C   0  0  0  0  0  0  0  0  0  0  0  0
    5.2180    0.4590   -0.2530 C   0  0  0  0  0  0  0  0  0  0  0  0
    6.2710   -0.5990    0.0980 C   0  0  0  0  0  0  0  0  0  0  0  0
    6.9000   -0.1330    1.2540 O   0  0  0  0  0  0  0  0  0  0  0  0
    8.0680   -1.2640    1.6770 S   0  0  2  0  0  0  0  0  0  0  0  0
    9.3290   -1.3300    0.4980 N   0  0  0  0  0  0  0  0  0  0  0  0
    7.4610   -2.6100    1.8420 O   0  0  0  0  0  0  0  0  0  0  0  0
    8.7070   -0.8610    2.9870 O   0  0  0  0  0  0  0  0  0  0  0  0
   -1.3440    0.6700   -0.9260 C   0  0  2  0  0  0  0  0  0  0  0  0
   -1.7250    1.7660   -1.7420 O   0  0  0  0  0  0  0  0  0  0  0  0
   -1.2390    2.0150   -2.9970 C   0  0  0  0  0  0  0  0  0  0  0  0
   -1.6390    3.1610   -3.8480 C   0  0  0  0  0  0  0  0  0  0  0  0
   -0.3900    1.2070   -3.4560 O   0  0  0  0  0  0  0  0  0  0  0  0
   -2.5510   -0.2150   -0.7550 C   0  0  2  0  0  0  0  0  0  0  0  0
   -3.4640   -0.0320   -1.8090 O   0  0  0  0  0  0  0  0  0  0  0  0
   -3.7970   -1.0320   -2.7040 C   0  0  0  0  0  0  0  0  0  0  0  0
   -4.7510   -0.8780   -3.8220 C   0  0  0  0  0  0  0  0  0  0  0  0
   -3.2310   -2.1380   -2.5270 O   0  0  0  0  0  0  0  0  0  0  0  0
   -3.1980   -0.0860    0.6050 C   0  0  2  0  0  0  0  0  0  0  0  0
   -4.5920   -0.2150    0.5530 O   0  0  0  0  0  0  0  0  0  0  0  0
   -5.2830   -1.1560    1.2610 C   0  0  0  0  0  0  0  0  0  0  0  0
   -6.7830   -1.2430    1.1640 C   0  0  0  0  0  0  0  0  0  0  0  0
   -4.6460   -1.9540    2.0000 O   0  0  0  0  0  0  0  0  0  0  0  0
  1  2  1  0
  2  3  2  0
  2  4  1  0
  4  5  1  0
  6  5  1  1
  6  7  1  0
  6 33  1  0
  8  7  1  1
  8  9  1  0
  8 23  1  0
  9 10  2  0
  9 11  2  0
  9 12  1  6
 12 13  1  0
 13 14  1  0
 14 15  1  0
 15 16  1  0
 16 17  1  0
 17 18  1  0
 18 19  1  0
 19 20  1  6
 19 21  2  0
 19 22  2  0
 23 24  1  1
 23 28  1  0
 24 25  1  0
 25 26  1  0
 25 27  2  0
 28 29  1  6
 28 33  1  0
 29 30  1  0
 30 31  1  0
 30 32  2  0
 33 34  1  6
 34 35  1  0
 35 36  1  0
 35 37  2  0
M  END
