
     RDKit          3D

 36 40  0  0  0  0  0  0  0  0999 V2000
   -3.8900   -1.6660    1.5630 C   0  0  0  0  0  0  0  0  0  0  0  0
   -3.9980   -0.4460    0.7210 C   0  0  0  0  0  0  0  0  0  0  0  0
   -5.2270    0.0450    0.3610 C   0  0  0  0  0  0  0  0  0  0  0  0
   -6.4970   -0.5930    0.7520 C   0  0  1  0  0  0  0  0  0  0  0  0
   -7.6090    0.4740    0.6050 C   0  0  0  0  0  0  0  0  0  0  0  0
   -6.8800   -1.7230   -0.2100 C   0  0  0  0  0  0  0  0  0  0  0  0
   -5.9430   -2.7560   -0.3020 N   0  0  0  0  0  0  0  0  0  0  0  0
   -5.2560    1.1920   -0.4200 C   0  0  0  0  0  0  0  0  0  0  0  0
   -4.0890    1.8000   -0.8090 C   0  0  0  0  0  0  0  0  0  0  0  0
   -2.8580    1.3240   -0.4580 C   0  0  0  0  0  0  0  0  0  0  0  0
   -2.7960    0.1780    0.3250 C   0  0  0  0  0  0  0  0  0  0  0  0
   -1.5240   -0.4130    0.7460 C   0  0  0  0  0  0  0  0  0  0  0  0
   -0.4280    0.4080    0.3470 O   0  0  0  0  0  0  0  0  0  0  0  0
    0.8780    0.0080    0.6670 C   0  0  0  0  0  0  0  0  0  0  0  0
    0.9310   -1.1030    1.2660 O   0  0  0  0  0  0  0  0  0  0  0  0
    2.0160    0.8120    0.3370 C   0  0  0  0  0  0  0  0  0  0  0  0
    1.9180    2.0400   -0.3280 C   0  0  0  0  0  0  0  0  0  0  0  0
    3.1320    2.5520   -0.4050 N   0  0  0  0  0  0  0  0  0  0  0  0
    4.0270    1.7370    0.1680 C   0  0  0  0  0  0  0  0  0  0  0  0
    5.2560    1.9840    0.2380 O   0  0  0  0  0  0  0  0  0  0  0  0
    3.3410    0.6600    0.6250 N   0  0  0  0  0  0  0  0  0  0  0  0
    3.9220   -0.4020    1.3100 C   0  0  0  0  0  0  0  0  0  0  0  0
    3.1730   -1.4330    1.5650 O   0  0  0  0  0  0  0  0  0  0  0  0
    5.2880   -0.5260    1.8040 C   0  0  0  0  0  0  0  0  0  0  0  0
    6.0870   -1.5920    1.0200 C   0  0  0  0  0  0  0  0  0  0  0  0
    5.5990   -2.8770    1.1310 C   0  0  0  0  0  0  0  0  0  0  0  0
    6.6550   -3.7690   -0.0960 S   0  0  0  0  0  0  0  0  0  0  0  0
    7.6140   -2.3370   -0.6000 C   0  0  0  0  0  0  0  0  0  0  0  0
    8.6770   -2.2040   -1.4770 C   0  0  0  0  0  0  0  0  0  0  0  0
    9.2840   -0.9570   -1.6120 C   0  0  0  0  0  0  0  0  0  0  0  0
    8.7960    0.0760   -0.8650 C   0  0  0  0  0  0  0  0  0  0  0  0
    7.7410   -0.0870   -0.0060 C   0  0  0  0  0  0  0  0  0  0  0  0
    7.0850   -1.3410    0.1640 C   0  0  0  0  0  0  0  0  0  0  0  0
   -1.8350    2.1810   -1.0710 C   0  0  0  0  0  0  0  0  0  0  0  0
   -2.5540    2.8870   -2.2290 C   0  0  0  0  0  0  0  0  0  0  0  0
   -3.9430    3.0350   -1.6440 C   0  0  0  0  0  0  0  0  0  0  0  0
  1  2  1  0
  2  3  2  0
  2 11  1  0
  3  4  1  0
  3  8  1  0
  4  5  1  6
  4  6  1  0
  6  7  1  0
  8  9  2  0
  9 10  1  0
  9 36  1  0
 10 11  2  0
 10 34  1  0
 11 12  1  0
 12 13  1  0
 13 14  1  0
 14 15  2  0
 14 16  1  0
 16 17  2  0
 16 21  1  0
 17 18  1  0
 18 19  1  0
 19 20  2  0
 19 21  1  0
 21 22  1  0
 22 23  2  0
 22 24  1  0
 24 25  1  0
 25 26  2  0
 25 33  1  0
 26 27  1  0
 27 28  1  0
 28 29  2  0
 28 33  1  0
 29 30  1  0
 30 31  2  0
 31 32  1  0
 32 33  2  0
 34 35  1  0
 35 36  1  0
M  END
