
     RDKit          3D

 36 40  0  0  0  0  0  0  0  0999 V2000
   -3.0770    0.6230    1.8900 C   0  0  0  0  0  0  0  0  0  0  0  0
   -3.5450   -0.8650    2.7880 S   0  0  0  0  0  0  0  0  0  0  0  0
   -5.0290   -1.6540    2.2000 C   0  0  0  0  0  0  0  0  0  0  0  0
   -4.8780   -2.3390    0.8790 C   0  0  0  0  0  0  0  0  0  0  0  0
   -4.4120   -1.5000   -0.2290 C   0  0  0  0  0  0  0  0  0  0  0  0
   -3.1060   -1.2660   -0.5870 C   0  0  0  0  0  0  0  0  0  0  0  0
   -1.8670   -1.8490   -0.0670 C   0  0  0  0  0  0  0  0  0  0  0  0
   -1.8470   -2.7720    0.7870 O   0  0  0  0  0  0  0  0  0  0  0  0
   -0.6170   -1.3560   -0.5420 N   0  0  0  0  0  0  0  0  0  0  0  0
    0.5970   -1.9330   -0.0250 C   0  0  1  0  0  0  0  0  0  0  0  0
    1.4310   -2.6100   -1.0780 C   0  0  0  0  0  0  0  0  0  0  0  0
    2.1100   -1.6450   -2.0100 C   0  0  0  0  0  0  0  0  0  0  0  0
    2.7030   -0.5550   -1.3330 O   0  0  0  0  0  0  0  0  0  0  0  0
    2.3880   -0.1920   -0.0320 C   0  0  0  0  0  0  0  0  0  0  0  0
    3.1120    0.8300    0.5860 C   0  0  0  0  0  0  0  0  0  0  0  0
    4.0850    1.4850    0.0150 O   0  0  0  0  0  0  0  0  0  0  0  0
    5.0580    2.2060   -0.4250 C   0  0  0  0  0  0  0  0  0  0  0  0
    6.3610    2.1440    0.3250 C   0  0  0  0  0  0  0  0  0  0  0  0
    6.5790    3.0610    1.3260 C   0  0  0  0  0  0  0  0  0  0  0  0
    7.7810    2.9940    2.0110 C   0  0  0  0  0  0  0  0  0  0  0  0
    8.7090    2.0520    1.7010 N   0  0  0  0  0  0  0  0  0  0  0  0
    8.5060    1.1490    0.7240 C   0  0  0  0  0  0  0  0  0  0  0  0
    9.4530    0.1700    0.3910 O   0  0  0  0  0  0  0  0  0  0  0  0
    7.3170    1.1960    0.0280 C   0  0  0  0  0  0  0  0  0  0  0  0
    2.7270    1.1360    1.9120 C   0  0  0  0  0  0  0  0  0  0  0  0
    1.7210    0.4810    2.5440 C   0  0  0  0  0  0  0  0  0  0  0  0
    1.0400   -0.5150    1.8950 C   0  0  0  0  0  0  0  0  0  0  0  0
    1.3880   -0.8370    0.6070 C   0  0  0  0  0  0  0  0  0  0  0  0
   -3.1410   -0.3840   -1.6320 N   0  0  0  0  0  0  0  0  0  0  0  0
   -4.3830   -0.0520   -1.9530 C   0  0  0  0  0  0  0  0  0  0  0  0
   -4.8850    0.7980   -2.9340 C   0  0  0  0  0  0  0  0  0  0  0  0
   -3.9960    1.5280   -3.8650 C   0  0  0  0  0  0  0  0  0  0  0  0
   -6.2460    0.9710   -3.0580 C   0  0  0  0  0  0  0  0  0  0  0  0
   -7.0660    0.2820   -2.1910 C   0  0  0  0  0  0  0  0  0  0  0  0
   -6.5630   -0.5570   -1.2230 C   0  0  0  0  0  0  0  0  0  0  0  0
   -5.2090   -0.7360   -1.0920 C   0  0  0  0  0  0  0  0  0  0  0  0
  1  2  1  0
  2  3  1  0
  3  4  1  0
  4  5  1  0
  5  6  2  0
  5 36  1  0
  6  7  1  0
  6 29  1  0
  7  8  2  0
  7  9  1  0
 10  9  1  6
 10 11  1  0
 10 28  1  0
 11 12  1  0
 12 13  1  0
 13 14  1  0
 14 15  2  0
 14 28  1  0
 15 16  1  0
 15 25  1  0
 16 17  1  0
 17 18  1  0
 18 19  2  0
 18 24  1  0
 19 20  1  0
 20 21  2  0
 21 22  1  0
 22 23  1  0
 22 24  2  0
 25 26  2  0
 26 27  1  0
 27 28  2  0
 29 30  1  0
 30 31  2  0
 30 36  1  0
 31 32  1  0
 31 33  1  0
 33 34  2  0
 34 35  1  0
 35 36  2  0
M  END
