
     RDKit          3D

 36 40  0  0  0  0  0  0  0  0999 V2000
   -6.1080    2.8040    2.3230 C   0  0  0  0  0  0  0  0  0  0  0  0
   -5.1310    1.7880    1.9800 N   0  0  0  0  0  0  0  0  0  0  0  0
   -4.4410    1.9460    0.7630 C   0  0  0  0  0  0  0  0  0  0  0  0
   -4.6300    3.2340   -0.4280 S   0  0  0  0  0  0  0  0  0  0  0  0
   -3.4060    2.6520   -1.5610 C   0  0  0  0  0  0  0  0  0  0  0  0
   -2.9080    1.4840   -0.9630 C   0  0  0  0  0  0  0  0  0  0  0  0
   -3.4210    1.1150    0.2110 C   0  0  0  0  0  0  0  0  0  0  0  0
   -3.0110   -0.1620    1.0140 C   0  0  2  0  0  0  0  0  0  0  0  0
   -1.6140   -0.4530    0.7600 C   0  0  0  0  0  0  0  0  0  0  0  0
   -0.9420   -1.5300    0.4910 C   0  0  0  0  0  0  0  0  0  0  0  0
   -1.3940   -2.9220    0.3360 C   0  0  0  0  0  0  0  0  0  0  0  0
   -0.8140   -3.8050    1.2300 O   0  0  0  0  0  0  0  0  0  0  0  0
    0.5510   -3.9000    1.1310 C   0  0  0  0  0  0  0  0  0  0  0  0
    0.4410   -1.2510    0.3390 O   0  0  0  0  0  0  0  0  0  0  0  0
    0.6760    0.0830    0.5270 C   0  0  0  0  0  0  0  0  0  0  0  0
    1.8290    0.7110    0.4650 C   0  0  0  0  0  0  0  0  0  0  0  0
    3.0380    0.0350    0.1810 N   0  0  0  0  0  0  0  0  0  0  0  0
    4.2770    0.7220    0.1040 C   0  0  0  0  0  0  0  0  0  0  0  0
    4.3040    1.9830    0.2780 O   0  0  0  0  0  0  0  0  0  0  0  0
    5.5100    0.0880   -0.1590 N   0  0  0  0  0  0  0  0  0  0  0  0
    6.7180    0.8560   -0.2500 C   0  0  2  0  0  0  0  0  0  0  0  0
    7.4930    0.5760   -1.5120 C   0  0  0  0  0  0  0  0  0  0  0  0
    8.8980    1.0530   -1.1070 C   0  0  0  0  0  0  0  0  0  0  0  0
    9.0110    0.3660    0.2550 C   0  0  0  0  0  0  0  0  0  0  0  0
    7.6720    0.6560    0.9100 C   0  0  0  0  0  0  0  0  0  0  0  0
   -0.6260    0.6570    0.8080 C   0  0  0  0  0  0  0  0  0  0  0  0
   -0.8280    1.8780    1.0420 O   0  0  0  0  0  0  0  0  0  0  0  0
   -4.0180   -1.1740    0.7030 C   0  0  0  0  0  0  0  0  0  0  0  0
   -4.6910   -1.8540    1.7170 C   0  0  0  0  0  0  0  0  0  0  0  0
   -5.6800   -2.7750    1.4690 C   0  0  0  0  0  0  0  0  0  0  0  0
   -6.0450   -3.0620    0.1700 C   0  0  0  0  0  0  0  0  0  0  0  0
   -5.3900   -2.3990   -0.8680 C   0  0  0  0  0  0  0  0  0  0  0  0
   -4.4110   -1.4870   -0.5870 C   0  0  0  0  0  0  0  0  0  0  0  0
   -1.8520    0.9830   -1.9400 C   0  0  0  0  0  0  0  0  0  0  0  0
   -2.4920    1.4250   -3.2710 C   0  0  0  0  0  0  0  0  0  0  0  0
   -2.7220    2.8930   -2.8730 C   0  0  0  0  0  0  0  0  0  0  0  0
  1  2  1  0
  2  3  1  0
  3  4  1  0
  3  7  2  0
  4  5  1  0
  5  6  2  0
  5 36  1  0
  6  7  1  0
  6 34  1  0
  8  7  1  6
  8  9  1  0
  8 28  1  0
  9 10  2  0
  9 26  1  0
 10 11  1  0
 10 14  1  0
 11 12  1  0
 12 13  1  0
 14 15  1  0
 15 16  2  3
 15 26  1  0
 16 17  1  0
 17 18  1  0
 18 19  2  0
 18 20  1  0
 21 20  1  1
 21 22  1  0
 21 25  1  0
 22 23  1  0
 23 24  1  0
 24 25  1  0
 26 27  2  0
 28 29  2  0
 28 33  1  0
 29 30  1  0
 30 31  2  0
 31 32  1  0
 32 33  2  0
 34 35  1  0
 35 36  1  0
M  END
