
     RDKit          3D

 36 40  0  0  0  0  0  0  0  0999 V2000
   -6.4470    3.5460    1.8560 C   0  0  0  0  0  0  0  0  0  0  0  0
   -5.1040    3.0480    1.4150 C   0  0  0  0  0  0  0  0  0  0  0  0
   -4.3780    2.1620    2.1860 C   0  0  0  0  0  0  0  0  0  0  0  0
   -3.1270    1.7040    1.7630 C   0  0  0  0  0  0  0  0  0  0  0  0
   -2.5940    2.1200    0.5800 C   0  0  0  0  0  0  0  0  0  0  0  0
   -1.2470    1.6520    0.0720 C   0  0  0  0  0  0  0  0  0  0  0  0
   -1.5130    0.6280   -0.9180 N   0  0  0  0  0  0  0  0  0  0  0  0
   -2.1340   -0.6030   -0.5950 C   0  0  0  0  0  0  0  0  0  0  0  0
   -1.6950   -1.7860   -0.9700 C   0  0  0  0  0  0  0  0  0  0  0  0
   -0.4800   -1.8590   -1.7860 C   0  0  0  0  0  0  0  0  0  0  0  0
    0.6220   -0.4410   -1.7640 S   0  0  0  0  0  0  0  0  0  0  0  0
    1.5200   -0.3920   -0.1890 C   0  0  0  0  0  0  0  0  0  0  0  0
    2.5490    0.6330   -0.1150 C   0  0  0  0  0  0  0  0  0  0  0  0
    2.3810    1.8910    0.3740 C   0  0  0  0  0  0  0  0  0  0  0  0
    3.4270    2.8190    0.4010 C   0  0  0  0  0  0  0  0  0  0  0  0
    4.6720    2.4880   -0.0690 C   0  0  0  0  0  0  0  0  0  0  0  0
    4.8570    1.2260   -0.5640 C   0  0  0  0  0  0  0  0  0  0  0  0
    3.8320    0.3280   -0.5870 C   0  0  0  0  0  0  0  0  0  0  0  0
    6.0350    0.6980   -1.0840 O   0  0  0  0  0  0  0  0  0  0  0  0
    7.3230    1.3330   -1.0930 C   0  0  0  0  0  0  0  0  0  0  0  0
    7.4920    1.9810    0.2590 C   0  0  0  0  0  0  0  0  0  0  0  0
    7.0190    3.4050    0.2790 C   0  0  0  0  0  0  0  0  0  0  0  0
    5.6200    3.5020    0.0160 O   0  0  0  0  0  0  0  0  0  0  0  0
   -2.4040   -3.0200   -0.7080 C   0  0  0  0  0  0  0  0  0  0  0  0
   -1.9250   -4.2270   -0.7130 C   0  0  0  0  0  0  0  0  0  0  0  0
   -2.8610   -5.4140   -0.4570 C   0  0  0  0  0  0  0  0  0  0  0  0
   -2.5280   -6.3320   -1.5650 O   0  0  0  0  0  0  0  0  0  0  0  0
   -1.1950   -6.7880   -1.6120 C   0  0  0  0  0  0  0  0  0  0  0  0
   -0.2210   -6.0040   -1.2020 C   0  0  0  0  0  0  0  0  0  0  0  0
   -0.5370   -4.6760   -0.7170 C   0  0  0  0  0  0  0  0  0  0  0  0
    0.3770   -3.9330   -0.2940 O   0  0  0  0  0  0  0  0  0  0  0  0
   -3.6840   -2.8690    0.0010 N   0  0  0  0  0  0  0  0  0  0  0  0
   -4.0800   -1.5640    0.3590 C   0  0  0  0  0  0  0  0  0  0  0  0
   -3.4090   -0.5200    0.1110 N   0  0  0  0  0  0  0  0  0  0  0  0
   -3.3190    3.0050   -0.1900 C   0  0  0  0  0  0  0  0  0  0  0  0
   -4.5720    3.4690    0.2260 C   0  0  0  0  0  0  0  0  0  0  0  0
  1  2  1  0
  2  3  2  0
  2 36  1  0
  3  4  1  0
  4  5  2  0
  5  6  1  0
  5 35  1  0
  6  7  1  0
  7  8  1  0
  8  9  2  0
  8 34  1  0
  9 10  1  0
  9 24  1  0
 10 11  1  0
 11 12  1  0
 12 13  1  0
 13 14  2  0
 13 18  1  0
 14 15  1  0
 15 16  2  0
 16 17  1  0
 16 23  1  0
 17 18  2  0
 17 19  1  0
 19 20  1  0
 20 21  1  0
 21 22  1  0
 22 23  1  0
 24 25  2  3
 24 32  1  0
 25 26  1  0
 25 30  1  0
 26 27  1  0
 27 28  1  0
 28 29  2  0
 29 30  1  0
 30 31  2  0
 32 33  1  0
 33 34  2  0
 35 36  2  0
M  END
