
     RDKit          3D

 28 28  0  0  0  0  0  0  0  0999 V2000
    1.6730    0.4450    0.3930 O   0  0  0  0  0  0  0  0  0  0  0  0
    1.5980   -0.6970    0.0730 C   0  0  0  0  0  0  0  0  0  0  0  0
    0.2200   -1.2950    0.2840 N   0  0  0  0  0  0  0  0  0  0  0  0
   -0.7870   -0.5260    0.8650 C   0  0  0  0  0  0  0  0  0  0  0  0
   -2.0520   -1.4010    0.8550 C   0  0  1  0  0  0  0  0  0  0  0  0
   -1.7310   -2.6180    1.5500 O   0  0  0  0  0  0  0  0  0  0  0  0
   -3.1120   -0.7850    1.7030 C   0  0  0  0  0  0  0  0  0  0  0  0
   -3.6340    0.8550    1.2920 S   0  0  0  0  0  0  0  0  0  0  0  0
   -4.4580    0.9370   -0.2660 C   0  0  0  0  0  0  0  0  0  0  0  0
   -4.9500    2.1260   -0.6700 C   0  0  0  0  0  0  0  0  0  0  0  0
   -4.7910    3.2220    0.1550 O   0  0  0  0  0  0  0  0  0  0  0  0
   -5.6550    2.3280   -1.9520 C   0  0  0  0  0  0  0  0  0  0  0  0
   -6.3650    1.1370   -2.3120 O   0  0  0  0  0  0  0  0  0  0  0  0
   -6.0070   -0.0850   -1.7730 C   0  0  0  0  0  0  0  0  0  0  0  0
   -6.8160   -1.0380   -1.8040 O   0  0  0  0  0  0  0  0  0  0  0  0
   -4.6540   -0.2190   -1.1660 C   0  0  1  0  0  0  0  0  0  0  0  0
   -3.7450   -0.1730   -2.2530 O   0  0  0  0  0  0  0  0  0  0  0  0
    2.3920   -1.6820   -0.4430 N   0  0  0  0  0  0  0  0  0  0  0  0
    3.8040   -0.6760   -0.6270 C   0  0  0  0  0  0  0  0  0  0  0  0
    3.7060    0.4380   -0.3070 O   0  0  0  0  0  0  0  0  0  0  0  0
    4.8590   -1.3310   -1.1290 O   0  0  0  0  0  0  0  0  0  0  0  0
    6.1170   -0.6570   -1.3540 C   0  0  0  0  0  0  0  0  0  0  0  0
    6.6470   -0.0790   -0.1260 C   0  0  0  0  0  0  0  0  0  0  0  0
    6.0350   -0.2390    0.9540 O   0  0  0  0  0  0  0  0  0  0  0  0
    7.8170    0.6560   -0.1110 O   0  0  0  0  0  0  0  0  0  0  0  0
    8.4940    1.3760    1.2570 S   0  0  2  0  0  0  0  0  0  0  0  0
    9.1600    2.6880    0.9100 O   0  0  0  0  0  0  0  0  0  0  0  0
    9.5830    0.4680    1.7650 O   0  0  0  0  0  0  0  0  0  0  0  0
  1  2  2  0
  2  3  1  0
  2 18  1  0
  3  4  1  0
  4  5  1  0
  5  6  1  1
  5  7  1  0
  7  8  1  0
  8  9  1  0
  9 10  2  0
  9 16  1  0
 10 11  1  0
 10 12  1  0
 12 13  1  0
 13 14  1  0
 14 15  2  0
 14 16  1  0
 16 17  1  6
 18 19  1  0
 19 20  2  0
 19 21  1  0
 21 22  1  0
 22 23  1  0
 23 24  2  0
 23 25  1  0
 26 25  1  6
 26 27  2  0
 26 28  2  0
M  END
