
     RDKit          3D

 27 28  0  0  0  0  0  0  0  0999 V2000
    4.7390    1.0160   -1.3840 N   0  0  0  0  0  0  0  0  0  0  0  0
    3.8780    0.9600   -0.3190 O   0  0  0  0  0  0  0  0  0  0  0  0
    3.8670   -0.2700    0.2630 C   0  0  2  0  0  0  0  0  0  0  0  0
    2.5720   -0.7720    0.7880 C   0  0  0  0  0  0  0  0  0  0  0  0
    1.2040   -0.9650   -0.3280 S   0  0  0  0  0  0  0  0  0  0  0  0
    0.4770    0.5580   -0.8420 C   0  0  1  0  0  0  0  0  0  0  0  0
    1.6000    1.4630   -1.9410 S   0  0  0  0  0  0  0  0  0  0  0  0
    0.9010    0.8430   -3.4870 C   0  0  0  0  0  0  0  0  0  0  0  0
    1.2340    1.1290   -4.6380 O   0  0  0  0  0  0  0  0  0  0  0  0
   -0.1180   -0.0480   -3.0690 N   0  0  0  0  0  0  0  0  0  0  0  0
   -0.6690    0.3820   -1.8260 C   0  0  2  0  0  0  0  0  0  0  0  0
   -1.2270    1.6550   -2.0140 O   0  0  0  0  0  0  0  0  0  0  0  0
   -2.5170    1.5510   -1.7780 O   0  0  0  0  0  0  0  0  0  0  0  0
   -2.7770    0.2280   -2.0500 C   0  0  2  0  0  0  0  0  0  0  0  0
   -4.1080   -0.2720   -1.6300 C   0  0  2  0  0  0  0  0  0  0  0  0
   -5.0700    0.5050   -2.3140 O   0  0  0  0  0  0  0  0  0  0  0  0
   -4.3910   -0.2120   -0.1950 C   0  0  0  0  0  0  0  0  0  0  0  0
   -3.6340   -0.8520    0.5910 O   0  0  0  0  0  0  0  0  0  0  0  0
   -5.4350    0.5050    0.3170 O   0  0  0  0  0  0  0  0  0  0  0  0
   -5.6880    0.5490    1.6870 C   0  0  0  0  0  0  0  0  0  0  0  0
   -6.8890    1.3970    2.0350 C   0  0  0  0  0  0  0  0  0  0  0  0
   -7.1060    1.4160    3.4120 O   0  0  0  0  0  0  0  0  0  0  0  0
   -1.7060   -0.3860   -1.3650 O   0  0  0  0  0  0  0  0  0  0  0  0
    4.7640   -0.1720    1.3830 O   0  0  0  0  0  0  0  0  0  0  0  0
    5.8230   -1.0320    1.2720 C   0  0  0  0  0  0  0  0  0  0  0  0
    6.6980   -0.8480    2.5110 C   0  0  0  0  0  0  0  0  0  0  0  0
    5.9690   -1.1340    3.6630 O   0  0  0  0  0  0  0  0  0  0  0  0
  1  2  1  0
  2  3  1  0
  3  4  1  1
  3 24  1  0
  4  5  1  0
  6  5  1  6
  6  7  1  0
  6 11  1  0
  7  8  1  0
  8  9  2  0
  8 10  1  0
 11 10  1  6
 11 12  1  0
 11 23  1  0
 12 13  1  0
 14 13  1  1
 14 15  1  0
 14 23  1  0
 15 16  1  6
 15 17  1  0
 17 18  2  0
 17 19  1  0
 19 20  1  0
 20 21  1  0
 21 22  1  0
 24 25  1  0
 25 26  1  0
 26 27  1  0
M  END
