
     RDKit          3D

 27 27  0  0  0  0  0  0  0  0999 V2000
   -7.1960   -0.2700   -0.6790 C   0  0  0  0  0  0  0  0  0  0  0  0
   -5.9320    0.1960   -1.0770 O   0  0  0  0  0  0  0  0  0  0  0  0
   -4.7720   -0.1560   -0.3890 C   0  0  0  0  0  0  0  0  0  0  0  0
   -4.8560   -0.9130    0.6170 O   0  0  0  0  0  0  0  0  0  0  0  0
   -3.5280    0.3000   -0.7760 O   0  0  0  0  0  0  0  0  0  0  0  0
   -2.3450   -0.0740   -0.0540 C   0  0  1  0  0  0  0  0  0  0  0  0
   -1.4370   -0.9030   -0.8820 C   0  0  0  0  0  0  0  0  0  0  0  0
   -0.9080   -2.4120   -0.1040 S   0  0  1  0  0  0  0  0  0  0  0  0
   -1.3000   -2.4340    1.3430 O   0  0  0  0  0  0  0  0  0  0  0  0
   -1.5380   -3.6040   -0.7640 O   0  0  0  0  0  0  0  0  0  0  0  0
    0.8110   -2.6060   -0.1930 N   0  0  0  0  0  0  0  0  0  0  0  0
    1.3910   -1.3210   -0.4230 C   0  0  0  0  0  0  0  0  0  0  0  0
    2.8020   -1.1360    0.0280 C   0  0  2  0  0  0  0  0  0  0  0  0
    3.6930   -1.6040   -0.9340 O   0  0  0  0  0  0  0  0  0  0  0  0
    3.0830   -1.8670    1.3090 C   0  0  0  0  0  0  0  0  0  0  0  0
    4.8080   -1.6270    1.8390 S   0  0  0  0  0  0  0  0  0  0  0  0
    5.8330   -2.3760    0.7070 O   0  0  0  0  0  0  0  0  0  0  0  0
    3.0470    0.3770    0.1810 C   0  0  0  0  0  0  0  0  0  0  0  0
    1.8140    0.9970    0.3230 O   0  0  0  0  0  0  0  0  0  0  0  0
    1.5940    2.0510   -0.5250 C   0  0  2  0  0  0  0  0  0  0  0  0
    2.0510    3.2880    0.1710 C   0  0  0  0  0  0  0  0  0  0  0  0
    1.9090    4.5280   -0.5410 N   0  0  0  0  0  0  0  0  0  0  0  0
    2.5360    3.2590    1.3180 O   0  0  0  0  0  0  0  0  0  0  0  0
    0.1000    2.2390   -0.8490 C   0  0  0  0  0  0  0  0  0  0  0  0
   -0.6050    1.6860    0.1770 O   0  0  0  0  0  0  0  0  0  0  0  0
   -1.7900    1.1920    0.4700 C   0  0  0  0  0  0  0  0  0  0  0  0
   -2.5830    1.8020    1.2690 O   0  0  0  0  0  0  0  0  0  0  0  0
  1  2  1  0
  2  3  1  0
  3  4  2  0
  3  5  1  0
  6  5  1  6
  6  7  1  0
  6 26  1  0
  8  7  1  6
  8  9  2  0
  8 10  2  0
  8 11  1  0
 11 12  1  0
 12 13  1  0
 13 14  1  6
 13 15  1  0
 13 18  1  0
 15 16  1  0
 16 17  1  0
 18 19  1  0
 19 20  1  0
 20 21  1  1
 20 24  1  0
 21 22  1  0
 21 23  2  0
 24 25  1  0
 25 26  1  0
 26 27  2  0
M  END
