
     RDKit          3D

 27 27  0  0  0  0  0  0  0  0999 V2000
   -6.9450    0.7340    0.4820 C   0  0  0  0  0  0  0  0  0  0  0  0
   -5.5200    0.8200    0.4070 O   0  0  0  0  0  0  0  0  0  0  0  0
   -4.7270    1.0950    1.5030 C   0  0  0  0  0  0  0  0  0  0  0  0
   -5.2480    1.2790    2.6170 O   0  0  0  0  0  0  0  0  0  0  0  0
   -3.2540    1.1560    1.2780 C   0  0  2  0  0  0  0  0  0  0  0  0
   -2.5510    1.4320    2.4260 O   0  0  0  0  0  0  0  0  0  0  0  0
   -3.0290    2.0980    0.2770 O   0  0  0  0  0  0  0  0  0  0  0  0
   -3.2500    1.4670   -0.9280 C   0  0  0  0  0  0  0  0  0  0  0  0
   -3.2340    0.1130   -0.7160 O   0  0  0  0  0  0  0  0  0  0  0  0
   -2.8550   -0.1270    0.6010 C   0  0  2  0  0  0  0  0  0  0  0  0
   -3.5720   -1.3270    1.1780 C   0  0  0  0  0  0  0  0  0  0  0  0
   -1.4160   -0.3980    0.6410 C   0  0  0  0  0  0  0  0  0  0  0  0
   -0.7650   -0.6440    1.6900 O   0  0  0  0  0  0  0  0  0  0  0  0
   -0.6820   -0.3900   -0.5710 N   0  0  0  0  0  0  0  0  0  0  0  0
    0.6940   -0.6370   -0.6360 N   0  0  0  0  0  0  0  0  0  0  0  0
    1.4690   -0.2620   -1.7790 C   0  0  0  0  0  0  0  0  0  0  0  0
    0.8410    0.2990   -2.7100 O   0  0  0  0  0  0  0  0  0  0  0  0
    2.9270   -0.5080   -1.8830 C   0  0  2  0  0  0  0  0  0  0  0  0
    3.2510   -1.3020   -3.1570 C   0  0  0  0  0  0  0  0  0  0  0  0
    2.7390   -0.6820   -4.2740 O   0  0  0  0  0  0  0  0  0  0  0  0
    3.4500   -1.1430   -0.7490 O   0  0  0  0  0  0  0  0  0  0  0  0
    4.4420   -0.5220   -0.0190 C   0  0  0  0  0  0  0  0  0  0  0  0
    4.8770    0.6180   -0.3740 O   0  0  0  0  0  0  0  0  0  0  0  0
    5.1480   -1.2850    1.4370 S   0  0  0  0  0  0  0  0  0  0  0  0
    6.4210   -0.2220    2.1520 C   0  0  0  0  0  0  0  0  0  0  0  0
    7.8490   -0.0760    1.0120 S   0  0  0  0  0  0  0  0  0  0  0  0
    9.0340    0.9330    1.7080 O   0  0  0  0  0  0  0  0  0  0  0  0
  1  2  1  0
  2  3  1  0
  3  4  2  0
  3  5  1  0
  5  6  1  1
  5  7  1  0
  5 10  1  0
  7  8  1  0
  8  9  1  0
  9 10  1  0
 10 11  1  1
 10 12  1  0
 12 13  2  0
 12 14  1  0
 14 15  1  0
 15 16  1  0
 16 17  2  0
 16 18  1  0
 18 19  1  6
 18 21  1  0
 19 20  1  0
 21 22  1  0
 22 23  2  0
 22 24  1  0
 24 25  1  0
 25 26  1  0
 26 27  1  0
M  END
