
     RDKit          3D

 27 27  0  0  0  0  0  0  0  0999 V2000
    3.0660   -3.5630    2.0450 C   0  0  0  0  0  0  0  0  0  0  0  0
    2.4820   -2.4010    1.4640 O   0  0  0  0  0  0  0  0  0  0  0  0
    1.1500   -2.0600    1.7500 C   0  0  0  0  0  0  0  0  0  0  0  0
    0.5140   -2.7960    2.5140 O   0  0  0  0  0  0  0  0  0  0  0  0
    0.6070   -0.8370    1.1110 C   0  0  2  0  0  0  0  0  0  0  0  0
   -0.5160   -1.1470    0.1590 C   0  0  0  0  0  0  0  0  0  0  0  0
   -1.6070   -1.6960    0.7610 O   0  0  0  0  0  0  0  0  0  0  0  0
   -2.1800   -0.8250    1.6750 C   0  0  2  0  0  0  0  0  0  0  0  0
   -2.1900   -1.4120    2.9410 O   0  0  0  0  0  0  0  0  0  0  0  0
   -3.6380   -0.6140    1.2150 C   0  0  2  0  0  0  0  0  0  0  0  0
   -4.2560   -1.8550    1.2200 O   0  0  0  0  0  0  0  0  0  0  0  0
   -3.6060   -0.0920   -0.1880 C   0  0  0  0  0  0  0  0  0  0  0  0
   -4.9600    0.0350   -0.6900 N   0  0  0  0  0  0  0  0  0  0  0  0
   -4.9410    0.6380   -2.3130 S   0  0  2  0  0  0  0  0  0  0  0  0
   -5.0030    2.3760   -2.2180 N   0  0  0  0  0  0  0  0  0  0  0  0
   -6.1520    0.1460   -3.0500 O   0  0  0  0  0  0  0  0  0  0  0  0
   -3.7110    0.2080   -3.0240 O   0  0  0  0  0  0  0  0  0  0  0  0
    1.6340   -0.2460    0.2910 O   0  0  0  0  0  0  0  0  0  0  0  0
    2.0580    1.0400    0.5810 C   0  0  0  0  0  0  0  0  0  0  0  0
    1.5220    1.6280    1.5500 O   0  0  0  0  0  0  0  0  0  0  0  0
    3.0890    1.6660   -0.2240 C   0  0  0  0  0  0  0  0  0  0  0  0
    3.7520    1.2060   -1.2610 C   0  0  0  0  0  0  0  0  0  0  0  0
    3.4690   -0.1100   -1.7270 O   0  0  0  0  0  0  0  0  0  0  0  0
    4.7330    2.0840   -1.8630 C   0  0  1  0  0  0  0  0  0  0  0  0
    4.1700    2.9070   -2.8710 O   0  0  0  0  0  0  0  0  0  0  0  0
    5.3030    3.0510   -0.8530 C   0  0  0  0  0  0  0  0  0  0  0  0
    3.7270    3.3140    0.0830 S   0  0  0  0  0  0  0  0  0  0  0  0
  1  2  1  0
  2  3  1  0
  3  4  2  0
  3  5  1  0
  5  6  1  6
  5 18  1  0
  6  7  1  0
  7  8  1  0
  8  9  1  1
  8 10  1  0
 10 11  1  6
 10 12  1  0
 12 13  1  0
 13 14  1  0
 14 15  1  1
 14 16  2  0
 14 17  2  0
 18 19  1  0
 19 20  2  0
 19 21  1  0
 21 22  2  0
 21 27  1  0
 22 23  1  0
 22 24  1  0
 24 25  1  6
 24 26  1  0
 26 27  1  0
M  END
