
     RDKit          3D

 29 32  0  0  0  0  0  0  0  0999 V2000
   -4.5210    3.5380   -1.6850 C   0  0  0  0  0  0  0  0  0  0  0  0
   -3.6870    2.8150   -0.6200 C   0  0  0  0  0  0  0  0  0  0  0  0
   -3.8410    1.3430   -0.9140 C   0  0  0  0  0  0  0  0  0  0  0  0
   -3.1070    0.4750    0.0090 C   0  0  0  0  0  0  0  0  0  0  0  0
   -3.5660    0.2320    1.2770 C   0  0  0  0  0  0  0  0  0  0  0  0
   -5.0530    0.9640    1.8230 Cl  0  0  0  0  0  0  0  0  0  0  0  0
   -2.8850   -0.5860    2.1560 C   0  0  0  0  0  0  0  0  0  0  0  0
   -1.6930   -1.1900    1.7590 C   0  0  0  0  0  0  0  0  0  0  0  0
   -1.2060   -0.9650    0.4900 C   0  0  0  0  0  0  0  0  0  0  0  0
    0.0250   -1.5710    0.0610 C   0  0  2  0  0  0  0  0  0  0  0  0
    1.1070   -0.5950   -0.3110 N   0  0  0  0  0  0  0  0  0  0  0  0
    1.5230    0.1120    0.7870 C   0  0  0  0  0  0  0  0  0  0  0  0
    2.6910    0.9970    0.8500 C   0  0  0  0  0  0  0  0  0  0  0  0
    2.8670    1.5070    2.1480 C   0  0  0  0  0  0  0  0  0  0  0  0
    1.9500    1.2090    3.3440 C   0  0  0  0  0  0  0  0  0  0  0  0
    4.2400    2.5030    2.2180 S   0  0  0  0  0  0  0  0  0  0  0  0
    4.6140    2.2590    0.4970 C   0  0  0  0  0  0  0  0  0  0  0  0
    5.8140    2.7660   -0.6890 S   0  0  0  0  0  0  0  0  0  0  0  0
    5.0050    1.8220   -1.9690 C   0  0  0  0  0  0  0  0  0  0  0  0
    3.9080    1.2030   -1.4240 C   0  0  0  0  0  0  0  0  0  0  0  0
    3.0780    0.4010   -2.4120 C   0  0  0  0  0  0  0  0  0  0  0  0
    3.6540    1.4120   -0.0670 C   0  0  0  0  0  0  0  0  0  0  0  0
   -0.2490   -2.2890   -1.2660 C   0  0  0  0  0  0  0  0  0  0  0  0
    0.4150   -3.6470   -1.2970 C   0  0  0  0  0  0  0  0  0  0  0  0
   -0.0180   -4.5170   -0.3360 O   0  0  0  0  0  0  0  0  0  0  0  0
   -0.2320   -3.9150    0.8830 C   0  0  0  0  0  0  0  0  0  0  0  0
    0.5640   -2.6030    0.9850 C   0  0  0  0  0  0  0  0  0  0  0  0
   -1.9380   -0.1200   -0.3760 C   0  0  0  0  0  0  0  0  0  0  0  0
   -1.4460    0.0830   -1.6300 F   0  0  0  0  0  0  0  0  0  0  0  0
  1  2  1  0
  2  3  1  0
  3  4  1  0
  4  5  2  0
  4 28  1  0
  5  6  1  0
  5  7  1  0
  7  8  2  0
  8  9  1  0
  9 10  1  0
  9 28  2  0
 10 11  1  6
 10 23  1  0
 10 27  1  0
 11 12  1  0
 12 13  1  0
 13 14  2  0
 13 22  1  0
 14 15  1  0
 14 16  1  0
 16 17  1  0
 17 18  1  0
 17 22  2  0
 18 19  1  0
 19 20  2  0
 20 21  1  0
 20 22  1  0
 23 24  1  0
 24 25  1  0
 25 26  1  0
 26 27  1  0
 28 29  1  0
M  CHG  1  11   1
M  END
