
     RDKit          3D

 31 34  0  0  0  0  0  0  0  0999 V2000
   10.0460    1.6920    0.9060 C   0  0  0  0  0  0  0  0  0  0  0  0
    8.6880    0.9070    0.0380 S   0  0  2  0  0  0  0  0  0  0  0  0
    8.9620    0.9590   -1.4380 O   0  0  0  0  0  0  0  0  0  0  0  0
    7.4260    1.7090    0.2830 O   0  0  0  0  0  0  0  0  0  0  0  0
    8.5360   -0.6880    0.6210 N   0  0  0  0  0  0  0  0  0  0  0  0
    7.3620   -0.7990    1.3630 N   0  0  0  0  0  0  0  0  0  0  0  0
    6.1260   -0.8800    0.6400 C   0  0  0  0  0  0  0  0  0  0  0  0
    6.2060   -0.8290   -0.6350 O   0  0  0  0  0  0  0  0  0  0  0  0
    4.8610   -1.0180    1.2670 N   0  0  0  0  0  0  0  0  0  0  0  0
    3.7060   -1.0960    0.4450 C   0  0  0  0  0  0  0  0  0  0  0  0
    3.5300   -0.3750   -0.7110 C   0  0  0  0  0  0  0  0  0  0  0  0
    2.4450   -0.5310   -1.5330 C   0  0  0  0  0  0  0  0  0  0  0  0
    1.4620   -1.4320   -1.2390 C   0  0  0  0  0  0  0  0  0  0  0  0
    0.0500   -1.7240   -2.2440 S   0  0  0  0  0  0  0  0  0  0  0  0
   -1.3660   -0.8710   -1.6070 C   0  0  0  0  0  0  0  0  0  0  0  0
   -1.3070   -0.1770   -0.4270 C   0  0  0  0  0  0  0  0  0  0  0  0
   -2.4290    0.4740    0.1050 C   0  0  0  0  0  0  0  0  0  0  0  0
   -3.6340    0.4410   -0.5360 C   0  0  0  0  0  0  0  0  0  0  0  0
   -4.8050    1.0350   -0.0350 N   0  0  0  0  0  0  0  0  0  0  0  0
   -4.8970    1.3370    1.3800 C   0  0  0  0  0  0  0  0  0  0  0  0
   -6.3330    1.6080    1.7920 C   0  0  0  0  0  0  0  0  0  0  0  0
   -7.2710    0.6660    1.1240 C   0  0  0  0  0  0  0  0  0  0  0  0
   -8.2350   -0.0930    1.4680 N   0  0  0  0  0  0  0  0  0  0  0  0
   -8.7870   -0.7950    0.3300 C   0  0  0  0  0  0  0  0  0  0  0  0
   -7.9610   -0.3120   -0.7940 C   0  0  0  0  0  0  0  0  0  0  0  0
   -7.0820    0.5320   -0.3410 C   0  0  0  0  0  0  0  0  0  0  0  0
   -5.9650    1.3800   -0.8670 C   0  0  0  0  0  0  0  0  0  0  0  0
   -3.6810   -0.2690   -1.7450 C   0  0  0  0  0  0  0  0  0  0  0  0
   -2.5880   -0.9070   -2.2710 C   0  0  0  0  0  0  0  0  0  0  0  0
    1.6090   -2.1820   -0.0640 C   0  0  0  0  0  0  0  0  0  0  0  0
    2.7030   -2.0070    0.7420 C   0  0  0  0  0  0  0  0  0  0  0  0
  2  1  1  1
  2  3  2  0
  2  4  2  0
  2  5  1  0
  5  6  1  0
  6  7  1  0
  7  8  2  0
  7  9  1  0
  9 10  1  0
 10 11  2  0
 10 31  1  0
 11 12  1  0
 12 13  2  0
 13 14  1  0
 13 30  1  0
 14 15  1  0
 15 16  2  0
 15 29  1  0
 16 17  1  0
 17 18  2  0
 18 19  1  0
 18 28  1  0
 19 20  1  0
 19 27  1  0
 20 21  1  0
 21 22  1  0
 22 23  2  0
 22 26  1  0
 23 24  1  0
 24 25  1  0
 25 26  2  0
 26 27  1  0
 28 29  2  0
 30 31  2  0
M  END
