
     RDKit          3D

 29 32  0  0  0  0  0  0  0  0999 V2000
   -1.6490    0.1800    1.1030 F   0  0  0  0  0  0  0  0  0  0  0  0
   -2.4300    0.2700    0.0130 C   0  0  0  0  0  0  0  0  0  0  0  0
   -1.8380    0.6480   -1.2910 C   0  0  0  0  0  0  0  0  0  0  0  0
   -0.6380    0.7610   -1.1870 O   0  0  0  0  0  0  0  0  0  0  0  0
    0.6960    0.8900   -1.0980 C   0  0  0  0  0  0  0  0  0  0  0  0
    1.3040   -0.4810   -1.3590 C   0  0  0  0  0  0  0  0  0  0  0  0
    0.9040   -0.8320   -2.6860 C   0  0  0  0  0  0  0  0  0  0  0  0
    1.5600   -1.8170   -3.3010 C   0  0  0  0  0  0  0  0  0  0  0  0
    2.6130   -2.4450   -2.6930 C   0  0  0  0  0  0  0  0  0  0  0  0
    3.0790   -2.1360   -1.4070 C   0  0  0  0  0  0  0  0  0  0  0  0
    2.2570   -1.1290   -0.8260 C   0  0  0  0  0  0  0  0  0  0  0  0
    2.6380   -1.0000    0.9520 S   0  0  0  0  0  0  0  0  0  0  0  0
    4.2840   -0.2620    1.1760 C   0  0  1  0  0  0  0  0  0  0  0  0
    4.2600    1.1940    1.3220 C   0  0  0  0  0  0  0  0  0  0  0  0
    3.8310    2.0760    0.2490 C   0  0  0  0  0  0  0  0  0  0  0  0
    5.1790    2.7720   -0.7380 Cl  0  0  0  0  0  0  0  0  0  0  0  0
    4.8100   -1.0220    2.3960 C   0  0  0  0  0  0  0  0  0  0  0  0
    6.2480   -0.7160    2.5960 C   0  0  0  0  0  0  0  0  0  0  0  0
    6.8420   -0.6290    0.8860 S   0  0  0  0  0  0  0  0  0  0  0  0
    5.2240   -0.5640    0.0220 C   0  0  0  0  0  0  0  0  0  0  0  0
   -2.8230    0.7750   -2.2660 C   0  0  0  0  0  0  0  0  0  0  0  0
   -4.1770    0.5870   -2.1620 C   0  0  0  0  0  0  0  0  0  0  0  0
   -4.6670    0.1690   -0.9090 C   0  0  0  0  0  0  0  0  0  0  0  0
   -3.7500    0.0270    0.1250 C   0  0  0  0  0  0  0  0  0  0  0  0
   -4.1450   -0.5230    1.4880 C   0  0  0  0  0  0  0  0  0  0  0  0
   -4.8690    0.5840    2.2090 C   0  0  0  0  0  0  0  0  0  0  0  0
   -6.2130    0.8390    1.5870 C   0  0  0  0  0  0  0  0  0  0  0  0
   -6.6030   -0.0430    0.5260 N   0  0  0  0  0  0  0  0  0  0  0  0
   -6.1720    0.2990   -0.8000 C   0  0  0  0  0  0  0  0  0  0  0  0
  1  2  1  0
  2  3  2  0
  2 24  1  0
  3  4  1  0
  3 21  1  0
  4  5  1  0
  5  6  1  0
  6  7  2  0
  6 11  1  0
  7  8  1  0
  8  9  2  0
  9 10  1  0
 10 11  2  0
 11 12  1  0
 12 13  1  0
 13 14  1  1
 13 17  1  0
 13 20  1  0
 14 15  1  0
 15 16  1  0
 17 18  1  0
 18 19  1  0
 19 20  1  0
 21 22  2  0
 22 23  1  0
 23 24  2  0
 23 29  1  0
 24 25  1  0
 25 26  1  0
 26 27  1  0
 27 28  1  0
 28 29  1  0
M  CHG  1  28   1
M  END
