
     RDKit          3D

 31 32  0  0  0  0  0  0  0  0999 V2000
   -2.3240    4.4400    1.5270 C   0  0  0  0  0  0  0  0  0  0  0  0
   -2.7340    3.6290    0.4170 O   0  0  0  0  0  0  0  0  0  0  0  0
   -2.0160    2.4980    0.0540 C   0  0  0  0  0  0  0  0  0  0  0  0
   -1.0090    2.2090    0.7200 O   0  0  0  0  0  0  0  0  0  0  0  0
   -2.4620    1.6990   -1.0750 C   0  0  2  0  0  0  0  0  0  0  0  0
   -3.7640    1.0010   -0.6270 C   0  0  0  0  0  0  0  0  0  0  0  0
   -3.3600   -0.4580   -0.5820 C   0  0  1  0  0  0  0  0  0  0  0  0
   -4.3540   -1.3600   -0.5810 O   0  0  0  0  0  0  0  0  0  0  0  0
   -4.3610   -2.4560    0.6620 S   0  0  2  0  0  0  0  0  0  0  0  0
   -5.2990   -1.7900    1.9500 N   0  0  0  0  0  0  0  0  0  0  0  0
   -2.9480   -2.6840    1.1230 O   0  0  0  0  0  0  0  0  0  0  0  0
   -4.9490   -3.7770    0.3100 O   0  0  0  0  0  0  0  0  0  0  0  0
   -2.4430   -0.4750   -1.7970 C   0  0  0  0  0  0  0  0  0  0  0  0
   -1.6510    0.6340   -1.5180 N   0  0  0  0  0  0  0  0  0  0  0  0
   -0.0390    0.6770   -1.4450 S   0  0  1  0  0  0  0  0  0  0  0  0
    0.5180    0.2290   -2.8220 O   0  0  0  0  0  0  0  0  0  0  0  0
    0.4570    2.1210   -1.3670 O   0  0  0  0  0  0  0  0  0  0  0  0
    0.8640   -0.2430   -0.2710 C   0  0  2  0  0  0  0  0  0  0  0  0
    2.2430    0.2740   -0.2380 O   0  0  0  0  0  0  0  0  0  0  0  0
    3.1080   -0.5200    0.4920 C   0  0  0  0  0  0  0  0  0  0  0  0
    4.4130   -0.5390    0.3130 C   0  0  0  0  0  0  0  0  0  0  0  0
    5.0770    0.2300   -0.6240 O   0  0  0  0  0  0  0  0  0  0  0  0
    6.4370    0.2080   -0.8070 C   0  0  0  0  0  0  0  0  0  0  0  0
    7.0660    1.0690   -1.8390 C   0  0  0  0  0  0  0  0  0  0  0  0
    7.1430   -0.5460   -0.0970 O   0  0  0  0  0  0  0  0  0  0  0  0
    2.4610   -1.3870    1.5290 C   0  0  1  0  0  0  0  0  0  0  0  0
    1.9440   -0.6200    2.5700 O   0  0  0  0  0  0  0  0  0  0  0  0
    1.4090   -2.2700    0.9200 C   0  0  1  0  0  0  0  0  0  0  0  0
    0.2230   -2.2220    1.6510 O   0  0  0  0  0  0  0  0  0  0  0  0
    1.0500   -1.6890   -0.4730 C   0  0  1  0  0  0  0  0  0  0  0  0
   -0.0040   -2.4380   -0.8970 O   0  0  0  0  0  0  0  0  0  0  0  0
  1  2  1  0
  2  3  1  0
  3  4  2  0
  5  3  1  1
  5  6  1  0
  5 14  1  0
  6  7  1  0
  7  8  1  6
  7 13  1  0
  8  9  1  0
  9 10  1  1
  9 11  2  0
  9 12  2  0
 13 14  1  0
 15 14  1  6
 15 16  2  0
 15 17  2  0
 15 18  1  0
 18 19  1  6
 18 30  1  0
 19 20  1  0
 20 21  2  3
 20 26  1  0
 21 22  1  0
 22 23  1  0
 23 24  1  0
 23 25  2  0
 26 27  1  1
 26 28  1  0
 28 29  1  1
 28 30  1  0
 30 31  1  1
M  END
