
     RDKit          3D

 29 32  0  0  0  0  0  0  0  0999 V2000
    7.9080    1.6440    0.4230 C   0  0  0  0  0  0  0  0  0  0  0  0
    6.7260    0.7570    0.3080 C   0  0  0  0  0  0  0  0  0  0  0  0
    5.8550    0.9920   -0.7630 C   0  0  0  0  0  0  0  0  0  0  0  0
    4.7360    0.2030   -0.8990 C   0  0  0  0  0  0  0  0  0  0  0  0
    4.5160   -0.7890    0.0250 C   0  0  0  0  0  0  0  0  0  0  0  0
    3.3110   -1.6340   -0.1540 C   0  0  0  0  0  0  0  0  0  0  0  0
    3.4630   -2.7770   -0.6260 O   0  0  0  0  0  0  0  0  0  0  0  0
    2.0090   -1.1250    0.2050 C   0  0  0  0  0  0  0  0  0  0  0  0
    1.8140    0.2220    0.3640 C   0  0  0  0  0  0  0  0  0  0  0  0
    0.5860    0.6800    0.7660 C   0  0  0  0  0  0  0  0  0  0  0  0
    0.3080    2.4040    0.9540 Cl  0  0  0  0  0  0  0  0  0  0  0  0
   -0.4720   -0.2150    1.0180 C   0  0  0  0  0  0  0  0  0  0  0  0
   -0.2920   -1.5830    0.8560 C   0  0  0  0  0  0  0  0  0  0  0  0
   -1.5790   -2.7690    1.2240 S   0  0  0  0  0  0  0  0  0  0  0  0
   -2.8590   -2.7550   -0.1010 C   0  0  0  0  0  0  0  0  0  0  0  0
   -2.7030   -1.3840   -0.7940 C   0  0  0  0  0  0  0  0  0  0  0  0
   -1.8590   -1.3220   -1.9460 C   0  0  0  0  0  0  0  0  0  0  0  0
   -2.0720    0.3840   -2.4440 S   0  0  0  0  0  0  0  0  0  0  0  0
   -3.1820    0.8700   -1.1890 C   0  0  0  0  0  0  0  0  0  0  0  0
   -3.3460   -0.2950   -0.4470 C   0  0  0  0  0  0  0  0  0  0  0  0
   -4.2640   -0.1130    0.7450 C   0  0  0  0  0  0  0  0  0  0  0  0
   -5.2000    0.9850    0.6870 C   0  0  2  0  0  0  0  0  0  0  0  0
   -6.6660    0.5360    0.7320 C   0  0  0  0  0  0  0  0  0  0  0  0
   -5.1210    1.9550   -0.3580 N   0  0  0  0  0  0  0  0  0  0  0  0
   -3.7740    2.1660   -0.7570 C   0  0  0  0  0  0  0  0  0  0  0  0
    0.9520   -2.0260    0.4480 C   0  0  0  0  0  0  0  0  0  0  0  0
    5.3690   -1.0240    1.0830 C   0  0  0  0  0  0  0  0  0  0  0  0
    5.1030   -1.9930    1.9680 F   0  0  0  0  0  0  0  0  0  0  0  0
    6.4950   -0.2210    1.2100 C   0  0  0  0  0  0  0  0  0  0  0  0
  1  2  1  0
  2  3  2  0
  2 29  1  0
  3  4  1  0
  4  5  2  0
  5  6  1  0
  5 27  1  0
  6  7  2  0
  6  8  1  0
  8  9  2  0
  8 26  1  0
  9 10  1  0
 10 11  1  0
 10 12  2  0
 12 13  1  0
 13 14  1  0
 13 26  2  0
 14 15  1  0
 15 16  1  0
 16 17  2  0
 16 20  1  0
 17 18  1  0
 18 19  1  0
 19 20  2  0
 19 25  1  0
 20 21  1  0
 21 22  1  0
 22 23  1  6
 22 24  1  0
 24 25  1  0
 27 28  1  0
 27 29  2  0
M  CHG  1  24   1
M  END
