
     RDKit          3D

 28 31  0  0  0  0  0  0  0  0999 V2000
   -6.3160   -2.6060   -1.4960 C   0  0  0  0  0  0  0  0  0  0  0  0
   -5.2820   -1.6190   -1.1020 C   0  0  0  0  0  0  0  0  0  0  0  0
   -5.6750   -0.4620   -0.4460 C   0  0  0  0  0  0  0  0  0  0  0  0
   -4.7340    0.4740   -0.0670 C   0  0  0  0  0  0  0  0  0  0  0  0
   -5.2160    1.7030    0.6370 C   0  0  0  0  0  0  0  0  0  0  0  0
   -5.2370    1.5100    2.0070 F   0  0  0  0  0  0  0  0  0  0  0  0
   -3.4090    0.2720   -0.3340 C   0  0  0  0  0  0  0  0  0  0  0  0
   -2.9800   -0.8850   -0.9940 C   0  0  0  0  0  0  0  0  0  0  0  0
   -1.5300   -1.0770   -1.2700 C   0  0  0  0  0  0  0  0  0  0  0  0
   -0.7270   -0.2030   -0.5280 O   0  0  0  0  0  0  0  0  0  0  0  0
   -0.7270   -0.2230    0.9070 C   0  0  0  0  0  0  0  0  0  0  0  0
   -1.5310   -1.1290    1.5430 C   0  0  0  0  0  0  0  0  0  0  0  0
   -1.2370   -0.8260    3.2600 S   0  0  0  0  0  0  0  0  0  0  0  0
   -0.0600    0.4900    3.0230 C   0  0  0  0  0  0  0  0  0  0  0  0
    0.0210    0.6000    1.6800 C   0  0  0  0  0  0  0  0  0  0  0  0
    0.9450    1.6390    1.0340 C   0  0  0  0  0  0  0  0  0  0  0  0
    1.6400    2.4050    2.0010 N   0  0  0  0  0  0  0  0  0  0  0  0
    2.9070    1.8500    2.3990 C   0  0  0  0  0  0  0  0  0  0  0  0
    3.6090    1.1080    1.3640 C   0  0  0  0  0  0  0  0  0  0  0  0
    4.4900    1.4470    0.4020 C   0  0  0  0  0  0  0  0  0  0  0  0
    4.9770    0.4950   -0.4300 C   0  0  0  0  0  0  0  0  0  0  0  0
    4.5770   -0.7660   -0.2850 C   0  0  0  0  0  0  0  0  0  0  0  0
    3.4270   -0.6980    1.1050 S   0  0  0  0  0  0  0  0  0  0  0  0
    5.2020   -1.6940   -1.2650 C   0  0  2  0  0  0  0  0  0  0  0  0
    5.6690   -3.2320   -0.5430 Cl  0  0  0  0  0  0  0  0  0  0  0  0
    6.4670   -0.9170   -1.5860 C   0  0  0  0  0  0  0  0  0  0  0  0
    5.9450    0.4770   -1.6040 C   0  0  0  0  0  0  0  0  0  0  0  0
   -3.9330   -1.7930   -1.3560 C   0  0  0  0  0  0  0  0  0  0  0  0
  1  2  1  0
  2  3  2  0
  2 28  1  0
  3  4  1  0
  4  5  1  0
  4  7  2  0
  5  6  1  0
  7  8  1  0
  8  9  1  0
  8 28  2  0
  9 10  1  0
 10 11  1  0
 11 12  2  0
 11 15  1  0
 12 13  1  0
 13 14  1  0
 14 15  2  0
 15 16  1  0
 16 17  1  0
 17 18  1  0
 18 19  1  0
 19 20  2  0
 19 23  1  0
 20 21  1  0
 21 22  2  0
 21 27  1  0
 22 23  1  0
 22 24  1  0
 24 25  1  1
 24 26  1  0
 26 27  1  0
M  CHG  1  17   1
M  END
