
     RDKit          3D

 27 27  0  0  0  0  0  0  0  0999 V2000
   -6.8940    0.2390    0.8590 N   0  0  0  0  0  0  0  0  0  0  0  0
   -5.9860   -0.1220   -0.1470 C   0  0  0  0  0  0  0  0  0  0  0  0
   -6.3730   -0.3780   -1.2920 O   0  0  0  0  0  0  0  0  0  0  0  0
   -4.5170   -0.1980    0.1710 C   0  0  1  0  0  0  0  0  0  0  0  0
   -4.2940   -1.2480    1.1980 C   0  0  0  0  0  0  0  0  0  0  0  0
   -2.9640   -1.4500    1.4420 O   0  0  0  0  0  0  0  0  0  0  0  0
   -3.8760   -0.5720   -1.0140 O   0  0  0  0  0  0  0  0  0  0  0  0
   -3.7650    0.6270   -1.7310 C   0  0  0  0  0  0  0  0  0  0  0  0
   -3.6100    1.6370   -0.8200 O   0  0  0  0  0  0  0  0  0  0  0  0
   -3.9480    1.1480    0.4190 C   0  0  2  0  0  0  0  0  0  0  0  0
   -2.8600    1.2720    1.4160 C   0  0  0  0  0  0  0  0  0  0  0  0
   -1.6760    0.6790    1.0680 O   0  0  0  0  0  0  0  0  0  0  0  0
   -0.8270    1.0190    0.0470 C   0  0  0  0  0  0  0  0  0  0  0  0
   -1.0690    1.9750   -0.7060 O   0  0  0  0  0  0  0  0  0  0  0  0
    0.3770    0.2240   -0.1350 C   0  0  0  0  0  0  0  0  0  0  0  0
    0.6550   -0.7520    0.6060 O   0  0  0  0  0  0  0  0  0  0  0  0
    1.2900    0.5380   -1.1790 N   0  0  0  0  0  0  0  0  0  0  0  0
    2.4750   -0.2130   -1.3900 C   0  0  0  0  0  0  0  0  0  0  0  0
    3.4730    0.2030   -2.6030 S   0  0  0  0  0  0  0  0  0  0  0  0
    2.8150   -1.5860   -0.3070 S   0  0  0  0  0  0  0  0  0  0  0  0
    4.3770   -2.3470   -0.8190 C   0  0  0  0  0  0  0  0  0  0  0  0
    5.4800   -1.3550   -0.5660 C   0  0  0  0  0  0  0  0  0  0  0  0
    6.6710   -1.6100   -0.8260 O   0  0  0  0  0  0  0  0  0  0  0  0
    5.2300   -0.1030   -0.0290 O   0  0  0  0  0  0  0  0  0  0  0  0
    6.2370    0.8110    0.2050 C   0  0  0  0  0  0  0  0  0  0  0  0
    7.3080    0.3700    1.1530 C   0  0  0  0  0  0  0  0  0  0  0  0
    6.8380    0.0670    2.4180 O   0  0  0  0  0  0  0  0  0  0  0  0
  1  2  1  0
  2  3  2  0
  2  4  1  0
  4  5  1  1
  4  7  1  0
  4 10  1  0
  5  6  1  0
  7  8  1  0
  8  9  1  0
  9 10  1  0
 10 11  1  1
 11 12  1  0
 12 13  1  0
 13 14  2  0
 13 15  1  0
 15 16  2  0
 15 17  1  0
 17 18  1  0
 18 19  2  0
 18 20  1  0
 20 21  1  0
 21 22  1  0
 22 23  2  0
 22 24  1  0
 24 25  1  0
 25 26  1  0
 26 27  1  0
M  END
