
     RDKit          3D

 28 28  0  0  0  0  0  0  0  0999 V2000
    6.3100   -2.1080   -0.2100 O   0  0  0  0  0  0  0  0  0  0  0  0
    5.5700   -2.1240   -1.4490 S   0  0  0  0  0  0  0  0  0  0  0  0
    3.5910   -1.8950   -1.1650 S   0  0  1  0  0  0  0  0  0  0  0  0
    2.9480   -1.5580   -2.4550 O   0  0  0  0  0  0  0  0  0  0  0  0
    3.1550   -3.2820   -0.8690 O   0  0  0  0  0  0  0  0  0  0  0  0
    3.0080   -0.6740   -0.1060 C   0  0  0  0  0  0  0  0  0  0  0  0
    2.9150   -0.9870    1.1760 C   0  0  0  0  0  0  0  0  0  0  0  0
    2.4500   -0.0370    2.0700 O   0  0  0  0  0  0  0  0  0  0  0  0
    2.6560    0.6750   -0.5430 C   0  0  0  0  0  0  0  0  0  0  0  0
    1.6420    0.8110   -1.4380 O   0  0  0  0  0  0  0  0  0  0  0  0
    0.4050    0.3730   -1.0050 C   0  0  1  0  0  0  0  0  0  0  0  0
   -0.6380    1.4710   -1.0330 C   0  0  0  0  0  0  0  0  0  0  0  0
   -0.9890    1.8380    0.3890 C   0  0  1  0  0  0  0  0  0  0  0  0
   -0.2700    3.1230    0.7620 C   0  0  0  0  0  0  0  0  0  0  0  0
   -0.5470    3.5160    2.0500 O   0  0  0  0  0  0  0  0  0  0  0  0
   -2.4720    2.0290    0.5730 C   0  0  0  0  0  0  0  0  0  0  0  0
   -2.9760    1.0710    1.4410 O   0  0  0  0  0  0  0  0  0  0  0  0
   -4.2340    0.6090    1.0220 C   0  0  0  0  0  0  0  0  0  0  0  0
   -4.3790   -0.7820    1.5100 C   0  0  0  0  0  0  0  0  0  0  0  0
   -5.3670   -1.0760    2.2220 O   0  0  0  0  0  0  0  0  0  0  0  0
   -3.4540   -1.7330    1.1950 O   0  0  0  0  0  0  0  0  0  0  0  0
   -2.5880   -1.6970    0.0800 C   0  0  0  0  0  0  0  0  0  0  0  0
   -1.2270   -2.1070    0.5180 C   0  0  0  0  0  0  0  0  0  0  0  0
   -0.8940   -2.0450    1.7430 O   0  0  0  0  0  0  0  0  0  0  0  0
   -0.2390   -2.5830   -0.3930 N   0  0  0  0  0  0  0  0  0  0  0  0
   -0.0630   -2.0550   -1.6810 N   0  0  0  0  0  0  0  0  0  0  0  0
   -0.0690   -0.6590   -1.9530 C   0  0  0  0  0  0  0  0  0  0  0  0
   -0.5030   -0.2690   -3.0680 O   0  0  0  0  0  0  0  0  0  0  0  0
  1  2  2  0
  3  2  1  6
  3  4  2  0
  3  5  2  0
  3  6  1  0
  6  7  2  3
  6  9  1  0
  7  8  1  0
  9 10  1  0
 11 10  1  6
 11 12  1  0
 11 27  1  0
 12 13  1  0
 13 14  1  6
 13 16  1  0
 14 15  1  0
 16 17  1  0
 17 18  1  0
 18 19  1  0
 19 20  2  0
 19 21  1  0
 21 22  1  0
 22 23  1  0
 23 24  2  0
 23 25  1  0
 25 26  1  0
 26 27  1  0
 27 28  2  0
M  END
