
     RDKit          3D

 27 28  0  0  0  0  0  0  0  0999 V2000
    5.5520    1.9510   -1.2900 O   0  0  0  0  0  0  0  0  0  0  0  0
    6.2170    1.8250   -0.2530 C   0  0  0  0  0  0  0  0  0  0  0  0
    6.5720    3.0220    0.3970 O   0  0  0  0  0  0  0  0  0  0  0  0
    6.6280    0.5300    0.2890 C   0  0  0  0  0  0  0  0  0  0  0  0
    5.9850   -0.8810   -0.5520 S   0  0  0  0  0  0  0  0  0  0  0  0
    4.2560   -1.1780   -0.2380 C   0  0  0  0  0  0  0  0  0  0  0  0
    3.3350   -0.1270   -0.7430 C   0  0  0  0  0  0  0  0  0  0  0  0
    1.9590   -0.5510   -0.4840 N   0  0  0  0  0  0  0  0  0  0  0  0
    1.4570   -1.7100   -1.1090 C   0  0  0  0  0  0  0  0  0  0  0  0
    2.1910   -2.3700   -1.9010 O   0  0  0  0  0  0  0  0  0  0  0  0
    0.0940   -2.2270   -0.8990 C   0  0  0  0  0  0  0  0  0  0  0  0
   -0.6210   -1.4250   -0.0330 O   0  0  0  0  0  0  0  0  0  0  0  0
   -1.8830   -2.0000    0.1430 C   0  0  2  0  0  0  0  0  0  0  0  0
   -3.0000   -1.1810   -0.3900 C   0  0  0  0  0  0  0  0  0  0  0  0
   -3.1790    0.1830    0.2100 C   0  0  1  0  0  0  0  0  0  0  0  0
   -2.8420    0.2510    1.6810 C   0  0  0  0  0  0  0  0  0  0  0  0
   -3.0390   -1.4290    2.3400 S   0  0  0  0  0  0  0  0  0  0  0  0
   -4.4890   -1.8520    2.1430 O   0  0  0  0  0  0  0  0  0  0  0  0
   -2.0450   -2.4380    1.4320 O   0  0  0  0  0  0  0  0  0  0  0  0
   -2.3960    1.1270   -0.4930 O   0  0  0  0  0  0  0  0  0  0  0  0
   -2.6050    2.5000   -0.3550 C   0  0  0  0  0  0  0  0  0  0  0  0
   -1.6490    3.2730   -0.4950 O   0  0  0  0  0  0  0  0  0  0  0  0
   -3.9140    2.9440   -0.0570 N   0  0  0  0  0  0  0  0  0  0  0  0
   -4.9260    1.9590    0.0810 C   0  0  0  0  0  0  0  0  0  0  0  0
   -6.1150    2.3380    0.2010 O   0  0  0  0  0  0  0  0  0  0  0  0
   -4.6600    0.5160    0.0920 C   0  0  1  0  0  0  0  0  0  0  0  0
   -5.1750   -0.0620   -1.0620 O   0  0  0  0  0  0  0  0  0  0  0  0
  1  2  2  0
  2  3  1  0
  2  4  1  0
  4  5  1  0
  5  6  1  0
  6  7  1  0
  7  8  1  0
  8  9  1  0
  9 10  2  0
  9 11  1  0
 11 12  1  0
 13 12  1  1
 13 14  1  0
 13 19  1  0
 15 14  1  6
 15 16  1  0
 15 20  1  0
 15 26  1  0
 17 16  1  6
 17 18  2  0
 17 19  1  0
 20 21  1  0
 21 22  2  0
 21 23  1  0
 23 24  1  0
 24 25  2  0
 24 26  1  0
 26 27  1  6
M  END
