
     RDKit          3D

 27 27  0  0  0  0  0  0  0  0999 V2000
    6.0260    1.5140    0.2500 C   0  0  0  0  0  0  0  0  0  0  0  0
    4.9100    0.6300    0.2580 O   0  0  0  0  0  0  0  0  0  0  0  0
    4.8970   -0.4650   -0.5470 C   0  0  0  0  0  0  0  0  0  0  0  0
    5.9140   -0.6530   -1.2960 O   0  0  0  0  0  0  0  0  0  0  0  0
    3.8000   -1.4330   -0.6060 C   0  0  2  0  0  0  0  0  0  0  0  0
    2.7410   -1.0780    0.2490 O   0  0  0  0  0  0  0  0  0  0  0  0
    1.4970   -0.7720   -0.3140 C   0  0  0  0  0  0  0  0  0  0  0  0
    1.4370   -0.8010   -1.5900 O   0  0  0  0  0  0  0  0  0  0  0  0
    0.2870   -0.4360    0.4920 C   0  0  0  0  0  0  0  0  0  0  0  0
   -1.0460   -0.0800   -0.6780 S   0  0  0  0  0  0  0  0  0  0  0  0
   -1.7410    1.5300   -0.3820 C   0  0  1  0  0  0  0  0  0  0  0  0
   -0.7720    2.5940   -0.5440 C   0  0  0  0  0  0  0  0  0  0  0  0
   -0.1240    2.8180   -1.7740 N   0  0  0  0  0  0  0  0  0  0  0  0
   -0.4520    3.3820    0.4010 O   0  0  0  0  0  0  0  0  0  0  0  0
   -3.0860    1.8970   -1.6090 S   0  0  0  0  0  0  0  0  0  0  0  0
   -4.5860    1.3560   -0.8060 C   0  0  0  0  0  0  0  0  0  0  0  0
   -5.6810    1.8300   -0.9770 O   0  0  0  0  0  0  0  0  0  0  0  0
   -4.4030    0.2150    0.1470 C   0  0  2  0  0  0  0  0  0  0  0  0
   -4.0970   -1.0060   -0.6950 C   0  0  0  0  0  0  0  0  0  0  0  0
   -5.6960   -0.1000    0.8680 C   0  0  0  0  0  0  0  0  0  0  0  0
   -5.4910   -1.2000    1.7010 O   0  0  0  0  0  0  0  0  0  0  0  0
   -3.3970    0.5070    1.0950 O   0  0  0  0  0  0  0  0  0  0  0  0
   -2.4340    1.5080    0.9310 C   0  0  0  0  0  0  0  0  0  0  0  0
   -2.1670    2.3290    1.8140 O   0  0  0  0  0  0  0  0  0  0  0  0
    4.2590   -2.8100   -0.2480 C   0  0  0  0  0  0  0  0  0  0  0  0
    3.6860   -3.4980    0.8480 N   0  0  0  0  0  0  0  0  0  0  0  0
    5.1550   -3.3460   -0.9280 O   0  0  0  0  0  0  0  0  0  0  0  0
  1  2  1  0
  2  3  1  0
  3  4  2  0
  3  5  1  0
  5  6  1  1
  5 25  1  0
  6  7  1  0
  7  8  2  0
  7  9  1  0
  9 10  1  0
 11 10  1  6
 11 12  1  0
 11 15  1  0
 11 23  1  0
 12 13  1  0
 12 14  2  0
 15 16  1  0
 16 17  2  0
 16 18  1  0
 18 19  1  6
 18 20  1  0
 18 22  1  0
 20 21  1  0
 22 23  1  0
 23 24  2  0
 25 26  1  0
 25 27  2  0
M  END
