
     RDKit          3D

 23 25  0  0  0  0  0  0  0  0999 V2000
   -3.6300   -0.1460   -1.8600 C   0  0  0  0  0  0  0  0  0  0  0  0
   -3.9670    0.5010   -0.5700 C   0  0  1  0  0  0  0  0  0  0  0  0
   -3.9730    1.9990   -0.7310 C   0  0  0  0  0  0  0  0  0  0  0  0
   -5.3660    0.0270   -0.1730 C   0  0  0  0  0  0  0  0  0  0  0  0
   -5.1060   -1.3440    0.4150 C   0  0  0  0  0  0  0  0  0  0  0  0
   -3.6850   -1.3110    0.9900 C   0  0  0  0  0  0  0  0  0  0  0  0
   -3.1840    0.0640    0.6250 C   0  0  2  0  0  0  0  0  0  0  0  0
   -3.6790    0.8910    1.6780 O   0  0  0  0  0  0  0  0  0  0  0  0
   -1.7360    0.2640    0.6190 C   0  0  0  0  0  0  0  0  0  0  0  0
   -0.9020   -0.3710   -0.4160 C   0  0  0  0  0  0  0  0  0  0  0  0
    0.5580   -0.0460   -0.2250 C   0  0  0  0  0  0  0  0  0  0  0  0
    1.3820   -1.0780   -0.0270 C   0  0  0  0  0  0  0  0  0  0  0  0
    2.8230   -1.0650    0.1840 C   0  0  0  0  0  0  0  0  0  0  0  0
    3.2330   -2.1290    0.8540 C   0  0  0  0  0  0  0  0  0  0  0  0
    4.6910   -2.2050    1.1190 C   0  0  0  0  0  0  0  0  0  0  0  0
    5.3840   -1.8340   -0.1670 C   0  0  0  0  0  0  0  0  0  0  0  0
    5.1900   -0.3650   -0.4910 C   0  0  0  0  0  0  0  0  0  0  0  0
    3.7800   -0.0270   -0.2630 C   0  0  0  0  0  0  0  0  0  0  0  0
    3.4580    1.2160   -0.4860 C   0  0  0  0  0  0  0  0  0  0  0  0
    4.5300    2.1100   -0.9220 C   0  0  0  0  0  0  0  0  0  0  0  0
    4.7160    3.1840   -0.0200 O   0  0  0  0  0  0  0  0  0  0  0  0
    2.1600    1.9140   -0.3810 C   0  0  0  0  0  0  0  0  0  0  0  0
    0.9500    1.3530   -0.2720 C   0  0  0  0  0  0  0  0  0  0  0  0
  2  1  1  6
  2  3  1  0
  2  4  1  0
  2  7  1  0
  4  5  1  0
  5  6  1  0
  6  7  1  0
  7  8  1  1
  7  9  1  0
  9 10  1  0
 10 11  1  0
 11 12  2  0
 11 23  1  0
 12 13  1  0
 13 14  2  0
 13 18  1  0
 14 15  1  0
 15 16  1  0
 16 17  1  0
 17 18  1  0
 18 19  2  0
 19 20  1  0
 19 22  1  0
 20 21  1  0
 22 23  2  0
M  END
