
     RDKit          3D

 28 29  0  0  0  0  0  0  0  0999 V2000
   -4.6450    0.6780   -3.3090 C   0  0  0  0  0  0  0  0  0  0  0  0
   -4.5900    0.5640   -1.8880 O   0  0  0  0  0  0  0  0  0  0  0  0
   -3.5830   -0.2410   -1.3230 C   0  0  0  0  0  0  0  0  0  0  0  0
   -2.7930   -0.8090   -2.1200 O   0  0  0  0  0  0  0  0  0  0  0  0
   -3.4280   -0.4350    0.1060 C   0  0  2  0  0  0  0  0  0  0  0  0
   -4.4520    0.1920    0.8450 O   0  0  0  0  0  0  0  0  0  0  0  0
   -4.4790   -0.3970    2.1050 C   0  0  0  0  0  0  0  0  0  0  0  0
   -3.1510   -0.5080    2.7460 C   0  0  0  0  0  0  0  0  0  0  0  0
   -3.0640   -0.5900    3.9980 O   0  0  0  0  0  0  0  0  0  0  0  0
   -2.0180   -0.5170    1.9480 O   0  0  0  0  0  0  0  0  0  0  0  0
   -2.1490    0.1660    0.6820 C   0  0  2  0  0  0  0  0  0  0  0  0
   -2.3540    1.6260    1.0090 C   0  0  0  0  0  0  0  0  0  0  0  0
   -0.9650   -0.0030   -0.1450 C   0  0  0  0  0  0  0  0  0  0  0  0
   -0.8580    0.5980   -1.2690 O   0  0  0  0  0  0  0  0  0  0  0  0
    0.1560   -0.8160    0.1790 N   0  0  0  0  0  0  0  0  0  0  0  0
    1.2500   -0.9230   -0.6810 N   0  0  0  0  0  0  0  0  0  0  0  0
    2.1460    0.5300   -0.8030 S   0  0  2  0  0  0  0  0  0  0  0  0
    1.4240    1.6860   -0.1390 O   0  0  0  0  0  0  0  0  0  0  0  0
    2.3580    0.8850   -2.2230 O   0  0  0  0  0  0  0  0  0  0  0  0
    3.6430    0.3460    0.0670 C   0  0  0  0  0  0  0  0  0  0  0  0
    3.7480    0.5980    1.3830 C   0  0  0  0  0  0  0  0  0  0  0  0
    4.9830    0.4560    2.1470 C   0  0  0  0  0  0  0  0  0  0  0  0
    6.1040    1.0250    1.5470 O   0  0  0  0  0  0  0  0  0  0  0  0
    6.4060    0.4550   -0.0030 S   0  0  0  0  0  0  0  0  0  0  0  0
    7.4270   -0.6660   -0.0670 O   0  0  0  0  0  0  0  0  0  0  0  0
    4.8270   -0.1030   -0.6710 C   0  0  0  0  0  0  0  0  0  0  0  0
    4.7940   -0.8520   -1.7390 C   0  0  0  0  0  0  0  0  0  0  0  0
    3.6590   -1.3420   -2.3430 O   0  0  0  0  0  0  0  0  0  0  0  0
  1  2  1  0
  2  3  1  0
  3  4  2  0
  5  3  1  6
  5  6  1  0
  5 11  1  0
  6  7  1  0
  7  8  1  0
  8  9  2  0
  8 10  1  0
 10 11  1  0
 11 12  1  1
 11 13  1  0
 13 14  2  0
 13 15  1  0
 15 16  1  0
 17 16  1  6
 17 18  2  0
 17 19  2  0
 17 20  1  0
 20 21  2  0
 20 26  1  0
 21 22  1  0
 22 23  1  0
 24 23  1  1
 24 25  2  0
 24 26  1  0
 26 27  2  3
 27 28  1  0
M  END
