
     RDKit          3D

 27 28  0  0  0  0  0  0  0  0999 V2000
   -4.3970   -3.1070   -0.8800 C   0  0  0  0  0  0  0  0  0  0  0  0
   -3.0370   -2.8270   -1.2590 N   0  0  0  0  0  0  0  0  0  0  0  0
   -1.9630   -2.8600    0.1120 S   0  0  2  0  0  0  0  0  0  0  0  0
   -0.6950   -3.4600   -0.3500 O   0  0  0  0  0  0  0  0  0  0  0  0
   -2.5890   -3.8100    1.1040 O   0  0  0  0  0  0  0  0  0  0  0  0
   -1.8170   -1.3440    0.8510 N   0  0  0  0  0  0  0  0  0  0  0  0
   -0.7780   -0.4990    0.3690 C   0  0  2  0  0  0  0  0  0  0  0  0
    0.2900   -0.1860    1.3850 C   0  0  0  0  0  0  0  0  0  0  0  0
    1.4410    0.4250    0.5730 C   0  0  2  0  0  0  0  0  0  0  0  0
    2.6300    0.4650    1.2810 O   0  0  0  0  0  0  0  0  0  0  0  0
    3.7150   -0.2560    0.7420 C   0  0  0  0  0  0  0  0  0  0  0  0
    3.5510   -0.8890   -0.3370 O   0  0  0  0  0  0  0  0  0  0  0  0
    5.0250   -0.2950    1.3930 C   0  0  0  0  0  0  0  0  0  0  0  0
    5.9030   -1.0870    0.6320 O   0  0  0  0  0  0  0  0  0  0  0  0
    7.2120   -1.3440    0.9440 C   0  0  0  0  0  0  0  0  0  0  0  0
    7.6940   -0.8460    1.9850 O   0  0  0  0  0  0  0  0  0  0  0  0
    7.9670   -2.1490    0.0950 O   0  0  0  0  0  0  0  0  0  0  0  0
    0.9510    1.7920    0.1400 C   0  0  0  0  0  0  0  0  0  0  0  0
   -0.1440    1.5360   -0.8830 C   0  0  2  0  0  0  0  0  0  0  0  0
   -0.5820    2.7690   -1.3560 O   0  0  0  0  0  0  0  0  0  0  0  0
   -1.2610    0.7660   -0.2750 C   0  0  1  0  0  0  0  0  0  0  0  0
   -2.2740    0.5270   -1.2150 O   0  0  0  0  0  0  0  0  0  0  0  0
   -3.0610    1.6090   -1.4720 C   0  0  0  0  0  0  0  0  0  0  0  0
   -3.3860    2.0940   -2.6080 O   0  0  0  0  0  0  0  0  0  0  0  0
   -3.5640    2.2460   -0.2020 C   0  0  2  0  0  0  0  0  0  0  0  0
   -3.6350    3.7290   -0.3880 C   0  0  0  0  0  0  0  0  0  0  0  0
   -2.1450    1.8440    0.9000 S   0  0  0  0  0  0  0  0  0  0  0  0
  1  2  1  0
  3  2  1  6
  3  4  2  0
  3  5  2  0
  3  6  1  0
  7  6  1  1
  7  8  1  0
  7 21  1  0
  8  9  1  0
  9 10  1  1
  9 18  1  0
 10 11  1  0
 11 12  2  0
 11 13  1  0
 13 14  1  0
 14 15  1  0
 15 16  2  0
 15 17  1  0
 18 19  1  0
 19 20  1  1
 19 21  1  0
 21 22  1  6
 21 27  1  0
 22 23  1  0
 23 24  2  0
 23 25  1  0
 25 26  1  6
 25 27  1  0
M  END
