
     RDKit          3D

 21 22  0  0  0  0  0  0  0  0999 V2000
    6.6870   -1.5790    2.1940 C   0  0  0  0  0  0  0  0  0  0  0  0
    4.9940   -1.9820    2.6640 S   0  0  0  0  0  0  0  0  0  0  0  0
    3.8620   -0.8260    1.9300 C   0  0  0  0  0  0  0  0  0  0  0  0
    3.5500    0.3010    2.6080 N   0  0  0  0  0  0  0  0  0  0  0  0
    2.7150    1.1700    2.0850 N   0  0  0  0  0  0  0  0  0  0  0  0
    2.1450    0.9830    0.8770 C   0  0  0  0  0  0  0  0  0  0  0  0
    2.4180   -0.1280    0.1440 C   0  0  0  0  0  0  0  0  0  0  0  0
    1.9230   -0.4660   -1.1400 C   0  0  0  0  0  0  0  0  0  0  0  0
    1.1720    0.1300   -1.9770 C   0  0  0  0  0  0  0  0  0  0  0  0
    0.4640    1.3980   -2.0610 C   0  0  0  0  0  0  0  0  0  0  0  0
   -0.9250    1.3280   -2.2110 O   0  0  0  0  0  0  0  0  0  0  0  0
   -1.8200    0.7700   -1.3440 C   0  0  0  0  0  0  0  0  0  0  0  0
   -1.5270    0.1730   -0.1400 C   0  0  0  0  0  0  0  0  0  0  0  0
   -2.5060   -0.3810    0.6950 C   0  0  0  0  0  0  0  0  0  0  0  0
   -2.1360   -0.9860    1.9290 N   0  0  0  0  0  0  0  0  0  0  0  0
   -3.8300   -0.3490    0.3370 C   0  0  0  0  0  0  0  0  0  0  0  0
   -4.1560    0.2420   -0.8610 C   0  0  0  0  0  0  0  0  0  0  0  0
   -5.5760    0.3010   -1.2920 C   0  0  0  0  0  0  0  0  0  0  0  0
   -3.1950    0.7820   -1.6740 C   0  0  0  0  0  0  0  0  0  0  0  0
   -3.5260    1.3860   -2.9000 O   0  0  0  0  0  0  0  0  0  0  0  0
    3.3010   -1.0060    0.7440 N   0  0  0  0  0  0  0  0  0  0  0  0
  1  2  1  0
  2  3  1  0
  3  4  2  0
  3 21  1  0
  4  5  1  0
  5  6  2  0
  6  7  1  0
  7  8  1  0
  7 21  2  0
  8  9  2  3
  9 10  1  0
 10 11  1  0
 11 12  1  0
 12 13  2  0
 12 19  1  0
 13 14  1  0
 14 15  1  0
 14 16  2  0
 16 17  1  0
 17 18  1  0
 17 19  2  0
 19 20  1  0
M  END
