
     RDKit          3D

 21 22  0  0  0  0  0  0  0  0999 V2000
   -2.7810   -2.4150   -1.3170 C   0  0  0  0  0  0  0  0  0  0  0  0
   -2.5260   -1.3910   -0.5500 C   0  0  0  0  0  0  0  0  0  0  0  0
   -1.2780   -0.6310   -0.7730 C   0  0  0  0  0  0  0  0  0  0  0  0
   -1.0550    0.3900    0.0180 C   0  0  0  0  0  0  0  0  0  0  0  0
    0.1840    1.1900   -0.1580 C   0  0  0  0  0  0  0  0  0  0  0  0
    0.3870    2.2100    0.6310 C   0  0  0  0  0  0  0  0  0  0  0  0
    1.4720    3.1360    0.6840 C   0  0  0  0  0  0  0  0  0  0  0  0
    1.4760    4.1980    1.6520 N   0  0  0  0  0  0  0  0  0  0  0  0
    2.4490    3.0860   -0.0750 O   0  0  0  0  0  0  0  0  0  0  0  0
    1.1200    0.7960   -1.2210 C   0  0  0  0  0  0  0  0  0  0  0  0
    1.6080   -0.5650   -0.9290 N   0  0  0  0  0  0  0  0  0  0  0  0
    2.4180   -0.5820    0.2350 C   0  0  0  0  0  0  0  0  0  0  0  0
    3.7850   -1.1410    0.1250 C   0  0  0  0  0  0  0  0  0  0  0  0
    3.8340   -2.1640   -0.7890 O   0  0  0  0  0  0  0  0  0  0  0  0
    3.5620   -1.6100   -2.0380 C   0  0  0  0  0  0  0  0  0  0  0  0
    2.1800   -1.0600   -2.1340 C   0  0  0  0  0  0  0  0  0  0  0  0
   -1.9580    0.7740    1.0540 N   0  0  0  0  0  0  0  0  0  0  0  0
   -3.0530    0.1590    1.2980 C   0  0  0  0  0  0  0  0  0  0  0  0
   -4.1130    0.7170    2.6150 S   0  0  0  0  0  0  0  0  0  0  0  0
   -5.5900   -0.2870    2.7860 C   0  0  0  0  0  0  0  0  0  0  0  0
   -3.3800   -0.9620    0.4920 N   0  0  0  0  0  0  0  0  0  0  0  0
  1  2  2  0
  2  3  1  0
  2 21  1  0
  3  4  2  0
  4  5  1  0
  4 17  1  0
  5  6  2  3
  5 10  1  0
  6  7  1  0
  7  8  1  0
  7  9  2  0
 10 11  1  0
 11 12  1  0
 11 16  1  0
 12 13  1  0
 13 14  1  0
 14 15  1  0
 15 16  1  0
 17 18  2  0
 18 19  1  0
 18 21  1  0
 19 20  1  0
M  END
