
     RDKit          3D

 22 22  0  0  0  0  0  0  0  0999 V2000
   -6.7510    1.4210    0.4370 C   0  0  0  0  0  0  0  0  0  0  0  0
   -5.8620    2.0160   -0.6260 C   0  0  0  0  0  0  0  0  0  0  0  0
   -4.5410    1.5040   -0.4950 O   0  0  0  0  0  0  0  0  0  0  0  0
   -4.2790    0.1580   -0.5960 C   0  0  0  0  0  0  0  0  0  0  0  0
   -5.2950   -0.5850   -0.8120 O   0  0  0  0  0  0  0  0  0  0  0  0
   -2.9730   -0.4750   -0.4750 C   0  0  0  0  0  0  0  0  0  0  0  0
   -2.9290   -1.8480   -0.3220 C   0  0  0  0  0  0  0  0  0  0  0  0
   -1.7410   -2.4850   -0.1420 C   0  0  0  0  0  0  0  0  0  0  0  0
   -1.6850   -3.9790    0.0230 C   0  0  0  0  0  0  0  0  0  0  0  0
   -0.5550   -1.7230   -0.1120 C   0  0  0  0  0  0  0  0  0  0  0  0
    0.6700   -2.4980    0.1750 C   0  0  0  0  0  0  0  0  0  0  0  0
   -0.5280   -0.3640   -0.2580 C   0  0  0  0  0  0  0  0  0  0  0  0
    0.7140    0.3680   -0.3070 C   0  0  0  0  0  0  0  0  0  0  0  0
    0.7500    1.7210    0.3850 C   0  0  0  0  0  0  0  0  0  0  0  0
    1.8700   -0.0490   -0.7920 C   0  0  0  0  0  0  0  0  0  0  0  0
    3.1010    0.8220   -0.7760 C   0  0  0  0  0  0  0  0  0  0  0  0
    4.2300    0.2000   -0.0020 C   0  0  2  0  0  0  0  0  0  0  0  0
    3.9230   -0.0710    1.4360 C   0  0  0  0  0  0  0  0  0  0  0  0
    5.4360    1.0870   -0.0900 C   0  0  0  0  0  0  0  0  0  0  0  0
    6.5960    0.5080    0.6690 C   0  0  0  0  0  0  0  0  0  0  0  0
   -1.7760    0.2480   -0.4450 C   0  0  0  0  0  0  0  0  0  0  0  0
   -1.8800    1.6880   -0.7520 C   0  0  0  0  0  0  0  0  0  0  0  0
  1  2  1  0
  2  3  1  0
  3  4  1  0
  4  5  2  0
  4  6  1  0
  6  7  2  0
  6 21  1  0
  7  8  1  0
  8  9  1  0
  8 10  2  0
 10 11  1  0
 10 12  1  0
 12 13  1  0
 12 21  2  0
 13 14  1  0
 13 15  2  3
 15 16  1  0
 16 17  1  0
 17 18  1  1
 17 19  1  0
 19 20  1  0
 21 22  1  0
M  END
