
     RDKit          3D

 19 19  0  0  0  0  0  0  0  0999 V2000
   -2.4380   -1.8980    0.3850 C   0  0  0  0  0  0  0  0  0  0  0  0
   -2.6590   -0.6440   -0.4250 C   0  0  2  0  0  0  0  0  0  0  0  0
   -3.3840    0.3700    0.4620 C   0  0  0  0  0  0  0  0  0  0  0  0
   -3.4970   -0.9720   -1.6400 C   0  0  0  0  0  0  0  0  0  0  0  0
   -1.4150   -0.0160   -0.8700 C   0  0  0  0  0  0  0  0  0  0  0  0
   -1.1930    0.1250   -2.0930 O   0  0  0  0  0  0  0  0  0  0  0  0
   -0.4670    0.4290    0.0600 N   0  0  0  0  0  0  0  0  0  0  0  0
    0.7880    1.0610   -0.3400 C   0  0  1  0  0  0  0  0  0  0  0  0
    0.9350    2.3780    0.2680 C   0  0  0  0  0  0  0  0  0  0  0  0
    0.0790    2.8180    1.0750 O   0  0  0  0  0  0  0  0  0  0  0  0
    2.0480    3.2040   -0.0350 N   0  0  0  0  0  0  0  0  0  0  0  0
    2.1610    4.4290    0.5470 O   0  0  0  0  0  0  0  0  0  0  0  0
    1.8470    0.0820    0.0340 C   0  0  0  0  0  0  0  0  0  0  0  0
    2.9590    0.3990    0.7440 C   0  0  0  0  0  0  0  0  0  0  0  0
    3.8970   -0.5690    1.0400 C   0  0  0  0  0  0  0  0  0  0  0  0
    3.7080   -1.8710    0.6140 C   0  0  0  0  0  0  0  0  0  0  0  0
    5.0290   -3.1700    1.0470 Br  0  0  0  0  0  0  0  0  0  0  0  0
    2.5790   -2.1940   -0.1070 C   0  0  0  0  0  0  0  0  0  0  0  0
    1.6600   -1.2140   -0.3900 C   0  0  0  0  0  0  0  0  0  0  0  0
  2  1  1  1
  2  3  1  0
  2  4  1  0
  2  5  1  0
  5  6  2  0
  5  7  1  0
  8  7  1  1
  8  9  1  0
  8 13  1  0
  9 10  2  0
  9 11  1  0
 11 12  1  0
 13 14  2  0
 13 19  1  0
 14 15  1  0
 15 16  2  0
 16 17  1  0
 16 18  1  0
 18 19  2  0
M  END
