
     RDKit          3D

 21 22  0  0  0  0  0  0  0  0999 V2000
    0.4320    0.2930    1.6440 C   0  0  0  0  0  0  0  0  0  0  0  0
    0.0900   -0.4520    0.4430 C   0  0  0  0  0  0  0  0  0  0  0  0
   -1.1110   -0.5820   -0.0530 C   0  0  0  0  0  0  0  0  0  0  0  0
   -2.4010   -0.1010    0.3470 C   0  0  0  0  0  0  0  0  0  0  0  0
   -2.5350    0.6370    1.6350 C   0  0  0  0  0  0  0  0  0  0  0  0
   -3.4980   -0.3560   -0.3750 C   0  0  0  0  0  0  0  0  0  0  0  0
   -3.3230   -1.1570   -1.5950 C   0  0  0  0  0  0  0  0  0  0  0  0
   -4.2870   -2.0570   -1.9150 C   0  0  0  0  0  0  0  0  0  0  0  0
   -5.4210   -2.1530   -1.0140 C   0  0  0  0  0  0  0  0  0  0  0  0
   -6.3560   -3.0110   -1.2300 O   0  0  0  0  0  0  0  0  0  0  0  0
   -5.5910   -1.2940    0.2000 C   0  0  0  0  0  0  0  0  0  0  0  0
   -4.8750    0.0300   -0.1640 C   0  0  1  0  0  0  0  0  0  0  0  0
   -5.2810    1.1800    0.6300 C   0  0  0  0  0  0  0  0  0  0  0  0
    1.1470   -1.2190   -0.3090 C   0  0  0  0  0  0  0  0  0  0  0  0
    2.1950   -0.5040   -1.0080 C   0  0  0  0  0  0  0  0  0  0  0  0
    3.1560    0.3460   -0.2950 C   0  0  1  0  0  0  0  0  0  0  0  0
    3.9740   -0.3720    0.7340 C   0  0  0  0  0  0  0  0  0  0  0  0
    5.4290   -0.5230    0.3940 C   0  0  0  0  0  0  0  0  0  0  0  0
    6.0900    0.8140    0.1230 C   0  0  0  0  0  0  0  0  0  0  0  0
    5.1340    1.7470   -0.6010 C   0  0  0  0  0  0  0  0  0  0  0  0
    4.1640    0.8720   -1.3740 C   0  0  0  0  0  0  0  0  0  0  0  0
  1  2  1  0
  2  3  2  3
  2 14  1  0
  3  4  1  0
  4  5  1  0
  4  6  2  3
  6  7  1  0
  6 12  1  0
  7  8  2  0
  8  9  1  0
  9 10  2  0
  9 11  1  0
 11 12  1  0
 12 13  1  1
 14 15  1  0
 16 15  1  6
 16 17  1  0
 16 21  1  0
 17 18  1  0
 18 19  1  0
 19 20  1  0
 20 21  1  0
M  END
