
     RDKit          3D

 22 24  0  0  0  0  0  0  0  0999 V2000
    4.9800    1.1970    1.2950 C   0  0  0  0  0  0  0  0  0  0  0  0
    3.5490    1.3450    1.1490 C   0  0  0  0  0  0  0  0  0  0  0  0
    2.6830    0.3060    0.9580 C   0  0  0  0  0  0  0  0  0  0  0  0
    1.3180    0.6180    0.8330 C   0  0  0  0  0  0  0  0  0  0  0  0
    0.1550    0.1370    0.6430 C   0  0  0  0  0  0  0  0  0  0  0  0
   -0.8690    1.1730    0.6460 O   0  0  0  0  0  0  0  0  0  0  0  0
   -1.0310    2.1090   -0.3350 C   0  0  1  0  0  0  0  0  0  0  0  0
    0.0650    3.0850   -0.6180 C   0  0  0  0  0  0  0  0  0  0  0  0
   -0.5470    3.8680   -1.8070 C   0  0  0  0  0  0  0  0  0  0  0  0
   -1.4780    2.9230   -2.4830 C   0  0  0  0  0  0  0  0  0  0  0  0
   -1.2680    1.5910   -1.7450 C   0  0  0  0  0  0  0  0  0  0  0  0
   -0.3800   -1.1590    0.4110 C   0  0  0  0  0  0  0  0  0  0  0  0
   -1.7150   -1.3900    0.3640 C   0  0  0  0  0  0  0  0  0  0  0  0
   -2.8980   -0.5040    0.5160 C   0  0  0  0  0  0  0  0  0  0  0  0
   -3.8660   -1.4290    1.3070 C   0  0  0  0  0  0  0  0  0  0  0  0
   -3.5390   -2.7300    0.7460 C   0  0  0  0  0  0  0  0  0  0  0  0
   -2.3020   -2.7080    0.2040 C   0  0  0  0  0  0  0  0  0  0  0  0
   -1.5660   -3.7930   -0.4600 C   0  0  0  0  0  0  0  0  0  0  0  0
   -0.2900   -3.2520   -0.9560 C   0  0  0  0  0  0  0  0  0  0  0  0
    0.4240   -2.3670    0.0610 C   0  0  0  0  0  0  0  0  0  0  0  0
    3.3330   -0.9830    0.9890 C   0  0  0  0  0  0  0  0  0  0  0  0
    2.8460   -1.8350    1.9920 O   0  0  0  0  0  0  0  0  0  0  0  0
  1  2  1  0
  2  3  2  3
  3  4  1  0
  3 21  1  0
  4  5  2  3
  5  6  1  0
  5 12  1  0
  7  6  1  1
  7  8  1  0
  7 11  1  0
  8  9  1  0
  9 10  1  0
 10 11  1  0
 12 13  2  0
 12 20  1  0
 13 14  1  0
 13 17  1  0
 14 15  1  0
 15 16  1  0
 16 17  2  0
 17 18  1  0
 18 19  1  0
 19 20  1  0
 21 22  1  0
M  END
