
     RDKit          3D

 22 22  0  0  0  0  0  0  0  0999 V2000
   -2.3110   -2.2230   -1.8550 C   0  0  0  0  0  0  0  0  0  0  0  0
   -2.6640   -1.4680   -0.8760 C   0  0  0  0  0  0  0  0  0  0  0  0
   -4.1510   -1.5760   -0.5340 C   0  0  0  0  0  0  0  0  0  0  0  0
   -1.8210   -0.5170   -0.0880 C   0  0  0  0  0  0  0  0  0  0  0  0
   -2.5210    0.0560    0.8350 C   0  0  0  0  0  0  0  0  0  0  0  0
   -2.3020    1.0390    1.8900 C   0  0  0  0  0  0  0  0  0  0  0  0
   -0.3630   -0.3000   -0.4560 C   0  0  1  0  0  0  0  0  0  0  0  0
    0.0040   -1.6200   -0.9220 O   0  0  0  0  0  0  0  0  0  0  0  0
   -0.4060    0.4580   -1.7120 C   0  0  2  0  0  0  0  0  0  0  0  0
    0.9030    0.8520   -2.3670 C   0  0  0  0  0  0  0  0  0  0  0  0
   -1.3310    1.5850   -1.9720 C   0  0  1  0  0  0  0  0  0  0  0  0
   -1.2330    2.8030   -1.1230 C   0  0  0  0  0  0  0  0  0  0  0  0
   -1.1080    2.0630   -3.2960 O   0  0  0  0  0  0  0  0  0  0  0  0
    0.6080   -0.1360    0.6170 C   0  0  2  0  0  0  0  0  0  0  0  0
    0.4300   -1.3630    1.5440 C   0  0  0  0  0  0  0  0  0  0  0  0
    0.6960   -2.6910    1.0290 C   0  0  0  0  0  0  0  0  0  0  0  0
    0.9100    1.0030    1.4440 C   0  0  0  0  0  0  0  0  0  0  0  0
    2.2320    1.7550    1.2360 C   0  0  0  0  0  0  0  0  0  0  0  0
    3.3900    1.1340    1.9710 C   0  0  0  0  0  0  0  0  0  0  0  0
    4.0870    0.0590    1.1830 C   0  0  0  0  0  0  0  0  0  0  0  0
    2.9850   -1.0160    1.0130 C   0  0  0  0  0  0  0  0  0  0  0  0
    2.0410   -0.5080    0.0020 C   0  0  0  0  0  0  0  0  0  0  0  0
  1  2  2  0
  2  3  1  0
  2  4  1  0
  4  5  2  3
  4  7  1  0
  5  6  1  0
  7  8  1  6
  7  9  1  0
  7 14  1  0
  9 10  1  1
  9 11  1  0
 11 12  1  1
 11 13  1  0
 14 15  1  1
 14 17  1  0
 14 22  1  0
 15 16  1  0
 17 18  1  0
 18 19  1  0
 19 20  1  0
 20 21  1  0
 21 22  1  0
M  END
