
     RDKit          3D

 22 22  0  0  0  0  0  0  0  0999 V2000
    3.1840    2.7140   -2.2010 C   0  0  0  0  0  0  0  0  0  0  0  0
    4.0930    2.1010   -1.5430 C   0  0  0  0  0  0  0  0  0  0  0  0
    3.8580    1.2570   -0.3510 C   0  0  0  0  0  0  0  0  0  0  0  0
    4.9370    0.7430    0.2190 C   0  0  0  0  0  0  0  0  0  0  0  0
    4.9730   -0.1260    1.3980 C   0  0  0  0  0  0  0  0  0  0  0  0
    2.5430    1.0850    0.2240 C   0  0  0  0  0  0  0  0  0  0  0  0
    2.3950    1.0810    1.5930 C   0  0  0  0  0  0  0  0  0  0  0  0
    1.1950    0.8080    2.1850 C   0  0  0  0  0  0  0  0  0  0  0  0
    1.0770    0.8120    3.6610 C   0  0  0  0  0  0  0  0  0  0  0  0
    0.0780    0.5260    1.4030 C   0  0  0  0  0  0  0  0  0  0  0  0
   -1.2340    0.2340    2.0720 C   0  0  0  0  0  0  0  0  0  0  0  0
    0.1570    0.5140    0.0330 C   0  0  0  0  0  0  0  0  0  0  0  0
   -1.0020    0.2200   -0.8340 C   0  0  1  0  0  0  0  0  0  0  0  0
   -0.5980    0.2370   -2.3090 C   0  0  0  0  0  0  0  0  0  0  0  0
   -1.7690   -0.0500   -3.2160 C   0  0  0  0  0  0  0  0  0  0  0  0
   -1.6820   -0.9720   -0.5270 O   0  0  0  0  0  0  0  0  0  0  0  0
   -3.0410   -0.9670   -0.2540 C   0  0  0  0  0  0  0  0  0  0  0  0
   -3.6890    0.1310   -0.2860 O   0  0  0  0  0  0  0  0  0  0  0  0
   -3.7910   -2.2070    0.0830 C   0  0  2  0  0  0  0  0  0  0  0  0
   -3.6820   -3.2200   -1.0340 C   0  0  0  0  0  0  0  0  0  0  0  0
   -5.2560   -1.8710    0.2490 C   0  0  0  0  0  0  0  0  0  0  0  0
    1.4120    0.7980   -0.5200 C   0  0  0  0  0  0  0  0  0  0  0  0
  1  2  2  0
  2  3  1  0
  3  4  2  3
  3  6  1  0
  4  5  1  0
  6  7  2  0
  6 22  1  0
  7  8  1  0
  8  9  1  0
  8 10  2  0
 10 11  1  0
 10 12  1  0
 12 13  1  0
 12 22  2  0
 13 14  1  6
 13 16  1  0
 14 15  1  0
 16 17  1  0
 17 18  2  0
 17 19  1  0
 19 20  1  6
 19 21  1  0
M  END
