
     RDKit          3D

 22 22  0  0  0  0  0  0  0  0999 V2000
   -5.1220   -0.6180   -0.5760 C   0  0  0  0  0  0  0  0  0  0  0  0
   -4.9400   -0.5470    0.9090 C   0  0  0  0  0  0  0  0  0  0  0  0
   -3.4940   -0.5630    1.3580 C   0  0  2  0  0  0  0  0  0  0  0  0
   -2.7940   -1.8360    1.0040 C   0  0  0  0  0  0  0  0  0  0  0  0
   -2.7530   -2.2170   -0.3820 C   0  0  0  0  0  0  0  0  0  0  0  0
   -1.8300   -2.0120   -1.2550 C   0  0  0  0  0  0  0  0  0  0  0  0
   -0.5950   -1.3100   -1.0400 C   0  0  0  0  0  0  0  0  0  0  0  0
   -0.2470   -0.5270    0.0670 C   0  0  0  0  0  0  0  0  0  0  0  0
    0.9860   -0.0490   -0.1470 C   0  0  0  0  0  0  0  0  0  0  0  0
    1.3800   -0.6140   -1.5130 C   0  0  0  0  0  0  0  0  0  0  0  0
    2.6920   -0.1840   -1.8730 C   0  0  0  0  0  0  0  0  0  0  0  0
    3.8150    0.2010   -2.1680 C   0  0  0  0  0  0  0  0  0  0  0  0
    5.1670    0.6890   -2.5350 C   0  0  2  0  0  0  0  0  0  0  0  0
    5.0590    1.6760   -3.6800 C   0  0  0  0  0  0  0  0  0  0  0  0
    6.0490   -0.4880   -2.8010 C   0  0  0  0  0  0  0  0  0  0  0  0
    5.6660    1.3940   -1.2830 C   0  0  0  0  0  0  0  0  0  0  0  0
    5.7210    0.4720   -0.1150 C   0  0  0  0  0  0  0  0  0  0  0  0
    0.4200   -1.2360   -1.7840 O   0  0  0  0  0  0  0  0  0  0  0  0
   -3.3610   -0.2680    2.8190 C   0  0  0  0  0  0  0  0  0  0  0  0
   -3.8950    1.0890    3.2250 C   0  0  2  0  0  0  0  0  0  0  0  0
   -3.2180    2.2430    2.5740 C   0  0  0  0  0  0  0  0  0  0  0  0
   -3.7120    1.1850    4.6260 O   0  0  0  0  0  0  0  0  0  0  0  0
  1  2  1  0
  3  2  1  1
  3  4  1  0
  3 19  1  0
  4  5  1  0
  5  6  2  3
  6  7  1  0
  7  8  2  0
  7 18  1  0
  8  9  1  0
  9 10  2  0
 10 11  1  0
 10 18  1  0
 11 12  3  0
 12 13  1  0
 13 14  1  6
 13 15  1  0
 13 16  1  0
 16 17  1  0
 19 20  1  0
 20 21  1  6
 20 22  1  0
M  END
