
     RDKit          3D

 27 28  0  0  0  0  0  0  0  0999 V2000
   -3.6610    1.8830    2.0110 C   0  0  0  0  0  0  0  0  0  0  0  0
   -2.3690    1.4980    2.1890 O   0  0  0  0  0  0  0  0  0  0  0  0
   -2.0670    0.1900    1.9680 C   0  0  0  0  0  0  0  0  0  0  0  0
   -2.2330   -0.2990    0.5320 C   0  0  2  0  0  0  0  0  0  0  0  0
   -2.1160   -1.7980    0.5080 C   0  0  2  0  0  0  0  0  0  0  0  0
   -2.2220   -2.6150   -0.6980 C   0  0  0  0  0  0  0  0  0  0  0  0
   -3.4290   -2.5600    0.1240 C   0  0  0  0  0  0  0  0  0  0  0  0
   -1.3910    0.3920   -0.3920 N   0  0  0  0  0  0  0  0  0  0  0  0
    0.0100    0.3360   -0.4230 C   0  0  0  0  0  0  0  0  0  0  0  0
    0.6830    1.0570   -1.2610 O   0  0  0  0  0  0  0  0  0  0  0  0
    0.8530   -0.4650    0.3960 N   0  0  0  0  0  0  0  0  0  0  0  0
    2.2680   -0.4340    0.2820 C   0  0  0  0  0  0  0  0  0  0  0  0
    2.9970   -0.0600    1.3310 C   0  0  0  0  0  0  0  0  0  0  0  0
    4.4550    0.0520    1.4610 C   0  0  0  0  0  0  0  0  0  0  0  0
    4.9920    0.1840    2.8310 C   0  0  0  0  0  0  0  0  0  0  0  0
    5.3770    0.0530    0.5140 C   0  0  0  0  0  0  0  0  0  0  0  0
    5.1990   -0.0580   -0.9460 C   0  0  0  0  0  0  0  0  0  0  0  0
    6.2840    0.2610   -1.6590 F   0  0  0  0  0  0  0  0  0  0  0  0
    4.1050   -0.4320   -1.6030 C   0  0  0  0  0  0  0  0  0  0  0  0
    2.8060   -0.8230   -1.0030 C   0  0  0  0  0  0  0  0  0  0  0  0
    2.0640   -1.6300   -1.7340 C   0  0  0  0  0  0  0  0  0  0  0  0
    0.8650   -2.0650   -1.2960 F   0  0  0  0  0  0  0  0  0  0  0  0
    2.4780   -2.0530   -2.9530 F   0  0  0  0  0  0  0  0  0  0  0  0
   -2.0250    1.2240   -1.4260 C   0  0  2  0  0  0  0  0  0  0  0  0
   -1.5730    0.7640   -2.8030 C   0  0  0  0  0  0  0  0  0  0  0  0
   -1.6820    2.6640   -1.2340 C   0  0  0  0  0  0  0  0  0  0  0  0
   -3.4150    1.0880   -1.4070 O   0  0  0  0  0  0  0  0  0  0  0  0
  1  2  1  0
  2  3  1  0
  4  3  1  1
  4  5  1  0
  4  8  1  0
  5  6  1  6
  5  7  1  0
  6  7  1  0
  8  9  1  0
  8 24  1  0
  9 10  2  0
  9 11  1  0
 11 12  1  0
 12 13  2  0
 12 20  1  0
 13 14  1  0
 14 15  1  0
 14 16  2  0
 16 17  1  0
 17 18  1  0
 17 19  2  0
 19 20  1  0
 20 21  2  3
 21 22  1  0
 21 23  1  0
 24 25  1  6
 24 26  1  0
 24 27  1  0
M  END
