
     RDKit          3D

 27 27  0  0  0  0  0  0  0  0999 V2000
    3.2400    0.4840    1.9810 C   0  0  0  0  0  0  0  0  0  0  0  0
    3.6610    0.0520    0.8020 C   0  0  0  0  0  0  0  0  0  0  0  0
    2.8840   -0.0690   -0.4220 C   0  0  0  0  0  0  0  0  0  0  0  0
    1.5690    0.0290   -0.4810 C   0  0  0  0  0  0  0  0  0  0  0  0
    0.9080   -0.1060   -1.7480 C   0  0  0  0  0  0  0  0  0  0  0  0
   -0.4010   -0.0370   -1.8770 C   0  0  0  0  0  0  0  0  0  0  0  0
   -1.2860    0.1700   -0.7940 C   0  0  0  0  0  0  0  0  0  0  0  0
   -2.6050    0.3050   -0.7570 C   0  0  0  0  0  0  0  0  0  0  0  0
   -3.2540    0.2580   -2.0670 C   0  0  0  0  0  0  0  0  0  0  0  0
   -2.5770    0.2100   -3.1450 O   0  0  0  0  0  0  0  0  0  0  0  0
   -4.6110    0.2420   -2.2840 O   0  0  0  0  0  0  0  0  0  0  0  0
   -5.1660    0.1820   -3.5740 C   0  0  0  0  0  0  0  0  0  0  0  0
   -3.3390    0.1210    0.4970 C   0  0  0  0  0  0  0  0  0  0  0  0
   -4.5770    0.5090    0.7280 C   0  0  0  0  0  0  0  0  0  0  0  0
   -5.5530    1.2050   -0.0580 C   0  0  0  0  0  0  0  0  0  0  0  0
   -6.0020    2.3070    0.8070 F   0  0  0  0  0  0  0  0  0  0  0  0
   -2.7550   -0.6420    1.5820 C   0  0  0  0  0  0  0  0  0  0  0  0
   -3.6580   -0.6590    2.7800 N   0  0  0  0  0  0  0  0  0  0  0  0
   -1.6980   -1.2800    1.7840 C   0  0  0  0  0  0  0  0  0  0  0  0
   -1.5070   -1.9040    3.0770 F   0  0  0  0  0  0  0  0  0  0  0  0
   -0.6920   -1.6430    0.9740 F   0  0  0  0  0  0  0  0  0  0  0  0
    3.8180   -0.3280   -1.5230 C   0  0  0  0  0  0  0  0  0  0  0  0
    4.8750   -1.1760   -0.7910 C   0  0  0  0  0  0  0  0  0  0  0  0
    4.9690   -0.3960    0.4460 N   0  0  0  0  0  0  0  0  0  0  0  0
    6.1910   -0.1720    1.1080 C   0  0  0  0  0  0  0  0  0  0  0  0
    6.3360    0.6260    2.3370 C   0  0  0  0  0  0  0  0  0  0  0  0
    7.2730   -0.6750    0.6480 O   0  0  0  0  0  0  0  0  0  0  0  0
  1  2  2  0
  2  3  1  0
  2 24  1  0
  3  4  2  3
  3 22  1  0
  4  5  1  0
  5  6  2  3
  6  7  1  0
  7  8  2  3
  8  9  1  0
  8 13  1  0
  9 10  2  0
  9 11  1  0
 11 12  1  0
 13 14  2  3
 13 17  1  0
 14 15  1  0
 15 16  1  0
 17 18  1  0
 17 19  2  3
 19 20  1  0
 19 21  1  0
 22 23  1  0
 23 24  1  0
 24 25  1  0
 25 26  1  0
 25 27  2  0
M  END
