
     RDKit          3D

 27 28  0  0  0  0  0  0  0  0999 V2000
   -6.3320   -0.1460    1.3510 C   0  0  0  0  0  0  0  0  0  0  0  0
   -5.6010    0.8490    0.4640 C   0  0  0  0  0  0  0  0  0  0  0  0
   -4.2210    0.4430    0.1790 C   0  0  0  0  0  0  0  0  0  0  0  0
   -3.2580    0.5950    1.1550 C   0  0  0  0  0  0  0  0  0  0  0  0
   -3.6380    1.1620    2.4580 C   0  0  0  0  0  0  0  0  0  0  0  0
   -1.9420    0.2220    0.9240 C   0  0  0  0  0  0  0  0  0  0  0  0
   -1.5410   -0.3150   -0.2850 C   0  0  0  0  0  0  0  0  0  0  0  0
   -0.1780   -0.6980   -0.5140 N   0  0  0  0  0  0  0  0  0  0  0  0
    0.8430   -0.5440    0.4850 C   0  0  0  0  0  0  0  0  0  0  0  0
    2.1520   -1.0440   -0.0680 C   0  0  0  0  0  0  0  0  0  0  0  0
    3.1910   -0.2410   -0.1680 C   0  0  0  0  0  0  0  0  0  0  0  0
    4.4810   -0.6620   -0.6920 C   0  0  0  0  0  0  0  0  0  0  0  0
    5.4740    0.1990   -0.7730 C   0  0  0  0  0  0  0  0  0  0  0  0
    5.2560    1.5360   -0.3430 O   0  0  0  0  0  0  0  0  0  0  0  0
    5.8190    1.9750    0.8720 C   0  0  0  0  0  0  0  0  0  0  0  0
    6.8330   -0.0810   -1.2790 C   0  0  1  0  0  0  0  0  0  0  0  0
    7.6590    1.0360   -1.0510 F   0  0  0  0  0  0  0  0  0  0  0  0
    7.4150   -1.0640   -0.4580 F   0  0  0  0  0  0  0  0  0  0  0  0
    6.8840   -0.4500   -2.5960 F   0  0  0  0  0  0  0  0  0  0  0  0
    4.6290   -2.0310   -1.1250 C   0  0  0  0  0  0  0  0  0  0  0  0
    5.6960   -2.4900   -1.5920 O   0  0  0  0  0  0  0  0  0  0  0  0
    3.4800   -2.9110   -1.0120 N   0  0  0  0  0  0  0  0  0  0  0  0
    2.2600   -2.4330   -0.4930 C   0  0  0  0  0  0  0  0  0  0  0  0
    1.2470   -3.2100   -0.3940 O   0  0  0  0  0  0  0  0  0  0  0  0
   -2.5050   -0.4650   -1.2560 C   0  0  0  0  0  0  0  0  0  0  0  0
   -3.8160   -0.0990   -1.0410 C   0  0  0  0  0  0  0  0  0  0  0  0
   -4.8670   -0.2610   -2.0950 C   0  0  0  0  0  0  0  0  0  0  0  0
  1  2  1  0
  2  3  1  0
  3  4  2  0
  3 26  1  0
  4  5  1  0
  4  6  1  0
  6  7  2  0
  7  8  1  0
  7 25  1  0
  8  9  1  0
  9 10  1  0
 10 11  2  0
 10 23  1  0
 11 12  1  0
 12 13  2  3
 12 20  1  0
 13 14  1  0
 13 16  1  0
 14 15  1  0
 16 17  1  6
 16 18  1  0
 16 19  1  0
 20 21  2  0
 20 22  1  0
 22 23  1  0
 23 24  2  0
 25 26  2  0
 26 27  1  0
M  END
