
     RDKit          3D

 27 28  0  0  0  0  0  0  0  0999 V2000
    6.4230    1.2930    0.6520 C   0  0  0  0  0  0  0  0  0  0  0  0
    5.8280    0.0790    1.3400 C   0  0  2  0  0  0  0  0  0  0  0  0
    6.7350   -0.3680    2.3200 O   0  0  0  0  0  0  0  0  0  0  0  0
    5.6180   -1.0520    0.3890 C   0  0  0  0  0  0  0  0  0  0  0  0
    4.6970   -0.6680   -0.7060 C   0  0  0  0  0  0  0  0  0  0  0  0
    3.3350   -0.3180   -0.2590 C   0  0  0  0  0  0  0  0  0  0  0  0
    2.9890   -0.3950    0.9400 O   0  0  0  0  0  0  0  0  0  0  0  0
    2.3270    0.1320   -1.1800 N   0  0  0  0  0  0  0  0  0  0  0  0
    1.0280    0.4630   -0.7870 N   0  0  0  0  0  0  0  0  0  0  0  0
   -0.0560   -0.4480   -0.9960 C   0  0  0  0  0  0  0  0  0  0  0  0
    0.2920   -1.5490   -1.5580 O   0  0  0  0  0  0  0  0  0  0  0  0
   -1.4230   -0.2100   -0.6320 C   0  0  0  0  0  0  0  0  0  0  0  0
   -1.8240    1.0180   -0.1700 C   0  0  0  0  0  0  0  0  0  0  0  0
   -3.1380    1.2180    0.1720 C   0  0  0  0  0  0  0  0  0  0  0  0
   -4.0530    0.1740    0.0490 C   0  0  0  0  0  0  0  0  0  0  0  0
   -3.6860   -1.0590   -0.4060 C   0  0  0  0  0  0  0  0  0  0  0  0
   -4.4700   -2.0920   -0.5500 C   0  0  0  0  0  0  0  0  0  0  0  0
   -3.9070   -3.4000   -1.0720 C   0  0  1  0  0  0  0  0  0  0  0  0
   -3.0570   -3.8970   -0.1110 F   0  0  0  0  0  0  0  0  0  0  0  0
   -4.9130   -4.3370   -1.2480 F   0  0  0  0  0  0  0  0  0  0  0  0
   -2.3330   -1.2160   -0.7440 C   0  0  0  0  0  0  0  0  0  0  0  0
   -5.3330    0.2410    0.3430 C   0  0  0  0  0  0  0  0  0  0  0  0
   -6.1170    1.3560    0.8500 C   0  0  0  0  0  0  0  0  0  0  0  0
   -5.7510    2.5860    1.1470 C   0  0  0  0  0  0  0  0  0  0  0  0
   -4.4140    3.1920    1.0470 C   0  0  0  0  0  0  0  0  0  0  0  0
   -4.3350    4.4810    1.4220 F   0  0  0  0  0  0  0  0  0  0  0  0
   -3.3210    2.5890    0.6300 C   0  0  0  0  0  0  0  0  0  0  0  0
  2  1  1  6
  2  3  1  0
  2  4  1  0
  4  5  1  0
  5  6  1  0
  6  7  2  0
  6  8  1  0
  8  9  1  0
  9 10  1  0
 10 11  2  0
 10 12  1  0
 12 13  1  0
 12 21  2  0
 13 14  2  0
 14 15  1  0
 14 27  1  0
 15 16  1  0
 15 22  2  0
 16 17  2  3
 16 21  1  0
 17 18  1  0
 18 19  1  1
 18 20  1  0
 22 23  1  0
 23 24  2  0
 24 25  1  0
 25 26  1  0
 25 27  2  0
M  END
