
     RDKit          3D

 27 28  0  0  0  0  0  0  0  0999 V2000
   -2.1420   -0.0140   -3.9710 C   0  0  0  0  0  0  0  0  0  0  0  0
   -3.3020   -0.8480   -3.6110 C   0  0  0  0  0  0  0  0  0  0  0  0
   -4.2720   -0.8360   -4.5980 F   0  0  0  0  0  0  0  0  0  0  0  0
   -3.5100   -1.5490   -2.5480 C   0  0  0  0  0  0  0  0  0  0  0  0
   -2.5650   -1.5740   -1.5400 C   0  0  0  0  0  0  0  0  0  0  0  0
   -1.5170   -0.6400   -1.3570 N   0  0  0  0  0  0  0  0  0  0  0  0
   -0.2820   -0.9040   -0.7100 C   0  0  0  0  0  0  0  0  0  0  0  0
   -0.0690   -2.0600   -0.2900 O   0  0  0  0  0  0  0  0  0  0  0  0
    0.7110    0.1280   -0.5330 N   0  0  0  0  0  0  0  0  0  0  0  0
    1.9580   -0.1160    0.1250 C   0  0  0  0  0  0  0  0  0  0  0  0
    1.8690   -0.5130    1.5630 C   0  0  2  0  0  0  0  0  0  0  0  0
    1.1420   -1.6320    1.8460 O   0  0  0  0  0  0  0  0  0  0  0  0
    1.4570    0.6270    2.4740 C   0  0  0  0  0  0  0  0  0  0  0  0
    2.4240    1.7420    2.4410 C   0  0  0  0  0  0  0  0  0  0  0  0
    2.2990    2.9170    1.7250 C   0  0  0  0  0  0  0  0  0  0  0  0
    3.4450    3.6460    1.9950 C   0  0  0  0  0  0  0  0  0  0  0  0
    3.8160    4.9870    1.4810 C   0  0  0  0  0  0  0  0  0  0  0  0
    4.1710    2.9400    2.8050 O   0  0  0  0  0  0  0  0  0  0  0  0
    3.6250    1.7950    3.1140 C   0  0  0  0  0  0  0  0  0  0  0  0
    4.2460    0.8120    4.0180 C   0  0  0  0  0  0  0  0  0  0  0  0
   -2.7040   -2.4610   -0.4720 C   0  0  0  0  0  0  0  0  0  0  0  0
   -3.7570   -3.3200   -0.3810 C   0  0  0  0  0  0  0  0  0  0  0  0
   -3.8770   -4.1880    0.6680 F   0  0  0  0  0  0  0  0  0  0  0  0
   -4.6940   -3.2980   -1.3660 C   0  0  0  0  0  0  0  0  0  0  0  0
   -4.5950   -2.4290   -2.4490 C   0  0  0  0  0  0  0  0  0  0  0  0
   -5.5760   -2.4470   -3.3010 C   0  0  0  0  0  0  0  0  0  0  0  0
   -6.5990   -3.3710   -3.1010 F   0  0  0  0  0  0  0  0  0  0  0  0
  1  2  1  0
  2  3  1  0
  2  4  2  3
  4  5  1  0
  4 25  1  0
  5  6  1  0
  5 21  2  0
  6  7  1  0
  7  8  2  0
  7  9  1  0
  9 10  1  0
 10 11  1  0
 11 12  1  6
 11 13  1  0
 13 14  1  0
 14 15  1  0
 14 19  2  0
 15 16  2  0
 16 17  1  0
 16 18  1  0
 18 19  1  0
 19 20  1  0
 21 22  1  0
 22 23  1  0
 22 24  2  0
 24 25  1  0
 25 26  2  3
 26 27  1  0
M  END
