
     RDKit          3D

 27 28  0  0  0  0  0  0  0  0999 V2000
   -3.9280    2.3810    4.7980 C   0  0  0  0  0  0  0  0  0  0  0  0
   -3.8220    1.9830    3.4240 O   0  0  0  0  0  0  0  0  0  0  0  0
   -2.6530    1.4390    2.9230 C   0  0  0  0  0  0  0  0  0  0  0  0
   -1.6920    1.3100    3.7190 O   0  0  0  0  0  0  0  0  0  0  0  0
   -2.4820    1.0140    1.5380 C   0  0  0  0  0  0  0  0  0  0  0  0
   -1.2890    0.4500    1.1500 C   0  0  0  0  0  0  0  0  0  0  0  0
   -1.1060    0.0280   -0.1650 C   0  0  0  0  0  0  0  0  0  0  0  0
   -2.1750    0.2150   -1.0080 C   0  0  0  0  0  0  0  0  0  0  0  0
   -3.3520    0.7740   -0.6130 N   0  0  0  0  0  0  0  0  0  0  0  0
   -3.5270    1.1810    0.6560 C   0  0  0  0  0  0  0  0  0  0  0  0
   -4.6350    1.7020    1.0070 O   0  0  0  0  0  0  0  0  0  0  0  0
   -1.9920   -0.2400   -2.4160 C   0  0  0  0  0  0  0  0  0  0  0  0
   -1.3230   -1.5910   -2.3610 C   0  0  2  0  0  0  0  0  0  0  0  0
   -1.2740   -2.1330   -3.7730 C   0  0  0  0  0  0  0  0  0  0  0  0
   -2.2220   -2.5080   -1.5610 C   0  0  0  0  0  0  0  0  0  0  0  0
    0.0400   -1.5510   -1.7410 C   0  0  0  0  0  0  0  0  0  0  0  0
    0.1770   -0.5890   -0.6020 C   0  0  1  0  0  0  0  0  0  0  0  0
    1.2160    0.3850   -0.7920 N   0  0  0  0  0  0  0  0  0  0  0  0
    2.5540   -0.1910   -0.8510 C   0  0  0  0  0  0  0  0  0  0  0  0
    2.9340   -0.6750    0.4820 C   0  0  0  0  0  0  0  0  0  0  0  0
    3.9080   -0.2920    1.2310 C   0  0  0  0  0  0  0  0  0  0  0  0
    4.9210    0.7020    1.0270 C   0  0  0  0  0  0  0  0  0  0  0  0
    5.0600    1.5520   -0.1580 C   0  0  0  0  0  0  0  0  0  0  0  0
    6.1530    2.4170    0.0430 F   0  0  0  0  0  0  0  0  0  0  0  0
    5.8180    0.8580    2.0440 C   0  0  0  0  0  0  0  0  0  0  0  0
    6.7810    1.7730    1.9010 F   0  0  0  0  0  0  0  0  0  0  0  0
    5.7240    0.1080    3.1520 F   0  0  0  0  0  0  0  0  0  0  0  0
  1  2  1  0
  2  3  1  0
  3  4  2  0
  3  5  1  0
  5  6  2  0
  5 10  1  0
  6  7  1  0
  7  8  2  0
  7 17  1  0
  8  9  1  0
  8 12  1  0
  9 10  1  0
 10 11  2  0
 12 13  1  0
 13 14  1  6
 13 15  1  0
 13 16  1  0
 16 17  1  0
 17 18  1  6
 18 19  1  0
 19 20  1  0
 20 21  2  3
 21 22  1  0
 22 23  1  0
 22 25  2  3
 23 24  1  0
 25 26  1  0
 25 27  1  0
M  END
