
     RDKit          3D

 20 21  0  0  0  0  0  0  0  0999 V2000
   -6.8220    0.8370   -0.2280 O   0  0  0  0  0  0  0  0  0  0  0  0
   -5.5460    0.8560   -0.2720 C   0  0  0  0  0  0  0  0  0  0  0  0
   -4.7860    1.0590    0.9000 N   0  0  0  0  0  0  0  0  0  0  0  0
   -3.3880    1.3890    0.7860 C   0  0  0  0  0  0  0  0  0  0  0  0
   -2.7960    0.4090   -0.2340 C   0  0  2  0  0  0  0  0  0  0  0  0
   -1.3530    0.6220   -0.3440 N   0  0  0  0  0  0  0  0  0  0  0  0
   -0.4730   -0.4320   -0.0250 C   0  0  0  0  0  0  0  0  0  0  0  0
   -0.9190   -1.5620    0.3570 O   0  0  0  0  0  0  0  0  0  0  0  0
    0.9410   -0.3120   -0.1040 N   0  0  0  0  0  0  0  0  0  0  0  0
    1.8130   -1.4410    0.2400 C   0  0  0  0  0  0  0  0  0  0  0  0
    3.2310   -1.0240    0.0640 C   0  0  0  0  0  0  0  0  0  0  0  0
    3.9930   -1.6560   -0.7770 C   0  0  0  0  0  0  0  0  0  0  0  0
    5.3990   -1.2590   -0.9660 C   0  0  0  0  0  0  0  0  0  0  0  0
    5.7650   -0.1820   -0.1670 O   0  0  0  0  0  0  0  0  0  0  0  0
    4.9610    0.4870    0.7220 C   0  0  0  0  0  0  0  0  0  0  0  0
    5.6340    1.9650    1.7530 Br  0  0  0  0  0  0  0  0  0  0  0  0
    3.7120    0.0900    0.8510 C   0  0  0  0  0  0  0  0  0  0  0  0
   -3.4680    0.6990   -1.5270 C   0  0  0  0  0  0  0  0  0  0  0  0
   -2.8260    0.9640   -2.5800 O   0  0  0  0  0  0  0  0  0  0  0  0
   -4.8900    0.6680   -1.5390 N   0  0  0  0  0  0  0  0  0  0  0  0
  1  2  2  0
  2  3  1  0
  2 20  1  0
  3  4  1  0
  4  5  1  0
  5  6  1  6
  5 18  1  0
  6  7  1  0
  7  8  2  0
  7  9  1  0
  9 10  1  0
 10 11  1  0
 11 12  2  0
 11 17  1  0
 12 13  1  0
 13 14  1  0
 14 15  1  0
 15 16  1  0
 15 17  2  0
 18 19  2  0
 18 20  1  0
M  END
