
     RDKit          3D

 12 12  0  0  0  0  0  0  0  0999 V2000
   -1.8920    1.5150   -0.3510 C   0  0  0  0  0  0  0  0  0  0  0  0
   -2.2370    0.1590    0.2690 C   0  0  1  0  0  0  0  0  0  0  0  0
   -2.6130   -0.7310   -0.9170 C   0  0  0  0  0  0  0  0  0  0  0  0
   -1.5830   -0.5990   -1.8430 O   0  0  0  0  0  0  0  0  0  0  0  0
   -0.3780   -1.1150   -1.3920 C   0  0  0  0  0  0  0  0  0  0  0  0
    0.0880   -0.3170   -0.1660 C   0  0  2  0  0  0  0  0  0  0  0  0
    1.3200   -0.7370    0.2470 O   0  0  0  0  0  0  0  0  0  0  0  0
    2.2690    0.2710    0.0970 C   0  0  0  0  0  0  0  0  0  0  0  0
    3.6410   -0.1800    0.5510 C   0  0  0  0  0  0  0  0  0  0  0  0
    4.5780    0.8340    0.3970 O   0  0  0  0  0  0  0  0  0  0  0  0
   -0.9990   -0.4890    0.8610 C   0  0  1  0  0  0  0  0  0  0  0  0
   -0.6680   -0.0190    2.1570 N   0  0  0  0  0  0  0  0  0  0  0  0
  2  1  1  6
  2  3  1  0
  2 11  1  0
  3  4  1  0
  4  5  1  0
  5  6  1  0
  6  7  1  1
  6 11  1  0
  7  8  1  0
  8  9  1  0
  9 10  1  0
 11 12  1  1
M  CHG  1  12   1
M  END
