
     RDKit          3D

 24 25  0  0  0  0  0  0  0  0999 V2000
    7.1110   -1.0930   -1.6860 C   0  0  0  0  0  0  0  0  0  0  0  0
    6.1300   -0.3860   -0.8890 N   0  0  0  0  0  0  0  0  0  0  0  0
    4.7920   -0.5300   -1.0080 C   0  0  0  0  0  0  0  0  0  0  0  0
    4.1960    0.3050   -0.0820 C   0  0  0  0  0  0  0  0  0  0  0  0
    2.7810    0.5210    0.1960 C   0  0  0  0  0  0  0  0  0  0  0  0
    2.3040    0.8470    1.4470 C   0  0  0  0  0  0  0  0  0  0  0  0
    0.9580    1.0510    1.7100 C   0  0  0  0  0  0  0  0  0  0  0  0
    0.0320    0.9350    0.7100 C   0  0  0  0  0  0  0  0  0  0  0  0
   -1.3950    1.1640    0.9710 C   0  0  1  0  0  0  0  0  0  0  0  0
   -2.1860   -0.0080    0.5660 N   0  0  0  0  0  0  0  0  0  0  0  0
   -3.1820    0.0280   -0.4370 C   0  0  0  0  0  0  0  0  0  0  0  0
   -3.3640    1.1470   -0.9850 O   0  0  0  0  0  0  0  0  0  0  0  0
   -3.9840   -1.1240   -0.8580 C   0  0  1  0  0  0  0  0  0  0  0  0
   -3.1430   -2.2600   -1.3970 C   0  0  0  0  0  0  0  0  0  0  0  0
   -4.8180   -1.6990    0.2680 C   0  0  0  0  0  0  0  0  0  0  0  0
   -4.9230   -0.6930   -1.9620 C   0  0  0  0  0  0  0  0  0  0  0  0
   -1.6400    1.3960    2.3980 C   0  0  0  0  0  0  0  0  0  0  0  0
   -2.3280    0.5560    3.0770 O   0  0  0  0  0  0  0  0  0  0  0  0
   -1.1420    2.5470    3.1010 N   0  0  0  0  0  0  0  0  0  0  0  0
   -1.4420    2.6390    4.4140 O   0  0  0  0  0  0  0  0  0  0  0  0
    0.4970    0.6060   -0.5620 C   0  0  0  0  0  0  0  0  0  0  0  0
    1.8290    0.4070   -0.8020 C   0  0  0  0  0  0  0  0  0  0  0  0
    5.2450    0.9250    0.5620 C   0  0  0  0  0  0  0  0  0  0  0  0
    6.4130    0.4970    0.0630 N   0  0  0  0  0  0  0  0  0  0  0  0
  1  2  1  0
  2  3  1  0
  2 24  1  0
  3  4  2  0
  4  5  1  0
  4 23  1  0
  5  6  2  0
  5 22  1  0
  6  7  1  0
  7  8  2  0
  8  9  1  0
  8 21  1  0
  9 10  1  1
  9 17  1  0
 10 11  1  0
 11 12  2  0
 11 13  1  0
 13 14  1  6
 13 15  1  0
 13 16  1  0
 17 18  2  0
 17 19  1  0
 19 20  1  0
 21 22  2  0
 23 24  2  0
M  END
