
     RDKit          3D

 12 12  0  0  0  0  0  0  0  0999 V2000
   -2.9720   -1.0260   -1.0540 N   0  0  0  0  0  0  0  0  0  0  0  0
   -1.7900   -0.8150   -0.2340 C   0  0  1  0  0  0  0  0  0  0  0  0
   -0.7140   -0.2900   -1.1260 C   0  0  0  0  0  0  0  0  0  0  0  0
    0.5130    0.2150   -0.4260 C   0  0  2  0  0  0  0  0  0  0  0  0
    1.4970   -0.7660   -0.4980 O   0  0  0  0  0  0  0  0  0  0  0  0
    2.6610   -0.4100   -1.1050 C   0  0  0  0  0  0  0  0  0  0  0  0
    3.3060    0.7300   -0.3510 C   0  0  0  0  0  0  0  0  0  0  0  0
    3.5780    0.3370    0.9710 O   0  0  0  0  0  0  0  0  0  0  0  0
    0.2930    0.4860    1.0320 C   0  0  0  0  0  0  0  0  0  0  0  0
   -1.0790    0.9830    1.3750 C   0  0  2  0  0  0  0  0  0  0  0  0
   -1.1230    1.1630    2.7580 O   0  0  0  0  0  0  0  0  0  0  0  0
   -2.1800    0.0930    0.8870 C   0  0  0  0  0  0  0  0  0  0  0  0
  2  1  1  6
  2  3  1  0
  2 12  1  0
  3  4  1  0
  4  5  1  1
  4  9  1  0
  5  6  1  0
  6  7  1  0
  7  8  1  0
  9 10  1  0
 10 11  1  1
 10 12  1  0
M  CHG  1   1   1
M  END
