
     RDKit          3D

 20 21  0  0  0  0  0  0  0  0999 V2000
   -4.1000   -1.3730    0.1670 C   0  0  0  0  0  0  0  0  0  0  0  0
   -3.0480   -0.3260   -0.0510 C   0  0  2  0  0  0  0  0  0  0  0  0
   -2.0140   -0.4420    1.0400 C   0  0  0  0  0  0  0  0  0  0  0  0
   -0.7650    0.2290    0.6790 N   0  0  0  0  0  0  0  0  0  0  0  0
    0.3680   -0.5740    0.6640 C   0  0  0  0  0  0  0  0  0  0  0  0
    0.1240   -1.8230    0.9820 O   0  0  0  0  0  0  0  0  0  0  0  0
    1.7480   -0.2400    0.3550 C   0  0  0  0  0  0  0  0  0  0  0  0
    2.1870    0.9370    0.0200 C   0  0  0  0  0  0  0  0  0  0  0  0
    3.5690    1.3320   -0.3020 C   0  0  2  0  0  0  0  0  0  0  0  0
    3.6240    2.1500   -2.0660 Br  0  0  0  0  0  0  0  0  0  0  0  0
    4.4740    0.2330   -0.2140 N   0  0  0  0  0  0  0  0  0  0  0  0
    4.0440   -1.0590    0.1450 C   0  0  0  0  0  0  0  0  0  0  0  0
    5.0150   -2.0870    0.2070 O   0  0  0  0  0  0  0  0  0  0  0  0
    2.7860   -1.3000    0.4130 C   0  0  0  0  0  0  0  0  0  0  0  0
    2.3780   -2.5700    0.7630 O   0  0  0  0  0  0  0  0  0  0  0  0
   -0.6350    1.5700    0.3610 N   0  0  0  0  0  0  0  0  0  0  0  0
   -1.5270    2.4720    0.0860 C   0  0  0  0  0  0  0  0  0  0  0  0
   -2.9740    2.2330    0.0540 C   0  0  0  0  0  0  0  0  0  0  0  0
   -3.6790    3.2760    0.0960 O   0  0  0  0  0  0  0  0  0  0  0  0
   -3.6770    0.9980   -0.0160 N   0  0  0  0  0  0  0  0  0  0  0  0
  2  1  1  1
  2  3  1  0
  2 20  1  0
  3  4  1  0
  4  5  1  0
  4 16  1  0
  5  6  2  0
  5  7  1  0
  7  8  2  0
  7 14  1  0
  8  9  1  0
  9 10  1  6
  9 11  1  0
 11 12  1  0
 12 13  1  0
 12 14  2  0
 14 15  1  0
 16 17  2  0
 17 18  1  0
 18 19  2  0
 18 20  1  0
M  END
