
     RDKit          3D

 45 48  0  0  0  0  0  0  0  0999 V2000
  -10.4860    3.5830    2.5700 C   0  0  0  0  0  0  0  0  0  0  0  0
  -10.7080    2.2710    2.1420 O   0  0  0  0  0  0  0  0  0  0  0  0
  -10.0970    1.6160    1.1110 C   0  0  0  0  0  0  0  0  0  0  0  0
  -10.4300    0.2910    0.7970 C   0  0  0  0  0  0  0  0  0  0  0  0
   -9.7960   -0.3370   -0.2440 C   0  0  0  0  0  0  0  0  0  0  0  0
  -10.0930   -1.6120   -0.5780 F   0  0  0  0  0  0  0  0  0  0  0  0
   -8.8230    0.2880   -1.0160 C   0  0  0  0  0  0  0  0  0  0  0  0
   -8.4930    1.5780   -0.7170 C   0  0  0  0  0  0  0  0  0  0  0  0
   -7.4920    2.2950   -1.5140 C   0  0  0  0  0  0  0  0  0  0  0  0
   -5.8570    2.0880   -0.7940 S   0  0  0  0  0  0  0  0  0  0  0  0
   -5.8390    2.6190    0.6380 O   0  0  0  0  0  0  0  0  0  0  0  0
   -5.4330    0.3300   -0.7430 C   0  0  0  0  0  0  0  0  0  0  0  0
   -4.0460    0.1320   -0.1710 C   0  0  0  0  0  0  0  0  0  0  0  0
   -3.7390   -1.2890   -0.1010 N   0  0  0  0  0  0  0  0  0  0  0  0
   -3.7380   -2.1520   -1.2240 C   0  0  0  0  0  0  0  0  0  0  0  0
   -4.0220   -1.5850   -2.3480 O   0  0  0  0  0  0  0  0  0  0  0  0
   -3.4670   -3.5730   -1.1950 C   0  0  0  0  0  0  0  0  0  0  0  0
   -4.4360   -4.5110   -1.6150 C   0  0  0  0  0  0  0  0  0  0  0  0
   -3.9170   -5.7620   -1.3670 C   0  0  0  0  0  0  0  0  0  0  0  0
   -2.7380   -5.5930   -0.8460 O   0  0  0  0  0  0  0  0  0  0  0  0
   -2.4370   -4.2870   -0.7320 C   0  0  0  0  0  0  0  0  0  0  0  0
   -1.1380   -3.8560   -0.1810 C   0  0  0  0  0  0  0  0  0  0  0  0
   -0.4510   -4.7290    0.4220 O   0  0  0  0  0  0  0  0  0  0  0  0
   -0.6380   -2.5600   -0.3010 N   0  0  0  0  0  0  0  0  0  0  0  0
    0.6030   -2.0840    0.1730 C   0  0  0  0  0  0  0  0  0  0  0  0
    1.4450   -2.7970    0.9880 C   0  0  0  0  0  0  0  0  0  0  0  0
    2.6830   -2.2900    1.3330 C   0  0  0  0  0  0  0  0  0  0  0  0
    3.1470   -1.0530    0.8880 C   0  0  0  0  0  0  0  0  0  0  0  0
    4.3320   -0.6570    1.2560 O   0  0  0  0  0  0  0  0  0  0  0  0
    5.2800    0.2860    1.2020 C   0  0  1  0  0  0  0  0  0  0  0  0
    5.8400    0.4970    2.6100 C   0  0  0  0  0  0  0  0  0  0  0  0
    6.3880   -0.2320    0.3080 C   0  0  0  0  0  0  0  0  0  0  0  0
    6.1650   -1.4160   -0.1550 O   0  0  0  0  0  0  0  0  0  0  0  0
    7.5470    0.4590   -0.0150 N   0  0  0  0  0  0  0  0  0  0  0  0
    8.5110   -0.1700   -0.9020 C   0  0  0  0  0  0  0  0  0  0  0  0
    9.7730    0.6460   -0.8570 C   0  0  0  0  0  0  0  0  0  0  0  0
   10.2040    1.0460    0.5200 C   0  0  1  0  0  0  0  0  0  0  0  0
   11.2320    2.1500    0.3810 C   0  0  0  0  0  0  0  0  0  0  0  0
    9.0800    1.5770    1.3850 C   0  0  0  0  0  0  0  0  0  0  0  0
    7.8700    1.7620    0.4660 C   0  0  0  0  0  0  0  0  0  0  0  0
    2.2920   -0.3450    0.0770 C   0  0  0  0  0  0  0  0  0  0  0  0
    2.7450    0.8950   -0.3640 O   0  0  0  0  0  0  0  0  0  0  0  0
    1.8600    1.6400   -1.1990 C   0  0  0  0  0  0  0  0  0  0  0  0
    1.0430   -0.8410   -0.2810 C   0  0  0  0  0  0  0  0  0  0  0  0
   -9.1420    2.2180    0.3480 C   0  0  0  0  0  0  0  0  0  0  0  0
  1  2  1  0
  2  3  1  0
  3  4  2  0
  3 45  1  0
  4  5  1  0
  5  6  1  0
  5  7  2  0
  7  8  1  0
  8  9  1  0
  8 45  2  0
 10  9  1  1
 10 11  2  0
 10 12  1  0
 12 13  1  0
 13 14  1  0
 14 15  1  0
 15 16  2  0
 15 17  1  0
 17 18  1  0
 17 21  2  0
 18 19  2  0
 19 20  1  0
 20 21  1  0
 21 22  1  0
 22 23  2  0
 22 24  1  0
 24 25  1  0
 25 26  2  0
 25 44  1  0
 26 27  1  0
 27 28  2  0
 28 29  1  0
 28 41  1  0
 29 30  1  0
 30 31  1  1
 30 32  1  0
 32 33  2  0
 32 34  1  0
 34 35  1  0
 34 40  1  0
 35 36  1  0
 36 37  1  0
 37 38  1  6
 37 39  1  0
 39 40  1  0
 41 42  1  0
 41 44  2  0
 42 43  1  0
M  END
