
     RDKit          3D

 45 48  0  0  0  0  0  0  0  0999 V2000
   10.1390    3.4380    0.7200 C   0  0  0  0  0  0  0  0  0  0  0  0
    9.3060    2.6570    1.5660 O   0  0  0  0  0  0  0  0  0  0  0  0
    8.1610    2.0920    1.0240 C   0  0  0  0  0  0  0  0  0  0  0  0
    7.8290    2.2780   -0.3050 C   0  0  0  0  0  0  0  0  0  0  0  0
    6.6710    1.7060   -0.8520 C   0  0  0  0  0  0  0  0  0  0  0  0
    5.8030    0.9370   -0.1210 C   0  0  0  0  0  0  0  0  0  0  0  0
    4.6270    0.3120   -0.5980 N   0  0  0  0  0  0  0  0  0  0  0  0
    4.2320    0.1960   -1.9480 C   0  0  0  0  0  0  0  0  0  0  0  0
    4.9770    0.6750   -2.8420 O   0  0  0  0  0  0  0  0  0  0  0  0
    2.9920   -0.4580   -2.3870 C   0  0  0  0  0  0  0  0  0  0  0  0
    2.1440   -0.9080   -1.3950 O   0  0  0  0  0  0  0  0  0  0  0  0
    1.4800   -0.2000   -0.4270 C   0  0  0  0  0  0  0  0  0  0  0  0
    1.6610    1.0570   -0.4290 O   0  0  0  0  0  0  0  0  0  0  0  0
    0.6370   -0.7760    0.5380 N   0  0  0  0  0  0  0  0  0  0  0  0
   -0.0130    0.0590    1.5260 C   0  0  0  0  0  0  0  0  0  0  0  0
    0.7910   -0.1820    2.8140 C   0  0  0  0  0  0  0  0  0  0  0  0
    1.6190   -1.4390    2.6470 C   0  0  0  0  0  0  0  0  0  0  0  0
    0.8150   -2.6040    2.0900 C   0  0  0  0  0  0  0  0  0  0  0  0
    0.4550   -2.1760    0.6470 C   0  0  1  0  0  0  0  0  0  0  0  0
   -0.7520   -2.8380    0.1980 C   0  0  0  0  0  0  0  0  0  0  0  0
   -1.1350   -4.0200    0.8940 C   0  0  0  0  0  0  0  0  0  0  0  0
   -2.2070   -4.7790    0.5480 C   0  0  0  0  0  0  0  0  0  0  0  0
   -3.0010   -4.4340   -0.5260 C   0  0  0  0  0  0  0  0  0  0  0  0
   -4.0710   -5.1480   -0.9090 F   0  0  0  0  0  0  0  0  0  0  0  0
   -2.6680   -3.2950   -1.2300 C   0  0  0  0  0  0  0  0  0  0  0  0
   -1.5530   -2.5180   -0.8570 C   0  0  0  0  0  0  0  0  0  0  0  0
   -1.3780   -1.3170   -1.6630 C   0  0  0  0  0  0  0  0  0  0  0  0
   -0.5890   -1.2550   -2.6320 O   0  0  0  0  0  0  0  0  0  0  0  0
   -2.1410   -0.1750   -1.3480 N   0  0  0  0  0  0  0  0  0  0  0  0
   -3.0620   -0.1970   -0.1970 C   0  0  0  0  0  0  0  0  0  0  0  0
   -4.4690   -0.1640   -0.7410 C   0  0  1  0  0  0  0  0  0  0  0  0
   -5.4610   -0.0550    0.3820 C   0  0  0  0  0  0  0  0  0  0  0  0
   -5.0180    0.0490    1.5080 O   0  0  0  0  0  0  0  0  0  0  0  0
   -6.9120   -0.0680    0.1590 C   0  0  0  0  0  0  0  0  0  0  0  0
   -7.6630    1.1170    0.6520 C   0  0  0  0  0  0  0  0  0  0  0  0
   -7.5510    1.3590    2.1400 C   0  0  1  0  0  0  0  0  0  0  0  0
   -8.3110    2.4950    2.4100 F   0  0  0  0  0  0  0  0  0  0  0  0
   -8.0490    0.3270    2.8830 F   0  0  0  0  0  0  0  0  0  0  0  0
   -4.6440    1.0600   -1.5960 C   0  0  0  0  0  0  0  0  0  0  0  0
   -3.4000    1.8730   -1.6650 C   0  0  0  0  0  0  0  0  0  0  0  0
   -2.1770    1.0560   -2.0910 C   0  0  1  0  0  0  0  0  0  0  0  0
   -0.9780    1.9310   -1.9820 C   0  0  0  0  0  0  0  0  0  0  0  0
   -1.2590    3.0740   -2.7780 O   0  0  0  0  0  0  0  0  0  0  0  0
    6.1640    0.7660    1.2220 C   0  0  0  0  0  0  0  0  0  0  0  0
    7.2970    1.3250    1.7610 C   0  0  0  0  0  0  0  0  0  0  0  0
  1  2  1  0
  2  3  1  0
  3  4  2  0
  3 45  1  0
  4  5  1  0
  5  6  2  0
  6  7  1  0
  6 44  1  0
  7  8  1  0
  8  9  2  0
  8 10  1  0
 10 11  1  0
 11 12  1  0
 12 13  2  0
 12 14  1  0
 14 15  1  0
 14 19  1  0
 15 16  1  0
 16 17  1  0
 17 18  1  0
 18 19  1  0
 19 20  1  1
 20 21  2  0
 20 26  1  0
 21 22  1  0
 22 23  2  0
 23 24  1  0
 23 25  1  0
 25 26  2  0
 26 27  1  0
 27 28  2  0
 27 29  1  0
 29 30  1  0
 29 41  1  0
 30 31  1  0
 31 32  1  1
 31 39  1  0
 32 33  2  0
 32 34  1  0
 34 35  1  0
 35 36  1  0
 36 37  1  6
 36 38  1  0
 39 40  1  0
 40 41  1  0
 41 42  1  1
 42 43  1  0
 44 45  2  0
M  END
