
     RDKit          3D

 46 52  0  0  0  0  0  0  0  0999 V2000
   10.6390   -1.9070   -0.4330 C   0  0  0  0  0  0  0  0  0  0  0  0
   10.3490   -2.0950    1.0460 C   0  0  0  0  0  0  0  0  0  0  0  0
    8.8740   -1.7970    1.3450 C   0  0  0  0  0  0  0  0  0  0  0  0
    8.6460   -0.3740    0.9380 C   0  0  0  0  0  0  0  0  0  0  0  0
    7.2650    0.1070    1.1530 C   0  0  0  0  0  0  0  0  0  0  0  0
    6.9190    0.9430    2.1930 C   0  0  0  0  0  0  0  0  0  0  0  0
    5.6100    1.3520    2.3290 C   0  0  0  0  0  0  0  0  0  0  0  0
    4.6350    0.9800    1.4980 N   0  0  0  0  0  0  0  0  0  0  0  0
    4.9400    0.1550    0.4610 C   0  0  0  0  0  0  0  0  0  0  0  0
    6.2340   -0.2750    0.2910 C   0  0  0  0  0  0  0  0  0  0  0  0
    6.5950   -1.1800   -0.8300 C   0  0  0  0  0  0  0  0  0  0  0  0
    5.6610   -0.8800   -1.9890 C   0  0  0  0  0  0  0  0  0  0  0  0
    4.2310   -1.1060   -1.5290 C   0  0  0  0  0  0  0  0  0  0  0  0
    3.8750   -0.2390   -0.4310 N   0  0  0  0  0  0  0  0  0  0  0  0
    2.5680    0.2250   -0.2070 C   0  0  0  0  0  0  0  0  0  0  0  0
    1.8340   -0.2420    0.8610 C   0  0  0  0  0  0  0  0  0  0  0  0
    0.5190    0.1920    1.0820 C   0  0  0  0  0  0  0  0  0  0  0  0
   -0.0670    1.0960    0.2370 C   0  0  0  0  0  0  0  0  0  0  0  0
   -1.4420    1.5450    0.4750 C   0  0  1  0  0  0  0  0  0  0  0  0
   -2.1980    1.0500   -0.6200 O   0  0  0  0  0  0  0  0  0  0  0  0
   -2.0120    0.9190    1.6880 C   0  0  1  0  0  0  0  0  0  0  0  0
   -1.3730    1.3130    2.8710 O   0  0  0  0  0  0  0  0  0  0  0  0
   -3.4830    1.2150    1.8970 C   0  0  1  0  0  0  0  0  0  0  0  0
   -3.7210    2.6790    2.0290 C   0  0  0  0  0  0  0  0  0  0  0  0
   -4.3850    3.3550    0.8880 C   0  0  0  0  0  0  0  0  0  0  0  0
   -5.2150    2.5840    0.0900 O   0  0  0  0  0  0  0  0  0  0  0  0
   -5.1990    1.2180    0.1060 C   0  0  0  0  0  0  0  0  0  0  0  0
   -6.0480    0.5750   -0.7800 C   0  0  0  0  0  0  0  0  0  0  0  0
   -6.1020   -0.8090   -0.8360 C   0  0  0  0  0  0  0  0  0  0  0  0
   -7.0350   -1.4290   -1.8290 C   0  0  0  0  0  0  0  0  0  0  0  0
   -8.4410   -1.4160   -1.3380 C   0  0  0  0  0  0  0  0  0  0  0  0
   -9.3070   -0.4660   -1.8290 C   0  0  0  0  0  0  0  0  0  0  0  0
  -10.6020   -0.4300   -1.3820 C   0  0  0  0  0  0  0  0  0  0  0  0
  -11.0640   -1.3130   -0.4570 C   0  0  0  0  0  0  0  0  0  0  0  0
  -10.2320   -2.2730    0.0550 C   0  0  0  0  0  0  0  0  0  0  0  0
   -8.9220   -2.3040   -0.4030 C   0  0  0  0  0  0  0  0  0  0  0  0
   -8.0530   -3.3590    0.1640 C   0  0  0  0  0  0  0  0  0  0  0  0
   -5.2910   -1.5130    0.0110 C   0  0  0  0  0  0  0  0  0  0  0  0
   -4.4380   -0.8500    0.9000 C   0  0  0  0  0  0  0  0  0  0  0  0
   -4.3750    0.5220    0.9650 C   0  0  0  0  0  0  0  0  0  0  0  0
    0.6960    1.5500   -0.8300 C   0  0  0  0  0  0  0  0  0  0  0  0
    0.0780    2.4650   -1.6570 C   0  0  0  0  0  0  0  0  0  0  0  0
    0.7940    2.9600   -2.7350 C   0  0  0  0  0  0  0  0  0  0  0  0
    2.0870    2.5430   -2.9650 C   0  0  0  0  0  0  0  0  0  0  0  0
    2.7050    1.6390   -2.1510 C   0  0  0  0  0  0  0  0  0  0  0  0
    1.9840    1.1330   -1.0570 C   0  0  0  0  0  0  0  0  0  0  0  0
  1  2  1  0
  2  3  1  0
  3  4  1  0
  4  5  1  0
  5  6  2  0
  5 10  1  0
  6  7  1  0
  7  8  2  0
  8  9  1  0
  9 10  2  0
  9 14  1  0
 10 11  1  0
 11 12  1  0
 12 13  1  0
 13 14  1  0
 14 15  1  0
 15 16  2  0
 15 46  1  0
 16 17  1  0
 17 18  2  0
 18 19  1  0
 18 41  1  0
 19 20  1  6
 19 21  1  0
 21 22  1  1
 21 23  1  0
 23 24  1  6
 23 40  1  0
 24 25  1  0
 25 26  1  0
 26 27  1  0
 27 28  2  0
 27 40  1  0
 28 29  1  0
 29 30  1  0
 29 38  2  0
 30 31  1  0
 31 32  2  0
 31 36  1  0
 32 33  1  0
 33 34  2  0
 34 35  1  0
 35 36  2  0
 36 37  1  0
 38 39  1  0
 39 40  2  0
 41 42  2  0
 41 46  1  0
 42 43  1  0
 43 44  2  0
 44 45  1  0
 45 46  2  0
M  END
