
     RDKit          3D

 47 52  0  0  0  0  0  0  0  0999 V2000
   -8.9610    4.3580    0.8460 C   0  0  0  0  0  0  0  0  0  0  0  0
   -8.9740    2.9490    0.5870 O   0  0  0  0  0  0  0  0  0  0  0  0
   -7.7490    2.3560    0.3250 C   0  0  0  0  0  0  0  0  0  0  0  0
   -6.5570    3.0090    0.2960 C   0  0  0  0  0  0  0  0  0  0  0  0
   -5.3510    2.3950    0.0310 C   0  0  0  0  0  0  0  0  0  0  0  0
   -5.3150    1.0570   -0.2190 C   0  0  0  0  0  0  0  0  0  0  0  0
   -6.5330    0.3660   -0.1940 C   0  0  0  0  0  0  0  0  0  0  0  0
   -7.7320    0.9760    0.0690 C   0  0  0  0  0  0  0  0  0  0  0  0
   -8.9440    0.3100    0.0980 O   0  0  0  0  0  0  0  0  0  0  0  0
   -9.1820   -1.0310   -0.1090 C   0  0  1  0  0  0  0  0  0  0  0  0
   -9.8960   -1.6870    1.0680 C   0  0  0  0  0  0  0  0  0  0  0  0
  -10.0300   -1.1600   -1.3720 C   0  0  0  0  0  0  0  0  0  0  0  0
   -4.0600    0.2990   -0.5110 C   0  0  2  0  0  0  0  0  0  0  0  0
   -4.1240   -0.9880    0.2370 C   0  0  0  0  0  0  0  0  0  0  0  0
   -3.8430   -1.0500    1.5750 C   0  0  0  0  0  0  0  0  0  0  0  0
   -3.9320   -2.2820    2.2040 C   0  0  0  0  0  0  0  0  0  0  0  0
   -4.2940   -3.4130    1.5030 C   0  0  0  0  0  0  0  0  0  0  0  0
   -4.4180   -4.9800    2.2690 Cl  0  0  0  0  0  0  0  0  0  0  0  0
   -4.5740   -3.3400    0.1590 C   0  0  0  0  0  0  0  0  0  0  0  0
   -4.4850   -2.1190   -0.4630 C   0  0  0  0  0  0  0  0  0  0  0  0
   -2.8750    1.0420   -0.2120 N   0  0  0  0  0  0  0  0  0  0  0  0
   -1.6100    0.4640   -0.5180 C   0  0  0  0  0  0  0  0  0  0  0  0
   -0.7130    0.0930    0.4620 C   0  0  0  0  0  0  0  0  0  0  0  0
    0.5340   -0.4670    0.1610 C   0  0  0  0  0  0  0  0  0  0  0  0
    0.9330   -0.6760   -1.1310 C   0  0  0  0  0  0  0  0  0  0  0  0
    2.1960   -1.2240   -1.5260 N   0  0  0  0  0  0  0  0  0  0  0  0
    2.3680   -2.6550   -1.4580 C   0  0  0  0  0  0  0  0  0  0  0  0
    3.2790   -0.4280   -2.0360 C   0  0  0  0  0  0  0  0  0  0  0  0
    4.5200   -0.4040   -1.1940 C   0  0  1  0  0  0  0  0  0  0  0  0
    5.5800    0.4570   -1.8220 C   0  0  0  0  0  0  0  0  0  0  0  0
    6.4100    1.2560   -0.9110 C   0  0  0  0  0  0  0  0  0  0  0  0
    6.5640    0.8350    0.4990 C   0  0  2  0  0  0  0  0  0  0  0  0
    7.8800    0.1950    0.6540 N   0  0  1  0  0  0  0  0  0  0  0  0
    8.9230    1.2020    0.6940 C   0  0  0  0  0  0  0  0  0  0  0  0
   10.2640    0.5190    0.5220 C   0  0  0  0  0  0  0  0  0  0  0  0
   10.3840   -0.4510    1.5850 N   0  0  0  0  0  0  0  0  0  0  0  0
   11.6360   -1.1210    1.8440 C   0  0  0  0  0  0  0  0  0  0  0  0
    9.2640   -0.7500    2.3870 C   0  0  0  0  0  0  0  0  0  0  0  0
    9.3760   -1.2210    3.5500 O   0  0  0  0  0  0  0  0  0  0  0  0
    7.8590   -0.5230    1.8970 C   0  0  0  0  0  0  0  0  0  0  0  0
    5.5290   -0.1340    0.9720 C   0  0  0  0  0  0  0  0  0  0  0  0
    4.2140    0.1040    0.1860 C   0  0  0  0  0  0  0  0  0  0  0  0
    0.0120   -0.2950   -2.1170 C   0  0  0  0  0  0  0  0  0  0  0  0
   -1.2140    0.2540   -1.8220 C   0  0  0  0  0  0  0  0  0  0  0  0
   -3.0050    2.3250    0.3730 C   0  0  0  0  0  0  0  0  0  0  0  0
   -2.1020    2.6710    1.2110 O   0  0  0  0  0  0  0  0  0  0  0  0
   -4.1400    3.2340    0.0330 C   0  0  0  0  0  0  0  0  0  0  0  0
  1  2  1  0
  2  3  1  0
  3  4  2  0
  3  8  1  0
  4  5  1  0
  5  6  2  0
  5 47  1  0
  6  7  1  0
  6 13  1  0
  7  8  2  0
  8  9  1  0
  9 10  1  0
 10 11  1  1
 10 12  1  0
 13 14  1  1
 13 21  1  0
 14 15  2  0
 14 20  1  0
 15 16  1  0
 16 17  2  0
 17 18  1  0
 17 19  1  0
 19 20  2  0
 21 22  1  0
 21 45  1  0
 22 23  2  0
 22 44  1  0
 23 24  1  0
 24 25  2  0
 25 26  1  0
 25 43  1  0
 26 27  1  0
 26 28  1  0
 29 28  1  6
 29 30  1  0
 29 42  1  0
 30 31  1  0
 32 31  1  6
 32 33  1  0
 32 41  1  0
 33 34  1  1
 33 40  1  0
 34 35  1  0
 35 36  1  0
 36 37  1  0
 36 38  1  0
 38 39  2  0
 38 40  1  0
 41 42  1  0
 43 44  2  0
 45 46  2  0
 45 47  1  0
M  CHG  1  33   1
M  END
