
     RDKit          3D

 45 49  0  0  0  0  0  0  0  0999 V2000
    4.2880   -3.5510   -1.6140 C   0  0  0  0  0  0  0  0  0  0  0  0
    3.7630   -2.3680   -0.8480 C   0  0  0  0  0  0  0  0  0  0  0  0
    2.0460   -1.9610   -0.5770 S   0  0  0  0  0  0  0  0  0  0  0  0
    2.3300   -0.5230    0.3550 C   0  0  0  0  0  0  0  0  0  0  0  0
    1.2810    0.3120    0.9090 N   0  0  0  0  0  0  0  0  0  0  0  0
   -0.0720    0.0180    0.7050 C   0  0  0  0  0  0  0  0  0  0  0  0
   -0.3740   -0.9870    0.0220 O   0  0  0  0  0  0  0  0  0  0  0  0
   -1.1850    0.8620    1.2750 C   0  0  2  0  0  0  0  0  0  0  0  0
   -1.0920    0.8330    2.7350 C   0  0  0  0  0  0  0  0  0  0  0  0
   -2.0120    0.3530    3.5140 C   0  0  0  0  0  0  0  0  0  0  0  0
   -3.2350   -0.2020    2.9470 C   0  0  0  0  0  0  0  0  0  0  0  0
   -3.3970   -0.2110    1.6380 C   0  0  0  0  0  0  0  0  0  0  0  0
   -4.6270   -0.7720    1.0880 C   0  0  0  0  0  0  0  0  0  0  0  0
   -5.5280   -1.2510    1.8210 O   0  0  0  0  0  0  0  0  0  0  0  0
   -4.8500   -0.7950   -0.2870 O   0  0  0  0  0  0  0  0  0  0  0  0
   -6.0340   -1.3380   -0.7660 C   0  0  0  0  0  0  0  0  0  0  0  0
   -6.0700   -2.6390   -1.2230 C   0  0  0  0  0  0  0  0  0  0  0  0
   -7.2160   -3.2300   -1.7090 C   0  0  0  0  0  0  0  0  0  0  0  0
   -8.3810   -2.4990   -1.7430 C   0  0  0  0  0  0  0  0  0  0  0  0
   -8.3480   -1.1980   -1.2860 C   0  0  0  0  0  0  0  0  0  0  0  0
   -7.2060   -0.6030   -0.8000 C   0  0  0  0  0  0  0  0  0  0  0  0
   -7.2250    0.7970   -0.3160 C   0  0  0  0  0  0  0  0  0  0  0  0
   -8.5660    1.3570   -0.4490 N   0  0  0  0  0  0  0  0  0  0  0  0
   -9.1190    2.0520   -1.5540 C   0  0  0  0  0  0  0  0  0  0  0  0
   -8.4520    2.5780   -2.4810 O   0  0  0  0  0  0  0  0  0  0  0  0
  -10.5940    2.0260   -1.3860 C   0  0  0  0  0  0  0  0  0  0  0  0
  -10.7360    1.9450    0.0470 N   0  0  0  0  0  0  0  0  0  0  0  0
   -9.5840    1.2920    0.5520 C   0  0  0  0  0  0  0  0  0  0  0  0
   -9.4780    0.7480    1.6920 O   0  0  0  0  0  0  0  0  0  0  0  0
   -2.3990    0.3080    0.8480 O   0  0  0  0  0  0  0  0  0  0  0  0
    3.6430   -0.4290    0.4100 C   0  0  0  0  0  0  0  0  0  0  0  0
    4.4260   -1.3560   -0.1940 C   0  0  0  0  0  0  0  0  0  0  0  0
    5.9180   -1.3650   -0.1880 C   0  0  0  0  0  0  0  0  0  0  0  0
    6.5110   -2.3040   -0.6990 O   0  0  0  0  0  0  0  0  0  0  0  0
    6.5750   -0.3110    0.3960 O   0  0  0  0  0  0  0  0  0  0  0  0
    7.9860   -0.1990    0.4720 C   0  0  2  0  0  0  0  0  0  0  0  0
    8.3790   -0.2560    1.9440 C   0  0  0  0  0  0  0  0  0  0  0  0
    8.4210    1.0580   -0.1550 C   0  0  0  0  0  0  0  0  0  0  0  0
    8.8820    2.1340    0.5840 C   0  0  0  0  0  0  0  0  0  0  0  0
    9.2790    3.3150    0.0130 C   0  0  0  0  0  0  0  0  0  0  0  0
    9.2220    3.4500   -1.3590 C   0  0  0  0  0  0  0  0  0  0  0  0
    8.7690    2.3950   -2.1070 C   0  0  0  0  0  0  0  0  0  0  0  0
    8.7140    2.5330   -3.4660 F   0  0  0  0  0  0  0  0  0  0  0  0
    8.3680    1.2010   -1.5200 C   0  0  0  0  0  0  0  0  0  0  0  0
    7.9050    0.1090   -2.4440 C   0  0  0  0  0  0  0  0  0  0  0  0
  1  2  1  0
  2  3  1  0
  2 32  2  0
  3  4  1  0
  4  5  1  0
  4 31  2  0
  5  6  1  0
  6  7  2  0
  8  6  1  6
  8  9  1  0
  8 30  1  0
  9 10  2  0
 10 11  1  0
 11 12  2  0
 12 13  1  0
 12 30  1  0
 13 14  2  0
 13 15  1  0
 15 16  1  0
 16 17  2  0
 16 21  1  0
 17 18  1  0
 18 19  2  0
 19 20  1  0
 20 21  2  0
 21 22  1  0
 22 23  1  0
 23 24  1  0
 23 28  1  0
 24 25  2  0
 24 26  1  0
 26 27  1  0
 27 28  1  0
 28 29  2  0
 31 32  1  0
 32 33  1  0
 33 34  2  0
 33 35  1  0
 35 36  1  0
 36 37  1  1
 36 38  1  0
 38 39  2  0
 38 44  1  0
 39 40  1  0
 40 41  2  0
 41 42  1  0
 42 43  1  0
 42 44  2  0
 44 45  1  0
M  END
