
     RDKit          3D

 46 52  0  0  0  0  0  0  0  0999 V2000
   -1.9990   -2.4140   -4.3310 C   0  0  0  0  0  0  0  0  0  0  0  0
   -2.2930   -2.3560   -3.0500 C   0  0  0  0  0  0  0  0  0  0  0  0
   -1.8300   -1.2760   -2.2720 C   0  0  0  0  0  0  0  0  0  0  0  0
   -2.0900   -1.1530   -0.9260 C   0  0  0  0  0  0  0  0  0  0  0  0
   -2.8390   -2.1610   -0.3740 C   0  0  0  0  0  0  0  0  0  0  0  0
   -3.3200   -3.2320   -1.0580 C   0  0  0  0  0  0  0  0  0  0  0  0
   -3.0370   -3.3170   -2.4050 C   0  0  0  0  0  0  0  0  0  0  0  0
   -3.5110   -4.3680   -3.0490 C   0  0  0  0  0  0  0  0  0  0  0  0
   -4.0760   -4.0980   -0.0970 C   0  0  0  0  0  0  0  0  0  0  0  0
   -3.4340   -3.7110    1.2460 C   0  0  0  0  0  0  0  0  0  0  0  0
   -3.2110   -2.2440    1.0350 C   0  0  2  0  0  0  0  0  0  0  0  0
   -4.4830   -1.5280    1.3250 C   0  0  0  0  0  0  0  0  0  0  0  0
   -4.8700   -1.6060    2.7860 C   0  0  0  0  0  0  0  0  0  0  0  0
   -2.0100   -1.7280    1.7940 C   0  0  0  0  0  0  0  0  0  0  0  0
   -1.5450   -0.4040    1.3280 C   0  0  0  0  0  0  0  0  0  0  0  0
   -1.6400   -0.0130   -0.0810 C   0  0  2  0  0  0  0  0  0  0  0  0
   -2.6500    0.9680   -0.3020 O   0  0  0  0  0  0  0  0  0  0  0  0
   -0.3260    0.5340   -0.5800 C   0  0  0  0  0  0  0  0  0  0  0  0
    0.1370    1.7620   -0.0150 N   0  0  0  0  0  0  0  0  0  0  0  0
   -0.4780    2.9400   -0.6460 C   0  0  0  0  0  0  0  0  0  0  0  0
   -1.3020    2.8450   -1.5740 O   0  0  0  0  0  0  0  0  0  0  0  0
   -0.1430    4.2860   -0.2010 C   0  0  0  0  0  0  0  0  0  0  0  0
   -0.8460    4.8920    0.8450 C   0  0  0  0  0  0  0  0  0  0  0  0
   -0.5140    6.1630    1.2620 C   0  0  0  0  0  0  0  0  0  0  0  0
    0.5020    6.8820    0.6840 C   0  0  0  0  0  0  0  0  0  0  0  0
    1.2180    6.2980   -0.3620 C   0  0  0  0  0  0  0  0  0  0  0  0
    2.2490    6.9850   -0.9830 C   0  0  0  0  0  0  0  0  0  0  0  0
    2.9640    6.4360   -2.0170 C   0  0  0  0  0  0  0  0  0  0  0  0
    2.6310    5.1660   -2.4340 C   0  0  0  0  0  0  0  0  0  0  0  0
    1.6070    4.4780   -1.8210 C   0  0  0  0  0  0  0  0  0  0  0  0
    0.8710    5.0230   -0.7660 C   0  0  0  0  0  0  0  0  0  0  0  0
    1.1770    1.9930    0.9440 C   0  0  2  0  0  0  0  0  0  0  0  0
    2.5580    1.6580    0.5420 C   0  0  0  0  0  0  0  0  0  0  0  0
    2.9210    0.3210    0.1350 C   0  0  0  0  0  0  0  0  0  0  0  0
    2.9860   -0.0140   -1.2150 C   0  0  0  0  0  0  0  0  0  0  0  0
    3.3250   -1.2870   -1.5650 C   0  0  0  0  0  0  0  0  0  0  0  0
    3.6180   -2.3040   -0.6460 C   0  0  0  0  0  0  0  0  0  0  0  0
    3.5480   -1.9520    0.6820 C   0  0  0  0  0  0  0  0  0  0  0  0
    3.2050   -0.6620    1.0420 C   0  0  0  0  0  0  0  0  0  0  0  0
    3.8460   -2.9710    1.7410 C   0  0  0  0  0  0  0  0  0  0  0  0
    3.4840   -4.2640    1.1970 N   0  0  0  0  0  0  0  0  0  0  0  0
    4.2950   -4.5590    0.0230 C   0  0  0  0  0  0  0  0  0  0  0  0
    3.9750   -3.6650   -1.1300 C   0  0  0  0  0  0  0  0  0  0  0  0
    0.8430    1.9470    2.3740 C   0  0  0  0  0  0  0  0  0  0  0  0
    1.7810    1.6530    3.4830 C   0  0  0  0  0  0  0  0  0  0  0  0
   -0.3120    2.1670    2.7040 O   0  0  0  0  0  0  0  0  0  0  0  0
  1  2  2  0
  2  3  1  0
  2  7  1  0
  3  4  2  0
  4  5  1  0
  4 16  1  0
  5  6  2  0
  5 11  1  0
  6  7  1  0
  6  9  1  0
  7  8  2  0
  9 10  1  0
 10 11  1  0
 11 12  1  6
 11 14  1  0
 12 13  1  0
 14 15  1  0
 15 16  1  0
 16 17  1  1
 16 18  1  0
 18 19  1  0
 19 20  1  0
 19 32  1  0
 20 21  2  0
 20 22  1  0
 22 23  2  0
 22 31  1  0
 23 24  1  0
 24 25  2  0
 25 26  1  0
 26 27  2  0
 26 31  1  0
 27 28  1  0
 28 29  2  0
 29 30  1  0
 30 31  2  0
 32 33  1  1
 32 44  1  0
 33 34  1  0
 34 35  2  0
 34 39  1  0
 35 36  1  0
 36 37  2  0
 37 38  1  0
 37 43  1  0
 38 39  2  0
 38 40  1  0
 40 41  1  0
 41 42  1  0
 42 43  1  0
 44 45  1  0
 44 46  2  0
M  END
