
     RDKit          3D

 45 48  0  0  0  0  0  0  0  0999 V2000
   -3.2140    4.3470    1.2460 C   0  0  0  0  0  0  0  0  0  0  0  0
   -3.6790    3.0910    0.8600 O   0  0  0  0  0  0  0  0  0  0  0  0
   -4.9830    2.7140    1.0730 C   0  0  0  0  0  0  0  0  0  0  0  0
   -5.8380    3.6240    1.6970 C   0  0  0  0  0  0  0  0  0  0  0  0
   -7.1420    3.2380    1.9140 C   0  0  0  0  0  0  0  0  0  0  0  0
   -7.5940    1.9880    1.5270 C   0  0  0  0  0  0  0  0  0  0  0  0
   -6.7280    1.1110    0.9170 C   0  0  0  0  0  0  0  0  0  0  0  0
   -5.3950    1.4770    0.6810 C   0  0  0  0  0  0  0  0  0  0  0  0
   -4.3720    0.3080   -0.0820 S   0  0  0  0  0  0  0  0  0  0  0  0
   -2.7880    0.7790   -0.6360 C   0  0  2  0  0  0  0  0  0  0  0  0
   -2.7790    1.7260   -1.8560 C   0  0  0  0  0  0  0  0  0  0  0  0
   -1.3140    1.6430   -2.1840 C   0  0  0  0  0  0  0  0  0  0  0  0
   -0.6610    2.4090   -2.9310 O   0  0  0  0  0  0  0  0  0  0  0  0
   -0.7410    0.5010   -1.4820 N   0  0  0  0  0  0  0  0  0  0  0  0
    0.6120    0.3590   -1.1290 C   0  0  0  0  0  0  0  0  0  0  0  0
    1.0260    0.8710    0.2140 C   0  0  0  0  0  0  0  0  0  0  0  0
    2.4270    0.7000    0.4190 O   0  0  0  0  0  0  0  0  0  0  0  0
    3.0950    0.9410    1.5870 C   0  0  0  0  0  0  0  0  0  0  0  0
    2.4440    1.3280    2.5870 O   0  0  0  0  0  0  0  0  0  0  0  0
    4.5370    0.7700    1.7410 C   0  0  0  0  0  0  0  0  0  0  0  0
    5.2720    0.9490    2.8790 C   0  0  0  0  0  0  0  0  0  0  0  0
    4.7400    1.3930    4.2090 C   0  0  0  0  0  0  0  0  0  0  0  0
    6.5040    0.6720    2.6160 O   0  0  0  0  0  0  0  0  0  0  0  0
    6.6690    0.3060    1.3380 C   0  0  0  0  0  0  0  0  0  0  0  0
    7.9640   -0.0420    0.8280 C   0  0  0  0  0  0  0  0  0  0  0  0
    8.9620   -0.0230    1.6540 O   0  0  0  0  0  0  0  0  0  0  0  0
    8.3260   -0.4080   -0.4800 N   0  0  0  0  0  0  0  0  0  0  0  0
    9.7170   -0.7470   -0.8420 C   0  0  2  0  0  0  0  0  0  0  0  0
   10.4110    0.4230   -1.5130 C   0  0  0  0  0  0  0  0  0  0  0  0
    9.7270   -1.9330   -1.7800 C   0  0  0  0  0  0  0  0  0  0  0  0
    5.4450    0.3540    0.7530 C   0  0  0  0  0  0  0  0  0  0  0  0
    5.0530    0.0870   -0.4930 O   0  0  0  0  0  0  0  0  0  0  0  0
   -1.9410   -0.3410   -1.2830 C   0  0  1  0  0  0  0  0  0  0  0  0
   -1.7410   -1.5130   -0.4930 C   0  0  0  0  0  0  0  0  0  0  0  0
   -0.6300   -1.6250    0.1470 O   0  0  0  0  0  0  0  0  0  0  0  0
   -2.6230   -2.5820   -0.3270 N   0  0  0  0  0  0  0  0  0  0  0  0
   -2.3010   -3.6680    0.6300 C   0  0  0  0  0  0  0  0  0  0  0  0
   -3.8540   -2.7520   -1.0000 C   0  0  0  0  0  0  0  0  0  0  0  0
   -5.0320   -2.9950   -0.2790 C   0  0  0  0  0  0  0  0  0  0  0  0
   -6.2370   -3.2000   -0.8880 C   0  0  0  0  0  0  0  0  0  0  0  0
   -7.4920   -3.4660   -0.0990 C   0  0  0  0  0  0  0  0  0  0  0  0
   -6.3450   -3.1750   -2.2580 C   0  0  0  0  0  0  0  0  0  0  0  0
   -5.2070   -2.9400   -2.9870 C   0  0  0  0  0  0  0  0  0  0  0  0
   -5.3280   -2.9180   -4.3400 F   0  0  0  0  0  0  0  0  0  0  0  0
   -3.9990   -2.7360   -2.3720 C   0  0  0  0  0  0  0  0  0  0  0  0
  1  2  1  0
  2  3  1  0
  3  4  2  0
  3  8  1  0
  4  5  1  0
  5  6  2  0
  6  7  1  0
  7  8  2  0
  8  9  1  0
 10  9  1  6
 10 11  1  0
 10 33  1  0
 11 12  1  0
 12 13  2  0
 12 14  1  0
 14 15  1  0
 14 33  1  0
 15 16  1  0
 16 17  1  0
 17 18  1  0
 18 19  2  0
 18 20  1  0
 20 21  2  0
 20 31  1  0
 21 22  1  0
 21 23  1  0
 23 24  1  0
 24 25  1  0
 24 31  2  0
 25 26  2  0
 25 27  1  0
 27 28  1  0
 28 29  1  6
 28 30  1  0
 31 32  1  0
 33 34  1  1
 34 35  2  0
 34 36  1  0
 36 37  1  0
 36 38  1  0
 38 39  2  0
 38 45  1  0
 39 40  1  0
 40 41  1  0
 40 42  2  0
 42 43  1  0
 43 44  1  0
 43 45  2  0
M  END
