
     RDKit          3D

 46 52  0  0  0  0  0  0  0  0999 V2000
   -6.7270    4.1770   -0.7000 C   0  0  0  0  0  0  0  0  0  0  0  0
   -5.6160    4.5370    0.1910 C   0  0  0  0  0  0  0  0  0  0  0  0
   -4.7200    3.7060    0.6470 C   0  0  0  0  0  0  0  0  0  0  0  0
   -4.7350    2.2990    0.3070 C   0  0  0  0  0  0  0  0  0  0  0  0
   -3.8240    1.4900    0.7680 C   0  0  0  0  0  0  0  0  0  0  0  0
   -2.7350    1.9860    1.6580 C   0  0  0  0  0  0  0  0  0  0  0  0
   -1.6540    0.9010    1.8030 C   0  0  2  0  0  0  0  0  0  0  0  0
   -0.4440    1.5260    2.0890 O   0  0  0  0  0  0  0  0  0  0  0  0
   -1.4860    0.2450    0.4210 C   0  0  1  0  0  0  0  0  0  0  0  0
   -0.2030   -0.2750    0.2230 N   0  0  0  0  0  0  0  0  0  0  0  0
    0.4020   -0.0750   -1.0440 C   0  0  2  0  0  0  0  0  0  0  0  0
   -0.3030   -0.8630   -2.1460 C   0  0  0  0  0  0  0  0  0  0  0  0
    1.8320   -0.5830   -1.0490 C   0  0  0  0  0  0  0  0  0  0  0  0
    2.5150   -0.4680   -2.2360 C   0  0  0  0  0  0  0  0  0  0  0  0
    3.8520   -0.8660   -2.3460 C   0  0  0  0  0  0  0  0  0  0  0  0
    4.4540   -1.3770   -1.2150 C   0  0  0  0  0  0  0  0  0  0  0  0
    3.7940   -1.5050   -0.0130 C   0  0  0  0  0  0  0  0  0  0  0  0
    4.4420   -1.9990    1.1970 C   0  0  0  0  0  0  0  0  0  0  0  0
    3.7330   -2.5090    2.0950 O   0  0  0  0  0  0  0  0  0  0  0  0
    5.8710   -1.9180    1.3900 C   0  0  0  0  0  0  0  0  0  0  0  0
    6.6240   -3.0400    1.6140 C   0  0  0  0  0  0  0  0  0  0  0  0
    8.0140   -2.9510    1.7970 C   0  0  0  0  0  0  0  0  0  0  0  0
    8.6110   -1.7250    1.7510 C   0  0  0  0  0  0  0  0  0  0  0  0
    7.8770   -0.5860    1.5280 C   0  0  0  0  0  0  0  0  0  0  0  0
    8.5100    0.6310    1.4900 C   0  0  0  0  0  0  0  0  0  0  0  0
    7.8170    1.8200    1.2710 C   0  0  0  0  0  0  0  0  0  0  0  0
    6.4740    1.7330    1.0940 C   0  0  0  0  0  0  0  0  0  0  0  0
    5.8280    0.4970    1.1320 C   0  0  0  0  0  0  0  0  0  0  0  0
    6.4930   -0.6900    1.3470 C   0  0  0  0  0  0  0  0  0  0  0  0
    2.4570   -1.0910    0.0390 C   0  0  0  0  0  0  0  0  0  0  0  0
    0.5290    1.3110   -1.4450 N   0  0  0  0  0  0  0  0  0  0  0  0
    1.7740    2.0960   -1.3370 C   0  0  0  0  0  0  0  0  0  0  0  0
    1.2930    3.4450   -0.8310 C   0  0  0  0  0  0  0  0  0  0  0  0
   -0.1370    3.5360   -1.3340 C   0  0  0  0  0  0  0  0  0  0  0  0
   -0.4380    2.2360   -1.9560 C   0  0  0  0  0  0  0  0  0  0  0  0
   -1.3240    1.9470   -2.7590 O   0  0  0  0  0  0  0  0  0  0  0  0
   -2.6660   -0.6220    0.2480 C   0  0  0  0  0  0  0  0  0  0  0  0
   -2.6540   -1.9550   -0.0680 C   0  0  0  0  0  0  0  0  0  0  0  0
   -3.8570   -2.6270   -0.2320 C   0  0  0  0  0  0  0  0  0  0  0  0
   -5.0550   -1.9620   -0.0770 C   0  0  0  0  0  0  0  0  0  0  0  0
   -5.0550   -0.5990    0.2470 C   0  0  0  0  0  0  0  0  0  0  0  0
   -3.8820    0.0580    0.4070 C   0  0  0  0  0  0  0  0  0  0  0  0
   -6.3390   -2.6490   -0.2510 C   0  0  0  0  0  0  0  0  0  0  0  0
   -6.2800   -4.1260   -0.1900 C   0  0  0  0  0  0  0  0  0  0  0  0
   -4.9580   -4.7340    0.1280 C   0  0  0  0  0  0  0  0  0  0  0  0
   -3.8110   -4.0650   -0.5820 C   0  0  0  0  0  0  0  0  0  0  0  0
  1  2  1  0
  2  3  2  3
  3  4  1  0
  4  5  2  3
  5  6  1  0
  5 42  1  0
  6  7  1  0
  7  8  1  6
  7  9  1  0
  9 10  1  1
  9 37  1  0
 10 11  1  0
 11 12  1  6
 11 13  1  0
 11 31  1  0
 13 14  2  0
 13 30  1  0
 14 15  1  0
 15 16  2  0
 16 17  1  0
 17 18  1  0
 17 30  2  0
 18 19  2  0
 18 20  1  0
 20 21  2  0
 20 29  1  0
 21 22  1  0
 22 23  2  0
 23 24  1  0
 24 25  2  0
 24 29  1  0
 25 26  1  0
 26 27  2  0
 27 28  1  0
 28 29  2  0
 31 32  1  0
 31 35  1  0
 32 33  1  0
 33 34  1  0
 34 35  1  0
 35 36  2  0
 37 38  2  0
 37 42  1  0
 38 39  1  0
 39 40  2  0
 39 46  1  0
 40 41  1  0
 40 43  1  0
 41 42  2  0
 43 44  1  0
 44 45  1  0
 45 46  1  0
M  END
