
     RDKit          3D

 46 52  0  0  0  0  0  0  0  0999 V2000
    5.8800   -2.9050    2.8260 C   0  0  0  0  0  0  0  0  0  0  0  0
    5.0570   -1.6570    2.8470 C   0  0  0  0  0  0  0  0  0  0  0  0
    4.5190   -1.3510    1.5980 O   0  0  0  0  0  0  0  0  0  0  0  0
    5.3170   -1.0850    0.5110 C   0  0  0  0  0  0  0  0  0  0  0  0
    6.6850   -1.1020    0.6180 C   0  0  0  0  0  0  0  0  0  0  0  0
    7.4930   -0.8370   -0.4880 C   0  0  0  0  0  0  0  0  0  0  0  0
    8.8630   -0.8610   -0.3590 C   0  0  0  0  0  0  0  0  0  0  0  0
    9.6910   -0.6010   -1.4440 C   0  0  0  0  0  0  0  0  0  0  0  0
    9.0850   -0.3220   -2.6420 C   0  0  0  0  0  0  0  0  0  0  0  0
    7.7120   -0.2980   -2.7720 C   0  0  0  0  0  0  0  0  0  0  0  0
    6.8940   -0.5560   -1.6930 C   0  0  0  0  0  0  0  0  0  0  0  0
    5.5230   -0.5400   -1.7880 C   0  0  0  0  0  0  0  0  0  0  0  0
    4.6980   -0.7980   -0.7120 C   0  0  0  0  0  0  0  0  0  0  0  0
    3.2680   -0.7470   -0.7660 C   0  0  0  0  0  0  0  0  0  0  0  0
    2.4670    0.0340   -0.0670 C   0  0  0  0  0  0  0  0  0  0  0  0
    2.9740    0.9900    0.8890 C   0  0  0  0  0  0  0  0  0  0  0  0
    2.1160    1.7420    1.6000 C   0  0  0  0  0  0  0  0  0  0  0  0
    0.6720    1.6400    1.4520 C   0  0  0  0  0  0  0  0  0  0  0  0
    0.1230    0.8020    0.6090 C   0  0  0  0  0  0  0  0  0  0  0  0
   -1.3270    0.6530    0.4130 C   0  0  2  0  0  0  0  0  0  0  0  0
   -2.1790    1.6930    1.0270 C   0  0  1  0  0  0  0  0  0  0  0  0
   -2.0740    2.9520    0.2040 C   0  0  0  0  0  0  0  0  0  0  0  0
   -1.3400    2.9440   -0.7970 O   0  0  0  0  0  0  0  0  0  0  0  0
   -2.7720    4.1190    0.5310 N   0  0  0  0  0  0  0  0  0  0  0  0
   -2.7250    5.3490   -0.1960 C   0  0  0  0  0  0  0  0  0  0  0  0
   -2.0700    5.6740   -1.2680 C   0  0  0  0  0  0  0  0  0  0  0  0
   -2.3390    7.0910   -1.6640 C   0  0  0  0  0  0  0  0  0  0  0  0
   -3.2720    7.5400   -0.6280 C   0  0  0  0  0  0  0  0  0  0  0  0
   -3.4920    6.5470    0.2080 C   0  0  0  0  0  0  0  0  0  0  0  0
   -4.4050    6.6670    1.3930 C   0  0  0  0  0  0  0  0  0  0  0  0
   -3.6460    1.3410    1.0460 C   0  0  0  0  0  0  0  0  0  0  0  0
   -3.8990   -0.0080    1.6780 C   0  0  0  0  0  0  0  0  0  0  0  0
   -2.5720   -0.6340    2.0390 C   0  0  0  0  0  0  0  0  0  0  0  0
   -1.8000   -0.7770    0.7230 C   0  0  1  0  0  0  0  0  0  0  0  0
   -2.7660   -1.1920   -0.2610 N   0  0  0  0  0  0  0  0  0  0  0  0
   -3.3440   -2.4860   -0.3380 C   0  0  0  0  0  0  0  0  0  0  0  0
   -2.9180   -3.5160    0.4770 C   0  0  0  0  0  0  0  0  0  0  0  0
   -3.5240   -4.7490    0.3610 C   0  0  0  0  0  0  0  0  0  0  0  0
   -4.5530   -4.9890   -0.5520 C   0  0  0  0  0  0  0  0  0  0  0  0
   -4.9780   -3.9630   -1.3640 C   0  0  0  0  0  0  0  0  0  0  0  0
   -4.3640   -2.7370   -1.2390 C   0  0  0  0  0  0  0  0  0  0  0  0
   -6.0870   -4.4730   -2.2490 C   0  0  0  0  0  0  0  0  0  0  0  0
   -6.5680   -5.7000   -1.5030 C   0  0  0  0  0  0  0  0  0  0  0  0
   -5.3220   -6.2270   -0.8270 C   0  0  0  0  0  0  0  0  0  0  0  0
    1.0090   -0.0550   -0.2040 C   0  0  0  0  0  0  0  0  0  0  0  0
    0.5640   -0.8850   -1.0340 O   0  0  0  0  0  0  0  0  0  0  0  0
  1  2  1  0
  2  3  1  0
  3  4  1  0
  4  5  2  0
  4 13  1  0
  5  6  1  0
  6  7  2  0
  6 11  1  0
  7  8  1  0
  8  9  2  0
  9 10  1  0
 10 11  2  0
 11 12  1  0
 12 13  2  0
 13 14  1  0
 14 15  2  3
 15 16  1  0
 15 45  1  0
 16 17  2  0
 17 18  1  0
 18 19  2  0
 20 19  1  1
 19 45  1  0
 20 21  1  0
 20 34  1  0
 21 22  1  6
 21 31  1  0
 22 23  2  0
 22 24  1  0
 24 25  1  0
 25 26  2  0
 25 29  1  0
 26 27  1  0
 27 28  1  0
 28 29  2  0
 29 30  1  0
 31 32  1  0
 32 33  1  0
 33 34  1  0
 34 35  1  6
 35 36  1  0
 36 37  2  0
 36 41  1  0
 37 38  1  0
 38 39  2  0
 39 40  1  0
 39 44  1  0
 40 41  2  0
 40 42  1  0
 42 43  1  0
 43 44  1  0
 45 46  2  0
M  END
