
     RDKit          3D

 46 52  0  0  0  0  0  0  0  0999 V2000
    9.0500    0.2650    2.5860 C   0  0  0  0  0  0  0  0  0  0  0  0
    8.1810   -0.9470    2.3740 C   0  0  0  0  0  0  0  0  0  0  0  0
    7.1450   -0.6370    1.3070 C   0  0  0  0  0  0  0  0  0  0  0  0
    6.2440   -1.7960    1.0450 C   0  0  0  0  0  0  0  0  0  0  0  0
    5.2980   -1.5330    0.0880 O   0  0  0  0  0  0  0  0  0  0  0  0
    4.2520   -0.6720    0.0570 C   0  0  0  0  0  0  0  0  0  0  0  0
    3.9280    0.1230    1.0930 C   0  0  0  0  0  0  0  0  0  0  0  0
    2.8710    0.9440    0.9780 C   0  0  0  0  0  0  0  0  0  0  0  0
    2.0230    1.0660   -0.1660 C   0  0  0  0  0  0  0  0  0  0  0  0
    0.8650    1.9060   -0.0780 C   0  0  0  0  0  0  0  0  0  0  0  0
   -0.4470    1.2500    0.4180 C   0  0  1  0  0  0  0  0  0  0  0  0
   -0.2670    0.7110    1.7730 C   0  0  0  0  0  0  0  0  0  0  0  0
    0.2530   -0.5380    2.0040 C   0  0  0  0  0  0  0  0  0  0  0  0
    0.4260   -1.0050    3.2840 C   0  0  0  0  0  0  0  0  0  0  0  0
    0.0910   -0.2500    4.3840 C   0  0  0  0  0  0  0  0  0  0  0  0
   -0.4280    0.9950    4.1470 C   0  0  0  0  0  0  0  0  0  0  0  0
   -0.6090    1.4790    2.8470 C   0  0  0  0  0  0  0  0  0  0  0  0
   -1.1730    2.7920    2.6440 N   0  0  0  0  0  0  0  0  0  0  0  0
   -1.9720    2.9940    1.4860 C   0  0  0  0  0  0  0  0  0  0  0  0
   -1.5970    2.1900    0.2750 C   0  0  2  0  0  0  0  0  0  0  0  0
   -2.7720    1.6540   -0.4440 C   0  0  0  0  0  0  0  0  0  0  0  0
   -2.9350    2.1820   -1.6190 O   0  0  0  0  0  0  0  0  0  0  0  0
   -3.6900    0.6920   -0.0270 N   0  0  0  0  0  0  0  0  0  0  0  0
   -3.3440   -0.1340    1.1030 C   0  0  0  0  0  0  0  0  0  0  0  0
   -4.4420   -1.1880    1.3720 C   0  0  2  0  0  0  0  0  0  0  0  0
   -4.0330   -1.8310    2.5470 O   0  0  0  0  0  0  0  0  0  0  0  0
   -4.3440   -2.1900    0.2560 C   0  0  0  0  0  0  0  0  0  0  0  0
   -5.3000   -1.9700   -0.8730 C   0  0  0  0  0  0  0  0  0  0  0  0
   -5.5910   -0.5700   -1.1750 C   0  0  0  0  0  0  0  0  0  0  0  0
   -6.7220   -0.4170   -1.9240 C   0  0  0  0  0  0  0  0  0  0  0  0
   -7.5150   -1.5990   -2.3610 C   0  0  0  0  0  0  0  0  0  0  0  0
   -7.1490    0.8450   -2.2900 C   0  0  0  0  0  0  0  0  0  0  0  0
   -6.4700    1.9930   -1.9240 C   0  0  0  0  0  0  0  0  0  0  0  0
   -5.3120    1.8540   -1.1560 C   0  0  0  0  0  0  0  0  0  0  0  0
   -4.9030    0.5800   -0.8040 C   0  0  0  0  0  0  0  0  0  0  0  0
    2.3780    0.2450   -1.2080 C   0  0  0  0  0  0  0  0  0  0  0  0
    3.4800   -0.6160   -1.0970 C   0  0  0  0  0  0  0  0  0  0  0  0
    3.8180   -1.4270   -2.1580 C   0  0  0  0  0  0  0  0  0  0  0  0
    3.1150   -1.4200   -3.3260 C   0  0  0  0  0  0  0  0  0  0  0  0
    2.0450   -0.5780   -3.4390 C   0  0  0  0  0  0  0  0  0  0  0  0
    1.3340   -0.5370   -4.6390 C   0  0  0  0  0  0  0  0  0  0  0  0
    1.7830   -1.4600   -5.7250 C   0  0  0  0  0  0  0  0  0  0  0  0
    0.2740    0.3170   -4.7940 C   0  0  0  0  0  0  0  0  0  0  0  0
   -0.0980    1.1410   -3.7710 C   0  0  0  0  0  0  0  0  0  0  0  0
    0.6080    1.1120   -2.5520 C   0  0  0  0  0  0  0  0  0  0  0  0
    1.6480    0.2640   -2.4120 C   0  0  0  0  0  0  0  0  0  0  0  0
  1  2  1  0
  2  3  1  0
  3  4  1  0
  4  5  1  0
  5  6  1  0
  6  7  2  0
  6 37  1  0
  7  8  1  0
  8  9  2  0
  9 10  1  0
  9 36  1  0
 11 10  1  1
 11 12  1  0
 11 20  1  0
 12 13  2  0
 12 17  1  0
 13 14  1  0
 14 15  2  0
 15 16  1  0
 16 17  2  0
 17 18  1  0
 18 19  1  0
 19 20  1  0
 20 21  1  1
 21 22  2  0
 21 23  1  0
 23 24  1  0
 23 35  1  0
 24 25  1  0
 25 26  1  1
 25 27  1  0
 27 28  1  0
 28 29  1  0
 29 30  2  0
 29 35  1  0
 30 31  1  0
 30 32  1  0
 32 33  2  0
 33 34  1  0
 34 35  2  0
 36 37  2  0
 36 46  1  0
 37 38  1  0
 38 39  2  0
 39 40  1  0
 40 41  2  0
 40 46  1  0
 41 42  1  0
 41 43  1  0
 43 44  2  0
 44 45  1  0
 45 46  2  0
M  END
