
     RDKit          3D

 26 28  0  0  0  0  0  0  0  0999 V2000
    4.7110    5.1250   -0.8020 C   0  0  0  0  0  0  0  0  0  0  0  0
    3.4260    4.3530   -1.0540 C   0  0  0  0  0  0  0  0  0  0  0  0
    3.5010    3.0180   -0.5010 N   0  0  0  0  0  0  0  0  0  0  0  0
    2.4200    2.1090   -0.6130 C   0  0  0  0  0  0  0  0  0  0  0  0
    1.3980    2.4930   -1.2050 O   0  0  0  0  0  0  0  0  0  0  0  0
    2.4620    0.7900   -0.0800 N   0  0  0  0  0  0  0  0  0  0  0  0
    1.3730   -0.1160   -0.1990 C   0  0  0  0  0  0  0  0  0  0  0  0
    0.1800    0.0720   -0.7970 N   0  0  0  0  0  0  0  0  0  0  0  0
   -0.5560   -1.0560   -0.6760 C   0  0  0  0  0  0  0  0  0  0  0  0
   -2.2090   -1.2880   -1.3160 S   0  0  0  0  0  0  0  0  0  0  0  0
   -3.4960   -0.8180   -0.1820 C   0  0  0  0  0  0  0  0  0  0  0  0
   -3.5630    0.6310    0.1190 C   0  0  0  0  0  0  0  0  0  0  0  0
   -4.3340    1.4660   -0.6600 C   0  0  0  0  0  0  0  0  0  0  0  0
   -4.3800    2.7960   -0.3590 C   0  0  0  0  0  0  0  0  0  0  0  0
   -3.6510    3.2680    0.7200 C   0  0  0  0  0  0  0  0  0  0  0  0
   -2.8870    2.4070    1.4840 C   0  0  0  0  0  0  0  0  0  0  0  0
   -2.8710    1.1060    1.1520 N   0  0  0  0  0  0  0  0  0  0  0  0
    0.1920   -1.9550    0.0070 N   0  0  0  0  0  0  0  0  0  0  0  0
   -0.2720   -3.2520    0.3140 C   0  0  0  0  0  0  0  0  0  0  0  0
    0.1030   -4.3140   -0.4770 C   0  0  0  0  0  0  0  0  0  0  0  0
   -0.3720   -5.5630   -0.1410 C   0  0  0  0  0  0  0  0  0  0  0  0
   -1.2050   -5.7630    0.9610 C   0  0  0  0  0  0  0  0  0  0  0  0
   -1.5790   -4.6990    1.7530 C   0  0  0  0  0  0  0  0  0  0  0  0
   -1.0970   -3.4550    1.4050 C   0  0  0  0  0  0  0  0  0  0  0  0
    1.3820   -1.3950    0.3090 C   0  0  0  0  0  0  0  0  0  0  0  0
    2.4720   -2.0610    1.0510 C   0  0  0  0  0  0  0  0  0  0  0  0
  1  2  1  0
  2  3  1  0
  3  4  1  0
  4  5  2  0
  4  6  1  0
  6  7  1  0
  7  8  1  0
  7 25  2  0
  8  9  2  0
  9 10  1  0
  9 18  1  0
 10 11  1  0
 11 12  1  0
 12 13  2  0
 12 17  1  0
 13 14  1  0
 14 15  2  0
 15 16  1  0
 16 17  2  0
 18 19  1  0
 18 25  1  0
 19 20  2  0
 19 24  1  0
 20 21  1  0
 21 22  2  0
 22 23  1  0
 23 24  2  0
 25 26  1  0
M  END
