
     RDKit          3D

 26 28  0  0  0  0  0  0  0  0999 V2000
    7.5640    1.3770   -1.9890 C   0  0  0  0  0  0  0  0  0  0  0  0
    6.6070    0.5180   -2.2960 C   0  0  0  0  0  0  0  0  0  0  0  0
    5.6920    0.0820   -1.3050 N   0  0  0  0  0  0  0  0  0  0  0  0
    6.0230   -0.2150    0.0540 C   0  0  0  0  0  0  0  0  0  0  0  0
    4.9140    0.0850    1.0200 C   0  0  0  0  0  0  0  0  0  0  0  0
    3.6450   -0.4600    0.6510 N   0  0  0  0  0  0  0  0  0  0  0  0
    2.5750    0.5060    0.7920 C   0  0  0  0  0  0  0  0  0  0  0  0
    1.2620   -0.0630    0.4080 C   0  0  0  0  0  0  0  0  0  0  0  0
    0.4620   -0.6900    1.3360 C   0  0  0  0  0  0  0  0  0  0  0  0
   -0.7710   -1.2310    1.0020 C   0  0  0  0  0  0  0  0  0  0  0  0
   -1.5830   -1.8810    1.9700 N   0  0  0  0  0  0  0  0  0  0  0  0
   -2.8960   -2.3590    1.6470 C   0  0  0  0  0  0  0  0  0  0  0  0
   -3.7180   -1.1850    1.2820 C   0  0  0  0  0  0  0  0  0  0  0  0
   -3.4110    0.1780    1.3440 C   0  0  0  0  0  0  0  0  0  0  0  0
   -4.3660    0.9760    0.9440 N   0  0  0  0  0  0  0  0  0  0  0  0
   -5.4330    0.7050    0.5440 C   0  0  0  0  0  0  0  0  0  0  0  0
   -6.7290    1.2830    0.0210 C   0  0  2  0  0  0  0  0  0  0  0  0
   -7.8640    0.9610    0.9750 C   0  0  0  0  0  0  0  0  0  0  0  0
   -7.0550    0.7100   -1.3200 C   0  0  0  0  0  0  0  0  0  0  0  0
   -5.3490   -1.1500    0.6520 S   0  0  0  0  0  0  0  0  0  0  0  0
   -1.2100   -1.1380   -0.2980 C   0  0  0  0  0  0  0  0  0  0  0  0
   -0.3880   -0.5030   -1.2110 C   0  0  0  0  0  0  0  0  0  0  0  0
   -0.8010   -0.4250   -2.3950 O   0  0  0  0  0  0  0  0  0  0  0  0
    0.8100    0.0150   -0.8540 N   0  0  0  0  0  0  0  0  0  0  0  0
    3.6990   -1.0440   -0.6580 C   0  0  0  0  0  0  0  0  0  0  0  0
    4.2850   -0.0800   -1.6970 C   0  0  0  0  0  0  0  0  0  0  0  0
  1  2  2  0
  2  3  1  0
  3  4  1  0
  3 26  1  0
  4  5  1  0
  5  6  1  0
  6  7  1  0
  6 25  1  0
  7  8  1  0
  8  9  2  0
  8 24  1  0
  9 10  1  0
 10 11  1  0
 10 21  2  0
 11 12  1  0
 12 13  1  0
 13 14  2  0
 13 20  1  0
 14 15  1  0
 15 16  2  0
 16 17  1  0
 16 20  1  0
 17 18  1  1
 17 19  1  0
 21 22  1  0
 22 23  2  0
 22 24  1  0
 25 26  1  0
M  END
