
     RDKit          3D

 26 28  0  0  0  0  0  0  0  0999 V2000
   -3.6380   -0.3910    4.0640 C   0  0  0  0  0  0  0  0  0  0  0  0
   -2.7830    0.6220    3.3270 C   0  0  0  0  0  0  0  0  0  0  0  0
   -2.5980    0.2490    1.9000 C   0  0  0  0  0  0  0  0  0  0  0  0
   -3.1620    0.7360    0.7920 N   0  0  0  0  0  0  0  0  0  0  0  0
   -2.7080    0.1100   -0.2770 N   0  0  0  0  0  0  0  0  0  0  0  0
   -3.1270    0.4230   -1.5910 C   0  0  0  0  0  0  0  0  0  0  0  0
   -3.1600    1.7640   -1.9370 C   0  0  0  0  0  0  0  0  0  0  0  0
   -3.5420    2.2160   -3.1780 C   0  0  0  0  0  0  0  0  0  0  0  0
   -3.9100    1.2720   -4.1220 C   0  0  0  0  0  0  0  0  0  0  0  0
   -3.8720   -0.0630   -3.7650 C   0  0  0  0  0  0  0  0  0  0  0  0
   -3.4870   -0.4480   -2.5260 N   0  0  0  0  0  0  0  0  0  0  0  0
   -1.7960   -0.8490    0.0770 C   0  0  0  0  0  0  0  0  0  0  0  0
   -1.0910   -1.6620   -0.9210 C   0  0  0  0  0  0  0  0  0  0  0  0
    0.1910   -1.1250   -1.4540 C   0  0  0  0  0  0  0  0  0  0  0  0
    1.1730   -0.9020   -0.4500 N   0  0  0  0  0  0  0  0  0  0  0  0
    2.4660   -0.3830   -0.8720 C   0  0  0  0  0  0  0  0  0  0  0  0
    2.6120   -0.1820   -2.0870 O   0  0  0  0  0  0  0  0  0  0  0  0
    3.4780   -0.1280    0.0550 N   0  0  0  0  0  0  0  0  0  0  0  0
    4.8100    0.3760   -0.2730 C   0  0  0  0  0  0  0  0  0  0  0  0
    5.2660    0.5540   -1.5280 C   0  0  0  0  0  0  0  0  0  0  0  0
    6.5490    1.0200   -1.7150 C   0  0  0  0  0  0  0  0  0  0  0  0
    7.1230    1.2100   -0.0110 S   0  0  0  0  0  0  0  0  0  0  0  0
    5.6550    0.6710    0.7560 C   0  0  0  0  0  0  0  0  0  0  0  0
    5.4680    0.5920    2.2220 C   0  0  0  0  0  0  0  0  0  0  0  0
   -1.7330   -0.7570    1.4440 C   0  0  0  0  0  0  0  0  0  0  0  0
   -0.9150   -1.6180    2.3570 C   0  0  0  0  0  0  0  0  0  0  0  0
  1  2  1  0
  2  3  1  0
  3  4  2  0
  3 25  1  0
  4  5  1  0
  5  6  1  0
  5 12  1  0
  6  7  2  0
  6 11  1  0
  7  8  1  0
  8  9  2  0
  9 10  1  0
 10 11  2  0
 12 13  1  0
 12 25  2  0
 13 14  1  0
 14 15  1  0
 15 16  1  0
 16 17  2  0
 16 18  1  0
 18 19  1  0
 19 20  1  0
 19 23  2  0
 20 21  2  0
 21 22  1  0
 22 23  1  0
 23 24  1  0
 25 26  1  0
M  END
