
     RDKit          3D

 26 28  0  0  0  0  0  0  0  0999 V2000
   -4.7780    2.3190   -0.3180 C   0  0  0  0  0  0  0  0  0  0  0  0
   -5.6690    1.1670    0.1110 C   0  0  0  0  0  0  0  0  0  0  0  0
   -4.9310   -0.0660    0.2000 N   0  0  0  0  0  0  0  0  0  0  0  0
   -3.5650   -0.0880   -0.1010 C   0  0  0  0  0  0  0  0  0  0  0  0
   -2.7860   -0.2640   -0.9710 N   0  0  0  0  0  0  0  0  0  0  0  0
   -1.4970   -0.1870   -0.8600 N   0  0  0  0  0  0  0  0  0  0  0  0
   -0.8980    0.0650    0.1010 C   0  0  0  0  0  0  0  0  0  0  0  0
    0.4550    0.2440    0.6210 C   0  0  0  0  0  0  0  0  0  0  0  0
    0.8950    0.5640    1.8680 C   0  0  0  0  0  0  0  0  0  0  0  0
   -0.0130    0.8160    3.0450 C   0  0  0  0  0  0  0  0  0  0  0  0
    2.2070    0.6180    1.8790 N   0  0  0  0  0  0  0  0  0  0  0  0
    2.6730    0.3290    0.6200 C   0  0  0  0  0  0  0  0  0  0  0  0
    4.0940    0.3240    0.3430 C   0  0  0  0  0  0  0  0  0  0  0  0
    4.9330    0.6560    1.2540 O   0  0  0  0  0  0  0  0  0  0  0  0
    4.6640   -0.0320   -0.8950 N   0  0  0  0  0  0  0  0  0  0  0  0
    6.1050    0.0010   -1.0560 C   0  0  0  0  0  0  0  0  0  0  0  0
    6.9100   -0.9910   -1.3660 C   0  0  0  0  0  0  0  0  0  0  0  0
    8.2960   -0.4910   -1.4200 C   0  0  0  0  0  0  0  0  0  0  0  0
    8.1760    0.9420   -1.0950 C   0  0  0  0  0  0  0  0  0  0  0  0
    6.9020    1.2010   -0.8890 C   0  0  0  0  0  0  0  0  0  0  0  0
    1.5960    0.0950   -0.1720 C   0  0  0  0  0  0  0  0  0  0  0  0
    1.5990   -0.2520   -1.6240 C   0  0  0  0  0  0  0  0  0  0  0  0
   -2.3430    0.2950    1.3100 S   0  0  0  0  0  0  0  0  0  0  0  0
   -5.6120   -1.2690    0.5960 C   0  0  1  0  0  0  0  0  0  0  0  0
   -6.7430   -1.5930   -0.3740 C   0  0  0  0  0  0  0  0  0  0  0  0
   -4.6910   -2.4730    0.5870 C   0  0  0  0  0  0  0  0  0  0  0  0
  1  2  1  0
  2  3  1  0
  3  4  1  0
  3 24  1  0
  4  5  2  0
  4 23  1  0
  5  6  1  0
  6  7  2  0
  7  8  1  0
  7 23  1  0
  8  9  2  0
  8 21  1  0
  9 10  1  0
  9 11  1  0
 11 12  1  0
 12 13  1  0
 12 21  2  0
 13 14  2  0
 13 15  1  0
 15 16  1  0
 16 17  2  0
 16 20  1  0
 17 18  1  0
 18 19  1  0
 19 20  2  0
 21 22  1  0
 24 25  1  6
 24 26  1  0
M  END
