
     RDKit          3D

 27 29  0  0  0  0  0  0  0  0999 V2000
   -4.9890   -2.3400   -0.9910 C   0  0  0  0  0  0  0  0  0  0  0  0
   -3.8290   -1.5100   -0.5830 C   0  0  0  0  0  0  0  0  0  0  0  0
   -3.8920   -0.1430   -0.4660 C   0  0  0  0  0  0  0  0  0  0  0  0
   -2.7900    0.6220   -0.0810 C   0  0  0  0  0  0  0  0  0  0  0  0
   -2.9470    1.9590    0.0130 N   0  0  0  0  0  0  0  0  0  0  0  0
   -1.9110    2.7320    0.3860 C   0  0  0  0  0  0  0  0  0  0  0  0
   -2.0060    4.1070    0.5020 C   0  0  0  0  0  0  0  0  0  0  0  0
   -3.1000    4.6390    0.2480 O   0  0  0  0  0  0  0  0  0  0  0  0
   -0.9010    4.7710    0.8830 N   0  0  0  0  0  0  0  0  0  0  0  0
    0.2760    4.1780    1.1540 C   0  0  0  0  0  0  0  0  0  0  0  0
    1.2980    4.8330    1.5110 O   0  0  0  0  0  0  0  0  0  0  0  0
    0.4460    2.8280    1.0620 N   0  0  0  0  0  0  0  0  0  0  0  0
   -0.6230    2.1270    0.6870 C   0  0  0  0  0  0  0  0  0  0  0  0
   -0.5100    0.7940    0.5810 N   0  0  0  0  0  0  0  0  0  0  0  0
    0.7300    0.1850    0.8700 C   0  0  0  0  0  0  0  0  0  0  0  0
    1.7190    0.0600   -0.2190 C   0  0  2  0  0  0  0  0  0  0  0  0
    1.2280   -0.6830   -1.2760 O   0  0  0  0  0  0  0  0  0  0  0  0
    2.9020   -0.7500    0.3390 C   0  0  2  0  0  0  0  0  0  0  0  0
    3.4900   -0.1050    1.4160 O   0  0  0  0  0  0  0  0  0  0  0  0
    3.9620   -0.9430   -0.7210 C   0  0  2  0  0  0  0  0  0  0  0  0
    4.9680   -1.7200   -0.1460 O   0  0  0  0  0  0  0  0  0  0  0  0
    4.5970    0.3740   -1.1390 C   0  0  0  0  0  0  0  0  0  0  0  0
    5.1410    1.0400   -0.0360 O   0  0  0  0  0  0  0  0  0  0  0  0
   -1.5640    0.0350    0.2050 C   0  0  0  0  0  0  0  0  0  0  0  0
   -1.5070   -1.3390    0.0860 C   0  0  0  0  0  0  0  0  0  0  0  0
   -2.6190   -2.0960   -0.3010 C   0  0  0  0  0  0  0  0  0  0  0  0
   -2.5160   -3.5800   -0.4180 C   0  0  0  0  0  0  0  0  0  0  0  0
  1  2  1  0
  2  3  2  0
  2 26  1  0
  3  4  1  0
  4  5  1  0
  4 24  2  0
  5  6  2  0
  6  7  1  0
  6 13  1  0
  7  8  2  0
  7  9  1  0
  9 10  1  0
 10 11  2  0
 10 12  1  0
 12 13  2  0
 13 14  1  0
 14 15  1  0
 14 24  1  0
 15 16  1  0
 16 17  1  6
 16 18  1  0
 18 19  1  1
 18 20  1  0
 20 21  1  1
 20 22  1  0
 22 23  1  0
 24 25  1  0
 25 26  2  0
 26 27  1  0
M  END
