
     RDKit          3D

 26 28  0  0  0  0  0  0  0  0999 V2000
    7.8340   -2.7750    1.0370 C   0  0  0  0  0  0  0  0  0  0  0  0
    6.6510   -2.4900    0.5610 C   0  0  0  0  0  0  0  0  0  0  0  0
    6.0350   -3.3130   -0.3590 O   0  0  0  0  0  0  0  0  0  0  0  0
    5.9700   -1.2810    1.0100 C   0  0  0  0  0  0  0  0  0  0  0  0
    4.7800   -0.9800    0.5410 C   0  0  0  0  0  0  0  0  0  0  0  0
    4.1060    0.2080    0.9790 C   0  0  0  0  0  0  0  0  0  0  0  0
    2.8930    0.5640    0.5350 C   0  0  0  0  0  0  0  0  0  0  0  0
    2.2370    1.7710    0.9970 C   0  0  0  0  0  0  0  0  0  0  0  0
    2.7110    2.6830    1.8980 N   0  0  0  0  0  0  0  0  0  0  0  0
    1.8310    3.6330    2.0550 N   0  0  0  0  0  0  0  0  0  0  0  0
    0.7870    3.3330    1.2530 C   0  0  0  0  0  0  0  0  0  0  0  0
   -0.5610    4.2720    1.1360 S   0  0  0  0  0  0  0  0  0  0  0  0
    1.0310    2.1790    0.5930 N   0  0  0  0  0  0  0  0  0  0  0  0
    0.1400    1.5940   -0.3190 C   0  0  0  0  0  0  0  0  0  0  0  0
    0.4850    1.4410   -1.6470 C   0  0  0  0  0  0  0  0  0  0  0  0
   -0.3690    0.8700   -2.5650 C   0  0  0  0  0  0  0  0  0  0  0  0
   -1.6140    0.4360   -2.1420 C   0  0  0  0  0  0  0  0  0  0  0  0
   -1.9460    0.5950   -0.8140 C   0  0  0  0  0  0  0  0  0  0  0  0
   -3.2280    0.1440   -0.3960 N   0  0  0  0  0  0  0  0  0  0  0  0
   -3.6130    0.2960    1.0010 C   0  0  0  0  0  0  0  0  0  0  0  0
   -3.9070   -1.0830    1.5380 C   0  0  0  0  0  0  0  0  0  0  0  0
   -4.7350   -1.9130    0.5940 C   0  0  0  0  0  0  0  0  0  0  0  0
   -5.3180   -1.0130   -0.4570 C   0  0  0  0  0  0  0  0  0  0  0  0
   -4.1790   -0.4630   -1.2900 C   0  0  1  0  0  0  0  0  0  0  0  0
   -4.7050    0.5300   -2.3060 C   0  0  0  0  0  0  0  0  0  0  0  0
   -1.0970    1.1530    0.0610 N   0  0  0  0  0  0  0  0  0  0  0  0
  1  2  2  0
  2  3  1  0
  2  4  1  0
  4  5  2  3
  5  6  1  0
  6  7  2  3
  7  8  1  0
  8  9  2  0
  8 13  1  0
  9 10  1  0
 10 11  1  0
 11 12  2  0
 11 13  1  0
 13 14  1  0
 14 15  2  0
 14 26  1  0
 15 16  1  0
 16 17  2  0
 17 18  1  0
 18 19  1  0
 18 26  2  0
 19 20  1  0
 19 24  1  0
 20 21  1  0
 21 22  1  0
 22 23  1  0
 23 24  1  0
 24 25  1  6
M  END
