
     RDKit          3D

 26 28  0  0  0  0  0  0  0  0999 V2000
    8.2340    1.6110   -0.5490 C   0  0  0  0  0  0  0  0  0  0  0  0
    7.2860    0.4520   -0.5810 C   0  0  0  0  0  0  0  0  0  0  0  0
    7.8160   -0.7760   -0.2210 C   0  0  0  0  0  0  0  0  0  0  0  0
    6.9340   -1.8630   -0.2440 C   0  0  0  0  0  0  0  0  0  0  0  0
    7.6090   -3.4420    0.2250 S   0  0  0  0  0  0  0  0  0  0  0  0
    5.6420   -1.7130   -0.5980 N   0  0  0  0  0  0  0  0  0  0  0  0
    5.1490   -0.4910   -0.9500 C   0  0  0  0  0  0  0  0  0  0  0  0
    3.7360   -0.3310   -1.3450 C   0  0  0  0  0  0  0  0  0  0  0  0
    2.8780    0.0050   -0.0980 C   0  0  0  0  0  0  0  0  0  0  0  0
    1.5140    0.1310   -0.4720 N   0  0  0  0  0  0  0  0  0  0  0  0
    0.4700    0.2990    0.4480 C   0  0  0  0  0  0  0  0  0  0  0  0
    0.6960    0.6190    1.7560 C   0  0  0  0  0  0  0  0  0  0  0  0
   -0.3460    0.7430    2.6840 C   0  0  0  0  0  0  0  0  0  0  0  0
   -1.6530    0.5220    2.2160 C   0  0  0  0  0  0  0  0  0  0  0  0
   -1.9300    0.1990    0.9180 C   0  0  0  0  0  0  0  0  0  0  0  0
   -3.2540   -0.0790    0.4220 N   0  0  0  0  0  0  0  0  0  0  0  0
   -4.2960    0.7190    0.1980 C   0  0  0  0  0  0  0  0  0  0  0  0
   -5.3630   -0.0080   -0.3110 C   0  0  0  0  0  0  0  0  0  0  0  0
   -6.7130    0.4460   -0.7250 C   0  0  2  0  0  0  0  0  0  0  0  0
   -7.5160    1.0000    0.4320 C   0  0  0  0  0  0  0  0  0  0  0  0
   -7.4920   -0.7570   -1.2700 C   0  0  0  0  0  0  0  0  0  0  0  0
   -6.5380    1.4030   -1.7330 O   0  0  0  0  0  0  0  0  0  0  0  0
   -4.9060   -1.3180   -0.3840 C   0  0  0  0  0  0  0  0  0  0  0  0
   -3.6580   -1.3130    0.0580 N   0  0  0  0  0  0  0  0  0  0  0  0
   -0.8580    0.0900    0.0360 C   0  0  0  0  0  0  0  0  0  0  0  0
    6.0080    0.5460   -0.9220 N   0  0  0  0  0  0  0  0  0  0  0  0
  1  2  1  0
  2  3  2  0
  2 26  1  0
  3  4  1  0
  4  5  1  0
  4  6  2  0
  6  7  1  0
  7  8  1  0
  7 26  2  0
  8  9  1  0
  9 10  1  0
 10 11  1  0
 11 12  2  0
 11 25  1  0
 12 13  1  0
 13 14  2  0
 14 15  1  0
 15 16  1  0
 15 25  2  0
 16 17  1  0
 16 24  1  0
 17 18  2  0
 18 19  1  0
 18 23  1  0
 19 20  1  1
 19 21  1  0
 19 22  1  0
 23 24  2  0
M  END
