
     RDKit          3D

 26 28  0  0  0  0  0  0  0  0999 V2000
    8.1780    2.3940   -0.4140 C   0  0  0  0  0  0  0  0  0  0  0  0
    7.2480    1.4340    0.2690 C   0  0  0  0  0  0  0  0  0  0  0  0
    6.7210    1.4760    1.5570 C   0  0  0  0  0  0  0  0  0  0  0  0
    5.9090    0.4920    1.9220 C   0  0  0  0  0  0  0  0  0  0  0  0
    5.6220   -0.5180    1.0290 C   0  0  0  0  0  0  0  0  0  0  0  0
    4.8040   -1.6490    1.1850 N   0  0  0  0  0  0  0  0  0  0  0  0
    3.5460   -1.5310    0.8370 C   0  0  0  0  0  0  0  0  0  0  0  0
    2.7320   -2.6160    0.9800 C   0  0  0  0  0  0  0  0  0  0  0  0
    1.4040   -2.5670    0.6360 C   0  0  0  0  0  0  0  0  0  0  0  0
    0.8820   -1.3660    0.1270 C   0  0  0  0  0  0  0  0  0  0  0  0
   -0.4790   -1.3510   -0.2090 N   0  0  0  0  0  0  0  0  0  0  0  0
   -1.1940   -0.2820   -0.7910 C   0  0  0  0  0  0  0  0  0  0  0  0
   -0.6370    0.7990   -1.0710 O   0  0  0  0  0  0  0  0  0  0  0  0
   -2.6570   -0.4080   -1.0950 C   0  0  0  0  0  0  0  0  0  0  0  0
   -3.1600    0.8120   -1.6830 N   0  0  0  0  0  0  0  0  0  0  0  0
   -3.1580    1.8960   -0.7230 C   0  0  0  0  0  0  0  0  0  0  0  0
   -4.4790    0.6210   -2.2620 C   0  0  0  0  0  0  0  0  0  0  0  0
   -5.3690    0.1840   -1.1660 C   0  0  0  0  0  0  0  0  0  0  0  0
   -5.5360   -1.1560   -0.9280 C   0  0  0  0  0  0  0  0  0  0  0  0
   -6.3520   -1.5710    0.0820 C   0  0  0  0  0  0  0  0  0  0  0  0
   -7.0050   -0.6420    0.8610 C   0  0  0  0  0  0  0  0  0  0  0  0
   -6.8070    0.6950    0.5850 C   0  0  0  0  0  0  0  0  0  0  0  0
   -5.9970    1.0870   -0.4180 N   0  0  0  0  0  0  0  0  0  0  0  0
    1.7380   -0.3320    0.0110 C   0  0  0  0  0  0  0  0  0  0  0  0
    3.0650   -0.3870    0.3560 N   0  0  0  0  0  0  0  0  0  0  0  0
    6.5510   -0.0560   -0.4100 S   0  0  0  0  0  0  0  0  0  0  0  0
  1  2  1  0
  2  3  2  0
  2 26  1  0
  3  4  1  0
  4  5  2  0
  5  6  1  0
  5 26  1  0
  6  7  2  3
  7  8  1  0
  7 25  1  0
  8  9  2  0
  9 10  1  0
 10 11  1  0
 10 24  2  0
 11 12  1  0
 12 13  2  0
 12 14  1  0
 14 15  1  0
 15 16  1  0
 15 17  1  0
 17 18  1  0
 18 19  2  0
 18 23  1  0
 19 20  1  0
 20 21  2  0
 21 22  1  0
 22 23  2  0
 24 25  1  0
M  END
