
     RDKit          3D

 18 19  0  0  0  0  0  0  0  0999 V2000
    0.3620    0.4210   -1.2210 C   0  0  0  0  0  0  0  0  0  0  0  0
    0.5070   -0.1190    0.2090 C   0  0  2  0  0  0  0  0  0  0  0  0
    1.6490   -0.9650    0.2710 O   0  0  0  0  0  0  0  0  0  0  0  0
    2.9310   -0.5230   -0.0200 C   0  0  0  0  0  0  0  0  0  0  0  0
    3.5010   -0.8950   -1.1350 C   0  0  0  0  0  0  0  0  0  0  0  0
    4.8520   -0.4810   -1.5310 C   0  0  0  0  0  0  0  0  0  0  0  0
    5.4510    0.3440   -0.5970 O   0  0  0  0  0  0  0  0  0  0  0  0
    4.9010    0.7580    0.5740 C   0  0  0  0  0  0  0  0  0  0  0  0
    3.6670    0.3490    0.8840 C   0  0  0  0  0  0  0  0  0  0  0  0
    3.0460    0.7480    2.0860 N   0  0  0  0  0  0  0  0  0  0  0  0
   -0.6870   -0.9680    0.4570 C   0  0  0  0  0  0  0  0  0  0  0  0
   -0.5000   -2.2310    0.5570 O   0  0  0  0  0  0  0  0  0  0  0  0
   -1.9930   -0.4640    0.5850 N   0  0  0  0  0  0  0  0  0  0  0  0
   -3.0890   -1.3990    0.7890 C   0  0  0  0  0  0  0  0  0  0  0  0
   -4.3280   -0.9420    0.0430 C   0  0  0  0  0  0  0  0  0  0  0  0
   -4.5550    0.5310    0.0880 C   0  0  0  0  0  0  0  0  0  0  0  0
   -3.3260    1.2280   -0.4840 C   0  0  0  0  0  0  0  0  0  0  0  0
   -2.2160    0.9620    0.5280 C   0  0  0  0  0  0  0  0  0  0  0  0
  2  1  1  6
  2  3  1  0
  2 11  1  0
  3  4  1  0
  4  5  2  0
  4  9  1  0
  5  6  1  0
  6  7  1  0
  7  8  1  0
  8  9  2  0
  9 10  1  0
 11 12  2  0
 11 13  1  0
 13 14  1  0
 13 18  1  0
 14 15  1  0
 15 16  1  0
 16 17  1  0
 17 18  1  0
M  END
