
     RDKit          3D

 18 19  0  0  0  0  0  0  0  0999 V2000
   -3.9000   -0.9210    1.9830 C   0  0  0  0  0  0  0  0  0  0  0  0
   -2.8340   -1.2130    0.9180 C   0  0  2  0  0  0  0  0  0  0  0  0
   -1.5370   -0.8420    1.4630 C   0  0  0  0  0  0  0  0  0  0  0  0
   -1.4280   -0.2480    2.5700 O   0  0  0  0  0  0  0  0  0  0  0  0
   -0.2800   -1.1110    0.8070 N   0  0  0  0  0  0  0  0  0  0  0  0
    0.9470   -0.7510    1.3310 N   0  0  0  0  0  0  0  0  0  0  0  0
    1.9140    0.0250    0.6340 C   0  0  0  0  0  0  0  0  0  0  0  0
    1.6570    0.4080   -0.5010 O   0  0  0  0  0  0  0  0  0  0  0  0
    3.0750    0.3260    1.2120 O   0  0  0  0  0  0  0  0  0  0  0  0
    4.2180    0.9860    0.9440 C   0  0  0  0  0  0  0  0  0  0  0  0
    5.0820    0.4230   -0.1280 C   0  0  2  0  0  0  0  0  0  0  0  0
    4.6490    0.2930   -1.5200 C   0  0  0  0  0  0  0  0  0  0  0  0
    4.6360   -0.9440   -0.6960 C   0  0  0  0  0  0  0  0  0  0  0  0
   -3.1650   -0.4040   -0.3200 C   0  0  0  0  0  0  0  0  0  0  0  0
   -2.4440    0.5380   -0.8970 C   0  0  0  0  0  0  0  0  0  0  0  0
   -3.1450    1.0850   -2.1100 C   0  0  0  0  0  0  0  0  0  0  0  0
   -4.3830    0.3050   -2.1380 C   0  0  0  0  0  0  0  0  0  0  0  0
   -4.3780   -0.5350   -1.1160 C   0  0  0  0  0  0  0  0  0  0  0  0
  2  1  1  1
  2  3  1  0
  2 14  1  0
  3  4  2  0
  3  5  1  0
  5  6  1  0
  6  7  1  0
  7  8  2  0
  7  9  1  0
  9 10  1  0
 11 10  1  1
 11 12  1  0
 11 13  1  0
 12 13  1  0
 14 15  2  0
 14 18  1  0
 15 16  1  0
 16 17  1  0
 17 18  2  0
M  END
