
     RDKit          3D

 18 18  0  0  0  0  0  0  0  0999 V2000
   -3.9990   -0.7400   -1.3860 C   0  0  0  0  0  0  0  0  0  0  0  0
   -3.8790    0.1500   -0.1750 C   0  0  2  0  0  0  0  0  0  0  0  0
   -3.9980   -0.5520    1.1330 C   0  0  0  0  0  0  0  0  0  0  0  0
   -5.1480    1.0510   -0.2710 C   0  0  0  0  0  0  0  0  0  0  0  0
   -2.8460    1.0160   -0.2030 O   0  0  0  0  0  0  0  0  0  0  0  0
   -1.5730    0.5910   -0.3450 C   0  0  0  0  0  0  0  0  0  0  0  0
   -1.0110   -0.3120    0.6980 C   0  0  0  0  0  0  0  0  0  0  0  0
    0.3600   -0.6840    0.4070 N   0  0  0  0  0  0  0  0  0  0  0  0
    1.4370    0.2290    0.2950 C   0  0  0  0  0  0  0  0  0  0  0  0
    1.2210    1.4570    0.4570 O   0  0  0  0  0  0  0  0  0  0  0  0
    2.7950   -0.2210   -0.0040 C   0  0  0  0  0  0  0  0  0  0  0  0
    2.9940   -1.4370   -0.1610 O   0  0  0  0  0  0  0  0  0  0  0  0
    3.8640    0.6980   -0.1130 N   0  0  0  0  0  0  0  0  0  0  0  0
    5.1970    0.3190   -0.4000 C   0  0  0  0  0  0  0  0  0  0  0  0
    5.7090   -0.8800   -0.6150 C   0  0  0  0  0  0  0  0  0  0  0  0
    7.1460   -0.7480   -0.8710 C   0  0  0  0  0  0  0  0  0  0  0  0
    7.3810    0.5260   -0.7800 C   0  0  0  0  0  0  0  0  0  0  0  0
    6.3110    1.2560   -0.5170 C   0  0  0  0  0  0  0  0  0  0  0  0
  2  1  1  6
  2  3  1  0
  2  4  1  0
  2  5  1  0
  5  6  1  0
  6  7  1  0
  7  8  1  0
  8  9  1  0
  9 10  2  0
  9 11  1  0
 11 12  2  0
 11 13  1  0
 13 14  1  0
 14 15  2  0
 14 18  1  0
 15 16  1  0
 16 17  2  0
 17 18  2  0
M  END
