
     RDKit          3D

 18 19  0  0  0  0  0  0  0  0999 V2000
    5.2520   -1.6760    0.5870 C   0  0  0  0  0  0  0  0  0  0  0  0
    3.9010   -1.3090    0.5950 O   0  0  0  0  0  0  0  0  0  0  0  0
    3.7880    0.0700    0.4680 C   0  0  0  0  0  0  0  0  0  0  0  0
    2.3420    0.4610    0.4770 C   0  0  0  0  0  0  0  0  0  0  0  0
    1.5680   -0.1810   -0.6640 C   0  0  0  0  0  0  0  0  0  0  0  0
    0.1850    0.2490   -0.5800 N   0  0  0  0  0  0  0  0  0  0  0  0
   -0.4030    1.3870   -1.1850 C   0  0  0  0  0  0  0  0  0  0  0  0
   -1.8280    1.3250   -0.7590 C   0  0  0  0  0  0  0  0  0  0  0  0
   -2.8940    2.1830   -1.0480 C   0  0  0  0  0  0  0  0  0  0  0  0
   -4.1580    1.9810   -0.5720 C   0  0  0  0  0  0  0  0  0  0  0  0
   -4.3670    0.8800    0.2240 C   0  0  0  0  0  0  0  0  0  0  0  0
   -3.3470   -0.0270    0.5580 C   0  0  0  0  0  0  0  0  0  0  0  0
   -3.6540   -1.1550    1.3990 C   0  0  0  0  0  0  0  0  0  0  0  0
   -2.8410   -2.1810    1.8680 N   0  0  0  0  0  0  0  0  0  0  0  0
   -4.8920   -1.2300    1.7830 O   0  0  0  0  0  0  0  0  0  0  0  0
   -2.0760    0.2320    0.0410 C   0  0  0  0  0  0  0  0  0  0  0  0
   -0.8170   -0.4700    0.1740 C   0  0  0  0  0  0  0  0  0  0  0  0
   -0.6100   -1.5080    0.8150 O   0  0  0  0  0  0  0  0  0  0  0  0
  1  2  1  0
  2  3  1  0
  3  4  1  0
  4  5  1  0
  5  6  1  0
  6  7  1  0
  6 17  1  0
  7  8  1  0
  8  9  2  0
  8 16  1  0
  9 10  1  0
 10 11  2  0
 11 12  1  0
 12 13  1  0
 12 16  2  0
 13 14  1  0
 13 15  2  0
 16 17  1  0
 17 18  2  0
M  END
