
     RDKit          3D

 18 19  0  0  0  0  0  0  0  0999 V2000
   -1.7420    2.0700    1.2690 C   0  0  0  0  0  0  0  0  0  0  0  0
   -2.4790    0.7890    1.2750 C   0  0  0  0  0  0  0  0  0  0  0  0
   -2.0580   -0.3040    0.3780 C   0  0  2  0  0  0  0  0  0  0  0  0
   -0.7600   -0.8450    0.5050 N   0  0  0  0  0  0  0  0  0  0  0  0
    0.4950   -0.2360    0.2630 C   0  0  0  0  0  0  0  0  0  0  0  0
    0.4830    0.9500   -0.1320 O   0  0  0  0  0  0  0  0  0  0  0  0
    1.7850   -0.9580    0.4630 C   0  0  0  0  0  0  0  0  0  0  0  0
    2.9680   -0.1070    0.1420 C   0  0  1  0  0  0  0  0  0  0  0  0
    4.2320   -0.9010    0.3670 C   0  0  0  0  0  0  0  0  0  0  0  0
    5.1740   -0.7340   -0.6270 O   0  0  0  0  0  0  0  0  0  0  0  0
    5.4050    0.6130   -0.9200 C   0  0  0  0  0  0  0  0  0  0  0  0
    4.1600    1.0910   -1.6210 C   0  0  0  0  0  0  0  0  0  0  0  0
    4.2000    1.9440   -2.5280 O   0  0  0  0  0  0  0  0  0  0  0  0
    2.9430    0.4850   -1.1580 N   0  0  0  0  0  0  0  0  0  0  0  0
   -2.4270   -0.0060   -1.0790 C   0  0  0  0  0  0  0  0  0  0  0  0
   -3.9600    0.0050   -1.0180 C   0  0  0  0  0  0  0  0  0  0  0  0
   -4.3310   -0.9310    0.0820 C   0  0  0  0  0  0  0  0  0  0  0  0
   -3.0500   -1.4630    0.6170 C   0  0  0  0  0  0  0  0  0  0  0  0
  1  2  1  0
  3  2  1  1
  3  4  1  0
  3 15  1  0
  3 18  1  0
  4  5  1  0
  5  6  2  0
  5  7  1  0
  8  7  1  6
  8  9  1  0
  8 14  1  0
  9 10  1  0
 10 11  1  0
 11 12  1  0
 12 13  2  0
 12 14  1  0
 15 16  1  0
 16 17  1  0
 17 18  1  0
M  END
