
     RDKit          3D

 18 19  0  0  0  0  0  0  0  0999 V2000
    5.3790    1.1130    0.1790 C   0  0  0  0  0  0  0  0  0  0  0  0
    4.0420    1.3120   -0.5040 C   0  0  0  0  0  0  0  0  0  0  0  0
    3.2040    0.0950   -0.2240 C   0  0  2  0  0  0  0  0  0  0  0  0
    3.9430   -1.1180   -0.7920 C   0  0  0  0  0  0  0  0  0  0  0  0
    1.9020    0.1890   -0.7360 O   0  0  0  0  0  0  0  0  0  0  0  0
    0.7470    0.1140    0.0070 C   0  0  0  0  0  0  0  0  0  0  0  0
    0.8630   -0.0510    1.2470 O   0  0  0  0  0  0  0  0  0  0  0  0
   -0.5930    0.2230   -0.6140 C   0  0  0  0  0  0  0  0  0  0  0  0
   -0.7780    0.4010   -1.9360 N   0  0  0  0  0  0  0  0  0  0  0  0
   -2.0850    0.4640   -2.2160 C   0  0  0  0  0  0  0  0  0  0  0  0
   -2.7530    0.3200   -1.0180 C   0  0  0  0  0  0  0  0  0  0  0  0
   -1.8140    0.1700   -0.0220 C   0  0  0  0  0  0  0  0  0  0  0  0
   -2.2310   -0.0030    1.3580 C   0  0  0  0  0  0  0  0  0  0  0  0
   -3.6010   -0.1500    1.6080 N   0  0  0  0  0  0  0  0  0  0  0  0
   -4.0720   -1.4720    1.8690 C   0  0  0  0  0  0  0  0  0  0  0  0
   -4.5120    0.5470    0.7720 C   0  0  0  0  0  0  0  0  0  0  0  0
   -4.1570    0.2990   -0.6380 C   0  0  0  0  0  0  0  0  0  0  0  0
   -5.0000    0.0670   -1.5420 O   0  0  0  0  0  0  0  0  0  0  0  0
  1  2  1  0
  2  3  1  0
  3  4  1  6
  3  5  1  0
  5  6  1  0
  6  7  2  0
  6  8  1  0
  8  9  1  0
  8 12  2  0
  9 10  1  0
 10 11  2  0
 11 12  1  0
 11 17  1  0
 12 13  1  0
 13 14  1  0
 14 15  1  0
 14 16  1  0
 16 17  1  0
 17 18  2  0
M  END
