
     RDKit          3D

 18 18  0  0  0  0  0  0  0  0999 V2000
    3.4640   -0.9820   -1.5520 C   0  0  0  0  0  0  0  0  0  0  0  0
    3.8030    0.0860   -0.8800 C   0  0  0  0  0  0  0  0  0  0  0  0
    4.9220    0.8010   -1.3540 O   0  0  0  0  0  0  0  0  0  0  0  0
    3.0720    0.5150    0.2860 C   0  0  0  0  0  0  0  0  0  0  0  0
    3.4670    1.6070    0.9460 C   0  0  0  0  0  0  0  0  0  0  0  0
    2.7800    2.1250    2.1530 C   0  0  0  0  0  0  0  0  0  0  0  0
    1.9300   -0.2180    0.7500 N   0  0  0  0  0  0  0  0  0  0  0  0
    0.7280   -0.3650    0.0280 C   0  0  0  0  0  0  0  0  0  0  0  0
    0.6140    0.1730   -1.0930 O   0  0  0  0  0  0  0  0  0  0  0  0
   -0.3910   -1.1420    0.5780 C   0  0  0  0  0  0  0  0  0  0  0  0
   -1.5620   -1.1670   -0.3520 C   0  0  0  0  0  0  0  0  0  0  0  0
   -2.7490   -0.6960   -0.0700 C   0  0  0  0  0  0  0  0  0  0  0  0
   -3.2240   -0.0310    1.2150 C   0  0  0  0  0  0  0  0  0  0  0  0
   -3.7210    1.3770    0.8460 C   0  0  0  0  0  0  0  0  0  0  0  0
   -3.6420   -0.9010   -1.2340 C   0  0  0  0  0  0  0  0  0  0  0  0
   -2.8420   -1.5430   -2.2250 N   0  0  0  0  0  0  0  0  0  0  0  0
   -1.5460   -1.7220   -1.7060 C   0  0  0  0  0  0  0  0  0  0  0  0
   -0.5630   -2.2500   -2.2790 O   0  0  0  0  0  0  0  0  0  0  0  0
  1  2  2  0
  2  3  1  0
  2  4  1  0
  4  5  2  3
  4  7  1  0
  5  6  1  0
  7  8  1  0
  8  9  2  0
  8 10  1  0
 10 11  1  0
 11 12  2  0
 11 17  1  0
 12 13  1  0
 12 15  1  0
 13 14  1  0
 15 16  1  0
 16 17  1  0
 17 18  2  0
M  END
