
     RDKit          3D

 16 17  0  0  0  0  0  0  0  0999 V2000
   -0.6750   -2.9500    0.4340 Cl  0  0  0  0  0  0  0  0  0  0  0  0
   -1.7210   -1.8080    1.3360 C   0  0  0  0  0  0  0  0  0  0  0  0
   -2.4210   -0.8920    0.4210 C   0  0  0  0  0  0  0  0  0  0  0  0
   -3.7460   -0.8830    0.4090 C   0  0  0  0  0  0  0  0  0  0  0  0
   -4.4050   -0.0340   -0.4400 O   0  0  0  0  0  0  0  0  0  0  0  0
   -3.8070    0.8630   -1.3320 C   0  0  0  0  0  0  0  0  0  0  0  0
   -2.3240    0.8040   -1.2690 C   0  0  0  0  0  0  0  0  0  0  0  0
   -1.3820    1.8550   -2.3140 Cl  0  0  0  0  0  0  0  0  0  0  0  0
   -1.6500    0.0030   -0.4690 C   0  0  0  0  0  0  0  0  0  0  0  0
   -0.2650   -0.0240   -0.4380 O   0  0  0  0  0  0  0  0  0  0  0  0
    0.4110    1.0300    0.1800 C   0  0  0  0  0  0  0  0  0  0  0  0
    1.9030    0.8820    0.1450 C   0  0  1  0  0  0  0  0  0  0  0  0
    2.3490   -0.4630    0.7240 C   0  0  0  0  0  0  0  0  0  0  0  0
    3.8260   -0.3960    0.3140 C   0  0  0  0  0  0  0  0  0  0  0  0
    3.7810    0.5150   -0.8700 C   0  0  0  0  0  0  0  0  0  0  0  0
    2.4410    0.8190   -1.1130 O   0  0  0  0  0  0  0  0  0  0  0  0
  1  2  1  0
  2  3  1  0
  3  4  2  0
  3  9  1  0
  4  5  1  0
  5  6  1  0
  6  7  1  0
  7  8  1  0
  7  9  2  0
  9 10  1  0
 10 11  1  0
 12 11  1  6
 12 13  1  0
 12 16  1  0
 13 14  1  0
 14 15  1  0
 15 16  1  0
M  END
