
     RDKit          3D

 18 18  0  0  0  0  0  0  0  0999 V2000
    7.6390   -0.2630   -0.5100 C   0  0  0  0  0  0  0  0  0  0  0  0
    6.3240   -0.2950   -0.4590 C   0  0  0  0  0  0  0  0  0  0  0  0
    5.4230    0.2240    0.6050 C   0  0  0  0  0  0  0  0  0  0  0  0
    4.0680   -0.0880    0.1260 C   0  0  0  0  0  0  0  0  0  0  0  0
    2.8390    0.2500    0.8740 C   0  0  0  0  0  0  0  0  0  0  0  0
    2.8880    0.8350    1.9850 O   0  0  0  0  0  0  0  0  0  0  0  0
    1.5580   -0.0760    0.3620 N   0  0  0  0  0  0  0  0  0  0  0  0
    0.3300    0.2560    1.0990 C   0  0  0  0  0  0  0  0  0  0  0  0
   -0.8210   -0.2160    0.2960 C   0  0  0  0  0  0  0  0  0  0  0  0
   -0.7160   -0.7880   -0.8030 O   0  0  0  0  0  0  0  0  0  0  0  0
   -2.0950   -0.0040    0.8080 O   0  0  0  0  0  0  0  0  0  0  0  0
   -3.2330   -0.4660    0.0230 C   0  0  1  0  0  0  0  0  0  0  0  0
   -3.8340   -1.5400    0.9290 C   0  0  0  0  0  0  0  0  0  0  0  0
   -4.0900    0.7350   -0.1580 C   0  0  0  0  0  0  0  0  0  0  0  0
   -5.3310    0.5690   -0.9630 C   0  0  0  0  0  0  0  0  0  0  0  0
   -6.3090   -0.4100   -0.4000 C   0  0  0  0  0  0  0  0  0  0  0  0
    4.1620   -0.6920   -1.0340 C   0  0  0  0  0  0  0  0  0  0  0  0
    5.4860   -0.8510   -1.4490 N   0  0  0  0  0  0  0  0  0  0  0  0
  1  2  2  0
  2  3  1  0
  2 18  1  0
  3  4  1  0
  4  5  1  0
  4 17  2  0
  5  6  2  0
  5  7  1  0
  7  8  1  0
  8  9  1  0
  9 10  2  0
  9 11  1  0
 11 12  1  0
 12 13  1  1
 12 14  1  0
 14 15  1  0
 15 16  1  0
 17 18  1  0
M  END
