
     RDKit          3D

 28 29  0  0  0  0  0  0  0  0999 V2000
    1.4400   -5.0710   -1.6480 C   0  0  0  0  0  0  0  0  0  0  0  0
    2.2000   -4.2620   -0.9880 C   0  0  0  0  0  0  0  0  0  0  0  0
    2.1060   -2.7870   -0.9990 C   0  0  0  0  0  0  0  0  0  0  0  0
    2.9580   -2.0620   -0.2680 C   0  0  0  0  0  0  0  0  0  0  0  0
    3.0720   -0.6070   -0.1140 C   0  0  0  0  0  0  0  0  0  0  0  0
    3.2550    0.3840   -0.9250 C   0  0  0  0  0  0  0  0  0  0  0  0
    3.3760    1.8600   -0.8470 C   0  0  0  0  0  0  0  0  0  0  0  0
    2.5540    2.7570   -0.3310 C   0  0  0  0  0  0  0  0  0  0  0  0
    2.8920    4.2070   -0.3680 C   0  0  1  0  0  0  0  0  0  0  0  0
    3.1470    4.7890    0.8230 F   0  0  0  0  0  0  0  0  0  0  0  0
    4.0600    4.4060   -1.1360 F   0  0  0  0  0  0  0  0  0  0  0  0
    1.9100    4.9220   -1.0480 F   0  0  0  0  0  0  0  0  0  0  0  0
    1.2570    2.4050    0.3270 C   0  0  1  0  0  0  0  0  0  0  0  0
    0.4520    3.5890    0.7740 C   0  0  0  0  0  0  0  0  0  0  0  0
    0.3920    1.6690   -0.6120 N   0  0  0  0  0  0  0  0  0  0  0  0
   -0.8370    1.2390   -0.1290 C   0  0  0  0  0  0  0  0  0  0  0  0
   -1.0220   -0.0730    0.5170 C   0  0  1  0  0  0  0  0  0  0  0  0
   -0.3210   -0.0270    1.9010 C   0  0  0  0  0  0  0  0  0  0  0  0
   -2.3930   -0.2340    0.9540 N   0  0  0  0  0  0  0  0  0  0  0  0
   -2.7150   -1.4080    1.6190 C   0  0  0  0  0  0  0  0  0  0  0  0
   -3.9840   -2.0010    1.0450 C   0  0  0  0  0  0  0  0  0  0  0  0
   -4.3350   -1.4020   -0.1400 O   0  0  0  0  0  0  0  0  0  0  0  0
   -4.4960   -0.0390   -0.0990 C   0  0  0  0  0  0  0  0  0  0  0  0
   -3.3720    0.6720    0.6740 C   0  0  0  0  0  0  0  0  0  0  0  0
   -0.6840   -1.3080   -0.2150 C   0  0  0  0  0  0  0  0  0  0  0  0
    0.0270   -1.2860   -1.4330 N   0  0  0  0  0  0  0  0  0  0  0  0
    1.0590   -2.2170   -1.8270 C   0  0  0  0  0  0  0  0  0  0  0  0
    1.0600   -2.5930   -3.0600 O   0  0  0  0  0  0  0  0  0  0  0  0
  1  2  2  0
  2  3  1  0
  3  4  2  0
  3 27  1  0
  4  5  1  0
  5  6  2  0
  6  7  1  0
  7  8  2  0
  8  9  1  0
  8 13  1  0
  9 10  1  1
  9 11  1  0
  9 12  1  0
 13 14  1  6
 13 15  1  0
 15 16  1  0
 16 17  1  0
 17 18  1  1
 17 19  1  0
 17 25  1  0
 19 20  1  0
 19 24  1  0
 20 21  1  0
 21 22  1  0
 22 23  1  0
 23 24  1  0
 25 26  1  0
 26 27  1  0
 27 28  2  0
M  CHG  1  15   1
M  END
