
     RDKit          3D

 28 29  0  0  0  0  0  0  0  0999 V2000
    5.8970    2.3800    0.4610 C   0  0  0  0  0  0  0  0  0  0  0  0
    5.1450    1.5930    1.1790 C   0  0  0  0  0  0  0  0  0  0  0  0
    4.1720    0.6790    0.5010 C   0  0  0  0  0  0  0  0  0  0  0  0
    2.8610    0.9940    0.9450 N   0  0  0  0  0  0  0  0  0  0  0  0
    1.6900    0.3170    0.4990 C   0  0  0  0  0  0  0  0  0  0  0  0
    0.7960    0.6920   -0.4020 C   0  0  0  0  0  0  0  0  0  0  0  0
    0.9770    1.9620   -1.0880 C   0  0  0  0  0  0  0  0  0  0  0  0
    0.0530    2.4140   -2.1310 C   0  0  0  0  0  0  0  0  0  0  0  0
    1.9340    2.7080   -0.8100 O   0  0  0  0  0  0  0  0  0  0  0  0
   -0.2910   -0.2740   -0.4700 C   0  0  2  0  0  0  0  0  0  0  0  0
   -1.5470   -0.0140    0.2610 C   0  0  1  0  0  0  0  0  0  0  0  0
   -2.2360    1.2820    0.1760 C   0  0  0  0  0  0  0  0  0  0  0  0
   -3.0130    1.7670   -0.9400 C   0  0  0  0  0  0  0  0  0  0  0  0
   -3.2040    1.1930   -2.1020 C   0  0  0  0  0  0  0  0  0  0  0  0
   -2.2010    2.0770    1.2570 C   0  0  0  0  0  0  0  0  0  0  0  0
   -2.8340    3.3910    1.3280 C   0  0  2  0  0  0  0  0  0  0  0  0
   -4.2060    3.3440    1.1770 F   0  0  0  0  0  0  0  0  0  0  0  0
   -2.3410    4.2120    0.3110 F   0  0  0  0  0  0  0  0  0  0  0  0
   -2.5670    4.0000    2.5640 F   0  0  0  0  0  0  0  0  0  0  0  0
   -2.5350   -1.1120   -0.0480 C   0  0  0  0  0  0  0  0  0  0  0  0
   -2.4610   -2.2730    0.7900 N   0  0  0  0  0  0  0  0  0  0  0  0
   -1.6190   -3.3040    0.2260 C   0  0  0  0  0  0  0  0  0  0  0  0
   -0.2090   -2.8150    0.2490 C   0  0  0  0  0  0  0  0  0  0  0  0
    0.7480   -3.7210    0.3140 C   0  0  0  0  0  0  0  0  0  0  0  0
    0.4420   -5.1790    0.3670 C   0  0  0  0  0  0  0  0  0  0  0  0
    0.2510   -1.4740    0.2170 N   0  0  0  0  0  0  0  0  0  0  0  0
    1.3910   -1.0310    0.9240 C   0  0  0  0  0  0  0  0  0  0  0  0
    2.0220   -1.7390    1.7860 O   0  0  0  0  0  0  0  0  0  0  0  0
  1  2  2  0
  2  3  1  0
  3  4  1  0
  4  5  1  0
  5  6  2  0
  5 27  1  0
  6  7  1  0
 10  6  1  1
  7  8  1  0
  7  9  2  0
 10 11  1  0
 10 26  1  0
 11 12  1  6
 11 20  1  0
 12 13  1  0
 12 15  2  3
 13 14  2  0
 15 16  1  0
 16 17  1  6
 16 18  1  0
 16 19  1  0
 20 21  1  0
 21 22  1  0
 22 23  1  0
 23 24  2  3
 23 26  1  0
 24 25  1  0
 26 27  1  0
 27 28  2  0
M  CHG  1  21   1
M  END
