
     RDKit          3D

 27 29  0  0  0  0  0  0  0  0999 V2000
   -4.8930   -2.1230   -0.1080 C   0  0  0  0  0  0  0  0  0  0  0  0
   -4.5130   -0.8940    0.5530 N   0  0  2  0  0  0  0  0  0  0  0  0
   -5.5260   -0.3920    1.4300 C   0  0  0  0  0  0  0  0  0  0  0  0
   -5.0200    0.7980    2.1810 C   0  0  0  0  0  0  0  0  0  0  0  0
   -4.5380    1.8700    1.2230 C   0  0  0  0  0  0  0  0  0  0  0  0
   -3.4520    1.2200    0.3700 C   0  0  2  0  0  0  0  0  0  0  0  0
   -2.7510    2.2370   -0.4910 C   0  0  0  0  0  0  0  0  0  0  0  0
   -1.7280    1.6020   -1.2910 N   0  0  0  0  0  0  0  0  0  0  0  0
   -0.6130    0.8950   -0.7640 C   0  0  0  0  0  0  0  0  0  0  0  0
   -0.5140    0.8200    0.4870 O   0  0  0  0  0  0  0  0  0  0  0  0
    0.4070    0.2610   -1.6610 C   0  0  0  0  0  0  0  0  0  0  0  0
    1.4180   -0.3770   -0.7850 C   0  0  0  0  0  0  0  0  0  0  0  0
    1.3360   -1.5480   -0.0750 C   0  0  0  0  0  0  0  0  0  0  0  0
    0.1600   -2.4530   -0.0440 C   0  0  2  0  0  0  0  0  0  0  0  0
   -0.2910   -2.7050    1.2270 F   0  0  0  0  0  0  0  0  0  0  0  0
    0.5040   -3.6920   -0.5930 F   0  0  0  0  0  0  0  0  0  0  0  0
    2.5020   -1.7010    0.5680 N   0  0  0  0  0  0  0  0  0  0  0  0
    3.3360   -0.6850    0.3070 C   0  0  0  0  0  0  0  0  0  0  0  0
    2.6800    0.1660   -0.5450 C   0  0  0  0  0  0  0  0  0  0  0  0
    3.3560    1.3680   -0.9970 C   0  0  0  0  0  0  0  0  0  0  0  0
    2.6820    2.3870   -1.2920 O   0  0  0  0  0  0  0  0  0  0  0  0
    4.8290    1.3720   -1.1040 C   0  0  0  0  0  0  0  0  0  0  0  0
    5.4570    0.1670   -0.4830 C   0  0  2  0  0  0  0  0  0  0  0  0
    6.8650    0.5480   -0.0350 C   0  0  0  0  0  0  0  0  0  0  0  0
    5.5370   -1.0080   -1.4650 C   0  0  0  0  0  0  0  0  0  0  0  0
    4.7180   -0.3270    0.7270 C   0  0  0  0  0  0  0  0  0  0  0  0
   -4.0990    0.1240   -0.4100 C   0  0  0  0  0  0  0  0  0  0  0  0
  2  1  1  6
  2  3  1  0
  2 27  1  0
  3  4  1  0
  4  5  1  0
  5  6  1  0
  6  7  1  6
  6 27  1  0
  7  8  1  0
  8  9  1  0
  9 10  2  0
  9 11  1  0
 11 12  1  0
 12 13  2  0
 12 19  1  0
 13 14  1  0
 13 17  1  0
 14 15  1  1
 14 16  1  0
 17 18  1  0
 18 19  2  0
 18 26  1  0
 19 20  1  0
 20 21  2  0
 20 22  1  0
 22 23  1  0
 23 24  1  1
 23 25  1  0
 23 26  1  0
M  CHG  1   2   1
M  END
