
     RDKit          3D

 28 31  0  0  0  0  0  0  0  0999 V2000
   -5.5810    1.5230   -2.1660 N   0  0  0  0  0  0  0  0  0  0  0  0
   -6.2310    0.5530   -1.3700 C   0  0  0  0  0  0  0  0  0  0  0  0
   -7.5110    0.4180   -1.5500 O   0  0  0  0  0  0  0  0  0  0  0  0
   -5.6460   -0.3020   -0.3860 C   0  0  0  0  0  0  0  0  0  0  0  0
   -6.4930   -1.1900    0.2780 C   0  0  0  0  0  0  0  0  0  0  0  0
   -6.0080   -2.0470    1.2400 C   0  0  0  0  0  0  0  0  0  0  0  0
   -6.8580   -2.9060    1.8750 F   0  0  0  0  0  0  0  0  0  0  0  0
   -4.6800   -2.0580    1.5780 C   0  0  0  0  0  0  0  0  0  0  0  0
   -3.8280   -1.1870    0.9320 C   0  0  0  0  0  0  0  0  0  0  0  0
   -4.3110   -0.3100   -0.0490 C   0  0  0  0  0  0  0  0  0  0  0  0
   -3.1620    0.4450   -0.5080 C   0  0  0  0  0  0  0  0  0  0  0  0
   -3.1770    1.3460   -1.3960 O   0  0  0  0  0  0  0  0  0  0  0  0
   -2.0000    0.0160    0.2010 N   0  0  0  0  0  0  0  0  0  0  0  0
   -0.6730    0.5610   -0.0070 C   0  0  2  0  0  0  0  0  0  0  0  0
    0.2610   -0.5470   -0.5070 C   0  0  0  0  0  0  0  0  0  0  0  0
    1.5360    0.1610   -0.9530 C   0  0  0  0  0  0  0  0  0  0  0  0
    2.0590    0.9570    0.1170 N   0  0  2  0  0  0  0  0  0  0  0  0
    3.5090    0.7820    0.2790 C   0  0  1  0  0  0  0  0  0  0  0  0
    3.8870   -0.5390    0.7920 C   0  0  0  0  0  0  0  0  0  0  0  0
    5.1900   -1.0970    0.4030 C   0  0  0  0  0  0  0  0  0  0  0  0
    5.8600   -0.4670   -0.7700 C   0  0  2  0  0  0  0  0  0  0  0  0
    5.2880   -0.9960   -1.9350 F   0  0  0  0  0  0  0  0  0  0  0  0
    7.2050   -0.7730   -0.8470 F   0  0  0  0  0  0  0  0  0  0  0  0
    5.6510    1.0310   -0.8560 C   0  0  0  0  0  0  0  0  0  0  0  0
    4.1470    1.2120   -0.9950 C   0  0  0  0  0  0  0  0  0  0  0  0
    1.4010    0.7520    1.3800 C   0  0  0  0  0  0  0  0  0  0  0  0
   -0.0580    1.1070    1.2480 C   0  0  0  0  0  0  0  0  0  0  0  0
   -2.3840   -1.0100    1.1140 C   0  0  0  0  0  0  0  0  0  0  0  0
  1  2  1  0
  2  3  2  0
  2  4  1  0
  4  5  2  0
  4 10  1  0
  5  6  1  0
  6  7  1  0
  6  8  2  0
  8  9  1  0
  9 10  2  0
  9 28  1  0
 10 11  1  0
 11 12  2  0
 11 13  1  0
 14 13  1  1
 13 28  1  0
 14 15  1  0
 14 27  1  0
 15 16  1  0
 17 16  1  6
 17 18  1  0
 17 26  1  0
 18 19  1  6
 18 25  1  0
 19 20  1  0
 20 21  1  0
 21 22  1  6
 21 23  1  0
 21 24  1  0
 24 25  1  0
 26 27  1  0
M  CHG  1  17   1
M  END
