
     RDKit          3D

 27 30  0  0  0  0  0  0  0  0999 V2000
   -3.8710   -0.8370   -1.7670 C   0  0  0  0  0  0  0  0  0  0  0  0
   -2.9220   -0.5460   -0.6160 C   0  0  1  0  0  0  0  0  0  0  0  0
   -3.3780    0.6210    0.0360 N   0  0  0  0  0  0  0  0  0  0  0  0
   -2.5580    1.7500   -0.3950 C   0  0  0  0  0  0  0  0  0  0  0  0
   -2.0130    2.5810    0.7050 C   0  0  0  0  0  0  0  0  0  0  0  0
   -0.5330    2.8070    0.6530 C   0  0  0  0  0  0  0  0  0  0  0  0
    0.1810    2.3870    1.8940 C   0  0  0  0  0  0  0  0  0  0  0  0
   -0.3840    2.7250    2.9860 O   0  0  0  0  0  0  0  0  0  0  0  0
    1.4030    1.6610    1.8930 N   0  0  0  0  0  0  0  0  0  0  0  0
    1.9340    0.8870    0.8250 C   0  0  0  0  0  0  0  0  0  0  0  0
    3.2560    1.0840    0.4700 C   0  0  0  0  0  0  0  0  0  0  0  0
    3.8890    0.4290   -0.5650 C   0  0  0  0  0  0  0  0  0  0  0  0
    3.1760   -0.4860   -1.3060 C   0  0  0  0  0  0  0  0  0  0  0  0
    1.8550   -0.6910   -0.9570 C   0  0  0  0  0  0  0  0  0  0  0  0
    1.2040   -0.0370    0.0860 C   0  0  0  0  0  0  0  0  0  0  0  0
   -0.1070   -0.3330    0.3310 O   0  0  0  0  0  0  0  0  0  0  0  0
   -0.7540   -0.7740    1.4810 C   0  0  0  0  0  0  0  0  0  0  0  0
   -1.7660   -1.8500    1.1490 C   0  0  0  0  0  0  0  0  0  0  0  0
   -2.6810   -1.7250    0.2470 C   0  0  0  0  0  0  0  0  0  0  0  0
   -3.4490   -2.9610    0.2260 C   0  0  0  0  0  0  0  0  0  0  0  0
   -2.9990   -3.7860    1.0880 N   0  0  0  0  0  0  0  0  0  0  0  0
   -1.8920   -3.1820    1.7630 C   0  0  1  0  0  0  0  0  0  0  0  0
   -0.7830   -3.9780    1.5450 F   0  0  0  0  0  0  0  0  0  0  0  0
   -2.1940   -3.1050    3.1140 F   0  0  0  0  0  0  0  0  0  0  0  0
    4.0750   -1.0500   -2.3550 C   0  0  0  0  0  0  0  0  0  0  0  0
    5.4640   -0.8590   -1.7320 C   0  0  0  0  0  0  0  0  0  0  0  0
    5.2890    0.5060   -1.0930 C   0  0  0  0  0  0  0  0  0  0  0  0
  2  1  1  6
  2  3  1  0
  2 19  1  0
  3  4  1  0
  4  5  1  0
  5  6  1  0
  6  7  1  0
  7  8  2  0
  7  9  1  0
  9 10  1  0
 10 11  2  0
 10 15  1  0
 11 12  1  0
 12 13  2  0
 12 27  1  0
 13 14  1  0
 13 25  1  0
 14 15  2  0
 15 16  1  0
 16 17  1  0
 17 18  1  0
 18 19  2  0
 18 22  1  0
 19 20  1  0
 20 21  2  0
 21 22  1  0
 22 23  1  1
 22 24  1  0
 25 26  1  0
 26 27  1  0
M  CHG  1   3   1
M  END
