
     RDKit          3D

 10 10  0  0  0  0  0  0  0  0999 V2000
    2.5050    0.8610   -0.0870 C   0  0  0  0  0  0  0  0  0  0  0  0
    2.0390   -0.1300    0.7050 O   0  0  0  0  0  0  0  0  0  0  0  0
    0.9920   -0.8710    0.3460 C   0  0  0  0  0  0  0  0  0  0  0  0
   -0.3290   -0.2130    0.2220 C   0  0  0  0  0  0  0  0  0  0  0  0
   -0.7340    1.0380    0.4620 N   0  0  0  0  0  0  0  0  0  0  0  0
   -2.0490    1.1020    0.2120 C   0  0  0  0  0  0  0  0  0  0  0  0
   -2.7350    2.1570    0.3450 O   0  0  0  0  0  0  0  0  0  0  0  0
   -2.5130   -0.0870   -0.1870 N   0  0  0  0  0  0  0  0  0  0  0  0
   -1.4680   -0.9130   -0.1880 C   0  0  0  0  0  0  0  0  0  0  0  0
   -1.5170   -2.2730   -0.5470 O   0  0  0  0  0  0  0  0  0  0  0  0
  1  2  1  0
  2  3  1  0
  3  4  1  0
  4  5  1  0
  4  9  2  0
  5  6  1  0
  6  7  2  0
  6  8  1  0
  8  9  1  0
  9 10  1  0
M  END
