
     RDKit          3D

 28 30  0  0  0  0  0  0  0  0999 V2000
   -4.3720   -1.0360   -1.6350 C   0  0  0  0  0  0  0  0  0  0  0  0
   -3.6570   -1.0660   -0.3220 C   0  0  2  0  0  0  0  0  0  0  0  0
   -4.2140   -2.0730    0.6160 C   0  0  0  0  0  0  0  0  0  0  0  0
   -3.5010    0.3480    0.2780 C   0  0  0  0  0  0  0  0  0  0  0  0
   -2.1790   -0.1580    0.7870 C   0  0  2  0  0  0  0  0  0  0  0  0
   -1.1260    0.6220    1.1220 N   0  0  0  0  0  0  0  0  0  0  0  0
   -0.6120    1.7310    0.5260 C   0  0  2  0  0  0  0  0  0  0  0  0
   -1.5600    2.9320    0.3760 C   0  0  0  0  0  0  0  0  0  0  0  0
   -0.7200    4.1950    0.3670 C   0  0  0  0  0  0  0  0  0  0  0  0
    0.7120    3.9370    0.0400 C   0  0  0  0  0  0  0  0  0  0  0  0
    0.9790    2.8640   -0.9330 C   0  0  0  0  0  0  0  0  0  0  0  0
    0.0870    1.6310   -0.8080 C   0  0  1  0  0  0  0  0  0  0  0  0
    0.6340    0.4430   -1.1530 O   0  0  0  0  0  0  0  0  0  0  0  0
    1.7960   -0.1150   -1.4930 C   0  0  0  0  0  0  0  0  0  0  0  0
    2.3260   -0.1900   -2.6670 O   0  0  0  0  0  0  0  0  0  0  0  0
    2.5990   -0.7220   -0.4830 N   0  0  0  0  0  0  0  0  0  0  0  0
    4.0580   -0.6180   -0.4580 C   0  0  0  0  0  0  0  0  0  0  0  0
    4.4890    0.6020    0.3390 C   0  0  0  0  0  0  0  0  0  0  0  0
    6.0020    0.6600    0.3320 C   0  0  2  0  0  0  0  0  0  0  0  0
    6.4700    1.7480    1.0400 F   0  0  0  0  0  0  0  0  0  0  0  0
    6.4620    0.7290   -0.9490 F   0  0  0  0  0  0  0  0  0  0  0  0
    6.5000   -0.4990    0.8970 F   0  0  0  0  0  0  0  0  0  0  0  0
    2.0010   -1.5070    0.6130 C   0  0  0  0  0  0  0  0  0  0  0  0
    1.5230   -2.7880    0.0390 C   0  0  0  0  0  0  0  0  0  0  0  0
    0.3640   -3.4450    0.6740 C   0  0  0  0  0  0  0  0  0  0  0  0
   -0.8420   -2.5630    0.9100 C   0  0  0  0  0  0  0  0  0  0  0  0
   -1.4100   -2.2120   -0.3460 N   0  0  0  0  0  0  0  0  0  0  0  0
   -2.1310   -1.0180   -0.4430 C   0  0  1  0  0  0  0  0  0  0  0  0
  2  1  1  6
  2  3  1  0
  2  4  1  0
  2 28  1  0
  5  4  1  6
  5  6  1  0
  5 28  1  0
  6  7  1  0
  7  8  1  6
  7 12  1  0
  8  9  1  0
  9 10  1  0
 10 11  1  0
 12 11  1  1
 12 13  1  0
 13 14  1  0
 14 15  2  0
 14 16  1  0
 16 17  1  0
 16 23  1  0
 17 18  1  0
 18 19  1  0
 19 20  1  1
 19 21  1  0
 19 22  1  0
 23 24  1  0
 24 25  1  0
 25 26  1  0
 26 27  1  0
 28 27  1  1
M  CHG  1  27   1
M  END
