
     RDKit          3D

 18 18  0  0  0  0  0  0  0  0999 V2000
    3.8300   -2.5210   -0.8980 C   0  0  0  0  0  0  0  0  0  0  0  0
    3.9240   -1.2480   -1.0990 C   0  0  0  0  0  0  0  0  0  0  0  0
    5.0860   -0.7780   -1.6740 O   0  0  0  0  0  0  0  0  0  0  0  0
    2.8630   -0.2700   -0.7510 C   0  0  0  0  0  0  0  0  0  0  0  0
    3.0380    1.0090   -0.9890 C   0  0  0  0  0  0  0  0  0  0  0  0
    4.3210    1.5100   -1.6220 C   0  0  0  0  0  0  0  0  0  0  0  0
    1.6700   -0.7380   -0.1620 N   0  0  0  0  0  0  0  0  0  0  0  0
    0.5730    0.0270    0.2290 C   0  0  0  0  0  0  0  0  0  0  0  0
    0.5320    1.2490    0.0940 O   0  0  0  0  0  0  0  0  0  0  0  0
   -0.6380   -0.6350    0.8500 C   0  0  0  0  0  0  0  0  0  0  0  0
   -1.6760    0.3630    1.1860 C   0  0  0  0  0  0  0  0  0  0  0  0
   -2.8990    0.4190    0.7390 C   0  0  0  0  0  0  0  0  0  0  0  0
   -3.5560   -0.5250   -0.2330 C   0  0  0  0  0  0  0  0  0  0  0  0
   -4.7600   -1.1700    0.4210 C   0  0  0  0  0  0  0  0  0  0  0  0
   -3.6610    1.5710    1.3000 C   0  0  0  0  0  0  0  0  0  0  0  0
   -2.7350    2.2310    2.1660 N   0  0  0  0  0  0  0  0  0  0  0  0
   -1.5210    1.5080    2.1080 C   0  0  0  0  0  0  0  0  0  0  0  0
   -0.4300    1.7430    2.7200 O   0  0  0  0  0  0  0  0  0  0  0  0
  1  2  2  0
  2  3  1  0
  2  4  1  0
  4  5  2  3
  4  7  1  0
  5  6  1  0
  7  8  1  0
  8  9  2  0
  8 10  1  0
 10 11  1  0
 11 12  2  0
 11 17  1  0
 12 13  1  0
 12 15  1  0
 13 14  1  0
 15 16  1  0
 16 17  1  0
 17 18  2  0
M  END
