
     RDKit          3D

 18 18  0  0  0  0  0  0  0  0999 V2000
    6.4220    1.8660    0.2640 C   0  0  0  0  0  0  0  0  0  0  0  0
    5.7820    0.7160    0.3040 C   0  0  0  0  0  0  0  0  0  0  0  0
    4.3200    0.5530    0.1890 C   0  0  0  0  0  0  0  0  0  0  0  0
    4.1310   -0.9140    0.2960 C   0  0  0  0  0  0  0  0  0  0  0  0
    2.8430   -1.5870    0.2390 C   0  0  0  0  0  0  0  0  0  0  0  0
    2.7160   -2.8300    0.3320 O   0  0  0  0  0  0  0  0  0  0  0  0
    1.6350   -0.8360    0.0690 N   0  0  0  0  0  0  0  0  0  0  0  0
    0.3670   -1.4950    0.0130 C   0  0  0  0  0  0  0  0  0  0  0  0
   -0.7040   -0.4890   -0.1660 C   0  0  0  0  0  0  0  0  0  0  0  0
   -0.4480    0.7580   -0.2490 O   0  0  0  0  0  0  0  0  0  0  0  0
   -2.0510   -0.8330   -0.2560 O   0  0  0  0  0  0  0  0  0  0  0  0
   -3.0570    0.1920   -0.4310 C   0  0  1  0  0  0  0  0  0  0  0  0
   -3.7140   -0.0610   -1.7560 C   0  0  0  0  0  0  0  0  0  0  0  0
   -3.9240    0.1100    0.7660 C   0  0  0  0  0  0  0  0  0  0  0  0
   -5.0510    1.0620    0.8860 C   0  0  0  0  0  0  0  0  0  0  0  0
   -6.0490    0.9390   -0.2090 C   0  0  0  0  0  0  0  0  0  0  0  0
    5.2880   -1.5230    0.4490 C   0  0  0  0  0  0  0  0  0  0  0  0
    6.3520   -0.5780    0.4630 N   0  0  0  0  0  0  0  0  0  0  0  0
  1  2  2  0
  2  3  1  0
  2 18  1  0
  3  4  1  0
  4  5  1  0
  4 17  2  0
  5  6  2  0
  5  7  1  0
  7  8  1  0
  8  9  1  0
  9 10  2  0
  9 11  1  0
 11 12  1  0
 12 13  1  6
 12 14  1  0
 14 15  1  0
 15 16  1  0
 17 18  1  0
M  END
