
     RDKit          3D

 18 18  0  0  0  0  0  0  0  0999 V2000
   -4.2700   -0.6580   -0.8120 C   0  0  0  0  0  0  0  0  0  0  0  0
   -2.8650   -0.1340   -1.0450 C   0  0  2  0  0  0  0  0  0  0  0  0
   -2.5800    1.0570   -0.1310 C   0  0  0  0  0  0  0  0  0  0  0  0
   -2.7740    0.2720   -2.5000 C   0  0  0  0  0  0  0  0  0  0  0  0
   -1.9000   -1.0790   -0.7890 O   0  0  0  0  0  0  0  0  0  0  0  0
   -1.9710   -1.5000    0.5310 C   0  0  0  0  0  0  0  0  0  0  0  0
   -0.8950   -2.5300    0.7520 C   0  0  0  0  0  0  0  0  0  0  0  0
    0.3900   -1.9290    0.4820 N   0  0  0  0  0  0  0  0  0  0  0  0
    0.8970   -0.8090    1.1950 C   0  0  0  0  0  0  0  0  0  0  0  0
    0.2220   -0.2870    2.1150 O   0  0  0  0  0  0  0  0  0  0  0  0
    2.2190   -0.2430    0.8650 C   0  0  0  0  0  0  0  0  0  0  0  0
    2.8930   -0.7650   -0.0550 O   0  0  0  0  0  0  0  0  0  0  0  0
    2.7130    0.8650    1.5760 N   0  0  0  0  0  0  0  0  0  0  0  0
    3.9810    1.4010    1.2540 C   0  0  0  0  0  0  0  0  0  0  0  0
    5.0320    1.5090    2.0460 C   0  0  0  0  0  0  0  0  0  0  0  0
    6.1180    2.1210    1.2880 C   0  0  0  0  0  0  0  0  0  0  0  0
    5.6260    2.3090    0.0990 C   0  0  0  0  0  0  0  0  0  0  0  0
    4.3610    1.9410   -0.0410 C   0  0  0  0  0  0  0  0  0  0  0  0
  2  1  1  1
  2  3  1  0
  2  4  1  0
  2  5  1  0
  5  6  1  0
  6  7  1  0
  7  8  1  0
  8  9  1  0
  9 10  2  0
  9 11  1  0
 11 12  2  0
 11 13  1  0
 13 14  1  0
 14 15  2  0
 14 18  1  0
 15 16  1  0
 16 17  2  0
 17 18  2  0
M  END
