
     RDKit          3D

 18 19  0  0  0  0  0  0  0  0999 V2000
    4.7720    0.6130   -0.8890 C   0  0  0  0  0  0  0  0  0  0  0  0
    4.1920    1.0790    0.4240 C   0  0  0  0  0  0  0  0  0  0  0  0
    3.1600    0.1170    0.9600 C   0  0  2  0  0  0  0  0  0  0  0  0
    3.8870   -1.2210    1.1530 C   0  0  0  0  0  0  0  0  0  0  0  0
    2.1070   -0.1160    0.0820 O   0  0  0  0  0  0  0  0  0  0  0  0
    0.7720   -0.0070    0.3770 C   0  0  0  0  0  0  0  0  0  0  0  0
    0.4490    0.3330    1.5430 O   0  0  0  0  0  0  0  0  0  0  0  0
   -0.2640   -0.2810   -0.6440 C   0  0  0  0  0  0  0  0  0  0  0  0
   -0.0770   -0.6500   -1.9190 N   0  0  0  0  0  0  0  0  0  0  0  0
   -1.2500   -0.8120   -2.5570 C   0  0  0  0  0  0  0  0  0  0  0  0
   -2.2450   -0.5300   -1.6380 C   0  0  0  0  0  0  0  0  0  0  0  0
   -1.6160   -0.1970   -0.4340 C   0  0  0  0  0  0  0  0  0  0  0  0
   -2.4240    0.1570    0.7470 C   0  0  0  0  0  0  0  0  0  0  0  0
   -3.6880    0.7370    0.3230 N   0  0  0  0  0  0  0  0  0  0  0  0
   -4.5050    1.0180    1.5000 C   0  0  0  0  0  0  0  0  0  0  0  0
   -4.4530   -0.2160   -0.4820 C   0  0  0  0  0  0  0  0  0  0  0  0
   -3.7000   -0.5280   -1.7210 C   0  0  0  0  0  0  0  0  0  0  0  0
   -4.2540   -0.7840   -2.8150 O   0  0  0  0  0  0  0  0  0  0  0  0
  1  2  1  0
  2  3  1  0
  3  4  1  6
  3  5  1  0
  5  6  1  0
  6  7  2  0
  6  8  1  0
  8  9  1  0
  8 12  2  0
  9 10  1  0
 10 11  2  0
 11 12  1  0
 11 17  1  0
 12 13  1  0
 13 14  1  0
 14 15  1  0
 14 16  1  0
 16 17  1  0
 17 18  2  0
M  END
