
     RDKit          3D

 18 18  0  0  0  0  0  0  0  0999 V2000
   -5.6720    0.3100   -1.4620 C   0  0  0  0  0  0  0  0  0  0  0  0
   -4.4850    0.3350   -0.5650 C   0  0  0  0  0  0  0  0  0  0  0  0
   -4.5770    0.6970    0.7000 C   0  0  0  0  0  0  0  0  0  0  0  0
   -3.4660    0.7330    1.5820 N   0  0  0  0  0  0  0  0  0  0  0  0
   -2.1500    0.3810    1.1830 C   0  0  0  0  0  0  0  0  0  0  0  0
   -1.1710    0.4110    1.9570 O   0  0  0  0  0  0  0  0  0  0  0  0
   -1.9680   -0.0370   -0.2270 C   0  0  0  0  0  0  0  0  0  0  0  0
   -0.7500   -0.3770   -0.6550 C   0  0  0  0  0  0  0  0  0  0  0  0
   -0.6010   -0.7880   -2.0620 C   0  0  0  0  0  0  0  0  0  0  0  0
    0.3710   -0.3430    0.2220 N   0  0  0  0  0  0  0  0  0  0  0  0
    1.3420    0.7170    0.2180 C   0  0  0  0  0  0  0  0  0  0  0  0
    2.4280    0.4940    1.2520 C   0  0  0  0  0  0  0  0  0  0  0  0
    3.1740   -0.7790    1.0090 C   0  0  0  0  0  0  0  0  0  0  0  0
    3.8510   -0.8230   -0.3290 C   0  0  0  0  0  0  0  0  0  0  0  0
    4.8490    0.3070   -0.4510 C   0  0  0  0  0  0  0  0  0  0  0  0
    5.7990    0.1710    0.5550 O   0  0  0  0  0  0  0  0  0  0  0  0
   -3.1540   -0.0440   -1.0570 C   0  0  0  0  0  0  0  0  0  0  0  0
   -3.0780   -0.3830   -2.2510 O   0  0  0  0  0  0  0  0  0  0  0  0
  1  2  1  0
  2  3  2  0
  2 17  1  0
  3  4  1  0
  4  5  1  0
  5  6  2  0
  5  7  1  0
  7  8  2  3
  7 17  1  0
  8  9  1  0
  8 10  1  0
 10 11  1  0
 11 12  1  0
 12 13  1  0
 13 14  1  0
 14 15  1  0
 15 16  1  0
 17 18  2  0
M  END
