
     RDKit          3D

 16 17  0  0  0  0  0  0  0  0999 V2000
   -1.5210    0.1560   -3.1960 Cl  0  0  0  0  0  0  0  0  0  0  0  0
   -2.2420   -1.0330   -2.0620 C   0  0  0  0  0  0  0  0  0  0  0  0
   -2.7060   -0.3900   -0.8240 C   0  0  0  0  0  0  0  0  0  0  0  0
   -3.9930   -0.4500   -0.4580 C   0  0  0  0  0  0  0  0  0  0  0  0
   -4.3940    0.1650    0.7110 O   0  0  0  0  0  0  0  0  0  0  0  0
   -3.5280    0.8550    1.5460 C   0  0  0  0  0  0  0  0  0  0  0  0
   -2.1280    0.9010    1.1160 C   0  0  0  0  0  0  0  0  0  0  0  0
   -0.9640    1.7580    2.1220 Cl  0  0  0  0  0  0  0  0  0  0  0  0
   -1.7440    0.3140   -0.0010 C   0  0  0  0  0  0  0  0  0  0  0  0
   -0.4100    0.3900   -0.3570 O   0  0  0  0  0  0  0  0  0  0  0  0
    0.4730   -0.5460    0.2540 C   0  0  0  0  0  0  0  0  0  0  0  0
    1.8760   -0.3310   -0.2350 C   0  0  1  0  0  0  0  0  0  0  0  0
    2.4460    0.9850    0.2510 C   0  0  0  0  0  0  0  0  0  0  0  0
    3.9480    0.7170    0.1000 C   0  0  0  0  0  0  0  0  0  0  0  0
    4.0030   -0.7700    0.3000 C   0  0  0  0  0  0  0  0  0  0  0  0
    2.7210   -1.2480    0.3680 O   0  0  0  0  0  0  0  0  0  0  0  0
  1  2  1  0
  2  3  1  0
  3  4  2  0
  3  9  1  0
  4  5  1  0
  5  6  1  0
  6  7  1  0
  7  8  1  0
  7  9  2  0
  9 10  1  0
 10 11  1  0
 12 11  1  1
 12 13  1  0
 12 16  1  0
 13 14  1  0
 14 15  1  0
 15 16  1  0
M  END
