
     RDKit          3D

 18 19  0  0  0  0  0  0  0  0999 V2000
   -2.0380    2.3170   -0.5560 C   0  0  0  0  0  0  0  0  0  0  0  0
   -2.2700    1.1890    0.4000 C   0  0  2  0  0  0  0  0  0  0  0  0
   -1.0890    0.3360    0.5930 C   0  0  0  0  0  0  0  0  0  0  0  0
   -0.6130    0.2100    1.7470 O   0  0  0  0  0  0  0  0  0  0  0  0
   -0.4500   -0.3610   -0.4720 N   0  0  0  0  0  0  0  0  0  0  0  0
    0.6490   -1.1370   -0.1950 N   0  0  0  0  0  0  0  0  0  0  0  0
    1.8230   -0.5810    0.3890 C   0  0  0  0  0  0  0  0  0  0  0  0
    1.8130    0.6490    0.6410 O   0  0  0  0  0  0  0  0  0  0  0  0
    2.9260   -1.3340    0.6730 O   0  0  0  0  0  0  0  0  0  0  0  0
    4.1180   -0.8920    1.2180 C   0  0  0  0  0  0  0  0  0  0  0  0
    4.9450    0.0010    0.3450 C   0  0  1  0  0  0  0  0  0  0  0  0
    5.4580   -0.5330   -0.9470 C   0  0  0  0  0  0  0  0  0  0  0  0
    4.4650    0.6410   -0.8930 C   0  0  0  0  0  0  0  0  0  0  0  0
   -3.4010    0.3020   -0.0110 C   0  0  0  0  0  0  0  0  0  0  0  0
   -4.1060    0.3400   -1.1140 C   0  0  0  0  0  0  0  0  0  0  0  0
   -5.1150   -0.7530   -1.0510 C   0  0  0  0  0  0  0  0  0  0  0  0
   -4.8630   -1.4010    0.2540 C   0  0  0  0  0  0  0  0  0  0  0  0
   -3.8690   -0.7810    0.8450 C   0  0  0  0  0  0  0  0  0  0  0  0
  2  1  1  6
  2  3  1  0
  2 14  1  0
  3  4  2  0
  3  5  1  0
  5  6  1  0
  6  7  1  0
  7  8  2  0
  7  9  1  0
  9 10  1  0
 11 10  1  6
 11 12  1  0
 11 13  1  0
 12 13  1  0
 14 15  2  0
 14 18  1  0
 15 16  1  0
 16 17  1  0
 17 18  2  0
M  END
