
     RDKit          3D

 18 19  0  0  0  0  0  0  0  0999 V2000
   -4.1080   -1.5580   -0.4150 C   0  0  0  0  0  0  0  0  0  0  0  0
   -2.6670   -1.7580   -0.2730 C   0  0  0  0  0  0  0  0  0  0  0  0
   -1.7970   -0.5750   -0.0230 C   0  0  1  0  0  0  0  0  0  0  0  0
   -0.4650   -1.0500    0.0730 N   0  0  0  0  0  0  0  0  0  0  0  0
    0.6290   -0.1870    0.3190 C   0  0  0  0  0  0  0  0  0  0  0  0
    0.3370    1.0140    0.4450 O   0  0  0  0  0  0  0  0  0  0  0  0
    2.0150   -0.6920    0.4170 C   0  0  0  0  0  0  0  0  0  0  0  0
    2.9450    0.4890    0.6850 C   0  0  1  0  0  0  0  0  0  0  0  0
    4.3480   -0.0290    0.7830 C   0  0  0  0  0  0  0  0  0  0  0  0
    5.2370    0.5920   -0.0850 O   0  0  0  0  0  0  0  0  0  0  0  0
    4.8540    0.3680   -1.4190 C   0  0  0  0  0  0  0  0  0  0  0  0
    3.5880    1.1580   -1.5990 C   0  0  0  0  0  0  0  0  0  0  0  0
    3.2480    1.5880   -2.7330 O   0  0  0  0  0  0  0  0  0  0  0  0
    2.8110    1.3880   -0.4370 N   0  0  0  0  0  0  0  0  0  0  0  0
   -2.0850    0.5300   -0.9470 C   0  0  0  0  0  0  0  0  0  0  0  0
   -3.1310    1.3900   -0.2720 C   0  0  0  0  0  0  0  0  0  0  0  0
   -2.7420    1.3400    1.1610 C   0  0  0  0  0  0  0  0  0  0  0  0
   -2.1760   -0.0280    1.3460 C   0  0  0  0  0  0  0  0  0  0  0  0
  1  2  1  0
  3  2  1  6
  3  4  1  0
  3 15  1  0
  3 18  1  0
  4  5  1  0
  5  6  2  0
  5  7  1  0
  8  7  1  6
  8  9  1  0
  8 14  1  0
  9 10  1  0
 10 11  1  0
 11 12  1  0
 12 13  2  0
 12 14  1  0
 15 16  1  0
 16 17  1  0
 17 18  1  0
M  END
