
     RDKit          3D

 19 21  0  0  0  0  0  0  0  0999 V2000
    2.6890   -1.0110    2.1970 C   0  0  0  0  0  0  0  0  0  0  0  0
    2.2980   -0.2500    0.9810 C   0  0  0  0  0  0  0  0  0  0  0  0
    1.3680    0.6210    1.0970 N   0  0  0  0  0  0  0  0  0  0  0  0
    0.8770    1.4180    0.0820 N   0  0  0  0  0  0  0  0  0  0  0  0
    1.6390    2.0870   -0.8170 C   0  0  0  0  0  0  0  0  0  0  0  0
    0.7620    2.7530   -1.6470 C   0  0  0  0  0  0  0  0  0  0  0  0
   -0.4900    2.4690   -1.2270 N   0  0  0  0  0  0  0  0  0  0  0  0
   -0.4260    1.6470   -0.1640 C   0  0  0  0  0  0  0  0  0  0  0  0
   -1.5880    1.1020    0.5910 C   0  0  2  0  0  0  0  0  0  0  0  0
   -1.3680    1.2030    2.0290 N   0  0  0  0  0  0  0  0  0  0  0  0
   -1.8700   -0.3300    0.2550 C   0  0  1  0  0  0  0  0  0  0  0  0
   -0.8010   -1.1580    0.6140 O   0  0  0  0  0  0  0  0  0  0  0  0
   -3.1110   -0.7460    1.0170 C   0  0  0  0  0  0  0  0  0  0  0  0
   -4.2210   -0.7690   -0.0170 C   0  0  0  0  0  0  0  0  0  0  0  0
   -3.5290   -1.1650   -1.2800 C   0  0  0  0  0  0  0  0  0  0  0  0
   -2.1740   -0.5350   -1.1970 C   0  0  0  0  0  0  0  0  0  0  0  0
    2.9840   -0.5170   -0.3050 C   0  0  1  0  0  0  0  0  0  0  0  0
    4.4970   -0.2950   -0.3620 C   0  0  0  0  0  0  0  0  0  0  0  0
    3.9030   -1.6520   -0.4340 C   0  0  0  0  0  0  0  0  0  0  0  0
  1  2  1  0
  2  3  2  3
 17  2  1  1
  3  4  1  0
  4  5  1  0
  4  8  1  0
  5  6  2  0
  6  7  1  0
  7  8  2  0
  8  9  1  0
  9 10  1  1
  9 11  1  0
 11 12  1  1
 11 13  1  0
 11 16  1  0
 13 14  1  0
 14 15  1  0
 15 16  1  0
 17 18  1  0
 17 19  1  0
 18 19  1  0
M  CHG  1   7   1
M  END
