
     RDKit          3D

 18 20  0  0  0  0  0  0  0  0999 V2000
    5.7510    0.7800   -0.2800 C   0  0  0  0  0  0  0  0  0  0  0  0
    4.9670    0.8480    0.9880 C   0  0  0  0  0  0  0  0  0  0  0  0
    3.5400    0.3930    0.8380 C   0  0  0  0  0  0  0  0  0  0  0  0
    2.7660    1.2110   -0.1540 C   0  0  0  0  0  0  0  0  0  0  0  0
    1.3790    0.6520   -0.2000 C   0  0  0  0  0  0  0  0  0  0  0  0
    0.3510    1.4160    0.1120 C   0  0  0  0  0  0  0  0  0  0  0  0
   -0.9640    0.7750    0.0360 C   0  0  0  0  0  0  0  0  0  0  0  0
   -2.1990    1.3000    0.2960 N   0  0  0  0  0  0  0  0  0  0  0  0
   -3.1200    0.3490    0.0950 C   0  0  0  0  0  0  0  0  0  0  0  0
   -4.5150    0.3320    0.2100 C   0  0  0  0  0  0  0  0  0  0  0  0
   -5.2220   -0.8160   -0.0670 C   0  0  0  0  0  0  0  0  0  0  0  0
   -6.6320   -0.8780    0.0350 N   0  0  0  0  0  0  0  0  0  0  0  0
   -4.5220   -1.9390   -0.4580 C   0  0  0  0  0  0  0  0  0  0  0  0
   -3.1380   -1.9440   -0.5770 C   0  0  0  0  0  0  0  0  0  0  0  0
   -2.4610   -0.7830   -0.2940 C   0  0  0  0  0  0  0  0  0  0  0  0
   -1.1160   -0.4840   -0.3210 N   0  0  0  0  0  0  0  0  0  0  0  0
   -0.0220   -1.3600   -0.6720 C   0  0  0  0  0  0  0  0  0  0  0  0
    1.2400   -0.7050   -0.5870 N   0  0  0  0  0  0  0  0  0  0  0  0
  1  2  1  0
  2  3  1  0
  3  4  1  0
  4  5  1  0
  5  6  2  0
  5 18  1  0
  6  7  1  0
  7  8  2  0
  7 16  1  0
  8  9  1  0
  9 10  2  0
  9 15  1  0
 10 11  1  0
 11 12  1  0
 11 13  2  0
 13 14  1  0
 14 15  2  0
 15 16  1  0
 16 17  1  0
 17 18  1  0
M  CHG  1   8   1
M  END
