
     RDKit          3D

 19 21  0  0  0  0  0  0  0  0999 V2000
   -2.9200    1.7340   -0.7840 C   0  0  0  0  0  0  0  0  0  0  0  0
   -1.5530    1.8040   -0.2680 C   0  0  0  0  0  0  0  0  0  0  0  0
   -1.0270    3.0750    0.0100 C   0  0  0  0  0  0  0  0  0  0  0  0
    0.2230    3.1350    0.5540 C   0  0  0  0  0  0  0  0  0  0  0  0
    0.8000    4.4030    0.8560 N   0  0  0  0  0  0  0  0  0  0  0  0
    0.9310    2.0450    0.8150 N   0  0  0  0  0  0  0  0  0  0  0  0
    0.4110    0.7930    0.5370 C   0  0  0  0  0  0  0  0  0  0  0  0
    1.2850   -0.2880    0.7800 N   0  0  0  0  0  0  0  0  0  0  0  0
    1.8220   -1.0410   -0.3340 C   0  0  0  0  0  0  0  0  0  0  0  0
    3.3380   -0.8140   -0.3110 C   0  0  0  0  0  0  0  0  0  0  0  0
    3.6600   -0.1110    0.8290 O   0  0  0  0  0  0  0  0  0  0  0  0
    3.3160   -0.8880    1.9460 C   0  0  0  0  0  0  0  0  0  0  0  0
    1.7870   -0.6730    2.0980 C   0  0  0  0  0  0  0  0  0  0  0  0
   -0.8270    0.6390   -0.0030 C   0  0  0  0  0  0  0  0  0  0  0  0
   -1.3730   -0.6780   -0.3970 C   0  0  0  0  0  0  0  0  0  0  0  0
   -1.1070   -1.8530    0.1110 C   0  0  0  0  0  0  0  0  0  0  0  0
   -1.8610   -2.9330   -0.5670 C   0  0  0  0  0  0  0  0  0  0  0  0
   -2.1480   -2.3560   -1.8340 N   0  0  0  0  0  0  0  0  0  0  0  0
   -2.2860   -0.9160   -1.5670 C   0  0  0  0  0  0  0  0  0  0  0  0
  1  2  1  0
  2  3  2  0
  2 14  1  0
  3  4  1  0
  4  5  1  0
  4  6  2  0
  6  7  1  0
  7  8  1  0
  7 14  2  0
  8  9  1  0
  8 13  1  0
  9 10  1  0
 10 11  1  0
 11 12  1  0
 12 13  1  0
 14 15  1  0
 15 16  2  0
 15 19  1  0
 16 17  1  0
 17 18  1  0
 18 19  1  0
M  CHG  1  18   1
M  END
