
     RDKit          3D

 19 21  0  0  0  0  0  0  0  0999 V2000
    5.8590    0.6620   -0.4880 C   0  0  0  0  0  0  0  0  0  0  0  0
    4.4240    0.4080   -0.2090 C   0  0  0  0  0  0  0  0  0  0  0  0
    4.0180   -0.6920    0.5200 C   0  0  0  0  0  0  0  0  0  0  0  0
    2.6860   -0.9010    0.7620 C   0  0  0  0  0  0  0  0  0  0  0  0
    2.2760   -1.9950    1.4870 C   0  0  0  0  0  0  0  0  0  0  0  0
    0.9350   -2.1960    1.7260 C   0  0  0  0  0  0  0  0  0  0  0  0
    0.0690   -1.3120    1.2400 N   0  0  0  0  0  0  0  0  0  0  0  0
    0.4200   -0.2100    0.5150 C   0  0  0  0  0  0  0  0  0  0  0  0
   -0.5890    0.6750    0.0400 N   0  0  0  0  0  0  0  0  0  0  0  0
   -1.9920    0.4050    0.3270 C   0  0  1  0  0  0  0  0  0  0  0  0
   -2.8950    1.4640   -0.2630 C   0  0  0  0  0  0  0  0  0  0  0  0
   -4.2720    1.2470    0.3270 C   0  0  0  0  0  0  0  0  0  0  0  0
   -4.6910   -0.1290    0.2560 N   0  0  0  0  0  0  0  0  0  0  0  0
   -3.8530   -0.9290   -0.6090 C   0  0  0  0  0  0  0  0  0  0  0  0
   -2.4130   -0.9180   -0.2270 C   0  0  0  0  0  0  0  0  0  0  0  0
    1.7510    0.0180    0.2600 C   0  0  0  0  0  0  0  0  0  0  0  0
    2.1920    1.0690   -0.4400 N   0  0  0  0  0  0  0  0  0  0  0  0
    3.4910    1.2900   -0.6880 C   0  0  0  0  0  0  0  0  0  0  0  0
    3.8350    2.3000   -1.3540 O   0  0  0  0  0  0  0  0  0  0  0  0
  1  2  1  0
  2  3  2  0
  2 18  1  0
  3  4  1  0
  4  5  2  0
  4 16  1  0
  5  6  1  0
  6  7  2  0
  7  8  1  0
  8  9  1  0
  8 16  2  0
 10  9  1  6
 10 11  1  0
 10 15  1  0
 11 12  1  0
 12 13  1  0
 13 14  1  0
 14 15  1  0
 16 17  1  0
 17 18  1  0
 18 19  2  0
M  CHG  1  13   1
M  END
