
     RDKit          3D

 19 20  0  0  0  0  0  0  0  0999 V2000
    3.6080   -1.9580   -0.9780 C   0  0  0  0  0  0  0  0  0  0  0  0
    3.2310   -1.1500    0.2420 C   0  0  0  0  0  0  0  0  0  0  0  0
    3.2050    0.2610   -0.0100 N   0  0  0  0  0  0  0  0  0  0  0  0
    4.4180    1.0040   -0.2860 C   0  0  0  0  0  0  0  0  0  0  0  0
    4.4520    2.2250    0.5530 C   0  0  0  0  0  0  0  0  0  0  0  0
    3.1640    2.8330    0.9450 C   0  0  0  0  0  0  0  0  0  0  0  0
    1.9370    2.1940    0.4570 C   0  0  0  0  0  0  0  0  0  0  0  0
    1.9750    0.9600    0.0030 C   0  0  0  0  0  0  0  0  0  0  0  0
    0.8220    0.2790   -0.4820 N   0  0  0  0  0  0  0  0  0  0  0  0
   -0.1230   -0.1590    0.2790 C   0  0  0  0  0  0  0  0  0  0  0  0
   -1.2380   -0.8240   -0.2570 N   0  0  0  0  0  0  0  0  0  0  0  0
   -1.4410   -0.9110   -1.6630 C   0  0  0  0  0  0  0  0  0  0  0  0
   -2.8190   -0.5410   -2.1100 C   0  0  0  0  0  0  0  0  0  0  0  0
   -3.8510   -0.4500   -1.0690 C   0  0  0  0  0  0  0  0  0  0  0  0
   -3.6280   -1.0880    0.2340 C   0  0  2  0  0  0  0  0  0  0  0  0
   -4.3720   -2.2790    0.3670 O   0  0  0  0  0  0  0  0  0  0  0  0
   -4.1410   -0.2000    1.3810 C   0  0  0  0  0  0  0  0  0  0  0  0
   -3.4960    1.0700    1.4130 N   0  0  0  0  0  0  0  0  0  0  0  0
   -2.2150   -1.4380    0.5890 C   0  0  0  0  0  0  0  0  0  0  0  0
  1  2  1  0
  2  3  1  0
  3  4  1  0
  3  8  1  0
  4  5  1  0
  5  6  1  0
  6  7  1  0
  7  8  2  0
  8  9  1  0
  9 10  2  3
 10 11  1  0
 11 12  1  0
 11 19  1  0
 12 13  1  0
 13 14  1  0
 14 15  1  0
 15 16  1  6
 15 17  1  0
 15 19  1  0
 17 18  1  0
M  CHG  1  18   1
M  END
