
     RDKit          3D

 19 21  0  0  0  0  0  0  0  0999 V2000
   -4.0310   -1.4570    0.1160 N   0  0  0  0  0  0  0  0  0  0  0  0
   -2.7190   -1.2840   -0.3910 C   0  0  0  0  0  0  0  0  0  0  0  0
   -2.0950    0.0510   -0.4050 C   0  0  1  0  0  0  0  0  0  0  0  0
   -2.8520    0.9760   -1.3270 C   0  0  0  0  0  0  0  0  0  0  0  0
   -4.1470    1.1060   -0.8740 O   0  0  0  0  0  0  0  0  0  0  0  0
   -2.2020    0.7700    0.9490 C   0  0  0  0  0  0  0  0  0  0  0  0
   -1.5170    0.0530    2.0500 C   0  0  0  0  0  0  0  0  0  0  0  0
   -0.2720   -0.6100    1.5370 C   0  0  0  0  0  0  0  0  0  0  0  0
    0.1570    0.0230    0.3510 N   0  0  0  0  0  0  0  0  0  0  0  0
    1.5660    0.1570    0.2520 C   0  0  2  0  0  0  0  0  0  0  0  0
    2.1370    1.4600   -0.1210 C   0  0  0  0  0  0  0  0  0  0  0  0
    3.5790    1.4710    0.3560 C   0  0  0  0  0  0  0  0  0  0  0  0
    4.1570    0.1000    0.5450 C   0  0  0  0  0  0  0  0  0  0  0  0
    3.6080   -0.9280   -0.3030 N   0  0  0  0  0  0  0  0  0  0  0  0
    4.0750   -1.9670   -1.0100 C   0  0  0  0  0  0  0  0  0  0  0  0
    3.0070   -2.5910   -1.6110 C   0  0  0  0  0  0  0  0  0  0  0  0
    1.8760   -1.9360   -1.2720 N   0  0  0  0  0  0  0  0  0  0  0  0
    2.2730   -0.9240   -0.4730 C   0  0  0  0  0  0  0  0  0  0  0  0
   -0.6400    0.0580   -0.7910 C   0  0  0  0  0  0  0  0  0  0  0  0
  1  2  1  0
  3  2  1  1
  3  4  1  0
  3  6  1  0
  3 19  1  0
  4  5  1  0
  6  7  1  0
  7  8  1  0
  8  9  1  0
 10  9  1  6
  9 19  1  0
 10 11  1  0
 10 18  1  0
 11 12  1  0
 12 13  1  0
 13 14  1  0
 14 15  1  0
 14 18  1  0
 15 16  2  0
 16 17  1  0
 17 18  2  0
M  CHG  1   1   1
M  END
