
     RDKit          3D

 19 20  0  0  0  0  0  0  0  0999 V2000
   -2.5820   -2.9770    0.2920 C   0  0  0  0  0  0  0  0  0  0  0  0
   -1.6870   -1.7990    0.4520 C   0  0  0  0  0  0  0  0  0  0  0  0
   -1.9840   -0.5950   -0.1000 C   0  0  0  0  0  0  0  0  0  0  0  0
   -3.2330   -0.5530   -0.8490 C   0  0  0  0  0  0  0  0  0  0  0  0
   -1.0040    0.4310    0.0980 C   0  0  0  0  0  0  0  0  0  0  0  0
   -1.0380    1.6870   -0.2820 C   0  0  0  0  0  0  0  0  0  0  0  0
   -2.1960    2.1690   -1.0050 C   0  0  0  0  0  0  0  0  0  0  0  0
   -2.2630    3.4490   -1.4120 C   0  0  0  0  0  0  0  0  0  0  0  0
   -1.1810    4.3210   -1.1200 N   0  0  0  0  0  0  0  0  0  0  0  0
   -0.0700    3.8480   -0.4220 N   0  0  0  0  0  0  0  0  0  0  0  0
    0.0540    2.6290   -0.0040 C   0  0  0  0  0  0  0  0  0  0  0  0
    1.2340    2.1900    0.7500 C   0  0  0  0  0  0  0  0  0  0  0  0
    1.4000    0.7560    0.7320 N   0  0  0  0  0  0  0  0  0  0  0  0
    2.7400    0.2830    0.6320 C   0  0  0  0  0  0  0  0  0  0  0  0
    3.6460    1.2000    0.4950 O   0  0  0  0  0  0  0  0  0  0  0  0
    3.2520   -1.0710    0.6620 C   0  0  2  0  0  0  0  0  0  0  0  0
    3.6210   -1.4350   -0.7940 C   0  0  0  0  0  0  0  0  0  0  0  0
    2.4260   -2.1200    1.1310 N   0  0  0  0  0  0  0  0  0  0  0  0
    0.2600   -0.0710    0.8030 C   0  0  0  0  0  0  0  0  0  0  0  0
  1  2  1  0
  2  3  2  3
  3  4  1  0
  3  5  1  0
  5  6  2  0
  5 19  1  0
  6  7  1  0
  6 11  1  0
  7  8  2  0
  8  9  1  0
  9 10  1  0
 10 11  2  0
 11 12  1  0
 12 13  1  0
 13 14  1  0
 13 19  1  0
 14 15  2  0
 14 16  1  0
 16 17  1  6
 16 18  1  0
M  CHG  1  18   1
M  END
