
     RDKit          3D

 18 20  0  0  0  0  0  0  0  0999 V2000
   -3.8810    0.7300    0.2380 C   0  0  0  0  0  0  0  0  0  0  0  0
   -2.5120    0.2690   -0.2670 C   0  0  2  0  0  0  0  0  0  0  0  0
   -2.5060    0.5430   -1.7670 C   0  0  0  0  0  0  0  0  0  0  0  0
   -3.5230   -0.1610   -2.3860 O   0  0  0  0  0  0  0  0  0  0  0  0
   -2.3650   -1.1950   -0.0300 C   0  0  0  0  0  0  0  0  0  0  0  0
   -1.2790   -1.5510    0.9310 C   0  0  0  0  0  0  0  0  0  0  0  0
   -0.0370   -0.7580    0.7020 C   0  0  0  0  0  0  0  0  0  0  0  0
   -0.1440    0.5300    0.4610 C   0  0  0  0  0  0  0  0  0  0  0  0
    1.0050    1.4360    0.2150 C   0  0  0  0  0  0  0  0  0  0  0  0
    2.3410    0.8040    0.2530 C   0  0  2  0  0  0  0  0  0  0  0  0
    2.9940    1.0260   -1.1190 C   0  0  0  0  0  0  0  0  0  0  0  0
    4.3100    0.4410   -1.1790 N   0  0  0  0  0  0  0  0  0  0  0  0
    2.3630   -0.6000    0.5210 N   0  0  0  0  0  0  0  0  0  0  0  0
    3.4090   -1.4010    0.6100 N   0  0  0  0  0  0  0  0  0  0  0  0
    2.9800   -2.6260    0.8710 C   0  0  0  0  0  0  0  0  0  0  0  0
    1.6470   -2.6170    0.9530 N   0  0  0  0  0  0  0  0  0  0  0  0
    1.2810   -1.3390    0.7310 C   0  0  0  0  0  0  0  0  0  0  0  0
   -1.4930    1.1220    0.4320 C   0  0  0  0  0  0  0  0  0  0  0  0
  2  1  1  1
  2  3  1  0
  2  5  1  0
  2 18  1  0
  3  4  1  0
  5  6  1  0
  6  7  1  0
  7  8  2  0
  7 17  1  0
  8  9  1  0
  8 18  1  0
  9 10  1  0
 10 11  1  6
 10 13  1  0
 11 12  1  0
 13 14  1  0
 13 17  1  0
 14 15  2  0
 15 16  1  0
 16 17  2  0
M  CHG  1  12   1
M  END
