
     RDKit          3D

 12 13  0  0  0  0  0  0  0  0999 V2000
    3.1340    0.3880    1.4860 C   0  0  0  0  0  0  0  0  0  0  0  0
    2.6610   -0.1890    0.2010 C   0  0  0  0  0  0  0  0  0  0  0  0
    3.7430   -0.9420   -0.9440 Cl  0  0  0  0  0  0  0  0  0  0  0  0
    1.3690   -0.1200   -0.0680 C   0  0  0  0  0  0  0  0  0  0  0  0
    0.3230    0.4440    0.7140 N   0  0  0  0  0  0  0  0  0  0  0  0
   -0.8010    0.3080    0.0930 C   0  0  0  0  0  0  0  0  0  0  0  0
   -2.1130    0.7900    0.6300 C   0  0  2  0  0  0  0  0  0  0  0  0
   -3.1800   -0.1890    0.8520 C   0  0  0  0  0  0  0  0  0  0  0  0
   -3.2910    0.8340   -0.2790 C   0  0  0  0  0  0  0  0  0  0  0  0
   -0.5510   -0.3480   -1.1210 N   0  0  0  0  0  0  0  0  0  0  0  0
    0.6900   -0.6250   -1.2770 C   0  0  0  0  0  0  0  0  0  0  0  0
    1.3440   -1.2820   -2.3660 N   0  0  0  0  0  0  0  0  0  0  0  0
  1  2  1  0
  2  3  1  0
  2  4  2  3
  4  5  1  0
  4 11  1  0
  5  6  2  0
  7  6  1  6
  6 10  1  0
  7  8  1  0
  7  9  1  0
  8  9  1  0
 10 11  2  0
 11 12  1  0
M  END
