
     RDKit          3D

 12 13  0  0  0  0  0  0  0  0999 V2000
    2.0650    1.3120   -0.8260 C   0  0  0  0  0  0  0  0  0  0  0  0
    1.8610   -0.0890   -0.3790 C   0  0  0  0  0  0  0  0  0  0  0  0
    2.8720   -1.0110   -0.3330 N   0  0  0  0  0  0  0  0  0  0  0  0
    2.3980   -2.1610    0.1010 N   0  0  0  0  0  0  0  0  0  0  0  0
    1.1110   -1.9900    0.3310 N   0  0  0  0  0  0  0  0  0  0  0  0
    0.7260   -0.7130    0.0470 C   0  0  0  0  0  0  0  0  0  0  0  0
   -0.6220   -0.1550    0.1780 C   0  0  0  0  0  0  0  0  0  0  0  0
   -1.0450    1.0480   -0.0780 C   0  0  0  0  0  0  0  0  0  0  0  0
   -2.4930    1.1210    0.2160 C   0  0  0  0  0  0  0  0  0  0  0  0
   -2.8150   -0.2380    0.6790 C   0  0  0  0  0  0  0  0  0  0  0  0
   -1.7390   -0.9610    0.6540 C   0  0  0  0  0  0  0  0  0  0  0  0
   -1.7070   -2.6610    1.1390 Cl  0  0  0  0  0  0  0  0  0  0  0  0
  1  2  1  0
  2  3  2  0
  2  6  1  0
  3  4  1  0
  4  5  1  0
  5  6  2  0
  6  7  1  0
  7  8  2  0
  7 11  1  0
  8  9  1  0
  9 10  1  0
 10 11  2  0
 11 12  1  0
M  END
