
     RDKit          3D

 12 13  0  0  0  0  0  0  0  0999 V2000
   -3.3180   -0.1900    0.6980 C   0  0  0  0  0  0  0  0  0  0  0  0
   -2.4040   -0.5270   -0.5120 C   0  0  2  0  0  0  0  0  0  0  0  0
   -2.1620   -2.2130   -0.5810 Cl  0  0  0  0  0  0  0  0  0  0  0  0
   -1.2460    0.3530   -0.3320 C   0  0  0  0  0  0  0  0  0  0  0  0
   -1.3320    1.6520    0.0150 N   0  0  0  0  0  0  0  0  0  0  0  0
   -0.1130    2.1630    0.1030 N   0  0  0  0  0  0  0  0  0  0  0  0
    0.7670    1.2230   -0.1710 C   0  0  0  0  0  0  0  0  0  0  0  0
    0.0710    0.0410   -0.4740 C   0  0  0  0  0  0  0  0  0  0  0  0
    0.7210   -1.1350   -0.8890 N   0  0  0  0  0  0  0  0  0  0  0  0
    2.0730   -1.3910   -0.4200 C   0  0  0  0  0  0  0  0  0  0  0  0
    2.4320   -0.3440    0.6040 C   0  0  0  0  0  0  0  0  0  0  0  0
    2.2610    1.0740    0.0110 C   0  0  0  0  0  0  0  0  0  0  0  0
  2  1  1  1
  2  3  1  0
  2  4  1  0
  4  5  2  0
  4  8  1  0
  5  6  1  0
  6  7  1  0
  7  8  2  0
  7 12  1  0
  8  9  1  0
  9 10  1  0
 10 11  1  0
 11 12  1  0
M  END
