
     RDKit          3D

 12 12  0  0  0  0  0  0  0  0999 V2000
   -1.7260   -0.7090   -1.0380 C   0  0  0  0  0  0  0  0  0  0  0  0
   -1.5440    0.2580    0.1230 C   0  0  2  0  0  0  0  0  0  0  0  0
   -1.7190   -0.4160    1.4580 C   0  0  0  0  0  0  0  0  0  0  0  0
   -2.6120    1.3160   -0.0140 C   0  0  0  0  0  0  0  0  0  0  0  0
   -0.2570    0.8770   -0.0260 N   0  0  0  0  0  0  0  0  0  0  0  0
    0.9630    0.1680   -0.0520 C   0  0  0  0  0  0  0  0  0  0  0  0
    2.0890    0.8040   -0.2930 C   0  0  0  0  0  0  0  0  0  0  0  0
    2.0550    2.5580   -0.5830 Cl  0  0  0  0  0  0  0  0  0  0  0  0
    3.4210    0.1700   -0.3450 C   0  0  0  0  0  0  0  0  0  0  0  0
    3.3650   -1.2530   -0.1000 N   0  0  0  0  0  0  0  0  0  0  0  0
    2.1350   -1.8590    0.1480 N   0  0  0  0  0  0  0  0  0  0  0  0
    1.0010   -1.2590    0.1820 C   0  0  0  0  0  0  0  0  0  0  0  0
  2  1  1  6
  2  3  1  0
  2  4  1  0
  2  5  1  0
  5  6  1  0
  6  7  2  0
  6 12  1  0
  7  8  1  0
  7  9  1  0
  9 10  1  0
 10 11  1  0
 11 12  2  0
M  END
