
     RDKit          3D

 12 13  0  0  0  0  0  0  0  0999 V2000
   -1.6670    1.9310   -0.6270 C   0  0  0  0  0  0  0  0  0  0  0  0
   -1.3650    0.7170    0.2190 C   0  0  1  0  0  0  0  0  0  0  0  0
   -2.1630   -0.3820   -0.3120 N   0  0  0  0  0  0  0  0  0  0  0  0
   -2.0390   -1.4690    0.6130 C   0  0  0  0  0  0  0  0  0  0  0  0
   -0.6610   -2.0310    0.6850 C   0  0  0  0  0  0  0  0  0  0  0  0
    0.3660   -1.0170    0.3270 C   0  0  0  0  0  0  0  0  0  0  0  0
    1.7100   -1.1100    0.1510 N   0  0  0  0  0  0  0  0  0  0  0  0
    2.2290    0.0880   -0.1710 C   0  0  0  0  0  0  0  0  0  0  0  0
    3.6780    0.3620   -0.4370 C   0  0  0  0  0  0  0  0  0  0  0  0
    4.4450    0.8000    1.1030 Cl  0  0  0  0  0  0  0  0  0  0  0  0
    1.2060    0.9490   -0.2010 N   0  0  0  0  0  0  0  0  0  0  0  0
    0.0520    0.2980    0.1010 C   0  0  0  0  0  0  0  0  0  0  0  0
  2  1  1  6
  2  3  1  0
  2 12  1  0
  3  4  1  0
  4  5  1  0
  5  6  1  0
  6  7  1  0
  6 12  2  0
  7  8  2  0
  8  9  1  0
  8 11  1  0
  9 10  1  0
 11 12  1  0
M  END
