
     RDKit          3D

 12 12  0  0  0  0  0  0  0  0999 V2000
    3.4690   -1.2890   -0.2470 C   0  0  0  0  0  0  0  0  0  0  0  0
    2.1480   -1.0000   -0.0850 C   0  0  0  0  0  0  0  0  0  0  0  0
    1.1370   -2.3780    0.1130 Cl  0  0  0  0  0  0  0  0  0  0  0  0
    1.7790    0.3650    0.0110 C   0  0  0  0  0  0  0  0  0  0  0  0
    2.9700    1.2850   -0.0260 N   0  0  0  0  0  0  0  0  0  0  0  0
    0.6830    0.9830    0.1220 C   0  0  0  0  0  0  0  0  0  0  0  0
   -0.7190    0.7730    0.1960 C   0  0  0  0  0  0  0  0  0  0  0  0
   -1.5860    1.7730    0.4950 N   0  0  0  0  0  0  0  0  0  0  0  0
   -2.9330    1.2560    0.5060 C   0  0  0  0  0  0  0  0  0  0  0  0
   -2.6330   -0.2440    0.8150 C   0  0  0  0  0  0  0  0  0  0  0  0
   -1.5310   -0.3150   -0.1800 N   0  0  0  0  0  0  0  0  0  0  0  0
   -1.4450   -1.2080   -1.2990 C   0  0  0  0  0  0  0  0  0  0  0  0
  1  2  2  0
  2  3  1  0
  2  4  1  0
  4  5  1  0
  4  6  2  3
  6  7  1  0
  7  8  2  0
  7 11  1  0
  8  9  1  0
  9 10  1  0
 10 11  1  0
 11 12  1  0
M  END
