
     RDKit          3D

 25 26  0  0  0  0  0  0  0  0999 V2000
    0.0390    2.8360    1.7030 C   0  0  0  0  0  0  0  0  0  0  0  0
   -1.0220    2.0380    1.0690 C   0  0  0  0  0  0  0  0  0  0  0  0
   -2.0370    2.6000    0.5860 O   0  0  0  0  0  0  0  0  0  0  0  0
   -0.9800    0.6060    0.9590 N   0  0  0  0  0  0  0  0  0  0  0  0
   -2.0640   -0.1120    0.3220 C   0  0  1  0  0  0  0  0  0  0  0  0
   -1.5200   -0.8720   -0.8110 C   0  0  0  0  0  0  0  0  0  0  0  0
   -0.4040   -0.6290   -1.4060 N   0  0  0  0  0  0  0  0  0  0  0  0
    0.4010    0.4010   -1.0150 O   0  0  0  0  0  0  0  0  0  0  0  0
    1.7820    0.2560   -0.8620 C   0  0  0  0  0  0  0  0  0  0  0  0
    2.2720   -0.8510   -1.0930 O   0  0  0  0  0  0  0  0  0  0  0  0
    2.5850    1.3280   -0.4610 N   0  0  0  0  0  0  0  0  0  0  0  0
    3.9820    1.3310   -0.2650 C   0  0  0  0  0  0  0  0  0  0  0  0
    4.8250    0.2680   -0.4320 C   0  0  0  0  0  0  0  0  0  0  0  0
    6.2040    0.3400   -0.2210 C   0  0  0  0  0  0  0  0  0  0  0  0
    6.7630    1.5280    0.1740 C   0  0  0  0  0  0  0  0  0  0  0  0
    5.9540    2.6240    0.3540 C   0  0  0  0  0  0  0  0  0  0  0  0
    4.6020    2.5200    0.1380 C   0  0  0  0  0  0  0  0  0  0  0  0
   -2.3010   -1.9460   -1.2620 O   0  0  0  0  0  0  0  0  0  0  0  0
   -3.0340   -2.7720   -0.3780 C   0  0  2  0  0  0  0  0  0  0  0  0
   -4.0850   -3.4830   -1.2000 C   0  0  0  0  0  0  0  0  0  0  0  0
   -4.9250   -2.5180   -1.8010 O   0  0  0  0  0  0  0  0  0  0  0  0
   -3.6830   -1.9790    0.7340 C   0  0  2  0  0  0  0  0  0  0  0  0
   -4.8210   -1.3010    0.2790 O   0  0  0  0  0  0  0  0  0  0  0  0
   -2.7440   -0.9980    1.3430 C   0  0  2  0  0  0  0  0  0  0  0  0
   -3.4580   -0.1620    2.2030 O   0  0  0  0  0  0  0  0  0  0  0  0
  1  2  1  0
  2  3  2  0
  2  4  1  0
  5  4  1  1
  5  6  1  0
  5 24  1  0
  6  7  2  3
  6 18  1  0
  7  8  1  0
  8  9  1  0
  9 10  2  0
  9 11  1  0
 11 12  1  0
 12 13  2  0
 12 17  1  0
 13 14  1  0
 14 15  2  0
 15 16  1  0
 16 17  2  0
 18 19  1  0
 19 20  1  6
 19 22  1  0
 20 21  1  0
 22 23  1  6
 22 24  1  0
 24 25  1  1
M  END
