
     RDKit          3D

 25 26  0  0  0  0  0  0  0  0999 V2000
    5.9480    1.1700    0.0650 C   0  0  0  0  0  0  0  0  0  0  0  0
    5.5250   -0.2550   -0.1540 C   0  0  0  0  0  0  0  0  0  0  0  0
    4.3700   -0.6460    0.7450 C   0  0  2  0  0  0  0  0  0  0  0  0
    3.9840   -1.9450    0.5470 O   0  0  0  0  0  0  0  0  0  0  0  0
    3.2330    0.2800    0.6280 C   0  0  0  0  0  0  0  0  0  0  0  0
    3.3020    1.5190    0.7620 O   0  0  0  0  0  0  0  0  0  0  0  0
    1.8830   -0.2430    0.3280 N   0  0  0  0  0  0  0  0  0  0  0  0
    0.8290    0.6590    0.2240 C   0  0  0  0  0  0  0  0  0  0  0  0
   -0.5440    0.2910   -0.0620 C   0  0  0  0  0  0  0  0  0  0  0  0
   -1.0330   -0.9000   -0.2600 C   0  0  0  0  0  0  0  0  0  0  0  0
   -0.2370   -2.1650   -0.2300 C   0  0  0  0  0  0  0  0  0  0  0  0
   -2.4930   -1.1540   -0.5530 C   0  0  2  0  0  0  0  0  0  0  0  0
   -3.3220    0.0270   -0.5960 C   0  0  0  0  0  0  0  0  0  0  0  0
   -2.8000    1.2250   -0.3910 C   0  0  0  0  0  0  0  0  0  0  0  0
   -3.7320    2.3600   -0.4580 C   0  0  0  0  0  0  0  0  0  0  0  0
   -4.9500    2.1940   -0.6970 O   0  0  0  0  0  0  0  0  0  0  0  0
   -3.2580    3.6280   -0.2540 O   0  0  0  0  0  0  0  0  0  0  0  0
   -4.0720    4.7930   -0.2970 C   0  0  0  0  0  0  0  0  0  0  0  0
   -1.4760    1.3750   -0.1340 O   0  0  0  0  0  0  0  0  0  0  0  0
   -3.0030   -2.0280    0.5140 N   0  0  0  0  0  0  0  0  0  0  0  0
   -3.7570   -3.0730   -0.0640 C   0  0  0  0  0  0  0  0  0  0  0  0
   -4.5230   -3.8990    0.5050 O   0  0  0  0  0  0  0  0  0  0  0  0
   -3.5120   -3.0570   -1.4610 N   0  0  0  0  0  0  0  0  0  0  0  0
   -2.6100   -2.0110   -1.7640 C   0  0  0  0  0  0  0  0  0  0  0  0
   -1.9830   -1.7730   -2.8250 O   0  0  0  0  0  0  0  0  0  0  0  0
  1  2  1  0
  2  3  1  0
  3  4  1  6
  3  5  1  0
  5  6  2  0
  5  7  1  0
  7  8  1  0
  8  9  1  0
  9 10  2  0
  9 19  1  0
 10 11  1  0
 10 12  1  0
 12 13  1  0
 12 20  1  1
 12 24  1  0
 13 14  2  0
 14 15  1  0
 14 19  1  0
 15 16  2  0
 15 17  1  0
 17 18  1  0
 20 21  1  0
 21 22  2  0
 21 23  1  0
 23 24  1  0
 24 25  2  0
M  END
