
     RDKit          3D

 25 26  0  0  0  0  0  0  0  0999 V2000
    7.5380   -2.3350   -1.1190 C   0  0  0  0  0  0  0  0  0  0  0  0
    6.4620   -1.4410   -0.8330 O   0  0  0  0  0  0  0  0  0  0  0  0
    6.7240   -0.3180   -0.0440 C   0  0  0  0  0  0  0  0  0  0  0  0
    7.8760   -0.1130    0.3930 O   0  0  0  0  0  0  0  0  0  0  0  0
    5.6260    0.5940    0.2490 C   0  0  0  0  0  0  0  0  0  0  0  0
    4.4070    0.3940   -0.2040 C   0  0  0  0  0  0  0  0  0  0  0  0
    4.1320   -0.6950   -0.9730 O   0  0  0  0  0  0  0  0  0  0  0  0
    3.3390    1.3500    0.1250 C   0  0  0  0  0  0  0  0  0  0  0  0
    2.1180    1.1550   -0.3240 C   0  0  0  0  0  0  0  0  0  0  0  0
    0.9470    2.0270   -0.0760 C   0  0  1  0  0  0  0  0  0  0  0  0
   -0.0940    1.1790    0.4510 N   0  0  0  0  0  0  0  0  0  0  0  0
   -1.3070    0.8980   -0.2180 C   0  0  0  0  0  0  0  0  0  0  0  0
   -1.4490    1.4510   -1.3600 O   0  0  0  0  0  0  0  0  0  0  0  0
   -2.3040    0.0600    0.3340 N   0  0  0  0  0  0  0  0  0  0  0  0
   -3.5330   -0.2090   -0.3740 C   0  0  1  0  0  0  0  0  0  0  0  0
   -3.6870   -1.6630   -0.6860 C   0  0  0  0  0  0  0  0  0  0  0  0
   -4.5820   -2.4200    0.2100 C   0  0  0  0  0  0  0  0  0  0  0  0
   -5.6260   -1.7380    0.7530 O   0  0  0  0  0  0  0  0  0  0  0  0
   -5.8880   -0.5060    0.1750 C   0  0  2  0  0  0  0  0  0  0  0  0
   -6.2480   -0.5820   -1.2730 C   0  0  0  0  0  0  0  0  0  0  0  0
   -4.6780    0.3640    0.4180 C   0  0  0  0  0  0  0  0  0  0  0  0
    1.2770    3.1400    0.7240 N   0  0  0  0  0  0  0  0  0  0  0  0
    2.5970    3.3330    1.1970 C   0  0  0  0  0  0  0  0  0  0  0  0
    2.8900    4.3440    1.9220 O   0  0  0  0  0  0  0  0  0  0  0  0
    3.6400    2.4710    0.9220 O   0  0  0  0  0  0  0  0  0  0  0  0
  1  2  1  0
  2  3  1  0
  3  4  2  0
  3  5  1  0
  5  6  2  3
  6  7  1  0
  6  8  1  0
  8  9  2  0
  8 25  1  0
  9 10  1  0
 10 11  1  1
 10 22  1  0
 11 12  1  0
 12 13  2  0
 12 14  1  0
 15 14  1  1
 15 16  1  0
 15 21  1  0
 16 17  1  0
 17 18  1  0
 18 19  1  0
 19 20  1  6
 19 21  1  0
 22 23  1  0
 23 24  2  0
 23 25  1  0
M  END
