
     RDKit          3D

 25 26  0  0  0  0  0  0  0  0999 V2000
   -1.3030    4.5690   -0.5010 C   0  0  0  0  0  0  0  0  0  0  0  0
   -0.4180    3.8760    0.1920 C   0  0  0  0  0  0  0  0  0  0  0  0
    0.2770    2.7300   -0.3780 C   0  0  0  0  0  0  0  0  0  0  0  0
   -0.0390    1.4050    0.2750 C   0  0  0  0  0  0  0  0  0  0  0  0
   -1.0490    1.3660    1.1290 C   0  0  0  0  0  0  0  0  0  0  0  0
   -1.7700    2.5920    1.3740 O   0  0  0  0  0  0  0  0  0  0  0  0
   -1.5690    0.2540    1.8880 C   0  0  0  0  0  0  0  0  0  0  0  0
   -1.3660    0.3430    3.1800 O   0  0  0  0  0  0  0  0  0  0  0  0
   -2.2370   -0.8760    1.4920 O   0  0  0  0  0  0  0  0  0  0  0  0
   -3.4410   -1.0170    0.8120 C   0  0  0  0  0  0  0  0  0  0  0  0
   -3.6720   -2.3000    0.1060 C   0  0  0  0  0  0  0  0  0  0  0  0
   -2.7760   -2.5330   -0.8920 O   0  0  0  0  0  0  0  0  0  0  0  0
   -2.8630   -1.5240   -1.8420 C   0  0  0  0  0  0  0  0  0  0  0  0
   -1.6000   -0.6830   -1.7610 C   0  0  0  0  0  0  0  0  0  0  0  0
   -0.6360   -1.2820   -0.9640 O   0  0  0  0  0  0  0  0  0  0  0  0
    0.6180   -0.8500   -0.5960 C   0  0  0  0  0  0  0  0  0  0  0  0
    0.9030    0.3090   -0.0600 C   0  0  0  0  0  0  0  0  0  0  0  0
    2.3960    0.3450    0.1240 C   0  0  0  0  0  0  0  0  0  0  0  0
    3.1320    1.3620    0.1510 O   0  0  0  0  0  0  0  0  0  0  0  0
    2.7820   -1.0830    0.2610 C   0  0  2  0  0  0  0  0  0  0  0  0
    4.1420   -1.3460   -0.0560 N   0  0  0  0  0  0  0  0  0  0  0  0
    4.9450   -2.0680    0.8710 C   0  0  0  0  0  0  0  0  0  0  0  0
    6.2960   -2.3480    0.5910 N   0  0  0  0  0  0  0  0  0  0  0  0
    4.4700   -2.4800    1.9700 O   0  0  0  0  0  0  0  0  0  0  0  0
    1.8450   -1.6080   -0.7340 N   0  0  0  0  0  0  0  0  0  0  0  0
  1  2  2  0
  2  3  1  0
  3  4  1  0
  4  5  2  0
  4 17  1  0
  5  6  1  0
  5  7  1  0
  7  8  2  0
  7  9  1  0
  9 10  1  0
 10 11  1  0
 11 12  1  0
 12 13  1  0
 13 14  1  0
 14 15  1  0
 15 16  1  0
 16 17  2  0
 16 25  1  0
 17 18  1  0
 18 19  2  0
 18 20  1  0
 20 21  1  6
 20 25  1  0
 21 22  1  0
 22 23  1  0
 22 24  2  0
M  END
