
     RDKit          3D

 25 26  0  0  0  0  0  0  0  0999 V2000
    6.2340    1.5470    1.8530 C   0  0  0  0  0  0  0  0  0  0  0  0
    5.8800    2.1400    0.5020 C   0  0  0  0  0  0  0  0  0  0  0  0
    5.2360    1.1980   -0.3380 O   0  0  0  0  0  0  0  0  0  0  0  0
    4.0560    0.5750   -0.0410 C   0  0  0  0  0  0  0  0  0  0  0  0
    3.4840    0.8400    1.0460 O   0  0  0  0  0  0  0  0  0  0  0  0
    3.4080   -0.4090   -0.9470 C   0  0  1  0  0  0  0  0  0  0  0  0
    4.3560   -1.5760   -1.0900 C   0  0  0  0  0  0  0  0  0  0  0  0
    3.4020   -2.7320   -1.2420 C   0  0  0  0  0  0  0  0  0  0  0  0
    2.0870   -2.2010   -0.7200 C   0  0  2  0  0  0  0  0  0  0  0  0
    1.0450   -2.4360   -1.7460 C   0  0  0  0  0  0  0  0  0  0  0  0
   -0.2900   -2.0120   -1.4220 N   0  0  0  0  0  0  0  0  0  0  0  0
   -0.7190   -0.6940   -1.1560 C   0  0  0  0  0  0  0  0  0  0  0  0
    0.1100    0.2390   -1.2050 O   0  0  0  0  0  0  0  0  0  0  0  0
   -2.0810   -0.4170   -0.8320 N   0  0  0  0  0  0  0  0  0  0  0  0
   -2.5000    0.9450   -0.5620 C   0  0  0  0  0  0  0  0  0  0  0  0
   -3.9510    0.9700   -0.2540 C   0  0  0  0  0  0  0  0  0  0  0  0
   -4.8340    1.6540   -0.9640 C   0  0  0  0  0  0  0  0  0  0  0  0
   -6.2760    1.6760   -0.6550 C   0  0  2  0  0  0  0  0  0  0  0  0
   -6.6750    3.0580   -0.4410 N   0  0  0  0  0  0  0  0  0  0  0  0
   -6.6500    0.9190    0.4490 O   0  0  0  0  0  0  0  0  0  0  0  0
   -5.7610    0.1990    1.2050 C   0  0  0  0  0  0  0  0  0  0  0  0
   -6.1900   -0.5530    2.3150 O   0  0  0  0  0  0  0  0  0  0  0  0
   -4.4770    0.2170    0.8790 C   0  0  0  0  0  0  0  0  0  0  0  0
   -3.6220   -0.5440    1.6990 O   0  0  0  0  0  0  0  0  0  0  0  0
    2.2390   -0.8890   -0.4240 O   0  0  0  0  0  0  0  0  0  0  0  0
  1  2  1  0
  2  3  1  0
  3  4  1  0
  4  5  2  0
  6  4  1  1
  6  7  1  0
  6 25  1  0
  7  8  1  0
  8  9  1  0
  9 10  1  6
  9 25  1  0
 10 11  1  0
 11 12  1  0
 12 13  2  0
 12 14  1  0
 14 15  1  0
 15 16  1  0
 16 17  2  0
 16 23  1  0
 17 18  1  0
 18 19  1  1
 18 20  1  0
 20 21  1  0
 21 22  1  0
 21 23  2  0
 23 24  1  0
M  END
