
     RDKit          3D

 19 21  0  0  0  0  0  0  0  0999 V2000
   -2.8380   -1.1520    1.3110 C   0  0  0  0  0  0  0  0  0  0  0  0
   -2.3050   -1.5030   -0.0610 C   0  0  1  0  0  0  0  0  0  0  0  0
   -3.1160   -2.6280   -0.6410 C   0  0  0  0  0  0  0  0  0  0  0  0
   -2.3750   -0.2720   -0.9400 C   0  0  0  0  0  0  0  0  0  0  0  0
   -1.5600    0.8100   -0.3560 C   0  0  0  0  0  0  0  0  0  0  0  0
   -2.0190    1.9150    0.3220 N   0  0  0  0  0  0  0  0  0  0  0  0
   -0.9600    2.6930    0.7140 C   0  0  0  0  0  0  0  0  0  0  0  0
    0.1230    2.0200    0.2520 C   0  0  0  0  0  0  0  0  0  0  0  0
    1.3290    2.5810    0.5070 C   0  0  0  0  0  0  0  0  0  0  0  0
    2.3780    1.8640    0.0200 N   0  0  0  0  0  0  0  0  0  0  0  0
    2.1540    0.6860   -0.6590 C   0  0  0  0  0  0  0  0  0  0  0  0
    3.3460   -0.0490   -1.1710 C   0  0  0  0  0  0  0  0  0  0  0  0
    3.9100   -1.0290   -0.1930 C   0  0  0  0  0  0  0  0  0  0  0  0
    3.0140   -2.0640    0.2200 N   0  0  0  0  0  0  0  0  0  0  0  0
    0.9010    0.1550   -0.8940 C   0  0  0  0  0  0  0  0  0  0  0  0
   -0.1790    0.8800   -0.4000 C   0  0  0  0  0  0  0  0  0  0  0  0
    1.0460    3.7760    1.2260 N   0  0  0  0  0  0  0  0  0  0  0  0
   -0.4000    3.8770    1.3750 C   0  0  0  0  0  0  0  0  0  0  0  0
   -1.0810    4.7520    1.9310 O   0  0  0  0  0  0  0  0  0  0  0  0
  2  1  1  1
  2  3  1  0
  2  4  1  0
  4  5  1  0
  5  6  1  0
  5 16  2  0
  6  7  1  0
  7  8  2  0
  7 18  1  0
  8  9  1  0
  8 16  1  0
  9 10  2  0
  9 17  1  0
 10 11  1  0
 11 12  1  0
 11 15  2  0
 12 13  1  0
 13 14  1  0
 15 16  1  0
 17 18  1  0
 18 19  2  0
M  CHG  1  14   1
M  END
