
     RDKit          3D

 26 28  0  0  0  0  0  0  0  0999 V2000
   -1.3110   -1.8210    1.3910 C   0  0  0  0  0  0  0  0  0  0  0  0
   -1.5990   -0.9720    0.2500 N   0  0  0  0  0  0  0  0  0  0  0  0
   -1.0590    0.3150    0.0460 C   0  0  0  0  0  0  0  0  0  0  0  0
   -1.8570    1.3400   -0.0840 C   0  0  0  0  0  0  0  0  0  0  0  0
   -3.3150    1.2290   -0.0290 C   0  0  0  0  0  0  0  0  0  0  0  0
   -4.0910    1.8720   -1.0010 C   0  0  0  0  0  0  0  0  0  0  0  0
   -5.4670    1.8050   -0.9940 C   0  0  0  0  0  0  0  0  0  0  0  0
   -6.1420    1.1010   -0.0250 C   0  0  0  0  0  0  0  0  0  0  0  0
   -7.6330    1.0100   -0.0050 C   0  0  0  0  0  0  0  0  0  0  0  0
   -5.3900    0.4670    0.9350 C   0  0  0  0  0  0  0  0  0  0  0  0
   -3.9880    0.5280    0.9370 C   0  0  0  0  0  0  0  0  0  0  0  0
    0.4080    0.5610   -0.0720 C   0  0  0  0  0  0  0  0  0  0  0  0
    0.8430    1.7060   -0.2390 O   0  0  0  0  0  0  0  0  0  0  0  0
    1.3030   -0.5320    0.0050 N   0  0  0  0  0  0  0  0  0  0  0  0
    2.6960   -0.5100   -0.0800 C   0  0  0  0  0  0  0  0  0  0  0  0
    3.4060    0.6020   -0.1180 C   0  0  0  0  0  0  0  0  0  0  0  0
    4.8710    0.8060   -0.2080 C   0  0  0  0  0  0  0  0  0  0  0  0
    5.2500    2.1010   -0.3610 O   0  0  0  0  0  0  0  0  0  0  0  0
    6.5040    2.6510   -0.0920 C   0  0  0  0  0  0  0  0  0  0  0  0
    5.7870   -0.1280   -0.1540 C   0  0  0  0  0  0  0  0  0  0  0  0
    5.6700   -1.5180   -0.0040 O   0  0  0  0  0  0  0  0  0  0  0  0
    4.4970   -2.2660   -0.1110 C   0  0  0  0  0  0  0  0  0  0  0  0
    3.2450   -1.8940   -0.1470 C   0  0  0  0  0  0  0  0  0  0  0  0
    2.4640   -3.0570   -0.2650 O   0  0  0  0  0  0  0  0  0  0  0  0
    3.3080   -4.0940   -0.7880 C   0  0  0  0  0  0  0  0  0  0  0  0
    4.5450   -3.6740   -0.2050 O   0  0  0  0  0  0  0  0  0  0  0  0
  1  2  1  0
  2  3  1  0
  3  4  2  3
  3 12  1  0
  4  5  1  0
  5  6  2  0
  5 11  1  0
  6  7  1  0
  7  8  2  0
  8  9  1  0
  8 10  1  0
 10 11  2  0
 12 13  2  0
 12 14  1  0
 14 15  1  0
 15 16  2  0
 15 23  1  0
 16 17  1  0
 17 18  1  0
 17 20  2  0
 18 19  1  0
 20 21  1  0
 21 22  1  0
 22 23  2  0
 22 26  1  0
 23 24  1  0
 24 25  1  0
 25 26  1  0
M  END
