
     RDKit          3D

 27 29  0  0  0  0  0  0  0  0999 V2000
    5.9320   -1.4180    1.0110 C   0  0  0  0  0  0  0  0  0  0  0  0
    4.5750   -1.0710    1.5430 C   0  0  0  0  0  0  0  0  0  0  0  0
    3.5480   -1.0690    0.5530 N   0  0  0  0  0  0  0  0  0  0  0  0
    3.6000   -0.1840   -0.5370 C   0  0  0  0  0  0  0  0  0  0  0  0
    4.6190    0.6000   -0.5340 O   0  0  0  0  0  0  0  0  0  0  0  0
    2.6590   -0.0540   -1.6430 C   0  0  0  0  0  0  0  0  0  0  0  0
    1.3620    0.4840   -1.3150 N   0  0  0  0  0  0  0  0  0  0  0  0
    1.2410    1.8370   -1.3520 C   0  0  0  0  0  0  0  0  0  0  0  0
    2.2180    2.5770   -1.6350 O   0  0  0  0  0  0  0  0  0  0  0  0
    0.0030    2.3500   -1.0660 C   0  0  0  0  0  0  0  0  0  0  0  0
   -0.1280    3.7350   -1.1610 C   0  0  0  0  0  0  0  0  0  0  0  0
   -1.3520    4.3210   -0.9410 C   0  0  0  0  0  0  0  0  0  0  0  0
   -2.4440    3.5620   -0.6310 C   0  0  0  0  0  0  0  0  0  0  0  0
   -2.3270    2.1650   -0.5310 C   0  0  0  0  0  0  0  0  0  0  0  0
   -1.1150    1.5920   -0.7430 C   0  0  0  0  0  0  0  0  0  0  0  0
   -0.9630    0.2230   -0.7050 C   0  0  0  0  0  0  0  0  0  0  0  0
   -1.9980   -0.6130   -0.4140 C   0  0  0  0  0  0  0  0  0  0  0  0
   -3.2680   -0.2170   -0.0620 O   0  0  0  0  0  0  0  0  0  0  0  0
   -3.6610   -0.1300    1.3260 C   0  0  0  0  0  0  0  0  0  0  0  0
   -5.1170    0.3210    1.3400 C   0  0  0  0  0  0  0  0  0  0  0  0
   -1.7540   -1.9940   -0.4470 C   0  0  0  0  0  0  0  0  0  0  0  0
   -2.8490   -2.9020   -0.2620 C   0  0  0  0  0  0  0  0  0  0  0  0
   -4.0430   -2.5590   -0.1260 O   0  0  0  0  0  0  0  0  0  0  0  0
   -2.6250   -4.2840   -0.2260 O   0  0  0  0  0  0  0  0  0  0  0  0
   -0.5270   -2.4990   -0.7460 C   0  0  0  0  0  0  0  0  0  0  0  0
    0.5030   -1.6620   -1.0220 C   0  0  0  0  0  0  0  0  0  0  0  0
    0.3230   -0.2920   -1.0100 C   0  0  0  0  0  0  0  0  0  0  0  0
  1  2  1  0
  2  3  1  0
  3  4  1  0
  4  5  2  0
  4  6  1  0
  6  7  1  0
  7  8  1  0
  7 27  1  0
  8  9  2  0
  8 10  1  0
 10 11  2  0
 10 15  1  0
 11 12  1  0
 12 13  2  0
 13 14  1  0
 14 15  2  0
 15 16  1  0
 16 17  2  0
 16 27  1  0
 17 18  1  0
 17 21  1  0
 18 19  1  0
 19 20  1  0
 21 22  1  0
 21 25  2  0
 22 23  2  0
 22 24  1  0
 25 26  1  0
 26 27  2  0
M  END
