
     RDKit          3D

 27 29  0  0  0  0  0  0  0  0999 V2000
    7.4180    1.4360    1.1340 C   0  0  0  0  0  0  0  0  0  0  0  0
    6.9840    1.7790   -0.2550 C   0  0  0  0  0  0  0  0  0  0  0  0
    5.8790    1.0070   -0.6930 O   0  0  0  0  0  0  0  0  0  0  0  0
    4.6610    0.9940   -0.0760 C   0  0  0  0  0  0  0  0  0  0  0  0
    4.5020    1.7060    0.9440 O   0  0  0  0  0  0  0  0  0  0  0  0
    3.5350    0.1780   -0.5600 C   0  0  0  0  0  0  0  0  0  0  0  0
    2.3240    0.2030    0.1050 C   0  0  0  0  0  0  0  0  0  0  0  0
    1.2270   -0.5350   -0.2920 C   0  0  0  0  0  0  0  0  0  0  0  0
    0.0330   -0.4740    0.4120 C   0  0  0  0  0  0  0  0  0  0  0  0
   -1.0490   -1.2330   -0.0200 C   0  0  0  0  0  0  0  0  0  0  0  0
   -2.2970   -1.1570    0.7300 C   0  0  0  0  0  0  0  0  0  0  0  0
   -3.3650   -0.3330    0.0740 C   0  0  0  0  0  0  0  0  0  0  0  0
   -4.5340   -0.3520    0.9320 N   0  0  0  0  0  0  0  0  0  0  0  0
   -5.6700    0.3990    0.4500 C   0  0  0  0  0  0  0  0  0  0  0  0
   -5.5890    1.0190   -0.6660 O   0  0  0  0  0  0  0  0  0  0  0  0
   -6.9050    0.4690    1.1990 C   0  0  0  0  0  0  0  0  0  0  0  0
   -8.0340    1.1510    0.8290 C   0  0  0  0  0  0  0  0  0  0  0  0
   -8.9820    0.9570    1.8300 C   0  0  0  0  0  0  0  0  0  0  0  0
   -8.3530    0.1530    2.7590 C   0  0  0  0  0  0  0  0  0  0  0  0
   -7.1210   -0.1130    2.3460 O   0  0  0  0  0  0  0  0  0  0  0  0
   -0.8390   -2.0000   -1.1380 C   0  0  0  0  0  0  0  0  0  0  0  0
   -1.7950   -2.6960   -1.5550 O   0  0  0  0  0  0  0  0  0  0  0  0
    0.3210   -2.0530   -1.8140 N   0  0  0  0  0  0  0  0  0  0  0  0
    1.3900   -1.3260   -1.4180 C   0  0  0  0  0  0  0  0  0  0  0  0
    2.5890   -1.3740   -2.1070 C   0  0  0  0  0  0  0  0  0  0  0  0
    3.6420   -0.6150   -1.6580 C   0  0  0  0  0  0  0  0  0  0  0  0
    4.9240   -0.6750   -2.4090 C   0  0  0  0  0  0  0  0  0  0  0  0
  1  2  1  0
  2  3  1  0
  3  4  1  0
  4  5  2  0
  4  6  1  0
  6  7  2  0
  6 26  1  0
  7  8  1  0
  8  9  1  0
  8 24  2  0
  9 10  2  0
 10 11  1  0
 10 21  1  0
 11 12  1  0
 12 13  1  0
 13 14  1  0
 14 15  2  0
 14 16  1  0
 16 17  2  0
 16 20  1  0
 17 18  1  0
 18 19  2  0
 19 20  1  0
 21 22  2  0
 21 23  1  0
 23 24  1  0
 24 25  1  0
 25 26  2  0
 26 27  1  0
M  END
