
     RDKit          3D

 27 29  0  0  0  0  0  0  0  0999 V2000
   -4.5310   -2.4080   -1.7470 C   0  0  0  0  0  0  0  0  0  0  0  0
   -4.9170   -2.1710   -0.3020 C   0  0  0  0  0  0  0  0  0  0  0  0
   -4.5000   -0.7860    0.0340 C   0  0  0  0  0  0  0  0  0  0  0  0
   -5.4160    0.2370    0.1260 C   0  0  0  0  0  0  0  0  0  0  0  0
   -5.0330    1.5390    0.4400 C   0  0  0  0  0  0  0  0  0  0  0  0
   -6.0690    2.6230    0.5290 C   0  0  0  0  0  0  0  0  0  0  0  0
   -3.7150    1.8250    0.6650 C   0  0  0  0  0  0  0  0  0  0  0  0
   -2.7930    0.7980    0.5720 C   0  0  0  0  0  0  0  0  0  0  0  0
   -1.4560    1.0520    0.7920 C   0  0  0  0  0  0  0  0  0  0  0  0
   -0.4920    0.0980    0.7180 C   0  0  0  0  0  0  0  0  0  0  0  0
    0.8610    0.2940    0.9280 O   0  0  0  0  0  0  0  0  0  0  0  0
    1.6480    0.6660   -0.1420 C   0  0  0  0  0  0  0  0  0  0  0  0
    1.0920    0.8070   -1.2440 O   0  0  0  0  0  0  0  0  0  0  0  0
    3.1120    0.9030   -0.0400 C   0  0  0  0  0  0  0  0  0  0  0  0
    3.8850   -0.2460   -0.6740 C   0  0  0  0  0  0  0  0  0  0  0  0
    5.3100   -0.0350   -0.5920 N   0  0  0  0  0  0  0  0  0  0  0  0
    5.9530    0.6170   -1.5870 C   0  0  0  0  0  0  0  0  0  0  0  0
    5.2880    1.0300   -2.5730 O   0  0  0  0  0  0  0  0  0  0  0  0
    7.3100    0.8400   -1.5500 C   0  0  0  0  0  0  0  0  0  0  0  0
    8.0410    0.3920   -0.4750 C   0  0  0  0  0  0  0  0  0  0  0  0
    7.3680   -0.2520    0.4950 N   0  0  0  0  0  0  0  0  0  0  0  0
    6.0430   -0.4670    0.4530 C   0  0  0  0  0  0  0  0  0  0  0  0
    5.4350   -1.0820    1.3910 O   0  0  0  0  0  0  0  0  0  0  0  0
   -0.8740   -1.2040    0.4050 C   0  0  0  0  0  0  0  0  0  0  0  0
    0.0910   -2.2230    0.3180 O   0  0  0  0  0  0  0  0  0  0  0  0
   -2.1980   -1.4850    0.1810 C   0  0  0  0  0  0  0  0  0  0  0  0
   -3.1680   -0.4930    0.2620 C   0  0  0  0  0  0  0  0  0  0  0  0
  1  2  1  0
  2  3  1  0
  3  4  2  0
  3 27  1  0
  4  5  1  0
  5  6  1  0
  5  7  2  0
  7  8  1  0
  8  9  2  0
  8 27  1  0
  9 10  1  0
 10 11  1  0
 10 24  2  0
 11 12  1  0
 12 13  2  0
 12 14  1  0
 14 15  1  0
 15 16  1  0
 16 17  1  0
 16 22  1  0
 17 18  2  0
 17 19  1  0
 19 20  2  0
 20 21  1  0
 21 22  1  0
 22 23  2  0
 24 25  1  0
 24 26  1  0
 26 27  2  0
M  END
