
     RDKit          3D

 27 29  0  0  0  0  0  0  0  0999 V2000
   -6.1380   -0.5090    0.9430 C   0  0  0  0  0  0  0  0  0  0  0  0
   -4.7130   -0.1840    1.1850 C   0  0  0  0  0  0  0  0  0  0  0  0
   -4.2130   -0.1870    2.4660 C   0  0  0  0  0  0  0  0  0  0  0  0
   -2.8920    0.1170    2.6640 C   0  0  0  0  0  0  0  0  0  0  0  0
   -2.2810    0.1330    4.0360 C   0  0  0  0  0  0  0  0  0  0  0  0
   -2.0840    0.4200    1.5960 C   0  0  0  0  0  0  0  0  0  0  0  0
   -0.7390    0.7270    1.8180 O   0  0  0  0  0  0  0  0  0  0  0  0
   -2.5440    0.4360    0.2700 C   0  0  0  0  0  0  0  0  0  0  0  0
   -1.6740    0.7500   -0.7400 O   0  0  0  0  0  0  0  0  0  0  0  0
   -0.7110   -0.0190   -1.3240 C   0  0  0  0  0  0  0  0  0  0  0  0
    0.6050    0.4810   -1.2480 C   0  0  0  0  0  0  0  0  0  0  0  0
    1.5770   -0.2420   -1.8060 N   0  0  0  0  0  0  0  0  0  0  0  0
    2.9540    0.2460   -1.7460 C   0  0  0  0  0  0  0  0  0  0  0  0
    3.6500   -0.2650   -0.4980 C   0  0  0  0  0  0  0  0  0  0  0  0
    5.0340    0.2770   -0.5200 C   0  0  0  0  0  0  0  0  0  0  0  0
    5.5880    1.0730    0.4110 C   0  0  0  0  0  0  0  0  0  0  0  0
    6.9360    1.3400   -0.0320 C   0  0  0  0  0  0  0  0  0  0  0  0
    7.8990    2.1070    0.5860 O   0  0  0  0  0  0  0  0  0  0  0  0
    7.0860    0.6940   -1.1760 C   0  0  0  0  0  0  0  0  0  0  0  0
    6.0290    0.0400   -1.5490 C   0  0  0  0  0  0  0  0  0  0  0  0
    1.3030   -1.4070   -2.4190 C   0  0  0  0  0  0  0  0  0  0  0  0
    2.2530   -2.0590   -2.9340 O   0  0  0  0  0  0  0  0  0  0  0  0
    0.0590   -1.8980   -2.5010 N   0  0  0  0  0  0  0  0  0  0  0  0
   -0.9850   -1.2080   -1.9500 C   0  0  0  0  0  0  0  0  0  0  0  0
   -2.1260   -1.7180   -2.0580 O   0  0  0  0  0  0  0  0  0  0  0  0
   -3.8780    0.1250    0.1240 C   0  0  0  0  0  0  0  0  0  0  0  0
   -4.4990    0.1430   -1.2190 C   0  0  0  0  0  0  0  0  0  0  0  0
  1  2  1  0
  2  3  2  0
  2 26  1  0
  3  4  1  0
  4  5  1  0
  4  6  2  0
  6  7  1  0
  6  8  1  0
  8  9  1  0
  8 26  2  0
  9 10  1  0
 10 11  2  0
 10 24  1  0
 11 12  1  0
 12 13  1  0
 12 21  1  0
 13 14  1  0
 14 15  1  0
 15 16  2  0
 15 20  1  0
 16 17  1  0
 17 18  1  0
 17 19  2  0
 19 20  2  0
 21 22  2  0
 21 23  1  0
 23 24  1  0
 24 25  2  0
 26 27  1  0
M  END
