
     RDKit          3D

 19 21  0  0  0  0  0  0  0  0999 V2000
   -3.6540   -1.0270   -1.7620 C   0  0  0  0  0  0  0  0  0  0  0  0
   -3.1410   -0.2170   -0.6240 C   0  0  0  0  0  0  0  0  0  0  0  0
   -3.9810    0.6680    0.0130 C   0  0  0  0  0  0  0  0  0  0  0  0
   -3.5650    1.4180    1.0410 N   0  0  0  0  0  0  0  0  0  0  0  0
   -2.3060    1.2810    1.4330 C   0  0  0  0  0  0  0  0  0  0  0  0
   -1.4050    0.4180    0.8490 C   0  0  0  0  0  0  0  0  0  0  0  0
   -1.8320   -0.3530   -0.2090 C   0  0  0  0  0  0  0  0  0  0  0  0
   -0.9470   -1.3340   -0.9110 C   0  0  0  0  0  0  0  0  0  0  0  0
    0.3900   -1.3650   -0.4090 N   0  0  0  0  0  0  0  0  0  0  0  0
    1.3210   -0.3120   -0.5190 C   0  0  0  0  0  0  0  0  0  0  0  0
    1.0500    0.8660   -1.1790 C   0  0  0  0  0  0  0  0  0  0  0  0
    1.9860    1.8830   -1.2850 C   0  0  0  0  0  0  0  0  0  0  0  0
    3.2350    1.7470   -0.7250 C   0  0  0  0  0  0  0  0  0  0  0  0
    3.5180    0.5740   -0.0630 C   0  0  0  0  0  0  0  0  0  0  0  0
    4.6280    0.1330    0.5850 N   0  0  0  0  0  0  0  0  0  0  0  0
    4.4030   -1.0980    1.0730 C   0  0  0  0  0  0  0  0  0  0  0  0
    5.2210   -1.7990    1.7270 O   0  0  0  0  0  0  0  0  0  0  0  0
    3.1460   -1.4130    0.7220 N   0  0  0  0  0  0  0  0  0  0  0  0
    2.5760   -0.4270    0.0330 C   0  0  0  0  0  0  0  0  0  0  0  0
  1  2  1  0
  2  3  2  0
  2  7  1  0
  3  4  1  0
  4  5  2  0
  5  6  1  0
  6  7  2  0
  7  8  1  0
  8  9  1  0
  9 10  1  0
 10 11  2  0
 10 19  1  0
 11 12  1  0
 12 13  2  0
 13 14  1  0
 14 15  1  0
 14 19  2  0
 15 16  1  0
 16 17  2  0
 16 18  1  0
 18 19  1  0
M  CHG  1   4   1
M  END
