
     RDKit          3D

 19 20  0  0  0  0  0  0  0  0999 V2000
    4.8440    1.4980   -0.6480 C   0  0  0  0  0  0  0  0  0  0  0  0
    3.6440    1.0610   -0.4350 C   0  0  0  0  0  0  0  0  0  0  0  0
    2.5250    1.6900   -0.9250 N   0  0  0  0  0  0  0  0  0  0  0  0
    1.4630    0.9750   -0.5280 C   0  0  0  0  0  0  0  0  0  0  0  0
    0.1020    0.9030   -0.5700 N   0  0  0  0  0  0  0  0  0  0  0  0
   -0.3370   -0.1790    0.1100 C   0  0  0  0  0  0  0  0  0  0  0  0
   -1.7350   -0.5360    0.2910 C   0  0  0  0  0  0  0  0  0  0  0  0
   -2.6380    0.4550    0.7420 N   0  0  0  0  0  0  0  0  0  0  0  0
   -3.4630    1.1520   -0.2040 C   0  0  0  0  0  0  0  0  0  0  0  0
   -4.3670    2.1510    0.4880 C   0  0  0  0  0  0  0  0  0  0  0  0
   -3.6170    3.0970    1.1780 O   0  0  0  0  0  0  0  0  0  0  0  0
   -2.1890   -1.7480    0.0690 C   0  0  0  0  0  0  0  0  0  0  0  0
   -3.6390   -2.0620    0.2760 C   0  0  0  0  0  0  0  0  0  0  0  0
   -1.3610   -2.8740   -0.4180 C   0  0  0  0  0  0  0  0  0  0  0  0
    0.7800   -0.7840    0.5800 N   0  0  0  0  0  0  0  0  0  0  0  0
    1.8730   -0.1060    0.2090 C   0  0  0  0  0  0  0  0  0  0  0  0
    3.2810   -0.0610    0.2760 C   0  0  0  0  0  0  0  0  0  0  0  0
    3.9530   -0.9660    0.9350 C   0  0  0  0  0  0  0  0  0  0  0  0
    5.4070   -1.0160    1.0990 C   0  0  0  0  0  0  0  0  0  0  0  0
  1  2  2  0
  2  3  1  0
  2 17  1  0
  3  4  1  0
  4  5  1  0
  4 16  2  0
  5  6  1  0
  6  7  1  0
  6 15  2  0
  7  8  1  0
  7 12  2  3
  8  9  1  0
  9 10  1  0
 10 11  1  0
 12 13  1  0
 12 14  1  0
 15 16  1  0
 16 17  1  0
 17 18  2  3
 18 19  1  0
M  END
