
     RDKit          3D

 12 12  0  0  0  0  0  0  0  0999 V2000
   -0.7740    2.3600    0.0160 C   0  0  0  0  0  0  0  0  0  0  0  0
   -0.3620    0.9600   -0.4630 C   0  0  1  0  0  0  0  0  0  0  0  0
    0.9960    0.8980   -0.4130 O   0  0  0  0  0  0  0  0  0  0  0  0
    1.5400   -0.3510   -0.2940 C   0  0  1  0  0  0  0  0  0  0  0  0
    3.0510   -0.1730   -0.0950 C   0  0  0  0  0  0  0  0  0  0  0  0
    3.6220    0.4820   -1.1620 O   0  0  0  0  0  0  0  0  0  0  0  0
    1.0740   -0.9220    0.8940 O   0  0  0  0  0  0  0  0  0  0  0  0
   -0.2810   -1.2080    0.8040 C   0  0  0  0  0  0  0  0  0  0  0  0
   -1.0990   -0.0800    0.2850 C   0  0  1  0  0  0  0  0  0  0  0  0
   -1.7430    0.5270    1.3890 O   0  0  0  0  0  0  0  0  0  0  0  0
   -2.2420   -0.6890   -0.5420 C   0  0  0  0  0  0  0  0  0  0  0  0
   -1.7260   -1.3220   -1.6690 O   0  0  0  0  0  0  0  0  0  0  0  0
  2  1  1  1
  2  3  1  0
  2  9  1  0
  3  4  1  0
  4  5  1  1
  4  7  1  0
  5  6  1  0
  7  8  1  0
  8  9  1  0
  9 10  1  1
  9 11  1  0
 11 12  1  0
M  END
