
     RDKit          3D

 12 13  0  0  0  0  0  0  0  0999 V2000
    2.5630   -1.0300    0.2480 O   0  0  0  0  0  0  0  0  0  0  0  0
    2.2330    0.1180   -0.4720 C   0  0  0  0  0  0  0  0  0  0  0  0
    0.7500    0.1970   -0.6690 C   0  0  1  0  0  0  0  0  0  0  0  0
    0.4730    1.3760   -1.4020 O   0  0  0  0  0  0  0  0  0  0  0  0
    0.3170   -0.9060   -1.3570 O   0  0  0  0  0  0  0  0  0  0  0  0
   -0.3980   -1.7150   -0.4830 C   0  0  0  0  0  0  0  0  0  0  0  0
   -1.1570   -0.6920    0.3260 C   0  0  2  0  0  0  0  0  0  0  0  0
   -1.7290   -1.1830    1.4610 O   0  0  0  0  0  0  0  0  0  0  0  0
   -2.0490    0.1650   -0.5120 C   0  0  0  0  0  0  0  0  0  0  0  0
   -1.7010    1.4820   -0.3220 O   0  0  0  0  0  0  0  0  0  0  0  0
   -0.8190    1.5690    0.7230 C   0  0  0  0  0  0  0  0  0  0  0  0
   -0.0170    0.2950    0.6150 C   0  0  2  0  0  0  0  0  0  0  0  0
  1  2  1  0
  2  3  1  0
  3  4  1  6
  3  5  1  0
  3 12  1  0
  5  6  1  0
  6  7  1  0
  7  8  1  1
  7  9  1  0
  7 12  1  0
  9 10  1  0
 10 11  1  0
 12 11  1  6
M  END
