
     RDKit          3D

 12 12  0  0  0  0  0  0  0  0999 V2000
    2.9990   -1.0670    0.7780 C   0  0  0  0  0  0  0  0  0  0  0  0
    2.3540   -0.2040   -0.1050 O   0  0  0  0  0  0  0  0  0  0  0  0
    0.9720   -0.2250    0.0880 C   0  0  2  0  0  0  0  0  0  0  0  0
    0.4020   -0.6880   -1.0690 O   0  0  0  0  0  0  0  0  0  0  0  0
   -0.9460   -0.6080   -1.1710 C   0  0  1  0  0  0  0  0  0  0  0  0
   -1.5200   -2.0100   -0.9620 C   0  0  0  0  0  0  0  0  0  0  0  0
   -1.6260    0.3590   -0.2770 C   0  0  1  0  0  0  0  0  0  0  0  0
   -2.0010   -0.1850    0.9490 O   0  0  0  0  0  0  0  0  0  0  0  0
   -0.7580    1.5840   -0.1040 C   0  0  1  0  0  0  0  0  0  0  0  0
   -1.4290    2.4640    0.7260 O   0  0  0  0  0  0  0  0  0  0  0  0
    0.5540    1.1500    0.4950 C   0  0  2  0  0  0  0  0  0  0  0  0
    1.5150    2.1120    0.1730 O   0  0  0  0  0  0  0  0  0  0  0  0
  1  2  1  0
  3  2  1  6
  3  4  1  0
  3 11  1  0
  4  5  1  0
  5  6  1  1
  5  7  1  0
  7  8  1  1
  7  9  1  0
  9 10  1  1
  9 11  1  0
 11 12  1  6
M  END
