
     RDKit          3D

 26 28  0  0  0  0  0  0  0  0999 V2000
    1.7570    1.1810    0.7530 C   0  0  0  0  0  0  0  0  0  0  0  0
    1.8150   -0.2750    0.5500 C   0  0  0  0  0  0  0  0  0  0  0  0
    1.4300   -1.0580    1.4480 O   0  0  0  0  0  0  0  0  0  0  0  0
    2.3120   -0.8310   -0.6950 C   0  0  0  0  0  0  0  0  0  0  0  0
    3.6020   -1.2060   -0.9820 C   0  0  0  0  0  0  0  0  0  0  0  0
    4.8350   -1.1740   -0.2280 C   0  0  0  0  0  0  0  0  0  0  0  0
    5.8990   -1.6610   -0.7150 O   0  0  0  0  0  0  0  0  0  0  0  0
    4.9340   -0.5950    1.1160 C   0  0  2  0  0  0  0  0  0  0  0  0
    5.0500    0.9270    0.9890 C   0  0  0  0  0  0  0  0  0  0  0  0
    6.5360    1.1630    0.8250 C   0  0  0  0  0  0  0  0  0  0  0  0
    7.1450    0.0330    1.5740 C   0  0  0  0  0  0  0  0  0  0  0  0
    6.1750   -0.9790    1.7790 N   0  0  0  0  0  0  0  0  0  0  0  0
    3.5280   -1.6820   -2.3110 C   0  0  0  0  0  0  0  0  0  0  0  0
    2.2700   -1.5790   -2.7430 N   0  0  0  0  0  0  0  0  0  0  0  0
    1.4760   -1.0680   -1.8080 C   0  0  0  0  0  0  0  0  0  0  0  0
    0.0870   -0.7840   -1.8260 N   0  0  0  0  0  0  0  0  0  0  0  0
   -0.4120    0.4000   -1.7700 C   0  0  0  0  0  0  0  0  0  0  0  0
   -1.8930    0.5200   -1.8000 C   0  0  0  0  0  0  0  0  0  0  0  0
   -2.5200   -0.2290   -0.7600 N   0  0  0  0  0  0  0  0  0  0  0  0
   -3.2990    0.5870    0.1500 C   0  0  1  0  0  0  0  0  0  0  0  0
   -4.4920    1.2140   -0.4930 C   0  0  0  0  0  0  0  0  0  0  0  0
   -5.5480    1.4370    0.5820 C   0  0  0  0  0  0  0  0  0  0  0  0
   -6.1650    0.0950    0.8910 C   0  0  1  0  0  0  0  0  0  0  0  0
   -7.2230   -0.2400   -0.1360 C   0  0  0  0  0  0  0  0  0  0  0  0
   -5.0750   -0.9520    0.7860 C   0  0  0  0  0  0  0  0  0  0  0  0
   -3.7740   -0.3400    1.2570 C   0  0  0  0  0  0  0  0  0  0  0  0
  1  2  1  0
  2  3  2  0
  2  4  1  0
  4  5  1  0
  4 15  2  0
  5  6  1  0
  5 13  2  0
  6  7  2  0
  8  6  1  6
  8  9  1  0
  8 12  1  0
  9 10  1  0
 10 11  1  0
 11 12  1  0
 13 14  1  0
 14 15  1  0
 15 16  1  0
 16 17  2  3
 17 18  1  0
 18 19  1  0
 20 19  1  6
 20 21  1  0
 20 26  1  0
 21 22  1  0
 22 23  1  0
 23 24  1  6
 23 25  1  0
 25 26  1  0
M  CHG  1  19   1
M  END
