
     RDKit          3D

 12 12  0  0  0  0  0  0  0  0999 V2000
    3.3290    0.3340    0.6470 C   0  0  0  0  0  0  0  0  0  0  0  0
    2.0320   -0.1200    0.8650 O   0  0  0  0  0  0  0  0  0  0  0  0
    1.4170   -0.3190   -0.3380 C   0  0  1  0  0  0  0  0  0  0  0  0
    1.1000   -1.6720   -0.4950 O   0  0  0  0  0  0  0  0  0  0  0  0
    0.1850    0.5360   -0.5320 C   0  0  1  0  0  0  0  0  0  0  0  0
   -0.3620    0.1880   -1.9020 C   0  0  0  0  0  0  0  0  0  0  0  0
   -0.9080   -1.0630   -1.6740 O   0  0  0  0  0  0  0  0  0  0  0  0
   -1.5470   -1.0390   -0.4630 C   0  0  1  0  0  0  0  0  0  0  0  0
   -1.3580   -2.1890    0.2990 O   0  0  0  0  0  0  0  0  0  0  0  0
   -0.9620    0.1210    0.3390 C   0  0  2  0  0  0  0  0  0  0  0  0
   -2.0000    1.2280    0.2930 C   0  0  0  0  0  0  0  0  0  0  0  0
   -3.1010    0.8830    1.1000 O   0  0  0  0  0  0  0  0  0  0  0  0
  1  2  1  0
  2  3  1  0
  3  4  1  1
  3  5  1  0
  5  6  1  6
  5 10  1  0
  6  7  1  0
  7  8  1  0
  8  9  1  1
  8 10  1  0
 10 11  1  6
 11 12  1  0
M  END
