
     RDKit          3D

 30 32  0  0  0  0  0  0  0  0999 V2000
   -0.1600   -3.6110    3.9900 C   0  0  0  0  0  0  0  0  0  0  0  0
    0.1390   -3.5470    2.4660 C   0  0  0  0  0  0  0  0  0  0  0  0
   -0.2330   -2.0960    2.1240 C   0  0  0  0  0  0  0  0  0  0  0  0
   -0.0600   -1.7720    0.6710 C   0  0  2  0  0  0  0  0  0  0  0  0
   -0.9660   -2.6980    0.0500 O   0  0  0  0  0  0  0  0  0  0  0  0
    1.2840   -2.0830    0.1760 C   0  0  0  0  0  0  0  0  0  0  0  0
    2.2440   -0.9670   -0.0450 C   0  0  0  0  0  0  0  0  0  0  0  0
    1.8670    0.2150    0.7440 C   0  0  1  0  0  0  0  0  0  0  0  0
    2.7620    1.3680    0.4730 C   0  0  0  0  0  0  0  0  0  0  0  0
    4.1780    1.3670    0.7140 C   0  0  2  0  0  0  0  0  0  0  0  0
    4.6550    2.7940    0.2970 C   0  0  0  0  0  0  0  0  0  0  0  0
    4.9780    0.4550   -0.1820 C   0  0  0  0  0  0  0  0  0  0  0  0
    4.6910    1.1900    2.1010 C   0  0  0  0  0  0  0  0  0  0  0  0
    0.4530    0.6750    0.5590 C   0  0  0  0  0  0  0  0  0  0  0  0
   -0.5980   -0.3720    0.2800 C   0  0  2  0  0  0  0  0  0  0  0  0
   -1.6530   -0.1430    1.3400 C   0  0  0  0  0  0  0  0  0  0  0  0
   -2.5330    0.9680    1.5180 C   0  0  0  0  0  0  0  0  0  0  0  0
   -3.5940    1.2880    0.5400 C   0  0  0  0  0  0  0  0  0  0  0  0
   -3.8350    2.3710   -0.1390 C   0  0  0  0  0  0  0  0  0  0  0  0
   -5.0260    2.1750   -0.9810 C   0  0  0  0  0  0  0  0  0  0  0  0
   -5.4390    0.7890   -0.6870 C   0  0  0  0  0  0  0  0  0  0  0  0
   -4.6140    0.2730    0.1940 C   0  0  0  0  0  0  0  0  0  0  0  0
   -1.1790   -0.3590   -1.0790 C   0  0  2  0  0  0  0  0  0  0  0  0
   -0.4660   -1.1130   -2.1860 C   0  0  0  0  0  0  0  0  0  0  0  0
   -1.3910   -1.0220   -3.4260 C   0  0  0  0  0  0  0  0  0  0  0  0
   -1.5730    0.3470   -3.9440 C   0  0  2  0  0  0  0  0  0  0  0  0
   -0.4710    0.9630   -4.4660 O   0  0  0  0  0  0  0  0  0  0  0  0
   -2.1550    1.1530   -2.7960 C   0  0  0  0  0  0  0  0  0  0  0  0
   -1.1170    1.0710   -1.6940 C   0  0  2  0  0  0  0  0  0  0  0  0
    0.1120    1.2080   -2.3990 O   0  0  0  0  0  0  0  0  0  0  0  0
  1  2  1  0
  2  3  1  0
  3  4  1  0
  4  5  1  6
  4  6  1  0
  4 15  1  0
  6  7  1  0
  7  8  1  0
  8  9  1  6
  8 14  1  0
  9 10  1  0
 10 11  1  6
 10 12  1  0
 10 13  1  0
 14 15  1  0
 15 16  1  1
 15 23  1  0
 16 17  1  0
 17 18  1  0
 18 19  2  0
 18 22  1  0
 19 20  1  0
 20 21  1  0
 21 22  2  0
 23 24  1  6
 23 29  1  0
 24 25  1  0
 25 26  1  0
 26 27  1  1
 26 28  1  0
 28 29  1  0
 29 30  1  6
M  END
