
     RDKit          3D

 30 32  0  0  0  0  0  0  0  0999 V2000
    5.3000    0.6810    1.9970 C   0  0  0  0  0  0  0  0  0  0  0  0
    4.3550   -0.4390    2.3560 C   0  0  0  0  0  0  0  0  0  0  0  0
    3.9310   -1.0650    1.0770 C   0  0  0  0  0  0  0  0  0  0  0  0
    4.4010   -2.2460    0.6150 N   0  0  0  0  0  0  0  0  0  0  0  0
    3.8270   -2.5170   -0.5510 N   0  0  0  0  0  0  0  0  0  0  0  0
    2.9720   -1.5000   -0.8550 C   0  0  0  0  0  0  0  0  0  0  0  0
    2.1300   -1.3820   -2.0780 C   0  0  0  0  0  0  0  0  0  0  0  0
    2.8120   -0.3820   -3.0310 C   0  0  0  0  0  0  0  0  0  0  0  0
    3.0160   -0.5710    0.1510 C   0  0  0  0  0  0  0  0  0  0  0  0
    2.3240    0.6670    0.3410 C   0  0  0  0  0  0  0  0  0  0  0  0
    2.9680    1.7770    0.4320 O   0  0  0  0  0  0  0  0  0  0  0  0
    0.8730    0.8280    0.4540 C   0  0  0  0  0  0  0  0  0  0  0  0
    0.2580    2.0650    0.2590 C   0  0  0  0  0  0  0  0  0  0  0  0
   -1.1030    2.2330    0.3720 C   0  0  0  0  0  0  0  0  0  0  0  0
   -1.6950    3.5530    0.1610 C   0  0  0  0  0  0  0  0  0  0  0  0
   -2.3890    3.6810   -1.1780 C   0  0  0  0  0  0  0  0  0  0  0  0
   -1.5010    3.4680   -2.3000 N   0  0  0  0  0  0  0  0  0  0  0  0
   -1.8810    1.1460    0.6860 C   0  0  0  0  0  0  0  0  0  0  0  0
   -1.3340   -0.1230    0.8920 C   0  0  0  0  0  0  0  0  0  0  0  0
    0.0320   -0.2180    0.7650 C   0  0  0  0  0  0  0  0  0  0  0  0
   -1.9670   -1.3590    1.1970 N   0  0  0  0  0  0  0  0  0  0  0  0
   -1.4260   -2.5240    0.6000 C   0  0  0  0  0  0  0  0  0  0  0  0
   -2.1200   -2.8260   -0.7600 C   0  0  1  0  0  0  0  0  0  0  0  0
   -1.9140   -1.7490   -1.7660 C   0  0  0  0  0  0  0  0  0  0  0  0
   -1.5050   -3.9860   -1.2340 O   0  0  0  0  0  0  0  0  0  0  0  0
   -3.1220   -1.5180    2.0610 C   0  0  0  0  0  0  0  0  0  0  0  0
   -3.0310   -2.5720    2.7880 O   0  0  0  0  0  0  0  0  0  0  0  0
   -4.3120   -0.6990    2.2130 C   0  0  0  0  0  0  0  0  0  0  0  0
   -4.1360    0.7570    2.4230 C   0  0  0  0  0  0  0  0  0  0  0  0
   -3.6280    1.5300    0.8470 S   0  0  0  0  0  0  0  0  0  0  0  0
  1  2  1  0
  2  3  1  0
  3  4  2  0
  3  9  1  0
  4  5  1  0
  5  6  1  0
  6  7  1  0
  6  9  2  0
  7  8  1  0
  9 10  1  0
 10 11  2  0
 10 12  1  0
 12 13  2  0
 12 20  1  0
 13 14  1  0
 14 15  1  0
 14 18  2  0
 15 16  1  0
 16 17  1  0
 18 19  1  0
 18 30  1  0
 19 20  2  0
 19 21  1  0
 21 22  1  0
 21 26  1  0
 22 23  1  0
 23 24  1  6
 23 25  1  0
 26 27  2  0
 26 28  1  0
 28 29  1  0
 29 30  1  0
M  CHG  1  17   1
M  END
