
     RDKit          3D

 30 32  0  0  0  0  0  0  0  0999 V2000
   -5.7660   -1.4060    1.0810 C   0  0  0  0  0  0  0  0  0  0  0  0
   -4.9800   -0.2150    1.4970 C   0  0  0  0  0  0  0  0  0  0  0  0
   -4.2700    0.5620    0.4660 C   0  0  0  0  0  0  0  0  0  0  0  0
   -3.2160   -0.0520   -0.3570 C   0  0  1  0  0  0  0  0  0  0  0  0
   -2.0180   -0.6190    0.2160 C   0  0  0  0  0  0  0  0  0  0  0  0
   -0.9660    0.0790    0.9880 C   0  0  1  0  0  0  0  0  0  0  0  0
   -1.4220    0.8020    2.2450 C   0  0  0  0  0  0  0  0  0  0  0  0
   -0.1630   -1.0750    1.6020 C   0  0  0  0  0  0  0  0  0  0  0  0
    0.7580   -0.9010    2.6780 C   0  0  0  0  0  0  0  0  0  0  0  0
    1.6240    0.2050    3.0120 C   0  0  0  0  0  0  0  0  0  0  0  0
    2.9600    0.4260    2.4310 C   0  0  0  0  0  0  0  0  0  0  0  0
    3.6820   -0.6230    1.6970 C   0  0  0  0  0  0  0  0  0  0  0  0
    4.4120   -0.0170    0.5380 C   0  0  1  0  0  0  0  0  0  0  0  0
    5.8660   -0.3490    0.4320 C   0  0  0  0  0  0  0  0  0  0  0  0
    6.4090    0.4370   -0.7050 C   0  0  0  0  0  0  0  0  0  0  0  0
    5.6980    0.9380   -1.6750 C   0  0  0  0  0  0  0  0  0  0  0  0
    4.2310    0.7780   -1.7580 C   0  0  0  0  0  0  0  0  0  0  0  0
    3.8060   -0.3110   -0.8330 C   0  0  2  0  0  0  0  0  0  0  0  0
    2.3810   -0.6530   -0.7590 C   0  0  0  0  0  0  0  0  0  0  0  0
    1.3970   -0.0340   -1.6570 C   0  0  0  0  0  0  0  0  0  0  0  0
    1.4410   -0.0880   -2.9820 C   0  0  0  0  0  0  0  0  0  0  0  0
    0.2970    0.6460   -3.5160 C   0  0  0  0  0  0  0  0  0  0  0  0
   -0.3840    1.1130   -2.3230 C   0  0  0  0  0  0  0  0  0  0  0  0
    0.2390    0.7250   -1.1890 C   0  0  0  0  0  0  0  0  0  0  0  0
   -0.1710    1.0140    0.1790 C   0  0  1  0  0  0  0  0  0  0  0  0
   -0.9310    2.2310    0.2430 O   0  0  0  0  0  0  0  0  0  0  0  0
   -3.8690   -0.9510   -1.4120 C   0  0  2  0  0  0  0  0  0  0  0  0
   -2.8480   -1.5480   -2.1930 O   0  0  0  0  0  0  0  0  0  0  0  0
   -4.7860   -0.1980   -2.3480 C   0  0  0  0  0  0  0  0  0  0  0  0
   -4.1200    0.8340   -3.0250 O   0  0  0  0  0  0  0  0  0  0  0  0
  1  2  1  0
  2  3  1  0
  4  3  1  1
  4  5  1  0
  4 27  1  0
  5  6  1  0
  6  7  1  1
  6  8  1  0
  6 25  1  0
  8  9  1  0
  9 10  1  0
 10 11  1  0
 11 12  1  0
 13 12  1  1
 13 14  1  0
 13 18  1  0
 14 15  1  0
 15 16  2  0
 16 17  1  0
 18 17  1  6
 18 19  1  0
 19 20  1  0
 20 21  2  0
 20 24  1  0
 21 22  1  0
 22 23  1  0
 23 24  2  0
 24 25  1  0
 25 26  1  6
 27 28  1  6
 27 29  1  0
 29 30  1  0
M  END
