
     RDKit          3D

 30 32  0  0  0  0  0  0  0  0999 V2000
    0.0210    5.1640    0.1530 C   0  0  0  0  0  0  0  0  0  0  0  0
    1.1150    4.4630   -0.5630 C   0  0  0  0  0  0  0  0  0  0  0  0
    2.1880    5.2720   -1.1840 C   0  0  0  0  0  0  0  0  0  0  0  0
    1.1310    3.1570   -0.6440 C   0  0  0  0  0  0  0  0  0  0  0  0
    0.0320    2.3910   -0.0050 C   0  0  0  0  0  0  0  0  0  0  0  0
   -0.0010    1.0870   -0.0510 C   0  0  0  0  0  0  0  0  0  0  0  0
   -1.0290    0.1960    0.5290 C   0  0  0  0  0  0  0  0  0  0  0  0
   -2.0010    0.6540    1.5400 C   0  0  0  0  0  0  0  0  0  0  0  0
   -3.0910    1.5520    0.9360 C   0  0  0  0  0  0  0  0  0  0  0  0
   -3.8480    0.8230   -0.1580 C   0  0  0  0  0  0  0  0  0  0  0  0
   -4.9200    1.7530   -0.7390 C   0  0  0  0  0  0  0  0  0  0  0  0
   -4.3460    2.8880   -1.2740 O   0  0  0  0  0  0  0  0  0  0  0  0
   -0.9880   -1.0060    0.0010 C   0  0  0  0  0  0  0  0  0  0  0  0
   -1.7700   -2.2410    0.2340 C   0  0  0  0  0  0  0  0  0  0  0  0
   -2.6510   -2.4420    1.3990 C   0  0  0  0  0  0  0  0  0  0  0  0
   -1.5340   -3.2700   -0.5350 C   0  0  0  0  0  0  0  0  0  0  0  0
   -2.1160   -4.5930   -0.5840 C   0  0  2  0  0  0  0  0  0  0  0  0
   -3.3690   -4.8420   -1.3730 C   0  0  0  0  0  0  0  0  0  0  0  0
   -3.2590   -5.1480    0.1020 C   0  0  0  0  0  0  0  0  0  0  0  0
    0.1220   -0.9900   -1.0430 C   0  0  1  0  0  0  0  0  0  0  0  0
   -0.4010   -0.8630   -2.3160 O   0  0  0  0  0  0  0  0  0  0  0  0
    1.0190    0.1660   -0.6500 C   0  0  2  0  0  0  0  0  0  0  0  0
    1.9810   -0.3840    0.3750 C   0  0  2  0  0  0  0  0  0  0  0  0
    2.7880    0.6220    1.1100 C   0  0  0  0  0  0  0  0  0  0  0  0
    4.0280    0.9440    0.3040 C   0  0  0  0  0  0  0  0  0  0  0  0
    4.9740   -0.2420    0.3150 C   0  0  0  0  0  0  0  0  0  0  0  0
    4.2340   -1.5460    0.3320 C   0  0  2  0  0  0  0  0  0  0  0  0
    4.2100   -2.1650    1.7240 C   0  0  0  0  0  0  0  0  0  0  0  0
    4.9370   -2.4320   -0.4830 O   0  0  0  0  0  0  0  0  0  0  0  0
    2.8290   -1.4480   -0.2250 C   0  0  0  0  0  0  0  0  0  0  0  0
  1  2  1  0
  2  3  1  0
  2  4  2  3
  4  5  1  0
  5  6  2  3
  6  7  1  0
 22  6  1  1
  7  8  1  0
  7 13  2  0
  8  9  1  0
  9 10  1  0
 10 11  1  0
 11 12  1  0
 13 14  1  0
 13 20  1  0
 14 15  1  0
 14 16  2  3
 17 16  1  1
 17 18  1  0
 17 19  1  0
 18 19  1  0
 20 21  1  6
 20 22  1  0
 22 23  1  0
 23 24  1  6
 23 30  1  0
 24 25  1  0
 25 26  1  0
 26 27  1  0
 27 28  1  1
 27 29  1  0
 27 30  1  0
M  END
