
     RDKit          3D

 31 33  0  0  0  0  0  0  0  0999 V2000
    1.2330    5.4720    2.3240 C   0  0  0  0  0  0  0  0  0  0  0  0
    1.2090    4.3150    1.9770 C   0  0  0  0  0  0  0  0  0  0  0  0
    1.1720    2.9350    1.5840 C   0  0  0  0  0  0  0  0  0  0  0  0
    2.3440    2.2570    1.3320 C   0  0  0  0  0  0  0  0  0  0  0  0
    2.3690    0.9350    0.9510 C   0  0  0  0  0  0  0  0  0  0  0  0
    3.6100    0.2430    0.6950 C   0  0  0  0  0  0  0  0  0  0  0  0
    4.6610   -0.3350    0.4590 C   0  0  0  0  0  0  0  0  0  0  0  0
    5.9290   -1.0030    0.1770 C   0  0  0  0  0  0  0  0  0  0  0  0
    6.7070   -0.2080   -0.6990 O   0  0  0  0  0  0  0  0  0  0  0  0
    7.9510   -0.5830   -1.1460 C   0  0  0  0  0  0  0  0  0  0  0  0
    8.4960   -1.7890   -0.7410 C   0  0  0  0  0  0  0  0  0  0  0  0
    9.7470   -2.1760   -1.1850 C   0  0  0  0  0  0  0  0  0  0  0  0
   10.4280   -1.3320   -2.0340 C   0  0  0  0  0  0  0  0  0  0  0  0
    9.8880   -0.1390   -2.4340 C   0  0  0  0  0  0  0  0  0  0  0  0
    8.6340    0.2680   -2.0000 C   0  0  0  0  0  0  0  0  0  0  0  0
    1.1650    0.2420    0.8120 C   0  0  0  0  0  0  0  0  0  0  0  0
   -0.0000    0.9010    1.0590 C   0  0  0  0  0  0  0  0  0  0  0  0
   -1.3330    0.2790    0.9530 C   0  0  0  0  0  0  0  0  0  0  0  0
   -1.3850   -1.0840    0.5810 N   0  0  1  0  0  0  0  0  0  0  0  0
   -2.3850   -1.8470    1.3180 C   0  0  0  0  0  0  0  0  0  0  0  0
   -3.7590   -1.2130    1.1960 C   0  0  0  0  0  0  0  0  0  0  0  0
   -4.1460   -1.0100   -0.2380 C   0  0  1  0  0  0  0  0  0  0  0  0
   -5.1970   -0.0800   -0.4720 N   0  0  2  0  0  0  0  0  0  0  0  0
   -5.7880    0.5290    0.6930 C   0  0  0  0  0  0  0  0  0  0  0  0
   -6.6810   -0.3850    1.4810 C   0  0  0  0  0  0  0  0  0  0  0  0
   -6.2870   -0.6320   -1.2520 C   0  0  0  0  0  0  0  0  0  0  0  0
   -6.4670    0.1100   -2.5830 C   0  0  0  0  0  0  0  0  0  0  0  0
   -3.0050   -0.7030   -1.1520 C   0  0  0  0  0  0  0  0  0  0  0  0
   -1.6840   -1.2580   -0.8130 C   0  0  0  0  0  0  0  0  0  0  0  0
   -0.0130    2.2460    1.4460 C   0  0  0  0  0  0  0  0  0  0  0  0
   -1.1930    2.9170    1.6990 O   0  0  0  0  0  0  0  0  0  0  0  0
  1  2  3  0
  2  3  1  0
  3  4  2  0
  3 30  1  0
  4  5  1  0
  5  6  1  0
  5 16  2  0
  6  7  3  0
  7  8  1  0
  8  9  1  0
  9 10  1  0
 10 11  2  0
 10 15  1  0
 11 12  1  0
 12 13  2  0
 13 14  1  0
 14 15  2  0
 16 17  1  0
 17 18  1  0
 17 30  2  0
 19 18  1  1
 19 20  1  0
 19 29  1  0
 20 21  1  0
 22 21  1  1
 22 23  1  0
 22 28  1  0
 23 24  1  1
 23 26  1  0
 24 25  1  0
 26 27  1  0
 28 29  1  0
 30 31  1  0
M  CHG  2  19   1  23   1
M  END
