
     RDKit          3D

 30 32  0  0  0  0  0  0  0  0999 V2000
   -4.8120   -0.6580   -2.2720 C   0  0  0  0  0  0  0  0  0  0  0  0
   -4.3860   -0.6300   -0.8720 C   0  0  0  0  0  0  0  0  0  0  0  0
   -3.2240    0.1670   -0.4180 C   0  0  1  0  0  0  0  0  0  0  0  0
   -3.4660    1.6510   -0.7500 C   0  0  0  0  0  0  0  0  0  0  0  0
   -3.2660    0.1290    1.0970 C   0  0  1  0  0  0  0  0  0  0  0  0
   -4.5360    0.8220    1.5380 C   0  0  0  0  0  0  0  0  0  0  0  0
   -3.2310   -1.2120    1.7360 C   0  0  0  0  0  0  0  0  0  0  0  0
   -2.1320    0.9100    1.7170 C   0  0  0  0  0  0  0  0  0  0  0  0
   -0.8720    0.4050    1.1490 C   0  0  0  0  0  0  0  0  0  0  0  0
   -0.7470    0.4900   -0.3440 C   0  0  1  0  0  0  0  0  0  0  0  0
    0.5800   -0.2260   -0.6480 C   0  0  1  0  0  0  0  0  0  0  0  0
    0.7390   -0.1570   -2.0790 O   0  0  0  0  0  0  0  0  0  0  0  0
    1.7580    0.4760   -0.1260 C   0  0  0  0  0  0  0  0  0  0  0  0
    1.7010    1.8530    0.0470 C   0  0  0  0  0  0  0  0  0  0  0  0
    2.8040    2.5910    0.4670 C   0  0  0  0  0  0  0  0  0  0  0  0
    3.9800    1.9350    0.7180 C   0  0  0  0  0  0  0  0  0  0  0  0
    4.0180    0.5950    0.5470 C   0  0  0  0  0  0  0  0  0  0  0  0
    2.9370   -0.2110    0.1240 C   0  0  0  0  0  0  0  0  0  0  0  0
    3.1240   -1.6560    0.0460 C   0  0  2  0  0  0  0  0  0  0  0  0
    2.4320   -2.4020    1.1770 C   0  0  0  0  0  0  0  0  0  0  0  0
    4.5050   -1.8900    0.4030 O   0  0  0  0  0  0  0  0  0  0  0  0
    3.0670   -2.3200   -1.2770 C   0  0  0  0  0  0  0  0  0  0  0  0
    3.3330   -3.8110   -1.1150 C   0  0  0  0  0  0  0  0  0  0  0  0
    2.4080   -4.4490   -0.3120 O   0  0  0  0  0  0  0  0  0  0  0  0
    5.0300    2.8960    1.1550 C   0  0  0  0  0  0  0  0  0  0  0  0
    4.2390    4.1030    1.6050 C   0  0  0  0  0  0  0  0  0  0  0  0
    3.0340    4.0370    0.7310 C   0  0  0  0  0  0  0  0  0  0  0  0
   -1.9050   -0.1930   -1.0310 C   0  0  1  0  0  0  0  0  0  0  0  0
   -1.6610   -1.6730   -1.1590 C   0  0  0  0  0  0  0  0  0  0  0  0
   -1.8890    0.3470   -2.4740 C   0  0  0  0  0  0  0  0  0  0  0  0
  1  2  1  0
  2  3  1  0
  3  4  1  1
  3  5  1  0
  3 28  1  0
  5  6  1  1
  5  7  1  0
  5  8  1  0
  8  9  1  0
 10  9  1  1
 10 11  1  0
 10 28  1  0
 11 12  1  6
 11 13  1  0
 13 14  2  0
 13 18  1  0
 14 15  1  0
 15 16  2  0
 15 27  1  0
 16 17  1  0
 16 25  1  0
 17 18  2  0
 18 19  1  0
 19 20  1  1
 19 21  1  0
 19 22  1  0
 22 23  1  0
 23 24  1  0
 25 26  1  0
 26 27  1  0
 28 29  1  6
 28 30  1  0
M  END
