
     RDKit          3D

 30 32  0  0  0  0  0  0  0  0999 V2000
    2.5460    2.4280   -1.3570 C   0  0  0  0  0  0  0  0  0  0  0  0
    2.7630    2.2840    0.1030 C   0  0  0  0  0  0  0  0  0  0  0  0
    2.8180    3.4680    0.7540 C   0  0  0  0  0  0  0  0  0  0  0  0
    3.0120    3.5120    2.1030 O   0  0  0  0  0  0  0  0  0  0  0  0
    3.4180    2.3840    2.8160 C   0  0  0  0  0  0  0  0  0  0  0  0
    3.3310    1.1230    2.0720 C   0  0  0  0  0  0  0  0  0  0  0  0
    3.0180    1.0440    0.7630 C   0  0  0  0  0  0  0  0  0  0  0  0
    3.0660   -0.2670    0.1610 C   0  0  1  0  0  0  0  0  0  0  0  0
    4.0220   -1.1830    0.9500 C   0  0  0  0  0  0  0  0  0  0  0  0
    1.8030   -0.9760   -0.1750 C   0  0  2  0  0  0  0  0  0  0  0  0
    1.1350   -1.1080    1.0920 O   0  0  0  0  0  0  0  0  0  0  0  0
    2.1840   -2.4190   -0.4760 C   0  0  0  0  0  0  0  0  0  0  0  0
    0.8970   -3.2180   -0.7370 C   0  0  2  0  0  0  0  0  0  0  0  0
    1.2530   -4.6720   -1.0250 C   0  0  0  0  0  0  0  0  0  0  0  0
    0.2910   -2.6250   -1.9350 C   0  0  0  0  0  0  0  0  0  0  0  0
   -0.2470   -1.2360   -1.6070 C   0  0  1  0  0  0  0  0  0  0  0  0
   -0.6080   -0.7100   -3.0160 C   0  0  0  0  0  0  0  0  0  0  0  0
   -1.4440   -1.2660   -0.7230 C   0  0  2  0  0  0  0  0  0  0  0  0
   -2.5940   -2.0130   -1.3420 C   0  0  0  0  0  0  0  0  0  0  0  0
   -1.8630    0.0460   -0.2260 C   0  0  1  0  0  0  0  0  0  0  0  0
   -2.1760    0.8780   -1.3260 O   0  0  0  0  0  0  0  0  0  0  0  0
   -2.9400    0.2100    0.7600 C   0  0  1  0  0  0  0  0  0  0  0  0
   -4.2930   -0.2730    0.3380 C   0  0  0  0  0  0  0  0  0  0  0  0
   -2.6340   -0.3660    2.1290 C   0  0  0  0  0  0  0  0  0  0  0  0
   -3.0970    1.7060    0.9530 C   0  0  0  0  0  0  0  0  0  0  0  0
   -2.8660    2.3610    2.0850 C   0  0  0  0  0  0  0  0  0  0  0  0
   -3.1150    3.8070    1.9290 C   0  0  0  0  0  0  0  0  0  0  0  0
   -3.5330    3.9010    0.5040 C   0  0  0  0  0  0  0  0  0  0  0  0
   -3.5160    2.6950   -0.0310 C   0  0  0  0  0  0  0  0  0  0  0  0
    0.8900   -0.3780   -1.1350 C   0  0  0  0  0  0  0  0  0  0  0  0
  1  2  1  0
  2  3  2  0
  2  7  1  0
  3  4  1  0
  4  5  1  0
  5  6  1  0
  6  7  2  0
  7  8  1  0
  8  9  1  1
  8 10  1  0
 10 11  1  1
 10 12  1  0
 10 30  1  0
 12 13  1  0
 13 14  1  6
 13 15  1  0
 15 16  1  0
 16 17  1  6
 16 18  1  0
 16 30  1  0
 18 19  1  6
 18 20  1  0
 20 21  1  6
 20 22  1  0
 22 23  1  6
 22 24  1  0
 22 25  1  0
 25 26  2  0
 25 29  1  0
 26 27  1  0
 27 28  1  0
 28 29  2  0
M  END
