
     RDKit          3D

 30 32  0  0  0  0  0  0  0  0999 V2000
    9.8350    0.5160    1.4410 C   0  0  0  0  0  0  0  0  0  0  0  0
    8.9790    0.1920    0.2530 C   0  0  0  0  0  0  0  0  0  0  0  0
    7.8880   -0.4920    0.4870 C   0  0  0  0  0  0  0  0  0  0  0  0
    6.9820   -0.8630   -0.5970 C   0  0  0  0  0  0  0  0  0  0  0  0
    5.6700   -0.7820   -0.4810 C   0  0  0  0  0  0  0  0  0  0  0  0
    5.0060   -0.3240    0.7160 C   0  0  0  0  0  0  0  0  0  0  0  0
    3.7050   -0.2250    0.8700 C   0  0  0  0  0  0  0  0  0  0  0  0
    3.2240    0.2350    2.0900 C   0  0  0  0  0  0  0  0  0  0  0  0
    1.9120    0.3650    2.3080 N   0  0  0  0  0  0  0  0  0  0  0  0
    0.9630    0.0570    1.3540 C   0  0  0  0  0  0  0  0  0  0  0  0
   -0.2700    0.2420    1.7170 C   0  0  0  0  0  0  0  0  0  0  0  0
   -1.4600    0.0120    0.9490 C   0  0  0  0  0  0  0  0  0  0  0  0
   -1.5180   -0.4140   -0.2160 O   0  0  0  0  0  0  0  0  0  0  0  0
   -2.7410    0.2990    1.5670 N   0  0  0  0  0  0  0  0  0  0  0  0
   -3.9680    0.0940    0.8330 C   0  0  0  0  0  0  0  0  0  0  0  0
   -4.0130    0.9600   -0.3810 C   0  0  0  0  0  0  0  0  0  0  0  0
   -5.2960    0.7610   -1.1410 C   0  0  0  0  0  0  0  0  0  0  0  0
   -5.6560    1.3910   -2.3090 C   0  0  0  0  0  0  0  0  0  0  0  0
   -6.9080    0.8860   -2.6170 C   0  0  0  0  0  0  0  0  0  0  0  0
   -7.2410   -0.0190   -1.6260 C   0  0  0  0  0  0  0  0  0  0  0  0
   -8.5190   -0.7740   -1.6060 C   0  0  0  0  0  0  0  0  0  0  0  0
   -9.5060    0.0740   -0.8330 C   0  0  0  0  0  0  0  0  0  0  0  0
  -10.7840   -0.6400   -0.7910 N   0  0  0  0  0  0  0  0  0  0  0  0
   -6.2530   -0.0610   -0.7700 O   0  0  0  0  0  0  0  0  0  0  0  0
    1.4730   -0.3890    0.1760 C   0  0  0  0  0  0  0  0  0  0  0  0
    0.7040   -0.7000   -0.7640 O   0  0  0  0  0  0  0  0  0  0  0  0
    2.8150   -0.5270   -0.0610 N   0  0  0  0  0  0  0  0  0  0  0  0
    7.5640   -1.3440   -1.8740 C   0  0  0  0  0  0  0  0  0  0  0  0
    8.6720   -0.0450   -2.4780 S   0  0  0  0  0  0  0  0  0  0  0  0
    9.4500    0.6800   -1.0420 C   0  0  0  0  0  0  0  0  0  0  0  0
  1  2  1  0
  2  3  2  0
  2 30  1  0
  3  4  1  0
  4  5  2  3
  4 28  1  0
  5  6  1  0
  6  7  2  3
  7  8  1  0
  7 27  1  0
  8  9  2  0
  9 10  1  0
 10 11  2  3
 10 25  1  0
 11 12  1  0
 12 13  2  0
 12 14  1  0
 14 15  1  0
 15 16  1  0
 16 17  1  0
 17 18  2  0
 17 24  1  0
 18 19  1  0
 19 20  2  0
 20 21  1  0
 20 24  1  0
 21 22  1  0
 22 23  1  0
 25 26  2  0
 25 27  1  0
 28 29  1  0
 29 30  1  0
M  CHG  1  23   1
M  END
