
     RDKit          3D

 30 32  0  0  0  0  0  0  0  0999 V2000
   -6.7310   -0.5940    0.9920 C   0  0  0  0  0  0  0  0  0  0  0  0
   -5.5530   -0.0510    1.3360 C   0  0  0  0  0  0  0  0  0  0  0  0
   -4.4510   -0.8720    1.9000 C   0  0  0  0  0  0  0  0  0  0  0  0
   -3.1890   -0.8270    1.0080 C   0  0  1  0  0  0  0  0  0  0  0  0
   -3.5750   -1.3560   -0.3100 C   0  0  0  0  0  0  0  0  0  0  0  0
   -2.5710   -1.9880   -1.1730 C   0  0  0  0  0  0  0  0  0  0  0  0
   -1.2870   -2.4250   -0.5650 C   0  0  0  0  0  0  0  0  0  0  0  0
   -0.2590   -2.6960   -1.6030 C   0  0  0  0  0  0  0  0  0  0  0  0
    0.6130   -1.5320   -1.9900 C   0  0  0  0  0  0  0  0  0  0  0  0
    1.4270   -0.9850   -0.8710 C   0  0  1  0  0  0  0  0  0  0  0  0
    2.9120   -1.1360   -1.1450 C   0  0  1  0  0  0  0  0  0  0  0  0
    3.2310   -0.4290   -2.3280 O   0  0  0  0  0  0  0  0  0  0  0  0
    3.7740   -0.7340   -0.0310 C   0  0  0  0  0  0  0  0  0  0  0  0
    4.5980   -1.5240    0.6220 C   0  0  0  0  0  0  0  0  0  0  0  0
    4.8810   -2.9780    0.4300 C   0  0  0  0  0  0  0  0  0  0  0  0
    5.2680   -0.7150    1.6670 C   0  0  0  0  0  0  0  0  0  0  0  0
    5.0780    0.6920    1.1450 C   0  0  1  0  0  0  0  0  0  0  0  0
    5.0550    1.7250    2.2310 C   0  0  0  0  0  0  0  0  0  0  0  0
    6.1810    1.0000    0.1250 C   0  0  0  0  0  0  0  0  0  0  0  0
    3.8310    0.5590    0.4860 O   0  0  0  0  0  0  0  0  0  0  0  0
    1.1710    0.4270   -0.4850 C   0  0  2  0  0  0  0  0  0  0  0  0
    1.2540    0.5070    0.9280 O   0  0  0  0  0  0  0  0  0  0  0  0
   -0.1080    1.0330   -0.9200 C   0  0  0  0  0  0  0  0  0  0  0  0
   -0.7710    1.8650    0.1380 C   0  0  0  0  0  0  0  0  0  0  0  0
   -2.2600    1.5050    0.3480 C   0  0  1  0  0  0  0  0  0  0  0  0
   -2.7570    2.8240    1.0110 C   0  0  0  0  0  0  0  0  0  0  0  0
   -2.6960    3.8610   -0.0610 C   0  0  0  0  0  0  0  0  0  0  0  0
   -2.7450    3.0810   -1.3540 C   0  0  0  0  0  0  0  0  0  0  0  0
   -3.0280    1.6240   -0.9120 C   0  0  0  0  0  0  0  0  0  0  0  0
   -2.4200    0.3680    1.2290 C   0  0  0  0  0  0  0  0  0  0  0  0
  1  2  2  0
  2  3  1  0
  4  3  1  1
  4  5  1  0
  4 30  1  0
  5  6  1  0
  6  7  1  0
  7  8  1  0
  8  9  1  0
 10  9  1  6
 10 11  1  0
 10 21  1  0
 11 12  1  6
 11 13  1  0
 13 14  2  0
 13 20  1  0
 14 15  1  0
 14 16  1  0
 16 17  1  0
 17 18  1  1
 17 19  1  0
 17 20  1  0
 21 22  1  1
 21 23  1  0
 23 24  1  0
 25 24  1  6
 25 26  1  0
 25 29  1  0
 25 30  1  0
 26 27  1  0
 27 28  1  0
 28 29  1  0
M  END
