
     RDKit          3D

 27 30  0  0  0  0  0  0  0  0999 V2000
    7.6770   -0.0630   -1.0820 C   0  0  0  0  0  0  0  0  0  0  0  0
    6.3500    0.0870   -0.4190 C   0  0  0  0  0  0  0  0  0  0  0  0
    5.9660    1.1870    0.2870 C   0  0  0  0  0  0  0  0  0  0  0  0
    4.7110    1.2430    0.8730 C   0  0  0  0  0  0  0  0  0  0  0  0
    3.8050    0.2020    0.7710 C   0  0  0  0  0  0  0  0  0  0  0  0
    2.5470    0.2950    1.3750 C   0  0  0  0  0  0  0  0  0  0  0  0
    1.6550   -0.7700    1.2540 C   0  0  0  0  0  0  0  0  0  0  0  0
    0.3050   -0.7470    1.8620 C   0  0  0  0  0  0  0  0  0  0  0  0
   -0.7480   -0.3610    0.9560 N   0  0  2  0  0  0  0  0  0  0  0  0
   -0.2660    0.3300   -0.1820 C   0  0  0  0  0  0  0  0  0  0  0  0
   -0.3920    1.8330   -0.0930 C   0  0  0  0  0  0  0  0  0  0  0  0
   -1.8130    2.2640    0.2120 C   0  0  0  0  0  0  0  0  0  0  0  0
   -2.6120    1.2620    0.9300 C   0  0  1  0  0  0  0  0  0  0  0  0
   -3.5260    0.4820    0.1470 N   0  0  0  0  0  0  0  0  0  0  0  0
   -4.9280    0.4440    0.3080 C   0  0  0  0  0  0  0  0  0  0  0  0
   -5.3850    1.1710    1.2290 O   0  0  0  0  0  0  0  0  0  0  0  0
   -5.8190   -0.3570   -0.5050 C   0  0  0  0  0  0  0  0  0  0  0  0
   -7.1880   -0.4090   -0.3840 C   0  0  0  0  0  0  0  0  0  0  0  0
   -7.6500   -1.2730   -1.3290 N   0  0  0  0  0  0  0  0  0  0  0  0
   -6.6390   -1.7610   -2.0300 N   0  0  0  0  0  0  0  0  0  0  0  0
   -5.5070   -1.2040   -1.5310 C   0  0  0  0  0  0  0  0  0  0  0  0
   -4.3710   -1.4770   -1.9980 O   0  0  0  0  0  0  0  0  0  0  0  0
   -1.7260    0.3640    1.7290 C   0  0  0  0  0  0  0  0  0  0  0  0
    2.0600   -1.8750    0.5370 C   0  0  0  0  0  0  0  0  0  0  0  0
    3.3050   -1.9490   -0.0530 C   0  0  0  0  0  0  0  0  0  0  0  0
    4.2050   -0.9060    0.0540 C   0  0  0  0  0  0  0  0  0  0  0  0
    5.4590   -0.9600   -0.5300 C   0  0  0  0  0  0  0  0  0  0  0  0
  1  2  1  0
  2  3  2  0
  2 27  1  0
  3  4  1  0
  4  5  2  0
  5  6  1  0
  5 26  1  0
  6  7  2  0
  7  8  1  0
  7 24  1  0
  9  8  1  1
  9 10  1  0
  9 23  1  0
 10 11  1  0
 11 12  1  0
 12 13  1  0
 13 14  1  6
 13 23  1  0
 14 15  1  0
 15 16  2  0
 15 17  1  0
 17 18  2  0
 17 21  1  0
 18 19  1  0
 19 20  1  0
 20 21  1  0
 21 22  2  0
 24 25  2  0
 25 26  1  0
 26 27  2  0
M  CHG  1   9   1
M  END
