
     RDKit          3D

 27 30  0  0  0  0  0  0  0  0999 V2000
    5.1480   -1.7130    0.4160 C   0  0  0  0  0  0  0  0  0  0  0  0
    3.7750   -1.4400    0.0520 N   0  0  0  0  0  0  0  0  0  0  0  0
    3.2080   -0.3680    0.8910 C   0  0  1  0  0  0  0  0  0  0  0  0
    3.3220    0.8870    0.1740 C   0  0  0  0  0  0  0  0  0  0  0  0
    2.2340    1.1800   -0.8040 C   0  0  0  0  0  0  0  0  0  0  0  0
    2.5140    2.1460   -1.9150 C   0  0  0  0  0  0  0  0  0  0  0  0
    1.0570    0.6110   -0.6800 C   0  0  0  0  0  0  0  0  0  0  0  0
    0.7500   -0.3290    0.4030 C   0  0  0  0  0  0  0  0  0  0  0  0
   -0.4490   -0.8430    0.6000 C   0  0  0  0  0  0  0  0  0  0  0  0
   -0.7540   -1.7700    1.6760 C   0  0  0  0  0  0  0  0  0  0  0  0
   -2.1020   -2.3750    1.8630 C   0  0  0  0  0  0  0  0  0  0  0  0
    0.1040   -2.1180    2.5120 O   0  0  0  0  0  0  0  0  0  0  0  0
   -1.5690   -0.4850   -0.2860 C   0  0  1  0  0  0  0  0  0  0  0  0
   -2.7090    0.0870    0.4960 C   0  0  0  0  0  0  0  0  0  0  0  0
   -2.5840    1.0740    1.4440 C   0  0  0  0  0  0  0  0  0  0  0  0
   -1.3560    1.7780    1.8830 C   0  0  0  0  0  0  0  0  0  0  0  0
   -3.8200    1.2910    1.9160 N   0  0  0  0  0  0  0  0  0  0  0  0
   -4.6840    0.5050    1.3210 N   0  0  0  0  0  0  0  0  0  0  0  0
   -4.0200   -0.2690    0.4200 C   0  0  0  0  0  0  0  0  0  0  0  0
   -4.6600   -1.3020   -0.4310 C   0  0  0  0  0  0  0  0  0  0  0  0
   -1.2370    0.4550   -1.3710 C   0  0  0  0  0  0  0  0  0  0  0  0
   -0.0660    0.9740   -1.5880 C   0  0  0  0  0  0  0  0  0  0  0  0
   -0.0430    1.8210   -2.7830 C   0  0  0  0  0  0  0  0  0  0  0  0
   -1.4450    1.8900   -3.1500 N   0  0  0  0  0  0  0  0  0  0  0  0
   -2.1850    1.0070   -2.3560 C   0  0  0  0  0  0  0  0  0  0  0  0
   -3.4370    0.7340   -2.4670 O   0  0  0  0  0  0  0  0  0  0  0  0
    1.8430   -0.8030    1.2740 C   0  0  0  0  0  0  0  0  0  0  0  0
  1  2  1  0
  3  2  1  6
  3  4  1  0
  3 27  1  0
  4  5  1  0
  5  6  1  0
  5  7  2  0
  7  8  1  0
  7 22  1  0
  8  9  2  0
  8 27  1  0
  9 10  1  0
  9 13  1  0
 10 11  1  0
 10 12  2  0
 13 14  1  1
 13 21  1  0
 14 15  1  0
 14 19  2  0
 15 16  1  0
 15 17  2  0
 17 18  1  0
 18 19  1  0
 19 20  1  0
 21 22  2  0
 21 25  1  0
 22 23  1  0
 23 24  1  0
 24 25  1  0
 25 26  2  0
M  CHG  1   2   1
M  END
