
     RDKit          3D

 27 29  0  0  0  0  0  0  0  0999 V2000
    3.7170    0.9450   -2.5750 N   0  0  0  0  0  0  0  0  0  0  0  0
    3.2980   -0.2070   -1.8410 C   0  0  0  0  0  0  0  0  0  0  0  0
    2.5250   -1.0130   -2.4050 O   0  0  0  0  0  0  0  0  0  0  0  0
    3.7860   -0.3610   -0.5240 N   0  0  0  0  0  0  0  0  0  0  0  0
    3.4110   -1.4830    0.2780 C   0  0  0  0  0  0  0  0  0  0  0  0
    1.8840   -1.4970    0.5030 C   0  0  2  0  0  0  0  0  0  0  0  0
    1.4220   -0.2630    1.1700 C   0  0  0  0  0  0  0  0  0  0  0  0
    0.5300    0.5950    0.4420 N   0  0  0  0  0  0  0  0  0  0  0  0
    0.6970    1.9980    0.6330 C   0  0  0  0  0  0  0  0  0  0  0  0
    0.2120    2.6140    1.7480 C   0  0  0  0  0  0  0  0  0  0  0  0
    0.3570    3.9890    1.9610 C   0  0  0  0  0  0  0  0  0  0  0  0
    1.0150    4.6980    0.9920 C   0  0  0  0  0  0  0  0  0  0  0  0
    1.4980    4.0670   -0.1250 C   0  0  0  0  0  0  0  0  0  0  0  0
    1.3330    2.7200   -0.2920 N   0  0  0  0  0  0  0  0  0  0  0  0
   -0.5100    0.1950   -0.4830 C   0  0  0  0  0  0  0  0  0  0  0  0
   -1.8590    0.0340    0.1210 C   0  0  1  0  0  0  0  0  0  0  0  0
   -2.6830    1.3410   -0.0170 C   0  0  0  0  0  0  0  0  0  0  0  0
   -2.7510    1.7870   -1.4450 C   0  0  0  0  0  0  0  0  0  0  0  0
   -2.8780    0.6210   -2.3930 C   0  0  0  0  0  0  0  0  0  0  0  0
   -3.2120   -0.6570   -1.7120 C   0  0  0  0  0  0  0  0  0  0  0  0
   -2.7390   -0.9850   -0.4920 C   0  0  0  0  0  0  0  0  0  0  0  0
   -3.1880   -2.2430    0.0640 C   0  0  0  0  0  0  0  0  0  0  0  0
   -2.5210   -3.3080    0.4340 C   0  0  0  0  0  0  0  0  0  0  0  0
   -1.0660   -3.5700    0.3940 C   0  0  0  0  0  0  0  0  0  0  0  0
   -0.4420   -3.7370    1.7540 C   0  0  0  0  0  0  0  0  0  0  0  0
    0.4820   -2.5390    1.9330 C   0  0  0  0  0  0  0  0  0  0  0  0
    1.6670   -2.6100    1.2930 O   0  0  0  0  0  0  0  0  0  0  0  0
  1  2  1  0
  2  3  2  0
  2  4  1  0
  4  5  1  0
  6  5  1  1
  6  7  1  0
  6 27  1  0
  7  8  1  0
  8  9  1  0
  8 15  1  0
  9 10  2  0
  9 14  1  0
 10 11  1  0
 11 12  2  0
 12 13  1  0
 13 14  2  0
 16 15  1  6
 16 17  1  0
 16 21  1  0
 17 18  1  0
 18 19  1  0
 19 20  1  0
 20 21  2  0
 21 22  1  0
 22 23  2  0
 23 24  1  0
 24 25  1  0
 25 26  1  0
 26 27  1  0
M  CHG  1  14   1
M  END
