
     RDKit          3D

 27 30  0  0  0  0  0  0  0  0999 V2000
   -6.4990    2.2700    2.0640 C   0  0  0  0  0  0  0  0  0  0  0  0
   -5.2900    1.7690    1.3750 C   0  0  0  0  0  0  0  0  0  0  0  0
   -4.2460    2.6140    1.0870 C   0  0  0  0  0  0  0  0  0  0  0  0
   -3.1490    2.0850    0.4440 C   0  0  0  0  0  0  0  0  0  0  0  0
   -2.1040    2.9220    0.1540 C   0  0  0  0  0  0  0  0  0  0  0  0
   -0.9980    2.4150   -0.4870 C   0  0  0  0  0  0  0  0  0  0  0  0
   -0.9710    1.1350   -0.8070 N   0  0  0  0  0  0  0  0  0  0  0  0
   -1.9560    0.2390   -0.5580 C   0  0  0  0  0  0  0  0  0  0  0  0
   -1.8260   -1.1050   -0.9590 N   0  0  0  0  0  0  0  0  0  0  0  0
   -0.6440   -1.6220   -1.6190 C   0  0  2  0  0  0  0  0  0  0  0  0
   -0.9490   -3.0520   -2.0470 C   0  0  0  0  0  0  0  0  0  0  0  0
    0.0680   -3.5330   -3.0610 C   0  0  0  0  0  0  0  0  0  0  0  0
    1.2740   -2.7570   -2.8490 N   0  0  0  0  0  0  0  0  0  0  0  0
    1.5050   -2.6890   -1.4200 C   0  0  0  0  0  0  0  0  0  0  0  0
    0.5980   -1.6060   -0.7810 C   0  0  1  0  0  0  0  0  0  0  0  0
    1.3440   -0.4560   -0.8280 O   0  0  0  0  0  0  0  0  0  0  0  0
    1.7530   -0.1030    0.4640 C   0  0  0  0  0  0  0  0  0  0  0  0
    2.5690    1.1470    0.4670 C   0  0  2  0  0  0  0  0  0  0  0  0
    3.8130    0.9930   -0.3690 C   0  0  0  0  0  0  0  0  0  0  0  0
    4.7190    0.0150    0.3580 C   0  0  0  0  0  0  0  0  0  0  0  0
    5.1000    0.5460    1.7120 C   0  0  0  0  0  0  0  0  0  0  0  0
    3.9400    0.9370    2.5600 C   0  0  0  0  0  0  0  0  0  0  0  0
    2.8360    1.6280    1.8480 C   0  0  0  0  0  0  0  0  0  0  0  0
   -3.0660    0.7400    0.0830 C   0  0  0  0  0  0  0  0  0  0  0  0
   -4.1000   -0.0440    0.3820 N   0  0  0  0  0  0  0  0  0  0  0  0
   -5.1930    0.4570    1.0150 C   0  0  0  0  0  0  0  0  0  0  0  0
   -6.1310   -0.3750    1.2570 O   0  0  0  0  0  0  0  0  0  0  0  0
  1  2  1  0
  2  3  2  0
  2 26  1  0
  3  4  1  0
  4  5  2  0
  4 24  1  0
  5  6  1  0
  6  7  2  0
  7  8  1  0
  8  9  1  0
  8 24  2  0
 10  9  1  1
 10 11  1  0
 10 15  1  0
 11 12  1  0
 12 13  1  0
 13 14  1  0
 14 15  1  0
 15 16  1  6
 16 17  1  0
 18 17  1  1
 18 19  1  0
 18 23  1  0
 19 20  1  0
 20 21  1  0
 21 22  1  0
 22 23  1  0
 24 25  1  0
 25 26  1  0
 26 27  2  0
M  CHG  1  13   1
M  END
