
     RDKit          3D

 27 30  0  0  0  0  0  0  0  0999 V2000
   -7.7030    1.4340   -0.3370 C   0  0  0  0  0  0  0  0  0  0  0  0
   -7.3350    0.0970    0.2700 C   0  0  0  0  0  0  0  0  0  0  0  0
   -6.0720   -0.3940   -0.2720 N   0  0  1  0  0  0  0  0  0  0  0  0
   -5.1890    0.7340   -0.5370 C   0  0  0  0  0  0  0  0  0  0  0  0
   -4.5170    1.0920    0.8040 C   0  0  0  0  0  0  0  0  0  0  0  0
   -3.3280    0.0860    0.9650 C   0  0  2  0  0  0  0  0  0  0  0  0
   -2.1850    0.7390    0.3080 C   0  0  0  0  0  0  0  0  0  0  0  0
   -0.9370    0.1990    0.2420 O   0  0  0  0  0  0  0  0  0  0  0  0
   -0.4600   -0.9750   -0.2480 C   0  0  0  0  0  0  0  0  0  0  0  0
   -1.2600   -1.7880   -0.7400 O   0  0  0  0  0  0  0  0  0  0  0  0
    1.0040   -1.3320   -0.2330 C   0  0  2  0  0  0  0  0  0  0  0  0
    1.1680   -2.6610   -0.8670 N   0  0  0  0  0  0  0  0  0  0  0  0
    1.6630   -1.3310    1.0680 C   0  0  0  0  0  0  0  0  0  0  0  0
    3.0260   -0.7100    1.1300 C   0  0  0  0  0  0  0  0  0  0  0  0
    3.7950   -0.8600   -0.1390 C   0  0  2  0  0  0  0  0  0  0  0  0
    5.2190   -0.5790   -0.0010 C   0  0  0  0  0  0  0  0  0  0  0  0
    6.1750   -1.4630    0.3400 N   0  0  0  0  0  0  0  0  0  0  0  0
    7.3740   -0.8740    0.2170 N   0  0  0  0  0  0  0  0  0  0  0  0
    7.2140    0.4080   -0.2030 C   0  0  0  0  0  0  0  0  0  0  0  0
    5.8740    0.6010   -0.3440 C   0  0  0  0  0  0  0  0  0  0  0  0
    5.6270    2.0350   -0.7090 C   0  0  0  0  0  0  0  0  0  0  0  0
    6.9660    2.5250   -1.1960 C   0  0  0  0  0  0  0  0  0  0  0  0
    7.9800    1.6210   -0.5510 C   0  0  0  0  0  0  0  0  0  0  0  0
    3.0970   -0.4460   -1.3510 C   0  0  0  0  0  0  0  0  0  0  0  0
    1.6180   -0.3350   -1.1840 C   0  0  0  0  0  0  0  0  0  0  0  0
   -3.8500   -1.1730    0.3970 C   0  0  0  0  0  0  0  0  0  0  0  0
   -5.3700   -1.2590    0.6530 C   0  0  0  0  0  0  0  0  0  0  0  0
  1  2  1  0
  3  2  1  1
  3  4  1  0
  3 27  1  0
  4  5  1  0
  5  6  1  0
  6  7  1  6
  6 26  1  0
  7  8  1  0
  8  9  1  0
  9 10  2  0
  9 11  1  0
 11 12  1  6
 11 13  1  0
 11 25  1  0
 13 14  1  0
 14 15  1  0
 15 16  1  1
 15 24  1  0
 16 17  1  0
 16 20  2  0
 17 18  1  0
 18 19  2  0
 19 20  1  0
 19 23  1  0
 20 21  1  0
 21 22  1  0
 22 23  1  0
 24 25  1  0
 26 27  1  0
M  CHG  1   3   1
M  END
