
     RDKit          3D

 27 29  0  0  0  0  0  0  0  0999 V2000
   -1.1150    2.8360   -0.8580 C   0  0  0  0  0  0  0  0  0  0  0  0
   -1.5480    1.5200   -0.5990 C   0  0  0  0  0  0  0  0  0  0  0  0
   -0.4640    0.6990   -0.2590 C   0  0  0  0  0  0  0  0  0  0  0  0
   -0.1310   -0.5350    0.0350 C   0  0  0  0  0  0  0  0  0  0  0  0
    1.3060   -0.8300    0.3420 C   0  0  0  0  0  0  0  0  0  0  0  0
    1.8550   -1.9300   -0.0940 C   0  0  0  0  0  0  0  0  0  0  0  0
    3.2770   -2.2650    0.1840 C   0  0  2  0  0  0  0  0  0  0  0  0
    3.2780   -3.4550    1.0550 N   0  0  0  0  0  0  0  0  0  0  0  0
    3.9130   -1.1730    0.9380 C   0  0  0  0  0  0  0  0  0  0  0  0
    4.1670   -1.3410    2.1560 O   0  0  0  0  0  0  0  0  0  0  0  0
    4.2590    0.0820    0.3320 N   0  0  0  0  0  0  0  0  0  0  0  0
    4.0800    0.5100   -1.0360 C   0  0  0  0  0  0  0  0  0  0  0  0
    3.7520    1.9790   -0.8710 C   0  0  0  0  0  0  0  0  0  0  0  0
    4.8510    2.3750    0.1210 C   0  0  1  0  0  0  0  0  0  0  0  0
    4.5230    3.6040    0.8060 N   0  0  0  0  0  0  0  0  0  0  0  0
    4.8850    1.1900    1.0250 C   0  0  0  0  0  0  0  0  0  0  0  0
    0.9950   -2.8730   -0.8770 C   0  0  0  0  0  0  0  0  0  0  0  0
   -0.3050   -3.0480   -0.0700 C   0  0  0  0  0  0  0  0  0  0  0  0
   -1.0170   -1.7120    0.0490 C   0  0  0  0  0  0  0  0  0  0  0  0
   -2.9340    1.3850   -0.7720 C   0  0  0  0  0  0  0  0  0  0  0  0
   -3.4330    2.5790   -1.2950 O   0  0  0  0  0  0  0  0  0  0  0  0
   -3.9880    0.4930   -0.6050 N   0  0  0  0  0  0  0  0  0  0  0  0
   -4.2100   -0.7640   -0.0020 C   0  0  0  0  0  0  0  0  0  0  0  0
   -5.6680   -0.7580    0.4560 C   0  0  0  0  0  0  0  0  0  0  0  0
   -6.2240    0.5710   -0.0630 C   0  0  1  0  0  0  0  0  0  0  0  0
   -5.9440    1.6740    0.9320 C   0  0  0  0  0  0  0  0  0  0  0  0
   -5.3190    0.7940   -1.2530 C   0  0  0  0  0  0  0  0  0  0  0  0
  1  2  2  0
  2  3  1  0
  2 20  1  0
  3  4  2  3
  4  5  1  0
  4 19  1  0
  5  6  2  0
  6  7  1  0
  6 17  1  0
  7  8  1  1
  7  9  1  0
  9 10  2  0
  9 11  1  0
 11 12  1  0
 11 16  1  0
 12 13  1  0
 13 14  1  0
 14 15  1  1
 14 16  1  0
 17 18  1  0
 18 19  1  0
 20 21  2  0
 20 22  1  0
 22 23  1  0
 22 27  1  0
 23 24  1  0
 24 25  1  0
 25 26  1  1
 25 27  1  0
M  CHG  1   8   1
M  END
