
     RDKit          3D

 27 30  0  0  0  0  0  0  0  0999 V2000
    5.6770   -1.6030    1.4190 C   0  0  0  0  0  0  0  0  0  0  0  0
    5.1770   -0.2380    1.3520 N   0  0  1  0  0  0  0  0  0  0  0  0
    6.2740    0.6340    1.6950 C   0  0  0  0  0  0  0  0  0  0  0  0
    4.6330   -0.0010    0.0490 C   0  0  2  0  0  0  0  0  0  0  0  0
    5.4440   -0.7220   -1.0120 C   0  0  0  0  0  0  0  0  0  0  0  0
    4.5380    1.4670   -0.3160 C   0  0  0  0  0  0  0  0  0  0  0  0
    3.1320    1.6000   -0.9220 C   0  0  0  0  0  0  0  0  0  0  0  0
    2.3730    0.6770    0.0160 C   0  0  1  0  0  0  0  0  0  0  0  0
    1.0490    0.3990   -0.4400 N   0  0  0  0  0  0  0  0  0  0  0  0
   -0.0950    0.6750    0.3840 C   0  0  0  0  0  0  0  0  0  0  0  0
    0.0550    1.1680    1.5240 O   0  0  0  0  0  0  0  0  0  0  0  0
   -1.3750    0.3740   -0.1340 N   0  0  0  0  0  0  0  0  0  0  0  0
   -2.6160    0.5680    0.5310 C   0  0  0  0  0  0  0  0  0  0  0  0
   -2.6370    1.0150    1.8140 C   0  0  0  0  0  0  0  0  0  0  0  0
   -3.8350    1.2040    2.4970 C   0  0  0  0  0  0  0  0  0  0  0  0
   -4.9970    0.9300    1.8510 C   0  0  0  0  0  0  0  0  0  0  0  0
   -6.2810    1.0150    2.2690 N   0  0  0  0  0  0  0  0  0  0  0  0
   -7.1040    0.6380    1.3020 C   0  0  0  0  0  0  0  0  0  0  0  0
   -6.3070    0.2950    0.2140 C   0  0  0  0  0  0  0  0  0  0  0  0
   -4.9890    0.4720    0.5360 C   0  0  0  0  0  0  0  0  0  0  0  0
   -3.8210    0.2790   -0.1560 C   0  0  0  0  0  0  0  0  0  0  0  0
   -3.6860   -0.1920   -1.5130 C   0  0  2  0  0  0  0  0  0  0  0  0
   -4.8320   -0.2680   -2.4410 C   0  0  0  0  0  0  0  0  0  0  0  0
   -5.1930   -1.7170   -2.3930 C   0  0  0  0  0  0  0  0  0  0  0  0
   -3.8880   -2.3690   -2.0390 C   0  0  0  0  0  0  0  0  0  0  0  0
   -3.0460   -1.4370   -1.5930 O   0  0  0  0  0  0  0  0  0  0  0  0
    3.2340   -0.5650   -0.0050 C   0  0  0  0  0  0  0  0  0  0  0  0
  2  1  1  6
  2  3  1  0
  2  4  1  0
  4  5  1  6
  4  6  1  0
  4 27  1  0
  6  7  1  0
  7  8  1  0
  8  9  1  6
  8 27  1  0
  9 10  1  0
 10 11  2  0
 10 12  1  0
 12 13  1  0
 13 14  2  0
 13 21  1  0
 14 15  1  0
 15 16  2  0
 16 17  1  0
 16 20  1  0
 17 18  1  0
 18 19  2  0
 19 20  1  0
 20 21  2  0
 22 21  1  1
 22 23  1  0
 22 26  1  0
 23 24  1  0
 24 25  1  0
 25 26  1  0
M  CHG  1   2   1
M  END
