
     RDKit          3D

 27 30  0  0  0  0  0  0  0  0999 V2000
   -2.3910    4.5560    0.0820 N   0  0  0  0  0  0  0  0  0  0  0  0
   -2.8340    3.1940    0.2810 C   0  0  0  0  0  0  0  0  0  0  0  0
   -4.0820    2.9200    0.6000 C   0  0  0  0  0  0  0  0  0  0  0  0
   -4.4050    1.5110    0.7590 C   0  0  0  0  0  0  0  0  0  0  0  0
   -3.5540    0.5030    0.5880 C   0  0  0  0  0  0  0  0  0  0  0  0
   -4.0920   -0.8710    0.8240 C   0  0  0  0  0  0  0  0  0  0  0  0
   -4.1260   -1.7810   -0.2440 N   0  0  0  0  0  0  0  0  0  0  0  0
   -2.1890    0.7980    0.1250 C   0  0  2  0  0  0  0  0  0  0  0  0
   -2.1060    0.3940   -1.3600 C   0  0  0  0  0  0  0  0  0  0  0  0
   -1.4510   -0.9170   -1.3030 C   0  0  0  0  0  0  0  0  0  0  0  0
   -1.5750   -1.8840   -2.1500 O   0  0  0  0  0  0  0  0  0  0  0  0
   -0.6400   -0.9480   -0.1320 N   0  0  0  0  0  0  0  0  0  0  0  0
    0.4880   -1.8000    0.0300 C   0  0  0  0  0  0  0  0  0  0  0  0
    1.8070   -1.3710   -0.4390 C   0  0  2  0  0  0  0  0  0  0  0  0
    2.4330   -0.1520    0.1140 C   0  0  2  0  0  0  0  0  0  0  0  0
    2.6320   -0.1650    1.6130 C   0  0  0  0  0  0  0  0  0  0  0  0
    3.7920    0.8000    1.9010 C   0  0  0  0  0  0  0  0  0  0  0  0
    3.3520    2.1710    1.4390 C   0  0  0  0  0  0  0  0  0  0  0  0
    2.0050    2.1610    0.7930 C   0  0  0  0  0  0  0  0  0  0  0  0
    1.9010    1.1570   -0.3410 C   0  0  0  0  0  0  0  0  0  0  0  0
    1.9440   -1.3490   -1.9520 C   0  0  0  0  0  0  0  0  0  0  0  0
    2.0890   -2.7730   -2.3810 C   0  0  0  0  0  0  0  0  0  0  0  0
    2.4220   -3.5860   -1.1530 C   0  0  0  0  0  0  0  0  0  0  0  0
    2.7830   -2.5300   -0.1280 C   0  0  0  0  0  0  0  0  0  0  0  0
   -1.1780   -0.0560    0.8100 C   0  0  0  0  0  0  0  0  0  0  0  0
   -0.9200    0.0730    2.0270 O   0  0  0  0  0  0  0  0  0  0  0  0
   -1.8650    2.1840    0.2380 N   0  0  0  0  0  0  0  0  0  0  0  0
  1  2  1  0
  2  3  2  0
  2 27  1  0
  3  4  1  0
  4  5  2  0
  5  6  1  0
  5  8  1  0
  6  7  1  0
  8  9  1  6
  8 25  1  0
  8 27  1  0
  9 10  1  0
 10 11  2  0
 10 12  1  0
 12 13  1  0
 12 25  1  0
 14 13  1  6
 14 15  1  0
 14 21  1  0
 14 24  1  0
 15 16  1  1
 15 20  1  0
 16 17  1  0
 17 18  1  0
 18 19  1  0
 19 20  1  0
 21 22  1  0
 22 23  1  0
 23 24  1  0
 25 26  2  0
M  CHG  1   7   1
M  END
