
     RDKit          3D

 27 30  0  0  0  0  0  0  0  0999 V2000
    6.8770   -0.6300    2.4460 C   0  0  0  0  0  0  0  0  0  0  0  0
    6.3040   -0.8740    1.2760 C   0  0  0  0  0  0  0  0  0  0  0  0
    5.9340    0.2060    0.3220 C   0  0  0  0  0  0  0  0  0  0  0  0
    4.4900    0.1450    0.1000 N   0  0  0  0  0  0  0  0  0  0  0  0
    3.4910    0.8400    0.8630 C   0  0  0  0  0  0  0  0  0  0  0  0
    3.6620    1.6120    1.8430 O   0  0  0  0  0  0  0  0  0  0  0  0
    2.1830    0.5160    0.3280 C   0  0  0  0  0  0  0  0  0  0  0  0
    0.8750    0.4420    0.5290 C   0  0  0  0  0  0  0  0  0  0  0  0
    0.1790    0.7720    1.7330 N   0  0  0  0  0  0  0  0  0  0  0  0
    0.2850   -0.0490   -0.7610 C   0  0  2  0  0  0  0  0  0  0  0  0
   -0.9630   -0.8130   -0.5720 C   0  0  0  0  0  0  0  0  0  0  0  0
   -2.2180   -0.0640   -0.3340 C   0  0  0  0  0  0  0  0  0  0  0  0
   -2.1650    1.2570   -0.3210 C   0  0  0  0  0  0  0  0  0  0  0  0
   -3.2530    2.2370   -0.1110 C   0  0  0  0  0  0  0  0  0  0  0  0
   -2.9050    3.5510    0.4750 C   0  0  0  0  0  0  0  0  0  0  0  0
   -4.5090    1.9610   -0.4430 C   0  0  0  0  0  0  0  0  0  0  0  0
   -5.1170    0.7470   -1.0460 C   0  0  0  0  0  0  0  0  0  0  0  0
   -4.8160   -0.4720   -0.2580 C   0  0  2  0  0  0  0  0  0  0  0  0
   -5.5190   -0.3660    1.0810 C   0  0  0  0  0  0  0  0  0  0  0  0
   -3.4180   -0.8010   -0.1040 N   0  0  0  0  0  0  0  0  0  0  0  0
   -0.9210   -2.1280   -0.6120 C   0  0  0  0  0  0  0  0  0  0  0  0
    0.3180   -2.9310   -0.8380 C   0  0  0  0  0  0  0  0  0  0  0  0
    1.4810   -2.0470   -0.4490 C   0  0  0  0  0  0  0  0  0  0  0  0
    1.3700   -0.8740   -1.2690 N   0  0  2  0  0  0  0  0  0  0  0  0
    2.4840    0.0410   -1.0780 C   0  0  2  0  0  0  0  0  0  0  0  0
    3.7830   -0.5920   -0.8900 C   0  0  0  0  0  0  0  0  0  0  0  0
    4.3070   -1.6150   -1.4420 O   0  0  0  0  0  0  0  0  0  0  0  0
  1  2  2  0
  2  3  1  0
  3  4  1  0
  4  5  1  0
  4 26  1  0
  5  6  2  0
  5  7  1  0
  7  8  2  0
  7 25  1  0
  8  9  1  0
 10  8  1  1
 10 11  1  0
 10 24  1  0
 11 12  1  0
 11 21  2  0
 12 13  2  0
 12 20  1  0
 13 14  1  0
 14 15  1  0
 14 16  2  0
 16 17  1  0
 17 18  1  0
 18 19  1  1
 18 20  1  0
 21 22  1  0
 22 23  1  0
 24 23  1  1
 24 25  1  0
 25 26  1  1
 26 27  2  0
M  CHG  1  24   1
M  END
