
     RDKit          3D

 25 27  0  0  0  0  0  0  0  0999 V2000
   -4.1800    2.3160    1.0010 C   0  0  0  0  0  0  0  0  0  0  0  0
   -4.2190    0.9980    0.9210 C   0  0  0  0  0  0  0  0  0  0  0  0
   -5.5290    0.4810    0.4600 C   0  0  0  0  0  0  0  0  0  0  0  0
   -5.4300   -0.7990   -0.3180 C   0  0  0  0  0  0  0  0  0  0  0  0
   -4.4330   -1.7620    0.2170 C   0  0  0  0  0  0  0  0  0  0  0  0
   -3.0450   -1.5970   -0.3410 C   0  0  0  0  0  0  0  0  0  0  0  0
   -2.3940   -0.3030    0.0280 C   0  0  2  0  0  0  0  0  0  0  0  0
   -0.9450   -0.4190    0.1240 N   0  0  0  0  0  0  0  0  0  0  0  0
   -0.0880    0.3540   -0.7590 C   0  0  0  0  0  0  0  0  0  0  0  0
   -0.6550    1.1040   -1.5830 O   0  0  0  0  0  0  0  0  0  0  0  0
    1.3200    0.2480   -0.6740 N   0  0  0  0  0  0  0  0  0  0  0  0
    2.2530    0.9440   -1.4720 C   0  0  0  0  0  0  0  0  0  0  0  0
    1.9350    1.8350   -2.4580 C   0  0  0  0  0  0  0  0  0  0  0  0
    2.8800    2.4900   -3.2110 N   0  0  0  0  0  0  0  0  0  0  0  0
    4.1790    2.2670   -2.9920 C   0  0  0  0  0  0  0  0  0  0  0  0
    4.5180    1.3730   -2.0030 C   0  0  0  0  0  0  0  0  0  0  0  0
    3.6060    0.6990   -1.2300 C   0  0  0  0  0  0  0  0  0  0  0  0
    3.9600   -0.2140   -0.2190 N   0  0  0  0  0  0  0  0  0  0  0  0
    3.8630   -1.5560   -0.2280 C   0  0  0  0  0  0  0  0  0  0  0  0
    4.3340   -2.0210    0.9860 C   0  0  0  0  0  0  0  0  0  0  0  0
    4.7110   -0.9580    1.7180 N   0  0  0  0  0  0  0  0  0  0  0  0
    5.2640   -1.0530    3.0710 C   0  0  0  0  0  0  0  0  0  0  0  0
    4.4860    0.1420    0.9900 C   0  0  0  0  0  0  0  0  0  0  0  0
    4.7350    1.3060    1.3970 O   0  0  0  0  0  0  0  0  0  0  0  0
   -2.9680    0.2930    1.3010 C   0  0  0  0  0  0  0  0  0  0  0  0
  1  2  2  0
  2  3  1  0
  2 25  1  0
  3  4  1  0
  4  5  1  0
  5  6  1  0
  6  7  1  0
  7  8  1  1
  7 25  1  0
  8  9  1  0
  9 10  2  0
  9 11  1  0
 11 12  1  0
 12 13  2  0
 12 17  1  0
 13 14  1  0
 14 15  2  0
 15 16  1  0
 16 17  2  0
 17 18  1  0
 18 19  1  0
 18 23  1  0
 19 20  2  0
 20 21  1  0
 21 22  1  0
 21 23  1  0
 23 24  2  0
M  END
