
     RDKit          3D

 13 13  0  0  0  0  0  0  0  0999 V2000
   -4.5740    0.3600    0.4540 C   0  0  0  0  0  0  0  0  0  0  0  0
   -3.7440    0.2440   -0.6610 O   0  0  0  0  0  0  0  0  0  0  0  0
   -2.4000    0.3110   -0.2930 C   0  0  0  0  0  0  0  0  0  0  0  0
   -1.4830    0.1890   -1.4740 C   0  0  0  0  0  0  0  0  0  0  0  0
   -0.0910    0.2650   -1.0530 N   0  0  0  0  0  0  0  0  0  0  0  0
    0.5000   -0.6630   -0.1780 C   0  0  0  0  0  0  0  0  0  0  0  0
   -0.2580   -1.5900    0.2270 O   0  0  0  0  0  0  0  0  0  0  0  0
    1.8960   -0.5810    0.2480 C   0  0  0  0  0  0  0  0  0  0  0  0
    2.7570    0.2870   -0.0790 C   0  0  0  0  0  0  0  0  0  0  0  0
    2.5490    1.3880   -0.9450 O   0  0  0  0  0  0  0  0  0  0  0  0
    4.1260    0.1800    0.4730 C   0  0  0  0  0  0  0  0  0  0  0  0
    4.1660   -1.6010    0.9120 S   0  0  0  0  0  0  0  0  0  0  0  0
    2.3730   -1.6460    1.1840 C   0  0  0  0  0  0  0  0  0  0  0  0
  1  2  1  0
  2  3  1  0
  3  4  1  0
  4  5  1  0
  5  6  1  0
  6  7  2  0
  6  8  1  0
  8  9  2  0
  8 13  1  0
  9 10  1  0
  9 11  1  0
 11 12  1  0
 12 13  1  0
M  END
