
     RDKit          3D

 24 27  0  0  0  0  0  0  0  0999 V2000
    1.8400    2.1200   -1.2370 C   0  0  0  0  0  0  0  0  0  0  0  0
    3.1490    2.3660   -1.4140 N   0  0  0  0  0  0  0  0  0  0  0  0
    4.0840    1.5470   -0.9130 C   0  0  0  0  0  0  0  0  0  0  0  0
    3.6660    0.4440   -0.2090 C   0  0  0  0  0  0  0  0  0  0  0  0
    2.3100    0.1990   -0.0320 C   0  0  0  0  0  0  0  0  0  0  0  0
    1.8920   -0.9450    0.7050 N   0  0  0  0  0  0  0  0  0  0  0  0
    0.4890   -1.2120    0.8900 C   0  0  0  0  0  0  0  0  0  0  0  0
   -0.2100   -1.4720   -0.4010 C   0  0  0  0  0  0  0  0  0  0  0  0
   -1.6620   -1.7450   -0.1870 C   0  0  0  0  0  0  0  0  0  0  0  0
   -2.2710   -2.9630   -0.2210 N   0  0  0  0  0  0  0  0  0  0  0  0
   -3.5780   -2.8300    0.0150 N   0  0  0  0  0  0  0  0  0  0  0  0
   -3.8740   -1.5360    0.2100 C   0  0  0  0  0  0  0  0  0  0  0  0
   -2.6610   -0.8480    0.0830 C   0  0  0  0  0  0  0  0  0  0  0  0
   -2.2970    0.5820    0.1800 C   0  0  0  0  0  0  0  0  0  0  0  0
   -3.3570    1.4110   -0.1890 O   0  0  0  0  0  0  0  0  0  0  0  0
   -4.2950    1.5320    0.8250 C   0  0  0  0  0  0  0  0  0  0  0  0
   -5.6630    1.3280    0.2120 C   0  0  0  0  0  0  0  0  0  0  0  0
   -5.6620   -0.0080   -0.4860 C   0  0  0  0  0  0  0  0  0  0  0  0
   -5.2630   -1.0910    0.4910 C   0  0  0  0  0  0  0  0  0  0  0  0
    1.4100    1.0500   -0.5540 N   0  0  0  0  0  0  0  0  0  0  0  0
    4.6130   -0.5270    0.3880 C   0  0  0  0  0  0  0  0  0  0  0  0
    6.0470   -0.2110    0.1230 C   0  0  0  0  0  0  0  0  0  0  0  0
    6.2290    0.4880   -1.2140 C   0  0  0  0  0  0  0  0  0  0  0  0
    5.5290    1.8250   -1.1120 C   0  0  0  0  0  0  0  0  0  0  0  0
  1  2  2  0
  1 20  1  0
  2  3  1  0
  3  4  2  0
  3 24  1  0
  4  5  1  0
  4 21  1  0
  5  6  1  0
  5 20  2  0
  6  7  1  0
  7  8  1  0
  8  9  1  0
  9 10  2  0
  9 13  1  0
 10 11  1  0
 11 12  1  0
 12 13  2  0
 12 19  1  0
 13 14  1  0
 14 15  1  0
 15 16  1  0
 16 17  1  0
 17 18  1  0
 18 19  1  0
 21 22  1  0
 22 23  1  0
 23 24  1  0
M  END
