
     RDKit          3D

 13 13  0  0  0  0  0  0  0  0999 V2000
    4.1480   -1.1790    0.9410 O   0  0  0  0  0  0  0  0  0  0  0  0
    3.5350   -0.9810   -0.1110 C   0  0  0  0  0  0  0  0  0  0  0  0
    2.6710   -1.9420   -0.5980 O   0  0  0  0  0  0  0  0  0  0  0  0
    3.7030    0.2740   -0.8730 C   0  0  0  0  0  0  0  0  0  0  0  0
    2.6900    0.2610   -2.3470 S   0  0  0  0  0  0  0  0  0  0  0  0
    0.9580    0.2780   -2.0010 C   0  0  0  0  0  0  0  0  0  0  0  0
    0.1570    0.2680   -2.9670 O   0  0  0  0  0  0  0  0  0  0  0  0
    0.3910    0.3010   -0.7010 N   0  0  0  0  0  0  0  0  0  0  0  0
   -1.0030    0.3130   -0.4480 C   0  0  2  0  0  0  0  0  0  0  0  0
   -1.5070    1.4340    0.3910 C   0  0  0  0  0  0  0  0  0  0  0  0
   -2.8460    0.9400    0.8950 C   0  0  0  0  0  0  0  0  0  0  0  0
   -2.9700   -0.5040    0.4660 C   0  0  0  0  0  0  0  0  0  0  0  0
   -1.4910   -0.9020    0.3270 C   0  0  0  0  0  0  0  0  0  0  0  0
  1  2  2  0
  2  3  1  0
  2  4  1  0
  4  5  1  0
  5  6  1  0
  6  7  2  0
  6  8  1  0
  9  8  1  1
  9 10  1  0
  9 13  1  0
 10 11  1  0
 11 12  1  0
 12 13  1  0
M  END
