
     RDKit          3D

 13 13  0  0  0  0  0  0  0  0999 V2000
    3.6980    2.3170   -0.2790 O   0  0  0  0  0  0  0  0  0  0  0  0
    4.1610    1.2930    0.0720 N   0  0  0  0  0  0  0  0  0  0  0  0
    3.3500    0.1140    0.1610 C   0  0  0  0  0  0  0  0  0  0  0  0
    1.9010    0.5030    0.0220 C   0  0  0  0  0  0  0  0  0  0  0  0
    1.0170   -0.6150    0.1000 N   0  0  0  0  0  0  0  0  0  0  0  0
   -0.3800   -0.4480   -0.0090 C   0  0  0  0  0  0  0  0  0  0  0  0
   -0.9140    0.8060   -0.1940 C   0  0  0  0  0  0  0  0  0  0  0  0
   -2.2790    0.9760   -0.3010 C   0  0  0  0  0  0  0  0  0  0  0  0
   -2.8220    2.2400   -0.4870 O   0  0  0  0  0  0  0  0  0  0  0  0
   -3.1460   -0.0810   -0.2300 C   0  0  0  0  0  0  0  0  0  0  0  0
   -2.5960   -1.3430   -0.0440 C   0  0  0  0  0  0  0  0  0  0  0  0
   -1.2360   -1.5210    0.0640 C   0  0  0  0  0  0  0  0  0  0  0  0
   -0.6760   -2.7760    0.2500 O   0  0  0  0  0  0  0  0  0  0  0  0
  1  2  2  0
  2  3  1  0
  3  4  1  0
  4  5  1  0
  5  6  1  0
  6  7  2  0
  6 12  1  0
  7  8  1  0
  8  9  1  0
  8 10  2  0
 10 11  1  0
 11 12  2  0
 12 13  1  0
M  END
