
     RDKit          3D

 13 13  0  0  0  0  0  0  0  0999 V2000
   -4.7010    0.6630   -0.9480 C   0  0  0  0  0  0  0  0  0  0  0  0
   -3.3560    0.6500   -0.5920 O   0  0  0  0  0  0  0  0  0  0  0  0
   -2.7780   -0.4930   -0.0050 C   0  0  0  0  0  0  0  0  0  0  0  0
   -3.5300   -1.4550    0.1650 O   0  0  0  0  0  0  0  0  0  0  0  0
   -1.3620   -0.4970    0.3660 C   0  0  0  0  0  0  0  0  0  0  0  0
   -0.5850   -1.4840    0.9450 C   0  0  0  0  0  0  0  0  0  0  0  0
    0.6990   -1.1820    1.1660 C   0  0  0  0  0  0  0  0  0  0  0  0
    1.2320   -0.0090    0.8580 C   0  0  0  0  0  0  0  0  0  0  0  0
    2.5610    0.5830    0.9820 C   0  0  0  0  0  0  0  0  0  0  0  0
    3.4060    0.3150   -0.2080 C   0  0  0  0  0  0  0  0  0  0  0  0
    4.7340    0.7990   -0.2940 N   0  0  0  0  0  0  0  0  0  0  0  0
    2.9120   -0.3530   -1.1350 O   0  0  0  0  0  0  0  0  0  0  0  0
   -0.2090    0.8700    0.1460 S   0  0  0  0  0  0  0  0  0  0  0  0
  1  2  1  0
  2  3  1  0
  3  4  2  0
  3  5  1  0
  5  6  2  0
  5 13  1  0
  6  7  1  0
  7  8  2  0
  8  9  1  0
  8 13  1  0
  9 10  1  0
 10 11  1  0
 10 12  2  0
M  END
