
     RDKit          3D

 30 33  0  0  0  0  0  0  0  0999 V2000
   -3.4880    1.3320   -2.3910 C   0  0  0  0  0  0  0  0  0  0  0  0
   -2.2290    0.8880   -1.6900 C   0  0  1  0  0  0  0  0  0  0  0  0
   -1.3620    2.0880   -1.7040 O   0  0  0  0  0  0  0  0  0  0  0  0
   -0.1040    1.9860   -1.0260 C   0  0  0  0  0  0  0  0  0  0  0  0
    0.8160    0.9970   -1.3040 C   0  0  0  0  0  0  0  0  0  0  0  0
    1.9090    0.9540   -0.4950 C   0  0  0  0  0  0  0  0  0  0  0  0
    2.1010    1.9100    0.5260 C   0  0  0  0  0  0  0  0  0  0  0  0
    1.2220    2.8850    0.7660 N   0  0  0  0  0  0  0  0  0  0  0  0
    0.0990    2.9090   -0.0290 C   0  0  0  0  0  0  0  0  0  0  0  0
   -0.7890    3.9880    0.2780 N   0  0  0  0  0  0  0  0  0  0  0  0
    2.6840   -0.3090   -0.1840 C   0  0  0  0  0  0  0  0  0  0  0  0
    1.9800   -1.5860   -0.1890 C   0  0  0  0  0  0  0  0  0  0  0  0
    2.8500   -2.4760    0.1880 N   0  0  0  0  0  0  0  0  0  0  0  0
    4.0410   -1.9250    0.4390 N   0  0  0  0  0  0  0  0  0  0  0  0
    5.2690   -2.5580    0.8770 C   0  0  0  0  0  0  0  0  0  0  0  0
    3.9280   -0.6070    0.2100 C   0  0  0  0  0  0  0  0  0  0  0  0
    4.9830    0.3930    0.3800 C   0  0  0  0  0  0  0  0  0  0  0  0
    5.8270    1.1650    0.5100 N   0  0  0  0  0  0  0  0  0  0  0  0
    0.5840   -1.5460   -0.6090 C   0  0  0  0  0  0  0  0  0  0  0  0
   -0.4290   -2.4220   -0.1170 N   0  0  0  0  0  0  0  0  0  0  0  0
   -0.0440   -3.8120    0.0590 C   0  0  0  0  0  0  0  0  0  0  0  0
   -1.7640   -1.9250    0.1600 C   0  0  0  0  0  0  0  0  0  0  0  0
   -2.6460   -2.8720    0.1530 O   0  0  0  0  0  0  0  0  0  0  0  0
   -2.3320   -0.6100    0.4500 C   0  0  0  0  0  0  0  0  0  0  0  0
   -2.8220   -0.5280    1.8140 C   0  0  0  0  0  0  0  0  0  0  0  0
   -3.3890    0.5430    2.3930 C   0  0  0  0  0  0  0  0  0  0  0  0
   -3.5370    1.6940    1.6440 C   0  0  0  0  0  0  0  0  0  0  0  0
   -4.1020    2.7880    2.2100 F   0  0  0  0  0  0  0  0  0  0  0  0
   -3.0950    1.6570    0.3590 C   0  0  0  0  0  0  0  0  0  0  0  0
   -2.4920    0.5240   -0.2630 C   0  0  0  0  0  0  0  0  0  0  0  0
  2  1  1  6
  2  3  1  0
  2 30  1  0
  3  4  1  0
  4  5  1  0
  4  9  2  0
  5  6  2  0
  6  7  1  0
  6 11  1  0
  7  8  2  0
  8  9  1  0
  9 10  1  0
 11 12  1  0
 11 16  2  0
 12 13  2  0
 12 19  1  0
 13 14  1  0
 14 15  1  0
 14 16  1  0
 16 17  1  0
 17 18  3  0
 19 20  1  0
 20 21  1  0
 20 22  1  0
 22 23  2  0
 22 24  1  0
 24 25  2  0
 24 30  1  0
 25 26  1  0
 26 27  2  0
 27 28  1  0
 27 29  1  0
 29 30  2  0
M  END
