
     RDKit          3D

 29 31  0  0  0  0  0  0  0  0999 V2000
    3.1870    4.1670   -2.2110 C   0  0  0  0  0  0  0  0  0  0  0  0
    2.6530    3.1060   -1.4140 O   0  0  0  0  0  0  0  0  0  0  0  0
    1.7270    3.4500   -0.4390 C   0  0  0  0  0  0  0  0  0  0  0  0
    1.2210    4.6770   -0.1000 C   0  0  0  0  0  0  0  0  0  0  0  0
    0.3370    4.4410    0.9360 C   0  0  0  0  0  0  0  0  0  0  0  0
    0.3360    3.1680    1.1730 O   0  0  0  0  0  0  0  0  0  0  0  0
    1.1320    2.4900    0.4070 C   0  0  0  0  0  0  0  0  0  0  0  0
    1.3950    1.0680    0.3850 C   0  0  0  0  0  0  0  0  0  0  0  0
    0.4960    0.1070    0.3710 C   0  0  0  0  0  0  0  0  0  0  0  0
    0.9430   -1.3000    0.3560 C   0  0  0  0  0  0  0  0  0  0  0  0
    0.1210   -2.2270    0.3400 O   0  0  0  0  0  0  0  0  0  0  0  0
    2.3200   -1.6870    0.3570 N   0  0  0  0  0  0  0  0  0  0  0  0
    2.6360   -3.1260    0.3380 C   0  0  0  0  0  0  0  0  0  0  0  0
    4.0960   -3.3380    0.3520 C   0  0  0  0  0  0  0  0  0  0  0  0
    4.7670   -4.5030    0.0490 C   0  0  0  0  0  0  0  0  0  0  0  0
    6.1220   -4.3050    0.1840 C   0  0  0  0  0  0  0  0  0  0  0  0
    6.2670   -3.0270    0.5660 N   0  0  0  0  0  0  0  0  0  0  0  0
    5.0580   -2.4580    0.6640 N   0  0  0  0  0  0  0  0  0  0  0  0
   -0.9220    0.3920    0.3060 C   0  0  0  0  0  0  0  0  0  0  0  0
   -1.2460    1.6190    0.2280 O   0  0  0  0  0  0  0  0  0  0  0  0
   -1.9630   -0.5370    0.3200 N   0  0  0  0  0  0  0  0  0  0  0  0
   -3.3560   -0.1920    0.2370 C   0  0  0  0  0  0  0  0  0  0  0  0
   -4.3140   -1.1310    0.6680 C   0  0  0  0  0  0  0  0  0  0  0  0
   -5.6640   -0.8790    0.5930 C   0  0  0  0  0  0  0  0  0  0  0  0
   -6.6630   -1.8960    1.0560 C   0  0  0  0  0  0  0  0  0  0  0  0
   -6.1280    0.3120    0.0880 C   0  0  0  0  0  0  0  0  0  0  0  0
   -5.2150    1.2470   -0.3390 C   0  0  0  0  0  0  0  0  0  0  0  0
   -5.6750    2.4160   -0.8350 F   0  0  0  0  0  0  0  0  0  0  0  0
   -3.8420    0.9800   -0.2580 C   0  0  0  0  0  0  0  0  0  0  0  0
  1  2  1  0
  2  3  1  0
  3  4  1  0
  3  7  2  0
  4  5  2  0
  5  6  1  0
  6  7  1  0
  7  8  1  0
  8  9  2  3
  9 10  1  0
  9 19  1  0
 10 11  2  0
 10 12  1  0
 12 13  1  0
 13 14  1  0
 14 15  2  0
 14 18  1  0
 15 16  1  0
 16 17  2  0
 17 18  1  0
 19 20  2  0
 19 21  1  0
 21 22  1  0
 22 23  2  0
 22 29  1  0
 23 24  1  0
 24 25  1  0
 24 26  2  0
 26 27  1  0
 27 28  1  0
 27 29  2  0
M  END
