
     RDKit          3D

 29 31  0  0  0  0  0  0  0  0999 V2000
    6.5000   -1.0480    1.1310 C   0  0  0  0  0  0  0  0  0  0  0  0
    5.7370    0.1790    0.6700 C   0  0  0  0  0  0  0  0  0  0  0  0
    5.8140    0.3080   -0.7940 C   0  0  0  0  0  0  0  0  0  0  0  0
    4.8290    0.3130   -1.6470 C   0  0  0  0  0  0  0  0  0  0  0  0
    3.4570    0.1880   -1.2710 C   0  0  0  0  0  0  0  0  0  0  0  0
    2.4560    0.1940   -2.1580 C   0  0  0  0  0  0  0  0  0  0  0  0
    1.0990    0.0590   -1.6550 C   0  0  0  0  0  0  0  0  0  0  0  0
    0.8290   -0.0620   -0.3600 N   0  0  0  0  0  0  0  0  0  0  0  0
   -0.4250   -0.1950    0.1620 C   0  0  0  0  0  0  0  0  0  0  0  0
   -0.5730   -0.3740    1.6040 C   0  0  0  0  0  0  0  0  0  0  0  0
    0.7040   -0.3180    2.2200 O   0  0  0  0  0  0  0  0  0  0  0  0
   -1.4760   -0.2030   -0.6970 C   0  0  0  0  0  0  0  0  0  0  0  0
   -2.8450   -0.2800   -0.2910 C   0  0  0  0  0  0  0  0  0  0  0  0
   -3.5240    0.6690    0.3710 C   0  0  0  0  0  0  0  0  0  0  0  0
   -3.0280    1.9630    0.8050 C   0  0  0  0  0  0  0  0  0  0  0  0
   -1.8690    2.4380    0.6300 O   0  0  0  0  0  0  0  0  0  0  0  0
   -4.1010    2.6010    1.4670 N   0  0  0  0  0  0  0  0  0  0  0  0
   -5.2270    1.7390    1.4480 C   0  0  0  0  0  0  0  0  0  0  0  0
   -6.5020    1.6490    1.8390 O   0  0  0  0  0  0  0  0  0  0  0  0
   -6.9960    0.5050    1.4740 N   0  0  0  0  0  0  0  0  0  0  0  0
   -6.0340   -0.2030    0.8180 C   0  0  0  0  0  0  0  0  0  0  0  0
   -6.1720   -1.5600    0.2450 C   0  0  0  0  0  0  0  0  0  0  0  0
   -6.2630   -1.4720   -1.2600 C   0  0  0  0  0  0  0  0  0  0  0  0
   -4.9010    0.5780    0.7960 C   0  0  0  0  0  0  0  0  0  0  0  0
   -1.1980   -0.0780   -2.0550 C   0  0  0  0  0  0  0  0  0  0  0  0
   -2.1230   -0.0800   -2.9050 O   0  0  0  0  0  0  0  0  0  0  0  0
    0.0600    0.0490   -2.5060 N   0  0  0  0  0  0  0  0  0  0  0  0
    7.2390    0.4500   -1.3240 C   0  0  0  0  0  0  0  0  0  0  0  0
    7.9540   -0.6560   -0.9700 F   0  0  0  0  0  0  0  0  0  0  0  0
  1  2  1  0
  2  3  1  0
  3  4  2  3
  3 28  1  0
  4  5  1  0
  5  6  2  3
  6  7  1  0
  7  8  2  0
  7 27  1  0
  8  9  1  0
  9 10  1  0
  9 12  2  0
 10 11  1  0
 12 13  1  0
 12 25  1  0
 13 14  2  3
 14 15  1  0
 14 24  1  0
 15 16  2  0
 15 17  1  0
 17 18  1  0
 18 19  1  0
 18 24  2  0
 19 20  1  0
 20 21  2  0
 21 22  1  0
 21 24  1  0
 22 23  1  0
 25 26  2  0
 25 27  1  0
 28 29  1  0
M  END
