
     RDKit          3D

 31 34  0  0  0  0  0  0  0  0999 V2000
   -4.2540   -4.2160    0.1900 C   0  0  0  0  0  0  0  0  0  0  0  0
   -3.6920   -2.8160    0.2250 C   0  0  0  0  0  0  0  0  0  0  0  0
   -2.6180   -2.5050   -0.4490 C   0  0  0  0  0  0  0  0  0  0  0  0
   -1.9370   -3.5360   -1.2620 C   0  0  0  0  0  0  0  0  0  0  0  0
   -1.8930   -3.1620   -2.6650 N   0  0  0  0  0  0  0  0  0  0  0  0
   -2.0590   -1.1680   -0.4320 C   0  0  0  0  0  0  0  0  0  0  0  0
   -2.6140   -0.1420    0.2890 C   0  0  0  0  0  0  0  0  0  0  0  0
   -2.0460    1.1060    0.2730 C   0  0  0  0  0  0  0  0  0  0  0  0
   -2.5960    2.2330    1.0220 C   0  0  0  0  0  0  0  0  0  0  0  0
   -1.9680    3.4830    0.9630 C   0  0  0  0  0  0  0  0  0  0  0  0
   -2.4440    4.5790    1.6490 C   0  0  0  0  0  0  0  0  0  0  0  0
   -3.5720    4.4870    2.4320 C   0  0  0  0  0  0  0  0  0  0  0  0
   -4.1950    3.2630    2.4950 C   0  0  0  0  0  0  0  0  0  0  0  0
   -3.7160    2.1440    1.7990 C   0  0  0  0  0  0  0  0  0  0  0  0
   -0.9350    1.3080   -0.4630 N   0  0  0  0  0  0  0  0  0  0  0  0
   -0.3570    0.3330   -1.1840 C   0  0  0  0  0  0  0  0  0  0  0  0
    0.8630    0.6140   -1.9730 C   0  0  0  0  0  0  0  0  0  0  0  0
    2.0740    0.3980   -1.2490 N   0  0  0  0  0  0  0  0  0  0  0  0
    2.6270   -0.8410   -1.3060 C   0  0  0  0  0  0  0  0  0  0  0  0
    2.0690   -1.7430   -1.9790 O   0  0  0  0  0  0  0  0  0  0  0  0
    3.7610   -1.0980   -0.6460 N   0  0  0  0  0  0  0  0  0  0  0  0
    4.4000   -0.1480    0.0970 C   0  0  0  0  0  0  0  0  0  0  0  0
    3.8600    1.1180    0.1710 C   0  0  0  0  0  0  0  0  0  0  0  0
    2.6960    1.3630   -0.5120 C   0  0  0  0  0  0  0  0  0  0  0  0
    2.1640    2.5100   -0.4730 O   0  0  0  0  0  0  0  0  0  0  0  0
    4.4810    2.2110    0.9510 C   0  0  1  0  0  0  0  0  0  0  0  0
    3.9430    2.2160    2.6460 Cl  0  0  0  0  0  0  0  0  0  0  0  0
    6.2830    2.1470    0.9400 S   0  0  0  0  0  0  0  0  0  0  0  0
    6.7820    0.4940    0.3840 C   0  0  0  0  0  0  0  0  0  0  0  0
    5.6580   -0.4540    0.8210 C   0  0  0  0  0  0  0  0  0  0  0  0
   -0.9440   -0.8660   -1.1390 N   0  0  0  0  0  0  0  0  0  0  0  0
  1  2  1  0
  2  3  2  3
  3  4  1  0
  3  6  1  0
  4  5  1  0
  6  7  2  0
  6 31  1  0
  7  8  1  0
  8  9  1  0
  8 15  2  0
  9 10  2  0
  9 14  1  0
 10 11  1  0
 11 12  2  0
 12 13  1  0
 13 14  2  0
 15 16  1  0
 16 17  1  0
 16 31  2  0
 17 18  1  0
 18 19  1  0
 18 24  1  0
 19 20  2  0
 19 21  1  0
 21 22  1  0
 22 23  2  0
 22 30  1  0
 23 24  1  0
 23 26  1  0
 24 25  2  0
 26 27  1  1
 26 28  1  0
 28 29  1  0
 29 30  1  0
M  CHG  1   5   1
M  END
