
     RDKit          3D

 29 31  0  0  0  0  0  0  0  0999 V2000
   -3.7950   -2.3340   -0.7340 C   0  0  0  0  0  0  0  0  0  0  0  0
   -2.7690   -3.1460   -0.7820 C   0  0  0  0  0  0  0  0  0  0  0  0
   -1.3760   -2.8070   -0.6560 C   0  0  0  0  0  0  0  0  0  0  0  0
   -0.5160   -3.8290   -0.7090 C   0  0  0  0  0  0  0  0  0  0  0  0
    0.9370   -3.7290   -0.6050 C   0  0  0  0  0  0  0  0  0  0  0  0
   -0.9200   -1.4460   -0.4480 C   0  0  0  0  0  0  0  0  0  0  0  0
    0.3640   -1.3460   -0.0590 N   0  0  0  0  0  0  0  0  0  0  0  0
    1.0340   -0.1830    0.1470 C   0  0  0  0  0  0  0  0  0  0  0  0
    2.4210   -0.2600    0.5930 C   0  0  0  0  0  0  0  0  0  0  0  0
    3.3970    0.3660   -0.0110 C   0  0  0  0  0  0  0  0  0  0  0  0
    4.8340    0.3310    0.4070 C   0  0  0  0  0  0  0  0  0  0  0  0
    4.9990   -0.4750    1.5250 O   0  0  0  0  0  0  0  0  0  0  0  0
    3.9900   -1.1400    2.1750 C   0  0  0  0  0  0  0  0  0  0  0  0
    4.3810   -1.9580    3.3780 C   0  0  0  0  0  0  0  0  0  0  0  0
    2.7570   -1.0700    1.7720 C   0  0  0  0  0  0  0  0  0  0  0  0
    1.7580   -1.7130    2.3980 F   0  0  0  0  0  0  0  0  0  0  0  0
    0.3170    0.9560   -0.0610 C   0  0  0  0  0  0  0  0  0  0  0  0
    0.8400    2.2020    0.1830 C   0  0  0  0  0  0  0  0  0  0  0  0
    2.0260    2.3200    0.5780 O   0  0  0  0  0  0  0  0  0  0  0  0
    0.1160    3.3550    0.0280 N   0  0  0  0  0  0  0  0  0  0  0  0
   -1.1320    3.2970   -0.3670 C   0  0  0  0  0  0  0  0  0  0  0  0
   -1.9030    4.4620   -0.5410 N   0  0  0  0  0  0  0  0  0  0  0  0
   -1.7510    2.0610   -0.6330 C   0  0  0  0  0  0  0  0  0  0  0  0
   -3.1210    2.0670   -1.1020 C   0  0  0  0  0  0  0  0  0  0  0  0
   -3.7270    1.0390   -1.3690 O   0  0  0  0  0  0  0  0  0  0  0  0
   -3.8280    3.2660   -1.2750 O   0  0  0  0  0  0  0  0  0  0  0  0
   -5.1480    3.3310   -1.7240 C   0  0  0  0  0  0  0  0  0  0  0  0
   -1.0300    0.9160   -0.4730 C   0  0  0  0  0  0  0  0  0  0  0  0
   -1.5860   -0.3060   -0.6470 N   0  0  0  0  0  0  0  0  0  0  0  0
  1  2  2  0
  2  3  1  0
  3  4  2  3
  3  6  1  0
  4  5  1  0
  6  7  2  0
  6 29  1  0
  7  8  1  0
  8  9  1  0
  8 17  2  0
  9 10  2  0
  9 15  1  0
 10 11  1  0
 11 12  1  0
 12 13  1  0
 13 14  1  0
 13 15  2  0
 15 16  1  0
 17 18  1  0
 17 28  1  0
 18 19  2  0
 18 20  1  0
 20 21  1  0
 21 22  1  0
 21 23  2  0
 23 24  1  0
 23 28  1  0
 24 25  2  0
 24 26  1  0
 26 27  1  0
 28 29  2  0
M  END
