
     RDKit          3D

 29 31  0  0  0  0  0  0  0  0999 V2000
    8.8740    1.7070   -0.4110 C   0  0  0  0  0  0  0  0  0  0  0  0
    7.4400    1.8160   -0.5660 N   0  0  0  0  0  0  0  0  0  0  0  0
    6.5590    0.7320   -0.1960 C   0  0  0  0  0  0  0  0  0  0  0  0
    7.1030   -0.2780    0.2530 O   0  0  0  0  0  0  0  0  0  0  0  0
    5.1700    0.8200   -0.3390 N   0  0  0  0  0  0  0  0  0  0  0  0
    4.2320   -0.1820   -0.0140 C   0  0  0  0  0  0  0  0  0  0  0  0
    4.5400   -1.4480    0.3760 C   0  0  0  0  0  0  0  0  0  0  0  0
    3.5770   -2.3970    0.6950 C   0  0  0  0  0  0  0  0  0  0  0  0
    2.2460   -2.0460    0.6150 C   0  0  0  0  0  0  0  0  0  0  0  0
    1.1050   -2.7680    0.8680 C   0  0  0  0  0  0  0  0  0  0  0  0
    0.0370   -1.9000    0.6200 C   0  0  0  0  0  0  0  0  0  0  0  0
    0.5080   -0.7040    0.2340 N   0  0  0  0  0  0  0  0  0  0  0  0
   -0.2300    0.4510   -0.1310 C   0  0  0  0  0  0  0  0  0  0  0  0
    0.3480    1.5190   -0.4500 O   0  0  0  0  0  0  0  0  0  0  0  0
   -1.6850    0.4000   -0.1360 C   0  0  0  0  0  0  0  0  0  0  0  0
   -2.4420    1.2680    0.6210 C   0  0  0  0  0  0  0  0  0  0  0  0
   -3.8340    1.1960    0.5560 C   0  0  0  0  0  0  0  0  0  0  0  0
   -4.5260    0.3110   -0.2200 C   0  0  0  0  0  0  0  0  0  0  0  0
   -5.9670    0.3370   -0.4120 C   0  0  0  0  0  0  0  0  0  0  0  0
   -6.6490   -0.7890   -0.5170 C   0  0  0  0  0  0  0  0  0  0  0  0
   -6.1070   -2.1320   -0.4400 C   0  0  0  0  0  0  0  0  0  0  0  0
   -6.8150   -2.8860    0.5450 F   0  0  0  0  0  0  0  0  0  0  0  0
   -6.6860    1.5140   -0.5020 O   0  0  0  0  0  0  0  0  0  0  0  0
   -6.4970    2.6700    0.1740 C   0  0  0  0  0  0  0  0  0  0  0  0
   -3.7420   -0.5330   -0.9600 N   0  0  0  0  0  0  0  0  0  0  0  0
   -2.4020   -0.4930   -0.9210 C   0  0  0  0  0  0  0  0  0  0  0  0
   -1.7450   -1.3170   -1.6460 O   0  0  0  0  0  0  0  0  0  0  0  0
    1.8790   -0.7730    0.2250 C   0  0  0  0  0  0  0  0  0  0  0  0
    2.8730    0.1310   -0.0810 C   0  0  0  0  0  0  0  0  0  0  0  0
  1  2  1  0
  2  3  1  0
  3  4  2  0
  3  5  1  0
  5  6  1  0
  6  7  2  0
  6 29  1  0
  7  8  1  0
  8  9  2  0
  9 10  1  0
  9 28  1  0
 10 11  2  0
 11 12  1  0
 12 13  1  0
 12 28  1  0
 13 14  2  0
 13 15  1  0
 15 16  2  0
 15 26  1  0
 16 17  1  0
 17 18  2  0
 18 19  1  0
 18 25  1  0
 19 20  2  3
 19 23  1  0
 20 21  1  0
 21 22  1  0
 23 24  1  0
 25 26  1  0
 26 27  2  0
 28 29  2  0
M  END
