
     RDKit          3D

 29 31  0  0  0  0  0  0  0  0999 V2000
    3.6940    2.4680    1.9540 C   0  0  0  0  0  0  0  0  0  0  0  0
    4.5300    1.2730    2.2880 C   0  0  0  0  0  0  0  0  0  0  0  0
    5.3270    0.7840    1.2640 O   0  0  0  0  0  0  0  0  0  0  0  0
    4.8540    0.3030    0.0470 C   0  0  0  0  0  0  0  0  0  0  0  0
    5.7470   -0.1600   -0.9150 C   0  0  0  0  0  0  0  0  0  0  0  0
    5.2540   -0.6310   -2.1090 C   0  0  0  0  0  0  0  0  0  0  0  0
    3.9110   -0.6680   -2.4050 C   0  0  0  0  0  0  0  0  0  0  0  0
    3.4540   -1.1690   -3.5630 N   0  0  0  0  0  0  0  0  0  0  0  0
    2.1550   -1.2500   -3.8600 C   0  0  0  0  0  0  0  0  0  0  0  0
    1.8210   -1.7410   -4.9770 O   0  0  0  0  0  0  0  0  0  0  0  0
    1.2260   -0.8070   -2.9610 C   0  0  0  0  0  0  0  0  0  0  0  0
    1.6500   -0.2720   -1.7340 C   0  0  0  0  0  0  0  0  0  0  0  0
    0.6210    0.1490   -0.7970 C   0  0  0  0  0  0  0  0  0  0  0  0
    0.6930    1.3000    0.1260 C   0  0  0  0  0  0  0  0  0  0  0  0
   -0.5710   -0.4500   -0.8600 C   0  0  0  0  0  0  0  0  0  0  0  0
   -1.7030   -0.1590   -0.0060 C   0  0  0  0  0  0  0  0  0  0  0  0
   -1.7190    0.6810    0.9170 O   0  0  0  0  0  0  0  0  0  0  0  0
   -2.9510   -0.8700   -0.1910 N   0  0  0  0  0  0  0  0  0  0  0  0
   -4.0490   -0.5730    0.6530 C   0  0  0  0  0  0  0  0  0  0  0  0
   -3.9540    0.3550    1.6200 N   0  0  0  0  0  0  0  0  0  0  0  0
   -4.9550    0.6860    2.4550 C   0  0  0  0  0  0  0  0  0  0  0  0
   -6.1560    0.0310    2.3100 C   0  0  0  0  0  0  0  0  0  0  0  0
   -7.1980    0.3200    3.1180 F   0  0  0  0  0  0  0  0  0  0  0  0
   -6.2780   -0.9250    1.3250 C   0  0  0  0  0  0  0  0  0  0  0  0
   -7.5940   -1.6170    1.1950 C   0  0  0  0  0  0  0  0  0  0  0  0
   -7.5670   -2.5520    0.1630 O   0  0  0  0  0  0  0  0  0  0  0  0
   -5.2380   -1.2030    0.5300 N   0  0  0  0  0  0  0  0  0  0  0  0
    2.9940   -0.2040   -1.4500 C   0  0  0  0  0  0  0  0  0  0  0  0
    3.5070    0.2580   -0.2650 C   0  0  0  0  0  0  0  0  0  0  0  0
  1  2  1  0
  2  3  1  0
  3  4  1  0
  4  5  2  0
  4 29  1  0
  5  6  1  0
  6  7  2  0
  7  8  1  0
  7 28  1  0
  8  9  1  0
  9 10  2  0
  9 11  1  0
 11 12  2  0
 12 13  1  0
 12 28  1  0
 13 14  1  0
 13 15  2  3
 15 16  1  0
 16 17  2  0
 16 18  1  0
 18 19  1  0
 19 20  2  0
 19 27  1  0
 20 21  1  0
 21 22  2  0
 22 23  1  0
 22 24  1  0
 24 25  1  0
 24 27  2  0
 25 26  1  0
 28 29  2  0
M  END
