
     RDKit          3D

  8  8  0  0  0  0  0  0  0  0999 V2000
   -2.3600   -0.2250   -0.4830 C   0  0  0  0  0  0  0  0  0  0  0  0
   -1.1460   -0.6880    0.2350 C   0  0  0  0  0  0  0  0  0  0  0  0
   -1.2460   -1.8090    1.1120 N   0  0  0  0  0  0  0  0  0  0  0  0
    0.0140   -0.0660    0.0600 C   0  0  0  0  0  0  0  0  0  0  0  0
    1.2450   -0.4170    0.6920 N   0  0  0  0  0  0  0  0  0  0  0  0
    2.1040    0.7390    0.4750 C   0  0  0  0  0  0  0  0  0  0  0  0
    1.6560    1.1630   -0.9290 C   0  0  0  0  0  0  0  0  0  0  0  0
    0.2190    1.0560   -0.7890 N   0  0  0  0  0  0  0  0  0  0  0  0
  1  2  1  0
  2  3  1  0
  2  4  2  3
  4  5  1  0
  4  8  1  0
  5  6  1  0
  6  7  1  0
  7  8  1  0
M  END
