
     RDKit          3D

 24 27  0  0  0  0  0  0  0  0999 V2000
   -0.8170   -2.1770   -0.9200 O   0  0  0  0  0  0  0  0  0  0  0  0
   -0.0340   -1.3570   -0.3750 C   0  0  0  0  0  0  0  0  0  0  0  0
    1.3680   -1.7680   -0.2120 C   0  0  0  0  0  0  0  0  0  0  0  0
    2.2080   -0.7930    0.4110 N   0  0  1  0  0  0  0  0  0  0  0  0
    3.4090   -1.5180    0.8630 C   0  0  0  0  0  0  0  0  0  0  0  0
    4.3320   -0.4870    1.4750 C   0  0  0  0  0  0  0  0  0  0  0  0
    4.9790    0.2470    0.2970 C   0  0  0  0  0  0  0  0  0  0  0  0
    4.0590    0.2040   -0.8810 C   0  0  0  0  0  0  0  0  0  0  0  0
    2.6000    0.2370   -0.4960 C   0  0  0  0  0  0  0  0  0  0  0  0
   -0.5190   -0.0990    0.0520 N   0  0  0  0  0  0  0  0  0  0  0  0
   -1.8730    0.3020   -0.1040 N   0  0  0  0  0  0  0  0  0  0  0  0
   -2.8110   -0.2650    0.7720 C   0  0  0  0  0  0  0  0  0  0  0  0
   -2.3860   -1.1710    1.7340 C   0  0  0  0  0  0  0  0  0  0  0  0
   -3.2340   -1.7610    2.6250 C   0  0  0  0  0  0  0  0  0  0  0  0
   -4.5850   -1.4860    2.6220 C   0  0  0  0  0  0  0  0  0  0  0  0
   -5.0070   -0.5780    1.6570 C   0  0  0  0  0  0  0  0  0  0  0  0
   -4.1570    0.0130    0.7650 C   0  0  0  0  0  0  0  0  0  0  0  0
   -4.8100    1.1720   -0.4370 S   0  0  0  0  0  0  0  0  0  0  0  0
   -3.4130    1.7300   -1.3990 C   0  0  0  0  0  0  0  0  0  0  0  0
   -3.5960    2.6320   -2.3930 C   0  0  0  0  0  0  0  0  0  0  0  0
   -2.5900    3.1250   -3.1900 C   0  0  0  0  0  0  0  0  0  0  0  0
   -1.3170    2.6280   -2.9120 C   0  0  0  0  0  0  0  0  0  0  0  0
   -1.0880    1.7110   -1.9120 C   0  0  0  0  0  0  0  0  0  0  0  0
   -2.1500    1.2480   -1.1360 C   0  0  0  0  0  0  0  0  0  0  0  0
  1  2  2  0
  2  3  1  0
  2 10  1  0
  4  3  1  6
  4  5  1  0
  4  9  1  0
  5  6  1  0
  6  7  1  0
  7  8  1  0
  8  9  1  0
 10 11  1  0
 11 12  1  0
 11 24  1  0
 12 13  2  0
 12 17  1  0
 13 14  1  0
 14 15  2  0
 15 16  1  0
 16 17  2  0
 17 18  1  0
 18 19  1  0
 19 20  2  0
 19 24  1  0
 20 21  1  0
 21 22  2  0
 22 23  1  0
 23 24  2  0
M  CHG  1   4   1
M  END
