
     RDKit          3D

  8  8  0  0  0  0  0  0  0  0999 V2000
    0.0740    2.5750    0.2450 C   0  0  0  0  0  0  0  0  0  0  0  0
    0.8050    1.3370    0.0570 N   0  0  0  0  0  0  0  0  0  0  0  0
    0.1930    0.2310   -0.0390 C   0  0  0  0  0  0  0  0  0  0  0  0
   -1.2670    0.0330    0.0200 C   0  0  0  0  0  0  0  0  0  0  0  0
   -1.3610   -1.3150    0.5400 N   0  0  0  0  0  0  0  0  0  0  0  0
   -0.1940   -2.0020    0.1150 C   0  0  0  0  0  0  0  0  0  0  0  0
    0.7310   -1.1200   -0.2290 C   0  0  0  0  0  0  0  0  0  0  0  0
    2.0420   -1.3910   -0.7080 N   0  0  0  0  0  0  0  0  0  0  0  0
  1  2  1  0
  2  3  2  3
  3  4  1  0
  3  7  1  0
  4  5  1  0
  5  6  1  0
  6  7  2  0
  7  8  1  0
M  END
