
     RDKit          3D

  8  8  0  0  0  0  0  0  0  0999 V2000
    2.2010   -0.9560   -0.2960 N   0  0  0  0  0  0  0  0  0  0  0  0
    1.9950    0.4140   -0.0120 C   0  0  0  0  0  0  0  0  0  0  0  0
    0.8030    0.9620    0.0970 C   0  0  0  0  0  0  0  0  0  0  0  0
    0.6700    2.3290    0.3800 N   0  0  0  0  0  0  0  0  0  0  0  0
   -0.3470    0.1570   -0.0760 N   0  0  0  0  0  0  0  0  0  0  0  0
   -0.6000   -1.2580   -0.3870 C   0  0  0  0  0  0  0  0  0  0  0  0
   -1.9140   -1.1240    0.3510 C   0  0  0  0  0  0  0  0  0  0  0  0
   -1.8000    0.3150   -0.0330 C   0  0  0  0  0  0  0  0  0  0  0  0
  1  2  1  0
  2  3  2  3
  3  4  1  0
  3  5  1  0
  5  6  1  0
  5  8  1  0
  6  7  1  0
  7  8  1  0
M  END
