
     RDKit          3D

  8  8  0  0  0  0  0  0  0  0999 V2000
   -1.6800   -1.0610   -0.1420 C   0  0  0  0  0  0  0  0  0  0  0  0
   -0.3360   -0.4360   -0.0600 C   0  0  0  0  0  0  0  0  0  0  0  0
   -0.2240    0.8690    0.0430 C   0  0  0  0  0  0  0  0  0  0  0  0
   -1.4260    1.6490    0.0710 N   0  0  0  0  0  0  0  0  0  0  0  0
    1.0550    1.5410    0.1260 C   0  0  0  0  0  0  0  0  0  0  0  0
    2.0970    0.8060    0.0970 N   0  0  0  0  0  0  0  0  0  0  0  0
    2.1170   -0.6220   -0.0120 C   0  0  0  0  0  0  0  0  0  0  0  0
    0.8280   -1.2390   -0.0910 N   0  0  0  0  0  0  0  0  0  0  0  0
  1  2  1  0
  2  3  2  0
  2  8  1  0
  3  4  1  0
  3  5  1  0
  5  6  2  0
  6  7  1  0
  7  8  1  0
M  END
