
     RDKit          3D

  8  8  0  0  0  0  0  0  0  0999 V2000
   -2.0870   -0.4270    0.9710 C   0  0  0  0  0  0  0  0  0  0  0  0
   -1.2160    0.1170    0.1470 C   0  0  0  0  0  0  0  0  0  0  0  0
   -1.6620    1.0500   -0.8160 N   0  0  0  0  0  0  0  0  0  0  0  0
    0.2040   -0.2450    0.2330 C   0  0  0  0  0  0  0  0  0  0  0  0
    1.1300    0.2570   -0.5550 C   0  0  0  0  0  0  0  0  0  0  0  0
    2.4220   -0.3480   -0.1630 C   0  0  0  0  0  0  0  0  0  0  0  0
    2.0570   -1.2260    0.9260 N   0  0  0  0  0  0  0  0  0  0  0  0
    0.8110   -1.1550    1.1330 N   0  0  0  0  0  0  0  0  0  0  0  0
  1  2  2  0
  2  3  1  0
  2  4  1  0
  4  5  2  0
  4  8  1  0
  5  6  1  0
  6  7  1  0
  7  8  2  0
M  END
