
     RDKit          3D

  8  8  0  0  0  0  0  0  0  0999 V2000
   -1.7180    1.1300    0.2970 C   0  0  0  0  0  0  0  0  0  0  0  0
   -0.3740    0.5310    0.0980 C   0  0  0  0  0  0  0  0  0  0  0  0
   -0.2880   -0.7800   -0.0670 C   0  0  0  0  0  0  0  0  0  0  0  0
   -1.4540   -1.5540   -0.0480 N   0  0  0  0  0  0  0  0  0  0  0  0
    0.9790   -1.4040   -0.2620 N   0  0  0  0  0  0  0  0  0  0  0  0
    2.1190   -0.6130   -0.2760 N   0  0  0  0  0  0  0  0  0  0  0  0
    2.0460    0.7960   -0.1010 C   0  0  0  0  0  0  0  0  0  0  0  0
    0.8540    1.3430    0.0770 C   0  0  0  0  0  0  0  0  0  0  0  0
  1  2  1  0
  2  3  2  0
  2  8  1  0
  3  4  1  0
  3  5  1  0
  5  6  1  0
  6  7  1  0
  7  8  2  0
M  END
