
     RDKit          3D

 17 18  0  0  0  0  0  0  0  0999 V2000
   -2.4600    0.7170    2.1240 O   0  0  0  0  0  0  0  0  0  0  0  0
   -3.1210    0.7520    1.0940 N   0  0  0  0  0  0  0  0  0  0  0  0
   -4.4280    1.2320    1.2500 O   0  0  0  0  0  0  0  0  0  0  0  0
   -2.7520    0.3580   -0.2030 C   0  0  0  0  0  0  0  0  0  0  0  0
   -3.7390   -0.1820   -0.9920 N   0  0  0  0  0  0  0  0  0  0  0  0
   -3.4230   -0.5710   -2.2330 C   0  0  0  0  0  0  0  0  0  0  0  0
   -2.1510   -0.4490   -2.7450 C   0  0  0  0  0  0  0  0  0  0  0  0
   -1.2090    0.0790   -1.9580 N   0  0  0  0  0  0  0  0  0  0  0  0
   -1.4730    0.4960   -0.6770 C   0  0  0  0  0  0  0  0  0  0  0  0
   -0.4410    1.1010    0.0880 N   0  0  0  0  0  0  0  0  0  0  0  0
    0.9040    1.1800   -0.4270 C   0  0  0  0  0  0  0  0  0  0  0  0
    1.8480    0.1870    0.0980 C   0  0  0  0  0  0  0  0  0  0  0  0
    2.9710    0.5480    0.7540 C   0  0  0  0  0  0  0  0  0  0  0  0
    3.7410   -0.6260    1.1760 C   0  0  0  0  0  0  0  0  0  0  0  0
    2.9410   -1.7540    0.6930 C   0  0  0  0  0  0  0  0  0  0  0  0
    1.8670   -1.2520    0.0820 C   0  0  0  0  0  0  0  0  0  0  0  0
    0.6410   -2.2940   -0.6420 Cl  0  0  0  0  0  0  0  0  0  0  0  0
  1  2  2  0
  2  3  1  0
  2  4  1  0
  4  5  2  0
  4  9  1  0
  5  6  1  0
  6  7  2  0
  7  8  1  0
  8  9  2  0
  9 10  1  0
 10 11  1  0
 11 12  1  0
 12 13  2  0
 12 16  1  0
 13 14  1  0
 14 15  1  0
 15 16  2  0
 16 17  1  0
M  CHG  2   2   1   3  -1
M  END
