
     RDKit          3D

 27 29  0  0  0  0  0  0  0  0999 V2000
   -4.1870   -0.6330    0.6150 C   0  0  0  0  0  0  0  0  0  0  0  0
   -3.3810    0.0630   -0.4870 C   0  0  0  0  0  0  0  0  0  0  0  0
   -1.9240   -0.1300   -0.2360 C   0  0  0  0  0  0  0  0  0  0  0  0
   -1.0600    0.8700   -0.0900 C   0  0  0  0  0  0  0  0  0  0  0  0
   -1.6160    2.2130   -0.1900 C   0  0  0  0  0  0  0  0  0  0  0  0
   -1.6370    3.1470    0.8060 C   0  0  0  0  0  0  0  0  0  0  0  0
   -2.1350    4.4260    0.5980 C   0  0  0  0  0  0  0  0  0  0  0  0
   -2.6080    4.7100   -0.6600 C   0  0  0  0  0  0  0  0  0  0  0  0
   -2.5980    3.7940   -1.6670 C   0  0  0  0  0  0  0  0  0  0  0  0
   -2.1050    2.5350   -1.4550 C   0  0  0  0  0  0  0  0  0  0  0  0
    0.3680    0.5970    0.0530 C   0  0  0  0  0  0  0  0  0  0  0  0
    1.1070    1.2310    1.0070 C   0  0  0  0  0  0  0  0  0  0  0  0
    2.4790    0.9470    1.0700 C   0  0  0  0  0  0  0  0  0  0  0  0
    3.0860    0.0640    0.2110 C   0  0  0  0  0  0  0  0  0  0  0  0
    4.5090   -0.1820    0.3310 C   0  0  0  0  0  0  0  0  0  0  0  0
    5.1970   -0.9990   -0.4260 C   0  0  0  0  0  0  0  0  0  0  0  0
    6.6430   -1.1680   -0.2100 C   0  0  0  0  0  0  0  0  0  0  0  0
    7.2370   -0.5400    0.6920 O   0  0  0  0  0  0  0  0  0  0  0  0
    7.3860   -2.0300   -1.0030 O   0  0  0  0  0  0  0  0  0  0  0  0
    2.3080   -0.5530   -0.7340 C   0  0  0  0  0  0  0  0  0  0  0  0
    0.9650   -0.3110   -0.8380 C   0  0  0  0  0  0  0  0  0  0  0  0
   -1.4800   -1.5360   -0.1140 C   0  0  0  0  0  0  0  0  0  0  0  0
   -0.6160   -1.9720    0.8620 C   0  0  0  0  0  0  0  0  0  0  0  0
   -0.2110   -3.2920    0.9520 C   0  0  0  0  0  0  0  0  0  0  0  0
   -0.6760   -4.2220    0.0440 C   0  0  0  0  0  0  0  0  0  0  0  0
   -1.5390   -3.8090   -0.9370 C   0  0  0  0  0  0  0  0  0  0  0  0
   -1.9350   -2.4940   -1.0180 C   0  0  0  0  0  0  0  0  0  0  0  0
  1  2  1  0
  2  3  1  0
  3  4  2  3
  3 22  1  0
  4  5  1  0
  4 11  1  0
  5  6  2  0
  5 10  1  0
  6  7  1  0
  7  8  2  0
  8  9  1  0
  9 10  2  0
 11 12  2  0
 11 21  1  0
 12 13  1  0
 13 14  2  0
 14 15  1  0
 14 20  1  0
 15 16  2  3
 16 17  1  0
 17 18  2  0
 17 19  1  0
 20 21  2  0
 22 23  2  0
 22 27  1  0
 23 24  1  0
 24 25  2  0
 25 26  1  0
 26 27  2  0
M  END
