
     RDKit          3D

 17 18  0  0  0  0  0  0  0  0999 V2000
    2.9380    1.6990   -0.3500 C   0  0  0  0  0  0  0  0  0  0  0  0
    2.0180    0.7260   -0.2860 C   0  0  0  0  0  0  0  0  0  0  0  0
    0.6140    0.8210    0.0460 C   0  0  0  0  0  0  0  0  0  0  0  0
   -0.0850    1.9140    0.3620 C   0  0  0  0  0  0  0  0  0  0  0  0
    0.6230    3.4940    0.4320 Cl  0  0  0  0  0  0  0  0  0  0  0  0
    0.0460   -0.5100   -0.0230 N   0  0  0  0  0  0  0  0  0  0  0  0
   -1.1030   -1.1780    0.1360 C   0  0  0  0  0  0  0  0  0  0  0  0
   -2.4430   -0.6860    0.5220 C   0  0  0  0  0  0  0  0  0  0  0  0
   -3.0680    0.0590   -0.5530 N   0  0  0  0  0  0  0  0  0  0  0  0
   -4.3660    0.5400   -0.1890 C   0  0  0  0  0  0  0  0  0  0  0  0
   -0.8460   -2.4750   -0.1170 N   0  0  0  0  0  0  0  0  0  0  0  0
    0.4210   -2.6060   -0.4220 N   0  0  0  0  0  0  0  0  0  0  0  0
    0.9970   -1.3770   -0.3670 C   0  0  0  0  0  0  0  0  0  0  0  0
    2.2920   -0.7120   -0.5590 C   0  0  2  0  0  0  0  0  0  0  0  0
    3.3400   -1.2020    0.3560 C   0  0  0  0  0  0  0  0  0  0  0  0
    3.0810   -2.0880    1.1780 O   0  0  0  0  0  0  0  0  0  0  0  0
    4.6010   -0.6530    0.2730 O   0  0  0  0  0  0  0  0  0  0  0  0
  1  2  2  0
  2  3  1  0
  2 14  1  0
  3  4  2  3
  3  6  1  0
  4  5  1  0
  6  7  1  0
  6 13  1  0
  7  8  1  0
  7 11  2  0
  8  9  1  0
  9 10  1  0
 11 12  1  0
 12 13  2  0
 13 14  1  0
 14 15  1  1
 15 16  2  0
 15 17  1  0
M  END
