
     RDKit          3D

 22 25  0  0  0  0  0  0  0  0999 V2000
   -1.6040   -1.9150    0.7910 C   0  0  0  0  0  0  0  0  0  0  0  0
   -2.1470   -0.6290    0.3370 C   0  0  0  0  0  0  0  0  0  0  0  0
   -1.4690    0.4970   -0.0120 C   0  0  0  0  0  0  0  0  0  0  0  0
   -0.0460    0.8070   -0.0850 C   0  0  0  0  0  0  0  0  0  0  0  0
    0.2900    2.0150   -0.3450 O   0  0  0  0  0  0  0  0  0  0  0  0
    0.9710   -0.1320    0.1110 N   0  0  0  0  0  0  0  0  0  0  0  0
    2.3850    0.1070    0.0620 C   0  0  0  0  0  0  0  0  0  0  0  0
    2.9940    1.3200    0.0100 C   0  0  0  0  0  0  0  0  0  0  0  0
    4.3780    1.4700   -0.0500 C   0  0  0  0  0  0  0  0  0  0  0  0
    5.1680    0.3550   -0.0570 C   0  0  0  0  0  0  0  0  0  0  0  0
    4.6120   -0.8810   -0.0060 C   0  0  0  0  0  0  0  0  0  0  0  0
    3.2440   -1.0030    0.0520 C   0  0  0  0  0  0  0  0  0  0  0  0
    5.6480   -1.8370   -0.0270 O   0  0  0  0  0  0  0  0  0  0  0  0
    6.8560   -1.1770    0.3820 C   0  0  0  0  0  0  0  0  0  0  0  0
    6.6610    0.2440   -0.1160 C   0  0  0  0  0  0  0  0  0  0  0  0
   -2.4080    1.4380   -0.3540 N   0  0  0  0  0  0  0  0  0  0  0  0
   -3.6420    0.9600   -0.2380 C   0  0  0  0  0  0  0  0  0  0  0  0
   -3.5060   -0.3260    0.1910 C   0  0  0  0  0  0  0  0  0  0  0  0
   -4.7360   -1.1220    0.4130 C   0  0  0  0  0  0  0  0  0  0  0  0
   -5.6560   -0.3090    1.1480 N   0  0  0  0  0  0  0  0  0  0  0  0
   -5.9630    0.9590    0.5780 C   0  0  0  0  0  0  0  0  0  0  0  0
   -5.0160    1.4690   -0.4530 C   0  0  0  0  0  0  0  0  0  0  0  0
  1  2  1  0
  2  3  2  0
  2 18  1  0
  3  4  1  0
  3 16  1  0
  4  5  2  0
  4  6  1  0
  6  7  1  0
  7  8  2  0
  7 12  1  0
  8  9  1  0
  9 10  2  0
 10 11  1  0
 10 15  1  0
 11 12  2  0
 11 13  1  0
 13 14  1  0
 14 15  1  0
 16 17  1  0
 17 18  2  0
 17 22  1  0
 18 19  1  0
 19 20  1  0
 20 21  1  0
 21 22  1  0
M  END
