
     RDKit          3D

 22 24  0  0  0  0  0  0  0  0999 V2000
    4.6130    1.9270    1.8420 C   0  0  0  0  0  0  0  0  0  0  0  0
    3.9460    0.7220    1.2600 C   0  0  0  0  0  0  0  0  0  0  0  0
    4.6910   -0.3410    1.0460 C   0  0  0  0  0  0  0  0  0  0  0  0
    4.1540   -1.5700    0.4840 C   0  0  0  0  0  0  0  0  0  0  0  0
    2.8540   -1.6090    0.1790 C   0  0  0  0  0  0  0  0  0  0  0  0
    1.9770   -0.4790    0.3890 C   0  0  0  0  0  0  0  0  0  0  0  0
    0.7150   -0.5390    0.0890 C   0  0  0  0  0  0  0  0  0  0  0  0
   -0.1660    0.6280    0.3110 C   0  0  0  0  0  0  0  0  0  0  0  0
   -1.4540    0.5930    0.0130 C   0  0  0  0  0  0  0  0  0  0  0  0
   -2.2310    1.8280    0.2820 C   0  0  0  0  0  0  0  0  0  0  0  0
   -3.4920    1.8360   -0.4280 N   0  0  0  0  0  0  0  0  0  0  0  0
   -4.0040    3.1360   -0.8320 C   0  0  0  0  0  0  0  0  0  0  0  0
   -4.1510    0.6280   -0.6910 C   0  0  0  0  0  0  0  0  0  0  0  0
   -5.4200    0.6680   -0.7770 O   0  0  0  0  0  0  0  0  0  0  0  0
   -3.4220   -0.6270   -0.8590 C   0  0  0  0  0  0  0  0  0  0  0  0
   -2.0210   -0.5800   -0.5330 N   0  0  0  0  0  0  0  0  0  0  0  0
   -1.2430   -1.7340   -0.7730 C   0  0  0  0  0  0  0  0  0  0  0  0
   -1.7480   -2.9770   -1.3310 C   0  0  0  0  0  0  0  0  0  0  0  0
   -0.9070   -4.1030   -1.5470 N   0  0  0  0  0  0  0  0  0  0  0  0
   -2.9740   -3.1340   -1.6590 O   0  0  0  0  0  0  0  0  0  0  0  0
    0.0610   -1.6960   -0.4710 C   0  0  0  0  0  0  0  0  0  0  0  0
    2.5120    0.7830    0.9600 C   0  0  0  0  0  0  0  0  0  0  0  0
  1  2  1  0
  2  3  2  0
  2 22  1  0
  3  4  1  0
  4  5  2  0
  5  6  1  0
  6  7  2  3
  6 22  1  0
  7  8  1  0
  7 21  1  0
  8  9  2  0
  9 10  1  0
  9 16  1  0
 10 11  1  0
 11 12  1  0
 11 13  1  0
 13 14  2  0
 13 15  1  0
 15 16  1  0
 16 17  1  0
 17 18  1  0
 17 21  2  0
 18 19  1  0
 18 20  2  0
M  END
