
     RDKit          3D

 17 18  0  0  0  0  0  0  0  0999 V2000
    3.2080   -1.3880   -0.3700 C   0  0  0  0  0  0  0  0  0  0  0  0
    3.4990   -0.3390    0.3360 C   0  0  0  0  0  0  0  0  0  0  0  0
    2.4770    0.6630    0.6800 C   0  0  0  0  0  0  0  0  0  0  0  0
    2.8770    1.6750    1.3910 C   0  0  0  0  0  0  0  0  0  0  0  0
    1.1390    0.5120    0.2490 N   0  0  0  0  0  0  0  0  0  0  0  0
    0.0680    1.3820    0.5020 C   0  0  0  0  0  0  0  0  0  0  0  0
    0.2920    2.4180    1.1780 O   0  0  0  0  0  0  0  0  0  0  0  0
   -1.3190    1.1990    0.0420 C   0  0  0  0  0  0  0  0  0  0  0  0
   -2.3200    2.1690    0.2530 C   0  0  0  0  0  0  0  0  0  0  0  0
   -2.1220    3.7170    1.0550 Cl  0  0  0  0  0  0  0  0  0  0  0  0
   -3.4200    1.6440   -0.2870 N   0  0  0  0  0  0  0  0  0  0  0  0
   -4.6320    2.3360   -0.2660 O   0  0  0  0  0  0  0  0  0  0  0  0
   -3.1460    0.4820   -0.7800 N   0  0  0  0  0  0  0  0  0  0  0  0
   -1.8520    0.1670   -0.5970 N   0  0  0  0  0  0  0  0  0  0  0  0
   -1.2500   -1.0740   -1.0340 C   0  0  1  0  0  0  0  0  0  0  0  0
   -1.1460   -2.2780   -0.2240 C   0  0  0  0  0  0  0  0  0  0  0  0
   -2.2910   -2.2500   -1.1280 C   0  0  0  0  0  0  0  0  0  0  0  0
  1  2  2  0
  2  3  1  0
  3  4  2  0
  3  5  1  0
  5  6  1  0
  6  7  2  0
  6  8  1  0
  8  9  2  0
  8 14  1  0
  9 10  1  0
  9 11  1  0
 11 12  1  0
 11 13  2  0
 13 14  1  0
 15 14  1  1
 15 16  1  0
 15 17  1  0
 16 17  1  0
M  CHG  2  11   1  12  -1
M  END
