
     RDKit          3D

 17 18  0  0  0  0  0  0  0  0999 V2000
   -3.3990    1.2620    0.7000 C   0  0  0  0  0  0  0  0  0  0  0  0
   -3.0690   -0.2350    0.7120 C   0  0  0  0  0  0  0  0  0  0  0  0
   -2.2220   -0.5630   -0.4280 N   0  0  0  0  0  0  0  0  0  0  0  0
   -2.5940   -0.9450   -1.6470 C   0  0  0  0  0  0  0  0  0  0  0  0
   -1.4640   -1.1390   -2.3510 C   0  0  0  0  0  0  0  0  0  0  0  0
   -0.3670   -0.8720   -1.5620 N   0  0  0  0  0  0  0  0  0  0  0  0
    0.9150   -0.9420   -2.0500 O   0  0  0  0  0  0  0  0  0  0  0  0
   -0.8310   -0.5150   -0.3630 C   0  0  0  0  0  0  0  0  0  0  0  0
   -0.1140   -0.0530    0.8000 C   0  0  0  0  0  0  0  0  0  0  0  0
    1.0890   -0.1790    1.1950 C   0  0  0  0  0  0  0  0  0  0  0  0
    2.1990   -0.8900    0.5530 C   0  0  0  0  0  0  0  0  0  0  0  0
    3.2190    0.0500    0.0750 C   0  0  0  0  0  0  0  0  0  0  0  0
    4.2970    0.5160    0.7800 N   0  0  0  0  0  0  0  0  0  0  0  0
    5.0000    1.3490    0.0280 C   0  0  0  0  0  0  0  0  0  0  0  0
    6.4610    2.1740    0.5380 Cl  0  0  0  0  0  0  0  0  0  0  0  0
    4.3720    1.4110   -1.1500 N   0  0  0  0  0  0  0  0  0  0  0  0
    3.3360    0.6390   -1.0830 O   0  0  0  0  0  0  0  0  0  0  0  0
  1  2  1  0
  2  3  1  0
  3  4  1  0
  3  8  1  0
  4  5  2  0
  5  6  1  0
  6  7  1  0
  6  8  2  0
  8  9  1  0
  9 10  2  3
 10 11  1  0
 11 12  1  0
 12 13  2  0
 12 17  1  0
 13 14  1  0
 14 15  1  0
 14 16  2  0
 16 17  1  0
M  CHG  2   6   1   7  -1
M  END
