
     RDKit          3D

 20 21  0  0  0  0  0  0  0  0999 V2000
    4.9020    0.0730   -1.3090 C   0  0  0  0  0  0  0  0  0  0  0  0
    4.6600    1.3300   -0.4920 C   0  0  0  0  0  0  0  0  0  0  0  0
    3.7130    1.0910    0.5790 N   0  0  0  0  0  0  0  0  0  0  0  0
    2.3830    0.6550    0.3500 C   0  0  0  0  0  0  0  0  0  0  0  0
    2.0140    0.4690   -0.8380 O   0  0  0  0  0  0  0  0  0  0  0  0
    1.4290    0.4170    1.4640 C   0  0  0  0  0  0  0  0  0  0  0  0
    0.0930   -0.0340    1.0050 C   0  0  2  0  0  0  0  0  0  0  0  0
    0.1170   -1.3260    0.2280 C   0  0  0  0  0  0  0  0  0  0  0  0
   -1.0280   -2.2280    0.5500 C   0  0  1  0  0  0  0  0  0  0  0  0
   -1.0630   -2.6260    2.0110 C   0  0  0  0  0  0  0  0  0  0  0  0
   -2.3070   -1.7040    0.1910 N   0  0  0  0  0  0  0  0  0  0  0  0
   -2.7240   -0.4410   -0.3760 C   0  0  0  0  0  0  0  0  0  0  0  0
   -3.9290   -0.5430   -0.8950 C   0  0  0  0  0  0  0  0  0  0  0  0
   -4.6910    0.8580   -1.6600 S   0  0  0  0  0  0  0  0  0  0  0  0
   -4.9880    0.6030   -3.1270 O   0  0  0  0  0  0  0  0  0  0  0  0
   -3.5090    2.2060   -1.5240 C   0  0  1  0  0  0  0  0  0  0  0  0
   -4.0900    3.3110   -0.8830 O   0  0  0  0  0  0  0  0  0  0  0  0
   -2.2980    1.8490   -0.8650 N   0  0  0  0  0  0  0  0  0  0  0  0
   -1.9120    0.7640   -0.3660 C   0  0  0  0  0  0  0  0  0  0  0  0
   -0.5880    0.9460    0.1830 N   0  0  0  0  0  0  0  0  0  0  0  0
  1  2  1  0
  2  3  1  0
  3  4  1  0
  4  5  2  0
  4  6  1  0
  7  6  1  6
  7  8  1  0
  7 20  1  0
  8  9  1  0
  9 10  1  1
  9 11  1  0
 11 12  1  0
 12 13  2  0
 12 19  1  0
 14 13  1  6
 14 15  2  0
 14 16  1  0
 16 17  1  1
 16 18  1  0
 18 19  2  0
 19 20  1  0
M  END
