
     RDKit          3D

 20 21  0  0  0  0  0  0  0  0999 V2000
   -5.2470    0.4600    1.0370 C   0  0  0  0  0  0  0  0  0  0  0  0
   -4.5910   -0.8970    0.8000 C   0  0  1  0  0  0  0  0  0  0  0  0
   -5.5090   -1.9180    1.1440 O   0  0  0  0  0  0  0  0  0  0  0  0
   -4.3680   -1.0130   -0.6720 C   0  0  0  0  0  0  0  0  0  0  0  0
   -3.3110    0.2570   -1.3120 S   0  0  0  0  0  0  0  0  0  0  0  0
   -1.5770   -0.0970   -0.8920 C   0  0  0  0  0  0  0  0  0  0  0  0
   -0.7150    0.8380   -1.0660 N   0  0  0  0  0  0  0  0  0  0  0  0
    0.6550    0.7410   -0.8040 C   0  0  0  0  0  0  0  0  0  0  0  0
    1.5130    1.6580   -0.9650 N   0  0  0  0  0  0  0  0  0  0  0  0
    2.9200    1.5380   -0.6880 C   0  0  0  0  0  0  0  0  0  0  0  0
    3.7110    2.5190   -0.8830 N   0  0  0  0  0  0  0  0  0  0  0  0
    3.4340    0.2870   -0.1830 C   0  0  0  0  0  0  0  0  0  0  0  0
    4.6610   -0.0110    0.1250 C   0  0  0  0  0  0  0  0  0  0  0  0
    5.8370    0.7920    0.0590 C   0  0  0  0  0  0  0  0  0  0  0  0
    5.9480    2.0010   -0.3240 N   0  0  0  0  0  0  0  0  0  0  0  0
    7.0770    0.2000    0.4660 O   0  0  0  0  0  0  0  0  0  0  0  0
    2.4090   -0.7860    0.0020 C   0  0  0  0  0  0  0  0  0  0  0  0
    1.1510   -0.5470   -0.2900 C   0  0  0  0  0  0  0  0  0  0  0  0
    0.1840   -1.5150   -0.1320 O   0  0  0  0  0  0  0  0  0  0  0  0
   -1.1830   -1.3950   -0.3440 C   0  0  0  0  0  0  0  0  0  0  0  0
  2  1  1  6
  2  3  1  0
  2  4  1  0
  4  5  1  0
  5  6  1  0
  6  7  2  0
  6 20  1  0
  7  8  1  0
  8  9  2  0
  8 18  1  0
  9 10  1  0
 10 11  2  0
 10 12  1  0
 12 13  2  3
 12 17  1  0
 13 14  1  0
 14 15  2  0
 14 16  1  0
 17 18  2  0
 18 19  1  0
 19 20  1  0
M  END
