
     RDKit          3D

 23 24  0  0  0  0  0  0  0  0999 V2000
   -5.0960   -2.3330   -0.1030 C   0  0  0  0  0  0  0  0  0  0  0  0
   -4.8180   -1.2550   -1.0850 C   0  0  0  0  0  0  0  0  0  0  0  0
   -4.5560    0.1080   -0.4920 C   0  0  2  0  0  0  0  0  0  0  0  0
   -5.7450    0.5860    0.3290 C   0  0  0  0  0  0  0  0  0  0  0  0
   -4.4920    1.0780   -1.6800 C   0  0  0  0  0  0  0  0  0  0  0  0
   -3.3020    0.2110    0.2280 C   0  0  0  0  0  0  0  0  0  0  0  0
   -3.1370   -0.1610    1.5620 C   0  0  0  0  0  0  0  0  0  0  0  0
   -1.9340   -0.0330    2.2270 C   0  0  0  0  0  0  0  0  0  0  0  0
   -0.8520    0.4820    1.5520 C   0  0  0  0  0  0  0  0  0  0  0  0
    0.3550    0.6210    2.1940 O   0  0  0  0  0  0  0  0  0  0  0  0
   -0.9760    0.8660    0.2130 C   0  0  0  0  0  0  0  0  0  0  0  0
    0.1850    1.3800   -0.4000 O   0  0  0  0  0  0  0  0  0  0  0  0
    1.2700    0.4870   -0.5570 C   0  0  0  0  0  0  0  0  0  0  0  0
    1.0560   -0.6860   -0.1180 O   0  0  0  0  0  0  0  0  0  0  0  0
    2.5340    0.8740   -1.1670 C   0  0  0  0  0  0  0  0  0  0  0  0
    3.7660    0.5820   -0.3640 C   0  0  2  0  0  0  0  0  0  0  0  0
    3.7310    1.2990    0.8530 O   0  0  0  0  0  0  0  0  0  0  0  0
    4.9800    1.0200   -1.1240 C   0  0  0  0  0  0  0  0  0  0  0  0
    6.0830   -0.0480   -1.0870 C   0  0  0  0  0  0  0  0  0  0  0  0
    6.3720   -0.3460    0.3690 C   0  0  0  0  0  0  0  0  0  0  0  0
    5.1280   -0.9440    0.9870 C   0  0  0  0  0  0  0  0  0  0  0  0
    3.9200   -0.8700    0.0390 C   0  0  0  0  0  0  0  0  0  0  0  0
   -2.1830    0.7230   -0.4090 C   0  0  0  0  0  0  0  0  0  0  0  0
  1  2  1  0
  2  3  1  0
  3  4  1  1
  3  5  1  0
  3  6  1  0
  6  7  2  0
  6 23  1  0
  7  8  1  0
  8  9  2  0
  9 10  1  0
  9 11  1  0
 11 12  1  0
 11 23  2  0
 12 13  1  0
 13 14  2  0
 13 15  1  0
 15 16  1  0
 16 17  1  1
 16 18  1  0
 16 22  1  0
 18 19  1  0
 19 20  1  0
 20 21  1  0
 21 22  1  0
M  END
