
     RDKit          3D

 20 22  0  0  0  0  0  0  0  0999 V2000
    1.2310   -2.3700   -2.4830 N   0  0  0  0  0  0  0  0  0  0  0  0
    1.6770   -1.4760   -1.4890 C   0  0  0  0  0  0  0  0  0  0  0  0
    2.8860   -1.4070   -1.2100 O   0  0  0  0  0  0  0  0  0  0  0  0
    0.6870   -0.5960   -0.7560 C   0  0  0  0  0  0  0  0  0  0  0  0
   -0.5260   -0.7600   -1.1290 C   0  0  0  0  0  0  0  0  0  0  0  0
   -1.8020   -0.1680   -0.7290 C   0  0  0  0  0  0  0  0  0  0  0  0
   -2.9210   -0.5350   -1.3400 C   0  0  0  0  0  0  0  0  0  0  0  0
   -4.2990   -0.1370   -1.1710 C   0  0  0  0  0  0  0  0  0  0  0  0
   -4.5490    0.9970    0.1410 S   0  0  2  0  0  0  0  0  0  0  0  0
   -5.4180    0.2820    1.1770 O   0  0  0  0  0  0  0  0  0  0  0  0
   -5.2610    2.2470   -0.3140 O   0  0  0  0  0  0  0  0  0  0  0  0
   -2.9940    1.3510    0.8150 C   0  0  0  0  0  0  0  0  0  0  0  0
   -1.8990    0.7880    0.3550 C   0  0  0  0  0  0  0  0  0  0  0  0
    1.2810    0.2990    0.2350 C   0  0  2  0  0  0  0  0  0  0  0  0
    2.7360    0.4740   -0.1270 N   0  0  0  0  0  0  0  0  0  0  0  0
    3.4180    0.4660    0.9650 C   0  0  0  0  0  0  0  0  0  0  0  0
    4.5280    0.5070    1.9830 C   0  0  0  0  0  0  0  0  0  0  0  0
    3.4430    1.0440    2.8790 C   0  0  0  0  0  0  0  0  0  0  0  0
    2.5120    0.3350    2.0340 N   0  0  0  0  0  0  0  0  0  0  0  0
    1.3980   -0.3700    1.4970 N   0  0  0  0  0  0  0  0  0  0  0  0
  1  2  1  0
  2  3  2  0
  2  4  1  0
  4  5  2  3
 14  4  1  6
  5  6  1  0
  6  7  2  0
  6 13  1  0
  7  8  1  0
  9  8  1  6
  9 10  2  0
  9 11  2  0
  9 12  1  0
 12 13  2  0
 14 15  1  0
 14 20  1  0
 15 16  2  0
 16 17  1  0
 16 19  1  0
 17 18  1  0
 18 19  1  0
 19 20  1  0
M  END
