
     RDKit          3D

 24 25  0  0  0  0  0  0  0  0999 V2000
   -5.9360    1.8950    0.4280 C   0  0  0  0  0  0  0  0  0  0  0  0
   -4.7770    0.9740    0.5770 C   0  0  0  0  0  0  0  0  0  0  0  0
   -3.8720    0.8400   -0.4290 C   0  0  0  0  0  0  0  0  0  0  0  0
   -2.7640   -0.0130   -0.3390 C   0  0  0  0  0  0  0  0  0  0  0  0
   -1.8660   -0.0850   -1.4550 C   0  0  0  0  0  0  0  0  0  0  0  0
   -2.3330   -0.1870   -2.7380 C   0  0  0  0  0  0  0  0  0  0  0  0
   -1.5290   -0.2590   -3.8470 C   0  0  0  0  0  0  0  0  0  0  0  0
   -0.1760   -0.2270   -3.6440 C   0  0  0  0  0  0  0  0  0  0  0  0
    0.3220   -0.1230   -2.3430 C   0  0  0  0  0  0  0  0  0  0  0  0
   -0.4760   -0.0500   -1.2260 C   0  0  0  0  0  0  0  0  0  0  0  0
   -0.0090    0.0540    0.0610 O   0  0  0  0  0  0  0  0  0  0  0  0
    1.2840    0.0860    0.5570 C   0  0  0  0  0  0  0  0  0  0  0  0
    2.0870   -1.1610    0.3470 C   0  0  0  0  0  0  0  0  0  0  0  0
    3.4620   -1.1760    0.8850 C   0  0  0  0  0  0  0  0  0  0  0  0
    4.4510   -0.1860    0.4190 C   0  0  2  0  0  0  0  0  0  0  0  0
    5.7640   -0.5550    1.1770 C   0  0  0  0  0  0  0  0  0  0  0  0
    4.1910    1.2400    0.7930 C   0  0  0  0  0  0  0  0  0  0  0  0
    4.7850   -0.2560   -1.0070 C   0  0  0  0  0  0  0  0  0  0  0  0
    5.6440    0.4970   -1.4370 O   0  0  0  0  0  0  0  0  0  0  0  0
   -2.5910   -0.7380    0.8080 C   0  0  0  0  0  0  0  0  0  0  0  0
   -3.5120   -0.6000    1.8300 C   0  0  0  0  0  0  0  0  0  0  0  0
   -3.3500   -1.3330    3.0090 O   0  0  0  0  0  0  0  0  0  0  0  0
   -4.5990    0.2410    1.7350 C   0  0  0  0  0  0  0  0  0  0  0  0
   -5.5460    0.4150    2.7240 O   0  0  0  0  0  0  0  0  0  0  0  0
  1  2  1  0
  2  3  2  0
  2 23  1  0
  3  4  1  0
  4  5  1  0
  4 20  2  0
  5  6  2  0
  5 10  1  0
  6  7  1  0
  7  8  2  0
  8  9  1  0
  9 10  2  0
 10 11  1  0
 11 12  1  0
 12 13  1  0
 13 14  1  0
 14 15  1  0
 15 16  1  1
 15 17  1  0
 15 18  1  0
 18 19  2  0
 20 21  1  0
 21 22  1  0
 21 23  2  0
 23 24  1  0
M  END
