
     RDKit          3D

 23 25  0  0  0  0  0  0  0  0999 V2000
    3.7830    1.6350    1.1780 O   0  0  0  0  0  0  0  0  0  0  0  0
    4.4120    0.8090    0.1870 C   0  0  0  0  0  0  0  0  0  0  0  0
    5.5470    1.2570   -0.4560 C   0  0  0  0  0  0  0  0  0  0  0  0
    6.1820    2.9860   -0.0300 Br  0  0  0  0  0  0  0  0  0  0  0  0
    6.1450    0.4730   -1.4150 C   0  0  0  0  0  0  0  0  0  0  0  0
    5.6070   -0.7810   -1.7380 C   0  0  0  0  0  0  0  0  0  0  0  0
    6.3530   -1.7920   -2.9930 Cl  0  0  0  0  0  0  0  0  0  0  0  0
    4.4750   -1.1830   -1.0620 C   0  0  0  0  0  0  0  0  0  0  0  0
    3.8710   -0.3950   -0.0940 C   0  0  0  0  0  0  0  0  0  0  0  0
    2.7950   -0.9370    0.7080 C   0  0  0  0  0  0  0  0  0  0  0  0
    1.5370   -0.2430    0.7170 N   0  0  2  0  0  0  0  0  0  0  0  0
    0.6940   -0.8840    1.6710 C   0  0  0  0  0  0  0  0  0  0  0  0
   -0.6800   -1.1540    1.0530 C   0  0  0  0  0  0  0  0  0  0  0  0
   -1.2090    0.2380    0.6840 C   0  0  2  0  0  0  0  0  0  0  0  0
   -2.5910    0.0950    0.3610 N   0  0  1  0  0  0  0  0  0  0  0  0
   -3.2510    1.3930    0.3250 C   0  0  0  0  0  0  0  0  0  0  0  0
   -4.7260    1.1350    0.6560 C   0  0  0  0  0  0  0  0  0  0  0  0
   -5.1760    0.0060   -0.2140 C   0  0  2  0  0  0  0  0  0  0  0  0
   -5.3910   -1.1800    0.4870 O   0  0  0  0  0  0  0  0  0  0  0  0
   -4.2140   -0.3110   -1.3360 C   0  0  0  0  0  0  0  0  0  0  0  0
   -2.8620   -0.7170   -0.7800 C   0  0  0  0  0  0  0  0  0  0  0  0
   -0.3400    0.7940   -0.3770 C   0  0  0  0  0  0  0  0  0  0  0  0
    0.9790    0.0270   -0.5550 C   0  0  0  0  0  0  0  0  0  0  0  0
  1  2  1  0
  2  3  2  0
  2  9  1  0
  3  4  1  0
  3  5  1  0
  5  6  2  0
  6  7  1  0
  6  8  1  0
  8  9  2  0
  9 10  1  0
 11 10  1  6
 11 12  1  0
 11 23  1  0
 12 13  1  0
 14 13  1  6
 14 15  1  0
 14 22  1  0
 15 16  1  6
 15 21  1  0
 16 17  1  0
 17 18  1  0
 18 19  1  1
 18 20  1  0
 20 21  1  0
 22 23  1  0
M  CHG  2  11   1  15   1
M  END
