
     RDKit          3D

 20 22  0  0  0  0  0  0  0  0999 V2000
   -0.4000    1.2820    1.2140 C   0  0  0  0  0  0  0  0  0  0  0  0
   -0.5650   -0.0740    0.6430 C   0  0  1  0  0  0  0  0  0  0  0  0
   -0.1100   -1.1660    1.6460 C   0  0  0  0  0  0  0  0  0  0  0  0
    0.4090   -2.2550    0.8930 N   0  0  0  0  0  0  0  0  0  0  0  0
   -0.4620   -2.6230   -0.2160 C   0  0  0  0  0  0  0  0  0  0  0  0
   -0.8780   -1.3940   -0.9280 C   0  0  1  0  0  0  0  0  0  0  0  0
   -1.7910   -0.5660    0.0410 C   0  0  2  0  0  0  0  0  0  0  0  0
   -2.8170    0.1640   -0.7040 C   0  0  0  0  0  0  0  0  0  0  0  0
   -3.6230    1.4360    0.1740 S   0  0  1  0  0  0  0  0  0  0  0  0
   -4.2660    1.0320    1.4370 O   0  0  0  0  0  0  0  0  0  0  0  0
   -2.7070    2.6330    0.3020 O   0  0  0  0  0  0  0  0  0  0  0  0
   -4.8870    2.0950   -0.8220 O   0  0  0  0  0  0  0  0  0  0  0  0
    0.1260   -0.2540   -0.6860 C   0  0  2  0  0  0  0  0  0  0  0  0
    1.4740   -0.6880   -0.7120 N   0  0  0  0  0  0  0  0  0  0  0  0
    2.5800    0.1000   -0.3470 C   0  0  0  0  0  0  0  0  0  0  0  0
    3.8580   -0.4720   -0.3710 C   0  0  0  0  0  0  0  0  0  0  0  0
    4.9340    0.2460   -0.0560 N   0  0  0  0  0  0  0  0  0  0  0  0
    4.8460    1.5450    0.2980 C   0  0  0  0  0  0  0  0  0  0  0  0
    3.5790    2.1020    0.3200 C   0  0  0  0  0  0  0  0  0  0  0  0
    2.5050    1.3840    0.0050 N   0  0  0  0  0  0  0  0  0  0  0  0
  2  1  1  1
  2  3  1  0
  2  7  1  0
  2 13  1  0
  3  4  1  0
  4  5  1  0
  6  5  1  1
  6  7  1  0
  6 13  1  0
  7  8  1  6
  8  9  1  0
  9 10  2  0
  9 11  2  0
  9 12  1  6
 13 14  1  1
 14 15  1  0
 15 16  2  0
 15 20  1  0
 16 17  1  0
 17 18  2  0
 18 19  1  0
 19 20  2  0
M  END
