
     RDKit          3D

 24 24  0  0  0  0  0  0  0  0999 V2000
    3.6200   -0.1050   -1.4600 C   0  0  0  0  0  0  0  0  0  0  0  0
    3.3200    0.5660   -0.1360 C   0  0  1  0  0  0  0  0  0  0  0  0
    2.8900    1.8800   -0.3230 O   0  0  0  0  0  0  0  0  0  0  0  0
    2.3440   -0.2150    0.5000 O   0  0  0  0  0  0  0  0  0  0  0  0
    1.1710   -0.2500   -0.2700 C   0  0  0  0  0  0  0  0  0  0  0  0
    0.1730   -1.0950    0.4580 C   0  0  0  0  0  0  0  0  0  0  0  0
   -1.0430   -1.2420   -0.1520 O   0  0  0  0  0  0  0  0  0  0  0  0
   -1.7550   -0.0800   -0.3660 C   0  0  1  0  0  0  0  0  0  0  0  0
   -1.9280    0.2630   -1.8090 C   0  0  2  0  0  0  0  0  0  0  0  0
   -2.6540    1.4180   -1.9480 O   0  0  0  0  0  0  0  0  0  0  0  0
   -2.3810   -0.8750   -2.6820 C   0  0  0  0  0  0  0  0  0  0  0  0
   -1.5980   -2.0020   -2.4710 O   0  0  0  0  0  0  0  0  0  0  0  0
   -3.0120    0.0180    0.4630 C   0  0  2  0  0  0  0  0  0  0  0  0
   -2.5930   -0.0260    1.8030 O   0  0  0  0  0  0  0  0  0  0  0  0
   -3.9480   -1.1780    0.2520 C   0  0  0  0  0  0  0  0  0  0  0  0
   -5.0430   -1.0860    1.7320 S   0  0  0  0  0  0  0  0  0  0  0  0
   -5.0090    0.6930    2.1830 C   0  0  0  0  0  0  0  0  0  0  0  0
   -4.6520    1.5620    1.0420 C   0  0  0  0  0  0  0  0  0  0  0  0
   -3.7190    1.1380    0.1590 O   0  0  0  0  0  0  0  0  0  0  0  0
    4.5530    0.6330    0.7420 C   0  0  2  0  0  0  0  0  0  0  0  0
    5.5370    1.3840    0.1200 O   0  0  0  0  0  0  0  0  0  0  0  0
    5.0720   -0.7570    1.0610 C   0  0  2  0  0  0  0  0  0  0  0  0
    4.1040   -1.5310    1.6850 O   0  0  0  0  0  0  0  0  0  0  0  0
    6.1340   -0.6310    1.9500 O   0  0  0  0  0  0  0  0  0  0  0  0
  2  1  1  6
  2  3  1  0
  2  4  1  0
  2 20  1  0
  4  5  1  0
  5  6  1  0
  6  7  1  0
  8  7  1  6
  8  9  1  0
  8 13  1  0
  9 10  1  1
  9 11  1  0
 11 12  1  0
 13 14  1  1
 13 15  1  0
 13 19  1  0
 15 16  1  0
 16 17  1  0
 17 18  1  0
 18 19  1  0
 20 21  1  6
 20 22  1  0
 22 23  1  1
 22 24  1  0
M  END
