
     RDKit          3D

 24 24  0  0  0  0  0  0  0  0999 V2000
   -4.1230   -0.2230   -2.1450 C   0  0  0  0  0  0  0  0  0  0  0  0
   -3.9340    0.3120   -0.7320 C   0  0  1  0  0  0  0  0  0  0  0  0
   -5.0090    1.2000   -0.5390 O   0  0  0  0  0  0  0  0  0  0  0  0
   -4.1350   -0.8300    0.2280 C   0  0  0  0  0  0  0  0  0  0  0  0
   -5.3430   -1.4770   -0.0310 O   0  0  0  0  0  0  0  0  0  0  0  0
   -2.6220    1.0110   -0.5690 C   0  0  2  0  0  0  0  0  0  0  0  0
   -2.6690    2.0360   -1.6100 O   0  0  0  0  0  0  0  0  0  0  0  0
   -1.5130    0.3140   -0.8460 O   0  0  0  0  0  0  0  0  0  0  0  0
   -0.4090    0.3400   -0.0550 C   0  0  2  0  0  0  0  0  0  0  0  0
    0.1600    1.7390    0.1240 C   0  0  0  0  0  0  0  0  0  0  0  0
    0.6710   -0.4550   -0.7590 C   0  0  0  0  0  0  0  0  0  0  0  0
    1.7560   -1.0140    0.0400 C   0  0  1  0  0  0  0  0  0  0  0  0
    3.1050   -0.4080   -0.2790 C   0  0  0  0  0  0  0  0  0  0  0  0
    3.1670    0.4620   -1.1750 O   0  0  0  0  0  0  0  0  0  0  0  0
    4.2430   -0.7830    0.3790 O   0  0  0  0  0  0  0  0  0  0  0  0
    5.4830   -0.1980    0.0560 C   0  0  0  0  0  0  0  0  0  0  0  0
    5.9200   -0.4870   -1.6660 S   0  0  0  0  0  0  0  0  0  0  0  0
    5.8010   -1.9410   -2.0200 O   0  0  0  0  0  0  0  0  0  0  0  0
    7.3970    0.2040   -2.0680 O   0  0  0  0  0  0  0  0  0  0  0  0
    1.6050   -1.0930    1.5080 C   0  0  1  0  0  0  0  0  0  0  0  0
    2.8440   -0.8540    2.1420 O   0  0  0  0  0  0  0  0  0  0  0  0
    0.6200   -0.1480    2.0970 C   0  0  0  0  0  0  0  0  0  0  0  0
   -0.6670   -0.2820    1.2780 C   0  0  1  0  0  0  0  0  0  0  0  0
   -1.7320    0.2630    1.9890 O   0  0  0  0  0  0  0  0  0  0  0  0
  2  1  1  6
  2  3  1  0
  2  4  1  0
  2  6  1  0
  4  5  1  0
  6  7  1  6
  6  8  1  0
  8  9  1  0
  9 10  1  1
  9 11  1  0
  9 23  1  0
 11 12  1  0
 12 13  1  1
 12 20  1  0
 13 14  2  0
 13 15  1  0
 15 16  1  0
 16 17  1  0
 17 18  2  0
 17 19  1  1
 20 21  1  1
 20 22  1  0
 22 23  1  0
 23 24  1  1
M  END
