
     RDKit          3D

 23 23  0  0  0  0  0  0  0  0999 V2000
   -2.5400    2.8830   -0.6260 C   0  0  0  0  0  0  0  0  0  0  0  0
   -2.4490    1.4970   -0.4700 O   0  0  0  0  0  0  0  0  0  0  0  0
   -2.8070    0.8170    0.6760 C   0  0  0  0  0  0  0  0  0  0  0  0
   -3.2460    1.4500    1.6580 O   0  0  0  0  0  0  0  0  0  0  0  0
   -2.6420   -0.6710    0.6660 C   0  0  1  0  0  0  0  0  0  0  0  0
   -3.0620   -1.1260    1.9100 O   0  0  0  0  0  0  0  0  0  0  0  0
   -3.5040   -1.2170   -0.4120 C   0  0  1  0  0  0  0  0  0  0  0  0
   -3.5200   -2.5930   -0.4930 O   0  0  0  0  0  0  0  0  0  0  0  0
   -4.9240   -0.7230   -0.2410 C   0  0  0  0  0  0  0  0  0  0  0  0
   -5.7280   -1.1060   -1.3230 O   0  0  0  0  0  0  0  0  0  0  0  0
   -1.1790   -0.9490    0.4840 C   0  0  2  0  0  0  0  0  0  0  0  0
   -0.3950   -0.3270    1.4430 O   0  0  0  0  0  0  0  0  0  0  0  0
    0.6540    0.3750    0.8550 C   0  0  0  0  0  0  0  0  0  0  0  0
    1.6990   -0.5730    0.2610 C   0  0  2  0  0  0  0  0  0  0  0  0
    3.0210    0.1130    0.3800 C   0  0  2  0  0  0  0  0  0  0  0  0
    3.1760    0.3110    1.7830 O   0  0  0  0  0  0  0  0  0  0  0  0
    3.0130    1.5080   -0.1980 C   0  0  0  0  0  0  0  0  0  0  0  0
    2.8750    1.5720   -1.5580 O   0  0  0  0  0  0  0  0  0  0  0  0
    4.1940   -0.6950   -0.0240 C   0  0  1  0  0  0  0  0  0  0  0  0
    4.2720   -1.0840   -1.4580 C   0  0  0  0  0  0  0  0  0  0  0  0
    5.3500    0.0450    0.2890 O   0  0  0  0  0  0  0  0  0  0  0  0
    1.2380   -0.9220   -1.1070 C   0  0  0  0  0  0  0  0  0  0  0  0
   -0.5550   -0.4970   -1.1360 S   0  0  0  0  0  0  0  0  0  0  0  0
  1  2  1  0
  2  3  1  0
  3  4  2  0
  3  5  1  0
  5  6  1  1
  5  7  1  0
  5 11  1  0
  7  8  1  1
  7  9  1  0
  9 10  1  0
 11 12  1  1
 11 23  1  0
 12 13  1  0
 14 13  1  6
 14 15  1  0
 14 22  1  0
 15 16  1  1
 15 17  1  0
 15 19  1  0
 17 18  1  0
 19 20  1  6
 19 21  1  0
 22 23  1  0
M  END
