
     RDKit          3D

 23 23  0  0  0  0  0  0  0  0999 V2000
    4.4610    1.8470   -0.9920 C   0  0  0  0  0  0  0  0  0  0  0  0
    4.1210    1.1520    0.1550 O   0  0  0  0  0  0  0  0  0  0  0  0
    2.7730    0.7540    0.1320 C   0  0  1  0  0  0  0  0  0  0  0  0
    2.7230   -0.7290    0.2820 C   0  0  0  0  0  0  0  0  0  0  0  0
    1.9150   -1.4010   -0.8110 C   0  0  2  0  0  0  0  0  0  0  0  0
    1.5950   -0.4320   -1.7550 O   0  0  0  0  0  0  0  0  0  0  0  0
    0.6160   -1.8730   -0.1890 C   0  0  1  0  0  0  0  0  0  0  0  0
    0.1650   -3.0940   -0.9490 C   0  0  0  0  0  0  0  0  0  0  0  0
    0.9160   -2.2850    1.1100 O   0  0  0  0  0  0  0  0  0  0  0  0
   -0.2740   -0.8290   -0.2320 O   0  0  0  0  0  0  0  0  0  0  0  0
   -1.6020   -1.2060   -0.3220 C   0  0  2  0  0  0  0  0  0  0  0  0
   -1.9950   -1.1130   -1.6330 O   0  0  0  0  0  0  0  0  0  0  0  0
   -2.4910   -0.3590    0.6070 C   0  0  2  0  0  0  0  0  0  0  0  0
   -1.6750   -0.1410    1.8350 C   0  0  0  0  0  0  0  0  0  0  0  0
   -3.5380   -1.2410    0.9800 O   0  0  0  0  0  0  0  0  0  0  0  0
   -3.0470    0.8330   -0.0500 C   0  0  2  0  0  0  0  0  0  0  0  0
   -3.1180    0.7350   -1.4540 O   0  0  0  0  0  0  0  0  0  0  0  0
   -2.3890    2.1420    0.2310 C   0  0  0  0  0  0  0  0  0  0  0  0
   -1.2020    2.3250   -0.6390 C   0  0  0  0  0  0  0  0  0  0  0  0
   -1.4010    2.5700   -1.8550 O   0  0  0  0  0  0  0  0  0  0  0  0
    0.1120    2.2460   -0.2170 O   0  0  0  0  0  0  0  0  0  0  0  0
    0.5820    2.5910    1.0490 C   0  0  0  0  0  0  0  0  0  0  0  0
    1.9750    1.5370    1.5520 S   0  0  0  0  0  0  0  0  0  0  0  0
  1  2  1  0
  3  2  1  1
  3  4  1  0
  3 23  1  0
  4  5  1  0
  5  6  1  6
  5  7  1  0
  7  8  1  6
  7  9  1  0
  7 10  1  0
 10 11  1  0
 11 12  1  6
 11 13  1  0
 13 14  1  1
 13 15  1  0
 13 16  1  0
 16 17  1  6
 16 18  1  0
 18 19  1  0
 19 20  2  0
 19 21  1  0
 21 22  1  0
 22 23  1  0
M  END
