
     RDKit          3D

 24 24  0  0  0  0  0  0  0  0999 V2000
    1.7410    1.2130    0.7190 C   0  0  0  0  0  0  0  0  0  0  0  0
    0.7650    0.2260    0.1060 C   0  0  1  0  0  0  0  0  0  0  0  0
    1.6620   -0.6480   -0.7760 C   0  0  1  0  0  0  0  0  0  0  0  0
    2.1260    0.0130   -1.9050 O   0  0  0  0  0  0  0  0  0  0  0  0
    2.8070   -0.8900   -0.0170 O   0  0  0  0  0  0  0  0  0  0  0  0
    3.0920   -2.2010    0.2170 C   0  0  0  0  0  0  0  0  0  0  0  0
    4.3190   -2.4020    1.0230 C   0  0  0  0  0  0  0  0  0  0  0  0
    4.9740   -1.4050    1.4150 O   0  0  0  0  0  0  0  0  0  0  0  0
    4.7950   -3.6540    1.3770 O   0  0  0  0  0  0  0  0  0  0  0  0
    0.4670   -0.6290    1.1770 O   0  0  0  0  0  0  0  0  0  0  0  0
   -0.4120   -1.6250    0.9470 C   0  0  0  0  0  0  0  0  0  0  0  0
   -1.7430   -0.9590    0.6960 C   0  0  2  0  0  0  0  0  0  0  0  0
   -2.2070   -0.3590    1.8600 O   0  0  0  0  0  0  0  0  0  0  0  0
   -2.7220   -2.1150    0.4290 C   0  0  0  0  0  0  0  0  0  0  0  0
   -4.0120   -1.6530    0.2650 O   0  0  0  0  0  0  0  0  0  0  0  0
   -1.6850   -0.0190   -0.4560 C   0  0  1  0  0  0  0  0  0  0  0  0
   -2.8350    0.7410   -0.4160 O   0  0  0  0  0  0  0  0  0  0  0  0
   -0.4220    0.8090   -0.5420 C   0  0  2  0  0  0  0  0  0  0  0  0
   -0.1530    0.8940   -2.0640 C   0  0  0  0  0  0  0  0  0  0  0  0
   -1.3390    1.4660   -2.6150 O   0  0  0  0  0  0  0  0  0  0  0  0
   -0.6780    2.2600   -0.2130 C   0  0  0  0  0  0  0  0  0  0  0  0
   -0.9010    2.6640    1.1720 C   0  0  0  0  0  0  0  0  0  0  0  0
   -1.1580    4.4970    1.1330 S   0  0  0  0  0  0  0  0  0  0  0  0
   -2.6270    4.7460    0.2850 O   0  0  0  0  0  0  0  0  0  0  0  0
  2  1  1  1
  2  3  1  0
  2 10  1  0
  2 18  1  0
  3  4  1  6
  3  5  1  0
  5  6  1  0
  6  7  1  0
  7  8  2  0
  7  9  1  0
 10 11  1  0
 11 12  1  0
 12 13  1  1
 12 14  1  0
 12 16  1  0
 14 15  1  0
 16 17  1  1
 16 18  1  0
 18 19  1  6
 18 21  1  0
 19 20  1  0
 21 22  1  0
 22 23  1  0
 23 24  1  0
M  END
