
     RDKit          3D

 24 25  0  0  0  0  0  0  0  0999 V2000
   -7.1620    1.4670    0.4640 C   0  0  0  0  0  0  0  0  0  0  0  0
   -5.9780    0.9930    0.7820 C   0  0  0  0  0  0  0  0  0  0  0  0
   -4.9290    0.5620   -0.1540 C   0  0  0  0  0  0  0  0  0  0  0  0
   -3.9340    0.1000    0.5670 C   0  0  0  0  0  0  0  0  0  0  0  0
   -2.6460   -0.4510    0.0620 C   0  0  1  0  0  0  0  0  0  0  0  0
   -2.5030   -1.8210    0.7030 C   0  0  0  0  0  0  0  0  0  0  0  0
   -2.6700   -0.5780   -1.4500 C   0  0  0  0  0  0  0  0  0  0  0  0
   -3.7230   -1.4680   -1.8950 N   0  0  0  0  0  0  0  0  0  0  0  0
   -1.5880    0.4590    0.4180 N   0  0  0  0  0  0  0  0  0  0  0  0
   -0.2320    0.2510    0.1430 C   0  0  0  0  0  0  0  0  0  0  0  0
    0.1380   -0.7830   -0.4460 O   0  0  0  0  0  0  0  0  0  0  0  0
    0.7640    1.2780    0.5640 C   0  0  0  0  0  0  0  0  0  0  0  0
    2.0950    0.8270    0.1650 N   0  0  0  0  0  0  0  0  0  0  0  0
    3.2540    1.5960    0.4300 C   0  0  0  0  0  0  0  0  0  0  0  0
    3.0770    2.6880    1.0270 O   0  0  0  0  0  0  0  0  0  0  0  0
    4.6110    1.1300    0.0190 C   0  0  0  0  0  0  0  0  0  0  0  0
    4.7610   -0.0210   -0.6060 C   0  0  0  0  0  0  0  0  0  0  0  0
    6.5120   -0.1300   -0.8760 S   0  0  0  0  0  0  0  0  0  0  0  0
    7.1650   -1.3590   -0.1290 C   0  0  0  0  0  0  0  0  0  0  0  0
    8.6190   -1.6190   -0.2320 C   0  0  0  0  0  0  0  0  0  0  0  0
    6.8720    1.4260   -0.0990 C   0  0  0  0  0  0  0  0  0  0  0  0
    5.7440    1.8660    0.2700 N   0  0  0  0  0  0  0  0  0  0  0  0
   -4.2090    0.1800    1.9280 O   0  0  0  0  0  0  0  0  0  0  0  0
   -5.4570    0.7960    2.1400 C   0  0  0  0  0  0  0  0  0  0  0  0
  1  2  2  0
  2  3  1  0
  2 24  1  0
  3  4  2  0
  4  5  1  0
  4 23  1  0
  5  6  1  1
  5  7  1  0
  5  9  1  0
  7  8  1  0
  9 10  1  0
 10 11  2  0
 10 12  1  0
 12 13  1  0
 13 14  1  0
 14 15  2  0
 14 16  1  0
 16 17  2  0
 16 22  1  0
 18 17  1  1
 18 19  2  3
 18 21  1  0
 19 20  1  0
 21 22  2  0
 23 24  1  0
M  CHG  1   8   1
M  END
