
     RDKit          3D

 22 22  0  0  0  0  0  0  0  0999 V2000
    5.5030   -3.1850   -0.3650 C   0  0  0  0  0  0  0  0  0  0  0  0
    4.8400   -2.3600    0.5700 O   0  0  0  0  0  0  0  0  0  0  0  0
    4.6480   -0.9860    0.3690 C   0  0  0  0  0  0  0  0  0  0  0  0
    5.0870   -0.4720   -0.6870 O   0  0  0  0  0  0  0  0  0  0  0  0
    3.9830   -0.1870    1.3160 N   0  0  0  0  0  0  0  0  0  0  0  0
    3.7560    1.2180    1.1690 C   0  0  0  0  0  0  0  0  0  0  0  0
    2.9220    1.5050   -0.0730 C   0  0  0  0  0  0  0  0  0  0  0  0
    1.6530    0.8140    0.0800 N   0  0  0  0  0  0  0  0  0  0  0  0
    0.7310    1.6490    0.8220 C   0  0  2  0  0  0  0  0  0  0  0  0
    0.2230    0.9980    2.0590 C   0  0  0  0  0  0  0  0  0  0  0  0
   -0.2400    2.2490   -0.0750 C   0  0  0  0  0  0  0  0  0  0  0  0
   -1.3350    1.9770   -0.6670 C   0  0  0  0  0  0  0  0  0  0  0  0
   -2.2810    0.9290   -0.8200 C   0  0  0  0  0  0  0  0  0  0  0  0
   -3.3030    1.3310   -1.6460 C   0  0  0  0  0  0  0  0  0  0  0  0
   -4.4930    0.5830   -2.0830 C   0  0  0  0  0  0  0  0  0  0  0  0
   -5.2920   -0.3230   -1.5450 C   0  0  0  0  0  0  0  0  0  0  0  0
   -5.3090   -0.9790   -0.2190 C   0  0  0  0  0  0  0  0  0  0  0  0
   -4.2900   -2.0530   -0.1670 C   0  0  0  0  0  0  0  0  0  0  0  0
   -3.0600   -1.8190   -0.8310 N   0  0  0  0  0  0  0  0  0  0  0  0
   -2.0590   -0.6160   -0.0390 S   0  0  1  0  0  0  0  0  0  0  0  0
   -0.6700   -1.0800   -0.2400 O   0  0  0  0  0  0  0  0  0  0  0  0
   -2.3880   -0.5920    1.4180 O   0  0  0  0  0  0  0  0  0  0  0  0
  1  2  1  0
  2  3  1  0
  3  4  2  0
  3  5  1  0
  5  6  1  0
  6  7  1  0
  7  8  1  0
  8  9  1  0
  9 10  1  1
  9 11  1  0
 11 12  2  3
 12 13  1  0
 13 14  2  0
 13 20  1  0
 14 15  1  0
 15 16  2  0
 16 17  1  0
 17 18  1  0
 18 19  1  0
 20 19  1  6
 20 21  2  0
 20 22  2  0
M  CHG  1   8   1
M  END
