
     RDKit          3D

 24 26  0  0  0  0  0  0  0  0999 V2000
    3.9270   -2.5560   -0.1510 C   0  0  0  0  0  0  0  0  0  0  0  0
    3.8990   -1.2410   -0.2550 C   0  0  0  0  0  0  0  0  0  0  0  0
    2.8550   -0.4840    0.3850 N   0  0  0  0  0  0  0  0  0  0  0  0
    2.7940    0.7930    0.3070 C   0  0  0  0  0  0  0  0  0  0  0  0
    1.6940    1.4230    0.9960 N   0  0  0  0  0  0  0  0  0  0  0  0
    0.5410    0.6760    1.4360 C   0  0  1  0  0  0  0  0  0  0  0  0
   -0.3990    1.6460    2.1120 C   0  0  0  0  0  0  0  0  0  0  0  0
   -1.5740    0.9010    2.6350 C   0  0  0  0  0  0  0  0  0  0  0  0
   -1.7920   -0.4570    2.0870 C   0  0  0  0  0  0  0  0  0  0  0  0
   -1.4050   -0.6750    0.6610 C   0  0  1  0  0  0  0  0  0  0  0  0
   -2.5860   -0.4020   -0.2390 C   0  0  0  0  0  0  0  0  0  0  0  0
   -3.1480   -1.3830   -0.8760 C   0  0  0  0  0  0  0  0  0  0  0  0
   -4.2770   -1.4180   -1.7920 C   0  0  0  0  0  0  0  0  0  0  0  0
   -4.9860    0.1530   -2.0680 S   0  0  2  0  0  0  0  0  0  0  0  0
   -6.4170    0.2080   -1.6040 O   0  0  0  0  0  0  0  0  0  0  0  0
   -4.9160    0.4330   -3.5470 O   0  0  0  0  0  0  0  0  0  0  0  0
   -4.0990    1.3050   -1.1390 C   0  0  0  0  0  0  0  0  0  0  0  0
   -3.0900    0.9450   -0.3930 C   0  0  0  0  0  0  0  0  0  0  0  0
   -0.1860    0.0800    0.2220 C   0  0  0  0  0  0  0  0  0  0  0  0
    3.7200    1.6020   -0.3990 N   0  0  0  0  0  0  0  0  0  0  0  0
    4.7960    0.9650   -1.0710 C   0  0  0  0  0  0  0  0  0  0  0  0
    5.6440    1.6570   -1.7120 O   0  0  0  0  0  0  0  0  0  0  0  0
    4.8960   -0.4980   -1.0020 C   0  0  0  0  0  0  0  0  0  0  0  0
    5.8560   -1.0710   -1.6020 N   0  0  0  0  0  0  0  0  0  0  0  0
  1  2  2  0
  2  3  1  0
  2 23  1  0
  3  4  2  0
  4  5  1  0
  4 20  1  0
  6  5  1  6
  6  7  1  0
  6 19  1  0
  7  8  1  0
  8  9  1  0
  9 10  1  0
 10 11  1  6
 10 19  1  0
 11 12  2  0
 11 18  1  0
 12 13  1  0
 14 13  1  6
 14 15  2  0
 14 16  2  0
 14 17  1  0
 17 18  2  0
 20 21  1  0
 21 22  2  0
 21 23  1  0
 23 24  2  0
M  CHG  1  24   1
M  END
