
     RDKit          3D

 22 23  0  0  0  0  0  0  0  0999 V2000
   -3.5330   -2.2440    2.3920 C   0  0  0  0  0  0  0  0  0  0  0  0
   -3.4600   -0.9730    1.5860 C   0  0  1  0  0  0  0  0  0  0  0  0
   -2.0980   -0.4850    1.3890 C   0  0  0  0  0  0  0  0  0  0  0  0
   -1.7780    0.6670    1.7770 O   0  0  0  0  0  0  0  0  0  0  0  0
   -1.0650   -1.2470    0.7640 N   0  0  0  0  0  0  0  0  0  0  0  0
    0.2520   -0.7330    0.5890 C   0  0  0  0  0  0  0  0  0  0  0  0
    0.3350    0.5060   -0.2390 C   0  0  2  0  0  0  0  0  0  0  0  0
   -0.1660    0.2800   -1.5420 O   0  0  0  0  0  0  0  0  0  0  0  0
    1.7630    0.9520   -0.3970 C   0  0  2  0  0  0  0  0  0  0  0  0
    1.7360    2.1290   -1.1620 O   0  0  0  0  0  0  0  0  0  0  0  0
    2.6110   -0.0410   -1.1310 C   0  0  0  0  0  0  0  0  0  0  0  0
    4.0120    0.4900   -1.2400 C   0  0  0  0  0  0  0  0  0  0  0  0
    4.5810    1.6580   -0.8040 C   0  0  0  0  0  0  0  0  0  0  0  0
    5.8800    1.8490   -1.0580 C   0  0  0  0  0  0  0  0  0  0  0  0
    6.5780    0.9220   -1.7140 C   0  0  0  0  0  0  0  0  0  0  0  0
    7.9830    0.8980   -2.1050 C   0  0  0  0  0  0  0  0  0  0  0  0
    9.0980    0.8590   -2.4120 N   0  0  0  0  0  0  0  0  0  0  0  0
    5.3980   -0.3400   -2.0330 S   0  0  0  0  0  0  0  0  0  0  0  0
   -4.1980   -1.2130    0.2890 C   0  0  0  0  0  0  0  0  0  0  0  0
   -5.1250   -0.1110    0.1350 N   0  0  0  0  0  0  0  0  0  0  0  0
   -4.8010    0.7690    1.2280 C   0  0  0  0  0  0  0  0  0  0  0  0
   -4.2180   -0.0020    2.2200 O   0  0  0  0  0  0  0  0  0  0  0  0
  2  1  1  1
  2  3  1  0
  2 19  1  0
  2 22  1  0
  3  4  2  0
  3  5  1  0
  5  6  1  0
  6  7  1  0
  7  8  1  6
  7  9  1  0
  9 10  1  6
  9 11  1  0
 11 12  1  0
 12 13  2  0
 12 18  1  0
 13 14  1  0
 14 15  2  0
 15 16  1  0
 15 18  1  0
 16 17  3  0
 19 20  1  0
 20 21  1  0
 21 22  1  0
M  CHG  1  20   1
M  END
