
     RDKit          3D

 24 26  0  0  0  0  0  0  0  0999 V2000
   -1.4620   -0.9710    2.4380 N   0  0  0  0  0  0  0  0  0  0  0  0
   -0.9150   -1.6640    1.3010 C   0  0  0  0  0  0  0  0  0  0  0  0
   -1.1690   -0.9620   -0.0010 C   0  0  1  0  0  0  0  0  0  0  0  0
   -0.6020    0.3900   -0.0530 C   0  0  0  0  0  0  0  0  0  0  0  0
   -1.4110    1.4850   -0.2140 C   0  0  0  0  0  0  0  0  0  0  0  0
   -0.8890    2.7670   -0.2470 C   0  0  0  0  0  0  0  0  0  0  0  0
   -1.6910    3.8780   -0.4080 C   0  0  0  0  0  0  0  0  0  0  0  0
   -1.1070    5.1250   -0.4320 C   0  0  0  0  0  0  0  0  0  0  0  0
    0.2560    5.2730   -0.2980 C   0  0  0  0  0  0  0  0  0  0  0  0
    1.0260    4.1960   -0.1420 N   0  0  0  0  0  0  0  0  0  0  0  0
    0.4680    2.9650   -0.1170 C   0  0  0  0  0  0  0  0  0  0  0  0
    1.2230    1.8730    0.0370 N   0  0  0  0  0  0  0  0  0  0  0  0
    0.7580    0.6140    0.0740 C   0  0  0  0  0  0  0  0  0  0  0  0
    1.9250   -0.7130    0.2610 S   0  0  0  0  0  0  0  0  0  0  0  0
    3.5760   -0.0440    0.3960 C   0  0  0  0  0  0  0  0  0  0  0  0
    4.6210   -1.0870    0.5560 C   0  0  0  0  0  0  0  0  0  0  0  0
    4.3810   -2.4720    0.6020 N   0  0  0  0  0  0  0  0  0  0  0  0
    5.7690   -0.6890    0.6540 O   0  0  0  0  0  0  0  0  0  0  0  0
   -0.5600   -1.8360   -1.1040 C   0  0  0  0  0  0  0  0  0  0  0  0
   -1.5700   -2.2360   -2.1560 C   0  0  0  0  0  0  0  0  0  0  0  0
   -2.7310   -2.9040   -1.4750 C   0  0  0  0  0  0  0  0  0  0  0  0
   -3.2440   -3.9520   -1.9220 O   0  0  0  0  0  0  0  0  0  0  0  0
   -3.1380   -2.2270   -0.3310 O   0  0  0  0  0  0  0  0  0  0  0  0
   -2.6560   -0.8700   -0.3010 C   0  0  0  0  0  0  0  0  0  0  0  0
  1  2  1  0
  3  2  1  1
  3  4  1  0
  3 19  1  0
  3 24  1  0
  4  5  2  0
  4 13  1  0
  5  6  1  0
  6  7  2  0
  6 11  1  0
  7  8  1  0
  8  9  2  0
  9 10  1  0
 10 11  2  0
 11 12  1  0
 12 13  2  0
 13 14  1  0
 14 15  1  0
 15 16  1  0
 16 17  1  0
 16 18  2  0
 19 20  1  0
 20 21  1  0
 21 22  2  0
 21 23  1  0
 23 24  1  0
M  CHG  2   1   1  17   1
M  END
