
     RDKit          3D

 24 25  0  0  0  0  0  0  0  0999 V2000
    6.2840    1.5370   -0.0170 C   0  0  0  0  0  0  0  0  0  0  0  0
    5.3010    0.5680   -0.4290 N   0  0  0  0  0  0  0  0  0  0  0  0
    5.2730   -0.5770    0.1350 C   0  0  0  0  0  0  0  0  0  0  0  0
    4.3130   -1.5490   -0.2520 N   0  0  0  0  0  0  0  0  0  0  0  0
    2.9640   -1.1330   -0.5440 C   0  0  0  0  0  0  0  0  0  0  0  0
    2.3190   -0.6880    0.7490 C   0  0  0  0  0  0  0  0  0  0  0  0
    0.9300   -0.2520    0.4870 N   0  0  0  0  0  0  0  0  0  0  0  0
   -0.0810   -1.2710    0.5550 C   0  0  0  0  0  0  0  0  0  0  0  0
   -0.5980   -1.6930   -0.7890 C   0  0  0  0  0  0  0  0  0  0  0  0
   -1.8640   -1.0040   -1.2160 C   0  0  0  0  0  0  0  0  0  0  0  0
   -3.0240   -1.3580   -0.2920 C   0  0  0  0  0  0  0  0  0  0  0  0
   -3.0730   -2.5990    0.3560 C   0  0  0  0  0  0  0  0  0  0  0  0
   -4.5200   -2.5830    1.2990 S   0  0  0  0  0  0  0  0  0  0  0  0
   -5.0450   -0.9250    0.8210 C   0  0  0  0  0  0  0  0  0  0  0  0
   -4.0160   -0.5130   -0.0590 C   0  0  0  0  0  0  0  0  0  0  0  0
   -4.0460    0.8520   -0.7260 C   0  0  2  0  0  0  0  0  0  0  0  0
   -3.6990    0.6900   -2.0680 O   0  0  0  0  0  0  0  0  0  0  0  0
   -3.1970    1.8710   -0.0140 C   0  0  0  0  0  0  0  0  0  0  0  0
   -2.6650    1.4480    1.2240 N   0  0  0  0  0  0  0  0  0  0  0  0
   -1.3490    1.8110    1.5850 C   0  0  0  0  0  0  0  0  0  0  0  0
   -0.3510    1.9790    0.5260 C   0  0  0  0  0  0  0  0  0  0  0  0
   -0.4600    3.0380   -0.1900 O   0  0  0  0  0  0  0  0  0  0  0  0
    0.7490    1.1000    0.1830 C   0  0  0  0  0  0  0  0  0  0  0  0
    1.7290    1.6090   -0.5050 O   0  0  0  0  0  0  0  0  0  0  0  0
  1  2  1  0
  2  3  2  3
  3  4  1  0
  4  5  1  0
  5  6  1  0
  6  7  1  0
  7  8  1  0
  7 23  1  0
  8  9  1  0
  9 10  1  0
 10 11  1  0
 11 12  2  0
 11 15  1  0
 12 13  1  0
 13 14  1  0
 14 15  2  0
 15 16  1  0
 16 17  1  6
 16 18  1  0
 18 19  1  0
 19 20  1  0
 20 21  1  0
 21 22  2  0
 21 23  1  0
 23 24  2  0
M  CHG  2   2   1  19   1
M  END
