
     RDKit          3D

 24 26  0  0  0  0  0  0  0  0999 V2000
   -3.0680   -2.8880    1.1640 C   0  0  0  0  0  0  0  0  0  0  0  0
   -3.8780   -1.7300    1.1060 O   0  0  0  0  0  0  0  0  0  0  0  0
   -3.3360   -0.6080    0.4680 C   0  0  0  0  0  0  0  0  0  0  0  0
   -2.0540   -0.6290   -0.0870 C   0  0  0  0  0  0  0  0  0  0  0  0
   -1.5390    0.4800   -0.7080 C   0  0  0  0  0  0  0  0  0  0  0  0
   -0.2240    0.5050   -1.2900 C   0  0  0  0  0  0  0  0  0  0  0  0
    0.1680    1.5070   -1.9270 O   0  0  0  0  0  0  0  0  0  0  0  0
    0.6660   -0.5810   -1.1700 N   0  0  0  0  0  0  0  0  0  0  0  0
    1.9990   -0.5560   -1.7600 C   0  0  2  0  0  0  0  0  0  0  0  0
    2.2200   -1.6500   -2.7520 C   0  0  0  0  0  0  0  0  0  0  0  0
    3.0260   -0.7350   -0.6550 C   0  0  0  0  0  0  0  0  0  0  0  0
    3.2960   -1.3290    0.2860 N   0  0  0  0  0  0  0  0  0  0  0  0
    4.3370   -1.2380    1.0800 C   0  0  0  0  0  0  0  0  0  0  0  0
    5.2580   -0.3110    0.7730 C   0  0  0  0  0  0  0  0  0  0  0  0
    6.5410    0.1390    1.3570 C   0  0  0  0  0  0  0  0  0  0  0  0
    7.5860   -0.7120    0.8750 N   0  0  0  0  0  0  0  0  0  0  0  0
    4.5180    0.4330   -0.7550 S   0  0  0  0  0  0  0  0  0  0  0  0
   -2.3140    1.6440   -0.7830 C   0  0  0  0  0  0  0  0  0  0  0  0
   -3.5880    1.7080   -0.2470 C   0  0  0  0  0  0  0  0  0  0  0  0
   -4.0520    0.5630    0.3650 C   0  0  0  0  0  0  0  0  0  0  0  0
   -5.3460    0.5740    0.9300 O   0  0  0  0  0  0  0  0  0  0  0  0
   -5.8540    1.8580    1.2620 C   0  0  0  0  0  0  0  0  0  0  0  0
   -5.7240    2.6730   -0.0230 C   0  0  0  0  0  0  0  0  0  0  0  0
   -4.3410    2.9190   -0.3500 N   0  0  0  0  0  0  0  0  0  0  0  0
  1  2  1  0
  2  3  1  0
  3  4  2  0
  3 20  1  0
  4  5  1  0
  5  6  1  0
  5 18  2  0
  6  7  2  0
  6  8  1  0
  8  9  1  0
  9 10  1  6
  9 11  1  0
 11 12  2  0
 11 17  1  0
 12 13  1  0
 13 14  2  0
 14 15  1  0
 14 17  1  0
 15 16  1  0
 18 19  1  0
 19 20  2  0
 19 24  1  0
 20 21  1  0
 21 22  1  0
 22 23  1  0
 23 24  1  0
M  CHG  2  16   1  24   1
M  END
