
     RDKit          3D

 19 19  0  0  0  0  0  0  0  0999 V2000
    5.9640    1.4010   -0.0490 C   0  0  0  0  0  0  0  0  0  0  0  0
    4.6050    1.2460    0.5920 C   0  0  0  0  0  0  0  0  0  0  0  0
    3.6010    0.7160   -0.4350 C   0  0  0  0  0  0  0  0  0  0  0  0
    2.2820    0.6030    0.3270 C   0  0  0  0  0  0  0  0  0  0  0  0
    1.1840    0.0920   -0.5450 C   0  0  0  0  0  0  0  0  0  0  0  0
   -0.0430   -0.0150    0.1440 N   0  0  0  0  0  0  0  0  0  0  0  0
   -1.1640   -0.1060   -0.8180 C   0  0  2  0  0  0  0  0  0  0  0  0
   -2.2420    0.8090   -0.3010 C   0  0  0  0  0  0  0  0  0  0  0  0
   -3.4490    0.8500   -1.1640 C   0  0  0  0  0  0  0  0  0  0  0  0
   -3.5430    0.2170   -2.2480 O   0  0  0  0  0  0  0  0  0  0  0  0
   -4.5480    1.6420   -0.7390 N   0  0  0  0  0  0  0  0  0  0  0  0
   -5.7720    1.7240   -1.5490 C   0  0  0  0  0  0  0  0  0  0  0  0
   -1.5210   -1.5370   -0.8680 C   0  0  2  0  0  0  0  0  0  0  0  0
   -2.8980   -1.7760   -0.7060 O   0  0  0  0  0  0  0  0  0  0  0  0
   -0.7270   -2.2420    0.2030 C   0  0  2  0  0  0  0  0  0  0  0  0
   -1.5660   -3.0220    0.9840 O   0  0  0  0  0  0  0  0  0  0  0  0
   -0.2870   -1.0430    1.0560 C   0  0  1  0  0  0  0  0  0  0  0  0
    0.6850   -1.4490    2.0830 C   0  0  0  0  0  0  0  0  0  0  0  0
    0.0290   -2.5010    2.8210 O   0  0  0  0  0  0  0  0  0  0  0  0
  1  2  1  0
  2  3  1  0
  3  4  1  0
  4  5  1  0
  5  6  1  0
  6  7  1  0
  6 17  1  0
  7  8  1  1
  7 13  1  0
  8  9  1  0
  9 10  2  0
  9 11  1  0
 11 12  1  0
 13 14  1  1
 13 15  1  0
 15 16  1  1
 15 17  1  0
 17 18  1  6
 18 19  1  0
M  END
