
     RDKit          3D

 22 23  0  0  0  0  0  0  0  0999 V2000
    0.4850   -0.9260   -1.2560 C   0  0  0  0  0  0  0  0  0  0  0  0
    0.6260   -0.2610    0.0830 C   0  0  1  0  0  0  0  0  0  0  0  0
   -0.5520   -0.6270    0.9430 C   0  0  0  0  0  0  0  0  0  0  0  0
   -1.7980   -0.1360    0.2270 C   0  0  0  0  0  0  0  0  0  0  0  0
   -1.6090    0.4280   -0.8480 O   0  0  0  0  0  0  0  0  0  0  0  0
   -3.0650   -0.3380    0.7960 N   0  0  0  0  0  0  0  0  0  0  0  0
   -4.2620    0.0830    0.2000 C   0  0  0  0  0  0  0  0  0  0  0  0
   -4.3290    0.7370   -1.0000 C   0  0  0  0  0  0  0  0  0  0  0  0
   -5.5670    1.1330   -1.5450 C   0  0  0  0  0  0  0  0  0  0  0  0
   -5.6170    1.7340   -2.6500 O   0  0  0  0  0  0  0  0  0  0  0  0
   -6.7170    0.8900   -0.9160 N   0  0  0  0  0  0  0  0  0  0  0  0
   -6.6970    0.2550    0.2570 C   0  0  0  0  0  0  0  0  0  0  0  0
   -5.4850   -0.1520    0.8260 C   0  0  0  0  0  0  0  0  0  0  0  0
   -5.5140   -0.7980    2.0270 O   0  0  0  0  0  0  0  0  0  0  0  0
    1.8340   -0.6350    0.7730 N   0  0  0  0  0  0  0  0  0  0  0  0
    3.0120   -0.2250    0.0280 C   0  0  1  0  0  0  0  0  0  0  0  0
    3.2750    1.2160    0.3630 C   0  0  0  0  0  0  0  0  0  0  0  0
    4.5230    1.7700   -0.2610 C   0  0  0  0  0  0  0  0  0  0  0  0
    5.9430    0.7190   -0.0590 S   0  0  0  0  0  0  0  0  0  0  0  0
    7.0440    1.1480   -1.0090 O   0  0  0  0  0  0  0  0  0  0  0  0
    5.3640   -0.9610   -0.4480 C   0  0  0  0  0  0  0  0  0  0  0  0
    4.1270   -1.1460    0.4230 C   0  0  0  0  0  0  0  0  0  0  0  0
  2  1  1  6
  2  3  1  0
  2 15  1  0
  3  4  1  0
  4  5  2  0
  4  6  1  0
  6  7  1  0
  7  8  2  0
  7 13  1  0
  8  9  1  0
  9 10  2  0
  9 11  1  0
 11 12  1  0
 12 13  2  0
 13 14  1  0
 16 15  1  1
 16 17  1  0
 16 22  1  0
 17 18  1  0
 19 18  1  6
 19 20  2  0
 19 21  1  0
 21 22  1  0
M  CHG  1  15   1
M  END
