
     RDKit          3D

 35 36  0  0  0  0  0  0  0  0999 V2000
   -4.6430    3.4340    4.3850 C   0  0  0  0  0  0  0  0  0  0  0  0
   -4.2810    2.5000    3.3850 O   0  0  0  0  0  0  0  0  0  0  0  0
   -4.9650    2.4990    2.1930 C   0  0  0  0  0  0  0  0  0  0  0  0
   -5.9800    3.3660    1.9420 C   0  0  0  0  0  0  0  0  0  0  0  0
   -6.6430    3.3420    0.7480 C   0  0  0  0  0  0  0  0  0  0  0  0
   -7.6720    4.2010    0.4590 O   0  0  0  0  0  0  0  0  0  0  0  0
   -6.2570    2.4050   -0.2140 C   0  0  0  0  0  0  0  0  0  0  0  0
   -5.2350    1.5200    0.0180 C   0  0  0  0  0  0  0  0  0  0  0  0
   -4.5710    1.5490    1.2190 C   0  0  0  0  0  0  0  0  0  0  0  0
   -3.5550    0.7460    1.5730 O   0  0  0  0  0  0  0  0  0  0  0  0
   -2.8470   -0.2670    0.9370 C   0  0  0  0  0  0  0  0  0  0  0  0
   -2.0520    0.1220   -0.2580 C   0  0  0  0  0  0  0  0  0  0  0  0
   -1.3980   -0.8610   -0.8430 O   0  0  0  0  0  0  0  0  0  0  0  0
   -0.4590   -1.6600   -0.4050 C   0  0  1  0  0  0  0  0  0  0  0  0
    0.7760   -1.0060    0.1890 C   0  0  0  0  0  0  0  0  0  0  0  0
    1.7740   -2.0270    0.6540 C   0  0  0  0  0  0  0  0  0  0  0  0
    2.8710   -1.4380    1.1780 O   0  0  0  0  0  0  0  0  0  0  0  0
    3.6360   -0.6490    0.2730 C   0  0  2  0  0  0  0  0  0  0  0  0
    5.0030   -1.2500    0.1890 C   0  0  0  0  0  0  0  0  0  0  0  0
    5.9390   -0.5560   -0.7330 C   0  0  2  0  0  0  0  0  0  0  0  0
    5.4490   -0.5050   -2.1690 C   0  0  0  0  0  0  0  0  0  0  0  0
    7.1510   -1.3440   -0.8440 O   0  0  0  0  0  0  0  0  0  0  0  0
    3.5730    0.7260    0.8650 C   0  0  1  0  0  0  0  0  0  0  0  0
    4.2290    0.8730    2.0700 O   0  0  0  0  0  0  0  0  0  0  0  0
    3.7100    1.8300   -0.1180 C   0  0  0  0  0  0  0  0  0  0  0  0
    3.6230    3.1820    0.6100 C   0  0  1  0  0  0  0  0  0  0  0  0
    3.7660    4.2560   -0.4190 C   0  0  0  0  0  0  0  0  0  0  0  0
    2.4300    3.2390    1.2950 O   0  0  0  0  0  0  0  0  0  0  0  0
   -0.9130   -2.8360    0.3980 C   0  0  0  0  0  0  0  0  0  0  0  0
   -2.1070   -3.4460   -0.2270 C   0  0  0  0  0  0  0  0  0  0  0  0
   -2.3770   -3.0700   -1.6440 C   0  0  0  0  0  0  0  0  0  0  0  0
   -1.2090   -2.7010   -2.4630 C   0  0  2  0  0  0  0  0  0  0  0  0
   -0.9380   -3.8100   -3.4890 C   0  0  0  0  0  0  0  0  0  0  0  0
   -0.6780   -5.0180   -2.8320 O   0  0  0  0  0  0  0  0  0  0  0  0
    0.0460   -2.3960   -1.7200 C   0  0  0  0  0  0  0  0  0  0  0  0
  1  2  1  0
  2  3  1  0
  3  4  2  0
  3  9  1  0
  4  5  1  0
  5  6  1  0
  5  7  2  0
  7  8  1  0
  8  9  2  0
  9 10  1  0
 10 11  1  0
 11 12  1  0
 12 13  1  0
 13 14  1  0
 14 15  1  1
 14 29  1  0
 14 35  1  0
 15 16  1  0
 16 17  1  0
 17 18  1  0
 18 19  1  1
 18 23  1  0
 19 20  1  0
 20 21  1  6
 20 22  1  0
 23 24  1  1
 23 25  1  0
 25 26  1  0
 26 27  1  6
 26 28  1  0
 29 30  1  0
 30 31  1  0
 31 32  1  0
 32 33  1  6
 32 35  1  0
 33 34  1  0
M  END
