
     RDKit          3D

 34 37  0  0  0  0  0  0  0  0999 V2000
    8.4540    2.0160    0.7870 C   0  0  0  0  0  0  0  0  0  0  0  0
    7.4330    1.0960    0.5080 O   0  0  0  0  0  0  0  0  0  0  0  0
    6.0840    1.3940    0.5890 C   0  0  0  0  0  0  0  0  0  0  0  0
    5.7360    2.5330    0.9250 O   0  0  0  0  0  0  0  0  0  0  0  0
    5.1020    0.3470    0.2720 C   0  0  0  0  0  0  0  0  0  0  0  0
    3.7540    0.6130    0.3440 C   0  0  0  0  0  0  0  0  0  0  0  0
    2.7830   -0.3410    0.0550 C   0  0  0  0  0  0  0  0  0  0  0  0
    1.3710   -0.0630    0.1340 C   0  0  0  0  0  0  0  0  0  0  0  0
    1.0500    1.1090    0.5050 O   0  0  0  0  0  0  0  0  0  0  0  0
    0.2720   -1.0090   -0.1740 C   0  0  1  0  0  0  0  0  0  0  0  0
   -1.0370   -0.3550    0.0260 N   0  0  0  0  0  0  0  0  0  0  0  0
   -1.4200    0.7920   -0.7020 C   0  0  0  0  0  0  0  0  0  0  0  0
   -0.5400    1.2230   -1.5390 O   0  0  0  0  0  0  0  0  0  0  0  0
   -2.6870    1.5030   -0.5770 C   0  0  0  0  0  0  0  0  0  0  0  0
   -2.8520    2.7760   -0.9670 O   0  0  0  0  0  0  0  0  0  0  0  0
   -4.0680    3.1680   -0.7430 C   0  0  0  0  0  0  0  0  0  0  0  0
   -4.6830    4.5080   -1.0230 C   0  0  0  0  0  0  0  0  0  0  0  0
   -4.7570    2.1380   -0.1860 C   0  0  0  0  0  0  0  0  0  0  0  0
   -3.8670    1.0430   -0.0730 C   0  0  0  0  0  0  0  0  0  0  0  0
   -4.2710   -0.2780    0.4110 C   0  0  0  0  0  0  0  0  0  0  0  0
   -4.1880   -1.4670   -0.1510 C   0  0  0  0  0  0  0  0  0  0  0  0
   -3.5200   -1.7640   -1.7390 Cl  0  0  0  0  0  0  0  0  0  0  0  0
   -4.7250   -2.5170    0.7180 C   0  0  0  0  0  0  0  0  0  0  0  0
   -5.1530   -1.7560    1.9130 C   0  0  0  0  0  0  0  0  0  0  0  0
   -4.8930   -0.4730    1.7370 C   0  0  0  0  0  0  0  0  0  0  0  0
   -5.2340    0.7920    2.8970 Cl  0  0  0  0  0  0  0  0  0  0  0  0
    0.3290   -1.5290   -1.5320 C   0  0  0  0  0  0  0  0  0  0  0  0
    0.0220   -2.9620   -1.6830 C   0  0  0  0  0  0  0  0  0  0  0  0
   -0.0540   -3.6110    0.0030 S   0  0  0  0  0  0  0  0  0  0  0  0
    0.3740   -2.0850    0.8730 C   0  0  0  0  0  0  0  0  0  0  0  0
    3.2430   -1.5740   -0.3090 C   0  0  0  0  0  0  0  0  0  0  0  0
    4.6240   -1.7910   -0.3650 C   0  0  0  0  0  0  0  0  0  0  0  0
    5.0350   -2.9170   -0.6980 O   0  0  0  0  0  0  0  0  0  0  0  0
    5.4910   -0.8480   -0.0800 O   0  0  0  0  0  0  0  0  0  0  0  0
  1  2  1  0
  2  3  1  0
  3  4  2  0
  3  5  1  0
  5  6  2  0
  5 34  1  0
  6  7  1  0
  7  8  1  0
  7 31  2  0
  8  9  2  0
  8 10  1  0
 10 11  1  6
 10 27  1  0
 10 30  1  0
 11 12  1  0
 12 13  2  0
 12 14  1  0
 14 15  1  0
 14 19  2  0
 15 16  1  0
 16 17  1  0
 16 18  2  0
 18 19  1  0
 19 20  1  0
 20 21  2  0
 20 25  1  0
 21 22  1  0
 21 23  1  0
 23 24  1  0
 24 25  2  0
 25 26  1  0
 27 28  1  0
 28 29  1  0
 29 30  1  0
 31 32  1  0
 32 33  2  0
 32 34  1  0
M  END
