
     RDKit          3D

 35 35  0  0  0  0  0  0  0  0999 V2000
   -8.8830    3.1490   -0.2140 C   0  0  0  0  0  0  0  0  0  0  0  0
   -8.2710    1.8880    0.3990 C   0  0  0  0  0  0  0  0  0  0  0  0
   -7.3600    1.2900   -0.6630 C   0  0  0  0  0  0  0  0  0  0  0  0
   -6.6790    0.0520   -0.1940 C   0  0  0  0  0  0  0  0  0  0  0  0
   -5.7570    0.1820    0.9570 C   0  0  0  0  0  0  0  0  0  0  0  0
   -4.5320    0.9940    0.8100 C   0  0  1  0  0  0  0  0  0  0  0  0
   -4.6710    2.4220    0.4820 C   0  0  0  0  0  0  0  0  0  0  0  0
   -3.8720    0.9230    2.0760 O   0  0  0  0  0  0  0  0  0  0  0  0
   -3.5850    0.3820   -0.2010 C   0  0  0  0  0  0  0  0  0  0  0  0
   -3.9360    0.3220   -1.4050 O   0  0  0  0  0  0  0  0  0  0  0  0
   -2.3530   -0.1130    0.1520 O   0  0  0  0  0  0  0  0  0  0  0  0
   -1.4420   -0.6920   -0.7630 C   0  0  1  0  0  0  0  0  0  0  0  0
   -0.2120    0.1220   -0.7400 C   0  0  0  0  0  0  0  0  0  0  0  0
   -0.0970    1.1450    0.0060 O   0  0  0  0  0  0  0  0  0  0  0  0
    0.9050   -0.1620   -1.5220 O   0  0  0  0  0  0  0  0  0  0  0  0
    2.0690    0.6450   -1.4710 C   0  0  2  0  0  0  0  0  0  0  0  0
    2.2830    1.1970   -2.8380 C   0  0  0  0  0  0  0  0  0  0  0  0
    3.5640    1.9760   -2.9810 C   0  0  0  0  0  0  0  0  0  0  0  0
    4.4750    1.7910   -1.7890 C   0  0  0  0  0  0  0  0  0  0  0  0
    4.5670    0.3690   -1.3450 C   0  0  1  0  0  0  0  0  0  0  0  0
    5.4840    0.3410   -0.1580 C   0  0  0  0  0  0  0  0  0  0  0  0
    5.1210   -0.0650    0.9650 O   0  0  0  0  0  0  0  0  0  0  0  0
    6.7830    0.7860   -0.3240 O   0  0  0  0  0  0  0  0  0  0  0  0
    7.7320    0.8050    0.7230 C   0  0  0  0  0  0  0  0  0  0  0  0
    9.0510    1.3440    0.2160 C   0  0  0  0  0  0  0  0  0  0  0  0
   10.0640    1.3580    1.3560 C   0  0  0  0  0  0  0  0  0  0  0  0
   10.2490    0.0760    1.8370 O   0  0  0  0  0  0  0  0  0  0  0  0
    3.2310   -0.1690   -0.9600 C   0  0  0  0  0  0  0  0  0  0  0  0
   -1.1580   -2.1570   -0.3900 C   0  0  2  0  0  0  0  0  0  0  0  0
   -0.3240   -2.7240   -1.4840 C   0  0  0  0  0  0  0  0  0  0  0  0
   -2.4160   -2.7890   -0.4490 O   0  0  0  0  0  0  0  0  0  0  0  0
   -0.5790   -2.1430    0.9640 C   0  0  0  0  0  0  0  0  0  0  0  0
   -0.2000   -3.4070    1.6080 C   0  0  1  0  0  0  0  0  0  0  0  0
   -1.2940   -4.4040    1.8060 C   0  0  0  0  0  0  0  0  0  0  0  0
    0.9650   -4.0880    0.9300 C   0  0  0  0  0  0  0  0  0  0  0  0
  1  2  1  0
  2  3  1  0
  3  4  1  0
  4  5  1  0
  5  6  1  0
  6  7  1  6
  6  8  1  0
  6  9  1  0
  9 10  2  0
  9 11  1  0
 12 11  1  1
 12 13  1  0
 12 29  1  0
 13 14  2  0
 13 15  1  0
 16 15  1  6
 16 17  1  0
 16 28  1  0
 17 18  1  0
 18 19  1  0
 19 20  1  0
 20 21  1  1
 20 28  1  0
 21 22  2  0
 21 23  1  0
 23 24  1  0
 24 25  1  0
 25 26  1  0
 26 27  1  0
 29 30  1  6
 29 31  1  0
 29 32  1  0
 32 33  1  0
 33 34  1  6
 33 35  1  0
M  END
