
     RDKit          3D

 34 38  0  0  0  0  0  0  0  0999 V2000
    0.1630    1.9700   -0.4280 O   0  0  0  0  0  0  0  0  0  0  0  0
   -0.7820    1.8810    0.3800 C   0  0  0  0  0  0  0  0  0  0  0  0
   -0.5300    1.7390    1.7240 O   0  0  0  0  0  0  0  0  0  0  0  0
    0.8140    1.7050    2.2210 C   0  0  0  0  0  0  0  0  0  0  0  0
    1.5730    0.5880    1.6340 C   0  0  0  0  0  0  0  0  0  0  0  0
    1.0780   -0.4450    0.8660 C   0  0  0  0  0  0  0  0  0  0  0  0
    2.1550   -1.2250    0.5540 C   0  0  0  0  0  0  0  0  0  0  0  0
    3.2610   -0.6550    1.1350 C   0  0  0  0  0  0  0  0  0  0  0  0
    4.6740   -1.1430    1.0740 C   0  0  0  0  0  0  0  0  0  0  0  0
    5.3680   -0.4290    0.2110 O   0  0  0  0  0  0  0  0  0  0  0  0
    6.4810   -0.1940   -0.4380 C   0  0  0  0  0  0  0  0  0  0  0  0
    7.5960   -1.0150   -0.2290 C   0  0  0  0  0  0  0  0  0  0  0  0
    8.7860   -0.7910   -0.8990 C   0  0  0  0  0  0  0  0  0  0  0  0
   10.1620   -1.8570   -0.5860 Cl  0  0  0  0  0  0  0  0  0  0  0  0
    8.9070    0.2210   -1.7730 N   0  0  0  0  0  0  0  0  0  0  0  0
    7.8650    1.0390   -2.0100 C   0  0  0  0  0  0  0  0  0  0  0  0
    6.6720    0.8400   -1.3580 C   0  0  0  0  0  0  0  0  0  0  0  0
    5.3040    1.8920   -1.6430 Cl  0  0  0  0  0  0  0  0  0  0  0  0
    2.8760    0.4120    1.7630 O   0  0  0  0  0  0  0  0  0  0  0  0
   -2.1650    1.9290   -0.1120 C   0  0  2  0  0  0  0  0  0  0  0  0
   -2.9700    0.7030    0.2130 C   0  0  0  0  0  0  0  0  0  0  0  0
   -3.9960    0.4550   -0.7840 C   0  0  0  0  0  0  0  0  0  0  0  0
   -3.7520    0.9270   -2.0440 C   0  0  0  0  0  0  0  0  0  0  0  0
   -4.6440    0.7230   -3.0600 C   0  0  0  0  0  0  0  0  0  0  0  0
   -4.4340    1.1500   -4.2240 O   0  0  0  0  0  0  0  0  0  0  0  0
   -5.7780    0.0610   -2.8610 O   0  0  0  0  0  0  0  0  0  0  0  0
   -6.0770   -0.4200   -1.6770 C   0  0  0  0  0  0  0  0  0  0  0  0
   -7.2660   -1.1090   -1.4770 C   0  0  0  0  0  0  0  0  0  0  0  0
   -7.5640   -1.5970   -0.2450 C   0  0  0  0  0  0  0  0  0  0  0  0
   -6.7210   -1.4340    0.8290 C   0  0  0  0  0  0  0  0  0  0  0  0
   -7.0810   -1.9640    2.0880 O   0  0  0  0  0  0  0  0  0  0  0  0
   -5.5530   -0.7530    0.6180 C   0  0  0  0  0  0  0  0  0  0  0  0
   -5.2110   -0.2360   -0.6350 C   0  0  0  0  0  0  0  0  0  0  0  0
   -2.1860    1.7760   -1.9590 S   0  0  0  0  0  0  0  0  0  0  0  0
  1  2  2  0
  2  3  1  0
 20  2  1  1
  3  4  1  0
  4  5  1  0
  5  6  2  0
  5 19  1  0
  6  7  1  0
  7  8  2  0
  8  9  1  0
  8 19  1  0
  9 10  1  0
 10 11  1  0
 11 12  2  0
 11 17  1  0
 12 13  1  0
 13 14  1  0
 13 15  2  0
 15 16  1  0
 16 17  2  0
 17 18  1  0
 20 21  1  0
 20 34  1  0
 21 22  1  0
 22 23  2  0
 22 33  1  0
 23 24  1  0
 23 34  1  0
 24 25  2  0
 24 26  1  0
 26 27  1  0
 27 28  2  0
 27 33  1  0
 28 29  1  0
 29 30  2  0
 30 31  1  0
 30 32  1  0
 32 33  2  0
M  END
