
     RDKit          3D

 34 38  0  0  0  0  0  0  0  0999 V2000
   -5.8390   -4.0720    1.1330 C   0  0  0  0  0  0  0  0  0  0  0  0
   -4.4760   -3.5130    1.0820 C   0  0  0  0  0  0  0  0  0  0  0  0
   -3.6590   -3.9740    2.0030 O   0  0  0  0  0  0  0  0  0  0  0  0
   -3.9600   -2.5740    0.1930 N   0  0  0  0  0  0  0  0  0  0  0  0
   -2.5240   -2.2540    0.2620 C   0  0  0  0  0  0  0  0  0  0  0  0
   -1.6420   -3.2490    0.5480 C   0  0  0  0  0  0  0  0  0  0  0  0
   -0.2790   -2.9380    0.6200 C   0  0  0  0  0  0  0  0  0  0  0  0
    0.1590   -1.6530    0.4050 C   0  0  0  0  0  0  0  0  0  0  0  0
    1.5990   -1.3230    0.4910 C   0  0  0  0  0  0  0  0  0  0  0  0
    2.0070   -0.0740    0.9260 C   0  0  0  0  0  0  0  0  0  0  0  0
    3.3520    0.2580    1.0170 C   0  0  0  0  0  0  0  0  0  0  0  0
    4.3370   -0.6480    0.6750 C   0  0  0  0  0  0  0  0  0  0  0  0
    5.7720   -0.2710    0.7910 C   0  0  0  0  0  0  0  0  0  0  0  0
    6.2380    0.5280   -0.2980 N   0  0  1  0  0  0  0  0  0  0  0  0
    5.4430    0.3590   -1.5000 C   0  0  0  0  0  0  0  0  0  0  0  0
    6.2930    0.8790   -2.6580 C   0  0  0  0  0  0  0  0  0  0  0  0
    6.9770    2.1920   -2.2940 C   0  0  0  0  0  0  0  0  0  0  0  0
    6.1000    2.8080   -1.1950 C   0  0  0  0  0  0  0  0  0  0  0  0
    6.3440    1.9340    0.0340 C   0  0  0  0  0  0  0  0  0  0  0  0
    3.9270   -1.8900    0.2400 C   0  0  0  0  0  0  0  0  0  0  0  0
    2.5740   -2.2280    0.1490 C   0  0  0  0  0  0  0  0  0  0  0  0
   -0.7710   -0.6790    0.1180 C   0  0  0  0  0  0  0  0  0  0  0  0
   -2.1210   -0.9650    0.0430 C   0  0  0  0  0  0  0  0  0  0  0  0
   -3.0930    0.1310   -0.2360 C   0  0  2  0  0  0  0  0  0  0  0  0
   -3.0530    1.0390    0.8960 N   0  0  0  0  0  0  0  0  0  0  0  0
   -3.7120    2.2490    1.0530 C   0  0  0  0  0  0  0  0  0  0  0  0
   -4.6110    2.7640    0.1580 C   0  0  0  0  0  0  0  0  0  0  0  0
   -5.2370    4.0010    0.3740 C   0  0  0  0  0  0  0  0  0  0  0  0
   -4.9780    4.7470    1.4850 C   0  0  0  0  0  0  0  0  0  0  0  0
   -4.0720    4.2420    2.3980 C   0  0  0  0  0  0  0  0  0  0  0  0
   -3.4540    3.0310    2.1940 C   0  0  0  0  0  0  0  0  0  0  0  0
   -4.4510   -0.3290   -0.4920 C   0  0  0  0  0  0  0  0  0  0  0  0
   -4.6390   -1.8270   -0.7930 C   0  0  2  0  0  0  0  0  0  0  0  0
   -6.0990   -2.0530   -0.9580 C   0  0  0  0  0  0  0  0  0  0  0  0
  1  2  1  0
  2  3  2  0
  2  4  1  0
  4  5  1  0
  4 33  1  0
  5  6  2  0
  5 23  1  0
  6  7  1  0
  7  8  2  0
  8  9  1  0
  8 22  1  0
  9 10  2  0
  9 21  1  0
 10 11  1  0
 11 12  2  0
 12 13  1  0
 12 20  1  0
 14 13  1  1
 14 15  1  0
 14 19  1  0
 15 16  1  0
 16 17  1  0
 17 18  1  0
 18 19  1  0
 20 21  2  0
 22 23  2  0
 23 24  1  0
 24 25  1  1
 24 32  1  0
 25 26  1  0
 26 27  2  0
 26 31  1  0
 27 28  1  0
 28 29  2  0
 29 30  1  0
 30 31  2  0
 32 33  1  0
 33 34  1  1
M  CHG  1  14   1
M  END
