
     RDKit          3D

 34 38  0  0  0  0  0  0  0  0999 V2000
   -5.0240    1.9990    2.7480 C   0  0  0  0  0  0  0  0  0  0  0  0
   -4.2210    1.0460    2.1100 O   0  0  0  0  0  0  0  0  0  0  0  0
   -4.6170    0.5210    0.9010 C   0  0  0  0  0  0  0  0  0  0  0  0
   -5.7910    0.9090    0.2960 C   0  0  0  0  0  0  0  0  0  0  0  0
   -6.1470    0.3530   -0.9210 C   0  0  0  0  0  0  0  0  0  0  0  0
   -5.3260   -0.5780   -1.5070 C   0  0  0  0  0  0  0  0  0  0  0  0
   -4.1430   -0.9780   -0.9100 C   0  0  0  0  0  0  0  0  0  0  0  0
   -3.3790   -1.9080   -1.5570 O   0  0  0  0  0  0  0  0  0  0  0  0
   -2.1650   -2.3880   -1.1030 C   0  0  0  0  0  0  0  0  0  0  0  0
   -1.2010   -1.2150   -1.0420 C   0  0  0  0  0  0  0  0  0  0  0  0
   -1.5680   -0.0840   -1.4370 O   0  0  0  0  0  0  0  0  0  0  0  0
    0.0970   -1.4510   -0.5330 N   0  0  0  0  0  0  0  0  0  0  0  0
    1.1030   -0.4580   -0.4070 C   0  0  0  0  0  0  0  0  0  0  0  0
    0.8910    0.8900   -0.5020 C   0  0  0  0  0  0  0  0  0  0  0  0
    1.9460    1.7480   -0.3830 C   0  0  0  0  0  0  0  0  0  0  0  0
    3.2510    1.2750   -0.1630 C   0  0  0  0  0  0  0  0  0  0  0  0
    3.4960   -0.0700   -0.0600 C   0  0  0  0  0  0  0  0  0  0  0  0
    2.4210   -0.9070   -0.1850 C   0  0  0  0  0  0  0  0  0  0  0  0
    4.8300   -0.5720    0.2180 C   0  0  2  0  0  0  0  0  0  0  0  0
    4.9250   -1.3500    1.5100 C   0  0  0  0  0  0  0  0  0  0  0  0
    6.0350   -2.3020    1.3270 C   0  0  0  0  0  0  0  0  0  0  0  0
    6.0150   -3.4000    1.7650 O   0  0  0  0  0  0  0  0  0  0  0  0
    7.4270   -1.6960    0.3940 S   0  0  0  0  0  0  0  0  0  0  0  0
    7.1360    0.0980    0.3030 C   0  0  0  0  0  0  0  0  0  0  0  0
    5.8600    0.5050    0.2240 C   0  0  0  0  0  0  0  0  0  0  0  0
    5.5650    1.9130    0.1320 C   0  0  0  0  0  0  0  0  0  0  0  0
    6.4120    2.8900    0.2210 C   0  0  0  0  0  0  0  0  0  0  0  0
    5.7350    4.5420    0.0610 Cl  0  0  0  0  0  0  0  0  0  0  0  0
    8.1040    2.8460    0.4940 Cl  0  0  0  0  0  0  0  0  0  0  0  0
    4.2050    2.2310   -0.0710 O   0  0  0  0  0  0  0  0  0  0  0  0
   -3.8000   -0.4210    0.2950 C   0  0  0  0  0  0  0  0  0  0  0  0
   -5.9170   -0.9710   -2.7120 O   0  0  0  0  0  0  0  0  0  0  0  0
   -7.2790   -0.5440   -2.6570 C   0  0  0  0  0  0  0  0  0  0  0  0
   -7.2650    0.5590   -1.7470 O   0  0  0  0  0  0  0  0  0  0  0  0
  1  2  1  0
  2  3  1  0
  3  4  2  0
  3 31  1  0
  4  5  1  0
  5  6  2  0
  5 34  1  0
  6  7  1  0
  6 32  1  0
  7  8  1  0
  7 31  2  0
  8  9  1  0
  9 10  1  0
 10 11  2  0
 10 12  1  0
 12 13  1  0
 13 14  2  0
 13 18  1  0
 14 15  1  0
 15 16  2  0
 16 17  1  0
 16 30  1  0
 17 18  2  0
 17 19  1  0
 19 20  1  1
 19 25  1  0
 20 21  1  0
 21 22  2  0
 21 23  1  0
 23 24  1  0
 24 25  2  0
 25 26  1  0
 26 27  2  3
 26 30  1  0
 27 28  1  0
 27 29  1  0
 32 33  1  0
 33 34  1  0
M  END
