
     RDKit          3D

 35 36  0  0  0  0  0  0  0  0999 V2000
   -5.7270   -0.9930   -2.4310 C   0  0  0  0  0  0  0  0  0  0  0  0
   -5.9050    0.3970   -2.8900 C   0  0  0  0  0  0  0  0  0  0  0  0
   -5.2610    1.4480   -2.0450 C   0  0  0  0  0  0  0  0  0  0  0  0
   -3.8280    1.3970   -1.8260 C   0  0  0  0  0  0  0  0  0  0  0  0
   -3.1590    0.5180   -1.0460 O   0  0  0  0  0  0  0  0  0  0  0  0
   -3.3280    0.6940    0.3020 C   0  0  1  0  0  0  0  0  0  0  0  0
   -3.3990   -0.4070    1.2160 C   0  0  0  0  0  0  0  0  0  0  0  0
   -4.4390   -1.4600    1.1780 C   0  0  1  0  0  0  0  0  0  0  0  0
   -5.8330   -0.9270    1.3020 C   0  0  0  0  0  0  0  0  0  0  0  0
   -4.2790   -2.5530    0.1940 C   0  0  0  0  0  0  0  0  0  0  0  0
   -2.3080    1.7530    0.7990 C   0  0  1  0  0  0  0  0  0  0  0  0
   -2.6490    1.8510    2.1760 O   0  0  0  0  0  0  0  0  0  0  0  0
   -0.8930    1.4500    0.7430 C   0  0  1  0  0  0  0  0  0  0  0  0
   -0.4280    0.2960    1.5800 C   0  0  0  0  0  0  0  0  0  0  0  0
   -0.7080    0.2300    2.8060 O   0  0  0  0  0  0  0  0  0  0  0  0
    0.3120   -0.7190    1.0440 O   0  0  0  0  0  0  0  0  0  0  0  0
    0.8280   -1.8630    1.6430 C   0  0  0  0  0  0  0  0  0  0  0  0
    1.8150   -1.6120    2.7450 C   0  0  2  0  0  0  0  0  0  0  0  0
    1.2820   -0.9170    3.8220 O   0  0  0  0  0  0  0  0  0  0  0  0
    3.0050   -0.7890    2.2600 C   0  0  0  0  0  0  0  0  0  0  0  0
    3.6610   -1.3310    1.1870 O   0  0  0  0  0  0  0  0  0  0  0  0
    4.7450   -0.5860    0.7610 C   0  0  1  0  0  0  0  0  0  0  0  0
    6.0590   -1.2820    0.9330 C   0  0  0  0  0  0  0  0  0  0  0  0
    6.4010   -2.2290   -0.1560 C   0  0  0  0  0  0  0  0  0  0  0  0
    5.4530   -2.1680   -1.3310 C   0  0  0  0  0  0  0  0  0  0  0  0
    5.3150   -0.7060   -1.6960 C   0  0  2  0  0  0  0  0  0  0  0  0
    6.5760   -0.0470   -1.6310 O   0  0  0  0  0  0  0  0  0  0  0  0
    7.0650    0.7390   -2.6640 C   0  0  0  0  0  0  0  0  0  0  0  0
    6.3620    0.8610   -3.6770 O   0  0  0  0  0  0  0  0  0  0  0  0
    8.3020    1.3740   -2.5860 O   0  0  0  0  0  0  0  0  0  0  0  0
    4.4660   -0.0660   -0.6080 C   0  0  0  0  0  0  0  0  0  0  0  0
   -0.2730    1.2810   -0.6050 C   0  0  0  0  0  0  0  0  0  0  0  0
    0.7050    2.4280   -0.8140 C   0  0  0  0  0  0  0  0  0  0  0  0
    1.1190    2.8270    0.5880 C   0  0  0  0  0  0  0  0  0  0  0  0
   -0.1570    2.6600    1.3410 C   0  0  0  0  0  0  0  0  0  0  0  0
  1  2  1  0
  2  3  1  0
  3  4  1  0
  4  5  1  0
  5  6  1  0
  6  7  1  1
  6 11  1  0
  7  8  1  0
  8  9  1  6
  8 10  1  0
 11 12  1  1
 11 13  1  0
 13 14  1  1
 13 32  1  0
 13 35  1  0
 14 15  2  0
 14 16  1  0
 16 17  1  0
 17 18  1  0
 18 19  1  1
 18 20  1  0
 20 21  1  0
 22 21  1  6
 22 23  1  0
 22 31  1  0
 23 24  1  0
 24 25  1  0
 25 26  1  0
 26 27  1  1
 26 31  1  0
 27 28  1  0
 28 29  2  0
 28 30  1  0
 32 33  1  0
 33 34  1  0
 34 35  1  0
M  END
