
     RDKit          3D

 34 37  0  0  0  0  0  0  0  0999 V2000
    6.5050    4.4860   -1.0880 C   0  0  0  0  0  0  0  0  0  0  0  0
    5.4590    3.7170   -0.5510 O   0  0  0  0  0  0  0  0  0  0  0  0
    5.3460    2.3560   -0.7500 C   0  0  0  0  0  0  0  0  0  0  0  0
    6.2130    1.7630   -1.4410 O   0  0  0  0  0  0  0  0  0  0  0  0
    4.2370    1.5920   -0.1700 C   0  0  0  0  0  0  0  0  0  0  0  0
    4.1260    0.2970   -0.3570 C   0  0  0  0  0  0  0  0  0  0  0  0
    5.0610   -0.3860   -1.1120 O   0  0  0  0  0  0  0  0  0  0  0  0
    5.2610   -1.7840   -1.0260 C   0  0  0  0  0  0  0  0  0  0  0  0
    2.9990   -0.4220    0.2430 C   0  0  0  0  0  0  0  0  0  0  0  0
    2.6440   -1.6750    0.2270 O   0  0  0  0  0  0  0  0  0  0  0  0
    1.5480   -1.8870    0.9080 C   0  0  0  0  0  0  0  0  0  0  0  0
    0.8400   -3.2030    1.1100 C   0  0  1  0  0  0  0  0  0  0  0  0
    0.9950   -3.4770    2.4900 O   0  0  0  0  0  0  0  0  0  0  0  0
   -0.6100   -2.9990    0.8750 C   0  0  0  0  0  0  0  0  0  0  0  0
   -1.4660   -3.0230    1.8040 O   0  0  0  0  0  0  0  0  0  0  0  0
   -1.0580   -2.7700   -0.4390 N   0  0  0  0  0  0  0  0  0  0  0  0
   -2.5030   -2.5690   -0.6760 C   0  0  0  0  0  0  0  0  0  0  0  0
   -3.2050   -3.7520   -0.8970 C   0  0  0  0  0  0  0  0  0  0  0  0
   -2.8320   -5.3830   -0.9650 Cl  0  0  0  0  0  0  0  0  0  0  0  0
   -4.9140   -3.0640   -1.1420 S   0  0  0  0  0  0  0  0  0  0  0  0
   -4.4680   -1.3290   -0.9220 C   0  0  0  0  0  0  0  0  0  0  0  0
   -5.2320   -0.1710   -0.9640 C   0  0  0  0  0  0  0  0  0  0  0  0
   -6.6940   -0.2640   -1.2290 C   0  0  0  0  0  0  0  0  0  0  0  0
   -4.6060    1.0560   -0.7550 C   0  0  0  0  0  0  0  0  0  0  0  0
   -5.4220    2.2770   -0.8020 C   0  0  0  0  0  0  0  0  0  0  0  0
   -3.2510    1.0240   -0.5200 C   0  0  0  0  0  0  0  0  0  0  0  0
   -2.5330    2.3290   -0.2890 C   0  0  0  0  0  0  0  0  0  0  0  0
   -2.5270   -0.1220   -0.4830 C   0  0  0  0  0  0  0  0  0  0  0  0
   -3.1220   -1.3940   -0.6900 C   0  0  0  0  0  0  0  0  0  0  0  0
    1.1470   -0.6670    1.4170 C   0  0  0  0  0  0  0  0  0  0  0  0
   -0.2640   -0.3470    2.4220 Cl  0  0  0  0  0  0  0  0  0  0  0  0
    2.0620    0.2720    1.0010 C   0  0  0  0  0  0  0  0  0  0  0  0
    2.1810    1.7330    1.2160 C   0  0  0  0  0  0  0  0  0  0  0  0
    3.3000    2.2590    0.5820 O   0  0  0  0  0  0  0  0  0  0  0  0
  1  2  1  0
  2  3  1  0
  3  4  2  0
  3  5  1  0
  5  6  2  0
  5 34  1  0
  6  7  1  0
  6  9  1  0
  7  8  1  0
  9 10  1  0
  9 32  2  0
 10 11  1  0
 11 12  1  0
 11 30  2  0
 12 13  1  1
 12 14  1  0
 14 15  2  0
 14 16  1  0
 16 17  1  0
 17 18  2  0
 17 29  1  0
 18 19  1  0
 18 20  1  0
 20 21  1  0
 21 22  2  0
 21 29  1  0
 22 23  1  0
 22 24  1  0
 24 25  1  0
 24 26  2  0
 26 27  1  0
 26 28  1  0
 28 29  2  0
 30 31  1  0
 30 32  1  0
 32 33  1  0
 33 34  1  0
M  END
