
     RDKit          3D

 37 41  0  0  0  0  0  0  0  0999 V2000
   -1.7920    7.0020    0.7020 C   0  0  0  0  0  0  0  0  0  0  0  0
   -1.7150    5.5290    0.4400 C   0  0  0  0  0  0  0  0  0  0  0  0
   -0.5710    4.9510   -0.0680 C   0  0  0  0  0  0  0  0  0  0  0  0
   -0.5300    3.6170   -0.2940 N   0  0  0  0  0  0  0  0  0  0  0  0
   -1.5730    2.8030   -0.0410 C   0  0  0  0  0  0  0  0  0  0  0  0
   -1.5030    1.3660   -0.2910 C   0  0  0  0  0  0  0  0  0  0  0  0
   -2.5970    0.5980   -0.0330 C   0  0  0  0  0  0  0  0  0  0  0  0
   -2.5440   -0.7750   -0.2690 C   0  0  0  0  0  0  0  0  0  0  0  0
   -1.4170   -1.3780   -0.7560 C   0  0  0  0  0  0  0  0  0  0  0  0
   -1.3400   -2.8010   -1.0070 C   0  0  0  0  0  0  0  0  0  0  0  0
   -2.5000   -3.5830   -0.7140 N   0  0  2  0  0  0  0  0  0  0  0  0
   -2.3960   -3.9710    0.6920 C   0  0  0  0  0  0  0  0  0  0  0  0
   -3.4600   -4.9290    1.1230 C   0  0  0  0  0  0  0  0  0  0  0  0
   -3.2360   -6.2860    0.5100 C   0  0  0  0  0  0  0  0  0  0  0  0
   -4.0920   -6.4020   -0.6490 N   0  0  0  0  0  0  0  0  0  0  0  0
   -3.8280   -5.4080   -1.6520 C   0  0  0  0  0  0  0  0  0  0  0  0
   -2.4720   -4.7900   -1.5570 C   0  0  0  0  0  0  0  0  0  0  0  0
   -0.3160   -0.5750   -1.0090 C   0  0  0  0  0  0  0  0  0  0  0  0
    0.7990   -1.1610   -1.4920 O   0  0  0  0  0  0  0  0  0  0  0  0
    2.0370   -0.6830   -1.8320 C   0  0  0  0  0  0  0  0  0  0  0  0
    2.7920   -0.0620   -0.7170 C   0  0  0  0  0  0  0  0  0  0  0  0
    2.4060   -0.0250    0.5930 C   0  0  0  0  0  0  0  0  0  0  0  0
    3.3810    0.6270    1.2840 N   0  0  0  0  0  0  0  0  0  0  0  0
    4.3530    1.0030    0.5000 N   0  0  0  0  0  0  0  0  0  0  0  0
    5.5470    1.7030    0.8530 C   0  0  0  0  0  0  0  0  0  0  0  0
    5.7610    2.1850    2.1250 C   0  0  0  0  0  0  0  0  0  0  0  0
    6.9340    2.8630    2.4520 C   0  0  0  0  0  0  0  0  0  0  0  0
    7.9190    3.0760    1.5160 C   0  0  0  0  0  0  0  0  0  0  0  0
    7.7090    2.5940    0.2360 C   0  0  0  0  0  0  0  0  0  0  0  0
    8.7520    2.8230   -0.7300 C   0  0  0  0  0  0  0  0  0  0  0  0
    9.5790    3.0250   -1.5090 N   0  0  0  0  0  0  0  0  0  0  0  0
    6.5440    1.9250   -0.0730 C   0  0  0  0  0  0  0  0  0  0  0  0
    4.0090    0.5860   -0.7460 C   0  0  0  0  0  0  0  0  0  0  0  0
   -0.3550    0.7850   -0.7810 C   0  0  0  0  0  0  0  0  0  0  0  0
   -2.6890    3.3670    0.4550 N   0  0  0  0  0  0  0  0  0  0  0  0
   -2.7810    4.6960    0.6990 C   0  0  0  0  0  0  0  0  0  0  0  0
   -4.0210    5.2670    1.2450 C   0  0  0  0  0  0  0  0  0  0  0  0
  1  2  1  0
  2  3  2  0
  2 36  1  0
  3  4  1  0
  4  5  2  0
  5  6  1  0
  5 35  1  0
  6  7  2  0
  6 34  1  0
  7  8  1  0
  8  9  2  0
  9 10  1  0
  9 18  1  0
 11 10  1  6
 11 12  1  0
 11 17  1  0
 12 13  1  0
 13 14  1  0
 14 15  1  0
 15 16  1  0
 16 17  1  0
 18 19  1  0
 18 34  2  0
 19 20  1  0
 20 21  1  0
 21 22  1  0
 21 33  2  0
 22 23  2  0
 23 24  1  0
 24 25  1  0
 24 33  1  0
 25 26  2  0
 25 32  1  0
 26 27  1  0
 27 28  2  0
 28 29  1  0
 29 30  1  0
 29 32  2  0
 30 31  3  0
 35 36  2  0
 36 37  1  0
M  CHG  2  11   1  15   1
M  END
