
     RDKit          3D

 37 41  0  0  0  0  0  0  0  0999 V2000
   -1.2630   -1.8610   -2.3240 C   0  0  0  0  0  0  0  0  0  0  0  0
   -1.5680   -1.2480   -1.2170 C   0  0  0  0  0  0  0  0  0  0  0  0
   -1.9690   -2.0200   -0.0610 C   0  0  0  0  0  0  0  0  0  0  0  0
   -1.8480   -3.4030   -0.1330 C   0  0  0  0  0  0  0  0  0  0  0  0
   -2.6490   -4.3450    0.4690 C   0  0  0  0  0  0  0  0  0  0  0  0
   -3.4080   -4.1720    1.6140 C   0  0  0  0  0  0  0  0  0  0  0  0
   -3.8320   -2.9880    2.1720 C   0  0  0  0  0  0  0  0  0  0  0  0
   -3.3980   -1.7270    1.8890 C   0  0  0  0  0  0  0  0  0  0  0  0
   -2.4470   -1.2350    0.9630 C   0  0  0  0  0  0  0  0  0  0  0  0
   -2.0860   -0.0900    1.1930 N   0  0  0  0  0  0  0  0  0  0  0  0
   -1.3330    0.9750    0.9150 C   0  0  0  0  0  0  0  0  0  0  0  0
   -0.0250    0.8820    1.3520 C   0  0  0  0  0  0  0  0  0  0  0  0
    0.4790   -0.3040    2.0660 C   0  0  0  0  0  0  0  0  0  0  0  0
    1.5730   -1.0030    1.5280 N   0  0  0  0  0  0  0  0  0  0  0  0
    1.9460   -0.8260    0.1690 C   0  0  2  0  0  0  0  0  0  0  0  0
    1.7760   -2.1780   -0.5560 C   0  0  0  0  0  0  0  0  0  0  0  0
    3.4120   -0.5420   -0.0090 C   0  0  0  0  0  0  0  0  0  0  0  0
    3.8720    0.4330   -0.8570 C   0  0  0  0  0  0  0  0  0  0  0  0
    5.2470    0.6580   -0.9760 C   0  0  0  0  0  0  0  0  0  0  0  0
    6.1490   -0.0790   -0.2610 C   0  0  0  0  0  0  0  0  0  0  0  0
    7.5500    0.1550   -0.3850 N   0  0  0  0  0  0  0  0  0  0  0  0
    8.3240   -0.0290    0.6240 C   0  0  0  0  0  0  0  0  0  0  0  0
    5.6700   -1.0370    0.5700 N   0  0  0  0  0  0  0  0  0  0  0  0
    4.3310   -1.2740    0.7020 C   0  0  0  0  0  0  0  0  0  0  0  0
    0.9200    1.9560    1.1250 C   0  0  0  0  0  0  0  0  0  0  0  0
    2.1300    1.8860    1.5270 O   0  0  0  0  0  0  0  0  0  0  0  0
    0.5540    3.1370    0.4490 N   0  0  0  0  0  0  0  0  0  0  0  0
   -0.7920    3.2450   -0.0060 C   0  0  0  0  0  0  0  0  0  0  0  0
   -1.1140    4.3180   -0.6260 N   0  0  0  0  0  0  0  0  0  0  0  0
   -2.3750    4.6530   -1.1680 C   0  0  0  0  0  0  0  0  0  0  0  0
   -3.3480    3.5920   -0.8930 C   0  0  0  0  0  0  0  0  0  0  0  0
   -4.6560    3.7980   -1.3080 C   0  0  0  0  0  0  0  0  0  0  0  0
   -5.6200    2.8510   -1.0840 C   0  0  0  0  0  0  0  0  0  0  0  0
   -5.3090    1.6920   -0.4480 C   0  0  0  0  0  0  0  0  0  0  0  0
   -3.9930    1.4700   -0.0210 C   0  0  0  0  0  0  0  0  0  0  0  0
   -3.0260    2.4170   -0.2480 C   0  0  0  0  0  0  0  0  0  0  0  0
   -1.6890    2.1530    0.2490 N   0  0  0  0  0  0  0  0  0  0  0  0
  1  2  2  0
  2  3  1  0
  3  4  2  0
  3  9  1  0
  4  5  1  0
  5  6  2  0
  6  7  1  0
  7  8  2  0
  8  9  1  0
  9 10  2  3
 10 11  1  0
 11 12  2  0
 11 37  1  0
 12 13  1  0
 12 25  1  0
 13 14  1  0
 14 15  1  0
 15 16  1  6
 15 17  1  0
 17 18  2  0
 17 24  1  0
 18 19  1  0
 19 20  2  0
 20 21  1  0
 20 23  1  0
 21 22  2  0
 23 24  2  0
 25 26  2  0
 25 27  1  0
 27 28  1  0
 28 29  2  0
 28 37  1  0
 29 30  1  0
 30 31  1  0
 31 32  2  0
 31 36  1  0
 32 33  1  0
 33 34  2  0
 34 35  1  0
 35 36  2  0
 36 37  1  0
M  CHG  2  14   1  21   1
M  END
