
     RDKit          3D

 37 40  0  0  0  0  0  0  0  0999 V2000
   -0.9500    2.5910    1.9050 C   0  0  0  0  0  0  0  0  0  0  0  0
   -0.5740    1.1530    1.7050 C   0  0  1  0  0  0  0  0  0  0  0  0
   -0.3500    0.4020    2.9810 C   0  0  0  0  0  0  0  0  0  0  0  0
   -1.6620    0.4050    0.9230 C   0  0  0  0  0  0  0  0  0  0  0  0
   -0.8790   -0.8130    0.4520 C   0  0  1  0  0  0  0  0  0  0  0  0
   -1.3690   -1.3300   -0.8730 C   0  0  0  0  0  0  0  0  0  0  0  0
   -2.7670   -1.7280   -0.8140 N   0  0  0  0  0  0  0  0  0  0  0  0
   -3.2070   -3.0350   -0.4720 C   0  0  0  0  0  0  0  0  0  0  0  0
   -2.4670   -4.0370   -0.1710 O   0  0  0  0  0  0  0  0  0  0  0  0
   -4.6270   -3.0500   -0.5190 N   0  0  0  0  0  0  0  0  0  0  0  0
   -5.0540   -1.6420   -0.5000 C   0  0  2  0  0  0  0  0  0  0  0  0
   -6.2880   -1.5170   -1.2350 N   0  0  0  0  0  0  0  0  0  0  0  0
   -7.5130   -0.9600   -0.1640 S   0  0  1  0  0  0  0  0  0  0  0  0
   -8.8770   -1.0330   -0.8070 O   0  0  0  0  0  0  0  0  0  0  0  0
   -7.5450   -1.9530    0.9920 O   0  0  0  0  0  0  0  0  0  0  0  0
   -7.1980    0.6160    0.5320 C   0  0  0  0  0  0  0  0  0  0  0  0
   -7.0690    1.7290   -0.4500 C   0  0  0  0  0  0  0  0  0  0  0  0
   -8.2880    1.8790   -1.2250 N   0  0  0  0  0  0  0  0  0  0  0  0
   -3.9130   -0.9280   -1.0740 C   0  0  0  0  0  0  0  0  0  0  0  0
   -3.9580    0.1680   -1.6730 O   0  0  0  0  0  0  0  0  0  0  0  0
    0.4910   -0.3840    0.3840 N   0  0  0  0  0  0  0  0  0  0  0  0
    1.5960   -1.2380    0.0090 C   0  0  0  0  0  0  0  0  0  0  0  0
    1.3850   -2.4330   -0.2820 O   0  0  0  0  0  0  0  0  0  0  0  0
    2.8990   -0.7320   -0.0300 N   0  0  0  0  0  0  0  0  0  0  0  0
    4.0830   -1.5090   -0.3960 C   0  0  0  0  0  0  0  0  0  0  0  0
    3.8970   -2.8270   -0.7280 C   0  0  0  0  0  0  0  0  0  0  0  0
    5.6450   -3.3300   -1.0930 S   0  0  0  0  0  0  0  0  0  0  0  0
    6.3420   -1.6890   -0.7400 C   0  0  0  0  0  0  0  0  0  0  0  0
    7.5150   -0.9750   -0.7000 C   0  0  0  0  0  0  0  0  0  0  0  0
    7.1180    0.2970   -0.3040 C   0  0  0  0  0  0  0  0  0  0  0  0
    8.0280    1.4550   -0.1100 C   0  0  2  0  0  0  0  0  0  0  0  0
    7.7450    2.1450    1.0710 O   0  0  0  0  0  0  0  0  0  0  0  0
    7.8710    2.4680   -1.2410 C   0  0  0  0  0  0  0  0  0  0  0  0
    8.1320    1.9030   -2.5290 N   0  0  0  0  0  0  0  0  0  0  0  0
    5.8170    0.2490   -0.1470 N   0  0  0  0  0  0  0  0  0  0  0  0
    5.2970   -0.9980   -0.4160 N   0  0  0  0  0  0  0  0  0  0  0  0
    0.6060    1.0090    0.7410 C   0  0  0  0  0  0  0  0  0  0  0  0
  2  1  1  1
  2  3  1  0
  2  4  1  0
  2 37  1  0
  4  5  1  0
  5  6  1  6
  5 21  1  0
  6  7  1  0
  7  8  1  0
  7 19  1  0
  8  9  2  0
  8 10  1  0
 10 11  1  0
 11 12  1  6
 11 19  1  0
 12 13  1  0
 13 14  2  0
 13 15  2  0
 13 16  1  1
 16 17  1  0
 17 18  1  0
 19 20  2  0
 21 22  1  0
 21 37  1  0
 22 23  2  0
 22 24  1  0
 24 25  1  0
 25 26  2  0
 25 36  1  0
 26 27  1  0
 27 28  1  0
 28 29  2  0
 28 36  1  0
 29 30  1  0
 30 31  1  0
 30 35  2  0
 31 32  1  1
 31 33  1  0
 33 34  1  0
 35 36  1  0
M  CHG  1  34   1
M  END
