
     RDKit          3D

 36 40  0  0  0  0  0  0  0  0999 V2000
    6.9440   -4.2360    0.1070 C   0  0  0  0  0  0  0  0  0  0  0  0
    7.1130   -2.8650    0.3040 O   0  0  0  0  0  0  0  0  0  0  0  0
    6.0340   -2.0150    0.0850 C   0  0  0  0  0  0  0  0  0  0  0  0
    4.8400   -2.5100   -0.3120 N   0  0  0  0  0  0  0  0  0  0  0  0
    3.7990   -1.6520   -0.5190 C   0  0  0  0  0  0  0  0  0  0  0  0
    3.9730   -0.3100   -0.3240 C   0  0  0  0  0  0  0  0  0  0  0  0
    2.8640    0.6010   -0.5460 C   0  0  0  0  0  0  0  0  0  0  0  0
    1.5460    0.2080   -0.3110 C   0  0  0  0  0  0  0  0  0  0  0  0
    0.4740    1.0430   -0.5110 C   0  0  0  0  0  0  0  0  0  0  0  0
   -0.8990    0.5880   -0.2500 C   0  0  0  0  0  0  0  0  0  0  0  0
   -1.3020   -0.6110    0.1900 N   0  0  0  0  0  0  0  0  0  0  0  0
   -2.6430   -0.6280    0.2980 C   0  0  0  0  0  0  0  0  0  0  0  0
   -3.0650    0.6120   -0.0930 C   0  0  0  0  0  0  0  0  0  0  0  0
   -4.4190    1.1870   -0.1860 C   0  0  0  0  0  0  0  0  0  0  0  0
   -5.4710    0.2780   -0.0550 N   0  0  0  0  0  0  0  0  0  0  0  0
   -5.6120   -0.7750   -0.9580 C   0  0  0  0  0  0  0  0  0  0  0  0
   -6.4550   -1.9290   -0.4980 C   0  0  2  0  0  0  0  0  0  0  0  0
   -7.1100   -2.6080   -1.6940 C   0  0  0  0  0  0  0  0  0  0  0  0
   -7.4790   -1.5420    0.3570 O   0  0  0  0  0  0  0  0  0  0  0  0
   -6.9620   -0.8470    1.4500 C   0  0  2  0  0  0  0  0  0  0  0  0
   -8.0330   -0.5700    2.4750 C   0  0  0  0  0  0  0  0  0  0  0  0
   -6.4620    0.4790    0.9200 C   0  0  0  0  0  0  0  0  0  0  0  0
   -1.9910    1.2920   -0.4070 O   0  0  0  0  0  0  0  0  0  0  0  0
    0.7390    2.3160   -0.9630 C   0  0  0  0  0  0  0  0  0  0  0  0
   -0.1000    3.3620   -1.2530 C   0  0  0  0  0  0  0  0  0  0  0  0
    0.6520    4.4220   -1.6710 N   0  0  0  0  0  0  0  0  0  0  0  0
    1.9300    4.0430   -1.6420 N   0  0  0  0  0  0  0  0  0  0  0  0
    2.0230    2.7540   -1.2110 C   0  0  0  0  0  0  0  0  0  0  0  0
    3.0540    1.8920   -0.9990 C   0  0  0  0  0  0  0  0  0  0  0  0
    5.1850    0.1770    0.0780 C   0  0  0  0  0  0  0  0  0  0  0  0
    6.2750   -0.6760    0.2990 C   0  0  0  0  0  0  0  0  0  0  0  0
    7.5290   -0.1600    0.7160 N   0  0  0  0  0  0  0  0  0  0  0  0
    7.8130    1.5070    0.9830 S   0  0  1  0  0  0  0  0  0  0  0  0
    7.5820    2.4810   -0.4780 C   0  0  0  0  0  0  0  0  0  0  0  0
    6.9650    2.0390    2.1190 O   0  0  0  0  0  0  0  0  0  0  0  0
    9.2460    1.6900    1.4150 O   0  0  0  0  0  0  0  0  0  0  0  0
  1  2  1  0
  2  3  1  0
  3  4  2  0
  3 31  1  0
  4  5  1  0
  5  6  2  0
  6  7  1  0
  6 30  1  0
  7  8  2  0
  7 29  1  0
  8  9  1  0
  9 10  1  0
  9 24  2  0
 10 11  2  0
 10 23  1  0
 11 12  1  0
 12 13  2  0
 13 14  1  0
 13 23  1  0
 14 15  1  0
 15 16  1  0
 15 22  1  0
 16 17  1  0
 17 18  1  6
 17 19  1  0
 19 20  1  0
 20 21  1  1
 20 22  1  0
 24 25  1  0
 24 28  1  0
 25 26  2  0
 26 27  1  0
 27 28  1  0
 28 29  2  0
 30 31  2  0
 31 32  1  0
 32 33  1  0
 33 34  1  6
 33 35  2  0
 33 36  2  0
M  END
