
     RDKit          3D

 26 27  0  0  0  0  0  0  0  0999 V2000
   -6.6120    1.8720    1.5860 C   0  0  0  0  0  0  0  0  0  0  0  0
   -5.1520    1.5210    1.8300 C   0  0  0  0  0  0  0  0  0  0  0  0
   -4.4900    1.0230    0.5630 C   0  0  0  0  0  0  0  0  0  0  0  0
   -3.1700    0.7250    0.8640 O   0  0  0  0  0  0  0  0  0  0  0  0
   -2.4090    0.1570   -0.5770 P   0  0  0  0  0  0  0  0  0  0  0  0
   -3.5110   -0.1200   -1.8540 O   0  0  0  0  0  0  0  0  0  0  0  0
   -3.7030   -1.4580   -2.1390 C   0  0  0  0  0  0  0  0  0  0  0  0
   -4.6920   -1.5800   -3.2780 C   0  0  0  0  0  0  0  0  0  0  0  0
   -1.3200   -1.1330   -0.3050 O   0  0  0  0  0  0  0  0  0  0  0  0
   -1.2870   -1.5780    1.0010 C   0  0  0  0  0  0  0  0  0  0  0  0
   -0.2700   -2.7210    1.0570 C   0  0  0  0  0  0  0  0  0  0  0  0
    1.0060   -2.3070    0.6730 O   0  0  0  0  0  0  0  0  0  0  0  0
    1.7390   -1.3170    1.3050 C   0  0  0  0  0  0  0  0  0  0  0  0
    1.8880   -1.2770    2.9260 S   0  0  0  0  0  0  0  0  0  0  0  0
    2.3740   -0.3180    0.5290 N   0  0  0  0  0  0  0  0  0  0  0  0
    2.2690   -0.3130   -0.9360 C   0  0  0  0  0  0  0  0  0  0  0  0
    3.6460   -0.5020   -1.5110 C   0  0  0  0  0  0  0  0  0  0  0  0
    4.6040    0.3840   -0.8360 C   0  0  0  0  0  0  0  0  0  0  0  0
    5.8220    0.6530   -1.4950 C   0  0  0  0  0  0  0  0  0  0  0  0
    6.1350    0.1160   -2.7300 O   0  0  0  0  0  0  0  0  0  0  0  0
    6.7620    1.4740   -0.9190 C   0  0  0  0  0  0  0  0  0  0  0  0
    6.5320    2.0490    0.3090 C   0  0  0  0  0  0  0  0  0  0  0  0
    5.3620    1.8030    0.9660 C   0  0  0  0  0  0  0  0  0  0  0  0
    5.1050    2.3700    2.2070 O   0  0  0  0  0  0  0  0  0  0  0  0
    4.3900    0.9550    0.3720 C   0  0  0  0  0  0  0  0  0  0  0  0
    3.1430    0.7270    1.1380 C   0  0  0  0  0  0  0  0  0  0  0  0
  1  2  1  0
  2  3  1  0
  3  4  1  0
  4  5  1  0
  5  6  1  0
  5  9  1  0
  6  7  1  0
  7  8  1  0
  9 10  1  0
 10 11  1  0
 11 12  1  0
 12 13  1  0
 13 14  2  0
 13 15  1  0
 15 16  1  0
 15 26  1  0
 16 17  1  0
 17 18  1  0
 18 19  2  0
 18 25  1  0
 19 20  1  0
 19 21  1  0
 21 22  2  0
 22 23  1  0
 23 24  1  0
 23 25  2  0
 25 26  1  0
M  END
