
     RDKit          3D

 26 28  0  0  0  0  0  0  0  0999 V2000
   -2.1550   -5.0560   -0.8070 C   0  0  0  0  0  0  0  0  0  0  0  0
   -1.0380   -4.0710   -1.0110 C   0  0  0  0  0  0  0  0  0  0  0  0
    0.1540   -4.6250   -1.4320 C   0  0  0  0  0  0  0  0  0  0  0  0
    1.1970   -3.7360   -1.6270 C   0  0  0  0  0  0  0  0  0  0  0  0
    0.9690   -2.3940   -1.3890 C   0  0  0  0  0  0  0  0  0  0  0  0
    2.0510   -0.9400   -1.5240 S   0  0  0  0  0  0  0  0  0  0  0  0
    0.8770    0.2610   -1.0260 C   0  0  0  0  0  0  0  0  0  0  0  0
    1.0700    1.6710   -0.9860 C   0  0  0  0  0  0  0  0  0  0  0  0
    2.2900    2.1510   -1.1880 O   0  0  0  0  0  0  0  0  0  0  0  0
    3.3110    2.1170   -0.3450 C   0  0  0  0  0  0  0  0  0  0  0  0
    3.9150    0.8550    0.1660 C   0  0  0  0  0  0  0  0  0  0  0  0
    5.0700    1.2070    1.1560 C   0  0  0  0  0  0  0  0  0  0  0  0
    6.0270    1.9470    0.4950 O   0  0  0  0  0  0  0  0  0  0  0  0
    6.9750    2.2190    1.3630 O   0  0  0  0  0  0  0  0  0  0  0  0
   -0.2670   -0.5050   -0.7860 C   0  0  0  0  0  0  0  0  0  0  0  0
   -1.4130    0.2390   -0.3530 O   0  0  0  0  0  0  0  0  0  0  0  0
   -1.6520    0.4580    1.0070 C   0  0  0  0  0  0  0  0  0  0  0  0
   -2.9020    1.2600    1.2580 C   0  0  1  0  0  0  0  0  0  0  0  0
   -3.1150    1.4620    2.6070 O   0  0  0  0  0  0  0  0  0  0  0  0
   -2.8460    2.6220    0.5980 C   0  0  0  0  0  0  0  0  0  0  0  0
   -4.3170    2.9960    0.5300 C   0  0  0  0  0  0  0  0  0  0  0  0
   -4.8930    1.7150    0.1090 N   0  0  0  0  0  0  0  0  0  0  0  0
   -4.0940    0.6570    0.6170 C   0  0  0  0  0  0  0  0  0  0  0  0
   -4.3610   -0.5610    0.5310 O   0  0  0  0  0  0  0  0  0  0  0  0
   -0.1890   -1.8230   -0.9750 C   0  0  0  0  0  0  0  0  0  0  0  0
   -1.2590   -2.7460   -0.7770 C   0  0  0  0  0  0  0  0  0  0  0  0
  1  2  1  0
  2  3  2  0
  2 26  1  0
  3  4  1  0
  4  5  2  0
  5  6  1  0
  5 25  1  0
  6  7  1  0
  7  8  1  0
  7 15  2  0
  8  9  1  0
  9 10  1  0
 10 11  1  0
 11 12  1  0
 12 13  1  0
 13 14  1  0
 15 16  1  0
 15 25  1  0
 16 17  1  0
 17 18  1  0
 18 19  1  1
 18 20  1  0
 18 23  1  0
 20 21  1  0
 21 22  1  0
 22 23  1  0
 23 24  2  0
 25 26  2  0
M  END
