
     RDKit          3D

 26 28  0  0  0  0  0  0  0  0999 V2000
   -6.3910   -1.0430   -2.4980 C   0  0  0  0  0  0  0  0  0  0  0  0
   -5.4400   -0.3940   -1.5490 C   0  0  0  0  0  0  0  0  0  0  0  0
   -4.5820    0.5150   -2.1830 O   0  0  0  0  0  0  0  0  0  0  0  0
   -3.5560    1.1610   -0.9170 P   0  0  0  0  0  0  0  0  0  0  0  0
   -4.3480    1.0380    0.5920 O   0  0  0  0  0  0  0  0  0  0  0  0
   -4.2050    2.1840    1.3750 C   0  0  0  0  0  0  0  0  0  0  0  0
   -4.9010    2.0680    2.6950 C   0  0  0  0  0  0  0  0  0  0  0  0
   -1.9190    0.3700   -0.9240 C   0  0  0  0  0  0  0  0  0  0  0  0
   -1.1580    0.1950    0.2090 C   0  0  0  0  0  0  0  0  0  0  0  0
    0.1010   -0.4210    0.1570 C   0  0  0  0  0  0  0  0  0  0  0  0
    0.6340   -0.8780   -1.0240 C   0  0  0  0  0  0  0  0  0  0  0  0
    1.9080   -1.4870   -1.1660 N   0  0  0  0  0  0  0  0  0  0  0  0
    3.0120   -1.3530   -0.3160 C   0  0  0  0  0  0  0  0  0  0  0  0
    3.9710   -2.3710   -0.2960 C   0  0  0  0  0  0  0  0  0  0  0  0
    5.0920   -2.3270    0.4720 C   0  0  0  0  0  0  0  0  0  0  0  0
    5.3080   -1.2340    1.2740 C   0  0  0  0  0  0  0  0  0  0  0  0
    4.4050   -0.1930    1.3050 C   0  0  0  0  0  0  0  0  0  0  0  0
    3.2680   -0.2850    0.4970 C   0  0  0  0  0  0  0  0  0  0  0  0
    4.8500    0.7830    2.1890 O   0  0  0  0  0  0  0  0  0  0  0  0
    6.2400    0.5560    2.3280 C   0  0  2  0  0  0  0  0  0  0  0  0
    7.0370    1.3390    0.9430 S   0  0  1  0  0  0  0  0  0  0  0  0
    6.9680    2.8190    1.1450 O   0  0  0  0  0  0  0  0  0  0  0  0
    8.4250    0.8330    0.7620 O   0  0  0  0  0  0  0  0  0  0  0  0
    6.3220   -0.8570    2.1740 O   0  0  0  0  0  0  0  0  0  0  0  0
   -0.1590   -0.6890   -2.1640 C   0  0  0  0  0  0  0  0  0  0  0  0
   -1.3960   -0.0840   -2.1110 C   0  0  0  0  0  0  0  0  0  0  0  0
  1  2  1  0
  2  3  1  0
  3  4  1  0
  4  5  1  0
  4  8  1  0
  5  6  1  0
  6  7  1  0
  8  9  2  0
  8 26  1  0
  9 10  1  0
 10 11  2  0
 11 12  1  0
 11 25  1  0
 12 13  1  0
 13 14  2  0
 13 18  1  0
 14 15  1  0
 15 16  2  0
 16 17  1  0
 16 24  1  0
 17 18  2  0
 17 19  1  0
 20 19  1  6
 21 20  1  1
 20 24  1  0
 21 22  2  0
 21 23  2  0
 25 26  2  0
M  END
