
     RDKit          3D

 22 25  0  0  0  0  0  0  0  0999 V2000
   -6.2120    0.0750    0.5600 N   0  0  0  0  0  0  0  0  0  0  0  0
   -5.0620   -0.0250   -0.2650 C   0  0  0  0  0  0  0  0  0  0  0  0
   -5.1800   -0.2490   -1.5850 N   0  0  0  0  0  0  0  0  0  0  0  0
   -4.1070   -0.3500   -2.4040 C   0  0  0  0  0  0  0  0  0  0  0  0
   -2.8640   -0.2220   -1.8790 N   0  0  0  0  0  0  0  0  0  0  0  0
   -2.6640    0.0020   -0.5710 C   0  0  0  0  0  0  0  0  0  0  0  0
   -3.7810    0.1010    0.2380 C   0  0  0  0  0  0  0  0  0  0  0  0
   -3.3210    0.3200    1.4660 N   0  0  0  0  0  0  0  0  0  0  0  0
   -1.9710    0.3570    1.4240 C   0  0  0  0  0  0  0  0  0  0  0  0
   -1.5400    0.1620    0.1700 N   0  0  0  0  0  0  0  0  0  0  0  0
   -0.2300    0.1130   -0.3800 C   0  0  2  0  0  0  0  0  0  0  0  0
    0.3300   -1.1880   -0.3400 O   0  0  0  0  0  0  0  0  0  0  0  0
    1.6190   -0.9030   -0.6650 C   0  0  2  0  0  0  0  0  0  0  0  0
    2.6470   -1.9400   -0.5540 C   0  0  0  0  0  0  0  0  0  0  0  0
    3.6590   -1.6210    0.2800 O   0  0  0  0  0  0  0  0  0  0  0  0
    4.3750   -0.1710    0.2290 P   0  0  0  0  0  0  0  0  0  0  0  0
    4.4540    0.7160    1.6950 O   0  0  0  0  0  0  0  0  0  0  0  0
    5.1540    0.3650   -1.0840 O   0  0  0  0  0  0  0  0  0  0  0  0
    3.1330    0.6770   -0.0560 O   0  0  0  0  0  0  0  0  0  0  0  0
    1.9530    0.1330    0.4280 C   0  0  1  0  0  0  0  0  0  0  0  0
    0.7700    0.9810    0.4020 C   0  0  1  0  0  0  0  0  0  0  0  0
    0.9390    2.2120   -0.2280 O   0  0  0  0  0  0  0  0  0  0  0  0
  1  2  1  0
  2  3  2  0
  2  7  1  0
  3  4  1  0
  4  5  2  0
  5  6  1  0
  6  7  2  0
  6 10  1  0
  7  8  1  0
  8  9  2  0
  9 10  1  0
 11 10  1  1
 11 12  1  0
 11 21  1  0
 12 13  1  0
 13 14  1  1
 13 20  1  0
 14 15  1  0
 15 16  1  0
 16 17  1  0
 16 18  1  0
 16 19  1  0
 20 19  1  6
 20 21  1  0
 21 22  1  6
M  END
