
     RDKit          3D

 26 27  0  0  0  0  0  0  0  0999 V2000
    5.9560    0.9870   -0.3690 C   0  0  0  0  0  0  0  0  0  0  0  0
    5.2810   -0.1790   -0.3650 C   0  0  0  0  0  0  0  0  0  0  0  0
    5.9520   -1.3280   -0.9140 C   0  0  0  0  0  0  0  0  0  0  0  0
    5.4000   -2.5080   -0.9630 C   0  0  0  0  0  0  0  0  0  0  0  0
    6.1490   -3.5560   -1.5210 O   0  0  0  0  0  0  0  0  0  0  0  0
    3.9200   -0.1960    0.1950 C   0  0  0  0  0  0  0  0  0  0  0  0
    3.1800   -1.1880    0.2670 O   0  0  0  0  0  0  0  0  0  0  0  0
    3.3660    0.9980    0.7050 O   0  0  0  0  0  0  0  0  0  0  0  0
    2.0780    1.0680    1.2510 C   0  0  0  0  0  0  0  0  0  0  0  0
    1.0780    0.6890    0.2190 C   0  0  0  0  0  0  0  0  0  0  0  0
    1.4600    0.2430   -1.4480 S   0  0  0  0  0  0  0  0  0  0  0  0
   -0.2110   -0.0330   -1.9690 C   0  0  0  0  0  0  0  0  0  0  0  0
   -0.9770    0.2380   -0.8120 C   0  0  0  0  0  0  0  0  0  0  0  0
   -2.4430    0.0600   -0.9210 C   0  0  0  0  0  0  0  0  0  0  0  0
   -3.1890    1.0000   -1.2740 O   0  0  0  0  0  0  0  0  0  0  0  0
   -3.0410   -1.1950   -0.6240 N   0  0  0  0  0  0  0  0  0  0  0  0
   -4.4490   -1.4860   -0.6940 C   0  0  0  0  0  0  0  0  0  0  0  0
   -4.5750   -2.9680   -0.4940 C   0  0  0  0  0  0  0  0  0  0  0  0
   -3.3830   -3.3050    0.3830 C   0  0  0  0  0  0  0  0  0  0  0  0
   -2.3160   -2.3810   -0.2030 C   0  0  0  0  0  0  0  0  0  0  0  0
   -0.2950    0.5990    0.2690 C   0  0  0  0  0  0  0  0  0  0  0  0
   -0.9080    0.9040    1.5150 O   0  0  0  0  0  0  0  0  0  0  0  0
   -1.2430    2.1590    1.9680 C   0  0  0  0  0  0  0  0  0  0  0  0
   -2.1610    2.9880    1.1470 C   0  0  1  0  0  0  0  0  0  0  0  0
   -2.3690    4.3090    1.8900 C   0  0  0  0  0  0  0  0  0  0  0  0
   -1.6460    3.3010   -0.1090 O   0  0  0  0  0  0  0  0  0  0  0  0
  1  2  2  0
  2  3  1  0
  2  6  1  0
  3  4  2  3
  4  5  1  0
  6  7  2  0
  6  8  1  0
  8  9  1  0
  9 10  1  0
 10 11  1  0
 10 21  2  0
 11 12  1  0
 12 13  2  0
 13 14  1  0
 13 21  1  0
 14 15  2  0
 14 16  1  0
 16 17  1  0
 16 20  1  0
 17 18  1  0
 18 19  1  0
 19 20  1  0
 21 22  1  0
 22 23  1  0
 23 24  1  0
 24 25  1  1
 24 26  1  0
M  END
