
     RDKit          3D

 26 27  0  0  0  0  0  0  0  0999 V2000
   -4.9220   -2.8660    1.6460 C   0  0  0  0  0  0  0  0  0  0  0  0
   -4.9400   -2.2090    0.5250 C   0  0  0  0  0  0  0  0  0  0  0  0
   -6.4400   -2.2590   -0.7300 P   0  0  0  0  0  0  0  0  0  0  0  0
   -5.6440   -1.1400   -1.9010 C   0  0  0  0  0  0  0  0  0  0  0  0
   -4.3770   -0.8300   -1.2920 C   0  0  0  0  0  0  0  0  0  0  0  0
   -4.0500   -1.3250   -0.1680 C   0  0  0  0  0  0  0  0  0  0  0  0
   -2.7220   -0.9980    0.4660 C   0  0  0  0  0  0  0  0  0  0  0  0
   -2.4180   -1.4950    1.5730 O   0  0  0  0  0  0  0  0  0  0  0  0
   -1.8050   -0.1670   -0.1130 O   0  0  0  0  0  0  0  0  0  0  0  0
   -0.5790    0.1140    0.5070 C   0  0  0  0  0  0  0  0  0  0  0  0
    0.2540    1.0560   -0.3340 C   0  0  1  0  0  0  0  0  0  0  0  0
   -0.4490    2.3280   -0.5440 C   0  0  0  0  0  0  0  0  0  0  0  0
   -1.5850    2.4900   -0.0410 O   0  0  0  0  0  0  0  0  0  0  0  0
    0.1020    3.3570   -1.2820 O   0  0  0  0  0  0  0  0  0  0  0  0
   -0.6370    4.5560   -1.4410 C   0  0  0  0  0  0  0  0  0  0  0  0
    1.6220    1.2600    0.2300 C   0  0  1  0  0  0  0  0  0  0  0  0
    1.5720    1.8490    1.6330 C   0  0  0  0  0  0  0  0  0  0  0  0
    0.8390    3.0330    1.6530 O   0  0  0  0  0  0  0  0  0  0  0  0
    2.3820    0.0320    0.2090 N   0  0  0  0  0  0  0  0  0  0  0  0
    3.5680   -0.0480   -0.5310 C   0  0  0  0  0  0  0  0  0  0  0  0
    3.9650    0.9480   -1.1750 O   0  0  0  0  0  0  0  0  0  0  0  0
    4.3050   -1.3120   -0.5240 C   0  0  0  0  0  0  0  0  0  0  0  0
    4.0320   -2.5090    0.1160 C   0  0  0  0  0  0  0  0  0  0  0  0
    4.8610   -3.5230   -0.0320 C   0  0  0  0  0  0  0  0  0  0  0  0
    6.0000   -3.4420   -0.8050 C   0  0  0  0  0  0  0  0  0  0  0  0
    5.8200   -1.6720   -1.3710 S   0  0  0  0  0  0  0  0  0  0  0  0
  1  2  2  0
  2  3  1  0
  2  6  1  0
  3  4  2  0
  4  5  1  0
  5  6  2  0
  6  7  1  0
  7  8  2  0
  7  9  1  0
  9 10  1  0
 11 10  1  1
 11 12  1  0
 11 16  1  0
 12 13  2  0
 12 14  1  0
 14 15  1  0
 16 17  1  1
 16 19  1  0
 17 18  1  0
 19 20  1  0
 20 21  2  0
 20 22  1  0
 22 23  2  0
 22 26  1  0
 23 24  1  0
 24 25  2  0
 25 26  1  0
M  END
