
     RDKit          3D

 11 11  0  0  0  0  0  0  0  0999 V2000
    2.8090    0.0390    1.5670 O   0  0  0  0  0  0  0  0  0  0  0  0
    2.5790    0.3240    0.3750 C   0  0  0  0  0  0  0  0  0  0  0  0
    3.0360    1.5440   -0.1670 O   0  0  0  0  0  0  0  0  0  0  0  0
    1.8340   -0.5820   -0.5140 C   0  0  0  0  0  0  0  0  0  0  0  0
    0.3660   -0.4560   -0.2660 C   0  0  0  0  0  0  0  0  0  0  0  0
   -0.3010   -1.3030    0.5720 C   0  0  0  0  0  0  0  0  0  0  0  0
   -1.6550   -1.1040    0.7530 C   0  0  0  0  0  0  0  0  0  0  0  0
   -2.2860   -0.0640    0.0840 C   0  0  0  0  0  0  0  0  0  0  0  0
   -3.6520    0.1430    0.2550 O   0  0  0  0  0  0  0  0  0  0  0  0
   -1.5780    0.7850   -0.7680 C   0  0  0  0  0  0  0  0  0  0  0  0
   -0.2360    0.5980   -0.9550 C   0  0  0  0  0  0  0  0  0  0  0  0
  1  2  2  0
  2  3  1  0
  2  4  1  0
  4  5  1  0
  5  6  2  0
  5 11  1  0
  6  7  1  0
  7  8  2  0
  8  9  1  0
  8 10  1  0
 10 11  2  0
M  END
