
     RDKit          3D

 20 21  0  0  0  0  0  0  0  0999 V2000
    4.2410   -0.2800    1.2400 N   0  0  0  0  0  0  0  0  0  0  0  0
    3.9020    0.2390   -0.0110 C   0  0  0  0  0  0  0  0  0  0  0  0
    2.4480    0.6260   -0.2630 C   0  0  0  0  0  0  0  0  0  0  0  0
    1.6860   -0.6400   -0.1960 C   0  0  0  0  0  0  0  0  0  0  0  0
    0.2320   -0.6060   -0.4650 C   0  0  0  0  0  0  0  0  0  0  0  0
   -0.5840    0.2130    0.4400 C   0  0  1  0  0  0  0  0  0  0  0  0
   -0.2920    1.5900    0.4190 N   0  0  0  0  0  0  0  0  0  0  0  0
   -2.0520   -0.1110    0.1640 C   0  0  2  0  0  0  0  0  0  0  0  0
   -2.1480   -1.5210    0.4240 N   0  0  0  0  0  0  0  0  0  0  0  0
   -3.3640   -2.2210    0.5180 C   0  0  0  0  0  0  0  0  0  0  0  0
   -2.4370   -2.0460    1.7160 C   0  0  0  0  0  0  0  0  0  0  0  0
   -2.4400    0.1490   -1.2540 C   0  0  0  0  0  0  0  0  0  0  0  0
   -3.7550    0.9180   -1.2080 C   0  0  0  0  0  0  0  0  0  0  0  0
   -3.8030    1.5860    0.1370 C   0  0  0  0  0  0  0  0  0  0  0  0
   -2.9350    0.7200    1.0260 C   0  0  0  0  0  0  0  0  0  0  0  0
    4.7190    0.4020   -0.9400 N   0  0  0  0  0  0  0  0  0  0  0  0
    6.0920    0.1110   -0.9330 C   0  0  2  0  0  0  0  0  0  0  0  0
    6.2700   -1.0730   -1.6610 F   0  0  0  0  0  0  0  0  0  0  0  0
    6.5330   -0.0710    0.3510 F   0  0  0  0  0  0  0  0  0  0  0  0
    6.8280    1.1290   -1.5470 F   0  0  0  0  0  0  0  0  0  0  0  0
  1  2  1  0
  2  3  1  0
  2 16  2  3
  3  4  1  0
  4  5  1  0
  5  6  1  0
  6  7  1  6
  6  8  1  0
  8  9  1  1
  8 12  1  0
  8 15  1  0
  9 10  1  0
  9 11  1  0
 10 11  1  0
 12 13  1  0
 13 14  1  0
 14 15  1  0
 16 17  1  0
 17 18  1  6
 17 19  1  0
 17 20  1  0
M  CHG  2   1   1   7   1
M  END
