
     RDKit          3D

 20 20  0  0  0  0  0  0  0  0999 V2000
   -4.1100    1.2810   -0.9560 C   0  0  0  0  0  0  0  0  0  0  0  0
   -3.8120    1.4460    0.3140 C   0  0  0  0  0  0  0  0  0  0  0  0
   -4.7440    1.9690    1.1350 F   0  0  0  0  0  0  0  0  0  0  0  0
   -2.5200    1.0880    0.8450 C   0  0  0  0  0  0  0  0  0  0  0  0
   -2.3040    1.2840    2.1300 C   0  0  0  0  0  0  0  0  0  0  0  0
   -1.1200    0.9790    2.7210 F   0  0  0  0  0  0  0  0  0  0  0  0
   -3.2950    1.8060    2.8840 F   0  0  0  0  0  0  0  0  0  0  0  0
   -1.4540    0.5370    0.0660 N   0  0  0  0  0  0  0  0  0  0  0  0
   -0.5320    1.4680   -0.6120 C   0  0  0  0  0  0  0  0  0  0  0  0
    0.8840    1.1660   -0.1240 C   0  0  0  0  0  0  0  0  0  0  0  0
    1.2290   -0.1700   -0.1310 N   0  0  0  0  0  0  0  0  0  0  0  0
    2.4720   -0.6510   -0.5480 C   0  0  0  0  0  0  0  0  0  0  0  0
    3.6340   -0.3160    0.3390 C   0  0  0  0  0  0  0  0  0  0  0  0
    3.9440    1.1310    0.5050 C   0  0  0  0  0  0  0  0  0  0  0  0
    4.2810    1.7280   -0.7920 N   0  0  0  0  0  0  0  0  0  0  0  0
    0.2670   -1.1450    0.2600 C   0  0  0  0  0  0  0  0  0  0  0  0
   -1.1630   -0.8410   -0.1270 C   0  0  2  0  0  0  0  0  0  0  0  0
   -1.4020   -1.2120   -1.5750 C   0  0  0  0  0  0  0  0  0  0  0  0
   -2.0430   -1.7600    0.7040 C   0  0  0  0  0  0  0  0  0  0  0  0
   -1.6940   -3.1440    0.4580 N   0  0  0  0  0  0  0  0  0  0  0  0
  1  2  2  0
  2  3  1  0
  2  4  1  0
  4  5  2  3
  4  8  1  0
  5  6  1  0
  5  7  1  0
  8  9  1  0
  8 17  1  0
  9 10  1  0
 10 11  1  0
 11 12  1  0
 11 16  1  0
 12 13  1  0
 13 14  1  0
 14 15  1  0
 16 17  1  0
 17 18  1  6
 17 19  1  0
 19 20  1  0
M  CHG  2  15   1  20   1
M  END
