
     RDKit          3D

 20 21  0  0  0  0  0  0  0  0999 V2000
   -0.4260   -2.8610   -0.8640 N   0  0  0  0  0  0  0  0  0  0  0  0
    0.1900   -1.6100   -0.5290 C   0  0  0  0  0  0  0  0  0  0  0  0
    1.4070   -1.2950   -0.9430 C   0  0  0  0  0  0  0  0  0  0  0  0
    1.7380    0.0420   -0.4290 C   0  0  1  0  0  0  0  0  0  0  0  0
    2.3620    0.8970   -1.3940 N   0  0  0  0  0  0  0  0  0  0  0  0
    3.6120    0.4420   -1.8850 C   0  0  0  0  0  0  0  0  0  0  0  0
    4.7010    0.2550   -0.8930 C   0  0  0  0  0  0  0  0  0  0  0  0
    5.0820    1.5110   -0.1460 C   0  0  2  0  0  0  0  0  0  0  0  0
    3.9900    1.9920    0.5480 F   0  0  0  0  0  0  0  0  0  0  0  0
    5.5750    2.4810   -0.9850 F   0  0  0  0  0  0  0  0  0  0  0  0
    6.0620    1.2580    0.7940 F   0  0  0  0  0  0  0  0  0  0  0  0
    0.3130    0.6160   -0.2200 C   0  0  0  0  0  0  0  0  0  0  0  0
   -0.3940   -0.5900    0.2500 N   0  0  0  0  0  0  0  0  0  0  0  0
   -1.3870   -0.5950    1.2640 C   0  0  2  0  0  0  0  0  0  0  0  0
   -1.9330   -2.0020    1.5550 C   0  0  0  0  0  0  0  0  0  0  0  0
   -3.2250   -1.6270    2.2700 C   0  0  0  0  0  0  0  0  0  0  0  0
   -3.8130   -0.6170    1.2650 C   0  0  0  0  0  0  0  0  0  0  0  0
   -2.5720    0.2730    1.0890 C   0  0  2  0  0  0  0  0  0  0  0  0
   -2.6550    1.1010   -0.1400 C   0  0  0  0  0  0  0  0  0  0  0  0
   -3.9200    1.8530   -0.0960 N   0  0  0  0  0  0  0  0  0  0  0  0
  1  2  1  0
  2  3  2  0
  2 13  1  0
  3  4  1  0
  4  5  1  6
  4 12  1  0
  5  6  1  0
  6  7  1  0
  7  8  1  0
  8  9  1  1
  8 10  1  0
  8 11  1  0
 12 13  1  0
 14 13  1  6
 14 15  1  0
 14 18  1  0
 15 16  1  0
 16 17  1  0
 17 18  1  0
 18 19  1  6
 19 20  1  0
M  CHG  2   5   1  20   1
M  END
