
     RDKit          3D

 20 21  0  0  0  0  0  0  0  0999 V2000
    0.8360   -2.8320   -0.4640 C   0  0  0  0  0  0  0  0  0  0  0  0
    1.8210   -2.0000   -0.4770 C   0  0  0  0  0  0  0  0  0  0  0  0
    1.9710   -0.6090   -0.4050 C   0  0  0  0  0  0  0  0  0  0  0  0
    3.2740   -0.1820   -0.4580 C   0  0  0  0  0  0  0  0  0  0  0  0
    4.3670   -1.1350   -0.5750 C   0  0  1  0  0  0  0  0  0  0  0  0
    5.5510   -0.3540   -0.5590 F   0  0  0  0  0  0  0  0  0  0  0  0
    4.4920   -1.9540    0.5390 F   0  0  0  0  0  0  0  0  0  0  0  0
    4.4150   -1.8520   -1.7460 F   0  0  0  0  0  0  0  0  0  0  0  0
    1.0280    0.4740   -0.2720 C   0  0  0  0  0  0  0  0  0  0  0  0
   -0.2800    0.5300   -0.1990 C   0  0  0  0  0  0  0  0  0  0  0  0
   -1.2460   -0.4960   -0.2260 N   0  0  0  0  0  0  0  0  0  0  0  0
   -1.9510   -0.9370    0.9670 C   0  0  0  0  0  0  0  0  0  0  0  0
   -2.9610   -1.9760    0.6090 C   0  0  0  0  0  0  0  0  0  0  0  0
   -3.6900   -2.4380    1.7910 N   0  0  0  0  0  0  0  0  0  0  0  0
   -0.7430    1.9320   -0.0860 C   0  0  0  0  0  0  0  0  0  0  0  0
   -1.6370    2.7740    0.2940 C   0  0  0  0  0  0  0  0  0  0  0  0
   -1.2160    4.1190   -0.0330 N   0  0  0  0  0  0  0  0  0  0  0  0
    0.2490    4.0650   -0.2100 C   0  0  0  0  0  0  0  0  0  0  0  0
    0.4050    2.6910   -0.7510 C   0  0  1  0  0  0  0  0  0  0  0  0
    1.4590    1.8900   -0.1430 N   0  0  0  0  0  0  0  0  0  0  0  0
  1  2  2  0
  2  3  1  0
  3  4  2  3
  3  9  1  0
  4  5  1  0
  5  6  1  6
  5  7  1  0
  5  8  1  0
  9 10  2  0
  9 20  1  0
 10 11  1  0
 10 15  1  0
 11 12  1  0
 12 13  1  0
 13 14  1  0
 15 16  2  0
 15 19  1  0
 16 17  1  0
 17 18  1  0
 19 18  1  1
 19 20  1  0
M  CHG  1  14   1
M  END
