
     RDKit          3D

 19 20  0  0  0  0  0  0  0  0999 V2000
   -3.5190   -0.8220    0.1570 C   0  0  0  0  0  0  0  0  0  0  0  0
   -2.1340   -1.2100   -0.1190 N   0  0  2  0  0  0  0  0  0  0  0  0
   -1.8790   -2.4420    0.5500 C   0  0  0  0  0  0  0  0  0  0  0  0
   -1.2160   -0.1410    0.3040 C   0  0  1  0  0  0  0  0  0  0  0  0
    0.0740   -0.6740    0.8200 C   0  0  0  0  0  0  0  0  0  0  0  0
    1.2900    0.0340    0.4000 C   0  0  0  0  0  0  0  0  0  0  0  0
    1.6680    1.3080    0.2330 C   0  0  0  0  0  0  0  0  0  0  0  0
    1.0710    2.6600    0.3810 C   0  0  0  0  0  0  0  0  0  0  0  0
   -0.3370    2.5440    0.8560 C   0  0  0  0  0  0  0  0  0  0  0  0
   -1.2050    2.2790   -0.3450 C   0  0  0  0  0  0  0  0  0  0  0  0
   -1.1250    0.8410   -0.8100 C   0  0  2  0  0  0  0  0  0  0  0  0
   -2.2200    0.6570   -1.7520 N   0  0  0  0  0  0  0  0  0  0  0  0
    3.0240    1.3440   -0.2100 N   0  0  0  0  0  0  0  0  0  0  0  0
    3.3600    0.0430   -0.7100 C   0  0  2  0  0  0  0  0  0  0  0  0
    4.6750   -0.2990   -0.4780 F   0  0  0  0  0  0  0  0  0  0  0  0
    3.0270   -0.0620   -2.0450 F   0  0  0  0  0  0  0  0  0  0  0  0
    2.4230   -0.8170    0.0680 C   0  0  0  0  0  0  0  0  0  0  0  0
    2.6120   -2.1100    0.3860 C   0  0  0  0  0  0  0  0  0  0  0  0
    3.7880   -2.7960   -0.0230 N   0  0  0  0  0  0  0  0  0  0  0  0
  2  1  1  1
  2  3  1  0
  2  4  1  0
  4  5  1  6
  4 11  1  0
  5  6  1  0
  6  7  2  0
  6 17  1  0
  7  8  1  0
  7 13  1  0
  8  9  1  0
  9 10  1  0
 10 11  1  0
 11 12  1  6
 13 14  1  0
 14 15  1  6
 14 16  1  0
 14 17  1  0
 17 18  2  3
 18 19  1  0
M  CHG  1   2   1
M  END
