
     RDKit          3D

 20 21  0  0  0  0  0  0  0  0999 V2000
   -5.0280   -0.7880    0.2380 C   0  0  0  0  0  0  0  0  0  0  0  0
   -3.9750    0.1270   -0.3790 C   0  0  2  0  0  0  0  0  0  0  0  0
   -2.8820   -0.6690   -1.0470 C   0  0  0  0  0  0  0  0  0  0  0  0
   -1.7460   -0.8940   -0.0440 C   0  0  0  0  0  0  0  0  0  0  0  0
   -1.0760    0.3410    0.1160 N   0  0  0  0  0  0  0  0  0  0  0  0
    0.2340    0.3750    0.6020 C   0  0  1  0  0  0  0  0  0  0  0  0
    1.1250   -0.3240   -0.3890 C   0  0  1  0  0  0  0  0  0  0  0  0
    1.0200    0.3640   -1.7110 N   0  0  0  0  0  0  0  0  0  0  0  0
    2.5580   -0.3430   -0.1180 C   0  0  0  0  0  0  0  0  0  0  0  0
    3.1640   -1.4710    0.2990 C   0  0  0  0  0  0  0  0  0  0  0  0
    4.5850   -1.5940    0.5950 C   0  0  0  0  0  0  0  0  0  0  0  0
    5.3440   -0.4010    0.4620 N   0  0  0  0  0  0  0  0  0  0  0  0
    4.6560    0.6990    0.0340 N   0  0  0  0  0  0  0  0  0  0  0  0
    3.4230    0.8200   -0.2480 C   0  0  0  0  0  0  0  0  0  0  0  0
    0.7090    1.6520    1.1730 C   0  0  1  0  0  0  0  0  0  0  0  0
    0.7280    2.7260    0.3370 F   0  0  0  0  0  0  0  0  0  0  0  0
   -0.1210    1.9520    2.3050 F   0  0  0  0  0  0  0  0  0  0  0  0
    1.9390    1.5570    1.7850 F   0  0  0  0  0  0  0  0  0  0  0  0
   -1.9660    1.4040    0.2140 C   0  0  0  0  0  0  0  0  0  0  0  0
   -3.3630    0.9600    0.7040 C   0  0  0  0  0  0  0  0  0  0  0  0
  2  1  1  1
  2  3  1  0
  2 20  1  0
  3  4  1  0
  4  5  1  0
  6  5  1  6
  5 19  1  0
  6  7  1  0
  6 15  1  0
  7  8  1  6
  7  9  1  0
  9 10  2  0
  9 14  1  0
 10 11  1  0
 11 12  1  0
 12 13  1  0
 13 14  2  0
 15 16  1  6
 15 17  1  0
 15 18  1  0
 19 20  1  0
M  CHG  2   8   1  12   1
M  END
