
     RDKit          3D

 20 21  0  0  0  0  0  0  0  0999 V2000
    3.9940   -1.0510    0.9150 N   0  0  0  0  0  0  0  0  0  0  0  0
    3.6390   -0.5300   -0.3830 C   0  0  0  0  0  0  0  0  0  0  0  0
    2.1550   -0.4650   -0.5250 C   0  0  2  0  0  0  0  0  0  0  0  0
    1.7000    0.0670   -1.8530 C   0  0  0  0  0  0  0  0  0  0  0  0
    0.7190   -0.9140   -2.4700 C   0  0  0  0  0  0  0  0  0  0  0  0
   -0.4190   -1.1170   -1.5400 C   0  0  0  0  0  0  0  0  0  0  0  0
   -0.7160   -0.5910   -0.3390 C   0  0  0  0  0  0  0  0  0  0  0  0
   -1.9290   -1.0320    0.2880 C   0  0  0  0  0  0  0  0  0  0  0  0
   -2.4030   -0.7000    1.4550 C   0  0  0  0  0  0  0  0  0  0  0  0
   -3.6620   -1.3620    1.7220 N   0  0  0  0  0  0  0  0  0  0  0  0
   -3.7650   -2.4050    0.7920 N   0  0  0  0  0  0  0  0  0  0  0  0
   -2.9160   -1.9840   -0.3060 C   0  0  0  0  0  0  0  0  0  0  0  0
    0.0860    0.4050    0.3110 N   0  0  0  0  0  0  0  0  0  0  0  0
   -0.6310    1.5460    0.7770 C   0  0  0  0  0  0  0  0  0  0  0  0
   -0.2140    2.8260    0.0000 C   0  0  0  0  0  0  0  0  0  0  0  0
   -1.0760    3.9220    0.6070 C   0  0  1  0  0  0  0  0  0  0  0  0
   -0.7940    5.1340   -0.0100 F   0  0  0  0  0  0  0  0  0  0  0  0
   -2.4040    3.6310    0.3650 F   0  0  0  0  0  0  0  0  0  0  0  0
   -0.8370    4.0560    1.9490 F   0  0  0  0  0  0  0  0  0  0  0  0
    1.5170    0.4060    0.5550 C   0  0  0  0  0  0  0  0  0  0  0  0
  1  2  1  0
  3  2  1  6
  3  4  1  0
  3 20  1  0
  4  5  1  0
  5  6  1  0
  6  7  2  0
  7  8  1  0
  7 13  1  0
  8  9  2  0
  8 12  1  0
  9 10  1  0
 10 11  1  0
 11 12  1  0
 13 14  1  0
 13 20  1  0
 14 15  1  0
 15 16  1  0
 16 17  1  6
 16 18  1  0
 16 19  1  0
M  CHG  2   1   1  11   1
M  END
