
     RDKit          3D

 37 41  0  0  0  0  0  0  0  0999 V2000
   -9.3210   -0.0940    2.3810 C   0  0  0  0  0  0  0  0  0  0  0  0
   -9.4900   -0.3720    0.9480 N   0  0  2  0  0  0  0  0  0  0  0  0
   -8.8820   -1.5920    0.5520 C   0  0  0  0  0  0  0  0  0  0  0  0
   -7.4900   -1.5410    0.1270 C   0  0  0  0  0  0  0  0  0  0  0  0
   -6.8850   -0.4080   -0.1890 C   0  0  0  0  0  0  0  0  0  0  0  0
   -5.4540   -0.4200   -0.6160 C   0  0  0  0  0  0  0  0  0  0  0  0
   -4.9070    0.9020   -0.8230 C   0  0  0  0  0  0  0  0  0  0  0  0
   -3.5970    1.0760   -1.1770 O   0  0  0  0  0  0  0  0  0  0  0  0
   -2.4050    0.7220   -0.6560 C   0  0  0  0  0  0  0  0  0  0  0  0
   -2.1800    0.0360    0.5200 C   0  0  0  0  0  0  0  0  0  0  0  0
   -0.8960   -0.2690    0.9570 C   0  0  0  0  0  0  0  0  0  0  0  0
    0.2090    0.1010    0.2360 C   0  0  0  0  0  0  0  0  0  0  0  0
    1.6020   -0.2130    0.6720 C   0  0  0  0  0  0  0  0  0  0  0  0
    2.5410    0.2110   -0.2970 O   0  0  0  0  0  0  0  0  0  0  0  0
    3.8860    0.0270   -0.1190 C   0  0  0  0  0  0  0  0  0  0  0  0
    4.7990    0.4490   -1.0830 C   0  0  0  0  0  0  0  0  0  0  0  0
    6.1440    0.2500   -0.8740 C   0  0  0  0  0  0  0  0  0  0  0  0
    6.6450   -0.3530    0.2550 C   0  0  0  0  0  0  0  0  0  0  0  0
    8.0700   -0.5670    0.4720 C   0  0  0  0  0  0  0  0  0  0  0  0
    8.8890   -0.7970   -0.6090 C   0  0  0  0  0  0  0  0  0  0  0  0
   10.2520   -1.0080   -0.4580 C   0  0  0  0  0  0  0  0  0  0  0  0
   10.8340   -0.9950    0.7890 C   0  0  0  0  0  0  0  0  0  0  0  0
   12.5710   -1.2650    0.9720 S   0  0  1  0  0  0  0  0  0  0  0  0
   12.7230   -2.7250    1.3530 O   0  0  0  0  0  0  0  0  0  0  0  0
   13.3090   -1.0150   -0.3010 O   0  0  0  0  0  0  0  0  0  0  0  0
   10.0380   -0.7670    1.8800 C   0  0  0  0  0  0  0  0  0  0  0  0
    8.6640   -0.5550    1.7170 C   0  0  0  0  0  0  0  0  0  0  0  0
    5.7200   -0.7620    1.1940 C   0  0  0  0  0  0  0  0  0  0  0  0
    4.3660   -0.5810    1.0220 C   0  0  0  0  0  0  0  0  0  0  0  0
    0.0040    0.7930   -0.9490 C   0  0  0  0  0  0  0  0  0  0  0  0
   -1.2470    1.0960   -1.3870 C   0  0  0  0  0  0  0  0  0  0  0  0
   -1.4330    1.8440   -2.6630 C   0  0  0  0  0  0  0  0  0  0  0  0
   -0.2180    2.1310   -3.2680 O   0  0  0  0  0  0  0  0  0  0  0  0
   -5.6630    2.0170   -0.6810 C   0  0  0  0  0  0  0  0  0  0  0  0
   -7.0290    2.0000   -0.3200 C   0  0  0  0  0  0  0  0  0  0  0  0
   -7.6350    0.8230   -0.0850 C   0  0  0  0  0  0  0  0  0  0  0  0
   -9.0630    0.7850    0.2520 C   0  0  0  0  0  0  0  0  0  0  0  0
  2  1  1  1
  2  3  1  0
  2 37  1  0
  3  4  1  0
  4  5  2  0
  5  6  1  0
  5 36  1  0
  6  7  1  0
  7  8  1  0
  7 34  2  0
  8  9  1  0
  9 10  2  0
  9 31  1  0
 10 11  1  0
 11 12  2  0
 12 13  1  0
 12 30  1  0
 13 14  1  0
 14 15  1  0
 15 16  2  0
 15 29  1  0
 16 17  1  0
 17 18  2  0
 18 19  1  0
 18 28  1  0
 19 20  2  0
 19 27  1  0
 20 21  1  0
 21 22  2  0
 23 22  1  6
 22 26  1  0
 23 24  2  0
 23 25  2  0
 26 27  2  0
 28 29  2  0
 30 31  2  0
 31 32  1  0
 32 33  1  0
 34 35  1  0
 35 36  2  0
 36 37  1  0
M  CHG  1   2   1
M  END
