
     RDKit          3D

 37 41  0  0  0  0  0  0  0  0999 V2000
    8.9530    3.3440   -0.1390 C   0  0  0  0  0  0  0  0  0  0  0  0
    8.9710    2.1390   -1.0320 C   0  0  0  0  0  0  0  0  0  0  0  0
    7.8820    1.2050   -0.7090 C   0  0  0  0  0  0  0  0  0  0  0  0
    6.6540    1.3450   -1.3450 C   0  0  0  0  0  0  0  0  0  0  0  0
    5.6600    0.4690   -1.0310 C   0  0  0  0  0  0  0  0  0  0  0  0
    5.7860   -0.5560   -0.1170 C   0  0  0  0  0  0  0  0  0  0  0  0
    4.7040   -1.4790    0.2000 C   0  0  0  0  0  0  0  0  0  0  0  0
    4.9200   -2.7900    0.5700 C   0  0  0  0  0  0  0  0  0  0  0  0
    3.8700   -3.6500    0.8680 C   0  0  0  0  0  0  0  0  0  0  0  0
    2.5640   -3.1820    0.7920 C   0  0  0  0  0  0  0  0  0  0  0  0
    1.4800   -3.9970    1.0780 O   0  0  0  0  0  0  0  0  0  0  0  0
    1.7410   -5.3350    1.4540 C   0  0  0  0  0  0  0  0  0  0  0  0
    2.3310   -1.8760    0.4230 C   0  0  0  0  0  0  0  0  0  0  0  0
    1.0180   -1.4410    0.3570 O   0  0  0  0  0  0  0  0  0  0  0  0
    0.3100   -1.5570   -0.8340 C   0  0  0  0  0  0  0  0  0  0  0  0
    0.9030   -2.0600   -1.8150 O   0  0  0  0  0  0  0  0  0  0  0  0
   -1.0880   -1.1080   -0.9480 C   0  0  0  0  0  0  0  0  0  0  0  0
   -1.6540   -0.4310    0.6410 S   0  0  0  0  0  0  0  0  0  0  0  0
   -3.3570    0.0900    0.4170 C   0  0  0  0  0  0  0  0  0  0  0  0
   -3.6890    1.3570    0.0070 C   0  0  0  0  0  0  0  0  0  0  0  0
   -5.0080    1.7860   -0.1730 C   0  0  0  0  0  0  0  0  0  0  0  0
   -5.9490    0.7690    0.1150 C   0  0  0  0  0  0  0  0  0  0  0  0
   -5.6560   -0.4750    0.5150 C   0  0  0  0  0  0  0  0  0  0  0  0
   -6.6900   -1.3450    0.7460 C   0  0  0  0  0  0  0  0  0  0  0  0
   -6.3750   -2.6180    1.1540 C   0  0  0  0  0  0  0  0  0  0  0  0
   -5.0330   -2.9330    1.3020 C   0  0  0  0  0  0  0  0  0  0  0  0
   -4.7250   -4.0990    1.6780 O   0  0  0  0  0  0  0  0  0  0  0  0
   -4.0830   -2.0610    1.0650 O   0  0  0  0  0  0  0  0  0  0  0  0
   -4.3330   -0.8270    0.6710 C   0  0  0  0  0  0  0  0  0  0  0  0
   -7.4590    1.0530    0.0210 C   0  0  0  0  0  0  0  0  0  0  0  0
   -7.5920    2.4680   -0.0890 C   0  0  0  0  0  0  0  0  0  0  0  0
   -7.4080    3.8230   -0.2170 C   0  0  0  0  0  0  0  0  0  0  0  0
   -5.9440    4.1460   -0.0660 N   0  0  0  0  0  0  0  0  0  0  0  0
   -5.0950    3.1700   -0.6390 C   0  0  0  0  0  0  0  0  0  0  0  0
    3.3920   -1.0240    0.1280 C   0  0  0  0  0  0  0  0  0  0  0  0
    7.0060   -0.6900    0.5110 C   0  0  0  0  0  0  0  0  0  0  0  0
    8.0420    0.1960    0.2050 C   0  0  0  0  0  0  0  0  0  0  0  0
  1  2  1  0
  2  3  1  0
  3  4  2  0
  3 37  1  0
  4  5  1  0
  5  6  2  0
  6  7  1  0
  6 36  1  0
  7  8  2  0
  7 35  1  0
  8  9  1  0
  9 10  2  0
 10 11  1  0
 10 13  1  0
 11 12  1  0
 13 14  1  0
 13 35  2  0
 14 15  1  0
 15 16  2  0
 15 17  1  0
 17 18  1  0
 18 19  1  0
 19 20  2  0
 19 29  1  0
 20 21  1  0
 21 22  2  0
 21 34  1  0
 22 23  1  0
 22 30  1  0
 23 24  1  0
 23 29  2  0
 24 25  2  0
 25 26  1  0
 26 27  2  0
 26 28  1  0
 28 29  1  0
 30 31  1  0
 31 32  1  0
 32 33  1  0
 33 34  1  0
 36 37  2  0
M  CHG  1  33   1
M  END
