
     RDKit          3D

 37 41  0  0  0  0  0  0  0  0999 V2000
   11.0350    0.1590    0.4720 C   0  0  0  0  0  0  0  0  0  0  0  0
    9.8010    0.2150   -0.0090 C   0  0  0  0  0  0  0  0  0  0  0  0
    8.7730   -0.7250    0.4160 C   0  0  0  0  0  0  0  0  0  0  0  0
    7.5400   -0.7040   -0.0370 C   0  0  0  0  0  0  0  0  0  0  0  0
    7.1610    0.3230   -1.0320 C   0  0  0  0  0  0  0  0  0  0  0  0
    5.9320   -0.2170   -1.7760 C   0  0  0  0  0  0  0  0  0  0  0  0
    4.8500   -0.3020   -0.7010 C   0  0  0  0  0  0  0  0  0  0  0  0
    5.2280   -1.0560    0.3880 C   0  0  0  0  0  0  0  0  0  0  0  0
    3.8460   -0.9840    1.4190 S   0  0  0  0  0  0  0  0  0  0  0  0
    2.8130    0.0310    0.3940 C   0  0  0  0  0  0  0  0  0  0  0  0
    1.4600    0.4790    0.6910 C   0  0  0  0  0  0  0  0  0  0  0  0
    0.9480    0.1230    1.7800 O   0  0  0  0  0  0  0  0  0  0  0  0
    0.7110    1.2520   -0.1220 O   0  0  0  0  0  0  0  0  0  0  0  0
   -0.5330    1.7910   -0.1190 C   0  0  0  0  0  0  0  0  0  0  0  0
   -1.7490    0.9250   -0.2120 C   0  0  0  0  0  0  0  0  0  0  0  0
   -1.8740    0.0170    0.8460 N   0  0  0  0  0  0  0  0  0  0  0  0
   -3.2090   -0.5260    1.0410 C   0  0  1  0  0  0  0  0  0  0  0  0
   -4.2630    0.4710    0.9560 C   0  0  0  0  0  0  0  0  0  0  0  0
   -5.4180    0.2240    0.2600 C   0  0  0  0  0  0  0  0  0  0  0  0
   -6.4420    1.1830    0.1710 C   0  0  0  0  0  0  0  0  0  0  0  0
   -6.3060    2.4060    0.7890 C   0  0  0  0  0  0  0  0  0  0  0  0
   -5.1520    2.6710    1.4930 C   0  0  0  0  0  0  0  0  0  0  0  0
   -4.1700    1.7210    1.5650 C   0  0  0  0  0  0  0  0  0  0  0  0
   -4.9370    3.8830    2.1460 O   0  0  0  0  0  0  0  0  0  0  0  0
   -5.9330    4.8430    2.0730 C   0  0  0  0  0  0  0  0  0  0  0  0
   -5.9350    5.8240    2.8550 O   0  0  0  0  0  0  0  0  0  0  0  0
   -7.0230    4.7360    1.0660 C   0  0  0  0  0  0  0  0  0  0  0  0
   -7.2770    3.3830    0.7360 O   0  0  0  0  0  0  0  0  0  0  0  0
   -3.5020   -1.7230    0.2290 C   0  0  1  0  0  0  0  0  0  0  0  0
   -3.4290   -1.5650   -1.2560 C   0  0  0  0  0  0  0  0  0  0  0  0
   -4.2820   -2.6850   -1.8670 C   0  0  0  0  0  0  0  0  0  0  0  0
   -4.4100   -3.8300   -0.9160 C   0  0  0  0  0  0  0  0  0  0  0  0
   -3.1550   -4.1110   -0.1460 C   0  0  0  0  0  0  0  0  0  0  0  0
   -2.6160   -2.9150    0.6030 C   0  0  0  0  0  0  0  0  0  0  0  0
    3.6310    0.2470   -0.6970 C   0  0  0  0  0  0  0  0  0  0  0  0
    3.0750    1.1090   -1.8390 C   0  0  0  0  0  0  0  0  0  0  0  0
    6.5740   -1.7050    0.4650 C   0  0  0  0  0  0  0  0  0  0  0  0
  1  2  2  0
  2  3  1  0
  3  4  2  3
  4  5  1  0
  4 37  1  0
  5  6  1  0
  6  7  1  0
  7  8  2  0
  7 35  1  0
  8  9  1  0
  8 37  1  0
  9 10  1  0
 10 11  1  0
 10 35  2  0
 11 12  2  0
 11 13  1  0
 13 14  1  0
 14 15  1  0
 15 16  1  0
 17 16  1  6
 17 18  1  0
 17 29  1  0
 18 19  2  0
 18 23  1  0
 19 20  1  0
 20 21  2  0
 21 22  1  0
 21 28  1  0
 22 23  2  0
 22 24  1  0
 24 25  1  0
 25 26  2  0
 25 27  1  0
 27 28  1  0
 29 30  1  6
 29 34  1  0
 30 31  1  0
 31 32  1  0
 32 33  1  0
 33 34  1  0
 35 36  1  0
M  CHG  1  16   1
M  END
