
     RDKit          3D

 37 41  0  0  0  0  0  0  0  0999 V2000
    4.8580    1.2620   -3.6020 C   0  0  0  0  0  0  0  0  0  0  0  0
    4.7600    1.2160   -2.1230 C   0  0  0  0  0  0  0  0  0  0  0  0
    3.6140    0.8850   -1.5550 C   0  0  0  0  0  0  0  0  0  0  0  0
    2.5150    0.5860   -2.4410 N   0  0  0  0  0  0  0  0  0  0  0  0
    1.2920    0.3140   -2.1770 C   0  0  0  0  0  0  0  0  0  0  0  0
    0.6050    0.2160   -0.9040 C   0  0  0  0  0  0  0  0  0  0  0  0
   -0.7580   -0.0490   -0.9050 O   0  0  0  0  0  0  0  0  0  0  0  0
   -1.7320    0.9030   -0.9520 C   0  0  0  0  0  0  0  0  0  0  0  0
   -1.4350    2.1150   -1.0000 O   0  0  0  0  0  0  0  0  0  0  0  0
   -3.1750    0.5780   -0.9490 C   0  0  0  0  0  0  0  0  0  0  0  0
   -3.8150   -0.5730   -0.9060 C   0  0  0  0  0  0  0  0  0  0  0  0
   -5.1730   -0.5890   -0.9150 C   0  0  0  0  0  0  0  0  0  0  0  0
   -5.7980    0.6190   -0.9700 C   0  0  0  0  0  0  0  0  0  0  0  0
   -4.4840    1.7710   -1.0080 S   0  0  0  0  0  0  0  0  0  0  0  0
   -7.2990    0.7690   -0.9870 C   0  0  0  0  0  0  0  0  0  0  0  0
   -7.7920   -0.1550    0.0580 C   0  0  0  0  0  0  0  0  0  0  0  0
   -8.7780    0.2690    0.9070 C   0  0  0  0  0  0  0  0  0  0  0  0
   -9.2130   -0.6360    1.8800 C   0  0  0  0  0  0  0  0  0  0  0  0
   -8.6400   -1.8940    1.9420 C   0  0  0  0  0  0  0  0  0  0  0  0
   -7.6410   -2.2820    1.0610 C   0  0  0  0  0  0  0  0  0  0  0  0
   -7.2100   -1.4000    0.1040 C   0  0  0  0  0  0  0  0  0  0  0  0
   -6.1290   -1.7810   -0.8740 C   0  0  0  0  0  0  0  0  0  0  0  0
    1.1240    0.3500    0.3220 C   0  0  0  0  0  0  0  0  0  0  0  0
    0.2220    0.2030    1.3440 O   0  0  0  0  0  0  0  0  0  0  0  0
   -0.2790    1.1800    2.1950 C   0  0  0  0  0  0  0  0  0  0  0  0
    0.7980    1.8850    3.0190 C   0  0  0  0  0  0  0  0  0  0  0  0
    2.5350    0.6330    0.6670 C   0  0  0  0  0  0  0  0  0  0  0  0
    3.5920    0.8590   -0.0970 C   0  0  0  0  0  0  0  0  0  0  0  0
    4.7820    1.0930    0.5760 O   0  0  0  0  0  0  0  0  0  0  0  0
    5.8180    0.2070    0.6490 C   0  0  0  0  0  0  0  0  0  0  0  0
    5.7500   -1.0140    0.0420 C   0  0  0  0  0  0  0  0  0  0  0  0
    6.8230   -1.8910    0.1370 C   0  0  0  0  0  0  0  0  0  0  0  0
    7.9690   -1.5350    0.8470 C   0  0  0  0  0  0  0  0  0  0  0  0
    9.0850   -2.4520    0.9440 C   0  0  0  0  0  0  0  0  0  0  0  0
    9.0400   -3.5730    0.3950 O   0  0  0  0  0  0  0  0  0  0  0  0
    8.0220   -0.3140    1.4470 C   0  0  0  0  0  0  0  0  0  0  0  0
    6.9500    0.5610    1.3510 C   0  0  0  0  0  0  0  0  0  0  0  0
  1  2  1  0
  2  3  2  3
  3  4  1  0
  3 28  1  0
  4  5  2  0
  5  6  1  0
  6  7  1  0
  6 23  2  0
  7  8  1  0
  8  9  2  0
  8 10  1  0
 10 11  2  0
 10 14  1  0
 11 12  1  0
 12 13  2  0
 12 22  1  0
 13 14  1  0
 13 15  1  0
 15 16  1  0
 16 17  2  0
 16 21  1  0
 17 18  1  0
 18 19  2  0
 19 20  1  0
 20 21  2  0
 21 22  1  0
 23 24  1  0
 23 27  1  0
 24 25  1  0
 25 26  1  0
 27 28  2  0
 28 29  1  0
 29 30  1  0
 30 31  2  0
 30 37  1  0
 31 32  1  0
 32 33  2  0
 33 34  1  0
 33 36  1  0
 34 35  2  0
 36 37  2  0
M  CHG  1   4   1
M  END
