
     RDKit          3D

 37 41  0  0  0  0  0  0  0  0999 V2000
   -6.1480   -0.2710   -4.2050 O   0  0  0  0  0  0  0  0  0  0  0  0
   -6.6910   -0.5080   -3.1130 C   0  0  0  0  0  0  0  0  0  0  0  0
   -5.9400   -0.3380   -1.8860 C   0  0  0  0  0  0  0  0  0  0  0  0
   -4.6100    0.0740   -1.9090 C   0  0  0  0  0  0  0  0  0  0  0  0
   -3.8560    0.2540   -0.7480 C   0  0  0  0  0  0  0  0  0  0  0  0
   -2.4180    0.6130   -0.8140 C   0  0  1  0  0  0  0  0  0  0  0  0
   -1.4530   -0.5010   -0.7700 C   0  0  0  0  0  0  0  0  0  0  0  0
   -1.3990   -1.4010    0.4150 C   0  0  0  0  0  0  0  0  0  0  0  0
   -0.3460   -2.4430    0.1630 C   0  0  0  0  0  0  0  0  0  0  0  0
   -0.4200   -3.1310   -0.9120 O   0  0  0  0  0  0  0  0  0  0  0  0
    0.7510   -2.7210    1.0570 C   0  0  0  0  0  0  0  0  0  0  0  0
    1.0010   -2.1170    2.1890 C   0  0  0  0  0  0  0  0  0  0  0  0
    2.3760   -2.5300    3.2130 S   0  0  0  0  0  0  0  0  0  0  0  0
    3.7990   -3.0950    2.2760 C   0  0  0  0  0  0  0  0  0  0  0  0
    4.4030   -2.0690    1.4010 C   0  0  0  0  0  0  0  0  0  0  0  0
    4.0420   -2.0080    0.0800 C   0  0  0  0  0  0  0  0  0  0  0  0
    4.6170   -1.0300   -0.7350 C   0  0  0  0  0  0  0  0  0  0  0  0
    5.5210   -0.1730   -0.1680 C   0  0  0  0  0  0  0  0  0  0  0  0
    5.8980   -0.2200    1.1680 C   0  0  0  0  0  0  0  0  0  0  0  0
    5.3300   -1.1770    1.9470 C   0  0  0  0  0  0  0  0  0  0  0  0
    6.7940    0.5890    1.8480 O   0  0  0  0  0  0  0  0  0  0  0  0
    7.9140    1.2560    1.3120 C   0  0  0  0  0  0  0  0  0  0  0  0
    7.4400    2.1800    0.2140 C   0  0  0  0  0  0  0  0  0  0  0  0
    7.2760    1.4000   -1.0820 C   0  0  0  0  0  0  0  0  0  0  0  0
    6.0130    0.7490   -1.0960 O   0  0  0  0  0  0  0  0  0  0  0  0
   -2.1600    1.1890   -2.2740 C   0  0  0  0  0  0  0  0  0  0  0  0
   -2.9220    2.3710   -2.3700 N   0  0  0  0  0  0  0  0  0  0  0  0
   -2.0800    3.4310   -1.7730 C   0  0  0  0  0  0  0  0  0  0  0  0
   -1.4480    2.7380   -0.5610 C   0  0  0  0  0  0  0  0  0  0  0  0
   -2.1940    1.7230   -0.0600 O   0  0  0  0  0  0  0  0  0  0  0  0
   -4.5260   -0.0020    0.4250 C   0  0  0  0  0  0  0  0  0  0  0  0
   -3.8980    0.1760    1.6330 C   0  0  0  0  0  0  0  0  0  0  0  0
   -4.5360   -0.0440    2.8490 C   0  0  0  0  0  0  0  0  0  0  0  0
   -5.8460   -0.4540    2.8410 C   0  0  0  0  0  0  0  0  0  0  0  0
   -6.5000   -0.6380    1.6470 C   0  0  0  0  0  0  0  0  0  0  0  0
   -5.8380   -0.4100    0.4710 C   0  0  0  0  0  0  0  0  0  0  0  0
   -6.5480   -0.5800   -0.6870 C   0  0  0  0  0  0  0  0  0  0  0  0
  1  2  2  0
  2  3  1  0
  3  4  2  0
  3 37  1  0
  4  5  1  0
  5  6  1  0
  5 31  2  0
  6  7  1  1
  6 26  1  0
  6 30  1  0
  7  8  1  0
  8  9  1  0
  9 10  2  0
  9 11  1  0
 11 12  2  3
 12 13  1  0
 13 14  1  0
 14 15  1  0
 15 16  2  0
 15 20  1  0
 16 17  1  0
 17 18  2  0
 18 19  1  0
 18 25  1  0
 19 20  2  0
 19 21  1  0
 21 22  1  0
 22 23  1  0
 23 24  1  0
 24 25  1  0
 26 27  1  0
 27 28  1  0
 28 29  1  0
 29 30  1  0
 31 32  1  0
 31 36  1  0
 32 33  2  0
 33 34  1  0
 34 35  2  0
 35 36  1  0
 36 37  2  0
M  CHG  1  27   1
M  END
