
     RDKit          3D

 37 41  0  0  0  0  0  0  0  0999 V2000
    4.3570    3.6910    4.4140 C   0  0  0  0  0  0  0  0  0  0  0  0
    4.1270    2.7340    3.3810 O   0  0  0  0  0  0  0  0  0  0  0  0
    2.8750    2.4720    2.8720 C   0  0  0  0  0  0  0  0  0  0  0  0
    1.9000    3.1220    3.3590 O   0  0  0  0  0  0  0  0  0  0  0  0
    2.6250    1.4990    1.8180 C   0  0  0  0  0  0  0  0  0  0  0  0
    3.6250    0.7580    1.2380 C   0  0  0  0  0  0  0  0  0  0  0  0
    3.4070   -0.1570    0.2430 C   0  0  0  0  0  0  0  0  0  0  0  0
    4.4310   -0.9040   -0.3350 O   0  0  0  0  0  0  0  0  0  0  0  0
    5.3030   -0.3210   -1.2440 C   0  0  0  0  0  0  0  0  0  0  0  0
    5.1150    0.9040   -1.5080 O   0  0  0  0  0  0  0  0  0  0  0  0
    6.3770   -1.0800   -1.8600 C   0  0  0  0  0  0  0  0  0  0  0  0
    6.6790   -2.4120   -1.6960 C   0  0  0  0  0  0  0  0  0  0  0  0
    7.7730   -2.6910   -2.4810 C   0  0  0  0  0  0  0  0  0  0  0  0
    8.1230   -1.5860   -3.0950 O   0  0  0  0  0  0  0  0  0  0  0  0
    7.3060   -0.6000   -2.7450 C   0  0  0  0  0  0  0  0  0  0  0  0
    7.4280    0.7890   -3.2610 C   0  0  0  0  0  0  0  0  0  0  0  0
    2.1090   -0.3490   -0.2080 C   0  0  0  0  0  0  0  0  0  0  0  0
    1.8780   -1.2630   -1.1980 C   0  0  0  0  0  0  0  0  0  0  0  0
    0.5970   -1.4500   -1.6300 C   0  0  0  0  0  0  0  0  0  0  0  0
   -0.4630   -0.7160   -1.0680 C   0  0  0  0  0  0  0  0  0  0  0  0
   -0.2610    0.2010   -0.0810 C   0  0  0  0  0  0  0  0  0  0  0  0
   -1.2640    1.0150    0.5830 C   0  0  0  0  0  0  0  0  0  0  0  0
   -2.6510    0.8130    0.1020 N   0  0  0  0  0  0  0  0  0  0  0  0
   -3.2810   -0.1760    0.8780 C   0  0  1  0  0  0  0  0  0  0  0  0
   -3.0660   -0.0880    2.3770 C   0  0  0  0  0  0  0  0  0  0  0  0
   -4.5240   -0.8250    0.5020 C   0  0  0  0  0  0  0  0  0  0  0  0
   -4.9050   -1.8970    1.3660 C   0  0  0  0  0  0  0  0  0  0  0  0
   -5.9630   -2.7080    1.1390 C   0  0  0  0  0  0  0  0  0  0  0  0
   -6.7230   -2.4980    0.0120 C   0  0  0  0  0  0  0  0  0  0  0  0
   -6.3890   -1.4770   -0.8440 C   0  0  0  0  0  0  0  0  0  0  0  0
   -5.2880   -0.6240   -0.6130 C   0  0  0  0  0  0  0  0  0  0  0  0
   -5.1100    0.4410   -1.5570 C   0  0  0  0  0  0  0  0  0  0  0  0
   -6.3230    1.4260   -1.5570 C   0  0  0  0  0  0  0  0  0  0  0  0
   -7.6960    0.4480   -2.2710 S   0  0  0  0  0  0  0  0  0  0  0  0
   -7.2060   -1.2780   -2.0410 C   0  0  0  0  0  0  0  0  0  0  0  0
    1.0600    0.3730    0.3440 C   0  0  0  0  0  0  0  0  0  0  0  0
    1.3400    1.2830    1.3470 C   0  0  0  0  0  0  0  0  0  0  0  0
  1  2  1  0
  2  3  1  0
  3  4  2  0
  3  5  1  0
  5  6  2  0
  5 37  1  0
  6  7  1  0
  7  8  1  0
  7 17  2  0
  8  9  1  0
  9 10  2  0
  9 11  1  0
 11 12  1  0
 11 15  2  0
 12 13  2  0
 13 14  1  0
 14 15  1  0
 15 16  1  0
 17 18  1  0
 17 36  1  0
 18 19  2  0
 19 20  1  0
 20 21  2  0
 21 22  1  0
 21 36  1  0
 22 23  1  0
 23 24  1  0
 24 25  1  1
 24 26  1  0
 26 27  2  0
 26 31  1  0
 27 28  1  0
 28 29  2  0
 29 30  1  0
 30 31  2  0
 30 35  1  0
 31 32  1  0
 32 33  1  0
 33 34  1  0
 34 35  1  0
 36 37  2  0
M  CHG  1  23   1
M  END
