
     RDKit          3D

 36 40  0  0  0  0  0  0  0  0999 V2000
    1.5800    4.5030   -2.5800 C   0  0  0  0  0  0  0  0  0  0  0  0
    1.3300    3.8960   -1.2400 C   0  0  0  0  0  0  0  0  0  0  0  0
    1.8210    4.7640   -0.0910 C   0  0  0  0  0  0  0  0  0  0  0  0
    1.4600    3.8910    1.4720 S   0  0  0  0  0  0  0  0  0  0  0  0
    0.8550    2.2460    1.1270 C   0  0  0  0  0  0  0  0  0  0  0  0
    1.7630    1.2610    1.0070 N   0  0  0  0  0  0  0  0  0  0  0  0
    1.3770   -0.0020    0.7540 C   0  0  0  0  0  0  0  0  0  0  0  0
    2.2560   -1.0850    0.6160 N   0  0  0  0  0  0  0  0  0  0  0  0
    3.7020   -1.0180    0.7180 C   0  0  2  0  0  0  0  0  0  0  0  0
    4.3580   -0.1280   -0.2910 C   0  0  0  0  0  0  0  0  0  0  0  0
    4.4620   -1.6460   -0.3910 C   0  0  1  0  0  0  0  0  0  0  0  0
    5.8290   -2.1570   -0.1830 C   0  0  0  0  0  0  0  0  0  0  0  0
    6.7260   -1.6080    0.6920 C   0  0  0  0  0  0  0  0  0  0  0  0
    8.0060   -2.1310    0.8580 C   0  0  0  0  0  0  0  0  0  0  0  0
    8.3710   -3.2440    0.1060 C   0  0  0  0  0  0  0  0  0  0  0  0
    9.6160   -3.8050    0.2280 F   0  0  0  0  0  0  0  0  0  0  0  0
    7.4910   -3.8140   -0.7790 C   0  0  0  0  0  0  0  0  0  0  0  0
    7.8920   -4.9120   -1.5010 F   0  0  0  0  0  0  0  0  0  0  0  0
    6.2430   -3.2740   -0.9150 C   0  0  0  0  0  0  0  0  0  0  0  0
    0.0090   -0.2170    0.6270 C   0  0  0  0  0  0  0  0  0  0  0  0
   -0.6800   -1.3510    0.3780 N   0  0  0  0  0  0  0  0  0  0  0  0
   -1.9730   -1.0480    0.3510 N   0  0  0  0  0  0  0  0  0  0  0  0
   -2.1380    0.2420    0.5740 N   0  0  0  0  0  0  0  0  0  0  0  0
   -3.4430    0.9050    0.6210 C   0  0  2  0  0  0  0  0  0  0  0  0
   -4.3420    0.2560    1.6180 C   0  0  0  0  0  0  0  0  0  0  0  0
   -5.3330   -0.5180    0.7700 C   0  0  2  0  0  0  0  0  0  0  0  0
   -4.9350   -1.7580    0.4480 O   0  0  0  0  0  0  0  0  0  0  0  0
   -5.6570   -2.8510    0.7500 C   0  0  0  0  0  0  0  0  0  0  0  0
   -6.9810   -2.8740    0.0380 C   0  0  0  0  0  0  0  0  0  0  0  0
   -7.7860   -1.8050    0.3390 O   0  0  0  0  0  0  0  0  0  0  0  0
   -5.5310    0.3980   -0.4340 C   0  0  1  0  0  0  0  0  0  0  0  0
   -6.2680    1.5360   -0.0370 O   0  0  0  0  0  0  0  0  0  0  0  0
   -4.1300    0.8700   -0.6990 C   0  0  1  0  0  0  0  0  0  0  0  0
   -4.1220    2.1240   -1.3290 O   0  0  0  0  0  0  0  0  0  0  0  0
   -0.9200    0.7760    0.7470 C   0  0  0  0  0  0  0  0  0  0  0  0
   -0.4850    2.0210    1.0000 N   0  0  0  0  0  0  0  0  0  0  0  0
  1  2  1  0
  2  3  1  0
  3  4  1  0
  4  5  1  0
  5  6  2  0
  5 36  1  0
  6  7  1  0
  7  8  1  0
  7 20  2  0
  9  8  1  6
  9 10  1  0
  9 11  1  0
 10 11  1  0
 11 12  1  1
 12 13  2  0
 12 19  1  0
 13 14  1  0
 14 15  2  0
 15 16  1  0
 15 17  1  0
 17 18  1  0
 17 19  2  0
 20 21  1  0
 20 35  1  0
 21 22  2  0
 22 23  1  0
 24 23  1  6
 23 35  1  0
 24 25  1  0
 24 33  1  0
 25 26  1  0
 26 27  1  6
 26 31  1  0
 27 28  1  0
 28 29  1  0
 29 30  1  0
 31 32  1  1
 31 33  1  0
 33 34  1  1
 35 36  2  0
M  END
