
     RDKit          3D

 37 41  0  0  0  0  0  0  0  0999 V2000
   -4.2480    5.4540   -1.8650 O   0  0  0  0  0  0  0  0  0  0  0  0
   -4.0850    4.3300   -1.4220 C   0  0  0  0  0  0  0  0  0  0  0  0
   -3.2210    4.1340   -0.2250 C   0  0  0  0  0  0  0  0  0  0  0  0
   -3.2120    2.7410    0.0690 O   0  0  0  0  0  0  0  0  0  0  0  0
   -4.3580    2.0310    0.3700 C   0  0  0  0  0  0  0  0  0  0  0  0
   -5.4350    2.6800    0.3730 O   0  0  0  0  0  0  0  0  0  0  0  0
   -4.4170    0.6160    0.6780 C   0  0  0  0  0  0  0  0  0  0  0  0
   -5.6140   -0.0080    0.9510 C   0  0  0  0  0  0  0  0  0  0  0  0
   -5.6980   -1.3570    1.2440 C   0  0  0  0  0  0  0  0  0  0  0  0
   -6.8960   -1.9830    1.5170 C   0  0  0  0  0  0  0  0  0  0  0  0
   -6.9680   -3.3310    1.8080 C   0  0  0  0  0  0  0  0  0  0  0  0
   -5.8090   -4.0900    1.8310 C   0  0  0  0  0  0  0  0  0  0  0  0
   -4.5950   -3.4680    1.5570 C   0  0  0  0  0  0  0  0  0  0  0  0
   -4.5500   -2.1210    1.2690 C   0  0  0  0  0  0  0  0  0  0  0  0
   -3.3410   -1.5240    1.0000 C   0  0  0  0  0  0  0  0  0  0  0  0
   -3.2830   -0.1570    0.7060 C   0  0  0  0  0  0  0  0  0  0  0  0
   -1.9710    0.4410    0.4290 C   0  0  0  0  0  0  0  0  0  0  0  0
   -0.8520   -0.5760    0.4620 C   0  0  0  0  0  0  0  0  0  0  0  0
    0.3590    0.0980    0.1840 O   0  0  0  0  0  0  0  0  0  0  0  0
    1.5850   -0.5930    0.1460 C   0  0  0  0  0  0  0  0  0  0  0  0
    1.6760   -1.9370    0.3710 C   0  0  0  0  0  0  0  0  0  0  0  0
    2.8900   -2.6150    0.3320 C   0  0  0  0  0  0  0  0  0  0  0  0
    4.0450   -1.9320    0.0600 C   0  0  0  0  0  0  0  0  0  0  0  0
    3.9650   -0.5710   -0.1700 C   0  0  0  0  0  0  0  0  0  0  0  0
    2.7410    0.1000   -0.1280 C   0  0  0  0  0  0  0  0  0  0  0  0
    2.6380    1.4640   -0.3560 O   0  0  0  0  0  0  0  0  0  0  0  0
    3.7940    2.2290   -0.6420 C   0  0  0  0  0  0  0  0  0  0  0  0
    3.4020    3.6520   -0.8420 C   0  0  0  0  0  0  0  0  0  0  0  0
    3.5610    4.4110   -1.9030 C   0  0  0  0  0  0  0  0  0  0  0  0
    3.0260    5.7660   -1.6730 C   0  0  0  0  0  0  0  0  0  0  0  0
    2.5250    5.6570   -0.2760 C   0  0  0  0  0  0  0  0  0  0  0  0
    2.7470    4.4450    0.1840 C   0  0  0  0  0  0  0  0  0  0  0  0
    5.4600   -2.3840   -0.0460 C   0  0  0  0  0  0  0  0  0  0  0  0
    5.5270   -3.8240   -0.1560 N   0  0  0  0  0  0  0  0  0  0  0  0
    4.8730   -4.3250   -1.3400 C   0  0  0  0  0  0  0  0  0  0  0  0
    3.2480   -4.9740   -0.8620 S   0  0  0  0  0  0  0  0  0  0  0  0
    2.7070   -4.0630    0.6110 C   0  0  0  0  0  0  0  0  0  0  0  0
  1  2  2  0
  2  3  1  0
  3  4  1  0
  4  5  1  0
  5  6  2  0
  5  7  1  0
  7  8  2  0
  7 16  1  0
  8  9  1  0
  9 10  2  0
  9 14  1  0
 10 11  1  0
 11 12  2  0
 12 13  1  0
 13 14  2  0
 14 15  1  0
 15 16  2  0
 16 17  1  0
 17 18  1  0
 18 19  1  0
 19 20  1  0
 20 21  2  0
 20 25  1  0
 21 22  1  0
 22 23  2  0
 22 37  1  0
 23 24  1  0
 23 33  1  0
 24 25  2  0
 25 26  1  0
 26 27  1  0
 27 28  1  0
 28 29  2  0
 28 32  1  0
 29 30  1  0
 30 31  1  0
 31 32  2  0
 33 34  1  0
 34 35  1  0
 35 36  1  0
 36 37  1  0
M  CHG  1  34   1
M  END
