
     RDKit          3D

 30 32  0  0  0  0  0  0  0  0999 V2000
    6.3550   -1.2250    1.1820 C   0  0  0  0  0  0  0  0  0  0  0  0
    6.6560   -0.3860   -0.0580 C   0  0  0  0  0  0  0  0  0  0  0  0
    7.8760   -0.1830   -0.5120 C   0  0  0  0  0  0  0  0  0  0  0  0
    9.4190   -0.7550    0.1080 Cl  0  0  0  0  0  0  0  0  0  0  0  0
    7.7180    0.8100   -1.9980 S   0  0  0  0  0  0  0  0  0  0  0  0
    5.9390    0.3220   -2.2840 C   0  0  0  0  0  0  0  0  0  0  0  0
    5.5910    0.2770   -0.8180 C   0  0  1  0  0  0  0  0  0  0  0  0
    4.2710   -0.1740   -0.5420 N   0  0  2  0  0  0  0  0  0  0  0  0
    3.8040   -1.2220   -1.4140 C   0  0  0  0  0  0  0  0  0  0  0  0
    3.3660    0.9430   -0.4210 C   0  0  0  0  0  0  0  0  0  0  0  0
    2.4240    1.1110   -1.5890 C   0  0  0  0  0  0  0  0  0  0  0  0
    1.5870    2.1840   -1.4440 O   0  0  0  0  0  0  0  0  0  0  0  0
    0.7620    2.2050   -0.3630 C   0  0  0  0  0  0  0  0  0  0  0  0
   -0.2420    1.1050   -0.2480 C   0  0  2  0  0  0  0  0  0  0  0  0
   -0.9820    1.3240    1.0800 C   0  0  0  0  0  0  0  0  0  0  0  0
   -2.3270    0.7650    0.8290 N   0  0  0  0  0  0  0  0  0  0  0  0
   -2.9800    0.5080    2.1070 C   0  0  0  0  0  0  0  0  0  0  0  0
   -4.4100    0.2480    1.8570 C   0  0  0  0  0  0  0  0  0  0  0  0
   -5.1320   -0.0270    2.8590 O   0  0  0  0  0  0  0  0  0  0  0  0
   -4.9670    0.3060    0.5680 N   0  0  0  0  0  0  0  0  0  0  0  0
   -6.3800    0.0710    0.3330 C   0  0  0  0  0  0  0  0  0  0  0  0
   -7.0750    1.0310   -0.2260 C   0  0  0  0  0  0  0  0  0  0  0  0
   -8.7970    0.8330   -0.5510 S   0  0  0  0  0  0  0  0  0  0  0  0
   -9.3460   -0.7630    0.0360 C   0  0  0  0  0  0  0  0  0  0  0  0
   -8.2310   -1.5330    0.6040 C   0  0  0  0  0  0  0  0  0  0  0  0
   -6.9840   -1.1690    0.7250 C   0  0  0  0  0  0  0  0  0  0  0  0
   -6.1650   -2.1400    1.3140 F   0  0  0  0  0  0  0  0  0  0  0  0
   -2.1260   -0.5100    0.1140 C   0  0  0  0  0  0  0  0  0  0  0  0
   -0.7120   -1.0120    0.3340 C   0  0  0  0  0  0  0  0  0  0  0  0
    0.2600   -0.1720   -0.1800 O   0  0  0  0  0  0  0  0  0  0  0  0
  1  2  1  0
  2  3  2  0
  2  7  1  0
  3  4  1  0
  3  5  1  0
  5  6  1  0
  7  6  1  6
  7  8  1  0
  8  9  1  6
  8 10  1  0
 10 11  1  0
 11 12  1  0
 12 13  1  0
 14 13  1  1
 14 15  1  0
 14 30  1  0
 15 16  1  0
 16 17  1  0
 16 28  1  0
 17 18  1  0
 18 19  2  0
 18 20  1  0
 20 21  1  0
 21 22  2  0
 21 26  1  0
 22 23  1  0
 23 24  1  0
 24 25  1  0
 25 26  2  0
 26 27  1  0
 28 29  1  0
 29 30  1  0
M  CHG  1   8   1
M  END
