
     RDKit          3D

 30 32  0  0  0  0  0  0  0  0999 V2000
   -6.1140    1.3000    2.1970 C   0  0  0  0  0  0  0  0  0  0  0  0
   -4.8660    0.9960    1.8980 C   0  0  0  0  0  0  0  0  0  0  0  0
   -3.9390    2.0550    1.8220 O   0  0  0  0  0  0  0  0  0  0  0  0
   -2.6770    1.9110    1.1740 C   0  0  0  0  0  0  0  0  0  0  0  0
   -2.8780    1.3350   -0.1670 C   0  0  0  0  0  0  0  0  0  0  0  0
   -3.3610    0.0430   -0.3630 N   0  0  1  0  0  0  0  0  0  0  0  0
   -2.7210   -0.6860   -1.4730 C   0  0  1  0  0  0  0  0  0  0  0  0
   -2.8390    0.1310   -2.7190 C   0  0  0  0  0  0  0  0  0  0  0  0
   -1.6690   -0.2310   -3.6480 C   0  0  0  0  0  0  0  0  0  0  0  0
   -0.4420    0.3200   -2.9640 C   0  0  0  0  0  0  0  0  0  0  0  0
   -0.3740   -0.2480   -1.6370 N   0  0  0  0  0  0  0  0  0  0  0  0
    0.7130    0.1650   -0.8190 C   0  0  0  0  0  0  0  0  0  0  0  0
    1.8290    1.2240   -1.3410 S   0  0  0  0  0  0  0  0  0  0  0  0
    0.8620   -0.4930    0.8280 S   0  0  0  0  0  0  0  0  0  0  0  0
    2.3210    0.1700    1.6760 C   0  0  0  0  0  0  0  0  0  0  0  0
    3.5820   -0.2970    1.0240 C   0  0  0  0  0  0  0  0  0  0  0  0
    4.1090   -1.3720    1.4230 O   0  0  0  0  0  0  0  0  0  0  0  0
    4.2000    0.3990   -0.0000 O   0  0  0  0  0  0  0  0  0  0  0  0
    5.3820    0.0040   -0.6430 C   0  0  0  0  0  0  0  0  0  0  0  0
    6.5250   -0.0990    0.2710 C   0  0  0  0  0  0  0  0  0  0  0  0
    6.5630    0.2470    1.5990 C   0  0  0  0  0  0  0  0  0  0  0  0
    7.8340   -0.0110    2.0880 C   0  0  0  0  0  0  0  0  0  0  0  0
    8.5400   -0.5030    1.0650 N   0  0  0  0  0  0  0  0  0  0  0  0
    7.7770   -0.5680   -0.0450 C   0  0  0  0  0  0  0  0  0  0  0  0
   -1.3670   -1.1940   -1.1830 C   0  0  0  0  0  0  0  0  0  0  0  0
   -3.5170   -0.8690    0.7070 C   0  0  0  0  0  0  0  0  0  0  0  0
   -4.5890   -0.4220    1.6790 C   0  0  0  0  0  0  0  0  0  0  0  0
   -5.2320   -1.3240    2.3400 C   0  0  0  0  0  0  0  0  0  0  0  0
   -6.1700   -1.0670    3.2510 F   0  0  0  0  0  0  0  0  0  0  0  0
   -4.8620   -3.0020    2.0200 Cl  0  0  0  0  0  0  0  0  0  0  0  0
  1  2  2  0
  2  3  1  0
  2 27  1  0
  3  4  1  0
  4  5  1  0
  6  5  1  1
  6  7  1  0
  6 26  1  0
  7  8  1  6
  7 25  1  0
  8  9  1  0
  9 10  1  0
 10 11  1  0
 11 12  1  0
 11 25  1  0
 12 13  2  0
 12 14  1  0
 14 15  1  0
 15 16  1  0
 16 17  2  0
 16 18  1  0
 18 19  1  0
 19 20  1  0
 20 21  1  0
 20 24  2  0
 21 22  2  0
 22 23  1  0
 23 24  1  0
 26 27  1  0
 27 28  2  3
 28 29  1  0
 28 30  1  0
M  CHG  1   6   1
M  END
