
     RDKit          3D

 29 33  0  0  0  0  0  0  0  0999 V2000
   -7.2190   -0.2500   -1.2380 C   0  0  0  0  0  0  0  0  0  0  0  0
   -5.8220   -0.1510   -0.8570 N   0  0  1  0  0  0  0  0  0  0  0  0
   -5.7450    0.6870    0.3050 C   0  0  0  0  0  0  0  0  0  0  0  0
   -4.8770    0.0050    1.3510 C   0  0  0  0  0  0  0  0  0  0  0  0
   -3.6850   -0.4190    0.6650 N   0  0  0  0  0  0  0  0  0  0  0  0
   -2.4200    0.1880    0.8510 C   0  0  0  0  0  0  0  0  0  0  0  0
   -2.2220    1.3270    1.5690 C   0  0  0  0  0  0  0  0  0  0  0  0
   -0.9700    1.8790    1.7290 C   0  0  0  0  0  0  0  0  0  0  0  0
    0.1170    1.2480    1.1380 C   0  0  0  0  0  0  0  0  0  0  0  0
    1.4290    1.5310    1.1120 N   0  0  0  0  0  0  0  0  0  0  0  0
    2.1170    0.6020    0.3890 C   0  0  0  0  0  0  0  0  0  0  0  0
    3.5740    0.6310    0.1720 C   0  0  0  0  0  0  0  0  0  0  0  0
    4.2490   -0.3060   -0.5540 C   0  0  0  0  0  0  0  0  0  0  0  0
    3.5610   -1.3820   -1.1510 N   0  0  0  0  0  0  0  0  0  0  0  0
    5.6220   -0.2010   -0.7070 C   0  0  0  0  0  0  0  0  0  0  0  0
    6.2730   -1.1740   -1.4530 C   0  0  0  0  0  0  0  0  0  0  0  0
    5.5600   -2.1840   -2.0020 F   0  0  0  0  0  0  0  0  0  0  0  0
    7.6380   -1.0510   -1.5930 C   0  0  0  0  0  0  0  0  0  0  0  0
    8.3620   -0.0200   -1.0310 C   0  0  0  0  0  0  0  0  0  0  0  0
    7.6910    0.9310   -0.2960 C   0  0  0  0  0  0  0  0  0  0  0  0
    6.3270    0.8340   -0.1400 C   0  0  0  0  0  0  0  0  0  0  0  0
    5.6600    1.7630    0.5800 N   0  0  0  0  0  0  0  0  0  0  0  0
    4.3310    1.6550    0.7240 C   0  0  0  0  0  0  0  0  0  0  0  0
    3.7210    2.5230    1.3940 O   0  0  0  0  0  0  0  0  0  0  0  0
    1.1940   -0.2640   -0.0310 N   0  0  0  0  0  0  0  0  0  0  0  0
   -0.0360    0.0930    0.4030 C   0  0  0  0  0  0  0  0  0  0  0  0
   -1.3020   -0.4260    0.2660 C   0  0  0  0  0  0  0  0  0  0  0  0
   -3.8750   -1.5380   -0.2670 C   0  0  0  0  0  0  0  0  0  0  0  0
   -5.3430   -1.5000   -0.6550 C   0  0  0  0  0  0  0  0  0  0  0  0
  2  1  1  1
  2  3  1  0
  2 29  1  0
  3  4  1  0
  4  5  1  0
  5  6  1  0
  5 28  1  0
  6  7  2  0
  6 27  1  0
  7  8  1  0
  8  9  2  0
  9 10  1  0
  9 26  1  0
 10 11  2  0
 11 12  1  0
 11 25  1  0
 12 13  2  0
 12 23  1  0
 13 14  1  0
 13 15  1  0
 15 16  2  0
 15 21  1  0
 16 17  1  0
 16 18  1  0
 18 19  2  0
 19 20  1  0
 20 21  2  0
 21 22  1  0
 22 23  1  0
 23 24  2  0
 25 26  1  0
 26 27  2  0
 28 29  1  0
M  CHG  1   2   1
M  END
