
     RDKit          3D

 30 32  0  0  0  0  0  0  0  0999 V2000
   -4.6010   -4.6700    0.5170 C   0  0  0  0  0  0  0  0  0  0  0  0
   -3.1180   -4.5250    0.7370 C   0  0  0  0  0  0  0  0  0  0  0  0
   -2.3550   -3.9640   -0.8020 S   0  0  0  0  0  0  0  0  0  0  0  0
   -2.8980   -2.3240   -1.2010 C   0  0  0  0  0  0  0  0  0  0  0  0
   -3.9690   -2.0300   -1.9390 N   0  0  0  0  0  0  0  0  0  0  0  0
   -4.1010   -0.7200   -2.0520 C   0  0  0  0  0  0  0  0  0  0  0  0
   -3.0630   -0.1740   -1.3520 N   0  0  0  0  0  0  0  0  0  0  0  0
   -2.2940   -1.1200   -0.8100 C   0  0  0  0  0  0  0  0  0  0  0  0
   -1.1040   -1.0370    0.0040 C   0  0  0  0  0  0  0  0  0  0  0  0
   -0.6280   -2.2070    0.3450 O   0  0  0  0  0  0  0  0  0  0  0  0
   -0.3610    0.0310    0.4990 N   0  0  0  0  0  0  0  0  0  0  0  0
    0.8230   -0.3820    1.3100 C   0  0  0  0  0  0  0  0  0  0  0  0
    2.0040   -0.5210    0.4110 C   0  0  0  0  0  0  0  0  0  0  0  0
    1.9470   -0.3230   -0.8130 O   0  0  0  0  0  0  0  0  0  0  0  0
    3.1720   -0.8760    0.9560 O   0  0  0  0  0  0  0  0  0  0  0  0
    4.4100   -1.0800    0.4030 C   0  0  0  0  0  0  0  0  0  0  0  0
    4.9230   -1.0190   -0.7850 C   0  0  0  0  0  0  0  0  0  0  0  0
    4.0700   -0.5980   -2.2700 Cl  0  0  0  0  0  0  0  0  0  0  0  0
    6.3680   -1.3670   -0.6980 C   0  0  0  0  0  0  0  0  0  0  0  0
    6.6100   -1.6380    0.7260 C   0  0  0  0  0  0  0  0  0  0  0  0
    7.8250   -2.0010    1.2650 F   0  0  0  0  0  0  0  0  0  0  0  0
    5.4980   -1.4760    1.3610 C   0  0  0  0  0  0  0  0  0  0  0  0
    5.3600   -1.6670    2.8390 C   0  0  0  0  0  0  0  0  0  0  0  0
   -0.5580    1.4400    0.3480 C   0  0  2  0  0  0  0  0  0  0  0  0
   -1.7790    1.9360    0.9550 C   0  0  0  0  0  0  0  0  0  0  0  0
   -2.3570    3.1190    0.3080 C   0  0  0  0  0  0  0  0  0  0  0  0
   -1.3680    3.3590   -1.1580 S   0  0  1  0  0  0  0  0  0  0  0  0
   -0.3250    4.8100   -1.0530 C   0  0  0  0  0  0  0  0  0  0  0  0
   -1.1030    6.0700   -0.8680 C   0  0  0  0  0  0  0  0  0  0  0  0
   -0.3970    1.8500   -1.0540 C   0  0  0  0  0  0  0  0  0  0  0  0
  1  2  1  0
  2  3  1  0
  3  4  1  0
  4  5  1  0
  4  8  2  0
  5  6  1  0
  6  7  2  0
  7  8  1  0
  8  9  1  0
  9 10  2  0
  9 11  1  0
 11 12  1  0
 24 11  1  6
 12 13  1  0
 13 14  2  0
 13 15  1  0
 15 16  1  0
 16 17  2  0
 16 22  1  0
 17 18  1  0
 17 19  1  0
 19 20  1  0
 20 21  1  0
 20 22  2  0
 22 23  1  0
 24 25  1  0
 24 30  1  0
 25 26  1  0
 26 27  1  0
 27 28  1  1
 27 30  1  0
 28 29  1  0
M  CHG  1   7   1
M  END
