
     RDKit          3D

 30 32  0  0  0  0  0  0  0  0999 V2000
    6.8300   -0.7010    1.1030 C   0  0  0  0  0  0  0  0  0  0  0  0
    6.4150    0.6260    0.5110 C   0  0  0  0  0  0  0  0  0  0  0  0
    5.0640    0.4600   -0.1270 C   0  0  0  0  0  0  0  0  0  0  0  0
    3.9220   -0.0570    1.1600 S   0  0  1  0  0  0  0  0  0  0  0  0
    4.3590   -1.3580    1.7470 O   0  0  0  0  0  0  0  0  0  0  0  0
    3.8690    1.0150    2.2140 O   0  0  0  0  0  0  0  0  0  0  0  0
    2.4010   -0.2470    0.4580 N   0  0  0  0  0  0  0  0  0  0  0  0
    1.6370   -1.4330    0.4440 C   0  0  0  0  0  0  0  0  0  0  0  0
    2.1650   -2.5370    0.6000 O   0  0  0  0  0  0  0  0  0  0  0  0
    0.2010   -1.2740    0.2370 C   0  0  0  0  0  0  0  0  0  0  0  0
   -0.2620   -0.3840   -0.8700 C   0  0  1  0  0  0  0  0  0  0  0  0
   -1.6600   -0.0240   -0.5680 C   0  0  0  0  0  0  0  0  0  0  0  0
   -1.8470    1.0350    0.2230 C   0  0  0  0  0  0  0  0  0  0  0  0
   -2.9930    1.7570    0.7840 C   0  0  0  0  0  0  0  0  0  0  0  0
   -4.2230    1.0520    0.8600 N   0  0  0  0  0  0  0  0  0  0  0  0
   -4.9640    1.1690    2.0400 C   0  0  0  0  0  0  0  0  0  0  0  0
   -5.6960    2.1820    2.3010 N   0  0  0  0  0  0  0  0  0  0  0  0
   -4.7890    0.2520   -0.1560 C   0  0  0  0  0  0  0  0  0  0  0  0
   -4.1670   -0.5970   -0.9960 C   0  0  0  0  0  0  0  0  0  0  0  0
   -2.7420   -0.8990   -1.0550 C   0  0  0  0  0  0  0  0  0  0  0  0
   -2.3750   -1.9850   -1.6220 C   0  0  0  0  0  0  0  0  0  0  0  0
   -3.2100   -3.0320   -2.1800 C   0  0  0  0  0  0  0  0  0  0  0  0
   -4.9430   -3.1280   -2.1610 Cl  0  0  0  0  0  0  0  0  0  0  0  0
   -2.6140   -4.1050   -2.7600 C   0  0  0  0  0  0  0  0  0  0  0  0
   -1.2750   -4.1310   -2.7800 F   0  0  0  0  0  0  0  0  0  0  0  0
    0.6000    0.9130   -0.8200 C   0  0  0  0  0  0  0  0  0  0  0  0
    0.2070    2.0660   -1.3910 C   0  0  0  0  0  0  0  0  0  0  0  0
    1.0470    3.1490   -1.3140 C   0  0  0  0  0  0  0  0  0  0  0  0
    2.4280    2.5470   -0.4200 S   0  0  0  0  0  0  0  0  0  0  0  0
    1.7690    0.8690   -0.2130 C   0  0  0  0  0  0  0  0  0  0  0  0
  1  2  1  0
  2  3  1  0
  4  3  1  6
  4  5  2  0
  4  6  2  0
  4  7  1  0
  7  8  1  0
  7 30  1  0
  8  9  2  0
  8 10  1  0
 10 11  1  0
 11 12  1  1
 11 26  1  0
 12 13  2  0
 12 20  1  0
 13 14  1  0
 14 15  1  0
 15 16  1  0
 15 18  1  0
 16 17  2  0
 18 19  2  0
 19 20  1  0
 20 21  2  3
 21 22  1  0
 22 23  1  0
 22 24  2  3
 24 25  1  0
 26 27  1  0
 26 30  2  0
 27 28  2  0
 28 29  1  0
 29 30  1  0
M  CHG  1  17   1
M  END
