
     RDKit          3D

 30 32  0  0  0  0  0  0  0  0999 V2000
   -4.3020   -2.1090   -2.5050 C   0  0  0  0  0  0  0  0  0  0  0  0
   -5.4310   -1.7490   -2.0430 C   0  0  0  0  0  0  0  0  0  0  0  0
   -5.7350   -0.6240   -1.1100 C   0  0  0  0  0  0  0  0  0  0  0  0
   -7.0180   -0.5590   -0.8520 C   0  0  0  0  0  0  0  0  0  0  0  0
   -7.6560    0.2870   -0.0860 F   0  0  0  0  0  0  0  0  0  0  0  0
   -4.6990    0.2190   -0.6250 C   0  0  0  0  0  0  0  0  0  0  0  0
   -3.5190   -0.1650   -1.1520 O   0  0  0  0  0  0  0  0  0  0  0  0
   -4.5620    1.3080    0.2210 N   0  0  0  0  0  0  0  0  0  0  0  0
   -5.6060    1.9630    0.9590 C   0  0  0  0  0  0  0  0  0  0  0  0
   -6.2480    2.9650    0.0190 C   0  0  0  0  0  0  0  0  0  0  0  0
   -5.0920    4.3540   -0.2670 S   0  0  0  0  0  0  0  0  0  0  0  0
   -3.6980    4.2370    0.8900 C   0  0  0  0  0  0  0  0  0  0  0  0
   -2.8230    3.0540    0.5930 C   0  0  0  0  0  0  0  0  0  0  0  0
   -1.1100    3.4000    0.5850 Cl  0  0  0  0  0  0  0  0  0  0  0  0
   -3.1280    1.7980    0.3060 C   0  0  0  0  0  0  0  0  0  0  0  0
   -2.0080    0.5280   -0.0270 S   0  0  2  0  0  0  0  0  0  0  0  0
   -0.3140    0.7820    0.3520 C   0  0  1  0  0  0  0  0  0  0  0  0
   -0.1930    0.8690    1.8850 C   0  0  0  0  0  0  0  0  0  0  0  0
    0.4940   -0.4270   -0.0970 C   0  0  0  0  0  0  0  0  0  0  0  0
   -0.1800   -1.4430   -0.4110 O   0  0  0  0  0  0  0  0  0  0  0  0
    1.8840   -0.4130   -0.1540 N   0  0  0  0  0  0  0  0  0  0  0  0
    2.6560    0.7520    0.1650 C   0  0  0  0  0  0  0  0  0  0  0  0
    3.5570    0.2970    1.3280 C   0  0  0  0  0  0  0  0  0  0  0  0
    4.3880   -0.6810    0.8750 O   0  0  0  0  0  0  0  0  0  0  0  0
    3.8480   -1.7960    0.3260 C   0  0  2  0  0  0  0  0  0  0  0  0
    4.9180   -2.3990   -0.5950 C   0  0  0  0  0  0  0  0  0  0  0  0
    6.0980   -2.7300    0.1810 N   0  0  0  0  0  0  0  0  0  0  0  0
    7.3290   -2.3950   -0.5010 C   0  0  0  0  0  0  0  0  0  0  0  0
    7.8360   -1.0950    0.1220 C   0  0  0  0  0  0  0  0  0  0  0  0
    2.6200   -1.5960   -0.5280 C   0  0  0  0  0  0  0  0  0  0  0  0
  1  2  2  0
  2  3  1  0
  3  4  2  3
  3  6  1  0
  4  5  1  0
  6  7  2  0
  6  8  1  0
  8  9  1  0
  8 15  1  0
  9 10  1  0
 10 11  1  0
 11 12  1  0
 12 13  1  0
 13 14  1  0
 13 15  2  0
 15 16  1  0
 16 17  1  0
 17 18  1  1
 17 19  1  0
 19 20  2  0
 19 21  1  0
 21 22  1  0
 21 30  1  0
 22 23  1  0
 23 24  1  0
 24 25  1  0
 25 26  1  6
 25 30  1  0
 26 27  1  0
 27 28  1  0
 28 29  1  0
 16  7  1  6
M  CHG  1  27   1
M  END
