
     RDKit          3D

 29 31  0  0  0  0  0  0  0  0999 V2000
    7.5770   -0.5560    2.1260 C   0  0  0  0  0  0  0  0  0  0  0  0
    6.7190   -0.0420    1.2720 C   0  0  0  0  0  0  0  0  0  0  0  0
    5.2870   -0.1620    1.4600 C   0  0  0  0  0  0  0  0  0  0  0  0
    4.4370    0.3450    0.6130 C   0  0  0  0  0  0  0  0  0  0  0  0
    2.9750    0.3610    0.5770 C   0  0  0  0  0  0  0  0  0  0  0  0
    2.4820    0.3070   -0.8040 C   0  0  0  0  0  0  0  0  0  0  0  0
    3.2980    0.7380   -1.7220 C   0  0  0  0  0  0  0  0  0  0  0  0
    4.8160    1.2690   -0.9090 S   0  0  0  0  0  0  0  0  0  0  0  0
    2.9830    0.7590   -3.1240 C   0  0  0  0  0  0  0  0  0  0  0  0
    3.8240    1.1950   -3.9980 O   0  0  0  0  0  0  0  0  0  0  0  0
    1.7240    0.2920   -3.5810 N   0  0  0  0  0  0  0  0  0  0  0  0
    0.8000   -0.1870   -2.6280 C   0  0  0  0  0  0  0  0  0  0  0  0
   -0.3130   -0.5920   -3.1030 O   0  0  0  0  0  0  0  0  0  0  0  0
    1.1560   -0.1890   -1.2420 C   0  0  0  0  0  0  0  0  0  0  0  0
    0.3130   -0.6320   -0.3720 N   0  0  0  0  0  0  0  0  0  0  0  0
   -0.9440   -1.1220   -0.6140 N   0  0  0  0  0  0  0  0  0  0  0  0
   -2.1320   -0.6910    0.0380 C   0  0  0  0  0  0  0  0  0  0  0  0
   -3.3160   -0.8100   -0.4920 C   0  0  0  0  0  0  0  0  0  0  0  0
   -4.5630   -0.3910    0.1200 C   0  0  0  0  0  0  0  0  0  0  0  0
   -4.6820    0.7700    0.8500 C   0  0  0  0  0  0  0  0  0  0  0  0
   -5.8850    1.1300    1.4220 C   0  0  0  0  0  0  0  0  0  0  0  0
   -6.0570    2.6070    2.3560 Cl  0  0  0  0  0  0  0  0  0  0  0  0
   -7.0020    0.3320    1.2760 C   0  0  0  0  0  0  0  0  0  0  0  0
   -6.8740   -0.8310    0.5420 C   0  0  0  0  0  0  0  0  0  0  0  0
   -5.6870   -1.2040   -0.0330 C   0  0  0  0  0  0  0  0  0  0  0  0
   -5.5730   -2.6800   -0.9520 Cl  0  0  0  0  0  0  0  0  0  0  0  0
   -1.9800   -0.1210    1.3120 N   0  0  0  0  0  0  0  0  0  0  0  0
   -1.2120    0.8440    1.5170 O   0  0  0  0  0  0  0  0  0  0  0  0
   -2.7000   -0.6480    2.3700 O   0  0  0  0  0  0  0  0  0  0  0  0
  1  2  2  0
  2  3  1  0
  3  4  2  3
  4  5  1  0
  4  8  1  0
  5  6  1  0
  6  7  2  0
  6 14  1  0
  7  8  1  0
  7  9  1  0
  9 10  2  0
  9 11  1  0
 11 12  1  0
 12 13  2  0
 12 14  1  0
 14 15  2  3
 15 16  1  0
 16 17  1  0
 17 18  2  3
 17 27  1  0
 18 19  1  0
 19 20  2  0
 19 25  1  0
 20 21  1  0
 21 22  1  0
 21 23  2  0
 23 24  1  0
 24 25  2  0
 25 26  1  0
 27 28  2  0
 27 29  1  0
M  CHG  2  27   1  29  -1
M  END
