
     RDKit          3D

 30 32  0  0  0  0  0  0  0  0999 V2000
   -7.5360    0.4270    1.6150 C   0  0  0  0  0  0  0  0  0  0  0  0
   -6.4390    0.3050    0.8460 C   0  0  0  0  0  0  0  0  0  0  0  0
   -6.1650    1.3990    0.0130 O   0  0  0  0  0  0  0  0  0  0  0  0
   -4.8760    1.8680   -0.3060 C   0  0  0  0  0  0  0  0  0  0  0  0
   -3.7570    1.1680    0.4070 C   0  0  0  0  0  0  0  0  0  0  0  0
   -3.6290   -0.2060    0.1360 N   0  0  1  0  0  0  0  0  0  0  0  0
   -2.2890   -0.6320   -0.0670 C   0  0  1  0  0  0  0  0  0  0  0  0
   -1.5580    0.2120   -1.0900 C   0  0  0  0  0  0  0  0  0  0  0  0
   -0.4660   -0.6800   -1.6930 C   0  0  0  0  0  0  0  0  0  0  0  0
    0.0660   -1.5970   -0.6060 C   0  0  0  0  0  0  0  0  0  0  0  0
   -0.0690   -0.9830    0.6850 N   0  0  0  0  0  0  0  0  0  0  0  0
    1.0070   -0.5640    1.4620 C   0  0  0  0  0  0  0  0  0  0  0  0
    0.6390    0.0730    2.9790 S   0  0  0  0  0  0  0  0  0  0  0  0
    2.7020   -0.6420    1.0010 S   0  0  0  0  0  0  0  0  0  0  0  0
    3.0610   -0.0200   -0.6130 C   0  0  0  0  0  0  0  0  0  0  0  0
    4.5300   -0.1420   -0.9440 C   0  0  0  0  0  0  0  0  0  0  0  0
    4.9560    0.2680   -2.0430 O   0  0  0  0  0  0  0  0  0  0  0  0
    5.4140   -0.7040   -0.0500 O   0  0  0  0  0  0  0  0  0  0  0  0
    6.8000   -0.8600   -0.2780 C   0  0  0  0  0  0  0  0  0  0  0  0
    7.4470    0.4490   -0.5050 C   0  0  0  0  0  0  0  0  0  0  0  0
    7.8680    1.3180    0.4860 C   0  0  0  0  0  0  0  0  0  0  0  0
    8.4330    2.4380   -0.1120 C   0  0  0  0  0  0  0  0  0  0  0  0
    8.3590    2.2580   -1.4410 N   0  0  0  0  0  0  0  0  0  0  0  0
    7.7670    1.0620   -1.6940 C   0  0  0  0  0  0  0  0  0  0  0  0
   -1.4490   -0.7480    1.1760 C   0  0  0  0  0  0  0  0  0  0  0  0
   -4.2290   -1.0810    1.1230 C   0  0  0  0  0  0  0  0  0  0  0  0
   -5.7070   -0.9440    0.9950 C   0  0  0  0  0  0  0  0  0  0  0  0
   -6.3810   -2.0620    0.9790 C   0  0  0  0  0  0  0  0  0  0  0  0
   -5.7250   -3.2280    1.1210 F   0  0  0  0  0  0  0  0  0  0  0  0
   -8.0910   -2.1200    0.7340 Cl  0  0  0  0  0  0  0  0  0  0  0  0
  1  2  2  0
  2  3  1  0
  2 27  1  0
  3  4  1  0
  4  5  1  0
  6  5  1  1
  6  7  1  0
  6 26  1  0
  7  8  1  6
  7 25  1  0
  8  9  1  0
  9 10  1  0
 10 11  1  0
 11 12  1  0
 11 25  1  0
 12 13  2  0
 12 14  1  0
 14 15  1  0
 15 16  1  0
 16 17  2  0
 16 18  1  0
 18 19  1  0
 19 20  1  0
 20 21  1  0
 20 24  2  0
 21 22  2  0
 22 23  1  0
 23 24  1  0
 26 27  1  0
 27 28  2  3
 28 29  1  0
 28 30  1  0
M  CHG  1   6   1
M  END
