
     RDKit          3D

 29 31  0  0  0  0  0  0  0  0999 V2000
   -4.1100    2.8140   -1.0280 O   0  0  0  0  0  0  0  0  0  0  0  0
   -4.8880    1.8460   -0.7830 C   0  0  0  0  0  0  0  0  0  0  0  0
   -6.3650    1.9850   -0.9090 C   0  0  0  0  0  0  0  0  0  0  0  0
   -6.7380    3.3200   -1.3300 N   0  0  0  0  0  0  0  0  0  0  0  0
   -7.4680    3.9700   -0.5670 O   0  0  0  0  0  0  0  0  0  0  0  0
   -6.2640    3.7690   -2.5280 O   0  0  0  0  0  0  0  0  0  0  0  0
   -4.3800    0.6000   -0.3810 N   0  0  0  0  0  0  0  0  0  0  0  0
   -2.9740    0.3700   -0.2320 C   0  0  0  0  0  0  0  0  0  0  0  0
   -2.2880   -0.6540    0.1140 N   0  0  0  0  0  0  0  0  0  0  0  0
   -0.9770   -0.6320    0.1830 C   0  0  0  0  0  0  0  0  0  0  0  0
   -0.3040   -1.8970    0.6310 C   0  0  0  0  0  0  0  0  0  0  0  0
   -0.4910   -3.0640   -0.0700 C   0  0  0  0  0  0  0  0  0  0  0  0
    0.0640   -4.2370    0.4190 C   0  0  0  0  0  0  0  0  0  0  0  0
    0.7990   -4.2280    1.6010 C   0  0  0  0  0  0  0  0  0  0  0  0
    0.9930   -3.0520    2.3150 C   0  0  0  0  0  0  0  0  0  0  0  0
    1.8960   -2.9780    3.7880 Cl  0  0  0  0  0  0  0  0  0  0  0  0
    0.4220   -1.9000    1.7940 C   0  0  0  0  0  0  0  0  0  0  0  0
   -0.3310    0.4930   -0.1210 C   0  0  0  0  0  0  0  0  0  0  0  0
    1.0630    0.9420   -0.1830 C   0  0  0  0  0  0  0  0  0  0  0  0
    1.1900    2.1750   -0.4180 O   0  0  0  0  0  0  0  0  0  0  0  0
    2.2140    0.2030   -0.0280 N   0  0  0  0  0  0  0  0  0  0  0  0
    3.5730    0.6080   -0.0670 C   0  0  0  0  0  0  0  0  0  0  0  0
    3.9240    1.9090   -0.2830 C   0  0  0  0  0  0  0  0  0  0  0  0
    5.2700    2.3070   -0.3220 C   0  0  0  0  0  0  0  0  0  0  0  0
    6.2690    1.3800   -0.1390 C   0  0  0  0  0  0  0  0  0  0  0  0
    5.8960    0.0790    0.0760 C   0  0  0  0  0  0  0  0  0  0  0  0
    4.5880   -0.3240    0.1160 C   0  0  0  0  0  0  0  0  0  0  0  0
    4.1620   -2.0040    0.3960 Cl  0  0  0  0  0  0  0  0  0  0  0  0
   -1.7070    1.5680   -0.5180 S   0  0  0  0  0  0  0  0  0  0  0  0
  1  2  2  0
  2  3  1  0
  2  7  1  0
  3  4  1  0
  4  5  2  0
  4  6  1  0
  7  8  1  0
  8  9  2  0
  8 29  1  0
  9 10  1  0
 10 11  1  0
 10 18  2  0
 11 12  2  0
 11 17  1  0
 12 13  1  0
 13 14  2  0
 14 15  1  0
 15 16  1  0
 15 17  2  0
 18 19  1  0
 18 29  1  0
 19 20  2  0
 19 21  1  0
 21 22  1  0
 22 23  2  0
 22 27  1  0
 23 24  1  0
 24 25  2  0
 25 26  1  0
 26 27  2  0
 27 28  1  0
M  CHG  2   4   1   6  -1
M  END
