
     RDKit          3D

 29 31  0  0  0  0  0  0  0  0999 V2000
   -1.7290    6.2820   -1.3230 C   0  0  0  0  0  0  0  0  0  0  0  0
   -1.7650    5.4330   -0.3550 N   0  0  0  0  0  0  0  0  0  0  0  0
   -1.9270    4.0830   -0.6280 N   0  0  0  0  0  0  0  0  0  0  0  0
   -1.2560    3.1280    0.1740 C   0  0  0  0  0  0  0  0  0  0  0  0
   -0.4500    3.5090    1.2180 C   0  0  0  0  0  0  0  0  0  0  0  0
    0.1990    2.5920    1.9930 C   0  0  0  0  0  0  0  0  0  0  0  0
    1.2390    3.0720    3.3350 Cl  0  0  0  0  0  0  0  0  0  0  0  0
    0.0200    1.2340    1.6920 C   0  0  0  0  0  0  0  0  0  0  0  0
    0.8910    0.1150    2.6850 S   0  0  2  0  0  0  0  0  0  0  0  0
    0.0380   -1.0790    2.9890 O   0  0  0  0  0  0  0  0  0  0  0  0
    1.1500    0.8460    4.0360 O   0  0  0  0  0  0  0  0  0  0  0  0
    2.4320   -0.2360    2.0800 N   0  0  0  0  0  0  0  0  0  0  0  0
    2.6410   -0.8470    0.8260 C   0  0  0  0  0  0  0  0  0  0  0  0
    3.5140   -0.2750   -0.1160 C   0  0  0  0  0  0  0  0  0  0  0  0
    3.7310   -0.8310   -1.3510 C   0  0  0  0  0  0  0  0  0  0  0  0
    3.0960   -1.9870   -1.7290 C   0  0  0  0  0  0  0  0  0  0  0  0
    3.3760   -2.6990   -3.3170 Cl  0  0  0  0  0  0  0  0  0  0  0  0
    2.2370   -2.5740   -0.8360 C   0  0  0  0  0  0  0  0  0  0  0  0
    2.0350   -2.0050    0.3890 C   0  0  0  0  0  0  0  0  0  0  0  0
   -0.7890    0.8420    0.6420 C   0  0  0  0  0  0  0  0  0  0  0  0
   -0.9930   -0.5390    0.3700 N   0  0  0  0  0  0  0  0  0  0  0  0
   -1.6400   -1.0630   -0.7740 C   0  0  0  0  0  0  0  0  0  0  0  0
   -2.0920   -0.3320   -1.6870 O   0  0  0  0  0  0  0  0  0  0  0  0
   -1.8100   -2.5210   -0.9300 C   0  0  0  0  0  0  0  0  0  0  0  0
   -2.3740   -3.1600   -1.9190 C   0  0  0  0  0  0  0  0  0  0  0  0
   -2.3160   -4.6290   -1.6420 C   0  0  0  0  0  0  0  0  0  0  0  0
   -1.6520   -4.6940   -0.3730 N   0  0  0  0  0  0  0  0  0  0  0  0
   -1.3700   -3.5080    0.0220 C   0  0  0  0  0  0  0  0  0  0  0  0
   -1.4430    1.7840   -0.1370 C   0  0  0  0  0  0  0  0  0  0  0  0
  1  2  2  0
  2  3  1  0
  3  4  1  0
  4  5  2  0
  4 29  1  0
  5  6  1  0
  6  7  1  0
  6  8  2  0
  8  9  1  0
  8 20  1  0
  9 10  2  0
  9 11  2  0
  9 12  1  6
 12 13  1  0
 13 14  2  0
 13 19  1  0
 14 15  1  0
 15 16  2  0
 16 17  1  0
 16 18  1  0
 18 19  2  0
 20 21  1  0
 20 29  2  0
 21 22  1  0
 22 23  2  0
 22 24  1  0
 24 25  2  0
 24 28  1  0
 25 26  1  0
 26 27  1  0
 27 28  2  0
M  END
