
     RDKit          3D

 30 32  0  0  0  0  0  0  0  0999 V2000
    1.6060    4.3780   -0.8230 C   0  0  0  0  0  0  0  0  0  0  0  0
    0.5720    4.5120   -1.6420 O   0  0  0  0  0  0  0  0  0  0  0  0
   -0.6680    4.0860   -1.4900 C   0  0  0  0  0  0  0  0  0  0  0  0
   -1.0150    2.6460   -1.3040 C   0  0  0  0  0  0  0  0  0  0  0  0
   -0.5010    2.0230   -0.0510 C   0  0  0  0  0  0  0  0  0  0  0  0
   -0.8970    0.6030    0.0370 N   0  0  0  0  0  0  0  0  0  0  0  0
   -2.1600    0.2690    0.5790 C   0  0  0  0  0  0  0  0  0  0  0  0
   -3.0280    1.1220    0.9800 O   0  0  0  0  0  0  0  0  0  0  0  0
   -2.4560   -1.1280    0.6710 C   0  0  0  0  0  0  0  0  0  0  0  0
   -3.5950   -1.7770    0.8000 C   0  0  0  0  0  0  0  0  0  0  0  0
   -4.8560   -1.0400    0.8720 C   0  0  0  0  0  0  0  0  0  0  0  0
   -6.0290   -1.8960    1.2650 C   0  0  0  0  0  0  0  0  0  0  0  0
   -6.1120   -3.2140    0.5840 C   0  0  0  0  0  0  0  0  0  0  0  0
   -4.8230   -3.8270    0.1700 C   0  0  0  0  0  0  0  0  0  0  0  0
   -3.6100   -3.2570    0.8710 C   0  0  0  0  0  0  0  0  0  0  0  0
   -0.8200   -1.8980    0.5680 S   0  0  0  0  0  0  0  0  0  0  0  0
   -0.1100   -0.4500   -0.3350 C   0  0  0  0  0  0  0  0  0  0  0  0
    0.8880   -0.6390   -1.0630 N   0  0  0  0  0  0  0  0  0  0  0  0
    1.6610    0.2440   -1.8590 C   0  0  0  0  0  0  0  0  0  0  0  0
    3.0800    0.1630   -1.3290 C   0  0  0  0  0  0  0  0  0  0  0  0
    3.9920    0.8540   -1.8680 O   0  0  0  0  0  0  0  0  0  0  0  0
    3.4300   -0.6660   -0.2360 N   0  0  0  0  0  0  0  0  0  0  0  0
    4.7950   -0.7110    0.2360 C   0  0  0  0  0  0  0  0  0  0  0  0
    5.4150   -1.8560    0.2040 C   0  0  0  0  0  0  0  0  0  0  0  0
    7.0840   -2.0190    0.7570 S   0  0  0  0  0  0  0  0  0  0  0  0
    7.6770   -0.4200    1.3180 C   0  0  2  0  0  0  0  0  0  0  0  0
    8.1010   -0.5610    2.6340 F   0  0  0  0  0  0  0  0  0  0  0  0
    6.6340    0.5930    1.1720 C   0  0  0  0  0  0  0  0  0  0  0  0
    5.4250    0.5010    0.7250 C   0  0  0  0  0  0  0  0  0  0  0  0
    4.4310    1.9840    0.7010 Cl  0  0  0  0  0  0  0  0  0  0  0  0
  1  2  1  0
  2  3  1  0
  3  4  1  0
  4  5  1  0
  5  6  1  0
  6  7  1  0
  6 17  1  0
  7  8  2  0
  7  9  1  0
  9 10  2  3
  9 16  1  0
 10 11  1  0
 10 15  1  0
 11 12  1  0
 12 13  1  0
 13 14  1  0
 14 15  1  0
 16 17  1  0
 17 18  2  3
 18 19  1  0
 19 20  1  0
 20 21  2  0
 20 22  1  0
 22 23  1  0
 23 24  2  0
 23 29  1  0
 24 25  1  0
 25 26  1  0
 26 27  1  1
 26 28  1  0
 28 29  2  0
 29 30  1  0
M  CHG  1  18   1
M  END
