
     RDKit          3D

 29 31  0  0  0  0  0  0  0  0999 V2000
   -5.4800    1.8960   -1.0810 C   0  0  0  0  0  0  0  0  0  0  0  0
   -5.6370    0.7370   -0.1550 C   0  0  1  0  0  0  0  0  0  0  0  0
   -6.3490   -0.4060   -0.8180 C   0  0  0  0  0  0  0  0  0  0  0  0
   -6.3230   -1.6550    0.0150 C   0  0  0  0  0  0  0  0  0  0  0  0
   -5.6770   -1.4840    1.3480 C   0  0  0  0  0  0  0  0  0  0  0  0
   -4.4230   -0.6910    1.3480 C   0  0  0  0  0  0  0  0  0  0  0  0
   -4.3490    0.3110    0.3140 N   0  0  1  0  0  0  0  0  0  0  0  0
   -3.4700   -0.1360   -0.7330 C   0  0  0  0  0  0  0  0  0  0  0  0
   -2.2570    0.7130   -0.8580 C   0  0  0  0  0  0  0  0  0  0  0  0
   -1.0560    0.6440   -0.2850 C   0  0  0  0  0  0  0  0  0  0  0  0
   -0.1020    1.5460   -0.5630 C   0  0  0  0  0  0  0  0  0  0  0  0
    1.2770    1.5520    0.0290 C   0  0  0  0  0  0  0  0  0  0  0  0
    2.1180    2.4170   -0.2840 O   0  0  0  0  0  0  0  0  0  0  0  0
    1.6570    0.5730    0.9600 N   0  0  0  0  0  0  0  0  0  0  0  0
    2.9870    0.5390    1.5620 C   0  0  0  0  0  0  0  0  0  0  0  0
    4.0380    0.3900    0.5400 C   0  0  0  0  0  0  0  0  0  0  0  0
    3.8610    0.3000   -0.6890 O   0  0  0  0  0  0  0  0  0  0  0  0
    5.3770    0.3460    1.0150 O   0  0  0  0  0  0  0  0  0  0  0  0
    6.4010    0.1970    0.1160 C   0  0  0  0  0  0  0  0  0  0  0  0
    6.5720    1.1280   -0.7190 N   0  0  0  0  0  0  0  0  0  0  0  0
    5.8160    2.3200   -0.8210 C   0  0  0  0  0  0  0  0  0  0  0  0
    6.9120    3.7640   -0.8660 Cl  0  0  0  0  0  0  0  0  0  0  0  0
    7.3350   -0.9960    0.0720 C   0  0  0  0  0  0  0  0  0  0  0  0
    7.2670   -2.0220    0.8950 C   0  0  0  0  0  0  0  0  0  0  0  0
    8.1160   -3.0920    0.8450 C   0  0  0  0  0  0  0  0  0  0  0  0
    9.1850   -2.5880   -0.5840 S   0  0  0  0  0  0  0  0  0  0  0  0
    8.3490   -1.0040   -0.9250 C   0  0  0  0  0  0  0  0  0  0  0  0
   -0.4390    2.5460   -1.4730 C   0  0  0  0  0  0  0  0  0  0  0  0
   -2.1190    2.1610   -1.9050 S   0  0  0  0  0  0  0  0  0  0  0  0
  2  1  1  6
  2  3  1  0
  2  7  1  0
  3  4  1  0
  4  5  1  0
  5  6  1  0
  6  7  1  0
  7  8  1  6
  8  9  1  0
  9 10  2  0
  9 29  1  0
 10 11  1  0
 11 12  1  0
 11 28  2  0
 12 13  2  0
 12 14  1  0
 14 15  1  0
 15 16  1  0
 16 17  2  0
 16 18  1  0
 18 19  1  0
 19 20  2  3
 19 23  1  0
 20 21  1  0
 21 22  1  0
 23 24  1  0
 23 27  2  0
 24 25  2  0
 25 26  1  0
 26 27  1  0
 28 29  1  0
M  CHG  1   7   1
M  END
