
     RDKit          3D

 30 32  0  0  0  0  0  0  0  0999 V2000
    5.9140    1.0330   -1.1720 C   0  0  0  0  0  0  0  0  0  0  0  0
    4.9800    0.0760   -0.4550 C   0  0  0  0  0  0  0  0  0  0  0  0
    5.2100    0.2790    1.0310 C   0  0  0  0  0  0  0  0  0  0  0  0
    4.1130   -0.8440    1.8910 S   0  0  2  0  0  0  0  0  0  0  0  0
    4.2680   -0.6070    3.3730 O   0  0  0  0  0  0  0  0  0  0  0  0
    4.4670   -2.2750    1.6310 O   0  0  0  0  0  0  0  0  0  0  0  0
    2.4830   -0.4900    1.4790 N   0  0  0  0  0  0  0  0  0  0  0  0
    1.7400    0.5290    2.1600 C   0  0  0  0  0  0  0  0  0  0  0  0
    1.9890    0.8890    3.3010 O   0  0  0  0  0  0  0  0  0  0  0  0
    0.6250    1.0870    1.2840 C   0  0  0  0  0  0  0  0  0  0  0  0
   -0.2030   -0.0540    0.8700 C   0  0  1  0  0  0  0  0  0  0  0  0
   -1.5980    0.1010    0.5470 C   0  0  0  0  0  0  0  0  0  0  0  0
   -2.4840    0.0130    1.5490 C   0  0  0  0  0  0  0  0  0  0  0  0
   -3.9380    0.1080    1.6600 C   0  0  0  0  0  0  0  0  0  0  0  0
   -4.7160   -0.4660    0.6090 N   0  0  0  0  0  0  0  0  0  0  0  0
   -5.9740   -1.0940    1.0070 C   0  0  0  0  0  0  0  0  0  0  0  0
   -7.0580   -0.4250    1.0720 N   0  0  0  0  0  0  0  0  0  0  0  0
   -4.4270   -0.5080   -0.7700 C   0  0  0  0  0  0  0  0  0  0  0  0
   -3.3230   -0.1650   -1.4020 C   0  0  0  0  0  0  0  0  0  0  0  0
   -2.0440    0.3750   -0.8540 C   0  0  0  0  0  0  0  0  0  0  0  0
   -1.2380    1.0620   -1.5390 C   0  0  0  0  0  0  0  0  0  0  0  0
   -1.3140    1.5280   -2.8950 C   0  0  0  0  0  0  0  0  0  0  0  0
   -2.6800    1.2590   -3.9400 Cl  0  0  0  0  0  0  0  0  0  0  0  0
   -0.3070    2.2500   -3.4320 C   0  0  0  0  0  0  0  0  0  0  0  0
   -0.3990    2.6750   -4.7020 F   0  0  0  0  0  0  0  0  0  0  0  0
    0.5410   -1.0740    0.0490 C   0  0  0  0  0  0  0  0  0  0  0  0
    0.0980   -1.8260   -0.9540 C   0  0  0  0  0  0  0  0  0  0  0  0
    0.9240   -2.7300   -1.5510 C   0  0  0  0  0  0  0  0  0  0  0  0
    2.4840   -2.4960   -0.6010 S   0  0  0  0  0  0  0  0  0  0  0  0
    1.8690   -1.2620    0.4410 C   0  0  0  0  0  0  0  0  0  0  0  0
  1  2  1  0
  2  3  1  0
  4  3  1  6
  4  5  2  0
  4  6  2  0
  4  7  1  0
  7  8  1  0
  7 30  1  0
  8  9  2  0
  8 10  1  0
 10 11  1  0
 11 12  1  6
 11 26  1  0
 12 13  2  0
 12 20  1  0
 13 14  1  0
 14 15  1  0
 15 16  1  0
 15 18  1  0
 16 17  2  0
 18 19  2  0
 19 20  1  0
 20 21  2  3
 21 22  1  0
 22 23  1  0
 22 24  2  3
 24 25  1  0
 26 27  1  0
 26 30  2  0
 27 28  2  0
 28 29  1  0
 29 30  1  0
M  CHG  1  17   1
M  END
