
     RDKit          3D

 30 32  0  0  0  0  0  0  0  0999 V2000
   -5.2880   -0.9640    0.7720 C   0  0  0  0  0  0  0  0  0  0  0  0
   -5.7760   -0.1650   -0.4340 C   0  0  0  0  0  0  0  0  0  0  0  0
   -7.0170    0.2960   -0.3960 C   0  0  0  0  0  0  0  0  0  0  0  0
   -8.2260    0.1030    0.8990 Cl  0  0  0  0  0  0  0  0  0  0  0  0
   -7.3200    1.2330   -1.9060 S   0  0  0  0  0  0  0  0  0  0  0  0
   -5.5080    1.5280   -2.1820 C   0  0  0  0  0  0  0  0  0  0  0  0
   -5.0870    0.1560   -1.6500 C   0  0  1  0  0  0  0  0  0  0  0  0
   -3.6610    0.1230   -1.6900 N   0  0  2  0  0  0  0  0  0  0  0  0
   -3.1340   -1.1590   -2.1010 C   0  0  0  0  0  0  0  0  0  0  0  0
   -2.9920    0.7680   -0.6150 C   0  0  0  0  0  0  0  0  0  0  0  0
   -1.5310    1.0620   -0.8580 C   0  0  0  0  0  0  0  0  0  0  0  0
   -0.7380   -0.0280   -1.0830 O   0  0  0  0  0  0  0  0  0  0  0  0
   -0.6620   -0.9000   -0.0030 C   0  0  0  0  0  0  0  0  0  0  0  0
   -0.0810   -0.2140    1.2210 C   0  0  2  0  0  0  0  0  0  0  0  0
    1.3370    0.2610    0.9170 C   0  0  0  0  0  0  0  0  0  0  0  0
    2.0380    0.6300    2.1060 N   0  0  0  0  0  0  0  0  0  0  0  0
    3.0980   -0.2490    2.4890 C   0  0  0  0  0  0  0  0  0  0  0  0
    4.2630   -0.2460    1.5780 C   0  0  0  0  0  0  0  0  0  0  0  0
    5.2190   -1.0080    1.8740 O   0  0  0  0  0  0  0  0  0  0  0  0
    4.3820    0.5350    0.4190 N   0  0  0  0  0  0  0  0  0  0  0  0
    5.5490    0.4990   -0.4390 C   0  0  0  0  0  0  0  0  0  0  0  0
    6.2640    1.5770   -0.6540 C   0  0  0  0  0  0  0  0  0  0  0  0
    7.6910    1.5790   -1.6900 S   0  0  0  0  0  0  0  0  0  0  0  0
    7.9500   -0.0690   -2.3400 C   0  0  0  0  0  0  0  0  0  0  0  0
    6.9150   -0.9910   -1.8510 C   0  0  0  0  0  0  0  0  0  0  0  0
    5.9070   -0.7670   -1.0570 C   0  0  0  0  0  0  0  0  0  0  0  0
    5.0760   -1.8470   -0.7600 F   0  0  0  0  0  0  0  0  0  0  0  0
    1.1080    0.7160    3.2120 C   0  0  0  0  0  0  0  0  0  0  0  0
    0.3900   -0.6000    3.4470 C   0  0  0  0  0  0  0  0  0  0  0  0
   -0.0440   -1.1530    2.2480 O   0  0  0  0  0  0  0  0  0  0  0  0
  1  2  1  0
  2  3  2  0
  2  7  1  0
  3  4  1  0
  3  5  1  0
  5  6  1  0
  7  6  1  1
  7  8  1  0
  8  9  1  1
  8 10  1  0
 10 11  1  0
 11 12  1  0
 12 13  1  0
 14 13  1  6
 14 15  1  0
 14 30  1  0
 15 16  1  0
 16 17  1  0
 16 28  1  0
 17 18  1  0
 18 19  2  0
 18 20  1  0
 20 21  1  0
 21 22  2  0
 21 26  1  0
 22 23  1  0
 23 24  1  0
 24 25  1  0
 25 26  2  0
 26 27  1  0
 28 29  1  0
 29 30  1  0
M  CHG  1   8   1
M  END
