
     RDKit          3D

 10  9  0  0  0  0  0  0  0  0999 V2000
   -3.5520    0.4090    0.0510 C   0  0  0  0  0  0  0  0  0  0  0  0
   -2.2610   -0.0160   -0.2790 O   0  0  0  0  0  0  0  0  0  0  0  0
   -1.3940    0.9910    0.1350 C   0  0  0  0  0  0  0  0  0  0  0  0
    0.0550    0.6340   -0.1760 C   0  0  0  0  0  0  0  0  0  0  0  0
    0.3680   -0.5350    0.4880 O   0  0  0  0  0  0  0  0  0  0  0  0
    1.6230   -0.9960    0.2790 C   0  0  1  0  0  0  0  0  0  0  0  0
    1.7620   -2.1950    1.0330 O   0  0  0  0  0  0  0  0  0  0  0  0
    1.7370   -1.2960   -1.0850 O   0  0  0  0  0  0  0  0  0  0  0  0
    2.7280   -0.1890    0.6390 N   0  0  0  0  0  0  0  0  0  0  0  0
    2.8950    0.9630    0.0090 O   0  0  0  0  0  0  0  0  0  0  0  0
  1  2  1  0
  2  3  1  0
  3  4  1  0
  4  5  1  0
  5  6  1  0
  6  7  1  1
  6  8  1  0
  6  9  1  0
  9 10  1  0
M  END
