
     RDKit          3D

 25 26  0  0  0  0  0  0  0  0999 V2000
    4.6830    2.8090   -1.5650 N   0  0  0  0  0  0  0  0  0  0  0  0
    3.2930    2.7320   -0.5710 S   0  0  1  0  0  0  0  0  0  0  0  0
    3.5190    3.4680    0.7310 O   0  0  0  0  0  0  0  0  0  0  0  0
    2.1030    3.3220   -1.2730 O   0  0  0  0  0  0  0  0  0  0  0  0
    2.9080    1.0550   -0.2360 C   0  0  0  0  0  0  0  0  0  0  0  0
    3.4640    0.4530    0.8760 C   0  0  0  0  0  0  0  0  0  0  0  0
    3.1910   -0.8630    1.1770 C   0  0  0  0  0  0  0  0  0  0  0  0
    2.3300   -1.5940    0.3310 C   0  0  0  0  0  0  0  0  0  0  0  0
    2.1400   -2.9810    0.6620 C   0  0  0  0  0  0  0  0  0  0  0  0
    2.4870   -3.3960    1.8320 O   0  0  0  0  0  0  0  0  0  0  0  0
    1.6200   -3.9770   -0.1360 O   0  0  0  0  0  0  0  0  0  0  0  0
    1.7820   -1.0010   -0.7620 C   0  0  0  0  0  0  0  0  0  0  0  0
    0.6540   -1.8420   -1.7880 S   0  0  2  0  0  0  0  0  0  0  0  0
    1.2330   -3.0700   -2.4300 O   0  0  0  0  0  0  0  0  0  0  0  0
    0.2610   -0.9090   -2.9350 O   0  0  0  0  0  0  0  0  0  0  0  0
   -0.8280   -2.2180   -0.9730 N   0  0  0  0  0  0  0  0  0  0  0  0
   -1.4940   -0.9870   -0.5560 C   0  0  0  0  0  0  0  0  0  0  0  0
   -2.7870   -1.3230    0.1540 C   0  0  0  0  0  0  0  0  0  0  0  0
   -3.4070   -0.0230    0.5480 C   0  0  0  0  0  0  0  0  0  0  0  0
   -4.2800    0.6440   -0.2860 C   0  0  0  0  0  0  0  0  0  0  0  0
   -4.8480    1.8440    0.0860 C   0  0  0  0  0  0  0  0  0  0  0  0
   -4.5720    2.4330    1.3050 C   0  0  0  0  0  0  0  0  0  0  0  0
   -3.6990    1.7670    2.1380 C   0  0  0  0  0  0  0  0  0  0  0  0
   -3.1300    0.5680    1.7700 C   0  0  0  0  0  0  0  0  0  0  0  0
    2.0700    0.3460   -1.0610 C   0  0  0  0  0  0  0  0  0  0  0  0
  2  1  1  6
  2  3  2  0
  2  4  2  0
  2  5  1  0
  5  6  2  0
  5 25  1  0
  6  7  1  0
  7  8  2  0
  8  9  1  0
  8 12  1  0
  9 10  2  0
  9 11  1  0
 12 13  1  0
 12 25  2  0
 13 14  2  0
 13 15  2  0
 13 16  1  1
 16 17  1  0
 17 18  1  0
 18 19  1  0
 19 20  2  0
 19 24  1  0
 20 21  1  0
 21 22  2  0
 22 23  1  0
 23 24  2  0
M  END
