
     RDKit          3D

 15 15  0  0  0  0  0  0  0  0999 V2000
   -2.4500   -1.6410    0.1310 C   0  0  0  0  0  0  0  0  0  0  0  0
   -1.2090   -0.9160    0.6580 C   0  0  0  0  0  0  0  0  0  0  0  0
   -0.4500   -0.4040   -0.5380 C   0  0  1  0  0  0  0  0  0  0  0  0
   -0.1000   -1.4900   -1.3230 O   0  0  0  0  0  0  0  0  0  0  0  0
   -1.3560    0.3470   -1.3240 O   0  0  0  0  0  0  0  0  0  0  0  0
   -1.7980    1.4700   -0.6510 C   0  0  0  0  0  0  0  0  0  0  0  0
   -0.7210    2.2420    0.0340 C   0  0  2  0  0  0  0  0  0  0  0  0
    0.0120    3.0430   -0.8500 O   0  0  0  0  0  0  0  0  0  0  0  0
    0.1950    1.4510    0.7160 O   0  0  0  0  0  0  0  0  0  0  0  0
    0.6790    0.4920   -0.1980 C   0  0  2  0  0  0  0  0  0  0  0  0
    1.0810    1.2150   -1.3220 O   0  0  0  0  0  0  0  0  0  0  0  0
    1.8480   -0.1610    0.4570 C   0  0  1  0  0  0  0  0  0  0  0  0
    1.5030   -0.7790    1.6410 O   0  0  0  0  0  0  0  0  0  0  0  0
    2.5820   -1.1440   -0.4060 C   0  0  0  0  0  0  0  0  0  0  0  0
    3.7280   -1.5280    0.3330 O   0  0  0  0  0  0  0  0  0  0  0  0
  1  2  1  0
  2  3  1  0
  3  4  1  6
  3  5  1  0
  3 10  1  0
  5  6  1  0
  6  7  1  0
  7  8  1  6
  7  9  1  0
  9 10  1  0
 10 11  1  6
 10 12  1  0
 12 13  1  1
 12 14  1  0
 14 15  1  0
M  END
