
     RDKit          3D

 10  9  0  0  0  0  0  0  0  0999 V2000
   -2.8020   -0.8500   -1.0200 N   0  0  0  0  0  0  0  0  0  0  0  0
   -2.6890   -0.1670    0.2130 C   0  0  0  0  0  0  0  0  0  0  0  0
   -3.7240    0.0530    0.8800 O   0  0  0  0  0  0  0  0  0  0  0  0
   -1.3920    0.2750    0.7010 C   0  0  0  0  0  0  0  0  0  0  0  0
   -0.3370   -0.0440   -0.1550 O   0  0  0  0  0  0  0  0  0  0  0  0
    0.8140    0.4460    0.4600 C   0  0  0  0  0  0  0  0  0  0  0  0
    2.0270    0.1760   -0.3450 C   0  0  0  0  0  0  0  0  0  0  0  0
    1.8850   -0.4330   -1.4340 O   0  0  0  0  0  0  0  0  0  0  0  0
    3.3050    0.5510    0.0240 O   0  0  0  0  0  0  0  0  0  0  0  0
    4.3910    0.2900   -0.7320 O   0  0  0  0  0  0  0  0  0  0  0  0
  1  2  1  0
  2  3  2  0
  2  4  1  0
  4  5  1  0
  5  6  1  0
  6  7  1  0
  7  8  2  0
  7  9  1  0
  9 10  1  0
M  END
