
     RDKit          3D

 15 15  0  0  0  0  0  0  0  0999 V2000
    4.0650   -0.4320   -0.9320 O   0  0  0  0  0  0  0  0  0  0  0  0
    3.2380   -0.9560    0.0580 C   0  0  0  0  0  0  0  0  0  0  0  0
    2.6330    0.0860    0.7510 O   0  0  0  0  0  0  0  0  0  0  0  0
    1.8900    0.8350   -0.1260 C   0  0  2  0  0  0  0  0  0  0  0  0
    2.5260    2.1000   -0.1900 O   0  0  0  0  0  0  0  0  0  0  0  0
    0.4880    1.1050    0.3540 C   0  0  0  0  0  0  0  0  0  0  0  0
   -0.3290   -0.1340    0.5890 C   0  0  2  0  0  0  0  0  0  0  0  0
    0.2880   -0.9300    1.5540 O   0  0  0  0  0  0  0  0  0  0  0  0
   -0.4900   -0.9310   -0.6600 C   0  0  0  0  0  0  0  0  0  0  0  0
   -1.6060   -0.4820   -1.5510 C   0  0  0  0  0  0  0  0  0  0  0  0
   -2.7550   -0.0930   -0.9120 O   0  0  0  0  0  0  0  0  0  0  0  0
   -2.7380   -0.5450    0.4030 C   0  0  2  0  0  0  0  0  0  0  0  0
   -3.9800   -0.3840    1.0150 O   0  0  0  0  0  0  0  0  0  0  0  0
   -1.6840    0.2930    1.1240 C   0  0  2  0  0  0  0  0  0  0  0  0
   -1.9250    1.6350    0.8460 O   0  0  0  0  0  0  0  0  0  0  0  0
  1  2  1  0
  2  3  1  0
  3  4  1  0
  4  5  1  1
  4  6  1  0
  6  7  1  0
  7  8  1  1
  7  9  1  0
  7 14  1  0
  9 10  1  0
 10 11  1  0
 11 12  1  0
 12 13  1  1
 12 14  1  0
 14 15  1  6
M  END
