
     RDKit          3D

  9  8  0  0  0  0  0  0  0  0999 V2000
   -3.9920    0.0500    0.4630 C   0  0  0  0  0  0  0  0  0  0  0  0
   -2.7370   -0.6390    0.5440 O   0  0  0  0  0  0  0  0  0  0  0  0
   -1.5250    0.0680    0.4280 C   0  0  0  0  0  0  0  0  0  0  0  0
   -1.6400    1.3080    0.2550 O   0  0  0  0  0  0  0  0  0  0  0  0
   -0.3040   -0.5630    0.5000 O   0  0  0  0  0  0  0  0  0  0  0  0
    0.8630    0.1560    0.3840 N   0  0  0  0  0  0  0  0  0  0  0  0
    1.7510   -0.4170   -0.6060 C   0  0  0  0  0  0  0  0  0  0  0  0
    2.9980    0.4290   -0.6700 C   0  0  0  0  0  0  0  0  0  0  0  0
    3.5910    0.4130    0.6080 O   0  0  0  0  0  0  0  0  0  0  0  0
  1  2  1  0
  2  3  1  0
  3  4  2  0
  3  5  1  0
  5  6  1  0
  6  7  1  0
  7  8  1  0
  8  9  1  0
M  END
