
     RDKit          3D

  9  8  0  0  0  0  0  0  0  0999 V2000
    3.6410    0.3110    0.2600 C   0  0  0  0  0  0  0  0  0  0  0  0
    2.3750   -0.1350    0.6330 O   0  0  0  0  0  0  0  0  0  0  0  0
    1.4550    0.5530   -0.1380 C   0  0  0  0  0  0  0  0  0  0  0  0
    0.1900   -0.2100   -0.3980 C   0  0  0  0  0  0  0  0  0  0  0  0
   -0.5850   -0.3980    0.7400 O   0  0  0  0  0  0  0  0  0  0  0  0
   -1.6530   -1.1440    0.3400 N   0  0  0  0  0  0  0  0  0  0  0  0
   -2.8090   -0.3100    0.0580 C   0  0  1  0  0  0  0  0  0  0  0  0
   -2.9030    0.7620    0.9420 O   0  0  0  0  0  0  0  0  0  0  0  0
   -2.8090    0.1420   -1.2710 O   0  0  0  0  0  0  0  0  0  0  0  0
  1  2  1  0
  2  3  1  0
  3  4  1  0
  4  5  1  0
  5  6  1  0
  6  7  1  0
  7  8  1  1
  7  9  1  0
M  END
