
     RDKit          3D

 16 16  0  0  0  0  0  0  0  0999 V2000
   -0.9080    3.3810   -1.2580 O   0  0  0  0  0  0  0  0  0  0  0  0
   -0.0770    2.2530   -0.9800 C   0  0  0  0  0  0  0  0  0  0  0  0
   -0.8840    1.3590   -0.1090 C   0  0  1  0  0  0  0  0  0  0  0  0
   -2.0070    0.9920   -0.8550 O   0  0  0  0  0  0  0  0  0  0  0  0
   -0.1230    0.2480    0.4910 C   0  0  1  0  0  0  0  0  0  0  0  0
   -0.8550   -0.6920    1.3740 C   0  0  0  0  0  0  0  0  0  0  0  0
   -1.9950   -1.4520    0.8230 C   0  0  2  0  0  0  0  0  0  0  0  0
   -1.6790   -2.2760   -0.2610 O   0  0  0  0  0  0  0  0  0  0  0  0
   -3.1740   -0.7400    0.6520 O   0  0  0  0  0  0  0  0  0  0  0  0
    0.8480   -0.4850   -0.3740 C   0  0  2  0  0  0  0  0  0  0  0  0
    0.2460   -1.0380   -1.5010 O   0  0  0  0  0  0  0  0  0  0  0  0
    1.3630   -1.5570    0.4270 O   0  0  0  0  0  0  0  0  0  0  0  0
    2.6950   -1.6710    0.1180 C   0  0  0  0  0  0  0  0  0  0  0  0
    2.9670   -0.8920   -0.9960 O   0  0  0  0  0  0  0  0  0  0  0  0
    2.1020    0.2100   -0.7350 C   0  0  2  0  0  0  0  0  0  0  0  0
    2.6870    0.9020    0.3240 O   0  0  0  0  0  0  0  0  0  0  0  0
  1  2  1  0
  2  3  1  0
  3  4  1  6
  3  5  1  0
  5  6  1  6
  5 10  1  0
  6  7  1  0
  7  8  1  6
  7  9  1  0
 10 11  1  6
 10 12  1  0
 10 15  1  0
 12 13  1  0
 13 14  1  0
 14 15  1  0
 15 16  1  1
M  END
