
     RDKit          3D

 16 16  0  0  0  0  0  0  0  0999 V2000
   -4.1240   -1.3200    0.5980 O   0  0  0  0  0  0  0  0  0  0  0  0
   -2.8570   -1.3450    0.0250 C   0  0  0  0  0  0  0  0  0  0  0  0
   -2.1840   -0.0010    0.1640 C   0  0  0  0  0  0  0  0  0  0  0  0
   -0.8180    0.0310   -0.4340 C   0  0  2  0  0  0  0  0  0  0  0  0
   -0.7820   -0.2430   -1.7760 O   0  0  0  0  0  0  0  0  0  0  0  0
    0.1350   -0.9670    0.2390 C   0  0  0  0  0  0  0  0  0  0  0  0
    1.4500   -0.3800   -0.2310 C   0  0  2  0  0  0  0  0  0  0  0  0
    2.3860   -0.4090    0.8150 O   0  0  0  0  0  0  0  0  0  0  0  0
    3.4500   -1.2190    0.4270 C   0  0  2  0  0  0  0  0  0  0  0  0
    3.5370   -2.2510    1.3470 O   0  0  0  0  0  0  0  0  0  0  0  0
    4.6470   -0.4910    0.3740 O   0  0  0  0  0  0  0  0  0  0  0  0
    1.2290    0.9190   -0.6000 O   0  0  0  0  0  0  0  0  0  0  0  0
   -0.0430    1.2880   -0.1180 C   0  0  2  0  0  0  0  0  0  0  0  0
    0.0840    1.4530    1.2450 O   0  0  0  0  0  0  0  0  0  0  0  0
   -0.5630    2.5090   -0.8100 C   0  0  0  0  0  0  0  0  0  0  0  0
   -1.8130    2.8050   -0.2720 O   0  0  0  0  0  0  0  0  0  0  0  0
  1  2  1  0
  2  3  1  0
  3  4  1  0
  4  5  1  6
  4  6  1  0
  4 13  1  0
  6  7  1  0
  7  8  1  1
  7 12  1  0
  8  9  1  0
  9 10  1  1
  9 11  1  0
 12 13  1  0
 13 14  1  1
 13 15  1  0
 15 16  1  0
M  END
