
     RDKit          3D

 22 22  0  0  0  0  0  0  0  0999 V2000
    4.9940    0.7940    1.2280 C   0  0  0  0  0  0  0  0  0  0  0  0
    5.1760   -0.1520    0.0730 C   0  0  0  0  0  0  0  0  0  0  0  0
    3.8980   -0.2070   -0.7360 C   0  0  0  0  0  0  0  0  0  0  0  0
    2.8140   -0.6950    0.1890 C   0  0  0  0  0  0  0  0  0  0  0  0
    1.4610   -0.7920   -0.5280 C   0  0  0  0  0  0  0  0  0  0  0  0
    1.0330    0.4390   -1.0360 N   0  0  0  0  0  0  0  0  0  0  0  0
   -0.4370    0.4790   -1.8370 S   0  0  2  0  0  0  0  0  0  0  0  0
   -0.3160   -0.2980   -3.1440 O   0  0  0  0  0  0  0  0  0  0  0  0
   -0.6030    1.9360   -2.3530 O   0  0  0  0  0  0  0  0  0  0  0  0
   -1.8480    0.0570   -0.9650 C   0  0  0  0  0  0  0  0  0  0  0  0
   -2.6990    1.0960   -0.5310 C   0  0  0  0  0  0  0  0  0  0  0  0
   -3.7990    0.8600    0.2580 C   0  0  0  0  0  0  0  0  0  0  0  0
   -4.8340    2.1640    0.7800 S   0  0  1  0  0  0  0  0  0  0  0  0
   -4.2110    2.7450    2.2900 N   0  0  0  0  0  0  0  0  0  0  0  0
   -4.8330    3.2360   -0.2660 O   0  0  0  0  0  0  0  0  0  0  0  0
   -6.2300    1.6590    1.0470 O   0  0  0  0  0  0  0  0  0  0  0  0
   -4.0960   -0.4280    0.6470 C   0  0  0  0  0  0  0  0  0  0  0  0
   -3.2900   -1.4420    0.2380 C   0  0  0  0  0  0  0  0  0  0  0  0
   -2.1720   -1.2000   -0.5660 C   0  0  0  0  0  0  0  0  0  0  0  0
   -1.4770   -2.3990   -1.0190 C   0  0  0  0  0  0  0  0  0  0  0  0
   -0.7920   -2.4680   -2.0540 O   0  0  0  0  0  0  0  0  0  0  0  0
   -1.5600   -3.5850   -0.2600 O   0  0  0  0  0  0  0  0  0  0  0  0
  1  2  1  0
  2  3  1  0
  3  4  1  0
  4  5  1  0
  5  6  1  0
  7  6  1  1
  7  8  2  0
  7  9  2  0
  7 10  1  0
 10 11  2  0
 10 19  1  0
 11 12  1  0
 12 13  1  0
 12 17  2  0
 13 14  1  1
 13 15  2  0
 13 16  2  0
 17 18  1  0
 18 19  2  0
 19 20  1  0
 20 21  2  0
 20 22  1  0
M  END
