
     RDKit          3D

 15 16  0  0  0  0  0  0  0  0999 V2000
    4.3210   -0.1030    1.0760 C   0  0  0  0  0  0  0  0  0  0  0  0
    2.9130   -0.5940    1.0770 C   0  0  0  0  0  0  0  0  0  0  0  0
    2.1020   -0.0610    0.2350 N   0  0  0  0  0  0  0  0  0  0  0  0
    0.7550   -0.5290    0.2340 C   0  0  0  0  0  0  0  0  0  0  0  0
    0.4740   -1.7740    0.6680 N   0  0  0  0  0  0  0  0  0  0  0  0
   -0.7740   -2.2750    0.6930 C   0  0  0  0  0  0  0  0  0  0  0  0
   -1.0270   -3.4420    1.1020 O   0  0  0  0  0  0  0  0  0  0  0  0
   -1.7940   -1.4500    0.2470 C   0  0  0  0  0  0  0  0  0  0  0  0
   -3.1220   -1.6430    0.1440 N   0  0  0  0  0  0  0  0  0  0  0  0
   -3.6380   -0.5270   -0.3460 N   0  0  0  0  0  0  0  0  0  0  0  0
   -2.6850    0.3930   -0.5690 C   0  0  0  0  0  0  0  0  0  0  0  0
   -2.7900    1.7050   -1.0790 N   0  0  0  0  0  0  0  0  0  0  0  0
   -1.4770   -0.1730   -0.1950 C   0  0  0  0  0  0  0  0  0  0  0  0
   -0.2230    0.2950   -0.2060 N   0  0  0  0  0  0  0  0  0  0  0  0
    0.0910    1.6120   -0.6630 C   0  0  0  0  0  0  0  0  0  0  0  0
  1  2  1  0
  2  3  2  3
  3  4  1  0
  4  5  2  0
  4 14  1  0
  5  6  1  0
  6  7  2  0
  6  8  1  0
  8  9  2  0
  8 13  1  0
  9 10  1  0
 10 11  1  0
 11 12  1  0
 11 13  2  0
 13 14  1  0
 14 15  1  0
M  END
