
     RDKit          3D

 15 16  0  0  0  0  0  0  0  0999 V2000
   -2.5710    1.9830   -0.3850 C   0  0  0  0  0  0  0  0  0  0  0  0
   -1.2310    1.4020   -0.2800 N   0  0  0  0  0  0  0  0  0  0  0  0
   -1.0300    0.0560    0.1020 C   0  0  0  0  0  0  0  0  0  0  0  0
   -2.1140   -0.8050    0.2900 C   0  0  0  0  0  0  0  0  0  0  0  0
   -3.5120   -0.5370    0.1950 N   0  0  0  0  0  0  0  0  0  0  0  0
   -1.5630   -2.0190    0.5980 C   0  0  0  0  0  0  0  0  0  0  0  0
   -0.2530   -1.8700    0.5900 N   0  0  0  0  0  0  0  0  0  0  0  0
    0.1120   -0.5990    0.2890 N   0  0  0  0  0  0  0  0  0  0  0  0
    1.4780   -0.1720    0.3310 C   0  0  0  0  0  0  0  0  0  0  0  0
    1.9160    1.0370    0.4680 C   0  0  0  0  0  0  0  0  0  0  0  0
    3.3630    1.4320    0.4990 C   0  0  0  0  0  0  0  0  0  0  0  0
    4.2130    0.3380    0.3370 O   0  0  0  0  0  0  0  0  0  0  0  0
    3.7350   -0.9250    0.1940 N   0  0  0  0  0  0  0  0  0  0  0  0
    2.5060   -1.2330    0.1820 C   0  0  0  0  0  0  0  0  0  0  0  0
    2.0650   -2.6000    0.0220 N   0  0  0  0  0  0  0  0  0  0  0  0
  1  2  1  0
  2  3  1  0
  3  4  2  0
  3  8  1  0
  4  5  1  0
  4  6  1  0
  6  7  2  0
  7  8  1  0
  8  9  1  0
  9 10  2  0
  9 14  1  0
 10 11  1  0
 11 12  1  0
 12 13  1  0
 13 14  2  0
 14 15  1  0
M  END
