
     RDKit          3D

 15 16  0  0  0  0  0  0  0  0999 V2000
   -3.9030   -0.4930   -0.1210 C   0  0  0  0  0  0  0  0  0  0  0  0
   -2.5420   -0.9910   -0.0910 N   0  0  0  0  0  0  0  0  0  0  0  0
   -1.5790   -0.1370    0.0160 C   0  0  0  0  0  0  0  0  0  0  0  0
   -1.6710    1.2170    0.1080 N   0  0  0  0  0  0  0  0  0  0  0  0
   -0.4600    1.7070    0.2010 N   0  0  0  0  0  0  0  0  0  0  0  0
   -0.1490    3.1240    0.3170 C   0  0  0  0  0  0  0  0  0  0  0  0
    0.4450    0.7090    0.1740 C   0  0  0  0  0  0  0  0  0  0  0  0
    1.7690    0.6700    0.2340 N   0  0  0  0  0  0  0  0  0  0  0  0
    2.4310   -0.4960    0.1830 C   0  0  0  0  0  0  0  0  0  0  0  0
    3.9160   -0.4740    0.2560 C   0  0  0  0  0  0  0  0  0  0  0  0
    4.4350   -0.3730   -1.0420 O   0  0  0  0  0  0  0  0  0  0  0  0
    1.7740   -1.6630    0.0690 N   0  0  0  0  0  0  0  0  0  0  0  0
    0.4450   -1.6780    0.0040 C   0  0  0  0  0  0  0  0  0  0  0  0
   -0.3270   -2.8630   -0.1180 N   0  0  0  0  0  0  0  0  0  0  0  0
   -0.2480   -0.4760    0.0560 C   0  0  0  0  0  0  0  0  0  0  0  0
  1  2  1  0
  2  3  2  3
  3  4  1  0
  3 15  1  0
  4  5  1  0
  5  6  1  0
  5  7  1  0
  7  8  2  0
  7 15  1  0
  8  9  1  0
  9 10  1  0
  9 12  2  0
 10 11  1  0
 12 13  1  0
 13 14  1  0
 13 15  2  0
M  END
