
     RDKit          3D

 15 16  0  0  0  0  0  0  0  0999 V2000
   -2.7450    0.7490    1.3240 C   0  0  0  0  0  0  0  0  0  0  0  0
   -2.1410   -0.2120    0.3400 C   0  0  2  0  0  0  0  0  0  0  0  0
   -3.0080   -0.1370   -0.9140 C   0  0  0  0  0  0  0  0  0  0  0  0
   -2.3020   -1.5470    0.8570 N   0  0  0  0  0  0  0  0  0  0  0  0
   -1.2190   -2.3790    1.0440 N   0  0  0  0  0  0  0  0  0  0  0  0
   -0.0320   -1.9860    0.7900 C   0  0  0  0  0  0  0  0  0  0  0  0
    0.2670   -0.6530    0.2850 C   0  0  0  0  0  0  0  0  0  0  0  0
    1.6680   -0.2880    0.0770 C   0  0  0  0  0  0  0  0  0  0  0  0
    2.5590   -1.0750   -0.5640 N   0  0  0  0  0  0  0  0  0  0  0  0
    3.7440   -0.4990   -0.5740 N   0  0  0  0  0  0  0  0  0  0  0  0
    3.6470    0.7080    0.0780 C   0  0  0  0  0  0  0  0  0  0  0  0
    4.7190    1.6270    0.2760 N   0  0  0  0  0  0  0  0  0  0  0  0
    2.3590    0.7950    0.4600 N   0  0  0  0  0  0  0  0  0  0  0  0
   -0.7490    0.1740    0.0790 C   0  0  0  0  0  0  0  0  0  0  0  0
   -0.4800    1.4380   -0.3960 O   0  0  0  0  0  0  0  0  0  0  0  0
  2  1  1  1
  2  3  1  0
  2  4  1  0
  2 14  1  0
  4  5  1  0
  5  6  2  0
  6  7  1  0
  7  8  1  0
  7 14  2  0
  8  9  2  0
  8 13  1  0
  9 10  1  0
 10 11  1  0
 11 12  1  0
 11 13  2  0
 14 15  1  0
M  END
