
     RDKit          3D

 15 16  0  0  0  0  0  0  0  0999 V2000
    4.3980   -0.8530   -0.2480 C   0  0  0  0  0  0  0  0  0  0  0  0
    3.9740    0.4120    0.4460 C   0  0  0  0  0  0  0  0  0  0  0  0
    2.7360    0.2410    1.1420 N   0  0  0  0  0  0  0  0  0  0  0  0
    1.5790    0.2330    0.5500 C   0  0  0  0  0  0  0  0  0  0  0  0
    1.3220    0.3740   -0.7530 N   0  0  0  0  0  0  0  0  0  0  0  0
   -0.0160    0.3120   -1.0010 C   0  0  0  0  0  0  0  0  0  0  0  0
   -0.6110    0.1220    0.2180 C   0  0  0  0  0  0  0  0  0  0  0  0
   -2.0240   -0.0060    0.4680 C   0  0  0  0  0  0  0  0  0  0  0  0
   -2.5120   -0.1940    1.7260 N   0  0  0  0  0  0  0  0  0  0  0  0
   -3.8260   -0.2750    1.6460 N   0  0  0  0  0  0  0  0  0  0  0  0
   -4.2040   -0.1450    0.3640 C   0  0  0  0  0  0  0  0  0  0  0  0
   -5.3570   -0.1640   -0.1350 O   0  0  0  0  0  0  0  0  0  0  0  0
   -3.0580    0.0220   -0.3470 N   0  0  0  0  0  0  0  0  0  0  0  0
   -3.0250    0.1990   -1.7770 C   0  0  0  0  0  0  0  0  0  0  0  0
    0.3960    0.0780    1.1460 N   0  0  0  0  0  0  0  0  0  0  0  0
  1  2  1  0
  2  3  1  0
  3  4  2  3
  4  5  1  0
  4 15  1  0
  5  6  1  0
  6  7  2  0
  7  8  1  0
  7 15  1  0
  8  9  2  0
  8 13  1  0
  9 10  1  0
 10 11  1  0
 11 12  2  0
 11 13  1  0
 13 14  1  0
M  END
