
     RDKit          3D

 15 16  0  0  0  0  0  0  0  0999 V2000
    5.2800   -0.2600    0.0840 C   0  0  0  0  0  0  0  0  0  0  0  0
    3.8110   -0.0970   -0.0700 C   0  0  0  0  0  0  0  0  0  0  0  0
    3.1270    0.6520    0.7180 N   0  0  0  0  0  0  0  0  0  0  0  0
    1.7220    0.8040    0.5630 C   0  0  0  0  0  0  0  0  0  0  0  0
    1.0440    1.9640    0.5190 N   0  0  0  0  0  0  0  0  0  0  0  0
   -0.2450    1.6840    0.3660 N   0  0  0  0  0  0  0  0  0  0  0  0
   -0.4100    0.3600    0.3100 C   0  0  0  0  0  0  0  0  0  0  0  0
   -1.6950   -0.3520    0.1460 C   0  0  0  0  0  0  0  0  0  0  0  0
   -1.9070   -1.6650    0.0850 N   0  0  0  0  0  0  0  0  0  0  0  0
   -3.2280   -1.8660   -0.0700 C   0  0  0  0  0  0  0  0  0  0  0  0
   -3.7840   -2.9970   -0.1640 O   0  0  0  0  0  0  0  0  0  0  0  0
   -3.8770   -0.6890   -0.1100 N   0  0  0  0  0  0  0  0  0  0  0  0
   -2.9230    0.2500    0.0240 C   0  0  0  0  0  0  0  0  0  0  0  0
   -3.1930    1.7270    0.0350 C   0  0  0  0  0  0  0  0  0  0  0  0
    0.8050   -0.1740    0.4330 N   0  0  0  0  0  0  0  0  0  0  0  0
  1  2  1  0
  2  3  2  3
  3  4  1  0
  4  5  2  0
  4 15  1  0
  5  6  1  0
  6  7  2  0
  7  8  1  0
  7 15  1  0
  8  9  1  0
  8 13  2  0
  9 10  1  0
 10 11  2  0
 10 12  1  0
 12 13  1  0
 13 14  1  0
M  END
