
     RDKit          3D

 21 21  0  0  0  0  0  0  0  0999 V2000
   -4.1670    0.1580    2.1060 C   0  0  0  0  0  0  0  0  0  0  0  0
   -4.8370   -0.0810    0.7910 C   0  0  0  0  0  0  0  0  0  0  0  0
   -3.9350   -0.5260   -0.2070 O   0  0  0  0  0  0  0  0  0  0  0  0
   -2.8730    0.2930   -0.5480 C   0  0  0  0  0  0  0  0  0  0  0  0
   -2.8050    1.3740    0.0710 O   0  0  0  0  0  0  0  0  0  0  0  0
   -1.9000   -0.1290   -1.5890 C   0  0  0  0  0  0  0  0  0  0  0  0
   -0.8630    0.5110   -2.0220 C   0  0  0  0  0  0  0  0  0  0  0  0
   -0.4140    1.8730   -1.5350 C   0  0  0  0  0  0  0  0  0  0  0  0
    0.9270    1.7270   -0.9900 N   0  0  0  0  0  0  0  0  0  0  0  0
    1.1520    0.8530    0.0930 C   0  0  0  0  0  0  0  0  0  0  0  0
    0.1740    0.2200    0.5610 O   0  0  0  0  0  0  0  0  0  0  0  0
    2.5060    0.6990    0.6500 C   0  0  0  0  0  0  0  0  0  0  0  0
    3.4550    1.3380    0.1680 O   0  0  0  0  0  0  0  0  0  0  0  0
    2.7350   -0.1460    1.7010 O   0  0  0  0  0  0  0  0  0  0  0  0
    3.9650   -0.3750    2.3110 C   0  0  0  0  0  0  0  0  0  0  0  0
    4.9350   -0.9090    1.3410 C   0  0  0  0  0  0  0  0  0  0  0  0
    4.5290   -1.1130   -0.0030 N   0  0  0  0  0  0  0  0  0  0  0  0
    6.0990   -1.1710    1.7330 O   0  0  0  0  0  0  0  0  0  0  0  0
    0.0640   -0.3520   -3.3090 S   0  0  0  0  0  0  0  0  0  0  0  0
   -0.4390   -2.0690   -3.0410 C   0  0  0  0  0  0  0  0  0  0  0  0
   -2.1280   -1.7400   -2.3980 S   0  0  0  0  0  0  0  0  0  0  0  0
  1  2  1  0
  2  3  1  0
  3  4  1  0
  4  5  2  0
  4  6  1  0
  6  7  2  0
  6 21  1  0
  7  8  1  0
  7 19  1  0
  8  9  1  0
  9 10  1  0
 10 11  2  0
 10 12  1  0
 12 13  2  0
 12 14  1  0
 14 15  1  0
 15 16  1  0
 16 17  1  0
 16 18  2  0
 19 20  1  0
 20 21  1  0
M  END
