
     RDKit          3D

 21 21  0  0  0  0  0  0  0  0999 V2000
    6.7060    0.5420    1.4790 C   0  0  0  0  0  0  0  0  0  0  0  0
    5.3510    0.5660    1.9040 O   0  0  0  0  0  0  0  0  0  0  0  0
    4.3320    0.1040    1.0460 C   0  0  0  0  0  0  0  0  0  0  0  0
    4.6580   -0.3130   -0.0670 O   0  0  0  0  0  0  0  0  0  0  0  0
    2.9900    0.1240    1.4570 N   0  0  0  0  0  0  0  0  0  0  0  0
    1.8420   -0.2950    0.7080 C   0  0  0  0  0  0  0  0  0  0  0  0
    1.6350    0.5250   -0.5030 C   0  0  1  0  0  0  0  0  0  0  0  0
    2.6970    0.4400   -1.3670 O   0  0  0  0  0  0  0  0  0  0  0  0
    0.3700    0.1530   -1.2340 C   0  0  0  0  0  0  0  0  0  0  0  0
    0.4580   -0.1570   -2.4330 O   0  0  0  0  0  0  0  0  0  0  0  0
   -0.8820    0.1540   -0.5840 N   0  0  0  0  0  0  0  0  0  0  0  0
   -2.1200   -0.1760   -1.1720 C   0  0  0  0  0  0  0  0  0  0  0  0
   -2.3020   -0.5370   -2.4080 C   0  0  0  0  0  0  0  0  0  0  0  0
   -3.8470   -0.9630   -3.1930 S   0  0  0  0  0  0  0  0  0  0  0  0
   -5.2930   -0.7260   -2.1870 C   0  0  0  0  0  0  0  0  0  0  0  0
   -4.8750    0.4350   -0.8740 S   0  0  0  0  0  0  0  0  0  0  0  0
   -3.2820   -0.0800   -0.2390 C   0  0  0  0  0  0  0  0  0  0  0  0
   -3.0720   -0.3950    1.0260 C   0  0  0  0  0  0  0  0  0  0  0  0
   -4.2190   -0.2930    1.9120 C   0  0  0  0  0  0  0  0  0  0  0  0
   -4.0720   -0.5790    3.1190 O   0  0  0  0  0  0  0  0  0  0  0  0
   -5.4700    0.1080    1.4850 O   0  0  0  0  0  0  0  0  0  0  0  0
  1  2  1  0
  2  3  1  0
  3  4  2  0
  3  5  1  0
  5  6  1  0
  6  7  1  0
  7  8  1  6
  7  9  1  0
  9 10  2  0
  9 11  1  0
 11 12  1  0
 12 13  2  0
 12 17  1  0
 13 14  1  0
 14 15  1  0
 15 16  1  0
 16 17  1  0
 17 18  2  3
 18 19  1  0
 19 20  2  0
 19 21  1  0
M  END
