
     RDKit          3D

 21 21  0  0  0  0  0  0  0  0999 V2000
    4.8870   -1.1610    2.9200 C   0  0  0  0  0  0  0  0  0  0  0  0
    4.7680   -0.4730    1.6860 O   0  0  0  0  0  0  0  0  0  0  0  0
    3.5120   -0.2760    1.1050 C   0  0  0  0  0  0  0  0  0  0  0  0
    2.5350   -0.7360    1.7340 O   0  0  0  0  0  0  0  0  0  0  0  0
    3.3100    0.3910   -0.1060 N   0  0  0  0  0  0  0  0  0  0  0  0
    1.9660    0.5530   -0.6500 C   0  0  2  0  0  0  0  0  0  0  0  0
    2.1230    1.3290   -1.8970 C   0  0  0  0  0  0  0  0  0  0  0  0
    1.0200    1.6710   -2.7050 N   0  0  0  0  0  0  0  0  0  0  0  0
    3.2580    1.7370   -2.3220 O   0  0  0  0  0  0  0  0  0  0  0  0
    1.0630    1.2220    0.3550 C   0  0  0  0  0  0  0  0  0  0  0  0
   -0.3430    1.9230   -0.5410 S   0  0  0  0  0  0  0  0  0  0  0  0
   -1.3090    0.4650   -1.1050 C   0  0  2  0  0  0  0  0  0  0  0  0
   -2.1650    0.9340   -2.2610 C   0  0  0  0  0  0  0  0  0  0  0  0
   -2.1500    0.0450    0.0450 C   0  0  0  0  0  0  0  0  0  0  0  0
   -2.1380    0.6350    1.1620 O   0  0  0  0  0  0  0  0  0  0  0  0
   -3.0140   -1.0490   -0.0490 O   0  0  0  0  0  0  0  0  0  0  0  0
   -3.8270   -1.4830    1.0110 C   0  0  0  0  0  0  0  0  0  0  0  0
   -4.7950   -0.4320    1.4780 C   0  0  0  0  0  0  0  0  0  0  0  0
   -5.6560   -0.0390    0.4470 O   0  0  0  0  0  0  0  0  0  0  0  0
   -0.2160   -0.8360   -1.6790 S   0  0  0  0  0  0  0  0  0  0  0  0
    1.4270   -0.8090   -1.0120 C   0  0  0  0  0  0  0  0  0  0  0  0
  1  2  1  0
  2  3  1  0
  3  4  2  0
  3  5  1  0
  6  5  1  1
  6  7  1  0
  6 10  1  0
  6 21  1  0
  7  8  1  0
  7  9  2  0
 10 11  1  0
 11 12  1  0
 12 13  1  6
 12 14  1  0
 12 20  1  0
 14 15  2  0
 14 16  1  0
 16 17  1  0
 17 18  1  0
 18 19  1  0
 20 21  1  0
M  END
