
     RDKit          3D

 21 21  0  0  0  0  0  0  0  0999 V2000
   -3.2290   -2.4790    0.2070 C   0  0  0  0  0  0  0  0  0  0  0  0
   -3.2360   -0.9850    0.2820 C   0  0  0  0  0  0  0  0  0  0  0  0
   -4.3970   -0.3110    0.3560 N   0  0  0  0  0  0  0  0  0  0  0  0
   -4.4270    1.0310    0.4230 C   0  0  0  0  0  0  0  0  0  0  0  0
   -5.8760    1.7720    0.5090 S   0  0  0  0  0  0  0  0  0  0  0  0
   -3.2670    1.7020    0.4170 N   0  0  0  0  0  0  0  0  0  0  0  0
   -2.0700    1.0440    0.3440 C   0  0  0  0  0  0  0  0  0  0  0  0
   -1.0150    1.7050    0.3460 O   0  0  0  0  0  0  0  0  0  0  0  0
   -2.0000   -0.3250    0.2720 C   0  0  0  0  0  0  0  0  0  0  0  0
   -0.8130   -1.1640    0.2320 C   0  0  0  0  0  0  0  0  0  0  0  0
    0.4240   -0.5690    0.1380 O   0  0  0  0  0  0  0  0  0  0  0  0
    0.9570    0.1600   -0.8760 C   0  0  0  0  0  0  0  0  0  0  0  0
    0.1830    0.2880   -1.9030 O   0  0  0  0  0  0  0  0  0  0  0  0
    2.2530    0.7980   -0.9500 C   0  0  0  0  0  0  0  0  0  0  0  0
    3.1800    0.7970   -0.0360 C   0  0  0  0  0  0  0  0  0  0  0  0
    3.0910    0.1370    1.2740 C   0  0  0  0  0  0  0  0  0  0  0  0
    4.3660   -1.0950    1.4780 S   0  0  1  0  0  0  0  0  0  0  0  0
    3.8510   -2.1060    2.4610 O   0  0  0  0  0  0  0  0  0  0  0  0
    4.5770   -1.7970    0.1740 O   0  0  0  0  0  0  0  0  0  0  0  0
    2.5800    1.5570   -2.2340 C   0  0  0  0  0  0  0  0  0  0  0  0
    1.6640    2.5780   -2.4360 O   0  0  0  0  0  0  0  0  0  0  0  0
  1  2  1  0
  2  3  1  0
  2  9  2  0
  3  4  1  0
  4  5  2  0
  4  6  1  0
  6  7  1  0
  7  8  2  0
  7  9  1  0
  9 10  1  0
 10 11  1  0
 11 12  1  0
 12 13  2  0
 12 14  1  0
 14 15  2  3
 14 20  1  0
 15 16  1  0
 17 16  1  6
 17 18  2  0
 17 19  2  0
 20 21  1  0
M  END
