
     RDKit          3D

 21 21  0  0  0  0  0  0  0  0999 V2000
   -5.3120    2.1070   -0.4900 C   0  0  0  0  0  0  0  0  0  0  0  0
   -3.9150    1.9580   -0.3240 O   0  0  0  0  0  0  0  0  0  0  0  0
   -3.3340    0.6880   -0.5400 C   0  0  0  0  0  0  0  0  0  0  0  0
   -4.1000   -0.2320   -0.8670 O   0  0  0  0  0  0  0  0  0  0  0  0
   -1.9150    0.5200   -0.3740 C   0  0  0  0  0  0  0  0  0  0  0  0
   -1.3680   -0.8860   -0.2980 C   0  0  1  0  0  0  0  0  0  0  0  0
    0.0760   -0.6180   -0.2220 O   0  0  0  0  0  0  0  0  0  0  0  0
    0.8890   -1.1530   -1.1810 C   0  0  0  0  0  0  0  0  0  0  0  0
    0.3720   -1.8490   -2.0830 O   0  0  0  0  0  0  0  0  0  0  0  0
    2.3170   -0.8880   -1.1050 C   0  0  0  0  0  0  0  0  0  0  0  0
    2.9840   -0.1830   -0.2260 C   0  0  0  0  0  0  0  0  0  0  0  0
    2.2650    0.4640    0.8690 N   0  0  0  0  0  0  0  0  0  0  0  0
    4.3980   -0.0920   -0.3800 C   0  0  0  0  0  0  0  0  0  0  0  0
    5.1850    0.6100    0.4620 C   0  0  0  0  0  0  0  0  0  0  0  0
    4.6880    1.2960    1.5400 O   0  0  0  0  0  0  0  0  0  0  0  0
    4.9350   -0.8100   -1.5230 C   0  0  0  0  0  0  0  0  0  0  0  0
    6.4590   -0.9510   -2.0120 S   0  0  0  0  0  0  0  0  0  0  0  0
    3.4960   -1.5200   -2.2870 S   0  0  0  0  0  0  0  0  0  0  0  0
   -1.6640   -1.4650    1.0200 C   0  0  0  0  0  0  0  0  0  0  0  0
   -2.8520   -2.0760    1.3970 N   0  0  0  0  0  0  0  0  0  0  0  0
   -0.7420   -1.4110    1.9170 O   0  0  0  0  0  0  0  0  0  0  0  0
  1  2  1  0
  2  3  1  0
  3  4  2  0
  3  5  1  0
  6  5  1  1
  6  7  1  0
  6 19  1  0
  7  8  1  0
  8  9  2  0
  8 10  1  0
 10 11  2  0
 10 18  1  0
 11 12  1  0
 11 13  1  0
 13 14  2  3
 13 16  1  0
 14 15  1  0
 16 17  2  0
 16 18  1  0
 19 20  1  0
 19 21  2  0
M  END
