
     RDKit          3D

 21 21  0  0  0  0  0  0  0  0999 V2000
   -3.6320    1.4910   -1.3580 C   0  0  0  0  0  0  0  0  0  0  0  0
   -3.7440    0.7360   -0.2500 C   0  0  0  0  0  0  0  0  0  0  0  0
   -2.7860   -0.3300    0.0070 C   0  0  0  0  0  0  0  0  0  0  0  0
   -1.3570   -0.0080   -0.2520 C   0  0  0  0  0  0  0  0  0  0  0  0
   -1.0080    1.1360   -0.6630 O   0  0  0  0  0  0  0  0  0  0  0  0
   -0.3060   -0.9330   -0.0640 N   0  0  0  0  0  0  0  0  0  0  0  0
    1.0540   -0.5470   -0.3300 C   0  0  0  0  0  0  0  0  0  0  0  0
    1.5750    0.5730    0.5170 C   0  0  0  0  0  0  0  0  0  0  0  0
    2.9940    0.8490    0.1300 C   0  0  0  0  0  0  0  0  0  0  0  0
    3.6760    1.7380    0.6790 O   0  0  0  0  0  0  0  0  0  0  0  0
    3.5680    0.0910   -0.8700 O   0  0  0  0  0  0  0  0  0  0  0  0
    4.8900    0.2410   -1.3330 C   0  0  0  0  0  0  0  0  0  0  0  0
    5.8500    0.0110   -0.2290 C   0  0  0  0  0  0  0  0  0  0  0  0
    5.3490   -0.3120    1.0570 N   0  0  0  0  0  0  0  0  0  0  0  0
    7.0820    0.1050   -0.4490 O   0  0  0  0  0  0  0  0  0  0  0  0
   -3.1580   -1.5260    0.4300 C   0  0  0  0  0  0  0  0  0  0  0  0
   -4.5670   -1.9420    0.6920 C   0  0  0  0  0  0  0  0  0  0  0  0
   -5.3820   -0.7690    1.8500 S   0  0  0  0  0  0  0  0  0  0  0  0
   -5.0700    1.0810    0.8730 S   0  0  1  0  0  0  0  0  0  0  0  0
   -4.6880    2.1140    1.8650 O   0  0  0  0  0  0  0  0  0  0  0  0
   -6.2860    1.4850    0.1150 O   0  0  0  0  0  0  0  0  0  0  0  0
  1  2  2  0
  2  3  1  0
  2 19  1  0
  3  4  1  0
  3 16  2  0
  4  5  2  0
  4  6  1  0
  6  7  1  0
  7  8  1  0
  8  9  1  0
  9 10  2  0
  9 11  1  0
 11 12  1  0
 12 13  1  0
 13 14  1  0
 13 15  2  0
 16 17  1  0
 17 18  1  0
 19 18  1  1
 19 20  2  0
 19 21  2  0
M  END
