
     RDKit          3D

 24 26  0  0  0  0  0  0  0  0999 V2000
   -3.3660   -1.0840    0.3780 O   0  0  0  0  0  0  0  0  0  0  0  0
   -2.5690   -0.4260   -0.2990 C   0  0  0  0  0  0  0  0  0  0  0  0
   -1.1820   -0.3800   -0.0830 N   0  0  0  0  0  0  0  0  0  0  0  0
   -0.4970   -1.0670    0.9240 C   0  0  0  0  0  0  0  0  0  0  0  0
   -1.0730   -1.8600    1.8650 C   0  0  0  0  0  0  0  0  0  0  0  0
   -0.3070   -2.4740    2.8460 C   0  0  0  0  0  0  0  0  0  0  0  0
    1.0530   -2.2980    2.8950 C   0  0  0  0  0  0  0  0  0  0  0  0
    1.5810   -1.5100    1.9500 N   0  0  0  0  0  0  0  0  0  0  0  0
    0.9010   -0.8930    0.9820 C   0  0  0  0  0  0  0  0  0  0  0  0
    1.5740   -0.0890   -0.0110 N   0  0  0  0  0  0  0  0  0  0  0  0
    1.9870   -0.7200   -1.2280 C   0  0  0  0  0  0  0  0  0  0  0  0
    1.8260   -2.2120   -1.2720 C   0  0  0  0  0  0  0  0  0  0  0  0
    0.5440   -2.6590   -1.1150 O   0  0  0  0  0  0  0  0  0  0  0  0
    1.7850    1.3230    0.1960 C   0  0  0  0  0  0  0  0  0  0  0  0
    3.1960    1.7270    0.3340 C   0  0  0  0  0  0  0  0  0  0  0  0
    3.7390    2.1410    1.4450 N   0  0  0  0  0  0  0  0  0  0  0  0
    5.1380    2.4540    1.2340 C   0  0  0  0  0  0  0  0  0  0  0  0
    5.3510    2.1670   -0.1580 N   0  0  0  0  0  0  0  0  0  0  0  0
    4.2370    1.7500   -0.6770 C   0  0  0  0  0  0  0  0  0  0  0  0
   -3.1460    0.3820   -1.4380 C   0  0  1  0  0  0  0  0  0  0  0  0
   -4.6290    0.2140   -1.4850 C   0  0  0  0  0  0  0  0  0  0  0  0
   -5.0770    1.1010   -0.3330 C   0  0  0  0  0  0  0  0  0  0  0  0
   -3.9690    1.8050    0.0990 O   0  0  0  0  0  0  0  0  0  0  0  0
   -3.0510    1.8380   -0.9600 C   0  0  0  0  0  0  0  0  0  0  0  0
  1  2  2  0
  2  3  1  0
 20  2  1  1
  3  4  1  0
  4  5  2  0
  4  9  1  0
  5  6  1  0
  6  7  2  0
  7  8  1  0
  8  9  2  0
  9 10  1  0
 10 11  1  0
 10 14  1  0
 11 12  1  0
 12 13  1  0
 14 15  1  0
 15 16  2  0
 15 19  1  0
 16 17  1  0
 17 18  1  0
 18 19  2  0
 20 21  1  0
 20 24  1  0
 21 22  1  0
 22 23  1  0
 23 24  1  0
M  END
