
     RDKit          3D

 24 26  0  0  0  0  0  0  0  0999 V2000
    1.8650    5.0560   -0.9470 C   0  0  0  0  0  0  0  0  0  0  0  0
    0.7450    4.3880   -0.3260 N   0  0  0  0  0  0  0  0  0  0  0  0
    0.7040    2.9950   -0.0730 C   0  0  0  0  0  0  0  0  0  0  0  0
    1.7490    2.2150   -0.4150 N   0  0  0  0  0  0  0  0  0  0  0  0
    1.7660    0.8870   -0.1990 C   0  0  0  0  0  0  0  0  0  0  0  0
    2.8690    0.1330   -0.5720 O   0  0  0  0  0  0  0  0  0  0  0  0
    3.0200   -1.2280   -0.4100 C   0  0  0  0  0  0  0  0  0  0  0  0
    2.9490   -1.6900    1.0220 C   0  0  0  0  0  0  0  0  0  0  0  0
    3.0990   -3.0350    1.1640 O   0  0  0  0  0  0  0  0  0  0  0  0
    4.2770   -3.5680    0.7130 C   0  0  0  0  0  0  0  0  0  0  0  0
    0.6810    0.3460    0.3850 N   0  0  0  0  0  0  0  0  0  0  0  0
   -0.4000    1.0920    0.7490 C   0  0  0  0  0  0  0  0  0  0  0  0
   -0.4030    2.4370    0.5230 C   0  0  0  0  0  0  0  0  0  0  0  0
   -1.5820    2.9000    0.9800 N   0  0  0  0  0  0  0  0  0  0  0  0
   -2.3120    1.8870    1.4820 C   0  0  0  0  0  0  0  0  0  0  0  0
   -3.4790    1.9940    1.9920 O   0  0  0  0  0  0  0  0  0  0  0  0
   -1.5780    0.7790    1.3360 N   0  0  0  0  0  0  0  0  0  0  0  0
   -1.9710   -0.5520    1.7380 C   0  0  0  0  0  0  0  0  0  0  0  0
   -2.6840   -1.2790    0.6580 C   0  0  0  0  0  0  0  0  0  0  0  0
   -2.0190   -2.0670   -0.2800 C   0  0  0  0  0  0  0  0  0  0  0  0
   -2.6990   -2.7340   -1.2740 C   0  0  0  0  0  0  0  0  0  0  0  0
   -4.0670   -2.6530   -1.3880 C   0  0  0  0  0  0  0  0  0  0  0  0
   -4.7400   -1.8760   -0.4660 C   0  0  0  0  0  0  0  0  0  0  0  0
   -4.0560   -1.2070    0.5320 C   0  0  0  0  0  0  0  0  0  0  0  0
  1  2  1  0
  2  3  1  0
  3  4  2  0
  3 13  1  0
  4  5  1  0
  5  6  1  0
  5 11  2  0
  6  7  1  0
  7  8  1  0
  8  9  1  0
  9 10  1  0
 11 12  1  0
 12 13  2  0
 12 17  1  0
 13 14  1  0
 14 15  1  0
 15 16  2  0
 15 17  1  0
 17 18  1  0
 18 19  1  0
 19 20  2  0
 19 24  1  0
 20 21  1  0
 21 22  2  0
 22 23  1  0
 23 24  2  0
M  END
