
     RDKit          3D

 24 26  0  0  0  0  0  0  0  0999 V2000
    6.3810    1.8340   -0.0900 C   0  0  0  0  0  0  0  0  0  0  0  0
    6.8890    0.4640    0.2700 C   0  0  0  0  0  0  0  0  0  0  0  0
    8.0060    0.1040    0.8560 N   0  0  0  0  0  0  0  0  0  0  0  0
    7.9410   -1.2030    1.1070 O   0  0  0  0  0  0  0  0  0  0  0  0
    6.7810   -1.7050    0.6760 C   0  0  0  0  0  0  0  0  0  0  0  0
    6.1000   -0.6660    0.1340 C   0  0  0  0  0  0  0  0  0  0  0  0
    4.8300   -0.7000   -0.6910 C   0  0  0  0  0  0  0  0  0  0  0  0
    3.6890   -0.7400    0.1730 N   0  0  0  0  0  0  0  0  0  0  0  0
    2.3720   -0.6760   -0.3190 C   0  0  0  0  0  0  0  0  0  0  0  0
    2.0910   -0.7090   -1.5640 O   0  0  0  0  0  0  0  0  0  0  0  0
    1.2570   -0.5400    0.5600 N   0  0  0  0  0  0  0  0  0  0  0  0
   -0.0750   -0.3720    0.0060 C   0  0  0  0  0  0  0  0  0  0  0  0
   -1.1010   -0.0760    1.0880 C   0  0  0  0  0  0  0  0  0  0  0  0
   -2.3160    0.2920    0.3590 N   0  0  0  0  0  0  0  0  0  0  0  0
   -2.3070    1.5970   -0.2530 C   0  0  0  0  0  0  0  0  0  0  0  0
   -3.6470    2.2620    0.0130 C   0  0  0  0  0  0  0  0  0  0  0  0
   -4.6970    1.3890   -0.4590 N   0  0  0  0  0  0  0  0  0  0  0  0
   -5.8300    1.9390   -1.1530 C   0  0  0  0  0  0  0  0  0  0  0  0
   -4.6530   -0.0040   -0.2490 C   0  0  0  0  0  0  0  0  0  0  0  0
   -5.6520   -0.8460   -0.4690 C   0  0  0  0  0  0  0  0  0  0  0  0
   -5.5170   -2.1890   -0.2540 O   0  0  0  0  0  0  0  0  0  0  0  0
   -4.4210   -2.8460    0.2810 C   0  0  0  0  0  0  0  0  0  0  0  0
   -3.2910   -1.9000    0.4360 C   0  0  0  0  0  0  0  0  0  0  0  0
   -3.3670   -0.5800    0.2120 C   0  0  0  0  0  0  0  0  0  0  0  0
  1  2  1  0
  2  3  2  0
  2  6  1  0
  3  4  1  0
  4  5  1  0
  5  6  2  0
  6  7  1  0
  7  8  1  0
  8  9  1  0
  9 10  2  0
  9 11  1  0
 11 12  1  0
 12 13  1  0
 13 14  1  0
 14 15  1  0
 14 24  1  0
 15 16  1  0
 16 17  1  0
 17 18  1  0
 17 19  1  0
 19 20  2  0
 19 24  1  0
 20 21  1  0
 21 22  1  0
 22 23  1  0
 23 24  2  0
M  END
