
     RDKit          3D

 24 26  0  0  0  0  0  0  0  0999 V2000
   -3.1910   -0.7820    3.7760 C   0  0  0  0  0  0  0  0  0  0  0  0
   -2.9860   -0.9960    2.4120 O   0  0  0  0  0  0  0  0  0  0  0  0
   -2.2350    0.1010    1.9220 C   0  0  0  0  0  0  0  0  0  0  0  0
   -2.0310   -0.1510    0.4730 C   0  0  0  0  0  0  0  0  0  0  0  0
   -3.0710   -0.6120   -0.2850 N   0  0  0  0  0  0  0  0  0  0  0  0
   -2.6240   -0.7920   -1.5250 C   0  0  0  0  0  0  0  0  0  0  0  0
   -3.2060   -1.2010   -2.6910 C   0  0  0  0  0  0  0  0  0  0  0  0
   -2.5090   -1.2680   -3.8750 C   0  0  0  0  0  0  0  0  0  0  0  0
   -1.1760   -0.8950   -3.8150 C   0  0  0  0  0  0  0  0  0  0  0  0
   -0.6210   -0.4970   -2.6590 N   0  0  0  0  0  0  0  0  0  0  0  0
   -1.2870   -0.4300   -1.5040 C   0  0  0  0  0  0  0  0  0  0  0  0
   -0.9430   -0.0380   -0.2660 N   0  0  0  0  0  0  0  0  0  0  0  0
    0.3010    0.5580    0.1490 C   0  0  0  0  0  0  0  0  0  0  0  0
    0.2160    1.6050    0.9620 C   0  0  0  0  0  0  0  0  0  0  0  0
    1.2690    2.3500    1.5040 N   0  0  0  0  0  0  0  0  0  0  0  0
    0.9770    3.4740    2.3820 C   0  0  0  0  0  0  0  0  0  0  0  0
    2.0370    4.3000    2.9870 C   0  0  0  0  0  0  0  0  0  0  0  0
   -0.2170    3.7350    2.6220 O   0  0  0  0  0  0  0  0  0  0  0  0
    1.5900    0.0420   -0.2800 C   0  0  0  0  0  0  0  0  0  0  0  0
    2.6800    0.6370    0.0240 O   0  0  0  0  0  0  0  0  0  0  0  0
    1.7970   -1.1390   -1.0430 N   0  0  0  0  0  0  0  0  0  0  0  0
    3.1410   -1.5650   -1.4400 C   0  0  2  0  0  0  0  0  0  0  0  0
    3.2640   -2.1620   -2.8590 C   0  0  0  0  0  0  0  0  0  0  0  0
    3.4290   -3.0080   -1.6220 C   0  0  0  0  0  0  0  0  0  0  0  0
  1  2  1  0
  2  3  1  0
  3  4  1  0
  4  5  2  0
  4 12  1  0
  5  6  1  0
  6  7  2  0
  6 11  1  0
  7  8  1  0
  8  9  2  0
  9 10  1  0
 10 11  2  0
 11 12  1  0
 12 13  1  0
 13 14  2  3
 13 19  1  0
 14 15  1  0
 15 16  1  0
 16 17  1  0
 16 18  2  0
 19 20  2  0
 19 21  1  0
 22 21  1  6
 22 23  1  0
 22 24  1  0
 23 24  1  0
M  END
