
     RDKit          3D

 24 25  0  0  0  0  0  0  0  0999 V2000
   -4.9090   -3.8810    0.1950 C   0  0  0  0  0  0  0  0  0  0  0  0
   -3.4360   -3.5460    0.2450 C   0  0  0  0  0  0  0  0  0  0  0  0
   -3.2830   -2.0430    0.2480 C   0  0  0  0  0  0  0  0  0  0  0  0
   -1.8610   -1.6690    0.2960 N   0  0  0  0  0  0  0  0  0  0  0  0
   -1.5580   -0.3050    0.3050 C   0  0  0  0  0  0  0  0  0  0  0  0
   -2.5340    0.5380    0.2710 O   0  0  0  0  0  0  0  0  0  0  0  0
   -0.2210    0.2550    0.3500 C   0  0  0  0  0  0  0  0  0  0  0  0
    0.8340   -0.5350    0.3860 C   0  0  0  0  0  0  0  0  0  0  0  0
    2.2560   -0.2140    0.4340 C   0  0  0  0  0  0  0  0  0  0  0  0
    3.1890   -1.3060    0.2120 C   0  0  0  0  0  0  0  0  0  0  0  0
    2.7390   -2.4780   -0.0100 O   0  0  0  0  0  0  0  0  0  0  0  0
    4.5510   -1.1670    0.2250 O   0  0  0  0  0  0  0  0  0  0  0  0
    5.4480   -2.2480    0.0070 C   0  0  0  0  0  0  0  0  0  0  0  0
    5.2740   -2.8950   -1.3280 C   0  0  0  0  0  0  0  0  0  0  0  0
    2.8230    0.9530    0.6530 C   0  0  0  0  0  0  0  0  0  0  0  0
    2.1760    2.1950    0.8990 N   0  0  0  0  0  0  0  0  0  0  0  0
    0.8300    2.5100    0.5740 C   0  0  0  0  0  0  0  0  0  0  0  0
    0.5130    3.9050    0.4820 N   0  0  0  0  0  0  0  0  0  0  0  0
   -0.7960    4.2470    0.0400 C   0  0  0  0  0  0  0  0  0  0  0  0
   -1.5020    5.2270    0.5820 C   0  0  0  0  0  0  0  0  0  0  0  0
   -2.8160    5.3110   -0.1150 C   0  0  0  0  0  0  0  0  0  0  0  0
   -2.7340    4.2680   -1.0890 N   0  0  0  0  0  0  0  0  0  0  0  0
   -1.6000    3.6570   -1.0140 C   0  0  0  0  0  0  0  0  0  0  0  0
   -0.1380    1.6910    0.3530 N   0  0  0  0  0  0  0  0  0  0  0  0
  1  2  1  0
  2  3  1  0
  3  4  1  0
  4  5  1  0
  5  6  2  0
  5  7  1  0
  7  8  2  0
  7 24  1  0
  8  9  1  0
  9 10  1  0
  9 15  2  0
 10 11  2  0
 10 12  1  0
 12 13  1  0
 13 14  1  0
 15 16  1  0
 16 17  1  0
 17 18  1  0
 17 24  2  0
 18 19  1  0
 19 20  2  0
 19 23  1  0
 20 21  1  0
 21 22  1  0
 22 23  2  0
M  END
