
     RDKit          3D

 24 26  0  0  0  0  0  0  0  0999 V2000
   -0.3310    0.4610    0.7480 O   0  0  0  0  0  0  0  0  0  0  0  0
   -0.0700   -0.2230   -0.2760 C   0  0  0  0  0  0  0  0  0  0  0  0
   -0.7610   -1.5070   -0.5750 C   0  0  0  0  0  0  0  0  0  0  0  0
   -1.7660   -1.8010    0.5180 C   0  0  0  0  0  0  0  0  0  0  0  0
   -2.7120   -0.7050    0.5390 N   0  0  0  0  0  0  0  0  0  0  0  0
   -3.8040   -0.6600    1.4600 C   0  0  0  0  0  0  0  0  0  0  0  0
   -3.9220   -1.6090    2.2600 O   0  0  0  0  0  0  0  0  0  0  0  0
   -4.7640    0.4780    1.4610 C   0  0  2  0  0  0  0  0  0  0  0  0
   -6.1590    0.0750    1.1220 C   0  0  0  0  0  0  0  0  0  0  0  0
   -6.1180    0.0670   -0.4080 C   0  0  0  0  0  0  0  0  0  0  0  0
   -5.0750    1.1120   -0.6730 C   0  0  0  0  0  0  0  0  0  0  0  0
   -4.3960    1.3660    0.4850 O   0  0  0  0  0  0  0  0  0  0  0  0
    0.9200    0.1950   -1.2270 N   0  0  0  0  0  0  0  0  0  0  0  0
    1.6230    1.4140   -1.0070 C   0  0  0  0  0  0  0  0  0  0  0  0
    2.4050    1.4250    0.2910 C   0  0  0  0  0  0  0  0  0  0  0  0
    3.3940    0.3520    0.2970 N   0  0  0  0  0  0  0  0  0  0  0  0
    3.2400   -0.8910    0.7310 N   0  0  0  0  0  0  0  0  0  0  0  0
    4.3920   -1.5890    0.5690 C   0  0  0  0  0  0  0  0  0  0  0  0
    5.3240   -0.7450    0.0040 C   0  0  0  0  0  0  0  0  0  0  0  0
    6.6400   -0.8690   -0.3890 C   0  0  0  0  0  0  0  0  0  0  0  0
    7.3190    0.1870   -0.9360 C   0  0  0  0  0  0  0  0  0  0  0  0
    6.6480    1.3830   -1.0850 C   0  0  0  0  0  0  0  0  0  0  0  0
    5.3650    1.4710   -0.6920 N   0  0  0  0  0  0  0  0  0  0  0  0
    4.6730    0.4610   -0.1550 C   0  0  0  0  0  0  0  0  0  0  0  0
  1  2  2  0
  2  3  1  0
  2 13  1  0
  3  4  1  0
  4  5  1  0
  5  6  1  0
  6  7  2  0
  8  6  1  6
  8  9  1  0
  8 12  1  0
  9 10  1  0
 10 11  1  0
 11 12  1  0
 13 14  1  0
 14 15  1  0
 15 16  1  0
 16 17  1  0
 16 24  1  0
 17 18  2  0
 18 19  1  0
 19 20  2  0
 19 24  1  0
 20 21  1  0
 21 22  2  0
 22 23  1  0
 23 24  2  0
M  END
