
     RDKit          3D

 24 25  0  0  0  0  0  0  0  0999 V2000
   -4.3260   -3.2780   -1.8630 C   0  0  0  0  0  0  0  0  0  0  0  0
   -4.5810   -2.3880   -0.6650 C   0  0  0  0  0  0  0  0  0  0  0  0
   -3.3950   -2.4090    0.2880 C   0  0  0  0  0  0  0  0  0  0  0  0
   -2.2240   -1.9450   -0.3740 O   0  0  0  0  0  0  0  0  0  0  0  0
   -1.0130   -1.8580    0.2440 N   0  0  0  0  0  0  0  0  0  0  0  0
   -0.4380   -0.7170    0.3510 C   0  0  0  0  0  0  0  0  0  0  0  0
   -1.1140    0.4850   -0.2060 C   0  0  0  0  0  0  0  0  0  0  0  0
   -1.3760    1.4680    0.8130 N   0  0  0  0  0  0  0  0  0  0  0  0
   -2.0270    2.6820    0.4140 C   0  0  0  0  0  0  0  0  0  0  0  0
   -2.3390    2.8380   -0.7930 O   0  0  0  0  0  0  0  0  0  0  0  0
   -2.3320    3.7310    1.3710 C   0  0  0  0  0  0  0  0  0  0  0  0
   -2.0240    3.5830    2.5800 O   0  0  0  0  0  0  0  0  0  0  0  0
   -2.9730    4.9090    0.9380 N   0  0  0  0  0  0  0  0  0  0  0  0
   -3.2840    5.9650    1.8830 C   0  0  0  0  0  0  0  0  0  0  0  0
    0.8280   -0.6210    0.9960 N   0  0  0  0  0  0  0  0  0  0  0  0
    1.8780   -0.9270    0.3060 C   0  0  0  0  0  0  0  0  0  0  0  0
    3.1600   -0.8290    0.9660 C   0  0  0  0  0  0  0  0  0  0  0  0
    4.2970   -1.1200    0.3450 C   0  0  0  0  0  0  0  0  0  0  0  0
    5.5870   -1.0030    1.0670 C   0  0  1  0  0  0  0  0  0  0  0  0
    6.8440   -1.4590    0.4680 C   0  0  0  0  0  0  0  0  0  0  0  0
    6.6020   -0.0100    0.4570 C   0  0  0  0  0  0  0  0  0  0  0  0
    4.1680   -1.5320   -0.9980 N   0  0  0  0  0  0  0  0  0  0  0  0
    3.0860   -1.6500   -1.6640 C   0  0  0  0  0  0  0  0  0  0  0  0
    1.7650   -1.3570   -1.0910 C   0  0  0  0  0  0  0  0  0  0  0  0
  1  2  1  0
  2  3  1  0
  3  4  1  0
  4  5  1  0
  5  6  2  3
  6  7  1  0
  6 15  1  0
  7  8  1  0
  8  9  1  0
  9 10  2  0
  9 11  1  0
 11 12  2  0
 11 13  1  0
 13 14  1  0
 15 16  2  3
 16 17  1  0
 16 24  1  0
 17 18  2  0
 19 18  1  6
 18 22  1  0
 19 20  1  0
 19 21  1  0
 20 21  1  0
 22 23  2  0
 23 24  1  0
M  END
