
     RDKit          3D

 21 23  0  0  0  0  0  0  0  0999 V2000
    4.3700    2.3440   -1.5280 O   0  0  0  0  0  0  0  0  0  0  0  0
    3.8610    1.3210   -1.0040 C   0  0  0  0  0  0  0  0  0  0  0  0
    2.6180    1.4140   -0.5940 O   0  0  0  0  0  0  0  0  0  0  0  0
    2.0140    0.4070   -0.0420 C   0  0  0  0  0  0  0  0  0  0  0  0
    0.7080    0.5600    0.3710 C   0  0  0  0  0  0  0  0  0  0  0  0
   -0.0090    1.7400    0.2310 O   0  0  0  0  0  0  0  0  0  0  0  0
    0.0650   -0.5080    0.9570 C   0  0  0  0  0  0  0  0  0  0  0  0
   -1.2360   -0.4620    1.4040 O   0  0  0  0  0  0  0  0  0  0  0  0
   -2.3470   -0.2180    0.6150 C   0  0  0  0  0  0  0  0  0  0  0  0
   -2.2160   -0.0810   -0.7440 C   0  0  0  0  0  0  0  0  0  0  0  0
   -3.3310    0.1650   -1.5370 C   0  0  0  0  0  0  0  0  0  0  0  0
   -4.5840    0.2760   -0.9920 C   0  0  0  0  0  0  0  0  0  0  0  0
   -4.7340    0.1400    0.3740 C   0  0  0  0  0  0  0  0  0  0  0  0
   -6.0030    0.2490    0.9620 O   0  0  0  0  0  0  0  0  0  0  0  0
   -3.6150   -0.1020    1.1350 C   0  0  0  0  0  0  0  0  0  0  0  0
    0.7500   -1.7180    1.1200 C   0  0  0  0  0  0  0  0  0  0  0  0
    2.0570   -1.8540    0.7010 C   0  0  0  0  0  0  0  0  0  0  0  0
    2.7070   -0.7850    0.1120 C   0  0  0  0  0  0  0  0  0  0  0  0
    4.0160   -0.9250   -0.3060 C   0  0  0  0  0  0  0  0  0  0  0  0
    4.6160    0.1720   -0.8870 C   0  0  0  0  0  0  0  0  0  0  0  0
    5.9490    0.1100   -1.3390 O   0  0  0  0  0  0  0  0  0  0  0  0
  1  2  2  0
  2  3  1  0
  2 20  1  0
  3  4  1  0
  4  5  2  0
  4 18  1  0
  5  6  1  0
  5  7  1  0
  7  8  1  0
  7 16  2  0
  8  9  1  0
  9 10  2  0
  9 15  1  0
 10 11  1  0
 11 12  2  0
 12 13  1  0
 13 14  1  0
 13 15  2  0
 16 17  1  0
 17 18  2  0
 18 19  1  0
 19 20  2  0
 20 21  1  0
M  END
