
     RDKit          3D

 24 26  0  0  0  0  0  0  0  0999 V2000
   -0.7970   -2.8290    0.5290 C   0  0  0  0  0  0  0  0  0  0  0  0
   -1.3610   -1.5000    0.8560 N   0  0  0  0  0  0  0  0  0  0  0  0
   -0.8400   -0.7840    1.9770 C   0  0  0  0  0  0  0  0  0  0  0  0
    0.5550   -0.2680    1.7710 C   0  0  0  0  0  0  0  0  0  0  0  0
    1.1290    0.3670    2.6850 O   0  0  0  0  0  0  0  0  0  0  0  0
    1.2460   -0.4790    0.5610 N   0  0  0  0  0  0  0  0  0  0  0  0
    2.5370   -0.0560    0.2180 C   0  0  0  0  0  0  0  0  0  0  0  0
    3.0880   -0.5700   -0.9610 C   0  0  0  0  0  0  0  0  0  0  0  0
    4.3280   -0.2240   -1.4100 C   0  0  0  0  0  0  0  0  0  0  0  0
    5.1120    0.6690   -0.7070 C   0  0  0  0  0  0  0  0  0  0  0  0
    6.3420    1.2030   -0.8740 N   0  0  0  0  0  0  0  0  0  0  0  0
    6.5490    2.0230    0.1690 C   0  0  0  0  0  0  0  0  0  0  0  0
    5.5050    1.9970    0.9360 O   0  0  0  0  0  0  0  0  0  0  0  0
    4.5990    1.1880    0.4500 C   0  0  0  0  0  0  0  0  0  0  0  0
    3.3250    0.8240    0.8990 C   0  0  0  0  0  0  0  0  0  0  0  0
   -2.3940   -1.0420   -0.0130 C   0  0  0  0  0  0  0  0  0  0  0  0
   -2.9990    0.2020    0.1350 C   0  0  0  0  0  0  0  0  0  0  0  0
   -3.9890    0.6600   -0.6920 C   0  0  0  0  0  0  0  0  0  0  0  0
   -4.6560    1.8930   -0.6240 N   0  0  0  0  0  0  0  0  0  0  0  0
   -4.3870    2.8450    0.3700 C   0  0  0  0  0  0  0  0  0  0  0  0
   -3.5460    2.7240    1.2950 O   0  0  0  0  0  0  0  0  0  0  0  0
   -4.3550   -0.2310   -1.7160 C   0  0  0  0  0  0  0  0  0  0  0  0
   -3.7720   -1.4630   -1.8820 C   0  0  0  0  0  0  0  0  0  0  0  0
   -2.8090   -1.8340   -1.0260 N   0  0  0  0  0  0  0  0  0  0  0  0
  1  2  1  0
  2  3  1  0
  2 16  1  0
  3  4  1  0
  4  5  2  0
  4  6  1  0
  6  7  1  0
  7  8  2  0
  7 15  1  0
  8  9  1  0
  9 10  2  0
 10 11  1  0
 10 14  1  0
 11 12  2  0
 12 13  1  0
 13 14  1  0
 14 15  2  0
 16 17  2  0
 16 24  1  0
 17 18  1  0
 18 19  1  0
 18 22  2  0
 19 20  1  0
 20 21  2  0
 22 23  1  0
 23 24  2  0
M  END
