
     RDKit          3D

 26 28  0  0  0  0  0  0  0  0999 V2000
    6.0250    1.3630    0.6200 C   0  0  0  0  0  0  0  0  0  0  0  0
    5.3110    0.7550   -0.5540 C   0  0  0  0  0  0  0  0  0  0  0  0
    4.2050   -0.0700   -0.1300 N   0  0  0  0  0  0  0  0  0  0  0  0
    4.4160   -1.3960    0.1150 C   0  0  0  0  0  0  0  0  0  0  0  0
    5.5760   -1.9160   -0.0220 N   0  0  0  0  0  0  0  0  0  0  0  0
    3.4050   -2.2070    0.5140 N   0  0  0  0  0  0  0  0  0  0  0  0
    2.1860   -1.6830    0.6630 C   0  0  0  0  0  0  0  0  0  0  0  0
    1.1860   -2.3720    1.0320 O   0  0  0  0  0  0  0  0  0  0  0  0
    1.9860   -0.3810    0.4210 N   0  0  0  0  0  0  0  0  0  0  0  0
    0.6110    0.1770    0.5920 C   0  0  0  0  0  0  0  0  0  0  0  0
   -0.0580    0.0480   -0.6850 C   0  0  0  0  0  0  0  0  0  0  0  0
    0.6160   -0.3490   -1.7230 O   0  0  0  0  0  0  0  0  0  0  0  0
   -1.4210    0.2970   -0.9460 N   0  0  0  0  0  0  0  0  0  0  0  0
   -1.9650   -0.1080   -2.2660 C   0  0  0  0  0  0  0  0  0  0  0  0
   -3.0520   -1.1470   -1.9500 C   0  0  0  0  0  0  0  0  0  0  0  0
   -4.3000   -0.5080   -1.4390 C   0  0  0  0  0  0  0  0  0  0  0  0
   -4.3940   -0.5170    0.0870 C   0  0  1  0  0  0  0  0  0  0  0  0
   -3.9660   -1.8340    0.6520 C   0  0  0  0  0  0  0  0  0  0  0  0
   -3.5280    0.5820    0.5750 C   0  0  0  0  0  0  0  0  0  0  0  0
   -4.0570    1.3270    1.5140 C   0  0  0  0  0  0  0  0  0  0  0  0
   -3.3550    2.4040    2.0720 O   0  0  0  0  0  0  0  0  0  0  0  0
   -2.0790    2.8010    1.6520 C   0  0  0  0  0  0  0  0  0  0  0  0
   -1.5460    1.9560    0.5710 C   0  0  0  0  0  0  0  0  0  0  0  0
   -2.1800    0.9210    0.0730 C   0  0  0  0  0  0  0  0  0  0  0  0
    2.9720    0.4160    0.0310 C   0  0  0  0  0  0  0  0  0  0  0  0
    2.7500    1.6500   -0.1920 O   0  0  0  0  0  0  0  0  0  0  0  0
  1  2  1  0
  2  3  1  0
  3  4  1  0
  3 25  1  0
  4  5  2  0
  4  6  1  0
  6  7  1  0
  7  8  2  0
  7  9  1  0
  9 10  1  0
  9 25  1  0
 10 11  1  0
 11 12  2  0
 11 13  1  0
 13 14  1  0
 13 24  1  0
 14 15  1  0
 15 16  1  0
 16 17  1  0
 17 18  1  1
 17 19  1  0
 19 20  2  0
 19 24  1  0
 20 21  1  0
 21 22  1  0
 22 23  1  0
 23 24  2  0
 25 26  2  0
M  END
