
     RDKit          3D

 26 28  0  0  0  0  0  0  0  0999 V2000
    4.2530   -2.2610    0.1670 C   0  0  0  0  0  0  0  0  0  0  0  0
    4.2390   -0.7880    0.0720 C   0  0  0  0  0  0  0  0  0  0  0  0
    5.5180   -0.0670    0.4160 C   0  0  0  0  0  0  0  0  0  0  0  0
    3.1450   -0.0790   -0.3060 C   0  0  0  0  0  0  0  0  0  0  0  0
    3.3530    1.3500   -0.3270 C   0  0  0  0  0  0  0  0  0  0  0  0
    2.4320    2.3180   -0.1740 C   0  0  0  0  0  0  0  0  0  0  0  0
    1.0150    1.9810    0.0430 C   0  0  0  0  0  0  0  0  0  0  0  0
    0.1500    2.8860    0.8260 C   0  0  0  0  0  0  0  0  0  0  0  0
   -0.8710    2.1120    1.5460 N   0  0  0  0  0  0  0  0  0  0  0  0
   -2.2320    1.9980    1.2520 C   0  0  0  0  0  0  0  0  0  0  0  0
   -3.0720    2.1350    2.2230 O   0  0  0  0  0  0  0  0  0  0  0  0
   -2.8260    1.7340   -0.0550 C   0  0  0  0  0  0  0  0  0  0  0  0
   -3.1430    0.3330   -0.2100 N   0  0  0  0  0  0  0  0  0  0  0  0
   -4.3130   -0.2580    0.0580 C   0  0  0  0  0  0  0  0  0  0  0  0
   -5.2400    0.4620    0.4810 O   0  0  0  0  0  0  0  0  0  0  0  0
   -4.4990   -1.5950   -0.1190 N   0  0  0  0  0  0  0  0  0  0  0  0
   -5.7800   -2.1980    0.1820 C   0  0  0  0  0  0  0  0  0  0  0  0
   -3.4890   -2.3890   -0.5810 C   0  0  0  0  0  0  0  0  0  0  0  0
   -3.6050   -3.6210   -0.7620 O   0  0  0  0  0  0  0  0  0  0  0  0
   -2.2700   -1.8080   -0.8660 C   0  0  0  0  0  0  0  0  0  0  0  0
   -1.0780   -2.1950   -1.3110 O   0  0  0  0  0  0  0  0  0  0  0  0
   -0.2750   -1.1670   -1.3820 C   0  0  0  0  0  0  0  0  0  0  0  0
   -0.9680   -0.0990   -0.9780 N   0  0  0  0  0  0  0  0  0  0  0  0
   -2.1710   -0.4640   -0.6610 C   0  0  0  0  0  0  0  0  0  0  0  0
    1.1390   -0.8410   -1.7650 C   0  0  0  0  0  0  0  0  0  0  0  0
    1.9980   -0.8350   -0.5950 N   0  0  0  0  0  0  0  0  0  0  0  0
  1  2  1  0
  2  3  1  0
  2  4  2  3
  4  5  1  0
  4 26  1  0
  5  6  2  0
  6  7  1  0
  7  8  1  0
  8  9  1  0
  9 10  1  0
 10 11  2  0
 10 12  1  0
 12 13  1  0
 13 14  1  0
 13 24  1  0
 14 15  2  0
 14 16  1  0
 16 17  1  0
 16 18  1  0
 18 19  2  0
 18 20  1  0
 20 21  1  0
 20 24  2  0
 21 22  1  0
 22 23  2  0
 22 25  1  0
 23 24  1  0
 25 26  1  0
M  END
