
     RDKit          3D

 26 29  0  0  0  0  0  0  0  0999 V2000
    5.3210    1.6210    1.3400 C   0  0  0  0  0  0  0  0  0  0  0  0
    4.7390    0.3730    0.9060 N   0  0  0  0  0  0  0  0  0  0  0  0
    3.4230    0.2850    0.3780 C   0  0  0  0  0  0  0  0  0  0  0  0
    2.6070    1.3400    0.2370 N   0  0  0  0  0  0  0  0  0  0  0  0
    1.3570    1.2730   -0.2610 C   0  0  0  0  0  0  0  0  0  0  0  0
    0.8910    0.0800   -0.6440 N   0  0  0  0  0  0  0  0  0  0  0  0
    1.6200   -1.0100   -0.5430 C   0  0  0  0  0  0  0  0  0  0  0  0
    2.8960   -0.9380   -0.0340 C   0  0  0  0  0  0  0  0  0  0  0  0
    3.3800   -2.1920   -0.0560 N   0  0  0  0  0  0  0  0  0  0  0  0
    2.4410   -3.0060   -0.5590 C   0  0  0  0  0  0  0  0  0  0  0  0
    2.5210   -4.2480   -0.7370 O   0  0  0  0  0  0  0  0  0  0  0  0
    1.3420   -2.2630   -0.8620 N   0  0  0  0  0  0  0  0  0  0  0  0
    0.0250   -2.5910   -1.4310 C   0  0  0  0  0  0  0  0  0  0  0  0
   -1.0980   -2.0830   -0.5780 C   0  0  0  0  0  0  0  0  0  0  0  0
   -1.3660   -3.0170    0.4600 C   0  0  0  0  0  0  0  0  0  0  0  0
   -2.3240   -2.8340    1.4140 C   0  0  0  0  0  0  0  0  0  0  0  0
   -3.0280   -1.6650    1.3080 C   0  0  0  0  0  0  0  0  0  0  0  0
   -2.8030   -0.7000    0.2960 C   0  0  0  0  0  0  0  0  0  0  0  0
   -1.8140   -0.9280   -0.6600 C   0  0  0  0  0  0  0  0  0  0  0  0
   -3.6580    0.3520    0.4590 O   0  0  0  0  0  0  0  0  0  0  0  0
   -4.3200    1.3560   -0.1520 C   0  0  0  0  0  0  0  0  0  0  0  0
   -3.5040    2.6340   -0.0080 C   0  0  0  0  0  0  0  0  0  0  0  0
   -2.8810    3.0370   -1.1500 O   0  0  0  0  0  0  0  0  0  0  0  0
   -1.5410    2.8410   -1.2640 C   0  0  0  0  0  0  0  0  0  0  0  0
   -0.7890    2.4990   -0.0270 C   0  0  0  0  0  0  0  0  0  0  0  0
    0.5880    2.4290   -0.3670 O   0  0  0  0  0  0  0  0  0  0  0  0
  1  2  1  0
  2  3  1  0
  3  4  2  0
  3  8  1  0
  4  5  1  0
  5  6  2  0
  5 26  1  0
  6  7  1  0
  7  8  2  0
  7 12  1  0
  8  9  1  0
  9 10  1  0
 10 11  2  0
 10 12  1  0
 12 13  1  0
 13 14  1  0
 14 15  1  0
 14 19  2  0
 15 16  2  0
 16 17  1  0
 17 18  2  0
 18 19  1  0
 18 20  1  0
 20 21  1  0
 21 22  1  0
 22 23  1  0
 23 24  1  0
 24 25  1  0
 25 26  1  0
M  END
