
     RDKit          3D

 26 28  0  0  0  0  0  0  0  0999 V2000
    5.1380    0.3740    0.5490 C   0  0  0  0  0  0  0  0  0  0  0  0
    3.8280    0.8760    0.3400 O   0  0  0  0  0  0  0  0  0  0  0  0
    2.8790    0.0920   -0.3480 C   0  0  0  0  0  0  0  0  0  0  0  0
    3.4130   -0.8750   -1.3280 C   0  0  0  0  0  0  0  0  0  0  0  0
    4.1330   -0.2310   -2.3310 O   0  0  0  0  0  0  0  0  0  0  0  0
    1.5750    0.2150   -0.1270 C   0  0  0  0  0  0  0  0  0  0  0  0
    0.6790   -0.6310   -0.8800 C   0  0  0  0  0  0  0  0  0  0  0  0
   -0.3110   -1.4120   -0.5810 C   0  0  0  0  0  0  0  0  0  0  0  0
   -0.9650   -1.7950    0.5840 N   0  0  0  0  0  0  0  0  0  0  0  0
   -0.9960   -1.2060    1.8990 C   0  0  0  0  0  0  0  0  0  0  0  0
   -2.5470   -1.1670    2.0990 C   0  0  2  0  0  0  0  0  0  0  0  0
   -2.7200   -2.6680    1.9820 C   0  0  0  0  0  0  0  0  0  0  0  0
   -1.8570   -2.9480    0.8060 C   0  0  0  0  0  0  0  0  0  0  0  0
   -1.9000   -3.9960    0.1310 O   0  0  0  0  0  0  0  0  0  0  0  0
   -3.1340   -0.4510    0.9100 C   0  0  0  0  0  0  0  0  0  0  0  0
   -4.3540   -0.2700    0.3860 N   0  0  0  0  0  0  0  0  0  0  0  0
   -4.2110    0.4230   -0.7470 N   0  0  0  0  0  0  0  0  0  0  0  0
   -2.9170    0.6930   -0.9610 C   0  0  0  0  0  0  0  0  0  0  0  0
   -2.2910    0.1480    0.0700 N   0  0  0  0  0  0  0  0  0  0  0  0
   -2.1470    1.3160   -2.0170 C   0  0  0  0  0  0  0  0  0  0  0  0
   -1.3440    2.3230   -2.0400 C   0  0  0  0  0  0  0  0  0  0  0  0
   -0.8610    3.2640   -1.0670 C   0  0  0  0  0  0  0  0  0  0  0  0
   -0.2710    3.1800    0.0860 C   0  0  0  0  0  0  0  0  0  0  0  0
    0.1850    2.1730    0.9430 N   0  0  0  0  0  0  0  0  0  0  0  0
    1.1990    1.2000    0.8820 C   0  0  0  0  0  0  0  0  0  0  0  0
    1.9510    1.1820    1.9630 O   0  0  0  0  0  0  0  0  0  0  0  0
  1  2  1  0
  2  3  1  0
  3  4  1  0
  3  6  2  3
  4  5  1  0
  6  7  1  0
  6 25  1  0
  7  8  2  0
  8  9  1  0
  9 10  1  0
  9 13  1  0
 10 11  1  0
 11 12  1  6
 11 15  1  0
 12 13  1  0
 13 14  2  0
 15 16  2  0
 15 19  1  0
 16 17  1  0
 17 18  1  0
 18 19  2  0
 18 20  1  0
 20 21  2  0
 21 22  1  0
 22 23  2  0
 23 24  1  0
 24 25  1  0
 25 26  2  0
M  END
