
     RDKit          3D

 15 15  0  0  0  0  0  0  0  0999 V2000
   -1.8920   -1.7730   -1.5230 C   0  0  0  0  0  0  0  0  0  0  0  0
   -1.4870   -0.4380   -1.5830 O   0  0  0  0  0  0  0  0  0  0  0  0
   -0.7190   -0.0950   -0.4630 C   0  0  1  0  0  0  0  0  0  0  0  0
    0.4670    0.4130   -0.9150 O   0  0  0  0  0  0  0  0  0  0  0  0
    1.5950   -0.2590   -0.5220 C   0  0  1  0  0  0  0  0  0  0  0  0
    1.5930   -1.6000   -0.9580 O   0  0  0  0  0  0  0  0  0  0  0  0
    2.7810    0.4610   -1.1190 C   0  0  0  0  0  0  0  0  0  0  0  0
    3.7480    0.5620   -0.1750 O   0  0  0  0  0  0  0  0  0  0  0  0
    3.1830    0.4790    1.0820 C   0  0  0  0  0  0  0  0  0  0  0  0
    1.8760   -0.2590    0.9370 C   0  0  2  0  0  0  0  0  0  0  0  0
    2.1060   -1.5630    1.4320 O   0  0  0  0  0  0  0  0  0  0  0  0
   -1.4750    1.0380    0.2230 C   0  0  1  0  0  0  0  0  0  0  0  0
   -1.6160    2.1300   -0.6320 O   0  0  0  0  0  0  0  0  0  0  0  0
   -2.8760    0.6010    0.6060 C   0  0  0  0  0  0  0  0  0  0  0  0
   -3.5030    1.7320    1.2650 N   0  0  0  0  0  0  0  0  0  0  0  0
  1  2  1  0
  3  2  1  6
  3  4  1  0
  3 12  1  0
  4  5  1  0
  5  6  1  6
  5  7  1  0
  5 10  1  0
  7  8  1  0
  8  9  1  0
  9 10  1  0
 10 11  1  6
 12 13  1  6
 12 14  1  0
 14 15  1  0
M  END
