
     RDKit          3D

 26 28  0  0  0  0  0  0  0  0999 V2000
    5.3070    0.3180   -0.4230 C   0  0  0  0  0  0  0  0  0  0  0  0
    4.0610    0.9630   -0.5770 O   0  0  0  0  0  0  0  0  0  0  0  0
    2.8840    0.1720   -0.6050 C   0  0  0  0  0  0  0  0  0  0  0  0
    2.8530   -1.1860   -0.4930 C   0  0  0  0  0  0  0  0  0  0  0  0
    1.4940   -1.5760   -0.5690 C   0  0  0  0  0  0  0  0  0  0  0  0
    0.7530   -0.4370   -0.7240 C   0  0  0  0  0  0  0  0  0  0  0  0
    1.5920    0.6090   -0.7450 N   0  0  0  0  0  0  0  0  0  0  0  0
    1.2670    2.0500   -0.8790 C   0  0  0  0  0  0  0  0  0  0  0  0
    0.7420    2.6460    0.3570 C   0  0  0  0  0  0  0  0  0  0  0  0
    1.0730    2.0070    1.4300 O   0  0  0  0  0  0  0  0  0  0  0  0
   -0.0510    3.7850    0.5340 N   0  0  0  0  0  0  0  0  0  0  0  0
   -1.3170    4.0950   -0.0270 C   0  0  0  0  0  0  0  0  0  0  0  0
   -2.3170    3.3680   -0.2040 N   0  0  0  0  0  0  0  0  0  0  0  0
   -2.5980    1.9750    0.0660 C   0  0  0  0  0  0  0  0  0  0  0  0
   -2.8980    1.1670   -1.0170 C   0  0  0  0  0  0  0  0  0  0  0  0
   -3.1690   -0.2020   -0.8330 C   0  0  0  0  0  0  0  0  0  0  0  0
   -3.1600   -0.8440    0.4010 C   0  0  0  0  0  0  0  0  0  0  0  0
   -2.8600   -0.0110    1.4530 C   0  0  0  0  0  0  0  0  0  0  0  0
   -2.5820    1.3820    1.2930 C   0  0  0  0  0  0  0  0  0  0  0  0
   -3.3840   -2.2670    0.5900 N   0  0  0  0  0  0  0  0  0  0  0  0
   -2.2450   -3.1820    0.5210 C   0  0  0  0  0  0  0  0  0  0  0  0
   -2.4560   -4.2900   -0.0150 O   0  0  0  0  0  0  0  0  0  0  0  0
   -0.9100   -2.8750    1.0300 C   0  0  0  0  0  0  0  0  0  0  0  0
    0.0800   -3.6270    0.2360 N   0  0  0  0  0  0  0  0  0  0  0  0
    1.1290   -3.0080   -0.4810 C   0  0  0  0  0  0  0  0  0  0  0  0
    1.8360   -3.9010   -1.1360 O   0  0  0  0  0  0  0  0  0  0  0  0
  1  2  1  0
  2  3  1  0
  3  4  2  0
  3  7  1  0
  4  5  1  0
  5  6  2  0
  5 25  1  0
  6  7  1  0
  7  8  1  0
  8  9  1  0
  9 10  2  0
  9 11  1  0
 11 12  1  0
 12 13  2  0
 13 14  1  0
 14 15  2  0
 14 19  1  0
 15 16  1  0
 16 17  2  0
 17 18  1  0
 17 20  1  0
 18 19  2  0
 20 21  1  0
 21 22  2  0
 21 23  1  0
 23 24  1  0
 24 25  1  0
 25 26  2  0
M  END
