
     RDKit          3D

 25 28  0  0  0  0  0  0  0  0999 V2000
   -3.5840   -2.9240   -0.3980 C   0  0  0  0  0  0  0  0  0  0  0  0
   -3.1830   -1.5300   -0.1550 N   0  0  0  0  0  0  0  0  0  0  0  0
   -1.7770   -1.2400   -0.1400 C   0  0  0  0  0  0  0  0  0  0  0  0
   -0.9610   -2.1760   -0.3650 O   0  0  0  0  0  0  0  0  0  0  0  0
   -1.2660    0.0350    0.1140 N   0  0  0  0  0  0  0  0  0  0  0  0
    0.1070    0.4300    0.1510 C   0  0  0  0  0  0  0  0  0  0  0  0
    1.1770   -0.3900   -0.0600 C   0  0  0  0  0  0  0  0  0  0  0  0
    2.4870    0.0930   -0.0020 C   0  0  0  0  0  0  0  0  0  0  0  0
    2.7240    1.4170    0.2730 C   0  0  0  0  0  0  0  0  0  0  0  0
    1.6340    2.2180    0.4810 C   0  0  0  0  0  0  0  0  0  0  0  0
    0.4020    1.7400    0.4210 N   0  0  0  0  0  0  0  0  0  0  0  0
    4.0340    1.9130    0.3340 O   0  0  0  0  0  0  0  0  0  0  0  0
    5.0900    1.0430    0.1120 C   0  0  0  0  0  0  0  0  0  0  0  0
    6.3440    1.5230    0.1720 N   0  0  0  0  0  0  0  0  0  0  0  0
    7.4350    0.7620   -0.0270 C   0  0  0  0  0  0  0  0  0  0  0  0
    7.2510   -0.5900   -0.3100 C   0  0  0  0  0  0  0  0  0  0  0  0
    5.9670   -1.0850   -0.3720 C   0  0  0  0  0  0  0  0  0  0  0  0
    4.8680   -0.2870   -0.1640 C   0  0  0  0  0  0  0  0  0  0  0  0
    3.5650   -0.7730   -0.2230 O   0  0  0  0  0  0  0  0  0  0  0  0
   -4.2170   -0.5660    0.0220 C   0  0  2  0  0  0  0  0  0  0  0  0
   -4.2910    0.4440   -1.0920 C   0  0  0  0  0  0  0  0  0  0  0  0
   -4.8510    1.6770   -0.4340 C   0  0  0  0  0  0  0  0  0  0  0  0
   -4.6120    1.5280    0.9860 N   0  0  0  0  0  0  0  0  0  0  0  0
   -4.1590    0.2080    1.2520 C   0  0  0  0  0  0  0  0  0  0  0  0
   -3.7780   -0.2040    2.3670 O   0  0  0  0  0  0  0  0  0  0  0  0
  1  2  1  0
  2  3  1  0
 20  2  1  6
  3  4  2  0
  3  5  1  0
  5  6  1  0
  6  7  2  0
  6 11  1  0
  7  8  1  0
  8  9  2  0
  8 19  1  0
  9 10  1  0
  9 12  1  0
 10 11  2  0
 12 13  1  0
 13 14  2  0
 13 18  1  0
 14 15  1  0
 15 16  2  0
 16 17  1  0
 17 18  2  0
 18 19  1  0
 20 21  1  0
 20 24  1  0
 21 22  1  0
 22 23  1  0
 23 24  1  0
 24 25  2  0
M  END
