
     RDKit          3D

 26 28  0  0  0  0  0  0  0  0999 V2000
    5.2740    0.7670    1.0390 C   0  0  0  0  0  0  0  0  0  0  0  0
    4.6250   -0.0990    0.0340 C   0  0  0  0  0  0  0  0  0  0  0  0
    5.2730   -1.0140   -0.6240 O   0  0  0  0  0  0  0  0  0  0  0  0
    4.4690   -1.5920   -1.4070 N   0  0  0  0  0  0  0  0  0  0  0  0
    3.1650   -1.0750   -1.3190 C   0  0  0  0  0  0  0  0  0  0  0  0
    3.2760   -0.1140   -0.3900 C   0  0  0  0  0  0  0  0  0  0  0  0
    2.2700    0.8270    0.1540 C   0  0  0  0  0  0  0  0  0  0  0  0
    1.5950    0.3120    1.3850 C   0  0  0  0  0  0  0  0  0  0  0  0
    0.5830    1.2720    1.8610 C   0  0  0  0  0  0  0  0  0  0  0  0
    0.4560    1.3380    3.1520 O   0  0  0  0  0  0  0  0  0  0  0  0
   -0.2300    2.0950    1.0760 N   0  0  0  0  0  0  0  0  0  0  0  0
   -1.0620    1.7960   -0.0270 C   0  0  2  0  0  0  0  0  0  0  0  0
   -2.2810    2.5960    0.0900 N   0  0  0  0  0  0  0  0  0  0  0  0
   -3.3350    1.7870   -0.4330 C   0  0  0  0  0  0  0  0  0  0  0  0
   -4.0260    1.0530    0.6400 C   0  0  0  0  0  0  0  0  0  0  0  0
   -4.4730   -0.1770    0.6060 C   0  0  0  0  0  0  0  0  0  0  0  0
   -4.4430   -1.1840   -0.4250 C   0  0  0  0  0  0  0  0  0  0  0  0
   -3.5980   -2.1700   -0.6310 C   0  0  0  0  0  0  0  0  0  0  0  0
   -2.4190   -2.6780    0.0040 C   0  0  0  0  0  0  0  0  0  0  0  0
   -1.1350   -2.4580   -0.1040 C   0  0  0  0  0  0  0  0  0  0  0  0
   -0.3120   -1.5870   -0.9260 C   0  0  0  0  0  0  0  0  0  0  0  0
   -0.5270   -0.3390   -0.8860 N   0  0  0  0  0  0  0  0  0  0  0  0
   -1.3970    0.4230   -0.2090 O   0  0  0  0  0  0  0  0  0  0  0  0
    0.7880   -2.1100   -1.7330 N   0  0  0  0  0  0  0  0  0  0  0  0
    2.0090   -1.5500   -2.1000 C   0  0  0  0  0  0  0  0  0  0  0  0
    2.2230   -1.3960   -3.3950 O   0  0  0  0  0  0  0  0  0  0  0  0
  1  2  1  0
  2  3  1  0
  2  6  2  0
  3  4  1  0
  4  5  2  0
  5  6  1  0
  5 25  1  0
  6  7  1  0
  7  8  1  0
  8  9  1  0
  9 10  2  0
  9 11  1  0
 12 11  1  1
 12 13  1  0
 12 23  1  0
 13 14  1  0
 14 15  1  0
 15 16  2  0
 16 17  1  0
 17 18  2  0
 18 19  1  0
 19 20  2  0
 20 21  1  0
 21 22  2  0
 21 24  1  0
 22 23  1  0
 24 25  1  0
 25 26  2  0
M  END
