
     RDKit          3D

 26 27  0  0  0  0  0  0  0  0999 V2000
   -5.2110    0.6190    2.3650 C   0  0  0  0  0  0  0  0  0  0  0  0
   -3.9020    0.7690    2.5450 C   0  0  0  0  0  0  0  0  0  0  0  0
   -2.9140    0.1480    1.6460 C   0  0  0  0  0  0  0  0  0  0  0  0
   -2.0820   -0.7490    2.4550 N   0  0  0  0  0  0  0  0  0  0  0  0
   -1.0130   -1.4470    1.8050 C   0  0  0  0  0  0  0  0  0  0  0  0
   -0.5500   -0.8970    0.7970 N   0  0  0  0  0  0  0  0  0  0  0  0
    0.4990   -1.2950   -0.0830 C   0  0  0  0  0  0  0  0  0  0  0  0
    0.7000   -0.4270   -1.0700 C   0  0  0  0  0  0  0  0  0  0  0  0
    0.2620    0.8210   -1.6290 C   0  0  0  0  0  0  0  0  0  0  0  0
    0.2190    2.0520   -1.1400 C   0  0  0  0  0  0  0  0  0  0  0  0
   -0.3040    3.1010   -2.0140 C   0  0  0  0  0  0  0  0  0  0  0  0
   -0.3570    4.2640   -1.5470 O   0  0  0  0  0  0  0  0  0  0  0  0
   -0.7390    2.9080   -3.3080 O   0  0  0  0  0  0  0  0  0  0  0  0
   -1.2380    3.9720   -4.1230 C   0  0  0  0  0  0  0  0  0  0  0  0
    0.6540    2.3330    0.1500 O   0  0  0  0  0  0  0  0  0  0  0  0
    1.6270    1.6290    0.8430 C   0  0  0  0  0  0  0  0  0  0  0  0
    2.6890    1.1320    0.3720 C   0  0  0  0  0  0  0  0  0  0  0  0
    3.3560    0.1580    0.6330 N   0  0  0  0  0  0  0  0  0  0  0  0
    4.2810   -0.6400    0.0690 N   0  0  0  0  0  0  0  0  0  0  0  0
    4.3700   -2.0250   -0.0940 C   0  0  0  0  0  0  0  0  0  0  0  0
    5.6020   -2.4600    0.1110 O   0  0  0  0  0  0  0  0  0  0  0  0
    3.4670   -3.0840   -0.4230 C   0  0  0  0  0  0  0  0  0  0  0  0
    2.2100   -3.3270   -0.2790 C   0  0  0  0  0  0  0  0  0  0  0  0
    1.0860   -2.5650    0.3220 C   0  0  0  0  0  0  0  0  0  0  0  0
    0.5740   -3.1730    1.4330 C   0  0  0  0  0  0  0  0  0  0  0  0
   -0.4800   -2.6750    2.2330 N   0  0  0  0  0  0  0  0  0  0  0  0
  1  2  2  0
  2  3  1  0
  3  4  1  0
  4  5  1  0
  5  6  2  0
  5 26  1  0
  6  7  1  0
  7  8  2  0
  7 24  1  0
  8  9  1  0
  9 10  2  0
 10 11  1  0
 10 15  1  0
 11 12  2  0
 11 13  1  0
 13 14  1  0
 15 16  1  0
 16 17  2  0
 17 18  2  0
 18 19  1  0
 19 20  1  0
 20 21  2  0
 20 22  1  0
 22 23  2  0
 23 24  1  0
 24 25  2  0
 25 26  1  0
M  END
