
     RDKit          3D

 26 28  0  0  0  0  0  0  0  0999 V2000
   -3.8800   -2.7750    0.3520 C   0  0  0  0  0  0  0  0  0  0  0  0
   -2.4610   -2.4950    0.6530 C   0  0  0  0  0  0  0  0  0  0  0  0
   -1.8140   -3.2990    1.3610 O   0  0  0  0  0  0  0  0  0  0  0  0
   -1.8630   -1.3100    0.1260 N   0  0  0  0  0  0  0  0  0  0  0  0
   -2.6850   -0.4430   -0.6770 C   0  0  0  0  0  0  0  0  0  0  0  0
   -3.2110    0.7600    0.0660 C   0  0  0  0  0  0  0  0  0  0  0  0
   -3.6750    1.6820   -0.9000 O   0  0  0  0  0  0  0  0  0  0  0  0
   -2.9400    2.8280   -0.8330 C   0  0  0  0  0  0  0  0  0  0  0  0
   -1.5290    2.7520   -0.3720 C   0  0  0  0  0  0  0  0  0  0  0  0
   -0.4250    2.0880   -0.8540 C   0  0  0  0  0  0  0  0  0  0  0  0
    0.7480    2.2020   -0.1370 C   0  0  0  0  0  0  0  0  0  0  0  0
    0.7440    2.9980    1.0440 C   0  0  0  0  0  0  0  0  0  0  0  0
   -0.3530    3.6590    1.5220 C   0  0  0  0  0  0  0  0  0  0  0  0
   -1.4420    3.5030    0.7860 N   0  0  0  0  0  0  0  0  0  0  0  0
    2.0440    1.6440   -0.3210 N   0  0  0  0  0  0  0  0  0  0  0  0
    2.4760    0.3080   -0.6170 C   0  0  0  0  0  0  0  0  0  0  0  0
    3.9070    0.0290   -0.7420 N   0  0  0  0  0  0  0  0  0  0  0  0
    4.4680   -1.2170   -0.3730 C   0  0  0  0  0  0  0  0  0  0  0  0
    3.8180   -2.2970    0.1640 C   0  0  0  0  0  0  0  0  0  0  0  0
    4.7580   -3.3180    0.3750 C   0  0  0  0  0  0  0  0  0  0  0  0
    5.9110   -2.8460   -0.0240 O   0  0  0  0  0  0  0  0  0  0  0  0
    5.7850   -1.6080   -0.4730 C   0  0  0  0  0  0  0  0  0  0  0  0
    1.7300   -0.7010   -0.7910 N   0  0  0  0  0  0  0  0  0  0  0  0
    0.3910   -0.9910   -0.7870 C   0  0  0  0  0  0  0  0  0  0  0  0
   -0.2160   -1.2600   -1.8840 O   0  0  0  0  0  0  0  0  0  0  0  0
   -0.4660   -1.0280    0.4190 C   0  0  0  0  0  0  0  0  0  0  0  0
  1  2  1  0
  2  3  2  0
  2  4  1  0
  4  5  1  0
  4 26  1  0
  5  6  1  0
  6  7  1  0
  7  8  1  0
  8  9  1  0
  9 10  2  0
  9 14  1  0
 10 11  1  0
 11 12  2  0
 11 15  1  0
 12 13  1  0
 13 14  2  0
 15 16  1  0
 16 17  1  0
 16 23  2  0
 17 18  1  0
 18 19  1  0
 18 22  2  0
 19 20  2  0
 20 21  1  0
 21 22  1  0
 23 24  1  0
 24 25  2  0
 24 26  1  0
M  END
