
     RDKit          3D

 27 29  0  0  0  0  0  0  0  0999 V2000
    5.8540    1.1260   -2.1210 C   0  0  0  0  0  0  0  0  0  0  0  0
    4.7930    0.9730   -1.0580 C   0  0  0  0  0  0  0  0  0  0  0  0
    4.7300   -0.1060   -0.3220 C   0  0  0  0  0  0  0  0  0  0  0  0
    5.6960   -1.1090   -0.5780 O   0  0  0  0  0  0  0  0  0  0  0  0
    5.6310   -2.4150   -0.1130 C   0  0  0  0  0  0  0  0  0  0  0  0
    4.4930   -3.0900   -0.5550 F   0  0  0  0  0  0  0  0  0  0  0  0
    3.7410   -0.2990    0.7110 C   0  0  0  0  0  0  0  0  0  0  0  0
    3.7830   -1.4730    1.3290 O   0  0  0  0  0  0  0  0  0  0  0  0
    2.7360    0.5150    1.1950 N   0  0  0  0  0  0  0  0  0  0  0  0
    2.4180    1.8740    0.9020 C   0  0  0  0  0  0  0  0  0  0  0  0
    1.3100    1.9040   -0.1520 C   0  0  0  0  0  0  0  0  0  0  0  0
    0.2560    0.9500    0.3710 C   0  0  0  0  0  0  0  0  0  0  0  0
   -1.0300    0.7970   -0.0420 N   0  0  0  0  0  0  0  0  0  0  0  0
   -1.6350   -0.1540    0.6810 C   0  0  0  0  0  0  0  0  0  0  0  0
   -3.0400   -0.5710    0.4910 C   0  0  0  0  0  0  0  0  0  0  0  0
   -3.4590   -1.4770    1.2480 O   0  0  0  0  0  0  0  0  0  0  0  0
   -3.8470    0.0300   -0.4920 N   0  0  0  0  0  0  0  0  0  0  0  0
   -5.1840   -0.2790   -0.7640 C   0  0  0  0  0  0  0  0  0  0  0  0
   -5.9330   -1.2280   -0.1110 C   0  0  0  0  0  0  0  0  0  0  0  0
   -7.2720   -1.4830   -0.4390 C   0  0  0  0  0  0  0  0  0  0  0  0
   -7.9110   -0.7960   -1.4370 C   0  0  0  0  0  0  0  0  0  0  0  0
   -7.1780    0.1570   -2.1010 C   0  0  0  0  0  0  0  0  0  0  0  0
   -5.8660    0.4070   -1.7790 C   0  0  0  0  0  0  0  0  0  0  0  0
   -4.9460    1.6430   -2.6540 Cl  0  0  0  0  0  0  0  0  0  0  0  0
   -0.7230   -0.6400    1.5920 C   0  0  0  0  0  0  0  0  0  0  0  0
    0.4490    0.0660    1.3770 C   0  0  0  0  0  0  0  0  0  0  0  0
    1.7490   -0.1090    2.1330 C   0  0  0  0  0  0  0  0  0  0  0  0
  1  2  1  0
  2  3  2  3
  3  4  1  0
  3  7  1  0
  4  5  1  0
  5  6  1  0
  7  8  2  0
  7  9  1  0
  9 10  1  0
  9 27  1  0
 10 11  1  0
 11 12  1  0
 12 13  1  0
 12 26  2  0
 13 14  1  0
 14 15  1  0
 14 25  2  0
 15 16  2  0
 15 17  1  0
 17 18  1  0
 18 19  2  0
 18 23  1  0
 19 20  1  0
 20 21  2  0
 21 22  1  0
 22 23  2  0
 23 24  1  0
 25 26  1  0
 26 27  1  0
M  END
