
     RDKit          3D

 27 29  0  0  0  0  0  0  0  0999 V2000
   -8.0860    1.2280   -1.2150 C   0  0  0  0  0  0  0  0  0  0  0  0
   -7.0580    0.4330   -0.4880 C   0  0  0  0  0  0  0  0  0  0  0  0
   -7.1890   -0.8890   -0.0570 C   0  0  0  0  0  0  0  0  0  0  0  0
   -6.0040   -1.2210    0.5660 C   0  0  0  0  0  0  0  0  0  0  0  0
   -5.1560   -0.1710    0.5390 N   0  0  0  0  0  0  0  0  0  0  0  0
   -3.8050   -0.0980    1.0840 C   0  0  0  0  0  0  0  0  0  0  0  0
   -2.8050   -0.5200    0.0580 C   0  0  0  0  0  0  0  0  0  0  0  0
   -1.4400   -0.4320    0.6490 C   0  0  0  0  0  0  0  0  0  0  0  0
   -1.3190   -0.0530    1.8160 O   0  0  0  0  0  0  0  0  0  0  0  0
   -0.3350   -0.7880   -0.1510 N   0  0  0  0  0  0  0  0  0  0  0  0
    1.0000   -0.7580    0.2590 C   0  0  0  0  0  0  0  0  0  0  0  0
    1.4380   -0.3860    1.4800 C   0  0  0  0  0  0  0  0  0  0  0  0
    2.8200   -0.3950    1.7840 C   0  0  0  0  0  0  0  0  0  0  0  0
    3.7420   -0.7810    0.8480 C   0  0  0  0  0  0  0  0  0  0  0  0
    5.1000   -0.8160    1.0720 O   0  0  0  0  0  0  0  0  0  0  0  0
    5.9670   -0.0260    0.3400 C   0  0  0  0  0  0  0  0  0  0  0  0
    5.4910    0.9120   -0.5500 C   0  0  0  0  0  0  0  0  0  0  0  0
    6.4140    1.6810   -1.2640 C   0  0  0  0  0  0  0  0  0  0  0  0
    7.7640    1.5480   -1.1220 C   0  0  0  0  0  0  0  0  0  0  0  0
    8.6100    2.3300   -1.8490 F   0  0  0  0  0  0  0  0  0  0  0  0
    8.2450    0.6100   -0.2310 C   0  0  0  0  0  0  0  0  0  0  0  0
    9.9770    0.4300   -0.0400 Cl  0  0  0  0  0  0  0  0  0  0  0  0
    7.3480   -0.1560    0.4800 C   0  0  0  0  0  0  0  0  0  0  0  0
    3.2550   -1.1530   -0.3850 C   0  0  0  0  0  0  0  0  0  0  0  0
    4.0410   -1.5240   -1.3030 O   0  0  0  0  0  0  0  0  0  0  0  0
    1.9490   -1.1340   -0.6410 N   0  0  0  0  0  0  0  0  0  0  0  0
   -5.7950    0.8130   -0.0930 C   0  0  0  0  0  0  0  0  0  0  0  0
  1  2  1  0
  2  3  1  0
  2 27  2  0
  3  4  2  0
  4  5  1  0
  5  6  1  0
  5 27  1  0
  6  7  1  0
  7  8  1  0
  8  9  2  0
  8 10  1  0
 10 11  1  0
 11 12  2  0
 11 26  1  0
 12 13  1  0
 13 14  2  0
 14 15  1  0
 14 24  1  0
 15 16  1  0
 16 17  2  0
 16 23  1  0
 17 18  1  0
 18 19  2  0
 19 20  1  0
 19 21  1  0
 21 22  1  0
 21 23  2  0
 24 25  2  0
 24 26  1  0
M  END
