
     RDKit          3D

 27 29  0  0  0  0  0  0  0  0999 V2000
    8.1350    1.4530   -0.5400 C   0  0  0  0  0  0  0  0  0  0  0  0
    7.0240    0.4820   -0.2820 C   0  0  0  0  0  0  0  0  0  0  0  0
    7.3520   -0.7060   -0.1510 O   0  0  0  0  0  0  0  0  0  0  0  0
    5.6950    0.8890   -0.1940 N   0  0  0  0  0  0  0  0  0  0  0  0
    4.5930    0.0360    0.0460 C   0  0  0  0  0  0  0  0  0  0  0  0
    4.6650   -1.3210    0.2290 C   0  0  0  0  0  0  0  0  0  0  0  0
    3.5460   -2.0910    0.4590 C   0  0  0  0  0  0  0  0  0  0  0  0
    3.6310   -3.4440    0.6400 F   0  0  0  0  0  0  0  0  0  0  0  0
    2.2980   -1.5400    0.5180 C   0  0  0  0  0  0  0  0  0  0  0  0
    2.1650   -0.1620    0.3390 C   0  0  0  0  0  0  0  0  0  0  0  0
    0.8240    0.4290    0.4020 C   0  0  0  0  0  0  0  0  0  0  0  0
   -0.3290   -0.3230    0.6330 C   0  0  0  0  0  0  0  0  0  0  0  0
   -1.4310    0.4980    0.6380 C   0  0  0  0  0  0  0  0  0  0  0  0
   -2.8440    0.1480    0.8410 C   0  0  0  0  0  0  0  0  0  0  0  0
   -3.6840    1.0750    0.8030 O   0  0  0  0  0  0  0  0  0  0  0  0
   -3.2890   -1.1050    1.0650 O   0  0  0  0  0  0  0  0  0  0  0  0
   -4.5250   -1.6550    1.2740 C   0  0  0  0  0  0  0  0  0  0  0  0
   -5.5580   -1.5600    0.2230 C   0  0  0  0  0  0  0  0  0  0  0  0
   -6.0470   -0.2440   -0.1630 C   0  0  0  0  0  0  0  0  0  0  0  0
   -5.9220    0.2610   -1.3880 C   0  0  0  0  0  0  0  0  0  0  0  0
   -6.5300    1.5800   -1.3700 C   0  0  0  0  0  0  0  0  0  0  0  0
   -6.9140    1.7780   -0.1420 C   0  0  0  0  0  0  0  0  0  0  0  0
   -6.7860    0.7490    0.6470 C   0  0  0  0  0  0  0  0  0  0  0  0
   -0.9520    1.7210    0.4140 N   0  0  0  0  0  0  0  0  0  0  0  0
    0.3940    1.6750    0.2740 N   0  0  0  0  0  0  0  0  0  0  0  0
    3.2930    0.5740    0.1120 C   0  0  0  0  0  0  0  0  0  0  0  0
    3.2200    2.3190   -0.1250 Cl  0  0  0  0  0  0  0  0  0  0  0  0
  1  2  1  0
  2  3  2  0
  2  4  1  0
  4  5  1  0
  5  6  2  0
  5 26  1  0
  6  7  1  0
  7  8  1  0
  7  9  2  0
  9 10  1  0
 10 11  1  0
 10 26  2  0
 11 12  2  0
 11 25  1  0
 12 13  1  0
 13 14  1  0
 13 24  2  0
 14 15  2  0
 14 16  1  0
 16 17  1  0
 17 18  1  0
 18 19  1  0
 19 20  2  0
 19 23  1  0
 20 21  1  0
 21 22  2  0
 22 23  2  0
 24 25  1  0
 26 27  1  0
M  END
