
     RDKit          3D

 27 29  0  0  0  0  0  0  0  0999 V2000
    5.6580   -1.8190    2.1360 C   0  0  0  0  0  0  0  0  0  0  0  0
    5.4600   -0.7880    1.0460 C   0  0  0  0  0  0  0  0  0  0  0  0
    4.8750   -1.3910   -0.1780 C   0  0  0  0  0  0  0  0  0  0  0  0
    4.6410   -2.6210   -0.2000 O   0  0  0  0  0  0  0  0  0  0  0  0
    4.5660   -0.6300   -1.3350 N   0  0  0  0  0  0  0  0  0  0  0  0
    4.0340   -1.1090   -2.4850 N   0  0  0  0  0  0  0  0  0  0  0  0
    2.9070   -1.1400   -2.9970 C   0  0  0  0  0  0  0  0  0  0  0  0
    1.6850   -0.6150   -2.4600 C   0  0  0  0  0  0  0  0  0  0  0  0
    0.4790   -0.7300   -3.1640 C   0  0  0  0  0  0  0  0  0  0  0  0
   -0.7100   -0.2380   -2.6720 C   0  0  0  0  0  0  0  0  0  0  0  0
   -0.7240    0.3960   -1.4380 C   0  0  0  0  0  0  0  0  0  0  0  0
   -1.9050    0.8910   -0.9380 O   0  0  0  0  0  0  0  0  0  0  0  0
   -2.5380    0.5180    0.2110 C   0  0  0  0  0  0  0  0  0  0  0  0
   -2.0490   -0.4750    1.0370 C   0  0  0  0  0  0  0  0  0  0  0  0
   -2.7340   -0.8040    2.1820 C   0  0  0  0  0  0  0  0  0  0  0  0
   -3.9030   -0.1470    2.5030 C   0  0  0  0  0  0  0  0  0  0  0  0
   -4.5590   -0.4900    3.6360 F   0  0  0  0  0  0  0  0  0  0  0  0
   -4.4000    0.8450    1.6840 C   0  0  0  0  0  0  0  0  0  0  0  0
   -5.5710    1.5190    1.9860 C   0  0  0  0  0  0  0  0  0  0  0  0
   -6.0620    2.4980    1.1790 C   0  0  0  0  0  0  0  0  0  0  0  0
   -5.3960    2.8410    0.0340 C   0  0  0  0  0  0  0  0  0  0  0  0
   -4.2300    2.1750   -0.2720 C   0  0  0  0  0  0  0  0  0  0  0  0
   -3.3320    2.5830   -1.7390 Cl  0  0  0  0  0  0  0  0  0  0  0  0
   -3.7230    1.1850    0.5340 C   0  0  0  0  0  0  0  0  0  0  0  0
    0.4590    0.5060   -0.7540 C   0  0  0  0  0  0  0  0  0  0  0  0
    0.5250    1.0700    0.3730 O   0  0  0  0  0  0  0  0  0  0  0  0
    1.6120    0.0020   -1.2830 N   0  0  0  0  0  0  0  0  0  0  0  0
  1  2  1  0
  2  3  1  0
  3  4  2  0
  3  5  1  0
  5  6  1  0
  6  7  2  3
  7  8  1  0
  8  9  2  0
  8 27  1  0
  9 10  1  0
 10 11  2  0
 11 12  1  0
 11 25  1  0
 12 13  1  0
 13 14  2  0
 13 24  1  0
 14 15  1  0
 15 16  2  0
 16 17  1  0
 16 18  1  0
 18 19  2  0
 18 24  1  0
 19 20  1  0
 20 21  2  0
 21 22  1  0
 22 23  1  0
 22 24  2  0
 25 26  2  0
 25 27  1  0
M  END
