
     RDKit          3D

 27 29  0  0  0  0  0  0  0  0999 V2000
    6.0990    2.7060   -0.4510 C   0  0  0  0  0  0  0  0  0  0  0  0
    5.2850    2.4150    0.7850 C   0  0  0  0  0  0  0  0  0  0  0  0
    4.6780    1.0600    0.7370 C   0  0  0  0  0  0  0  0  0  0  0  0
    3.3740    0.8450    0.4670 N   0  0  0  0  0  0  0  0  0  0  0  0
    2.8980   -0.4260    0.4410 C   0  0  0  0  0  0  0  0  0  0  0  0
    1.6260   -0.8990    0.1940 C   0  0  0  0  0  0  0  0  0  0  0  0
    0.4500   -0.0820   -0.1130 C   0  0  0  0  0  0  0  0  0  0  0  0
   -0.2480    0.3080    0.8550 O   0  0  0  0  0  0  0  0  0  0  0  0
    0.0800    0.2720   -1.3760 O   0  0  0  0  0  0  0  0  0  0  0  0
   -1.0370    1.0520   -1.7150 C   0  0  0  0  0  0  0  0  0  0  0  0
   -2.3130    0.4320   -1.2700 C   0  0  0  0  0  0  0  0  0  0  0  0
   -2.2460   -0.6670   -0.6650 O   0  0  0  0  0  0  0  0  0  0  0  0
   -3.5750    1.0060   -1.4890 N   0  0  0  0  0  0  0  0  0  0  0  0
   -4.8210    0.4380   -1.0740 C   0  0  0  0  0  0  0  0  0  0  0  0
   -5.7780    0.1090   -1.9590 C   0  0  0  0  0  0  0  0  0  0  0  0
   -6.9380   -0.4510   -1.2230 C   0  0  0  0  0  0  0  0  0  0  0  0
   -6.5150   -0.3960    0.1960 C   0  0  0  0  0  0  0  0  0  0  0  0
   -7.2530   -0.8020    1.2510 F   0  0  0  0  0  0  0  0  0  0  0  0
   -5.3010    0.1160    0.2620 C   0  0  0  0  0  0  0  0  0  0  0  0
   -4.5070    0.3500    1.5030 C   0  0  0  0  0  0  0  0  0  0  0  0
    1.6570   -2.2950    0.2860 C   0  0  0  0  0  0  0  0  0  0  0  0
    0.5050   -3.2110    0.0930 C   0  0  0  0  0  0  0  0  0  0  0  0
    2.9230   -2.6380    0.5820 N   0  0  0  0  0  0  0  0  0  0  0  0
    3.6990   -1.5230    0.6820 C   0  0  0  0  0  0  0  0  0  0  0  0
    5.0210   -1.3320    0.9580 C   0  0  0  0  0  0  0  0  0  0  0  0
    5.4930   -0.0400    0.9810 C   0  0  0  0  0  0  0  0  0  0  0  0
    7.2020    0.1710    1.3380 Cl  0  0  0  0  0  0  0  0  0  0  0  0
  1  2  1  0
  2  3  1  0
  3  4  2  0
  3 26  1  0
  4  5  1  0
  5  6  1  0
  5 24  2  0
  6  7  1  0
  6 21  2  0
  7  8  2  0
  7  9  1  0
  9 10  1  0
 10 11  1  0
 11 12  2  0
 11 13  1  0
 13 14  1  0
 14 15  2  0
 14 19  1  0
 15 16  1  0
 16 17  1  0
 17 18  1  0
 17 19  2  0
 19 20  1  0
 21 22  1  0
 21 23  1  0
 23 24  1  0
 24 25  1  0
 25 26  2  0
 26 27  1  0
M  END
