
     RDKit          3D

 27 29  0  0  0  0  0  0  0  0999 V2000
   -6.6860   -0.7890    0.9410 C   0  0  0  0  0  0  0  0  0  0  0  0
   -5.7340   -0.4970    0.0730 C   0  0  0  0  0  0  0  0  0  0  0  0
   -6.0650   -0.3330   -1.3410 C   0  0  0  0  0  0  0  0  0  0  0  0
   -4.9150   -0.0640   -2.1280 N   0  0  0  0  0  0  0  0  0  0  0  0
   -3.7040    0.0740   -1.7270 C   0  0  0  0  0  0  0  0  0  0  0  0
   -2.7060    0.3540   -2.7980 C   0  0  0  0  0  0  0  0  0  0  0  0
   -1.8850   -0.7300   -2.9380 F   0  0  0  0  0  0  0  0  0  0  0  0
   -3.3280   -0.0600   -0.2970 C   0  0  0  0  0  0  0  0  0  0  0  0
   -1.9370    0.1220    0.0640 C   0  0  0  0  0  0  0  0  0  0  0  0
   -1.1160    0.3900   -0.8970 O   0  0  0  0  0  0  0  0  0  0  0  0
   -1.3420    0.0490    1.3280 N   0  0  0  0  0  0  0  0  0  0  0  0
    0.0590    0.2330    1.6130 C   0  0  0  0  0  0  0  0  0  0  0  0
    0.3600    0.5300    2.9530 C   0  0  0  0  0  0  0  0  0  0  0  0
    1.6450    0.7150    3.3940 C   0  0  0  0  0  0  0  0  0  0  0  0
    2.6520    0.5960    2.4490 C   0  0  0  0  0  0  0  0  0  0  0  0
    2.4090    0.3090    1.1380 C   0  0  0  0  0  0  0  0  0  0  0  0
    3.4010    0.1590    0.1330 N   0  0  0  0  0  0  0  0  0  0  0  0
    4.7750    0.0550    0.3670 C   0  0  0  0  0  0  0  0  0  0  0  0
    5.2560    0.0820    1.5100 O   0  0  0  0  0  0  0  0  0  0  0  0
    5.7310   -0.0950   -0.7610 C   0  0  0  0  0  0  0  0  0  0  0  0
    5.3960   -0.1460   -2.0890 C   0  0  0  0  0  0  0  0  0  0  0  0
    6.5480   -0.2890   -2.8310 C   0  0  0  0  0  0  0  0  0  0  0  0
    7.5680   -0.3190   -1.8740 C   0  0  0  0  0  0  0  0  0  0  0  0
    7.0240   -0.2010   -0.6870 O   0  0  0  0  0  0  0  0  0  0  0  0
    1.0760    0.1280    0.7410 C   0  0  0  0  0  0  0  0  0  0  0  0
   -4.3320   -0.3290    0.5010 C   0  0  0  0  0  0  0  0  0  0  0  0
   -4.0560   -0.5180    2.2170 Cl  0  0  0  0  0  0  0  0  0  0  0  0
  1  2  2  0
  2  3  1  0
  2 26  1  0
  3  4  1  0
  4  5  2  0
  5  6  1  0
  5  8  1  0
  6  7  1  0
  8  9  1  0
  8 26  2  0
  9 10  2  0
  9 11  1  0
 11 12  1  0
 12 13  2  0
 12 25  1  0
 13 14  1  0
 14 15  2  0
 15 16  1  0
 16 17  1  0
 16 25  2  0
 17 18  1  0
 18 19  2  0
 18 20  1  0
 20 21  2  0
 20 24  1  0
 21 22  1  0
 22 23  2  0
 23 24  1  0
 26 27  1  0
M  END
