
     RDKit          3D

 27 29  0  0  0  0  0  0  0  0999 V2000
    4.0320    4.0220   -0.3780 C   0  0  0  0  0  0  0  0  0  0  0  0
    2.6370    3.5850   -0.5820 N   0  0  0  0  0  0  0  0  0  0  0  0
    2.1440    2.3990   -0.0050 C   0  0  0  0  0  0  0  0  0  0  0  0
    2.8970    1.6970    0.6950 O   0  0  0  0  0  0  0  0  0  0  0  0
    0.7780    1.9930   -0.2190 C   0  0  0  0  0  0  0  0  0  0  0  0
   -0.1130    2.7120   -0.9780 C   0  0  0  0  0  0  0  0  0  0  0  0
   -1.3890    2.3630   -1.1960 N   0  0  0  0  0  0  0  0  0  0  0  0
   -1.8430    1.2450   -0.6490 C   0  0  0  0  0  0  0  0  0  0  0  0
   -3.1620    0.8920   -0.8810 C   0  0  0  0  0  0  0  0  0  0  0  0
   -3.6520   -0.2680   -0.3200 C   0  0  0  0  0  0  0  0  0  0  0  0
   -4.9630   -0.6760   -0.5130 O   0  0  0  0  0  0  0  0  0  0  0  0
   -5.8080    0.1300   -1.3100 C   0  0  0  0  0  0  0  0  0  0  0  0
   -2.8260   -1.0730    0.4700 C   0  0  0  0  0  0  0  0  0  0  0  0
   -3.2720   -2.2330    1.0470 O   0  0  0  0  0  0  0  0  0  0  0  0
   -2.4040   -3.0160    1.8370 C   0  0  0  0  0  0  0  0  0  0  0  0
   -1.5210   -0.6820    0.6730 C   0  0  0  0  0  0  0  0  0  0  0  0
   -0.9940    0.4720    0.1290 C   0  0  0  0  0  0  0  0  0  0  0  0
    0.3140    0.8130    0.3630 C   0  0  0  0  0  0  0  0  0  0  0  0
    1.1050   -0.0250    1.1620 N   0  0  0  0  0  0  0  0  0  0  0  0
    1.8860   -1.1040    0.6710 C   0  0  0  0  0  0  0  0  0  0  0  0
    1.9160   -1.4060   -0.6740 C   0  0  0  0  0  0  0  0  0  0  0  0
    2.6560   -2.4390   -1.1960 C   0  0  0  0  0  0  0  0  0  0  0  0
    3.4090   -3.2210   -0.3490 C   0  0  0  0  0  0  0  0  0  0  0  0
    4.3370   -4.5210   -1.0290 Cl  0  0  0  0  0  0  0  0  0  0  0  0
    3.3900   -2.9290    1.0110 C   0  0  0  0  0  0  0  0  0  0  0  0
    2.6410   -1.8880    1.5180 C   0  0  0  0  0  0  0  0  0  0  0  0
    2.6860   -1.6810    2.8550 F   0  0  0  0  0  0  0  0  0  0  0  0
  1  2  1  0
  2  3  1  0
  3  4  2  0
  3  5  1  0
  5  6  2  0
  5 18  1  0
  6  7  1  0
  7  8  2  0
  8  9  1  0
  8 17  1  0
  9 10  2  0
 10 11  1  0
 10 13  1  0
 11 12  1  0
 13 14  1  0
 13 16  2  0
 14 15  1  0
 16 17  1  0
 17 18  2  0
 18 19  1  0
 19 20  1  0
 20 21  2  0
 20 26  1  0
 21 22  1  0
 22 23  2  0
 23 24  1  0
 23 25  1  0
 25 26  2  0
 26 27  1  0
M  END
