
     RDKit          3D

 27 29  0  0  0  0  0  0  0  0999 V2000
   -6.9470    1.6160    0.5080 C   0  0  0  0  0  0  0  0  0  0  0  0
   -6.2610    0.3200    0.2550 C   0  0  0  0  0  0  0  0  0  0  0  0
   -4.9700    0.2440    0.0050 C   0  0  0  0  0  0  0  0  0  0  0  0
   -4.1440    1.8110    0.0030 Cl  0  0  0  0  0  0  0  0  0  0  0  0
   -4.3180   -1.0120   -0.3350 C   0  0  0  0  0  0  0  0  0  0  0  0
   -5.1370   -2.1160   -0.6450 C   0  0  0  0  0  0  0  0  0  0  0  0
   -4.6130   -3.3370   -0.9930 C   0  0  0  0  0  0  0  0  0  0  0  0
   -3.2550   -3.4500   -1.0290 C   0  0  0  0  0  0  0  0  0  0  0  0
   -2.7030   -4.6370   -1.3690 F   0  0  0  0  0  0  0  0  0  0  0  0
   -2.4260   -2.3790   -0.7270 C   0  0  0  0  0  0  0  0  0  0  0  0
   -2.9460   -1.1370   -0.3720 C   0  0  0  0  0  0  0  0  0  0  0  0
   -2.0640   -0.1210    0.0480 N   0  0  0  0  0  0  0  0  0  0  0  0
   -0.6940    0.0090   -0.2540 C   0  0  0  0  0  0  0  0  0  0  0  0
   -0.1210   -0.8140   -0.9710 O   0  0  0  0  0  0  0  0  0  0  0  0
    0.1230    1.1520    0.2830 C   0  0  0  0  0  0  0  0  0  0  0  0
    1.5550    1.0690   -0.1140 C   0  0  0  0  0  0  0  0  0  0  0  0
    2.2930   -0.1380    0.3570 C   0  0  0  0  0  0  0  0  0  0  0  0
    3.6580   -0.0200   -0.1320 N   0  0  0  0  0  0  0  0  0  0  0  0
    4.6520    0.5890    0.5640 C   0  0  0  0  0  0  0  0  0  0  0  0
    5.7970    0.5250   -0.1730 C   0  0  0  0  0  0  0  0  0  0  0  0
    5.4560   -0.1320   -1.3120 N   0  0  0  0  0  0  0  0  0  0  0  0
    4.1600   -0.4640   -1.2910 C   0  0  0  0  0  0  0  0  0  0  0  0
    3.5140   -1.0730   -2.1700 O   0  0  0  0  0  0  0  0  0  0  0  0
    7.0590    1.1060    0.3220 C   0  0  0  0  0  0  0  0  0  0  0  0
    6.8990    1.6850    1.5720 O   0  0  0  0  0  0  0  0  0  0  0  0
    5.7510    1.7480    2.3070 C   0  0  0  0  0  0  0  0  0  0  0  0
    4.6180    1.2310    1.8710 C   0  0  0  0  0  0  0  0  0  0  0  0
  1  2  1  0
  2  3  2  3
  3  4  1  0
  3  5  1  0
  5  6  2  0
  5 11  1  0
  6  7  1  0
  7  8  2  0
  8  9  1  0
  8 10  1  0
 10 11  2  0
 11 12  1  0
 12 13  1  0
 13 14  2  0
 13 15  1  0
 15 16  1  0
 16 17  1  0
 17 18  1  0
 18 19  1  0
 18 22  1  0
 19 20  2  0
 19 27  1  0
 20 21  1  0
 20 24  1  0
 21 22  1  0
 22 23  2  0
 24 25  1  0
 25 26  1  0
 26 27  2  0
M  END
