
     RDKit          3D

 14 15  0  0  0  0  0  0  0  0999 V2000
   -3.2490   -0.6300   -1.1400 C   0  0  0  0  0  0  0  0  0  0  0  0
   -2.1090   -1.3380   -0.6990 O   0  0  0  0  0  0  0  0  0  0  0  0
   -0.9860   -0.6420   -0.3370 C   0  0  0  0  0  0  0  0  0  0  0  0
   -0.9760    0.7510   -0.4050 C   0  0  0  0  0  0  0  0  0  0  0  0
    0.1540    1.4510   -0.0400 C   0  0  0  0  0  0  0  0  0  0  0  0
    0.1840    2.9050   -0.1050 C   0  0  0  0  0  0  0  0  0  0  0  0
    0.2210    4.0610   -0.1420 N   0  0  0  0  0  0  0  0  0  0  0  0
    1.2570    0.7330    0.3870 C   0  0  0  0  0  0  0  0  0  0  0  0
    1.2640   -0.6460    0.4600 C   0  0  0  0  0  0  0  0  0  0  0  0
    0.1310   -1.3400    0.0950 C   0  0  0  0  0  0  0  0  0  0  0  0
    0.1260   -2.7260    0.1640 O   0  0  0  0  0  0  0  0  0  0  0  0
    2.5280   -1.0230    0.9270 O   0  0  0  0  0  0  0  0  0  0  0  0
    3.1820    0.1480    1.3730 C   0  0  0  0  0  0  0  0  0  0  0  0
    2.5020    1.2360    0.8020 O   0  0  0  0  0  0  0  0  0  0  0  0
  1  2  1  0
  2  3  1  0
  3  4  2  0
  3 10  1  0
  4  5  1  0
  5  6  1  0
  5  8  2  0
  6  7  3  0
  8  9  1  0
  8 14  1  0
  9 10  2  0
  9 12  1  0
 10 11  1  0
 12 13  1  0
 13 14  1  0
M  END
