
     RDKit          3D

 14 14  0  0  0  0  0  0  0  0999 V2000
   -2.0790   -2.2060    0.4340 C   0  0  0  0  0  0  0  0  0  0  0  0
   -2.3800   -0.9370    0.3530 C   0  0  0  0  0  0  0  0  0  0  0  0
   -3.7230   -0.5190    0.4670 O   0  0  0  0  0  0  0  0  0  0  0  0
   -4.0930    0.8020    0.3890 C   0  0  0  0  0  0  0  0  0  0  0  0
   -3.1370    1.6810    0.2020 C   0  0  0  0  0  0  0  0  0  0  0  0
   -1.7150    1.3130    0.0750 C   0  0  0  0  0  0  0  0  0  0  0  0
   -1.3160    0.0510    0.1440 C   0  0  0  0  0  0  0  0  0  0  0  0
    0.0320   -0.3800    0.0310 N   0  0  0  0  0  0  0  0  0  0  0  0
    1.1530    0.4510   -0.1700 C   0  0  0  0  0  0  0  0  0  0  0  0
    1.0440    1.6760   -0.2690 O   0  0  0  0  0  0  0  0  0  0  0  0
    2.5140   -0.1250   -0.2720 C   0  0  0  0  0  0  0  0  0  0  0  0
    2.7000   -1.3630   -0.1810 O   0  0  0  0  0  0  0  0  0  0  0  0
    3.6240    0.6800   -0.4700 O   0  0  0  0  0  0  0  0  0  0  0  0
    4.9180    0.0710   -0.5610 C   0  0  0  0  0  0  0  0  0  0  0  0
  1  2  2  0
  2  3  1  0
  2  7  1  0
  3  4  1  0
  4  5  2  0
  5  6  1  0
  6  7  2  0
  7  8  1  0
  8  9  1  0
  9 10  2  0
  9 11  1  0
 11 12  2  0
 11 13  1  0
 13 14  1  0
M  END
