
     RDKit          3D

 14 15  0  0  0  0  0  0  0  0999 V2000
   -0.0750   -2.5340    1.4790 O   0  0  0  0  0  0  0  0  0  0  0  0
    0.0920   -1.5460    0.7320 C   0  0  0  0  0  0  0  0  0  0  0  0
    1.4890   -1.1810    0.3860 C   0  0  0  0  0  0  0  0  0  0  0  0
    1.6250    0.1860   -0.0190 N   0  0  0  0  0  0  0  0  0  0  0  0
    2.8940    0.8250    0.0660 C   0  0  0  0  0  0  0  0  0  0  0  0
    3.8990    0.2000    0.4940 O   0  0  0  0  0  0  0  0  0  0  0  0
    3.1040    2.1450   -0.3080 O   0  0  0  0  0  0  0  0  0  0  0  0
    0.5140    0.9460   -0.5140 C   0  0  0  0  0  0  0  0  0  0  0  0
    0.6890    2.0630   -1.0750 O   0  0  0  0  0  0  0  0  0  0  0  0
   -0.8620    0.4590   -0.3910 C   0  0  0  0  0  0  0  0  0  0  0  0
   -2.0560    0.9110   -0.7340 C   0  0  0  0  0  0  0  0  0  0  0  0
   -3.1340   -0.0360   -0.3460 C   0  0  0  0  0  0  0  0  0  0  0  0
   -2.3530   -1.1280    0.2900 C   0  0  0  0  0  0  0  0  0  0  0  0
   -1.0680   -0.8140    0.2470 C   0  0  0  0  0  0  0  0  0  0  0  0
  1  2  2  0
  2  3  1  0
  2 14  1  0
  3  4  1  0
  4  5  1  0
  4  8  1  0
  5  6  2  0
  5  7  1  0
  8  9  2  0
  8 10  1  0
 10 11  2  0
 10 14  1  0
 11 12  1  0
 12 13  1  0
 13 14  2  0
M  END
