
     RDKit          3D

 16 17  0  0  0  0  0  0  0  0999 V2000
    3.6810    1.2270   -1.0090 C   0  0  0  0  0  0  0  0  0  0  0  0
    3.6700   -0.1880   -0.4150 C   0  0  0  0  0  0  0  0  0  0  0  0
    2.4730   -0.2360    0.4910 C   0  0  0  0  0  0  0  0  0  0  0  0
    2.6220   -0.1290    1.8480 C   0  0  0  0  0  0  0  0  0  0  0  0
    1.4790   -0.1660    2.6290 C   0  0  0  0  0  0  0  0  0  0  0  0
    1.6720   -0.0220    4.5340 Br  0  0  0  0  0  0  0  0  0  0  0  0
    0.2250   -0.3070    2.0560 C   0  0  0  0  0  0  0  0  0  0  0  0
    0.0950   -0.4130    0.6870 C   0  0  0  0  0  0  0  0  0  0  0  0
   -0.9560   -0.5620   -0.1990 C   0  0  0  0  0  0  0  0  0  0  0  0
   -2.3840   -0.6450    0.2050 C   0  0  0  0  0  0  0  0  0  0  0  0
   -2.9230    0.7380    0.5590 C   0  0  0  0  0  0  0  0  0  0  0  0
   -4.3150    0.6460    0.9550 N   0  0  0  0  0  0  0  0  0  0  0  0
   -0.4960   -0.6170   -1.5020 C   0  0  0  0  0  0  0  0  0  0  0  0
   -1.3290   -0.7780   -2.7410 C   0  0  0  0  0  0  0  0  0  0  0  0
    0.8450   -0.5020   -1.4020 N   0  0  0  0  0  0  0  0  0  0  0  0
    1.2220   -0.3790   -0.1160 C   0  0  0  0  0  0  0  0  0  0  0  0
  1  2  1  0
  2  3  1  0
  3  4  2  0
  3 16  1  0
  4  5  1  0
  5  6  1  0
  5  7  2  0
  7  8  1  0
  8  9  1  0
  8 16  2  0
  9 10  1  0
  9 13  2  0
 10 11  1  0
 11 12  1  0
 13 14  1  0
 13 15  1  0
 15 16  1  0
M  CHG  1  12   1
M  END
