
     RDKit          3D

 14 15  0  0  0  0  0  0  0  0999 V2000
   -4.6010    0.3140   -0.1070 C   0  0  0  0  0  0  0  0  0  0  0  0
   -3.7600   -0.6910   -0.0960 C   0  0  0  0  0  0  0  0  0  0  0  0
   -2.4060   -0.4680   -0.1750 O   0  0  0  0  0  0  0  0  0  0  0  0
   -1.4720   -0.7670    0.8200 C   0  0  0  0  0  0  0  0  0  0  0  0
   -0.1190   -0.3660    0.3270 C   0  0  0  0  0  0  0  0  0  0  0  0
    1.0150   -0.5370    1.0890 C   0  0  0  0  0  0  0  0  0  0  0  0
    2.2740   -0.1760    0.6600 C   0  0  0  0  0  0  0  0  0  0  0  0
    2.4050    0.3820   -0.5920 C   0  0  0  0  0  0  0  0  0  0  0  0
    1.2720    0.5480   -1.3420 C   0  0  0  0  0  0  0  0  0  0  0  0
    1.3760    1.0540   -2.4800 O   0  0  0  0  0  0  0  0  0  0  0  0
    0.0440    0.1850   -0.8960 N   0  0  0  0  0  0  0  0  0  0  0  0
    3.7630    0.6490   -0.7720 O   0  0  0  0  0  0  0  0  0  0  0  0
    4.3000    0.7840    0.5530 C   0  0  0  0  0  0  0  0  0  0  0  0
    3.5510   -0.2400    1.2200 O   0  0  0  0  0  0  0  0  0  0  0  0
  1  2  2  0
  2  3  1  0
  3  4  1  0
  4  5  1  0
  5  6  2  0
  5 11  1  0
  6  7  1  0
  7  8  2  0
  7 14  1  0
  8  9  1  0
  8 12  1  0
  9 10  2  0
  9 11  1  0
 12 13  1  0
 13 14  1  0
M  END
