
     RDKit          3D

 13 14  0  0  0  0  0  0  0  0999 V2000
    4.2050    0.3050    0.4200 C   0  0  0  0  0  0  0  0  0  0  0  0
    2.8330    0.4440    0.6730 O   0  0  0  0  0  0  0  0  0  0  0  0
    1.9120   -0.2870   -0.0860 C   0  0  0  0  0  0  0  0  0  0  0  0
    2.3670   -1.0400   -0.9660 O   0  0  0  0  0  0  0  0  0  0  0  0
    0.4840   -0.1470    0.1730 C   0  0  0  0  0  0  0  0  0  0  0  0
   -0.1170    0.6540    1.1170 C   0  0  0  0  0  0  0  0  0  0  0  0
   -1.4740    0.4580    0.9920 C   0  0  0  0  0  0  0  0  0  0  0  0
   -1.6890   -0.4660   -0.0340 C   0  0  0  0  0  0  0  0  0  0  0  0
   -0.4670   -0.8080   -0.5040 N   0  0  0  0  0  0  0  0  0  0  0  0
   -3.1400   -0.6620   -0.1520 C   0  0  0  0  0  0  0  0  0  0  0  0
   -3.6750   -1.5900   -0.8150 O   0  0  0  0  0  0  0  0  0  0  0  0
   -3.7500    0.4180    0.6400 C   0  0  0  0  0  0  0  0  0  0  0  0
   -2.7010    0.8370    1.5050 O   0  0  0  0  0  0  0  0  0  0  0  0
  1  2  1  0
  2  3  1  0
  3  4  2  0
  3  5  1  0
  5  6  2  0
  5  9  1  0
  6  7  1  0
  7  8  2  0
  7 13  1  0
  8  9  1  0
  8 10  1  0
 10 11  2  0
 10 12  1  0
 12 13  1  0
M  END
