
     RDKit          3D

 13 13  0  0  0  0  0  0  0  0999 V2000
   -3.3300    2.1610    0.7040 C   0  0  0  0  0  0  0  0  0  0  0  0
   -2.0500    1.5930    0.5730 O   0  0  0  0  0  0  0  0  0  0  0  0
   -1.8490    0.2660    0.1510 C   0  0  0  0  0  0  0  0  0  0  0  0
   -2.8820   -0.3850   -0.1030 O   0  0  0  0  0  0  0  0  0  0  0  0
   -0.4860   -0.2350    0.0450 C   0  0  0  0  0  0  0  0  0  0  0  0
    0.5560    0.5580    0.3460 C   0  0  0  0  0  0  0  0  0  0  0  0
    1.9220    0.0700    0.2440 C   0  0  0  0  0  0  0  0  0  0  0  0
    2.9600    0.9290    0.5660 O   0  0  0  0  0  0  0  0  0  0  0  0
    3.3860    1.9780   -0.2750 C   0  0  0  0  0  0  0  0  0  0  0  0
    2.1210   -1.1730   -0.1510 C   0  0  0  0  0  0  0  0  0  0  0  0
    1.0380   -2.1170   -0.5020 C   0  0  0  0  0  0  0  0  0  0  0  0
   -0.2710   -1.5490   -0.3710 N   0  0  0  0  0  0  0  0  0  0  0  0
   -1.3960   -2.4200   -0.6990 C   0  0  0  0  0  0  0  0  0  0  0  0
  1  2  1  0
  2  3  1  0
  3  4  2  0
  3  5  1  0
  5  6  2  0
  5 12  1  0
  6  7  1  0
  7  8  1  0
  7 10  2  0
  8  9  1  0
 10 11  1  0
 11 12  1  0
 12 13  1  0
M  END
