
     RDKit          3D

 14 15  0  0  0  0  0  0  0  0999 V2000
   -3.9220   -0.8720    0.3320 C   0  0  0  0  0  0  0  0  0  0  0  0
   -3.2570    0.3480    0.4120 O   0  0  0  0  0  0  0  0  0  0  0  0
   -1.9130    0.5520    0.3150 C   0  0  0  0  0  0  0  0  0  0  0  0
   -1.4070    1.8300    0.4160 C   0  0  0  0  0  0  0  0  0  0  0  0
   -0.0460    2.0750    0.3220 C   0  0  0  0  0  0  0  0  0  0  0  0
    0.8210    1.0430    0.1260 C   0  0  0  0  0  0  0  0  0  0  0  0
    0.3110   -0.2360    0.0260 C   0  0  0  0  0  0  0  0  0  0  0  0
   -1.0490   -0.5010    0.1170 C   0  0  0  0  0  0  0  0  0  0  0  0
    1.0610   -1.3910   -0.1740 O   0  0  0  0  0  0  0  0  0  0  0  0
    2.4390   -1.5660    0.0570 C   0  0  0  0  0  0  0  0  0  0  0  0
    2.9090   -2.7130    0.0370 O   0  0  0  0  0  0  0  0  0  0  0  0
    3.4450   -0.5040    0.3330 C   0  0  0  0  0  0  0  0  0  0  0  0
    3.2000    0.6910   -0.4550 N   0  0  0  0  0  0  0  0  0  0  0  0
    2.1690    1.4480    0.0520 O   0  0  0  0  0  0  0  0  0  0  0  0
  1  2  1  0
  2  3  1  0
  3  4  2  0
  3  8  1  0
  4  5  1  0
  5  6  2  0
  6  7  1  0
  6 14  1  0
  7  8  2  0
  7  9  1  0
  9 10  1  0
 10 11  2  0
 10 12  1  0
 12 13  1  0
 13 14  1  0
M  END
