
     RDKit          3D

 20 21  0  0  0  0  0  0  0  0999 V2000
    5.2530   -1.9770   -0.4260 N   0  0  0  0  0  0  0  0  0  0  0  0
    4.3260   -1.0430    0.1150 C   0  0  0  0  0  0  0  0  0  0  0  0
    4.3550   -0.7810    1.3450 O   0  0  0  0  0  0  0  0  0  0  0  0
    3.3810   -0.4100   -0.7020 O   0  0  0  0  0  0  0  0  0  0  0  0
    2.4730    0.5140   -0.1430 C   0  0  0  0  0  0  0  0  0  0  0  0
    1.2850    0.2280    0.3510 C   0  0  0  0  0  0  0  0  0  0  0  0
    0.6400    1.4500    0.8390 C   0  0  2  0  0  0  0  0  0  0  0  0
   -0.6240    1.7360    0.1170 C   0  0  0  0  0  0  0  0  0  0  0  0
   -0.6610    2.7610   -0.6360 O   0  0  0  0  0  0  0  0  0  0  0  0
   -1.7970    0.9730    0.1860 N   0  0  0  0  0  0  0  0  0  0  0  0
   -2.9980    1.2800   -0.5670 C   0  0  0  0  0  0  0  0  0  0  0  0
   -3.9450    0.1410   -0.5370 C   0  0  0  0  0  0  0  0  0  0  0  0
   -5.1950    0.3800   -0.6130 O   0  0  0  0  0  0  0  0  0  0  0  0
   -3.4320   -1.1670   -0.4260 N   0  0  0  0  0  0  0  0  0  0  0  0
   -2.1190   -1.3700    0.1300 C   0  0  2  0  0  0  0  0  0  0  0  0
   -1.9770   -2.6230    0.8230 N   0  0  0  0  0  0  0  0  0  0  0  0
   -1.8530   -0.1830    1.0570 C   0  0  0  0  0  0  0  0  0  0  0  0
    1.5770    2.4960    0.5790 N   0  0  0  0  0  0  0  0  0  0  0  0
    2.7230    1.9400   -0.0290 C   0  0  0  0  0  0  0  0  0  0  0  0
    3.7660    2.5700   -0.4020 O   0  0  0  0  0  0  0  0  0  0  0  0
  1  2  1  0
  2  3  2  0
  2  4  1  0
  4  5  1  0
  5  6  2  0
  5 19  1  0
  6  7  1  0
  7  8  1  6
  7 18  1  0
  8  9  2  0
  8 10  1  0
 10 11  1  0
 10 17  1  0
 11 12  1  0
 12 13  2  0
 12 14  1  0
 14 15  1  0
 15 16  1  1
 15 17  1  0
 18 19  1  0
 19 20  2  0
M  END
