
     RDKit          3D

 19 20  0  0  0  0  0  0  0  0999 V2000
   -4.5010    1.8590   -0.4550 N   0  0  0  0  0  0  0  0  0  0  0  0
   -3.9390    0.6110    0.0870 C   0  0  1  0  0  0  0  0  0  0  0  0
   -4.4190   -0.5020   -0.7740 C   0  0  0  0  0  0  0  0  0  0  0  0
   -3.5870   -1.5850   -0.8560 O   0  0  0  0  0  0  0  0  0  0  0  0
   -2.3560   -1.1200   -1.3760 C   0  0  0  0  0  0  0  0  0  0  0  0
   -1.6690   -0.4190   -0.2300 C   0  0  1  0  0  0  0  0  0  0  0  0
   -0.3030   -0.0910   -0.5120 N   0  0  0  0  0  0  0  0  0  0  0  0
    0.8170   -0.6250    0.1750 C   0  0  0  0  0  0  0  0  0  0  0  0
    0.6090   -1.4410    1.0940 O   0  0  0  0  0  0  0  0  0  0  0  0
    2.1990   -0.2300   -0.1820 C   0  0  0  0  0  0  0  0  0  0  0  0
    2.4280    0.5760   -1.0880 O   0  0  0  0  0  0  0  0  0  0  0  0
    3.2450   -0.8180    0.5610 N   0  0  0  0  0  0  0  0  0  0  0  0
    4.5990   -0.5050    0.2960 C   0  0  0  0  0  0  0  0  0  0  0  0
    5.6860   -1.0550    1.0000 C   0  0  0  0  0  0  0  0  0  0  0  0
    6.8090   -0.5300    0.4750 N   0  0  0  0  0  0  0  0  0  0  0  0
    6.5400    0.2940   -0.4860 N   0  0  0  0  0  0  0  0  0  0  0  0
    5.1880    0.3290   -0.6180 C   0  0  0  0  0  0  0  0  0  0  0  0
   -2.4650    0.7810    0.1500 C   0  0  2  0  0  0  0  0  0  0  0  0
   -2.1310    1.1000    1.4830 O   0  0  0  0  0  0  0  0  0  0  0  0
  2  1  1  6
  2  3  1  0
  2 18  1  0
  3  4  1  0
  4  5  1  0
  5  6  1  0
  6  7  1  6
  6 18  1  0
  7  8  1  0
  8  9  2  0
  8 10  1  0
 10 11  2  0
 10 12  1  0
 12 13  1  0
 13 14  1  0
 13 17  2  0
 14 15  2  0
 15 16  1  0
 16 17  1  0
 18 19  1  1
M  END
