
     RDKit          3D

 20 21  0  0  0  0  0  0  0  0999 V2000
   -4.4140   -1.2840    0.9250 N   0  0  0  0  0  0  0  0  0  0  0  0
   -3.0300   -1.3820    0.7020 C   0  0  0  0  0  0  0  0  0  0  0  0
   -2.4720   -2.5020    0.9400 O   0  0  0  0  0  0  0  0  0  0  0  0
   -2.2180   -0.2450    0.2100 C   0  0  1  0  0  0  0  0  0  0  0  0
   -0.8400   -0.6460    0.0800 N   0  0  0  0  0  0  0  0  0  0  0  0
    0.1550    0.2610   -0.3760 C   0  0  0  0  0  0  0  0  0  0  0  0
   -0.2620    1.4370   -0.6560 O   0  0  0  0  0  0  0  0  0  0  0  0
    1.5230   -0.0880   -0.5200 N   0  0  0  0  0  0  0  0  0  0  0  0
    1.9500   -1.4050   -0.1990 C   0  0  0  0  0  0  0  0  0  0  0  0
    3.4010   -1.5980   -0.0160 C   0  0  0  0  0  0  0  0  0  0  0  0
    4.2220   -0.6070   -0.4340 O   0  0  0  0  0  0  0  0  0  0  0  0
    3.7660    0.6780   -0.2880 C   0  0  2  0  0  0  0  0  0  0  0  0
    3.7150    1.1320    1.0830 N   0  0  0  0  0  0  0  0  0  0  0  0
    2.4470    0.9030   -0.9890 C   0  0  0  0  0  0  0  0  0  0  0  0
   -2.8160    0.1950   -1.1070 C   0  0  0  0  0  0  0  0  0  0  0  0
   -3.0440    1.6440   -0.9580 C   0  0  0  0  0  0  0  0  0  0  0  0
   -3.4890    2.4170   -1.8400 O   0  0  0  0  0  0  0  0  0  0  0  0
   -2.6870    2.0520    0.3370 N   0  0  0  0  0  0  0  0  0  0  0  0
   -2.3590    0.9290    1.1160 C   0  0  0  0  0  0  0  0  0  0  0  0
   -2.2040    0.8770    2.3530 O   0  0  0  0  0  0  0  0  0  0  0  0
  1  2  1  0
  2  3  2  0
  2  4  1  0
  4  5  1  6
  4 15  1  0
  4 19  1  0
  5  6  1  0
  6  7  2  0
  6  8  1  0
  8  9  1  0
  8 14  1  0
  9 10  1  0
 10 11  1  0
 11 12  1  0
 12 13  1  1
 12 14  1  0
 15 16  1  0
 16 17  2  0
 16 18  1  0
 18 19  1  0
 19 20  2  0
M  END
