
     RDKit          3D

 17 18  0  0  0  0  0  0  0  0999 V2000
    4.2000   -1.2260    1.5690 O   0  0  0  0  0  0  0  0  0  0  0  0
    3.7310   -0.3550    0.7770 C   0  0  0  0  0  0  0  0  0  0  0  0
    4.5670    0.5320    0.1170 O   0  0  0  0  0  0  0  0  0  0  0  0
    2.3020   -0.2680    0.5430 C   0  0  0  0  0  0  0  0  0  0  0  0
    1.4610   -1.1430    1.1920 C   0  0  0  0  0  0  0  0  0  0  0  0
    0.0990   -1.0820    0.9880 C   0  0  0  0  0  0  0  0  0  0  0  0
   -1.2200   -2.4170    1.9740 I   0  0  0  0  0  0  0  0  0  0  0  0
   -0.4200   -0.1340    0.1240 C   0  0  0  0  0  0  0  0  0  0  0  0
   -1.8230   -0.0650   -0.0920 N   0  0  0  0  0  0  0  0  0  0  0  0
   -2.4050   -0.0570   -1.3010 C   0  0  0  0  0  0  0  0  0  0  0  0
   -3.7740    0.0180   -1.1250 C   0  0  0  0  0  0  0  0  0  0  0  0
   -3.9730    0.0540    0.2430 C   0  0  0  0  0  0  0  0  0  0  0  0
   -2.7510    0.0020    0.8750 C   0  0  0  0  0  0  0  0  0  0  0  0
    0.4200    0.7450   -0.5280 C   0  0  0  0  0  0  0  0  0  0  0  0
   -0.3940    2.1940   -1.8510 I   0  0  0  0  0  0  0  0  0  0  0  0
    1.7820    0.6790   -0.3200 C   0  0  0  0  0  0  0  0  0  0  0  0
    2.6240    1.5800   -0.9910 O   0  0  0  0  0  0  0  0  0  0  0  0
  1  2  2  0
  2  3  1  0
  2  4  1  0
  4  5  2  0
  4 16  1  0
  5  6  1  0
  6  7  1  0
  6  8  2  0
  8  9  1  0
  8 14  1  0
  9 10  1  0
  9 13  1  0
 10 11  2  0
 11 12  1  0
 12 13  2  0
 14 15  1  0
 14 16  2  0
 16 17  1  0
M  END
