
     RDKit          3D

 19 20  0  0  0  0  0  0  0  0999 V2000
   -2.0770   -2.2200   -2.7170 N   0  0  0  0  0  0  0  0  0  0  0  0
   -1.5080   -1.7590   -1.8230 C   0  0  0  0  0  0  0  0  0  0  0  0
   -0.7810   -1.1980   -0.7180 C   0  0  0  0  0  0  0  0  0  0  0  0
    0.3470   -1.7730   -0.3480 C   0  0  0  0  0  0  0  0  0  0  0  0
    0.8260   -2.9240   -1.0320 N   0  0  0  0  0  0  0  0  0  0  0  0
    1.0710   -1.2290    0.7370 N   0  0  0  0  0  0  0  0  0  0  0  0
    2.3490   -0.6320    0.5070 C   0  0  1  0  0  0  0  0  0  0  0  0
    2.3330    0.5250   -0.4350 C   0  0  0  0  0  0  0  0  0  0  0  0
    2.5170    1.6300    0.3710 O   0  0  0  0  0  0  0  0  0  0  0  0
    3.3870    1.1440    1.3580 C   0  0  0  0  0  0  0  0  0  0  0  0
    2.9050   -0.1230    1.6810 O   0  0  0  0  0  0  0  0  0  0  0  0
   -1.3030   -0.0220   -0.0450 C   0  0  0  0  0  0  0  0  0  0  0  0
   -2.4410    0.5350   -0.4410 C   0  0  0  0  0  0  0  0  0  0  0  0
   -3.2020    0.0360   -1.5150 N   0  0  0  0  0  0  0  0  0  0  0  0
   -2.9270    1.7000    0.2580 N   0  0  0  0  0  0  0  0  0  0  0  0
   -2.1730    2.2240    1.3570 C   0  0  0  0  0  0  0  0  0  0  0  0
   -2.2920    3.4280    1.6860 O   0  0  0  0  0  0  0  0  0  0  0  0
   -1.2700    1.2690    2.0550 C   0  0  0  0  0  0  0  0  0  0  0  0
   -0.6160    0.5300    1.0180 O   0  0  0  0  0  0  0  0  0  0  0  0
  1  2  3  0
  2  3  1  0
  3  4  2  3
  3 12  1  0
  4  5  1  0
  4  6  1  0
  7  6  1  1
  7  8  1  0
  7 11  1  0
  8  9  1  0
  9 10  1  0
 10 11  1  0
 12 13  2  0
 12 19  1  0
 13 14  1  0
 13 15  1  0
 15 16  1  0
 16 17  2  0
 16 18  1  0
 18 19  1  0
M  END
