
     RDKit          3D

 20 21  0  0  0  0  0  0  0  0999 V2000
    7.2540    1.1680    0.1060 O   0  0  0  0  0  0  0  0  0  0  0  0
    6.0380    0.8400    0.0780 C   0  0  0  0  0  0  0  0  0  0  0  0
    5.1030    1.4030    0.9990 N   0  0  0  0  0  0  0  0  0  0  0  0
    3.9700    0.6490    1.3300 N   0  0  0  0  0  0  0  0  0  0  0  0
    3.2480    0.3880    0.1100 C   0  0  2  0  0  0  0  0  0  0  0  0
    2.0720   -0.4410    0.3720 N   0  0  0  0  0  0  0  0  0  0  0  0
    0.7940   -0.0040   -0.0310 C   0  0  0  0  0  0  0  0  0  0  0  0
    0.7190    1.1220   -0.6190 O   0  0  0  0  0  0  0  0  0  0  0  0
   -0.3820   -0.7510    0.1880 N   0  0  0  0  0  0  0  0  0  0  0  0
   -1.7090   -0.3000   -0.2290 C   0  0  1  0  0  0  0  0  0  0  0  0
   -2.3180   -1.2190   -1.2170 C   0  0  0  0  0  0  0  0  0  0  0  0
   -3.7530   -1.5320   -1.0430 C   0  0  0  0  0  0  0  0  0  0  0  0
   -4.3060   -1.2950    0.1670 O   0  0  0  0  0  0  0  0  0  0  0  0
   -3.9840   -0.1380    0.7950 C   0  0  2  0  0  0  0  0  0  0  0  0
   -4.4930    1.1080    0.1230 C   0  0  0  0  0  0  0  0  0  0  0  0
   -4.1020    2.2270    0.8570 O   0  0  0  0  0  0  0  0  0  0  0  0
   -2.5090   -0.0680    1.0120 C   0  0  0  0  0  0  0  0  0  0  0  0
    4.1390   -0.3900   -0.7930 C   0  0  0  0  0  0  0  0  0  0  0  0
    3.6670   -1.3150   -1.5080 O   0  0  0  0  0  0  0  0  0  0  0  0
    5.5200   -0.1060   -0.8640 N   0  0  0  0  0  0  0  0  0  0  0  0
  1  2  2  0
  2  3  1  0
  2 20  1  0
  3  4  1  0
  4  5  1  0
  5  6  1  1
  5 18  1  0
  6  7  1  0
  7  8  2  0
  7  9  1  0
 10  9  1  1
 10 11  1  0
 10 17  1  0
 11 12  1  0
 12 13  1  0
 13 14  1  0
 14 15  1  6
 14 17  1  0
 15 16  1  0
 18 19  2  0
 18 20  1  0
M  END
