
     RDKit          3D

 20 21  0  0  0  0  0  0  0  0999 V2000
    6.9820   -0.1940    0.6850 N   0  0  0  0  0  0  0  0  0  0  0  0
    5.8870   -0.1880   -0.2160 C   0  0  0  0  0  0  0  0  0  0  0  0
    6.0600   -0.2250   -1.4500 O   0  0  0  0  0  0  0  0  0  0  0  0
    4.5230   -0.1360    0.3270 C   0  0  0  0  0  0  0  0  0  0  0  0
    3.5580   -0.1390   -0.7540 N   0  0  0  0  0  0  0  0  0  0  0  0
    2.1580   -0.0930   -0.4800 C   0  0  0  0  0  0  0  0  0  0  0  0
    1.7900   -0.0510    0.7360 O   0  0  0  0  0  0  0  0  0  0  0  0
    1.1960   -0.0930   -1.4580 O   0  0  0  0  0  0  0  0  0  0  0  0
   -0.1460   -0.0460   -1.0810 C   0  0  0  0  0  0  0  0  0  0  0  0
   -0.7960    1.0900   -0.9190 C   0  0  0  0  0  0  0  0  0  0  0  0
   -2.2000    1.1580   -0.5260 C   0  0  0  0  0  0  0  0  0  0  0  0
   -3.1250    2.0900   -0.5330 C   0  0  0  0  0  0  0  0  0  0  0  0
   -4.3590    1.5730   -0.0170 N   0  0  0  0  0  0  0  0  0  0  0  0
   -4.2670    0.1420   -0.3490 C   0  0  2  0  0  0  0  0  0  0  0  0
   -5.2000   -0.6320    0.4310 N   0  0  0  0  0  0  0  0  0  0  0  0
   -4.9660   -0.5040    1.7340 O   0  0  0  0  0  0  0  0  0  0  0  0
   -2.8320   -0.0800    0.0460 C   0  0  1  0  0  0  0  0  0  0  0  0
   -2.2240   -1.2610   -0.4700 N   0  0  0  0  0  0  0  0  0  0  0  0
   -0.8390   -1.3030   -0.8610 C   0  0  0  0  0  0  0  0  0  0  0  0
   -0.2310   -2.3810   -1.0130 O   0  0  0  0  0  0  0  0  0  0  0  0
  1  2  1  0
  2  3  2  0
  2  4  1  0
  4  5  1  0
  5  6  1  0
  6  7  2  0
  6  8  1  0
  8  9  1  0
  9 10  2  0
  9 19  1  0
 10 11  1  0
 11 12  2  0
 11 17  1  0
 12 13  1  0
 13 14  1  0
 14 15  1  1
 14 17  1  0
 15 16  1  0
 17 18  1  6
 18 19  1  0
 19 20  2  0
M  END
