
     RDKit          3D

 18 18  0  0  0  0  0  0  0  0999 V2000
   -6.4300   -0.5110    0.2030 C   0  0  0  0  0  0  0  0  0  0  0  0
   -5.0800   -0.6640   -0.4260 C   0  0  0  0  0  0  0  0  0  0  0  0
   -3.9890   -0.2230    0.1190 C   0  0  0  0  0  0  0  0  0  0  0  0
   -2.6940   -0.4120   -0.5640 C   0  0  0  0  0  0  0  0  0  0  0  0
   -2.7610   -1.1110   -1.8570 C   0  0  0  0  0  0  0  0  0  0  0  0
   -1.6150    0.0400    0.0070 C   0  0  0  0  0  0  0  0  0  0  0  0
   -0.2600   -0.0330   -0.4740 C   0  0  0  0  0  0  0  0  0  0  0  0
    0.0410   -0.5820   -1.5770 O   0  0  0  0  0  0  0  0  0  0  0  0
    0.8780    0.5150    0.2610 C   0  0  0  0  0  0  0  0  0  0  0  0
    0.7470    1.1430    1.4670 C   0  0  0  0  0  0  0  0  0  0  0  0
    1.8410    1.6660    2.1660 C   0  0  0  0  0  0  0  0  0  0  0  0
    3.0960    1.5450    1.6220 C   0  0  0  0  0  0  0  0  0  0  0  0
    4.2200    2.0410    2.2620 O   0  0  0  0  0  0  0  0  0  0  0  0
    3.2720    0.9070    0.3840 C   0  0  0  0  0  0  0  0  0  0  0  0
    4.5620    0.8250   -0.0930 O   0  0  0  0  0  0  0  0  0  0  0  0
    4.8520    0.1860   -1.3010 C   0  0  0  0  0  0  0  0  0  0  0  0
    4.4700   -1.2730   -1.1880 C   0  0  0  0  0  0  0  0  0  0  0  0
    2.1630    0.4090   -0.2660 C   0  0  0  0  0  0  0  0  0  0  0  0
  1  2  1  0
  2  3  2  3
  3  4  1  0
  4  5  1  0
  4  6  2  3
  6  7  1  0
  7  8  2  0
  7  9  1  0
  9 10  2  0
  9 18  1  0
 10 11  1  0
 11 12  2  0
 12 13  1  0
 12 14  1  0
 14 15  1  0
 14 18  2  0
 15 16  1  0
 16 17  1  0
M  END
