
     RDKit          3D

 20 20  0  0  0  0  0  0  0  0999 V2000
   -4.4240   -2.3690    1.3730 C   0  0  0  0  0  0  0  0  0  0  0  0
   -3.0730   -2.6130    0.6260 C   0  0  0  0  0  0  0  0  0  0  0  0
   -2.7440   -1.2620    0.1030 C   0  0  0  0  0  0  0  0  0  0  0  0
   -1.6150   -0.9080   -0.6930 C   0  0  0  0  0  0  0  0  0  0  0  0
   -0.2020   -0.7720   -0.4090 C   0  0  0  0  0  0  0  0  0  0  0  0
    0.8290   -1.6380   -0.3410 C   0  0  0  0  0  0  0  0  0  0  0  0
    0.5700   -3.0740   -0.6430 C   0  0  0  0  0  0  0  0  0  0  0  0
    1.6170   -3.9050   -0.5760 O   0  0  0  0  0  0  0  0  0  0  0  0
    2.1540   -1.1870   -0.1930 C   0  0  0  0  0  0  0  0  0  0  0  0
    3.2500   -2.1560    0.0520 C   0  0  0  0  0  0  0  0  0  0  0  0
    2.4400    0.1520   -0.1410 C   0  0  0  0  0  0  0  0  0  0  0  0
    3.8360    0.6610    0.0840 C   0  0  0  0  0  0  0  0  0  0  0  0
    4.1750    0.8710    1.5370 C   0  0  0  0  0  0  0  0  0  0  0  0
    1.3990    1.1010   -0.2180 C   0  0  0  0  0  0  0  0  0  0  0  0
    1.7590    2.5480   -0.3170 C   0  0  0  0  0  0  0  0  0  0  0  0
    0.1700    0.6460   -0.3300 C   0  0  0  0  0  0  0  0  0  0  0  0
   -1.0770    1.3980   -0.0130 C   0  0  0  0  0  0  0  0  0  0  0  0
   -1.7430    2.2040   -0.6640 O   0  0  0  0  0  0  0  0  0  0  0  0
   -2.0070    3.2820   -1.2480 C   0  0  0  0  0  0  0  0  0  0  0  0
   -2.0980    4.4760   -0.2610 C   0  0  0  0  0  0  0  0  0  0  0  0
  1  2  1  0
  2  3  1  0
  3  4  1  0
  4  5  1  0
  5  6  2  0
  5 16  1  0
  6  7  1  0
  6  9  1  0
  7  8  1  0
  9 10  1  0
  9 11  2  0
 11 12  1  0
 11 14  1  0
 12 13  1  0
 14 15  1  0
 14 16  2  0
 16 17  1  0
 17 18  1  0
 18 19  1  0
 19 20  1  0
M  END
