
     RDKit          3D

 20 20  0  0  0  0  0  0  0  0999 V2000
   -2.3110    3.9970   -2.2870 C   0  0  0  0  0  0  0  0  0  0  0  0
   -2.9400    2.9590   -1.8010 C   0  0  0  0  0  0  0  0  0  0  0  0
   -2.3540    2.1370   -0.6680 C   0  0  0  0  0  0  0  0  0  0  0  0
   -2.1730    0.7290   -1.1500 C   0  0  0  0  0  0  0  0  0  0  0  0
   -1.5400   -0.1980   -0.0820 C   0  0  2  0  0  0  0  0  0  0  0  0
   -2.5380   -0.1770    1.0250 C   0  0  0  0  0  0  0  0  0  0  0  0
   -2.3180   -0.9990    2.2260 C   0  0  0  0  0  0  0  0  0  0  0  0
   -2.1480   -2.4780    1.9870 C   0  0  0  0  0  0  0  0  0  0  0  0
   -3.2650   -3.0180    1.3810 O   0  0  0  0  0  0  0  0  0  0  0  0
   -0.2880    0.2990    0.0830 O   0  0  0  0  0  0  0  0  0  0  0  0
    0.9900   -0.0230    0.0310 C   0  0  0  0  0  0  0  0  0  0  0  0
    1.7190   -0.4520    1.1090 C   0  0  0  0  0  0  0  0  0  0  0  0
    1.1090   -0.5250    2.4410 C   0  0  0  0  0  0  0  0  0  0  0  0
    3.0660   -0.7980    1.0440 C   0  0  0  0  0  0  0  0  0  0  0  0
    3.8360   -1.2750    2.2280 C   0  0  0  0  0  0  0  0  0  0  0  0
    3.7330   -0.7140   -0.1520 C   0  0  0  0  0  0  0  0  0  0  0  0
    3.0570   -0.2940   -1.2450 C   0  0  0  0  0  0  0  0  0  0  0  0
    3.7840   -0.2000   -2.5560 C   0  0  0  0  0  0  0  0  0  0  0  0
    1.7000    0.0490   -1.1600 C   0  0  0  0  0  0  0  0  0  0  0  0
    1.0700    0.4970   -2.3710 C   0  0  0  0  0  0  0  0  0  0  0  0
  1  2  2  0
  2  3  1  0
  3  4  1  0
  5  4  1  6
  5  6  1  0
  5 10  1  0
  6  7  1  0
  7  8  1  0
  8  9  1  0
 10 11  1  0
 11 12  2  0
 11 19  1  0
 12 13  1  0
 12 14  1  0
 14 15  1  0
 14 16  2  0
 16 17  1  0
 17 18  1  0
 17 19  2  0
 19 20  1  0
M  END
