
     RDKit          3D

 20 20  0  0  0  0  0  0  0  0999 V2000
   -0.7470    4.5650   -0.4820 C   0  0  0  0  0  0  0  0  0  0  0  0
   -0.7780    3.1460    0.0750 C   0  0  0  0  0  0  0  0  0  0  0  0
   -1.1390    2.1530   -1.0040 C   0  0  0  0  0  0  0  0  0  0  0  0
   -1.1780    0.7680   -0.4190 C   0  0  2  0  0  0  0  0  0  0  0  0
    0.1550    0.4030    0.1550 C   0  0  0  0  0  0  0  0  0  0  0  0
    1.2000    0.4480   -0.9270 C   0  0  0  0  0  0  0  0  0  0  0  0
    2.5350    0.0770   -0.3790 C   0  0  0  0  0  0  0  0  0  0  0  0
    3.4650    1.0620   -0.1450 C   0  0  0  0  0  0  0  0  0  0  0  0
    4.7040    0.7760    0.3570 C   0  0  0  0  0  0  0  0  0  0  0  0
    5.0330   -0.5310    0.6360 C   0  0  0  0  0  0  0  0  0  0  0  0
    6.3770   -0.8530    1.1810 C   0  0  0  0  0  0  0  0  0  0  0  0
    4.0940   -1.5100    0.3980 C   0  0  0  0  0  0  0  0  0  0  0  0
    2.8250   -1.2450   -0.1130 C   0  0  0  0  0  0  0  0  0  0  0  0
    1.8500   -2.3540   -0.3480 C   0  0  0  0  0  0  0  0  0  0  0  0
   -1.4990   -0.1840   -1.3810 O   0  0  0  0  0  0  0  0  0  0  0  0
   -2.6500   -0.8900   -1.1480 C   0  0  0  0  0  0  0  0  0  0  0  0
   -2.6260   -1.7070    0.1140 C   0  0  0  0  0  0  0  0  0  0  0  0
   -3.7880   -2.4070    0.3220 O   0  0  0  0  0  0  0  0  0  0  0  0
   -4.9230   -1.6410    0.4460 C   0  0  0  0  0  0  0  0  0  0  0  0
   -6.1430   -2.5370    0.6920 C   0  0  0  0  0  0  0  0  0  0  0  0
  1  2  1  0
  2  3  1  0
  4  3  1  6
  4  5  1  0
  4 15  1  0
  5  6  1  0
  6  7  1  0
  7  8  2  0
  7 13  1  0
  8  9  1  0
  9 10  2  0
 10 11  1  0
 10 12  1  0
 12 13  2  0
 13 14  1  0
 15 16  1  0
 16 17  1  0
 17 18  1  0
 18 19  1  0
 19 20  1  0
M  END
