
     RDKit          3D

 20 20  0  0  0  0  0  0  0  0999 V2000
    3.0650   -2.2970    1.0180 C   0  0  0  0  0  0  0  0  0  0  0  0
    3.3450   -1.6670   -0.1000 C   0  0  0  0  0  0  0  0  0  0  0  0
    2.5010   -0.5620   -0.5230 C   0  0  0  0  0  0  0  0  0  0  0  0
    2.7730    0.0830   -1.6500 C   0  0  0  0  0  0  0  0  0  0  0  0
    3.9200   -0.3160   -2.4700 C   0  0  0  0  0  0  0  0  0  0  0  0
    1.4250   -0.2170    0.2820 O   0  0  0  0  0  0  0  0  0  0  0  0
    0.1890    0.0190   -0.3280 C   0  0  0  0  0  0  0  0  0  0  0  0
   -0.8880    0.3860    0.6860 C   0  0  1  0  0  0  0  0  0  0  0  0
   -0.5070    1.6430    1.4350 C   0  0  0  0  0  0  0  0  0  0  0  0
   -0.3360    2.8210    0.4890 C   0  0  0  0  0  0  0  0  0  0  0  0
    0.0440    4.0580    1.2890 C   0  0  0  0  0  0  0  0  0  0  0  0
    0.2150    5.2220    0.3700 C   0  0  0  0  0  0  0  0  0  0  0  0
   -2.0470    0.5950   -0.0270 O   0  0  0  0  0  0  0  0  0  0  0  0
   -3.1140   -0.1920    0.3050 C   0  0  0  0  0  0  0  0  0  0  0  0
   -2.7850   -1.6380    0.1040 C   0  0  0  0  0  0  0  0  0  0  0  0
   -2.4950   -2.4570    1.1590 C   0  0  0  0  0  0  0  0  0  0  0  0
   -2.1870   -3.7980    0.9510 C   0  0  0  0  0  0  0  0  0  0  0  0
   -2.1760   -4.3050   -0.3280 C   0  0  0  0  0  0  0  0  0  0  0  0
   -2.4670   -3.4900   -1.3920 C   0  0  0  0  0  0  0  0  0  0  0  0
   -2.7660   -2.1810   -1.1790 C   0  0  0  0  0  0  0  0  0  0  0  0
  1  2  2  0
  2  3  1  0
  3  4  2  3
  3  6  1  0
  4  5  1  0
  6  7  1  0
  8  7  1  6
  8  9  1  0
  8 13  1  0
  9 10  1  0
 10 11  1  0
 11 12  1  0
 13 14  1  0
 14 15  1  0
 15 16  2  0
 15 20  1  0
 16 17  1  0
 17 18  2  0
 18 19  1  0
 19 20  2  0
M  END
