
     RDKit          3D

 20 20  0  0  0  0  0  0  0  0999 V2000
    5.4240   -1.7950   -0.6770 C   0  0  0  0  0  0  0  0  0  0  0  0
    4.1160   -1.6350   -0.5210 C   0  0  0  0  0  0  0  0  0  0  0  0
    3.4250   -2.2400    0.6360 C   0  0  0  0  0  0  0  0  0  0  0  0
    2.7790   -1.1580    1.4540 C   0  0  0  0  0  0  0  0  0  0  0  0
    1.7840   -0.3680    0.7180 C   0  0  0  0  0  0  0  0  0  0  0  0
    2.1400    0.8960    0.3000 C   0  0  0  0  0  0  0  0  0  0  0  0
    1.2400    1.6760   -0.3960 C   0  0  0  0  0  0  0  0  0  0  0  0
    1.6210    3.0350   -0.8430 C   0  0  0  0  0  0  0  0  0  0  0  0
    2.2090    3.0530   -2.1050 O   0  0  0  0  0  0  0  0  0  0  0  0
    2.5050    4.4040   -2.3710 C   0  0  0  0  0  0  0  0  0  0  0  0
   -0.0220    1.2090   -0.6820 C   0  0  0  0  0  0  0  0  0  0  0  0
   -0.4120   -0.0740   -0.2680 C   0  0  0  0  0  0  0  0  0  0  0  0
   -1.7930   -0.4600   -0.5500 C   0  0  0  0  0  0  0  0  0  0  0  0
   -2.7540   -0.1210    0.5540 C   0  0  2  0  0  0  0  0  0  0  0  0
   -2.4700   -0.7380    1.8830 C   0  0  0  0  0  0  0  0  0  0  0  0
   -4.1800   -0.4730    0.1640 C   0  0  2  0  0  0  0  0  0  0  0  0
   -5.0880   -0.1080    1.3100 C   0  0  0  0  0  0  0  0  0  0  0  0
   -4.3540   -1.9390   -0.1390 C   0  0  0  0  0  0  0  0  0  0  0  0
    0.5120   -0.8230    0.4210 C   0  0  0  0  0  0  0  0  0  0  0  0
    0.2000   -2.0870    0.8470 O   0  0  0  0  0  0  0  0  0  0  0  0
  1  2  2  0
  2  3  1  0
  3  4  1  0
  4  5  1  0
  5  6  2  0
  5 19  1  0
  6  7  1  0
  7  8  1  0
  7 11  2  0
  8  9  1  0
  9 10  1  0
 11 12  1  0
 12 13  1  0
 12 19  2  0
 13 14  1  0
 14 15  1  1
 14 16  1  0
 16 17  1  1
 16 18  1  0
 19 20  1  0
M  END
