
     RDKit          3D

 20 20  0  0  0  0  0  0  0  0999 V2000
   -0.7510    4.2760    0.2510 C   0  0  0  0  0  0  0  0  0  0  0  0
   -1.3350    3.2670   -0.7210 C   0  0  0  0  0  0  0  0  0  0  0  0
   -0.9400    1.9190   -0.2790 C   0  0  0  0  0  0  0  0  0  0  0  0
    0.3870    1.5750   -0.5450 C   0  0  0  0  0  0  0  0  0  0  0  0
    1.3640    2.4840   -1.1790 C   0  0  0  0  0  0  0  0  0  0  0  0
    0.8510    0.3360   -0.1760 C   0  0  0  0  0  0  0  0  0  0  0  0
    2.1520   -0.0620   -0.4130 O   0  0  0  0  0  0  0  0  0  0  0  0
    2.5400   -0.7680   -1.5440 C   0  0  0  0  0  0  0  0  0  0  0  0
    4.0620   -0.9580   -1.4270 C   0  0  0  0  0  0  0  0  0  0  0  0
    4.2850   -1.6690   -0.2680 O   0  0  0  0  0  0  0  0  0  0  0  0
    5.6270   -1.8910   -0.0090 C   0  0  0  0  0  0  0  0  0  0  0  0
    0.0110   -0.5630    0.4550 C   0  0  0  0  0  0  0  0  0  0  0  0
    0.6170   -1.8500    0.8800 C   0  0  0  0  0  0  0  0  0  0  0  0
   -1.3320   -0.2770    0.7500 C   0  0  0  0  0  0  0  0  0  0  0  0
   -2.1660   -1.3170    1.3450 C   0  0  1  0  0  0  0  0  0  0  0  0
   -3.2660   -0.8260    2.2790 C   0  0  0  0  0  0  0  0  0  0  0  0
   -2.9110   -2.1710    0.3080 C   0  0  0  0  0  0  0  0  0  0  0  0
   -2.0870   -2.8970   -0.6730 C   0  0  0  0  0  0  0  0  0  0  0  0
   -1.7600    0.9940    0.3570 C   0  0  0  0  0  0  0  0  0  0  0  0
   -3.1400    1.3930    0.5950 C   0  0  0  0  0  0  0  0  0  0  0  0
  1  2  1  0
  2  3  1  0
  3  4  2  0
  3 19  1  0
  4  5  1  0
  4  6  1  0
  6  7  1  0
  6 12  2  0
  7  8  1  0
  8  9  1  0
  9 10  1  0
 10 11  1  0
 12 13  1  0
 12 14  1  0
 14 15  1  0
 14 19  2  0
 15 16  1  1
 15 17  1  0
 17 18  1  0
 19 20  1  0
M  END
