
     RDKit          3D

 13 12  0  0  0  0  0  0  0  0999 V2000
    3.0570   -0.4190   -1.0340 N   0  0  0  0  0  0  0  0  0  0  0  0
    1.9650    0.4280   -0.4270 C   0  0  0  0  0  0  0  0  0  0  0  0
    0.8190   -0.4940   -0.3510 C   0  0  0  0  0  0  0  0  0  0  0  0
   -0.4670   -0.0780    0.1640 C   0  0  0  0  0  0  0  0  0  0  0  0
   -0.8670    1.0800    0.6120 C   0  0  0  0  0  0  0  0  0  0  0  0
   -0.2260    2.3620    0.7690 C   0  0  2  0  0  0  0  0  0  0  0  0
    0.0550    3.0100   -0.4470 F   0  0  0  0  0  0  0  0  0  0  0  0
    0.8660    2.3880    1.6080 F   0  0  0  0  0  0  0  0  0  0  0  0
   -1.1600    3.2560    1.3860 F   0  0  0  0  0  0  0  0  0  0  0  0
   -1.5150   -1.1490    0.1930 C   0  0  0  0  0  0  0  0  0  0  0  0
   -2.8080   -0.7230    0.7120 N   0  0  0  0  0  0  0  0  0  0  0  0
   -1.4460   -2.3630   -0.1650 C   0  0  0  0  0  0  0  0  0  0  0  0
    0.0460   -3.2610   -0.8760 Br  0  0  0  0  0  0  0  0  0  0  0  0
  1  2  1  0
  2  3  1  0
  3  4  1  0
  4  5  2  3
  4 10  1  0
  5  6  1  0
  6  7  1  6
  6  8  1  0
  6  9  1  0
 10 11  1  0
 10 12  2  3
 12 13  1  0
M  END
