
     RDKit          3D

 35 39  0  0  0  0  0  0  0  0999 V2000
   -3.8050   -0.7050    3.9540 C   0  0  0  0  0  0  0  0  0  0  0  0
   -3.4910    0.0390    2.7840 N   0  0  0  0  0  0  0  0  0  0  0  0
   -4.4340    0.1450    1.7040 C   0  0  0  0  0  0  0  0  0  0  0  0
   -5.7640   -0.1290    1.8380 C   0  0  0  0  0  0  0  0  0  0  0  0
   -6.6390   -0.1240    0.7480 C   0  0  0  0  0  0  0  0  0  0  0  0
   -6.1610    0.1550   -0.4870 C   0  0  0  0  0  0  0  0  0  0  0  0
   -7.1080    0.2250   -1.6730 C   0  0  0  0  0  0  0  0  0  0  0  0
   -4.8110    0.4320   -0.6550 C   0  0  0  0  0  0  0  0  0  0  0  0
   -3.9680    0.4320    0.4220 C   0  0  0  0  0  0  0  0  0  0  0  0
   -2.6090    0.9980    0.1730 C   0  0  0  0  0  0  0  0  0  0  0  0
   -1.6800    0.2170   -0.2860 O   0  0  0  0  0  0  0  0  0  0  0  0
   -1.0070   -0.7390   -0.8860 C   0  0  0  0  0  0  0  0  0  0  0  0
   -1.7710   -1.7860   -1.4600 C   0  0  0  0  0  0  0  0  0  0  0  0
   -1.1520   -2.8430   -2.0810 C   0  0  0  0  0  0  0  0  0  0  0  0
    0.2230   -2.8960   -2.1490 C   0  0  0  0  0  0  0  0  0  0  0  0
    0.9460   -1.8690   -1.5910 C   0  0  0  0  0  0  0  0  0  0  0  0
    0.3830   -0.7960   -0.9660 C   0  0  0  0  0  0  0  0  0  0  0  0
    1.1520    0.3500   -0.4140 C   0  0  1  0  0  0  0  0  0  0  0  0
    2.5620    0.0530   -0.2210 N   0  0  0  0  0  0  0  0  0  0  0  0
    3.4810    1.1390   -0.0220 C   0  0  0  0  0  0  0  0  0  0  0  0
    3.0820    2.3930   -0.2280 C   0  0  0  0  0  0  0  0  0  0  0  0
    4.2000    3.2590    0.0420 C   0  0  0  0  0  0  0  0  0  0  0  0
    4.2400    4.5200   -0.0280 O   0  0  0  0  0  0  0  0  0  0  0  0
    5.2730    2.4200    0.4110 N   0  0  0  0  0  0  0  0  0  0  0  0
    4.8880    1.1570    0.3850 C   0  0  0  0  0  0  0  0  0  0  0  0
    5.8520    0.0950    0.6340 C   0  0  0  0  0  0  0  0  0  0  0  0
    7.2320    0.3830    0.4920 C   0  0  0  0  0  0  0  0  0  0  0  0
    8.2270   -0.4980    0.7650 C   0  0  0  0  0  0  0  0  0  0  0  0
    7.9090   -1.7730    1.2170 C   0  0  0  0  0  0  0  0  0  0  0  0
    6.5900   -2.0960    1.3750 C   0  0  0  0  0  0  0  0  0  0  0  0
    5.5640   -1.1550    1.0790 C   0  0  0  0  0  0  0  0  0  0  0  0
    1.7730    2.6850   -0.8400 C   0  0  0  0  0  0  0  0  0  0  0  0
    1.3600    3.8510   -1.0320 O   0  0  0  0  0  0  0  0  0  0  0  0
    0.9970    1.5480   -1.2050 N   0  0  0  0  0  0  0  0  0  0  0  0
    0.0950    1.6150   -2.3630 C   0  0  0  0  0  0  0  0  0  0  0  0
  1  2  1  0
  2  3  1  0
  3  4  2  0
  3  9  1  0
  4  5  1  0
  5  6  2  0
  6  7  1  0
  6  8  1  0
  8  9  2  0
  9 10  1  0
 10 11  1  0
 11 12  1  0
 12 13  2  0
 12 17  1  0
 13 14  1  0
 14 15  2  0
 15 16  1  0
 16 17  2  0
 18 17  1  6
 18 19  1  0
 18 34  1  0
 19 20  1  0
 20 21  2  0
 20 25  1  0
 21 22  1  0
 21 32  1  0
 22 23  2  0
 22 24  1  0
 24 25  2  0
 25 26  1  0
 26 27  2  0
 26 31  1  0
 27 28  1  0
 28 29  2  0
 29 30  1  0
 30 31  2  0
 32 33  2  0
 32 34  1  0
 34 35  1  0
M  END
