
     RDKit          3D

 35 39  0  0  0  0  0  0  0  0999 V2000
   -8.6000    2.5850    0.8960 C   0  0  0  0  0  0  0  0  0  0  0  0
   -8.3900    1.1140    0.8150 C   0  0  0  0  0  0  0  0  0  0  0  0
   -9.4670    0.2570    0.7300 C   0  0  0  0  0  0  0  0  0  0  0  0
   -9.2860   -1.1120    0.6540 C   0  0  0  0  0  0  0  0  0  0  0  0
   -8.0070   -1.6260    0.6640 C   0  0  0  0  0  0  0  0  0  0  0  0
   -6.8970   -0.7990    0.7490 C   0  0  0  0  0  0  0  0  0  0  0  0
   -7.1330    0.5470    0.8220 C   0  0  0  0  0  0  0  0  0  0  0  0
   -5.8180    1.2320    0.9130 C   0  0  0  0  0  0  0  0  0  0  0  0
   -4.9270    0.1630    1.4080 N   0  0  0  0  0  0  0  0  0  0  0  0
   -5.4390   -1.0150    0.7770 C   0  0  2  0  0  0  0  0  0  0  0  0
   -4.9820   -1.0310   -0.6880 C   0  0  0  0  0  0  0  0  0  0  0  0
   -3.5470   -1.2390   -0.7540 N   0  0  0  0  0  0  0  0  0  0  0  0
   -2.8280   -1.3030   -1.9620 C   0  0  0  0  0  0  0  0  0  0  0  0
   -3.4220   -1.1780   -3.0560 O   0  0  0  0  0  0  0  0  0  0  0  0
   -1.3750   -1.5150   -1.9750 C   0  0  0  0  0  0  0  0  0  0  0  0
   -0.5170   -1.6760   -0.9410 C   0  0  0  0  0  0  0  0  0  0  0  0
    0.7820   -1.8570   -1.1970 C   0  0  0  0  0  0  0  0  0  0  0  0
    1.8090   -2.0500   -0.0780 C   0  0  0  0  0  0  0  0  0  0  0  0
    2.1910   -0.7820    0.4670 N   0  0  0  0  0  0  0  0  0  0  0  0
    3.0800    0.0730   -0.2190 C   0  0  0  0  0  0  0  0  0  0  0  0
    3.5440   -0.2890   -1.3300 O   0  0  0  0  0  0  0  0  0  0  0  0
    3.4510    1.3990    0.3940 C   0  0  0  0  0  0  0  0  0  0  0  0
    4.3630    2.0440   -0.5270 N   0  0  0  0  0  0  0  0  0  0  0  0
    5.6510    1.4610   -0.3780 C   0  0  0  0  0  0  0  0  0  0  0  0
    6.3000    0.8730   -1.4400 C   0  0  0  0  0  0  0  0  0  0  0  0
    7.5520    0.3040   -1.3040 C   0  0  0  0  0  0  0  0  0  0  0  0
    8.2030    0.3040   -0.0890 C   0  0  0  0  0  0  0  0  0  0  0  0
    9.4610   -0.2660    0.0510 C   0  0  0  0  0  0  0  0  0  0  0  0
   10.0940   -0.2560    1.2710 C   0  0  0  0  0  0  0  0  0  0  0  0
    9.4540    0.3330    2.3560 C   0  0  0  0  0  0  0  0  0  0  0  0
    8.2050    0.8940    2.1940 C   0  0  0  0  0  0  0  0  0  0  0  0
    7.5580    0.8920    0.9790 C   0  0  0  0  0  0  0  0  0  0  0  0
    6.2910    1.4670    0.8410 C   0  0  0  0  0  0  0  0  0  0  0  0
    1.2080   -1.8740   -2.4980 C   0  0  0  0  0  0  0  0  0  0  0  0
   -0.3500   -1.6160   -3.3870 S   0  0  0  0  0  0  0  0  0  0  0  0
  1  2  1  0
  2  3  2  0
  2  7  1  0
  3  4  1  0
  4  5  2  0
  5  6  1  0
  6  7  2  0
  6 10  1  0
  7  8  1  0
  8  9  1  0
  9 10  1  0
 10 11  1  6
 11 12  1  0
 12 13  1  0
 13 14  2  0
 13 15  1  0
 15 16  2  0
 15 35  1  0
 16 17  1  0
 17 18  1  0
 17 34  2  0
 18 19  1  0
 19 20  1  0
 20 21  2  0
 20 22  1  0
 22 23  1  0
 23 24  1  0
 24 25  2  0
 24 33  1  0
 25 26  1  0
 26 27  2  0
 27 28  1  0
 27 32  1  0
 28 29  2  0
 29 30  1  0
 30 31  2  0
 31 32  1  0
 32 33  2  0
 34 35  1  0
M  CHG  1  23   1
M  END
