
     RDKit          3D

 35 39  0  0  0  0  0  0  0  0999 V2000
    1.4850   -1.4250   -0.5150 O   0  0  0  0  0  0  0  0  0  0  0  0
    2.0080   -0.2760   -0.4260 C   0  0  0  0  0  0  0  0  0  0  0  0
    1.1440    0.8020   -0.3470 N   0  0  0  0  0  0  0  0  0  0  0  0
   -0.2740    0.9070   -0.3370 C   0  0  0  0  0  0  0  0  0  0  0  0
   -1.0800    0.4050    0.7990 C   0  0  1  0  0  0  0  0  0  0  0  0
   -2.5190    0.7270    0.4760 C   0  0  0  0  0  0  0  0  0  0  0  0
   -3.0220    1.6780    1.2100 O   0  0  0  0  0  0  0  0  0  0  0  0
   -3.3580    0.1600   -0.4850 N   0  0  0  0  0  0  0  0  0  0  0  0
   -3.1230   -1.0610   -1.2230 C   0  0  0  0  0  0  0  0  0  0  0  0
   -4.3750   -1.5630   -1.9330 C   0  0  0  0  0  0  0  0  0  0  0  0
   -5.5990   -1.3580   -1.0480 C   0  0  0  0  0  0  0  0  0  0  0  0
   -5.7470    0.1360   -1.0180 C   0  0  0  0  0  0  0  0  0  0  0  0
   -6.9470    0.7540   -1.2650 C   0  0  0  0  0  0  0  0  0  0  0  0
   -6.9720    2.1410   -1.2400 C   0  0  0  0  0  0  0  0  0  0  0  0
   -5.8410    2.8860   -0.9800 C   0  0  0  0  0  0  0  0  0  0  0  0
   -4.6520    2.2320   -0.7360 C   0  0  0  0  0  0  0  0  0  0  0  0
   -4.6080    0.8370   -0.7550 C   0  0  0  0  0  0  0  0  0  0  0  0
   -0.8430   -0.9850    1.1840 C   0  0  0  0  0  0  0  0  0  0  0  0
   -1.7950   -1.4390    2.3040 C   0  0  0  0  0  0  0  0  0  0  0  0
   -2.1820   -0.3800    3.1500 N   0  0  0  0  0  0  0  0  0  0  0  0
   -1.3260    0.7390    3.2730 C   0  0  0  0  0  0  0  0  0  0  0  0
   -0.6890    1.2630    2.0430 C   0  0  0  0  0  0  0  0  0  0  0  0
    3.4890   -0.2530   -0.4130 C   0  0  0  0  0  0  0  0  0  0  0  0
    4.0870   -1.4350   -0.4280 C   0  0  0  0  0  0  0  0  0  0  0  0
    5.5100   -1.6540   -0.4310 C   0  0  0  0  0  0  0  0  0  0  0  0
    6.0940   -2.5280    0.4840 C   0  0  0  0  0  0  0  0  0  0  0  0
    7.4470   -2.7360    0.3840 C   0  0  0  0  0  0  0  0  0  0  0  0
    8.2410   -2.1340   -0.5580 C   0  0  0  0  0  0  0  0  0  0  0  0
    7.6480   -1.2950   -1.4270 N   0  0  0  0  0  0  0  0  0  0  0  0
    6.3330   -1.0430   -1.3920 C   0  0  0  0  0  0  0  0  0  0  0  0
    4.2870    0.9310   -0.2600 C   0  0  0  0  0  0  0  0  0  0  0  0
    5.5110    1.0680    0.3720 C   0  0  0  0  0  0  0  0  0  0  0  0
    5.9330    2.3530    0.1380 C   0  0  0  0  0  0  0  0  0  0  0  0
    5.0590    2.9970   -0.5840 O   0  0  0  0  0  0  0  0  0  0  0  0
    4.0600    2.1560   -0.8350 C   0  0  0  0  0  0  0  0  0  0  0  0
  1  2  2  0
  2  3  1  0
  2 23  1  0
  3  4  1  0
  5  4  1  6
  5  6  1  0
  5 18  1  0
  5 22  1  0
  6  7  2  0
  6  8  1  0
  8  9  1  0
  8 17  1  0
  9 10  1  0
 10 11  1  0
 11 12  1  0
 12 13  2  0
 12 17  1  0
 13 14  1  0
 14 15  2  0
 15 16  1  0
 16 17  2  0
 18 19  1  0
 19 20  1  0
 20 21  1  0
 21 22  1  0
 23 24  2  3
 23 31  1  0
 24 25  1  0
 25 26  2  0
 25 30  1  0
 26 27  1  0
 27 28  2  0
 28 29  1  0
 29 30  2  0
 31 32  1  0
 31 35  2  0
 32 33  2  0
 33 34  1  0
 34 35  1  0
M  END
