
     RDKit          3D

 35 39  0  0  0  0  0  0  0  0999 V2000
   -5.1310    4.4700    0.8970 C   0  0  0  0  0  0  0  0  0  0  0  0
   -4.8870    3.0450    0.5220 C   0  0  0  0  0  0  0  0  0  0  0  0
   -4.9910    2.5740   -0.7720 C   0  0  0  0  0  0  0  0  0  0  0  0
   -4.6920    1.2360   -0.6860 C   0  0  0  0  0  0  0  0  0  0  0  0
   -4.4230    0.9560    0.6380 C   0  0  0  0  0  0  0  0  0  0  0  0
   -4.0550   -0.3040    1.2610 C   0  0  0  0  0  0  0  0  0  0  0  0
   -4.0120   -1.4390    0.4110 N   0  0  0  0  0  0  0  0  0  0  0  0
   -2.7860   -1.7430   -0.2420 C   0  0  0  0  0  0  0  0  0  0  0  0
   -2.6720   -2.7710   -0.9990 O   0  0  0  0  0  0  0  0  0  0  0  0
   -1.5790   -0.9350   -0.1160 C   0  0  0  0  0  0  0  0  0  0  0  0
   -0.4620   -1.2440   -0.7310 C   0  0  0  0  0  0  0  0  0  0  0  0
   -0.2400   -2.4050   -1.6140 C   0  0  0  0  0  0  0  0  0  0  0  0
    1.1020   -2.2050   -2.0160 O   0  0  0  0  0  0  0  0  0  0  0  0
    1.6510   -1.1030   -1.4280 N   0  0  0  0  0  0  0  0  0  0  0  0
    0.7780   -0.5180   -0.6760 C   0  0  0  0  0  0  0  0  0  0  0  0
    1.0740    0.7160    0.1030 C   0  0  0  0  0  0  0  0  0  0  0  0
    2.5030    1.1590   -0.1250 C   0  0  0  0  0  0  0  0  0  0  0  0
    3.4480    0.1430    0.2820 N   0  0  0  0  0  0  0  0  0  0  0  0
    4.8370    0.4120    0.1040 C   0  0  0  0  0  0  0  0  0  0  0  0
    5.2640    1.6050   -0.4540 C   0  0  0  0  0  0  0  0  0  0  0  0
    6.5890    1.9120   -0.6500 C   0  0  0  0  0  0  0  0  0  0  0  0
    7.0070    3.2050   -1.2530 C   0  0  0  0  0  0  0  0  0  0  0  0
    7.5390    0.9880   -0.2730 C   0  0  0  0  0  0  0  0  0  0  0  0
    8.8830    0.9750   -0.3250 N   0  0  0  0  0  0  0  0  0  0  0  0
    9.3560   -0.1790    0.1750 C   0  0  0  0  0  0  0  0  0  0  0  0
    8.2890   -0.9460    0.5680 C   0  0  0  0  0  0  0  0  0  0  0  0
    7.1390   -0.2130    0.2870 C   0  0  0  0  0  0  0  0  0  0  0  0
    5.8050   -0.5080    0.4780 C   0  0  0  0  0  0  0  0  0  0  0  0
   -5.0900   -2.3200    0.1510 C   0  0  0  0  0  0  0  0  0  0  0  0
   -5.5210   -2.4220   -1.1510 C   0  0  0  0  0  0  0  0  0  0  0  0
   -6.5600   -3.2410   -1.5360 C   0  0  0  0  0  0  0  0  0  0  0  0
   -7.2120   -4.0040   -0.5850 C   0  0  0  0  0  0  0  0  0  0  0  0
   -6.7930   -3.9140    0.7250 C   0  0  0  0  0  0  0  0  0  0  0  0
   -5.7380   -3.0790    1.0990 C   0  0  0  0  0  0  0  0  0  0  0  0
   -4.5550    2.0780    1.3110 O   0  0  0  0  0  0  0  0  0  0  0  0
  1  2  1  0
  2  3  2  0
  2 35  1  0
  3  4  1  0
  4  5  2  0
  5  6  1  0
  5 35  1  0
  6  7  1  0
  7  8  1  0
  7 29  1  0
  8  9  2  0
  8 10  1  0
 10 11  2  3
 11 12  1  0
 11 15  1  0
 12 13  1  0
 13 14  1  0
 14 15  2  0
 15 16  1  0
 16 17  1  0
 17 18  1  0
 18 19  1  0
 19 20  2  0
 19 28  1  0
 20 21  1  0
 21 22  1  0
 21 23  2  0
 23 24  1  0
 23 27  1  0
 24 25  1  0
 25 26  2  0
 26 27  1  0
 27 28  2  0
 29 30  2  0
 29 34  1  0
 30 31  1  0
 31 32  2  0
 32 33  1  0
 33 34  2  0
M  END
