
     RDKit          3D

 35 39  0  0  0  0  0  0  0  0999 V2000
   10.1800    2.1490    0.0520 N   0  0  0  0  0  0  0  0  0  0  0  0
    9.9090    1.1270   -0.4720 C   0  0  0  0  0  0  0  0  0  0  0  0
    9.5940   -0.1500   -1.1120 C   0  0  0  0  0  0  0  0  0  0  0  0
    8.1730   -0.4660   -0.7420 C   0  0  0  0  0  0  0  0  0  0  0  0
    7.1300   -0.0370   -1.5260 C   0  0  0  0  0  0  0  0  0  0  0  0
    5.8100   -0.3260   -1.1740 C   0  0  0  0  0  0  0  0  0  0  0  0
    5.5130   -1.0420   -0.0420 C   0  0  0  0  0  0  0  0  0  0  0  0
    4.0950   -1.3220    0.3140 C   0  0  0  0  0  0  0  0  0  0  0  0
    3.2980   -0.2160   -0.1200 N   0  0  0  0  0  0  0  0  0  0  0  0
    2.2530    0.1460    0.8050 C   0  0  1  0  0  0  0  0  0  0  0  0
    2.0860    1.6300    0.7550 C   0  0  0  0  0  0  0  0  0  0  0  0
    0.7060    2.1210    0.4740 C   0  0  0  0  0  0  0  0  0  0  0  0
    0.1440    1.2810   -0.6740 C   0  0  0  0  0  0  0  0  0  0  0  0
   -0.0700   -0.0620   -0.1010 C   0  0  0  0  0  0  0  0  0  0  0  0
    0.9830   -0.5940    0.5990 C   0  0  0  0  0  0  0  0  0  0  0  0
    0.8630   -1.8470    1.1410 C   0  0  0  0  0  0  0  0  0  0  0  0
   -0.3120   -2.5220    0.9590 C   0  0  0  0  0  0  0  0  0  0  0  0
   -1.3740   -1.9640    0.2420 C   0  0  0  0  0  0  0  0  0  0  0  0
   -1.2910   -0.7160   -0.3110 C   0  0  0  0  0  0  0  0  0  0  0  0
   -2.5260    0.1000   -1.2270 S   0  0  1  0  0  0  0  0  0  0  0  0
   -2.7900    1.4700   -0.5330 O   0  0  0  0  0  0  0  0  0  0  0  0
   -1.9670    0.4210   -2.6170 O   0  0  0  0  0  0  0  0  0  0  0  0
   -4.0290   -0.6070   -1.4170 N   0  0  0  0  0  0  0  0  0  0  0  0
   -5.0350   -0.9570   -0.4790 C   0  0  0  0  0  0  0  0  0  0  0  0
   -5.0670   -2.1670    0.1450 C   0  0  0  0  0  0  0  0  0  0  0  0
   -6.0730   -2.4870    1.0710 C   0  0  0  0  0  0  0  0  0  0  0  0
   -7.0390   -1.5590    1.3460 C   0  0  0  0  0  0  0  0  0  0  0  0
   -7.0390   -0.3150    0.7270 C   0  0  0  0  0  0  0  0  0  0  0  0
   -6.0580   -0.0090   -0.1750 C   0  0  0  0  0  0  0  0  0  0  0  0
   -6.0430    1.2150   -0.8510 N   0  0  0  0  0  0  0  0  0  0  0  0
   -6.9030    2.3230   -0.8900 C   0  0  2  0  0  0  0  0  0  0  0  0
   -7.6100    2.9360    0.2420 C   0  0  0  0  0  0  0  0  0  0  0  0
   -8.4050    2.1970   -0.8140 C   0  0  0  0  0  0  0  0  0  0  0  0
    6.5630   -1.4730    0.7450 C   0  0  0  0  0  0  0  0  0  0  0  0
    7.8690   -1.1870    0.3960 C   0  0  0  0  0  0  0  0  0  0  0  0
  1  2  3  0
  2  3  1  0
  3  4  1  0
  4  5  2  0
  4 35  1  0
  5  6  1  0
  6  7  2  0
  7  8  1  0
  7 34  1  0
  8  9  1  0
 10  9  1  6
 10 11  1  0
 10 15  1  0
 11 12  1  0
 12 13  1  0
 13 14  1  0
 14 15  2  0
 14 19  1  0
 15 16  1  0
 16 17  2  0
 17 18  1  0
 18 19  2  0
 19 20  1  0
 20 21  2  0
 20 22  2  0
 20 23  1  6
 23 24  1  0
 24 25  2  0
 24 29  1  0
 25 26  1  0
 26 27  2  0
 27 28  1  0
 28 29  2  0
 29 30  1  0
 31 30  1  1
 31 32  1  0
 31 33  1  0
 32 33  1  0
 34 35  2  0
M  CHG  1   9   1
M  END
