
     RDKit          3D

 35 39  0  0  0  0  0  0  0  0999 V2000
   -9.2610   -1.5170   -0.9960 C   0  0  0  0  0  0  0  0  0  0  0  0
   -8.2290   -2.3040   -1.5950 N   0  0  0  0  0  0  0  0  0  0  0  0
   -6.9190   -1.8100   -1.3120 C   0  0  0  0  0  0  0  0  0  0  0  0
   -6.3400   -2.0480   -0.0780 C   0  0  0  0  0  0  0  0  0  0  0  0
   -5.0690   -1.5670    0.1930 C   0  0  0  0  0  0  0  0  0  0  0  0
   -4.3450   -0.8510   -0.7280 C   0  0  0  0  0  0  0  0  0  0  0  0
   -4.9230   -0.6140   -1.9580 C   0  0  0  0  0  0  0  0  0  0  0  0
   -6.2000   -1.0920   -2.2430 C   0  0  0  0  0  0  0  0  0  0  0  0
   -4.0200    0.0950   -2.6580 N   0  0  0  0  0  0  0  0  0  0  0  0
   -2.9110    0.3060   -1.9150 C   0  0  0  0  0  0  0  0  0  0  0  0
   -1.7200    0.9560   -2.1480 C   0  0  0  0  0  0  0  0  0  0  0  0
   -0.7100    1.0290   -1.1820 C   0  0  0  0  0  0  0  0  0  0  0  0
   -0.8670    0.4500    0.0520 C   0  0  0  0  0  0  0  0  0  0  0  0
    0.1040    0.5100    1.0970 N   0  0  0  0  0  0  0  0  0  0  0  0
    0.9740    1.5850    1.3610 C   0  0  0  0  0  0  0  0  0  0  0  0
    0.8080    2.8630    0.8530 C   0  0  0  0  0  0  0  0  0  0  0  0
    1.6570    3.9230    1.1950 C   0  0  0  0  0  0  0  0  0  0  0  0
    1.4140    5.2780    0.6020 C   0  0  0  0  0  0  0  0  0  0  0  0
    2.7010    3.7170    2.0640 C   0  0  0  0  0  0  0  0  0  0  0  0
    2.8770    2.4590    2.5750 C   0  0  0  0  0  0  0  0  0  0  0  0
    2.0300    1.4170    2.2280 C   0  0  0  0  0  0  0  0  0  0  0  0
    2.3510   -0.1570    2.8840 S   0  0  2  0  0  0  0  0  0  0  0  0
    1.2450   -0.6790    3.7570 O   0  0  0  0  0  0  0  0  0  0  0  0
    3.5680   -0.0440    3.8040 O   0  0  0  0  0  0  0  0  0  0  0  0
    2.7880   -1.3180    1.6970 N   0  0  0  0  0  0  0  0  0  0  0  0
    4.0220   -0.8950    1.0330 C   0  0  0  0  0  0  0  0  0  0  0  0
    4.3590   -1.9490    0.0020 C   0  0  0  0  0  0  0  0  0  0  0  0
    5.5880   -1.6430   -0.7430 C   0  0  0  0  0  0  0  0  0  0  0  0
    6.8050   -2.0940   -0.2720 C   0  0  0  0  0  0  0  0  0  0  0  0
    7.9950   -1.8350   -0.9340 C   0  0  0  0  0  0  0  0  0  0  0  0
    7.9950   -1.1030   -2.1060 C   0  0  0  0  0  0  0  0  0  0  0  0
    6.7830   -0.6520   -2.5780 C   0  0  0  0  0  0  0  0  0  0  0  0
    5.6000   -0.9120   -1.9160 C   0  0  0  0  0  0  0  0  0  0  0  0
   -2.0870   -0.2080    0.2680 C   0  0  0  0  0  0  0  0  0  0  0  0
   -3.0820   -0.2820   -0.6810 C   0  0  0  0  0  0  0  0  0  0  0  0
  1  2  1  0
  2  3  1  0
  3  4  2  0
  3  8  1  0
  4  5  1  0
  5  6  2  0
  6  7  1  0
  6 35  1  0
  7  8  2  0
  7  9  1  0
  9 10  1  0
 10 11  2  0
 10 35  1  0
 11 12  1  0
 12 13  2  0
 13 14  1  0
 13 34  1  0
 14 15  1  0
 15 16  2  0
 15 21  1  0
 16 17  1  0
 17 18  1  0
 17 19  2  0
 19 20  1  0
 20 21  2  0
 21 22  1  0
 22 23  2  0
 22 24  2  0
 22 25  1  6
 25 26  1  0
 26 27  1  0
 27 28  1  0
 28 29  2  0
 28 33  1  0
 29 30  1  0
 30 31  2  0
 31 32  1  0
 32 33  2  0
 34 35  2  0
M  CHG  1   2   1
M  END
