
     RDKit          3D

 35 38  0  0  0  0  0  0  0  0999 V2000
  -10.3070    0.9870   -0.3570 C   0  0  0  0  0  0  0  0  0  0  0  0
   -9.0960    0.7470    0.0680 C   0  0  0  0  0  0  0  0  0  0  0  0
   -7.9750    0.4300   -0.6520 C   0  0  0  0  0  0  0  0  0  0  0  0
   -7.7590    0.2690   -1.9320 C   0  0  0  0  0  0  0  0  0  0  0  0
   -8.8040    0.4150   -2.9710 C   0  0  0  0  0  0  0  0  0  0  0  0
   -6.9540    0.2770    0.2850 C   0  0  0  0  0  0  0  0  0  0  0  0
   -5.6020   -0.0540    0.0460 N   0  0  0  0  0  0  0  0  0  0  0  0
   -4.5830   -0.1940    1.0010 C   0  0  0  0  0  0  0  0  0  0  0  0
   -4.8330   -0.0190    2.1980 O   0  0  0  0  0  0  0  0  0  0  0  0
   -3.1960   -0.5490    0.6260 C   0  0  0  0  0  0  0  0  0  0  0  0
   -2.7220   -0.7750   -0.6460 C   0  0  0  0  0  0  0  0  0  0  0  0
   -1.3800   -1.0790   -0.5810 C   0  0  0  0  0  0  0  0  0  0  0  0
   -1.0930   -1.0210    0.7830 C   0  0  0  0  0  0  0  0  0  0  0  0
    0.2140   -1.2660    1.4140 C   0  0  0  0  0  0  0  0  0  0  0  0
    1.3420   -1.0840    0.5510 N   0  0  0  0  0  0  0  0  0  0  0  0
    1.4290    0.2630    0.1060 C   0  0  0  0  0  0  0  0  0  0  0  0
    2.7190    0.5870   -0.5450 C   0  0  0  0  0  0  0  0  0  0  0  0
    3.8310    0.1650    0.0240 C   0  0  0  0  0  0  0  0  0  0  0  0
    5.1540    0.4220   -0.5230 C   0  0  0  0  0  0  0  0  0  0  0  0
    5.3130    1.1540   -1.6860 C   0  0  0  0  0  0  0  0  0  0  0  0
    6.5660    1.4010   -2.2180 C   0  0  0  0  0  0  0  0  0  0  0  0
    7.6980    0.9310   -1.6170 C   0  0  0  0  0  0  0  0  0  0  0  0
    9.0310    1.2020   -2.1990 C   0  0  0  0  0  0  0  0  0  0  0  0
    7.5640    0.1830   -0.4330 C   0  0  0  0  0  0  0  0  0  0  0  0
    8.7760   -0.2650    0.1280 N   0  0  0  0  0  0  0  0  0  0  0  0
    8.8420   -1.0470    1.3010 C   0  0  0  0  0  0  0  0  0  0  0  0
   10.1890   -1.4730    1.8150 C   0  0  0  0  0  0  0  0  0  0  0  0
    7.8690   -1.4320    1.9720 O   0  0  0  0  0  0  0  0  0  0  0  0
    6.3140   -0.0580    0.0890 C   0  0  0  0  0  0  0  0  0  0  0  0
    3.6320   -0.5900    1.2840 C   0  0  0  0  0  0  0  0  0  0  0  0
    2.5100   -1.6050    1.1680 C   0  0  0  0  0  0  0  0  0  0  0  0
   -2.1740   -0.7120    1.4280 O   0  0  0  0  0  0  0  0  0  0  0  0
   -7.5100    0.5090    1.5160 C   0  0  0  0  0  0  0  0  0  0  0  0
   -8.8120    0.7960    1.3990 N   0  0  0  0  0  0  0  0  0  0  0  0
   -9.6720    1.0850    2.5210 C   0  0  0  0  0  0  0  0  0  0  0  0
  1  2  2  0
  2  3  1  0
  2 34  1  0
  3  4  2  3
  3  6  1  0
  4  5  1  0
  6  7  1  0
  6 33  2  0
  7  8  1  0
  8  9  2  0
  8 10  1  0
 10 11  2  0
 10 32  1  0
 11 12  1  0
 12 13  2  0
 13 14  1  0
 13 32  1  0
 14 15  1  0
 15 16  1  0
 15 31  1  0
 16 17  1  0
 17 18  2  0
 18 19  1  0
 18 30  1  0
 19 20  2  0
 19 29  1  0
 20 21  1  0
 21 22  2  0
 22 23  1  0
 22 24  1  0
 24 25  1  0
 24 29  2  0
 25 26  1  0
 26 27  1  0
 26 28  2  0
 30 31  1  0
 33 34  1  0
 34 35  1  0
M  END
