
     RDKit          3D

 22 24  0  0  0  0  0  0  0  0999 V2000
    2.6990    2.3220   -1.9940 N   0  0  0  0  0  0  0  0  0  0  0  0
    3.1210    1.1080   -1.3700 C   0  0  0  0  0  0  0  0  0  0  0  0
    4.2800    0.7610   -1.5800 O   0  0  0  0  0  0  0  0  0  0  0  0
    2.2070    0.3580   -0.5450 C   0  0  0  0  0  0  0  0  0  0  0  0
    0.8850    0.7270   -0.2870 C   0  0  0  0  0  0  0  0  0  0  0  0
    0.3020   -0.1590    0.5020 N   0  0  0  0  0  0  0  0  0  0  0  0
   -1.0720   -0.1240    0.9930 C   0  0  2  0  0  0  0  0  0  0  0  0
   -1.9240   -0.8090    0.1700 O   0  0  0  0  0  0  0  0  0  0  0  0
   -3.0980   -0.0780    0.0480 C   0  0  2  0  0  0  0  0  0  0  0  0
   -3.8650   -0.4860   -1.1860 C   0  0  0  0  0  0  0  0  0  0  0  0
   -4.1590   -1.8470   -1.0500 O   0  0  0  0  0  0  0  0  0  0  0  0
   -2.5550    1.3390   -0.0750 C   0  0  1  0  0  0  0  0  0  0  0  0
   -3.5130    2.3000    0.1190 O   0  0  0  0  0  0  0  0  0  0  0  0
   -1.5270    1.3030    1.0650 C   0  0  1  0  0  0  0  0  0  0  0  0
   -2.2770    1.4960    2.2400 O   0  0  0  0  0  0  0  0  0  0  0  0
    1.2150   -1.1140    0.7750 C   0  0  0  0  0  0  0  0  0  0  0  0
    1.0570   -2.2160    1.5440 N   0  0  0  0  0  0  0  0  0  0  0  0
    2.1140   -3.0280    1.6710 C   0  0  0  0  0  0  0  0  0  0  0  0
    3.2840   -2.7800    1.0730 N   0  0  0  0  0  0  0  0  0  0  0  0
    3.4550   -1.6820    0.3020 C   0  0  0  0  0  0  0  0  0  0  0  0
    4.7100   -1.4400   -0.3240 N   0  0  0  0  0  0  0  0  0  0  0  0
    2.4140   -0.8150    0.1330 C   0  0  0  0  0  0  0  0  0  0  0  0
  1  2  1  0
  2  3  2  0
  2  4  1  0
  4  5  2  0
  4 22  1  0
  5  6  1  0
  7  6  1  6
  6 16  1  0
  7  8  1  0
  7 14  1  0
  8  9  1  0
  9 10  1  6
  9 12  1  0
 10 11  1  0
 12 13  1  1
 12 14  1  0
 14 15  1  1
 16 17  2  0
 16 22  1  0
 17 18  1  0
 18 19  2  0
 19 20  1  0
 20 21  1  0
 20 22  2  0
M  END
