
     RDKit          3D

 17 18  0  0  0  0  0  0  0  0999 V2000
   -5.4610    0.6370    0.1220 N   0  0  0  0  0  0  0  0  0  0  0  0
   -4.2380    0.3310   -0.5460 C   0  0  1  0  0  0  0  0  0  0  0  0
   -3.0280    0.3850    0.3980 C   0  0  0  0  0  0  0  0  0  0  0  0
   -2.0090   -0.3400   -0.4900 C   0  0  1  0  0  0  0  0  0  0  0  0
   -0.8050   -0.6480    0.2050 N   0  0  0  0  0  0  0  0  0  0  0  0
    0.4420   -0.1210   -0.2280 C   0  0  0  0  0  0  0  0  0  0  0  0
    0.4080    0.6290   -1.2600 O   0  0  0  0  0  0  0  0  0  0  0  0
    1.6750   -0.3880    0.4170 N   0  0  0  0  0  0  0  0  0  0  0  0
    2.8770    0.2120   -0.1260 C   0  0  1  0  0  0  0  0  0  0  0  0
    3.5820    1.0910    0.8740 C   0  0  0  0  0  0  0  0  0  0  0  0
    4.9390    1.0940    0.3630 N   0  0  0  0  0  0  0  0  0  0  0  0
    5.2120   -0.1130   -0.3370 C   0  0  0  0  0  0  0  0  0  0  0  0
    6.3050   -0.5070   -0.8180 O   0  0  0  0  0  0  0  0  0  0  0  0
    3.9190   -0.8680   -0.4070 C   0  0  0  0  0  0  0  0  0  0  0  0
   -2.7880   -1.4940   -0.9310 C   0  0  0  0  0  0  0  0  0  0  0  0
   -2.4650   -2.6630   -1.2070 O   0  0  0  0  0  0  0  0  0  0  0  0
   -4.1510   -1.0350   -1.0150 N   0  0  0  0  0  0  0  0  0  0  0  0
  2  1  1  1
  2  3  1  0
  2 17  1  0
  3  4  1  0
  4  5  1  1
  4 15  1  0
  5  6  1  0
  6  7  2  0
  6  8  1  0
  9  8  1  1
  9 10  1  0
  9 14  1  0
 10 11  1  0
 11 12  1  0
 12 13  2  0
 12 14  1  0
 15 16  2  0
 15 17  1  0
M  END
