
     RDKit          3D

 17 18  0  0  0  0  0  0  0  0999 V2000
   -3.6190    1.4030    0.1600 C   0  0  0  0  0  0  0  0  0  0  0  0
   -3.5810    0.0140   -0.4070 C   0  0  0  0  0  0  0  0  0  0  0  0
   -2.6170   -0.8630    0.2910 C   0  0  0  0  0  0  0  0  0  0  0  0
   -1.2180   -0.4310    0.2310 C   0  0  0  0  0  0  0  0  0  0  0  0
   -0.2600   -1.0910   -0.4510 C   0  0  0  0  0  0  0  0  0  0  0  0
   -0.4780   -2.2870   -1.2010 N   0  0  0  0  0  0  0  0  0  0  0  0
    0.9940   -0.4410   -0.3050 N   0  0  0  0  0  0  0  0  0  0  0  0
    0.9210    0.5930    0.4240 C   0  0  0  0  0  0  0  0  0  0  0  0
    1.9750    1.4800    0.7810 N   0  0  0  0  0  0  0  0  0  0  0  0
    3.3820    1.1140    0.5450 C   0  0  2  0  0  0  0  0  0  0  0  0
    3.6050    0.7230   -0.8240 N   0  0  0  0  0  0  0  0  0  0  0  0
    4.2510   -0.4350   -0.8360 O   0  0  0  0  0  0  0  0  0  0  0  0
    3.9670   -1.1100    0.2800 N   0  0  0  0  0  0  0  0  0  0  0  0
    3.7390   -0.1270    1.2820 C   0  0  0  0  0  0  0  0  0  0  0  0
    3.8320   -0.3070    2.5330 O   0  0  0  0  0  0  0  0  0  0  0  0
   -0.5040    0.6800    0.8260 C   0  0  0  0  0  0  0  0  0  0  0  0
   -0.9430    1.5800    1.5550 O   0  0  0  0  0  0  0  0  0  0  0  0
  1  2  1  0
  2  3  1  0
  3  4  1  0
  4  5  2  0
  4 16  1  0
  5  6  1  0
  5  7  1  0
  7  8  2  0
  8  9  1  0
  8 16  1  0
 10  9  1  6
 10 11  1  0
 10 14  1  0
 11 12  1  0
 12 13  1  0
 13 14  1  0
 14 15  2  0
 16 17  2  0
M  END
