
     RDKit          3D

 17 18  0  0  0  0  0  0  0  0999 V2000
    3.3300   -1.9200    0.4340 C   0  0  0  0  0  0  0  0  0  0  0  0
    2.0470   -1.2040    0.5510 N   0  0  0  0  0  0  0  0  0  0  0  0
    1.5620   -0.4220   -0.5210 C   0  0  0  0  0  0  0  0  0  0  0  0
    2.2650   -0.3580   -1.5660 O   0  0  0  0  0  0  0  0  0  0  0  0
    0.2940    0.3090   -0.4650 C   0  0  1  0  0  0  0  0  0  0  0  0
   -0.8290   -0.6580   -0.8980 C   0  0  0  0  0  0  0  0  0  0  0  0
   -0.9190   -1.4900    0.3490 C   0  0  2  0  0  0  0  0  0  0  0  0
   -2.2550   -2.1790    0.4910 C   0  0  0  0  0  0  0  0  0  0  0  0
   -0.5880   -0.6540    1.4490 N   0  0  0  0  0  0  0  0  0  0  0  0
   -0.1360    0.6410    0.8990 C   0  0  2  0  0  0  0  0  0  0  0  0
   -1.2700    1.5110    1.0310 N   0  0  0  0  0  0  0  0  0  0  0  0
   -1.3740    2.9020    0.6380 C   0  0  0  0  0  0  0  0  0  0  0  0
   -2.1740    3.6370    1.2400 O   0  0  0  0  0  0  0  0  0  0  0  0
   -0.5900    3.4680   -0.4190 N   0  0  0  0  0  0  0  0  0  0  0  0
    0.2310    2.7900   -1.4000 C   0  0  0  0  0  0  0  0  0  0  0  0
    0.8080    3.4930   -2.2430 O   0  0  0  0  0  0  0  0  0  0  0  0
    0.3910    1.3820   -1.4270 N   0  0  0  0  0  0  0  0  0  0  0  0
  1  2  1  0
  2  3  1  0
  3  4  2  0
  5  3  1  1
  5  6  1  0
  5 10  1  0
  5 17  1  0
  6  7  1  0
  7  8  1  1
  7  9  1  0
 10  9  1  1
 10 11  1  0
 11 12  1  0
 12 13  2  0
 12 14  1  0
 14 15  1  0
 15 16  2  0
 15 17  1  0
M  END
