
     RDKit          3D

 17 18  0  0  0  0  0  0  0  0999 V2000
    0.7160    3.5460    0.6780 N   0  0  0  0  0  0  0  0  0  0  0  0
    0.0710    2.3270    0.2920 C   0  0  0  0  0  0  0  0  0  0  0  0
    0.7350    1.4450   -0.2930 N   0  0  0  0  0  0  0  0  0  0  0  0
    0.2320    0.1880   -0.7370 C   0  0  1  0  0  0  0  0  0  0  0  0
    1.1620   -0.8120   -0.2280 N   0  0  0  0  0  0  0  0  0  0  0  0
    2.5640   -0.5670   -0.4680 C   0  0  0  0  0  0  0  0  0  0  0  0
    3.1670   -0.4800   -1.6350 C   0  0  0  0  0  0  0  0  0  0  0  0
    4.5240   -0.2340   -1.4200 O   0  0  0  0  0  0  0  0  0  0  0  0
    4.8020   -0.3900   -0.1200 O   0  0  0  0  0  0  0  0  0  0  0  0
    3.5910   -0.3660    0.5610 C   0  0  0  0  0  0  0  0  0  0  0  0
   -1.1830   -0.1420   -0.4410 C   0  0  1  0  0  0  0  0  0  0  0  0
   -1.2480   -1.4380    0.3330 C   0  0  0  0  0  0  0  0  0  0  0  0
   -2.6630   -1.8700    0.6730 C   0  0  0  0  0  0  0  0  0  0  0  0
   -3.4600   -2.0690   -0.4410 O   0  0  0  0  0  0  0  0  0  0  0  0
   -1.8640    0.9610    0.2370 C   0  0  0  0  0  0  0  0  0  0  0  0
   -3.2410    0.8500    0.5550 N   0  0  0  0  0  0  0  0  0  0  0  0
   -1.2950    2.0710    0.5670 N   0  0  0  0  0  0  0  0  0  0  0  0
  1  2  1  0
  2  3  2  0
  2 17  1  0
  3  4  1  0
  4  5  1  1
  4 11  1  0
  5  6  1  0
  6  7  2  0
  6 10  1  0
  7  8  1  0
  8  9  1  0
  9 10  1  0
 11 12  1  1
 11 15  1  0
 12 13  1  0
 13 14  1  0
 15 16  1  0
 15 17  2  0
M  END
