
     RDKit          3D

 17 18  0  0  0  0  0  0  0  0999 V2000
   -1.8590   -0.6070   -1.3720 C   0  0  0  0  0  0  0  0  0  0  0  0
   -0.9430   -1.0760   -0.2860 C   0  0  2  0  0  0  0  0  0  0  0  0
   -0.6460   -2.5820   -0.4140 C   0  0  0  0  0  0  0  0  0  0  0  0
   -1.0430   -0.6480    1.1300 C   0  0  2  0  0  0  0  0  0  0  0  0
   -2.1620    0.1460    1.4280 N   0  0  0  0  0  0  0  0  0  0  0  0
   -2.8810    1.2230    0.7830 C   0  0  0  0  0  0  0  0  0  0  0  0
   -4.0790    1.3920    0.9880 O   0  0  0  0  0  0  0  0  0  0  0  0
   -2.2010    2.1160   -0.1130 N   0  0  0  0  0  0  0  0  0  0  0  0
   -0.8070    2.2170   -0.3810 N   0  0  0  0  0  0  0  0  0  0  0  0
    0.1400    1.2740    0.2140 C   0  0  0  0  0  0  0  0  0  0  0  0
    1.1100    1.9150    0.7150 O   0  0  0  0  0  0  0  0  0  0  0  0
    0.0800   -0.1710    0.2850 C   0  0  2  0  0  0  0  0  0  0  0  0
    1.3810   -0.9150    0.4950 C   0  0  0  0  0  0  0  0  0  0  0  0
    2.5370   -0.2500    0.9180 N   0  0  0  0  0  0  0  0  0  0  0  0
    3.2870    0.6270    0.0910 C   0  0  0  0  0  0  0  0  0  0  0  0
    4.4370    1.2800    0.6300 N   0  0  0  0  0  0  0  0  0  0  0  0
    2.9910    0.8710   -1.1250 O   0  0  0  0  0  0  0  0  0  0  0  0
  2  1  1  6
  2  3  1  0
  2  4  1  0
  2 12  1  0
  4  5  1  6
  4 12  1  0
  5  6  1  0
  6  7  2  0
  6  8  1  0
  8  9  1  0
  9 10  1  0
 10 11  2  0
 10 12  1  0
 12 13  1  1
 13 14  1  0
 14 15  1  0
 15 16  1  0
 15 17  2  0
M  END
