
     RDKit          3D

 17 18  0  0  0  0  0  0  0  0999 V2000
    4.2630   -0.1290    0.0980 C   0  0  0  0  0  0  0  0  0  0  0  0
    3.3310   -0.5080    1.2760 C   0  0  0  0  0  0  0  0  0  0  0  0
    2.6950    0.6320    1.6750 O   0  0  0  0  0  0  0  0  0  0  0  0
    1.8460    1.2060    0.9350 N   0  0  0  0  0  0  0  0  0  0  0  0
    0.6020    0.7560    0.4680 C   0  0  0  0  0  0  0  0  0  0  0  0
    0.1010   -0.4210    0.6260 N   0  0  0  0  0  0  0  0  0  0  0  0
   -1.1220   -0.8340    0.1690 C   0  0  1  0  0  0  0  0  0  0  0  0
   -1.0390   -1.8620   -1.0140 C   0  0  0  0  0  0  0  0  0  0  0  0
   -2.1280   -1.3490    1.1040 C   0  0  0  0  0  0  0  0  0  0  0  0
   -2.0360   -1.7210    2.3180 O   0  0  0  0  0  0  0  0  0  0  0  0
   -3.3560   -1.3840    0.3790 N   0  0  0  0  0  0  0  0  0  0  0  0
   -3.2590   -0.3420   -0.6480 C   0  0  0  0  0  0  0  0  0  0  0  0
   -4.1060   -0.0140   -1.5020 O   0  0  0  0  0  0  0  0  0  0  0  0
   -1.9320    0.2790   -0.4650 C   0  0  0  0  0  0  0  0  0  0  0  0
   -1.4540    1.4570   -0.6660 C   0  0  0  0  0  0  0  0  0  0  0  0
   -2.2980    2.4330   -1.2880 N   0  0  0  0  0  0  0  0  0  0  0  0
   -0.1750    1.7940   -0.2270 N   0  0  0  0  0  0  0  0  0  0  0  0
  1  2  1  0
  2  3  1  0
  3  4  1  0
  4  5  1  0
  5  6  2  0
  5 17  1  0
  6  7  1  0
  7  8  1  6
  7  9  1  0
  7 14  1  0
  9 10  2  0
  9 11  1  0
 11 12  1  0
 12 13  2  0
 12 14  1  0
 14 15  2  0
 15 16  1  0
 15 17  1  0
M  END
