
     RDKit          3D

 29 33  0  0  0  0  0  0  0  0999 V2000
   -1.8630    3.0830   -0.5530 O   0  0  0  0  0  0  0  0  0  0  0  0
   -2.3550    1.9970   -0.1660 C   0  0  0  0  0  0  0  0  0  0  0  0
   -3.4350    1.2850   -0.7530 N   0  0  0  0  0  0  0  0  0  0  0  0
   -3.8060    0.1900    0.0770 C   0  0  0  0  0  0  0  0  0  0  0  0
   -4.9690   -0.4310    0.1240 C   0  0  0  0  0  0  0  0  0  0  0  0
   -6.1490   -0.1110   -0.6920 C   0  0  0  0  0  0  0  0  0  0  0  0
   -7.2560   -0.9120   -0.0110 C   0  0  0  0  0  0  0  0  0  0  0  0
   -6.5590   -2.1050    0.4140 N   0  0  0  0  0  0  0  0  0  0  0  0
   -5.3470   -1.5710    0.9940 C   0  0  0  0  0  0  0  0  0  0  0  0
   -2.5830   -0.1020    0.8860 C   0  0  0  0  0  0  0  0  0  0  0  0
   -1.8980    1.2360    0.9970 C   0  0  1  0  0  0  0  0  0  0  0  0
   -0.4750    1.1510    1.1370 N   0  0  0  0  0  0  0  0  0  0  0  0
    0.1310    0.3760    0.0980 C   0  0  0  0  0  0  0  0  0  0  0  0
    1.1600    1.2210   -0.5960 C   0  0  0  0  0  0  0  0  0  0  0  0
    0.9630    1.9770   -1.7460 C   0  0  0  0  0  0  0  0  0  0  0  0
    2.1280    2.6170   -2.0680 C   0  0  0  0  0  0  0  0  0  0  0  0
    3.0400    2.2380   -1.0940 C   0  0  0  0  0  0  0  0  0  0  0  0
    2.4330    1.4060   -0.2320 N   0  0  0  0  0  0  0  0  0  0  0  0
    3.0310    0.7790    0.9360 C   0  0  0  0  0  0  0  0  0  0  0  0
    3.6290   -0.5150    0.5950 C   0  0  0  0  0  0  0  0  0  0  0  0
    3.0540   -1.7230    0.8560 N   0  0  0  0  0  0  0  0  0  0  0  0
    3.8380   -2.6720    0.4190 N   0  0  0  0  0  0  0  0  0  0  0  0
    4.9370   -2.1540   -0.1350 C   0  0  0  0  0  0  0  0  0  0  0  0
    6.0580   -2.7170   -0.7320 C   0  0  0  0  0  0  0  0  0  0  0  0
    7.0680   -1.9070   -1.2270 C   0  0  0  0  0  0  0  0  0  0  0  0
    6.9580   -0.5430   -1.1270 C   0  0  0  0  0  0  0  0  0  0  0  0
    7.9230    0.2730   -1.5990 F   0  0  0  0  0  0  0  0  0  0  0  0
    5.8330    0.0220   -0.5290 C   0  0  0  0  0  0  0  0  0  0  0  0
    4.8200   -0.7740   -0.0320 C   0  0  0  0  0  0  0  0  0  0  0  0
  1  2  2  0
  2  3  1  0
  2 11  1  0
  3  4  1  0
  4  5  2  3
  4 10  1  0
  5  6  1  0
  5  9  1  0
  6  7  1  0
  7  8  1  0
  8  9  1  0
 10 11  1  0
 11 12  1  6
 12 13  1  0
 13 14  1  0
 14 15  2  0
 14 18  1  0
 15 16  1  0
 16 17  2  0
 17 18  1  0
 18 19  1  0
 19 20  1  0
 20 21  2  0
 20 29  1  0
 21 22  1  0
 22 23  1  0
 23 24  2  0
 23 29  1  0
 24 25  1  0
 25 26  2  0
 26 27  1  0
 26 28  1  0
 28 29  2  0
M  CHG  1  12   1
M  END
