
     RDKit          3D

 28 32  0  0  0  0  0  0  0  0999 V2000
    7.9740   -1.0780   -0.0390 N   0  0  0  0  0  0  0  0  0  0  0  0
    6.7650   -0.3200    0.0430 C   0  0  0  0  0  0  0  0  0  0  0  0
    6.3300    0.2440    1.2210 C   0  0  0  0  0  0  0  0  0  0  0  0
    5.1590    0.9760    1.2960 C   0  0  0  0  0  0  0  0  0  0  0  0
    4.3750    1.1690    0.1780 C   0  0  0  0  0  0  0  0  0  0  0  0
    3.1030    1.9630    0.2610 C   0  0  0  0  0  0  0  0  0  0  0  0
    1.9830    1.1040    0.5950 N   0  0  0  0  0  0  0  0  0  0  0  0
    1.5630    0.8170    1.8240 N   0  0  0  0  0  0  0  0  0  0  0  0
    0.5140   -0.0020    1.7870 C   0  0  0  0  0  0  0  0  0  0  0  0
    0.2610   -0.2430    0.4340 C   0  0  0  0  0  0  0  0  0  0  0  0
   -0.7880   -1.0780   -0.0850 N   0  0  0  0  0  0  0  0  0  0  0  0
   -1.9930   -0.6000   -0.0330 C   0  0  0  0  0  0  0  0  0  0  0  0
   -2.2670    0.6110    0.4760 N   0  0  0  0  0  0  0  0  0  0  0  0
   -3.5180    1.0200    0.4970 N   0  0  0  0  0  0  0  0  0  0  0  0
   -4.5490    0.2990    0.0390 C   0  0  0  0  0  0  0  0  0  0  0  0
   -5.9520    0.8020    0.0870 C   0  0  1  0  0  0  0  0  0  0  0  0
   -6.2000    2.1960    0.5770 C   0  0  0  0  0  0  0  0  0  0  0  0
   -6.2940    1.8810   -0.8780 C   0  0  0  0  0  0  0  0  0  0  0  0
   -4.3000   -0.9340   -0.4830 C   0  0  0  0  0  0  0  0  0  0  0  0
   -5.2970   -1.7670   -0.9870 C   0  0  0  0  0  0  0  0  0  0  0  0
   -5.0170   -3.0090   -1.5090 C   0  0  0  0  0  0  0  0  0  0  0  0
   -3.7170   -3.4420   -1.5350 C   0  0  0  0  0  0  0  0  0  0  0  0
   -2.7120   -2.6430   -1.0450 C   0  0  0  0  0  0  0  0  0  0  0  0
   -3.0090   -1.3980   -0.5240 C   0  0  0  0  0  0  0  0  0  0  0  0
    1.2040    0.4680   -0.2760 C   0  0  0  0  0  0  0  0  0  0  0  0
    1.2900    0.4940   -1.5490 O   0  0  0  0  0  0  0  0  0  0  0  0
    4.8100    0.6040   -1.0030 C   0  0  0  0  0  0  0  0  0  0  0  0
    5.9850   -0.1300   -1.0780 C   0  0  0  0  0  0  0  0  0  0  0  0
  1  2  1  0
  2  3  2  0
  2 28  1  0
  3  4  1  0
  4  5  2  0
  5  6  1  0
  5 27  1  0
  6  7  1  0
  7  8  1  0
  7 25  1  0
  8  9  1  0
  9 10  2  0
 10 11  1  0
 10 25  1  0
 11 12  2  3
 12 13  1  0
 12 24  1  0
 13 14  1  0
 14 15  2  0
 16 15  1  6
 15 19  1  0
 16 17  1  0
 16 18  1  0
 17 18  1  0
 19 20  2  0
 19 24  1  0
 20 21  1  0
 21 22  2  0
 22 23  1  0
 23 24  2  0
 25 26  2  0
 27 28  2  0
M  CHG  1   1   1
M  END
