
     RDKit          3D

 28 32  0  0  0  0  0  0  0  0999 V2000
   -6.7660    0.8600    1.2200 N   0  0  0  0  0  0  0  0  0  0  0  0
   -6.1510    0.2200    0.0980 C   0  0  1  0  0  0  0  0  0  0  0  0
   -6.9290    0.2890   -1.1770 C   0  0  0  0  0  0  0  0  0  0  0  0
   -6.0780   -0.2190   -2.2810 C   0  0  0  0  0  0  0  0  0  0  0  0
   -6.5700   -0.4400   -3.4210 O   0  0  0  0  0  0  0  0  0  0  0  0
   -4.6610   -0.4800   -2.0950 C   0  0  0  0  0  0  0  0  0  0  0  0
   -3.9770    0.0450   -1.0710 C   0  0  0  0  0  0  0  0  0  0  0  0
   -2.6120   -0.1700   -0.8410 N   0  0  0  0  0  0  0  0  0  0  0  0
   -2.1280   -0.8380    0.3110 N   0  0  0  0  0  0  0  0  0  0  0  0
   -1.3220   -0.1970    1.2880 C   0  0  0  0  0  0  0  0  0  0  0  0
   -1.8510    0.4430    2.4220 C   0  0  0  0  0  0  0  0  0  0  0  0
   -0.7980    0.9090    3.0770 N   0  0  0  0  0  0  0  0  0  0  0  0
    0.3230    0.5950    2.4210 N   0  0  0  0  0  0  0  0  0  0  0  0
    0.0500   -0.0900    1.3040 C   0  0  0  0  0  0  0  0  0  0  0  0
    0.9450   -0.6170    0.3430 N   0  0  0  0  0  0  0  0  0  0  0  0
    0.6450   -1.4600   -0.8240 C   0  0  0  0  0  0  0  0  0  0  0  0
    1.7760   -2.4930   -0.6580 C   0  0  0  0  0  0  0  0  0  0  0  0
    2.9100   -1.5920   -0.3350 C   0  0  0  0  0  0  0  0  0  0  0  0
    4.2710   -1.6780   -0.5170 C   0  0  0  0  0  0  0  0  0  0  0  0
    5.0720   -0.6470   -0.1090 C   0  0  0  0  0  0  0  0  0  0  0  0
    4.5350    0.4710    0.4790 C   0  0  0  0  0  0  0  0  0  0  0  0
    3.1740    0.5890    0.6770 C   0  0  0  0  0  0  0  0  0  0  0  0
    2.3720   -0.4520    0.2650 C   0  0  0  0  0  0  0  0  0  0  0  0
    5.4230    1.5980    0.9230 C   0  0  0  0  0  0  0  0  0  0  0  0
    6.5650    1.8170   -0.0100 C   0  0  0  0  0  0  0  0  0  0  0  0
    6.9540    0.6540   -0.8530 C   0  0  0  0  0  0  0  0  0  0  0  0
    6.5420   -0.6870   -0.2800 C   0  0  0  0  0  0  0  0  0  0  0  0
   -4.8000    0.9040   -0.1590 C   0  0  0  0  0  0  0  0  0  0  0  0
  2  1  1  1
  2  3  1  0
  2 28  1  0
  3  4  1  0
  4  5  2  0
  4  6  1  0
  6  7  2  0
  7  8  1  0
  7 28  1  0
  8  9  1  0
  9 10  1  0
 10 11  1  0
 10 14  2  0
 11 12  2  0
 12 13  1  0
 13 14  1  0
 14 15  1  0
 15 16  1  0
 15 23  1  0
 16 17  1  0
 17 18  1  0
 18 19  2  0
 18 23  1  0
 19 20  1  0
 20 21  2  0
 20 27  1  0
 21 22  1  0
 21 24  1  0
 22 23  2  0
 24 25  1  0
 25 26  1  0
 26 27  1  0
M  CHG  1   1   1
M  END
