
     RDKit          3D

 29 32  0  0  0  0  0  0  0  0999 V2000
    1.2410   -2.5840    3.5920 C   0  0  0  0  0  0  0  0  0  0  0  0
    1.4170   -1.9100    2.3390 N   0  0  0  0  0  0  0  0  0  0  0  0
    2.6440   -1.7450    1.9100 C   0  0  0  0  0  0  0  0  0  0  0  0
    3.7260   -2.2020    2.6360 O   0  0  0  0  0  0  0  0  0  0  0  0
    2.8360   -1.0850    0.6770 N   0  0  0  0  0  0  0  0  0  0  0  0
    1.7720   -0.3010    0.1170 C   0  0  0  0  0  0  0  0  0  0  0  0
    0.5850   -0.8130    0.0930 N   0  0  0  0  0  0  0  0  0  0  0  0
   -0.6010   -0.1470   -0.4430 C   0  0  2  0  0  0  0  0  0  0  0  0
   -1.4650    0.0660    0.7030 N   0  0  0  0  0  0  0  0  0  0  0  0
   -2.6140    0.8540    0.8030 C   0  0  0  0  0  0  0  0  0  0  0  0
   -3.1090    1.2400    1.9840 C   0  0  0  0  0  0  0  0  0  0  0  0
   -4.3020    2.0450    1.7370 C   0  0  0  0  0  0  0  0  0  0  0  0
   -4.4380    2.0800    0.2790 C   0  0  0  0  0  0  0  0  0  0  0  0
   -3.4320    1.3700   -0.2640 C   0  0  0  0  0  0  0  0  0  0  0  0
   -1.2960   -1.1090   -1.3500 C   0  0  0  0  0  0  0  0  0  0  0  0
   -1.3930   -2.4570   -1.0130 C   0  0  0  0  0  0  0  0  0  0  0  0
   -2.0020   -3.3520   -1.8680 C   0  0  0  0  0  0  0  0  0  0  0  0
   -2.5330   -2.9460   -3.0820 C   0  0  0  0  0  0  0  0  0  0  0  0
   -2.4380   -1.6280   -3.4140 C   0  0  0  0  0  0  0  0  0  0  0  0
   -2.9550   -1.2140   -4.6030 F   0  0  0  0  0  0  0  0  0  0  0  0
   -1.8220   -0.7350   -2.5420 C   0  0  0  0  0  0  0  0  0  0  0  0
   -0.2950    1.0430   -1.1500 N   0  0  0  0  0  0  0  0  0  0  0  0
    1.0070    1.6160   -1.1130 C   0  0  0  0  0  0  0  0  0  0  0  0
    1.2240    2.8150   -1.7000 N   0  0  0  0  0  0  0  0  0  0  0  0
    2.4330    3.3780   -1.6790 C   0  0  0  0  0  0  0  0  0  0  0  0
    3.4860    2.7540   -1.0590 C   0  0  0  0  0  0  0  0  0  0  0  0
    3.3350    1.5090   -0.4290 C   0  0  0  0  0  0  0  0  0  0  0  0
    4.4670    0.9240    0.3030 C   0  0  0  0  0  0  0  0  0  0  0  0
    2.0600    0.9740   -0.4900 C   0  0  0  0  0  0  0  0  0  0  0  0
  1  2  1  0
  2  3  2  3
  3  4  1  0
  3  5  1  0
  5  6  1  0
  6  7  2  0
  6 29  1  0
  7  8  1  0
  8  9  1  1
  8 15  1  0
  8 22  1  0
  9 10  1  0
 10 11  2  0
 10 14  1  0
 11 12  1  0
 12 13  1  0
 13 14  2  0
 15 16  2  0
 15 21  1  0
 16 17  1  0
 17 18  2  0
 18 19  1  0
 19 20  1  0
 19 21  2  0
 22 23  1  0
 23 24  2  0
 23 29  1  0
 24 25  1  0
 25 26  2  0
 26 27  1  0
 27 28  1  0
 27 29  2  0
M  CHG  1  24   1
M  END
