
     RDKit          3D

 28 31  0  0  0  0  0  0  0  0999 V2000
   -1.7340    5.1230    0.0120 C   0  0  0  0  0  0  0  0  0  0  0  0
   -0.9250    3.8040   -0.0550 C   0  0  0  0  0  0  0  0  0  0  0  0
    0.3050    3.9870   -0.1280 N   0  0  0  0  0  0  0  0  0  0  0  0
   -1.7040    2.6260   -0.0230 C   0  0  0  0  0  0  0  0  0  0  0  0
   -1.4250    1.3480   -0.0570 C   0  0  0  0  0  0  0  0  0  0  0  0
   -0.1450    0.7690   -0.1420 N   0  0  0  0  0  0  0  0  0  0  0  0
    0.0910   -0.6400   -0.1680 C   0  0  0  0  0  0  0  0  0  0  0  0
    1.2800   -1.1350   -0.2470 N   0  0  0  0  0  0  0  0  0  0  0  0
    2.3750   -0.2350   -0.3100 N   0  0  0  0  0  0  0  0  0  0  0  0
    3.2730   -0.1820    0.7500 C   0  0  0  0  0  0  0  0  0  0  0  0
    3.0990   -0.9410    1.7780 O   0  0  0  0  0  0  0  0  0  0  0  0
    4.4360    0.6880    0.8130 C   0  0  0  0  0  0  0  0  0  0  0  0
    5.2010    0.8960    1.9760 C   0  0  0  0  0  0  0  0  0  0  0  0
    6.2000    1.7480    1.6280 C   0  0  0  0  0  0  0  0  0  0  0  0
    6.0750    2.0650    0.3050 C   0  0  0  0  0  0  0  0  0  0  0  0
    4.9880    1.4070   -0.1810 N   0  0  0  0  0  0  0  0  0  0  0  0
    4.5980    1.5210   -1.5630 C   0  0  0  0  0  0  0  0  0  0  0  0
   -1.0300   -1.5550   -0.1030 C   0  0  0  0  0  0  0  0  0  0  0  0
   -0.8470   -2.9210   -0.1210 C   0  0  0  0  0  0  0  0  0  0  0  0
   -1.8850   -3.8170   -0.0570 C   0  0  0  0  0  0  0  0  0  0  0  0
   -3.1460   -3.2980    0.0270 C   0  0  0  0  0  0  0  0  0  0  0  0
   -3.3450   -1.9180    0.0460 C   0  0  0  0  0  0  0  0  0  0  0  0
   -2.2940   -1.0080   -0.0190 C   0  0  0  0  0  0  0  0  0  0  0  0
   -2.5330    0.3970    0.0060 N   0  0  0  0  0  0  0  0  0  0  0  0
   -3.8710    0.9450    0.0780 C   0  0  0  0  0  0  0  0  0  0  0  0
   -4.1120   -4.4250    0.0860 C   0  0  0  0  0  0  0  0  0  0  0  0
   -3.3450   -5.5140   -0.6330 C   0  0  0  0  0  0  0  0  0  0  0  0
   -1.9550   -5.3220   -0.0610 C   0  0  0  0  0  0  0  0  0  0  0  0
  1  2  1  0
  2  3  2  0
  2  4  1  0
  4  5  2  3
  5  6  1  0
  5 24  1  0
  6  7  1  0
  7  8  2  3
  7 18  1  0
  8  9  1  0
  9 10  1  0
 10 11  2  0
 10 12  1  0
 12 13  2  0
 12 16  1  0
 13 14  1  0
 14 15  2  0
 15 16  1  0
 16 17  1  0
 18 19  2  0
 18 23  1  0
 19 20  1  0
 20 21  2  0
 20 28  1  0
 21 22  1  0
 21 26  1  0
 22 23  2  0
 23 24  1  0
 24 25  1  0
 26 27  1  0
 27 28  1  0
M  CHG  1   3   1
M  END
