
     RDKit          3D

 29 33  0  0  0  0  0  0  0  0999 V2000
   -4.5380    2.4660    1.7570 C   0  0  0  0  0  0  0  0  0  0  0  0
   -4.3440    1.0730    1.2720 C   0  0  0  0  0  0  0  0  0  0  0  0
   -5.2210    0.0800    1.6680 C   0  0  0  0  0  0  0  0  0  0  0  0
   -5.0310   -1.2030    1.2120 C   0  0  0  0  0  0  0  0  0  0  0  0
   -5.9780   -2.2540    1.6450 C   0  0  0  0  0  0  0  0  0  0  0  0
   -3.9700   -1.4970    0.3650 C   0  0  0  0  0  0  0  0  0  0  0  0
   -3.0830   -0.5230   -0.0430 C   0  0  0  0  0  0  0  0  0  0  0  0
   -1.9640   -0.8100   -0.9310 C   0  0  1  0  0  0  0  0  0  0  0  0
   -2.2800   -0.4560   -2.3890 C   0  0  0  0  0  0  0  0  0  0  0  0
   -1.4700   -1.2620   -3.3210 C   0  0  0  0  0  0  0  0  0  0  0  0
   -2.0740   -1.7850   -4.2850 O   0  0  0  0  0  0  0  0  0  0  0  0
   -0.0650   -1.5450   -3.2940 N   0  0  0  0  0  0  0  0  0  0  0  0
    0.8510   -1.0110   -2.3150 C   0  0  0  0  0  0  0  0  0  0  0  0
    2.1630   -1.1330   -2.7110 C   0  0  0  0  0  0  0  0  0  0  0  0
    3.1140   -0.6730   -1.8860 N   0  0  0  0  0  0  0  0  0  0  0  0
    2.8980   -0.0970   -0.6910 C   0  0  0  0  0  0  0  0  0  0  0  0
    4.0270    0.3690    0.1270 C   0  0  0  0  0  0  0  0  0  0  0  0
    3.8730    0.9380    1.2990 C   0  0  0  0  0  0  0  0  0  0  0  0
    4.9730    1.3910    2.0920 N   0  0  0  0  0  0  0  0  0  0  0  0
    5.0250    1.9940    3.3110 C   0  0  0  0  0  0  0  0  0  0  0  0
    6.3150    2.2060    3.5950 N   0  0  0  0  0  0  0  0  0  0  0  0
    7.0820    1.7690    2.6210 N   0  0  0  0  0  0  0  0  0  0  0  0
    6.2250    1.2550    1.6750 C   0  0  0  0  0  0  0  0  0  0  0  0
    6.5170    0.6260    0.3670 C   0  0  0  0  0  0  0  0  0  0  0  0
    5.3800    0.1670   -0.4360 C   0  0  0  0  0  0  0  0  0  0  0  0
    1.5880    0.0310   -0.2830 C   0  0  0  0  0  0  0  0  0  0  0  0
    0.5530   -0.4290   -1.1000 C   0  0  0  0  0  0  0  0  0  0  0  0
   -0.7220   -0.2100   -0.5110 N   0  0  0  0  0  0  0  0  0  0  0  0
   -3.2930    0.7520    0.4250 C   0  0  0  0  0  0  0  0  0  0  0  0
  1  2  1  0
  2  3  2  0
  2 29  1  0
  3  4  1  0
  4  5  1  0
  4  6  2  0
  6  7  1  0
  8  7  1  1
  7 29  2  0
  8  9  1  0
  8 28  1  0
  9 10  1  0
 10 11  2  0
 10 12  1  0
 12 13  1  0
 13 14  2  0
 13 27  1  0
 14 15  1  0
 15 16  2  0
 16 17  1  0
 16 26  1  0
 17 18  2  0
 17 25  1  0
 18 19  1  0
 19 20  1  0
 19 23  1  0
 20 21  2  0
 21 22  1  0
 22 23  2  0
 23 24  1  0
 24 25  1  0
 26 27  2  0
 27 28  1  0
M  END
