
     RDKit          3D

 28 31  0  0  0  0  0  0  0  0999 V2000
   -6.9930    0.1750    1.3980 C   0  0  0  0  0  0  0  0  0  0  0  0
   -6.4900    0.6060    0.0580 C   0  0  1  0  0  0  0  0  0  0  0  0
   -6.7260    2.1040   -0.1020 C   0  0  0  0  0  0  0  0  0  0  0  0
   -5.0460    0.3660   -0.0750 N   0  0  0  0  0  0  0  0  0  0  0  0
   -4.6390   -0.8380   -0.1900 C   0  0  0  0  0  0  0  0  0  0  0  0
   -5.5290   -1.8610   -0.1880 N   0  0  0  0  0  0  0  0  0  0  0  0
   -5.1770   -3.1390   -0.3040 C   0  0  0  0  0  0  0  0  0  0  0  0
   -3.8510   -3.4530   -0.4330 C   0  0  0  0  0  0  0  0  0  0  0  0
   -2.9120   -2.4390   -0.4400 C   0  0  0  0  0  0  0  0  0  0  0  0
   -1.5750   -2.7970   -0.5730 C   0  0  0  0  0  0  0  0  0  0  0  0
   -0.6520   -1.7820   -0.5780 C   0  0  0  0  0  0  0  0  0  0  0  0
   -0.9760   -0.4560   -0.4610 C   0  0  0  0  0  0  0  0  0  0  0  0
    0.0410    0.6010   -0.4710 C   0  0  0  0  0  0  0  0  0  0  0  0
    1.4040    0.4280   -0.5940 C   0  0  0  0  0  0  0  0  0  0  0  0
    2.0430    1.6500   -0.5620 C   0  0  0  0  0  0  0  0  0  0  0  0
    3.4640    1.9620   -0.6560 C   0  0  0  0  0  0  0  0  0  0  0  0
    3.8920    3.1300   -0.6110 O   0  0  0  0  0  0  0  0  0  0  0  0
    4.4250    0.9250   -0.8040 N   0  0  0  0  0  0  0  0  0  0  0  0
    5.7670    1.1950   -0.8950 N   0  0  0  0  0  0  0  0  0  0  0  0
    6.6690    0.8890   -0.0520 C   0  0  0  0  0  0  0  0  0  0  0  0
    6.5430    0.1700    1.2410 C   0  0  0  0  0  0  0  0  0  0  0  0
    7.8790   -0.5590    1.3270 C   0  0  0  0  0  0  0  0  0  0  0  0
    8.8400    0.5130    0.8910 C   0  0  0  0  0  0  0  0  0  0  0  0
    8.1080    1.2180   -0.2230 C   0  0  0  0  0  0  0  0  0  0  0  0
    1.0510    2.5460   -0.4200 N   0  0  0  0  0  0  0  0  0  0  0  0
   -0.1270    1.9290   -0.3670 N   0  0  0  0  0  0  0  0  0  0  0  0
   -2.3160   -0.1240   -0.3300 C   0  0  0  0  0  0  0  0  0  0  0  0
   -3.2930   -1.1200   -0.3190 C   0  0  0  0  0  0  0  0  0  0  0  0
  2  1  1  1
  2  3  1  0
  2  4  1  0
  4  5  2  3
  5  6  1  0
  5 28  1  0
  6  7  1  0
  7  8  2  0
  8  9  1  0
  9 10  2  0
  9 28  1  0
 10 11  1  0
 11 12  2  0
 12 13  1  0
 12 27  1  0
 13 14  2  0
 13 26  1  0
 14 15  1  0
 15 16  1  0
 15 25  2  0
 16 17  2  0
 16 18  1  0
 18 19  1  0
 19 20  2  3
 20 21  1  0
 20 24  1  0
 21 22  1  0
 22 23  1  0
 23 24  1  0
 25 26  1  0
 27 28  2  0
M  CHG  1   4   1
M  END
