
     RDKit          3D

 23 23  0  0  0  0  0  0  0  0999 V2000
   -1.3620    2.9720   -0.4520 C   0  0  0  0  0  0  0  0  0  0  0  0
   -1.7430    1.7730    0.4400 C   0  0  2  0  0  0  0  0  0  0  0  0
   -2.6980    2.2870    1.3150 O   0  0  0  0  0  0  0  0  0  0  0  0
   -0.5200    1.2260    1.1270 C   0  0  0  0  0  0  0  0  0  0  0  0
   -0.3600   -0.1720    0.4310 C   0  0  2  0  0  0  0  0  0  0  0  0
    0.2840   -1.0180    1.5120 C   0  0  0  0  0  0  0  0  0  0  0  0
    1.2080   -2.0290    1.2210 N   0  0  0  0  0  0  0  0  0  0  0  0
   -0.0200   -0.8060    2.7020 O   0  0  0  0  0  0  0  0  0  0  0  0
    0.7240    0.0550   -0.4950 N   0  0  0  0  0  0  0  0  0  0  0  0
    0.7480   -0.0130   -1.9130 C   0  0  0  0  0  0  0  0  0  0  0  0
    1.2580   -1.2830   -2.5040 C   0  0  0  0  0  0  0  0  0  0  0  0
    0.6260   -2.4420   -2.2030 O   0  0  0  0  0  0  0  0  0  0  0  0
    1.9760    0.4600    0.1310 C   0  0  0  0  0  0  0  0  0  0  0  0
    2.0860    0.6010    1.3790 O   0  0  0  0  0  0  0  0  0  0  0  0
    3.1340    0.7170   -0.6100 N   0  0  0  0  0  0  0  0  0  0  0  0
    4.3960    1.1290    0.0370 C   0  0  0  0  0  0  0  0  0  0  0  0
    4.1760    2.3050    0.7080 O   0  0  0  0  0  0  0  0  0  0  0  0
   -1.6940   -0.4440    0.0630 C   0  0  2  0  0  0  0  0  0  0  0  0
   -2.5410   -0.6080    1.3740 C   0  0  0  0  0  0  0  0  0  0  0  0
   -2.3680   -1.8730    1.9890 N   0  0  0  0  0  0  0  0  0  0  0  0
   -2.2580   -1.4850   -0.7890 C   0  0  0  0  0  0  0  0  0  0  0  0
   -2.1120   -1.4250   -2.1530 O   0  0  0  0  0  0  0  0  0  0  0  0
   -2.1960    0.8080   -0.4060 O   0  0  0  0  0  0  0  0  0  0  0  0
  2  1  1  6
  2  3  1  0
  2  4  1  0
  2 23  1  0
  4  5  1  0
  5  6  1  0
  5  9  1  6
  5 18  1  0
  6  7  1  0
  6  8  2  0
  9 10  1  0
  9 13  1  0
 10 11  1  0
 11 12  1  0
 13 14  2  0
 13 15  1  0
 15 16  1  0
 16 17  1  0
 18 19  1  1
 18 21  1  0
 18 23  1  0
 19 20  1  0
 21 22  1  0
M  CHG  1  20   1
M  END
