
     RDKit          3D

 23 23  0  0  0  0  0  0  0  0999 V2000
   -4.4120   -1.1640    1.3910 C   0  0  0  0  0  0  0  0  0  0  0  0
   -4.2960    0.1070    0.5440 C   0  0  2  0  0  0  0  0  0  0  0  0
   -5.0790    0.1260   -0.5650 O   0  0  0  0  0  0  0  0  0  0  0  0
   -2.8400    0.2760    0.2210 C   0  0  1  0  0  0  0  0  0  0  0  0
   -2.3330   -1.0230   -0.4270 C   0  0  0  0  0  0  0  0  0  0  0  0
   -1.1210   -0.4350   -1.0230 C   0  0  1  0  0  0  0  0  0  0  0  0
   -0.0940   -0.1710   -0.0360 N   0  0  0  0  0  0  0  0  0  0  0  0
    1.1300    0.4230   -0.2600 C   0  0  0  0  0  0  0  0  0  0  0  0
    1.4750    0.7670   -1.3970 O   0  0  0  0  0  0  0  0  0  0  0  0
    2.0200    0.5650    0.8000 O   0  0  0  0  0  0  0  0  0  0  0  0
    3.4230    0.8370    0.6200 C   0  0  0  0  0  0  0  0  0  0  0  0
    3.8680   -0.3840   -0.1770 C   0  0  2  0  0  0  0  0  0  0  0  0
    3.2120   -1.5380    0.2540 O   0  0  0  0  0  0  0  0  0  0  0  0
    5.3340   -0.6530    0.0990 C   0  0  0  0  0  0  0  0  0  0  0  0
    6.0690    0.5440    0.4020 N   0  0  0  0  0  0  0  0  0  0  0  0
   -0.5080   -1.4360   -2.0240 C   0  0  0  0  0  0  0  0  0  0  0  0
    0.1930   -2.5310   -1.3990 N   0  0  0  0  0  0  0  0  0  0  0  0
   -0.5460   -1.3210   -3.2440 O   0  0  0  0  0  0  0  0  0  0  0  0
   -1.5930    0.6890   -1.7200 O   0  0  0  0  0  0  0  0  0  0  0  0
   -2.5880    1.1970   -0.9180 C   0  0  2  0  0  0  0  0  0  0  0  0
   -2.2950    2.5930   -0.5620 C   0  0  0  0  0  0  0  0  0  0  0  0
   -2.7750    3.1090    0.6750 N   0  0  0  0  0  0  0  0  0  0  0  0
   -1.6770    3.3330   -1.3510 O   0  0  0  0  0  0  0  0  0  0  0  0
  2  1  1  6
  2  3  1  0
  2  4  1  0
  4  5  1  6
  4 20  1  0
  5  6  1  0
  6  7  1  1
  6 16  1  0
  6 19  1  0
  7  8  1  0
  8  9  2  0
  8 10  1  0
 10 11  1  0
 11 12  1  0
 12 13  1  1
 12 14  1  0
 14 15  1  0
 16 17  1  0
 16 18  2  0
 19 20  1  0
 20 21  1  1
 21 22  1  0
 21 23  2  0
M  CHG  1  15   1
M  END
