
     RDKit          3D

  7  6  0  0  0  0  0  0  0  0999 V2000
    2.4010   -0.3370    0.2410 N   0  0  0  0  0  0  0  0  0  0  0  0
    1.0630   -0.3760   -0.3620 C   0  0  0  0  0  0  0  0  0  0  0  0
    0.1170    0.2870    0.5890 C   0  0  0  0  0  0  0  0  0  0  0  0
   -1.4700    0.2930   -0.0230 S   0  0  2  0  0  0  0  0  0  0  0  0
   -1.8770    0.8170   -1.0850 O   0  0  0  0  0  0  0  0  0  0  0  0
   -2.2920    0.8910    1.5620 O   0  0  0  0  0  0  0  0  0  0  0  0
   -1.9480   -1.4490    0.3030 O   0  0  0  0  0  0  0  0  0  0  0  0
  1  2  1  0
  2  3  1  0
  3  4  1  0
  4  5  1  6
  4  6  1  0
  4  7  1  0
M  CHG  1   1   1
M  END
