
     RDKit          3D

 23 23  0  0  0  0  0  0  0  0999 V2000
    3.9550   -1.5050    2.0350 N   0  0  0  0  0  0  0  0  0  0  0  0
    3.7790   -0.7140    0.8830 C   0  0  0  0  0  0  0  0  0  0  0  0
    4.7590   -0.2930    0.2300 O   0  0  0  0  0  0  0  0  0  0  0  0
    2.4100   -0.3240    0.3650 C   0  0  1  0  0  0  0  0  0  0  0  0
    2.5270    0.4530   -0.7780 O   0  0  0  0  0  0  0  0  0  0  0  0
    2.6230    1.7970   -0.9650 C   0  0  0  0  0  0  0  0  0  0  0  0
    3.7490    2.3500   -1.3040 O   0  0  0  0  0  0  0  0  0  0  0  0
    1.5610    2.7490   -0.8270 N   0  0  0  0  0  0  0  0  0  0  0  0
    0.2890    2.7300   -1.5230 C   0  0  0  0  0  0  0  0  0  0  0  0
   -0.8250    2.8670   -0.4740 C   0  0  0  0  0  0  0  0  0  0  0  0
   -1.9660    2.0550   -0.8370 N   0  0  0  0  0  0  0  0  0  0  0  0
   -2.0900    0.6720   -0.6600 C   0  0  0  0  0  0  0  0  0  0  0  0
   -2.5820   -0.0250   -1.6170 O   0  0  0  0  0  0  0  0  0  0  0  0
   -1.7080   -0.1120    0.5410 C   0  0  1  0  0  0  0  0  0  0  0  0
   -2.0050    0.6710    1.6890 O   0  0  0  0  0  0  0  0  0  0  0  0
   -2.5950   -1.3310    0.6930 C   0  0  0  0  0  0  0  0  0  0  0  0
   -4.0270   -0.7910    0.8330 C   0  0  0  0  0  0  0  0  0  0  0  0
   -4.8930   -1.8470    0.9750 O   0  0  0  0  0  0  0  0  0  0  0  0
   -0.2600   -0.4010    0.6010 C   0  0  0  0  0  0  0  0  0  0  0  0
    0.2600   -1.5940   -0.1240 C   0  0  1  0  0  0  0  0  0  0  0  0
    0.0780   -1.5860   -1.5350 N   0  0  0  0  0  0  0  0  0  0  0  0
    1.7480   -1.6580    0.1320 C   0  0  1  0  0  0  0  0  0  0  0  0
    2.4290   -2.3020   -0.8770 O   0  0  0  0  0  0  0  0  0  0  0  0
  1  2  1  0
  2  3  2  0
  4  2  1  6
  4  5  1  0
  4 22  1  0
  5  6  1  0
  6  7  2  0
  6  8  1  0
  8  9  1  0
  9 10  1  0
 10 11  1  0
 11 12  1  0
 12 13  2  0
 12 14  1  0
 14 15  1  1
 14 16  1  0
 14 19  1  0
 16 17  1  0
 17 18  1  0
 19 20  1  0
 20 21  1  6
 20 22  1  0
 22 23  1  6
M  CHG  1  21   1
M  END
