
     RDKit          3D

 23 23  0  0  0  0  0  0  0  0999 V2000
    5.1790   -2.5900   -0.7100 N   0  0  0  0  0  0  0  0  0  0  0  0
    5.3660   -1.1540   -0.8080 C   0  0  1  0  0  0  0  0  0  0  0  0
    6.2620   -0.9200   -1.8470 O   0  0  0  0  0  0  0  0  0  0  0  0
    4.1370   -0.4590   -1.1020 N   0  0  0  0  0  0  0  0  0  0  0  0
    3.6830    0.5500   -0.1730 C   0  0  0  0  0  0  0  0  0  0  0  0
    4.4090    0.7410    0.8280 O   0  0  0  0  0  0  0  0  0  0  0  0
    2.4320    1.2830   -0.4370 C   0  0  0  0  0  0  0  0  0  0  0  0
    2.0360    2.1820    0.6840 C   0  0  2  0  0  0  0  0  0  0  0  0
    3.0350    3.1130    0.9520 O   0  0  0  0  0  0  0  0  0  0  0  0
    1.6160    1.4460    1.9020 C   0  0  2  0  0  0  0  0  0  0  0  0
    2.5780    0.7390    2.5670 O   0  0  0  0  0  0  0  0  0  0  0  0
    0.5200    0.4840    1.5480 C   0  0  0  0  0  0  0  0  0  0  0  0
    0.6040   -0.7220    1.7730 O   0  0  0  0  0  0  0  0  0  0  0  0
   -0.6430    0.8810    0.9560 N   0  0  0  0  0  0  0  0  0  0  0  0
   -1.8420    0.3650    0.4900 C   0  0  0  0  0  0  0  0  0  0  0  0
   -2.5210    1.3590    0.0380 O   0  0  0  0  0  0  0  0  0  0  0  0
   -2.5030   -0.8080    0.3640 N   0  0  0  0  0  0  0  0  0  0  0  0
   -3.8220   -0.9200   -0.2090 C   0  0  2  0  0  0  0  0  0  0  0  0
   -4.2190   -2.2700   -0.1410 O   0  0  0  0  0  0  0  0  0  0  0  0
   -3.9360   -0.4400   -1.6180 C   0  0  0  0  0  0  0  0  0  0  0  0
   -5.3380    0.1720   -1.7360 C   0  0  0  0  0  0  0  0  0  0  0  0
   -6.0420   -0.2280   -0.4530 C   0  0  0  0  0  0  0  0  0  0  0  0
   -4.8610   -0.1450    0.5270 C   0  0  0  0  0  0  0  0  0  0  0  0
  2  1  1  6
  2  3  1  0
  2  4  1  0
  4  5  1  0
  5  6  2  0
  5  7  1  0
  7  8  1  0
  8  9  1  1
  8 10  1  0
 10 11  1  6
 10 12  1  0
 12 13  2  0
 12 14  1  0
 14 15  1  0
 15 16  2  0
 15 17  1  0
 17 18  1  0
 18 19  1  6
 18 20  1  0
 18 23  1  0
 20 21  1  0
 21 22  1  0
 22 23  1  0
M  CHG  1   1   1
M  END
