
     RDKit          3D

 23 23  0  0  0  0  0  0  0  0999 V2000
   -4.0890    1.4530    1.6370 C   0  0  0  0  0  0  0  0  0  0  0  0
   -4.0640    0.4570    0.5340 C   0  0  2  0  0  0  0  0  0  0  0  0
   -2.8510   -0.4280    0.4880 C   0  0  1  0  0  0  0  0  0  0  0  0
   -2.9460   -1.1580   -0.7010 O   0  0  0  0  0  0  0  0  0  0  0  0
   -1.5800    0.3900    0.5450 C   0  0  0  0  0  0  0  0  0  0  0  0
   -0.4790   -0.4660    0.3900 N   0  0  0  0  0  0  0  0  0  0  0  0
    0.9220    0.0940    0.4620 C   0  0  0  0  0  0  0  0  0  0  0  0
    0.9590    1.2760    0.7070 O   0  0  0  0  0  0  0  0  0  0  0  0
    1.7860   -0.9440    0.2200 N   0  0  0  0  0  0  0  0  0  0  0  0
    3.2550   -0.0910    0.5980 C   0  0  0  0  0  0  0  0  0  0  0  0
    3.0700    1.0220    0.8740 O   0  0  0  0  0  0  0  0  0  0  0  0
    4.3990   -0.9670    0.4940 C   0  0  1  0  0  0  0  0  0  0  0  0
    4.6980   -1.4680   -0.9180 C   0  0  0  0  0  0  0  0  0  0  0  0
    4.9300   -0.2830   -1.7210 N   0  0  0  0  0  0  0  0  0  0  0  0
    5.5530   -0.2520    0.8830 O   0  0  0  0  0  0  0  0  0  0  0  0
    6.3810   -0.6300    1.9100 C   0  0  0  0  0  0  0  0  0  0  0  0
    7.5350    0.1280    2.2580 N   0  0  0  0  0  0  0  0  0  0  0  0
    6.1090   -1.6920    2.5760 O   0  0  0  0  0  0  0  0  0  0  0  0
   -4.1690    1.2440   -0.7690 C   0  0  0  0  0  0  0  0  0  0  0  0
   -5.2820    0.5300   -1.4820 C   0  0  2  0  0  0  0  0  0  0  0  0
   -5.9850    1.3470   -2.3590 O   0  0  0  0  0  0  0  0  0  0  0  0
   -6.1270    0.0910   -0.2860 C   0  0  0  0  0  0  0  0  0  0  0  0
   -5.1690   -0.3540    0.5880 O   0  0  0  0  0  0  0  0  0  0  0  0
  2  1  1  1
  2  3  1  0
  2 19  1  0
  2 23  1  0
  3  4  1  6
  3  5  1  0
  5  6  1  0
  6  7  1  0
  7  8  2  0
  7  9  1  0
  9 10  1  0
 10 11  2  0
 10 12  1  0
 12 13  1  6
 12 15  1  0
 13 14  1  0
 15 16  1  0
 16 17  1  0
 16 18  2  0
 19 20  1  0
 20 21  1  6
 20 22  1  0
 22 23  1  0
M  CHG  1  14   1
M  END
