
     RDKit          3D

 23 23  0  0  0  0  0  0  0  0999 V2000
   -3.1370   -0.8380    1.5750 N   0  0  0  0  0  0  0  0  0  0  0  0
   -3.3430    0.4550    0.9800 C   0  0  0  0  0  0  0  0  0  0  0  0
   -3.5270    1.4420    1.7700 N   0  0  0  0  0  0  0  0  0  0  0  0
   -3.3520    0.6130   -0.4690 C   0  0  1  0  0  0  0  0  0  0  0  0
   -4.5090   -0.0520   -0.9360 O   0  0  0  0  0  0  0  0  0  0  0  0
   -3.3610    2.0610   -0.8640 C   0  0  0  0  0  0  0  0  0  0  0  0
   -2.8170    2.0810   -2.2910 C   0  0  2  0  0  0  0  0  0  0  0  0
   -3.9230    2.0770   -3.1400 O   0  0  0  0  0  0  0  0  0  0  0  0
   -1.9730    0.8340   -2.4390 C   0  0  0  0  0  0  0  0  0  0  0  0
   -2.1310    0.0330   -1.1680 C   0  0  1  0  0  0  0  0  0  0  0  0
   -0.9650    0.0030   -0.3520 N   0  0  0  0  0  0  0  0  0  0  0  0
   -0.3140   -1.2170   -0.0250 C   0  0  0  0  0  0  0  0  0  0  0  0
   -0.8000   -2.2750   -0.4820 O   0  0  0  0  0  0  0  0  0  0  0  0
    0.9100   -1.2280    0.8340 C   0  0  0  0  0  0  0  0  0  0  0  0
    1.3260   -2.5200    0.9850 O   0  0  0  0  0  0  0  0  0  0  0  0
    2.4410   -2.6480    1.7610 C   0  0  0  0  0  0  0  0  0  0  0  0
    3.6660   -1.9970    1.2430 C   0  0  0  0  0  0  0  0  0  0  0  0
    4.7410   -2.0420    1.9450 O   0  0  0  0  0  0  0  0  0  0  0  0
    3.7850   -1.3280    0.0520 O   0  0  0  0  0  0  0  0  0  0  0  0
    4.9880   -0.7360   -0.3700 C   0  0  0  0  0  0  0  0  0  0  0  0
    5.4740    0.2980    0.5650 C   0  0  0  0  0  0  0  0  0  0  0  0
    6.6890    0.9640    0.2330 N   0  0  0  0  0  0  0  0  0  0  0  0
    4.8690    0.6020    1.6160 O   0  0  0  0  0  0  0  0  0  0  0  0
  1  2  1  0
  2  3  2  0
  2  4  1  0
  4  5  1  6
  4  6  1  0
  4 10  1  0
  6  7  1  0
  7  8  1  6
  7  9  1  0
  9 10  1  0
 10 11  1  1
 11 12  1  0
 12 13  2  0
 12 14  1  0
 14 15  1  0
 15 16  1  0
 16 17  1  0
 17 18  2  0
 17 19  1  0
 19 20  1  0
 20 21  1  0
 21 22  1  0
 21 23  2  0
M  CHG  1   3   1
M  END
