
     RDKit          3D

 22 22  0  0  0  0  0  0  0  0999 V2000
   -0.0570   -2.4080   -0.8610 C   0  0  0  0  0  0  0  0  0  0  0  0
    0.2380   -0.9970   -0.4350 C   0  0  1  0  0  0  0  0  0  0  0  0
    1.6220   -0.9530    0.1400 C   0  0  2  0  0  0  0  0  0  0  0  0
    2.4810   -1.5320   -0.7940 O   0  0  0  0  0  0  0  0  0  0  0  0
    1.7470   -1.7660    1.4090 C   0  0  0  0  0  0  0  0  0  0  0  0
    1.4050   -3.0890    1.2460 O   0  0  0  0  0  0  0  0  0  0  0  0
    2.0530    0.4340    0.4810 C   0  0  0  0  0  0  0  0  0  0  0  0
    1.4090    1.1270    1.3070 O   0  0  0  0  0  0  0  0  0  0  0  0
    3.2020    1.0280   -0.1090 N   0  0  0  0  0  0  0  0  0  0  0  0
    3.6200    2.3470    0.2100 C   0  0  0  0  0  0  0  0  0  0  0  0
    4.7720    2.8890   -0.4060 N   0  0  0  0  0  0  0  0  0  0  0  0
    2.9890    3.0510    1.0300 O   0  0  0  0  0  0  0  0  0  0  0  0
    0.1400   -0.1170   -1.6630 C   0  0  0  0  0  0  0  0  0  0  0  0
   -1.3780    0.0240   -1.7920 C   0  0  0  0  0  0  0  0  0  0  0  0
   -1.8060   -0.0910   -0.3540 C   0  0  2  0  0  0  0  0  0  0  0  0
   -2.9150   -1.1210   -0.1850 C   0  0  0  0  0  0  0  0  0  0  0  0
   -2.3850    1.2500    0.0520 C   0  0  1  0  0  0  0  0  0  0  0  0
   -3.5110    1.5380   -0.7810 N   0  0  0  0  0  0  0  0  0  0  0  0
   -2.7000    1.3150    1.4960 C   0  0  0  0  0  0  0  0  0  0  0  0
   -1.7650    1.0720    2.5180 N   0  0  0  0  0  0  0  0  0  0  0  0
   -3.8770    1.6050    1.8280 O   0  0  0  0  0  0  0  0  0  0  0  0
   -0.7180   -0.4520    0.3940 O   0  0  0  0  0  0  0  0  0  0  0  0
  2  1  1  6
  2  3  1  0
  2 13  1  0
  2 22  1  0
  3  4  1  6
  3  5  1  0
  3  7  1  0
  5  6  1  0
  7  8  2  0
  7  9  1  0
  9 10  1  0
 10 11  1  0
 10 12  2  0
 13 14  1  0
 14 15  1  0
 15 16  1  6
 15 17  1  0
 15 22  1  0
 17 18  1  6
 17 19  1  0
 19 20  1  0
 19 21  2  0
M  CHG  1  18   1
M  END
