
     RDKit          3D

 29 32  0  0  0  0  0  0  0  0999 V2000
   -2.2050   -3.4670   -2.4440 C   0  0  0  0  0  0  0  0  0  0  0  0
   -3.3740   -2.7710   -1.8340 C   0  0  0  0  0  0  0  0  0  0  0  0
   -4.6600   -3.2670   -2.0030 C   0  0  0  0  0  0  0  0  0  0  0  0
   -5.7230   -2.6040   -1.4280 C   0  0  0  0  0  0  0  0  0  0  0  0
   -5.5090   -1.4380   -0.6780 C   0  0  0  0  0  0  0  0  0  0  0  0
   -4.2410   -0.9260   -0.4950 C   0  0  0  0  0  0  0  0  0  0  0  0
   -3.9300    0.2600    0.2560 C   0  0  0  0  0  0  0  0  0  0  0  0
   -4.8780    0.9560    0.8380 C   0  0  0  0  0  0  0  0  0  0  0  0
   -4.5780    2.1970    1.6280 C   0  0  0  0  0  0  0  0  0  0  0  0
   -3.1520    2.3980    1.5830 N   0  0  0  0  0  0  0  0  0  0  0  0
   -3.1950   -1.6210   -1.0900 C   0  0  0  0  0  0  0  0  0  0  0  0
   -1.8790   -1.1170   -0.9190 N   0  0  0  0  0  0  0  0  0  0  0  0
   -1.0230   -1.4800    0.1450 C   0  0  0  0  0  0  0  0  0  0  0  0
   -1.4660   -2.3030    0.9860 O   0  0  0  0  0  0  0  0  0  0  0  0
    0.2930   -0.9650    0.3010 N   0  0  0  0  0  0  0  0  0  0  0  0
    1.2260   -1.2890    1.3620 C   0  0  0  0  0  0  0  0  0  0  0  0
    1.7980    0.0890    1.7180 C   0  0  2  0  0  0  0  0  0  0  0  0
    0.7840    1.1750    1.6930 C   0  0  0  0  0  0  0  0  0  0  0  0
    1.6950    0.8520    0.4930 C   0  0  1  0  0  0  0  0  0  0  0  0
    2.5750    1.9480    0.0640 C   0  0  2  0  0  0  0  0  0  0  0  0
    2.1370    2.4470   -1.1880 O   0  0  0  0  0  0  0  0  0  0  0  0
    4.0010    1.6460   -0.1080 C   0  0  0  0  0  0  0  0  0  0  0  0
    4.7570    2.6600   -0.7160 C   0  0  0  0  0  0  0  0  0  0  0  0
    6.0960    2.5030   -0.9390 C   0  0  0  0  0  0  0  0  0  0  0  0
    6.6780    1.3580   -0.5660 N   0  0  0  0  0  0  0  0  0  0  0  0
    5.9690    0.3570    0.0250 C   0  0  0  0  0  0  0  0  0  0  0  0
    6.6000   -0.8510    0.4150 N   0  0  0  0  0  0  0  0  0  0  0  0
    4.6170    0.4820    0.2660 C   0  0  0  0  0  0  0  0  0  0  0  0
    0.9970   -0.0170   -0.5390 C   0  0  0  0  0  0  0  0  0  0  0  0
  1  2  1  0
  2  3  2  0
  2 11  1  0
  3  4  1  0
  4  5  2  0
  5  6  1  0
  6  7  1  0
  6 11  2  0
  7  8  2  3
  8  9  1  0
  9 10  1  0
 11 12  1  0
 12 13  1  0
 13 14  2  0
 13 15  1  0
 15 16  1  0
 15 29  1  0
 17 16  1  6
 17 18  1  0
 17 19  1  0
 19 18  1  1
 19 20  1  0
 19 29  1  0
 20 21  1  6
 20 22  1  0
 22 23  2  0
 22 28  1  0
 23 24  1  0
 24 25  2  0
 25 26  1  0
 26 27  1  0
 26 28  2  0
M  CHG  1  25   1
M  END
