
     RDKit          3D

 29 32  0  0  0  0  0  0  0  0999 V2000
    5.8390    1.7990   -2.3960 O   0  0  0  0  0  0  0  0  0  0  0  0
    5.7740    1.0940   -1.3180 C   0  0  0  0  0  0  0  0  0  0  0  0
    6.9430    0.6300   -0.7010 N   0  0  0  0  0  0  0  0  0  0  0  0
    6.9580   -0.1300    0.4980 C   0  0  0  0  0  0  0  0  0  0  0  0
    5.6490   -0.4140    0.9960 N   0  0  0  0  0  0  0  0  0  0  0  0
    5.3370   -1.1490    2.1150 C   0  0  0  0  0  0  0  0  0  0  0  0
    3.9730   -1.1910    2.2620 C   0  0  0  0  0  0  0  0  0  0  0  0
    3.4680   -0.4980    1.2570 N   0  0  0  0  0  0  0  0  0  0  0  0
    4.4900   -0.0220    0.4810 C   0  0  0  0  0  0  0  0  0  0  0  0
    4.4500    0.7810   -0.7390 C   0  0  0  0  0  0  0  0  0  0  0  0
    3.3830    1.2300   -1.3100 C   0  0  0  0  0  0  0  0  0  0  0  0
    2.0160    1.1400   -1.0540 N   0  0  0  0  0  0  0  0  0  0  0  0
    1.2730    1.6330    0.0590 C   0  0  0  0  0  0  0  0  0  0  0  0
   -0.1870    1.6380   -0.1720 C   0  0  0  0  0  0  0  0  0  0  0  0
   -0.8430    0.3990   -0.5070 N   0  0  1  0  0  0  0  0  0  0  0  0
   -0.3540   -0.7120    0.1920 C   0  0  0  0  0  0  0  0  0  0  0  0
   -1.2550   -1.4940    1.0820 C   0  0  0  0  0  0  0  0  0  0  0  0
   -2.6160   -0.8140    1.2940 C   0  0  0  0  0  0  0  0  0  0  0  0
   -3.1360   -0.4630   -0.0550 C   0  0  1  0  0  0  0  0  0  0  0  0
   -3.1540   -1.6740   -0.9940 C   0  0  0  0  0  0  0  0  0  0  0  0
   -4.0640   -1.2160   -2.1220 C   0  0  0  0  0  0  0  0  0  0  0  0
   -4.9160   -0.1420   -1.5720 C   0  0  2  0  0  0  0  0  0  0  0  0
   -6.2390   -0.5410   -1.7060 F   0  0  0  0  0  0  0  0  0  0  0  0
   -4.8000    1.0550   -2.1950 F   0  0  0  0  0  0  0  0  0  0  0  0
   -4.5490   -0.0820   -0.1010 C   0  0  0  0  0  0  0  0  0  0  0  0
   -5.4710    0.2590    0.7760 C   0  0  0  0  0  0  0  0  0  0  0  0
   -5.3950    0.3870    2.2310 C   0  0  0  0  0  0  0  0  0  0  0  0
   -6.2790   -0.4660    2.8850 F   0  0  0  0  0  0  0  0  0  0  0  0
   -2.2620    0.6200   -0.6130 C   0  0  0  0  0  0  0  0  0  0  0  0
  1  2  2  0
  2  3  1  0
  2 10  1  0
  3  4  1  0
  4  5  1  0
  5  6  1  0
  5  9  1  0
  6  7  2  0
  7  8  1  0
  8  9  2  0
  9 10  1  0
 10 11  2  3
 11 12  1  0
 12 13  1  0
 13 14  1  0
 15 14  1  1
 15 16  1  0
 15 29  1  0
 16 17  1  0
 17 18  1  0
 19 18  1  1
 19 20  1  0
 19 25  1  0
 19 29  1  0
 20 21  1  0
 21 22  1  0
 22 23  1  1
 22 24  1  0
 22 25  1  0
 25 26  2  3
 26 27  1  0
 27 28  1  0
M  CHG  1  15   1
M  END
