
     RDKit          3D

 29 32  0  0  0  0  0  0  0  0999 V2000
    4.3930   -1.7930    1.7190 C   0  0  0  0  0  0  0  0  0  0  0  0
    3.6690   -1.6350    0.4190 C   0  0  0  0  0  0  0  0  0  0  0  0
    3.5550   -0.2420    0.0360 N   0  0  0  0  0  0  0  0  0  0  0  0
    4.4730    0.4040   -0.7150 C   0  0  0  0  0  0  0  0  0  0  0  0
    5.7380   -0.1630   -1.2780 C   0  0  2  0  0  0  0  0  0  0  0  0
    6.9800    0.7470   -1.0370 C   0  0  0  0  0  0  0  0  0  0  0  0
    6.3840    0.5550   -2.3770 C   0  0  0  0  0  0  0  0  0  0  0  0
    4.0020    1.6580   -0.8440 N   0  0  0  0  0  0  0  0  0  0  0  0
    2.8500    1.7660   -0.1990 N   0  0  0  0  0  0  0  0  0  0  0  0
    2.5440    0.5830    0.3650 C   0  0  0  0  0  0  0  0  0  0  0  0
    1.3290    0.2480    1.1890 C   0  0  1  0  0  0  0  0  0  0  0  0
    1.5020    0.9660    2.5110 C   0  0  0  0  0  0  0  0  0  0  0  0
    0.1500    0.7900    0.5410 N   0  0  0  0  0  0  0  0  0  0  0  0
   -0.9190   -0.0310    0.1170 C   0  0  0  0  0  0  0  0  0  0  0  0
   -0.8280   -1.2680    0.3150 O   0  0  0  0  0  0  0  0  0  0  0  0
   -2.1440    0.4750   -0.5490 C   0  0  2  0  0  0  0  0  0  0  0  0
   -2.8360    1.4280    0.3760 C   0  0  0  0  0  0  0  0  0  0  0  0
   -4.1650    0.8370    0.6640 C   0  0  0  0  0  0  0  0  0  0  0  0
   -5.0400    1.2600    1.5460 C   0  0  0  0  0  0  0  0  0  0  0  0
   -4.7320    2.4420    2.3690 C   0  0  1  0  0  0  0  0  0  0  0  0
   -5.8390    3.2860    2.3790 F   0  0  0  0  0  0  0  0  0  0  0  0
   -4.4720    2.1160    3.6850 F   0  0  0  0  0  0  0  0  0  0  0  0
   -4.2800   -0.3100   -0.2440 C   0  0  0  0  0  0  0  0  0  0  0  0
   -5.3210   -1.0500   -0.5210 C   0  0  0  0  0  0  0  0  0  0  0  0
   -6.5200   -0.8240    0.0480 F   0  0  0  0  0  0  0  0  0  0  0  0
   -5.1940   -2.1730   -1.4870 C   0  0  0  0  0  0  0  0  0  0  0  0
   -4.1630   -1.9210   -2.5410 C   0  0  0  0  0  0  0  0  0  0  0  0
   -3.2810   -0.7430   -2.2760 C   0  0  0  0  0  0  0  0  0  0  0  0
   -3.0480   -0.5840   -0.8630 N   0  0  1  0  0  0  0  0  0  0  0  0
  1  2  1  0
  2  3  1  0
  3  4  1  0
  3 10  1  0
  5  4  1  1
  4  8  2  0
  5  6  1  0
  5  7  1  0
  6  7  1  0
  8  9  1  0
  9 10  2  0
 10 11  1  0
 11 12  1  1
 11 13  1  0
 13 14  1  0
 14 15  2  0
 16 14  1  1
 16 17  1  0
 16 29  1  0
 17 18  1  0
 18 19  2  3
 18 23  1  0
 19 20  1  0
 20 21  1  1
 20 22  1  0
 23 24  2  0
 23 29  1  0
 24 25  1  0
 24 26  1  0
 26 27  1  0
 27 28  1  0
 29 28  1  6
M  CHG  1  29   1
M  END
