
     RDKit          3D

 31 34  0  0  0  0  0  0  0  0999 V2000
   -3.7460    2.8320    0.9340 C   0  0  0  0  0  0  0  0  0  0  0  0
   -4.5280    2.3240    0.0860 O   0  0  0  0  0  0  0  0  0  0  0  0
   -5.3300    1.8080   -0.7810 C   0  0  0  0  0  0  0  0  0  0  0  0
   -6.4520    2.5060   -1.2940 C   0  0  0  0  0  0  0  0  0  0  0  0
   -7.2600    1.9140   -2.2050 C   0  0  0  0  0  0  0  0  0  0  0  0
   -7.0320    0.6160   -2.6700 C   0  0  0  0  0  0  0  0  0  0  0  0
   -7.8760    0.0320   -3.6460 C   0  0  0  0  0  0  0  0  0  0  0  0
   -8.5910   -0.4730   -4.4540 N   0  0  0  0  0  0  0  0  0  0  0  0
   -5.9630   -0.0840   -2.1950 C   0  0  0  0  0  0  0  0  0  0  0  0
   -5.1450    0.4930   -1.2860 C   0  0  0  0  0  0  0  0  0  0  0  0
   -3.9700   -0.2080   -0.7640 C   0  0  0  0  0  0  0  0  0  0  0  0
   -4.0160   -1.4540   -0.1910 C   0  0  0  0  0  0  0  0  0  0  0  0
   -2.8710   -2.0770    0.2940 C   0  0  0  0  0  0  0  0  0  0  0  0
   -1.7030   -1.4160    0.1830 N   0  0  0  0  0  0  0  0  0  0  0  0
   -1.5940   -0.2040   -0.3640 C   0  0  0  0  0  0  0  0  0  0  0  0
   -0.3950    0.5150   -0.4820 N   0  0  0  0  0  0  0  0  0  0  0  0
    0.8260    0.0590    0.0470 C   0  0  0  0  0  0  0  0  0  0  0  0
    0.8780   -0.8220    1.0850 C   0  0  0  0  0  0  0  0  0  0  0  0
    2.1500   -1.2150    1.5260 C   0  0  0  0  0  0  0  0  0  0  0  0
    3.3190   -0.7550    0.9630 C   0  0  0  0  0  0  0  0  0  0  0  0
    4.5500   -1.2110    1.4940 N   0  0  0  0  0  0  0  0  0  0  0  0
    5.5070   -1.9230    0.7040 C   0  0  0  0  0  0  0  0  0  0  0  0
    6.9070   -1.3770    0.8480 C   0  0  0  0  0  0  0  0  0  0  0  0
    7.1770   -0.9240    2.1250 O   0  0  0  0  0  0  0  0  0  0  0  0
    6.3160   -1.4250    3.0930 C   0  0  0  0  0  0  0  0  0  0  0  0
    4.9050   -0.9660    2.8950 C   0  0  0  0  0  0  0  0  0  0  0  0
    3.2480    0.1380   -0.0910 C   0  0  0  0  0  0  0  0  0  0  0  0
    4.4510    0.5720   -0.6240 O   0  0  0  0  0  0  0  0  0  0  0  0
    4.3490    1.4930   -1.7120 C   0  0  0  0  0  0  0  0  0  0  0  0
    2.0130    0.5320   -0.5330 C   0  0  0  0  0  0  0  0  0  0  0  0
   -2.7570    0.4290   -0.8560 C   0  0  0  0  0  0  0  0  0  0  0  0
  1  2  1  0
  2  3  1  0
  3  4  2  0
  3 10  1  0
  4  5  1  0
  5  6  2  0
  6  7  1  0
  6  9  1  0
  7  8  3  0
  9 10  2  0
 10 11  1  0
 11 12  2  0
 11 31  1  0
 12 13  1  0
 13 14  2  0
 14 15  1  0
 15 16  1  0
 15 31  2  0
 16 17  1  0
 17 18  2  0
 17 30  1  0
 18 19  1  0
 19 20  2  0
 20 21  1  0
 20 27  1  0
 21 22  1  0
 21 26  1  0
 22 23  1  0
 23 24  1  0
 24 25  1  0
 25 26  1  0
 27 28  1  0
 27 30  2  0
 28 29  1  0
M  END
