
     RDKit          3D

 28 31  0  0  0  0  0  0  0  0999 V2000
   -5.6750   -1.4950   -0.6770 C   0  0  0  0  0  0  0  0  0  0  0  0
   -4.3680   -1.3190   -0.6350 C   0  0  0  0  0  0  0  0  0  0  0  0
   -3.4980   -2.2360    0.1510 C   0  0  0  0  0  0  0  0  0  0  0  0
   -2.7410   -1.6880    1.1790 N   0  0  0  0  0  0  0  0  0  0  0  0
   -1.6510   -0.8280    0.9330 C   0  0  2  0  0  0  0  0  0  0  0  0
   -2.1020    0.4110    0.2750 C   0  0  0  0  0  0  0  0  0  0  0  0
   -1.6780    0.9470   -0.8330 N   0  0  0  0  0  0  0  0  0  0  0  0
   -2.4180    2.1610   -1.0880 C   0  0  0  0  0  0  0  0  0  0  0  0
   -2.8410    3.0380   -1.9020 N   0  0  0  0  0  0  0  0  0  0  0  0
   -3.6010    4.0210   -1.2500 O   0  0  0  0  0  0  0  0  0  0  0  0
   -4.1130    3.3510   -0.0540 C   0  0  0  0  0  0  0  0  0  0  0  0
   -2.8860    2.5670    0.2830 C   0  0  1  0  0  0  0  0  0  0  0  0
   -3.1320    1.2580    0.8410 N   0  0  0  0  0  0  0  0  0  0  0  0
   -0.5000   -1.4960    0.2130 C   0  0  2  0  0  0  0  0  0  0  0  0
   -0.0540   -2.6470    1.0930 C   0  0  0  0  0  0  0  0  0  0  0  0
    1.2760   -3.2160    0.7550 C   0  0  0  0  0  0  0  0  0  0  0  0
    2.3450   -2.1060    0.5960 C   0  0  0  0  0  0  0  0  0  0  0  0
    1.7950   -1.1940   -0.3450 N   0  0  2  0  0  0  0  0  0  0  0  0
    2.6280   -0.4420   -1.1710 C   0  0  0  0  0  0  0  0  0  0  0  0
    3.5250    0.5920   -0.6980 C   0  0  0  0  0  0  0  0  0  0  0  0
    3.6790    0.9630    0.5330 C   0  0  0  0  0  0  0  0  0  0  0  0
    4.5950    2.0130    0.9870 C   0  0  1  0  0  0  0  0  0  0  0  0
    3.9020    2.9370    1.8010 F   0  0  0  0  0  0  0  0  0  0  0  0
    5.5230    1.3420    1.8230 F   0  0  0  0  0  0  0  0  0  0  0  0
    5.3680    2.6950   -0.0490 C   0  0  0  0  0  0  0  0  0  0  0  0
    5.1550    2.2350   -1.4150 C   0  0  0  0  0  0  0  0  0  0  0  0
    4.3260    1.2830   -1.7490 C   0  0  0  0  0  0  0  0  0  0  0  0
    0.6770   -0.5020    0.2680 C   0  0  0  0  0  0  0  0  0  0  0  0
  1  2  2  0
  2  3  1  0
  3  4  1  0
  5  4  1  6
  5  6  1  0
  5 14  1  0
  6  7  2  0
  6 13  1  0
  7  8  1  0
  8  9  2  0
  8 12  1  0
  9 10  1  0
 10 11  1  0
 12 11  1  6
 12 13  1  0
 14 15  1  1
 14 28  1  0
 15 16  1  0
 16 17  1  0
 17 18  1  0
 18 19  1  1
 18 28  1  0
 19 20  1  0
 20 21  2  0
 20 27  1  0
 21 22  1  0
 22 23  1  1
 22 24  1  0
 22 25  1  0
 25 26  1  0
 26 27  2  0
M  CHG  1  18   1
M  END
