
     RDKit          3D

 29 32  0  0  0  0  0  0  0  0999 V2000
    7.0450    0.3540   -1.3120 C   0  0  0  0  0  0  0  0  0  0  0  0
    6.0080    0.1390   -0.2540 C   0  0  0  0  0  0  0  0  0  0  0  0
    4.6920   -0.0520   -0.6380 C   0  0  0  0  0  0  0  0  0  0  0  0
    3.7450   -0.2480    0.3360 C   0  0  0  0  0  0  0  0  0  0  0  0
    2.3570   -0.4340    0.0890 N   0  0  0  0  0  0  0  0  0  0  0  0
    1.6820   -0.1190   -1.1190 C   0  0  0  0  0  0  0  0  0  0  0  0
    2.3450    0.3670   -2.0480 O   0  0  0  0  0  0  0  0  0  0  0  0
    0.2670   -0.3610   -1.2550 N   0  0  0  0  0  0  0  0  0  0  0  0
   -0.4800   -0.0870   -2.4200 C   0  0  0  0  0  0  0  0  0  0  0  0
    0.1370    0.2020   -3.6050 C   0  0  0  0  0  0  0  0  0  0  0  0
   -0.6410    0.4020   -4.7500 C   0  0  0  0  0  0  0  0  0  0  0  0
   -1.9980    0.3040   -4.6650 C   0  0  0  0  0  0  0  0  0  0  0  0
   -2.6190    0.0070   -3.4460 C   0  0  0  0  0  0  0  0  0  0  0  0
   -1.8820   -0.1930   -2.3070 C   0  0  0  0  0  0  0  0  0  0  0  0
   -2.4720   -0.4390   -1.0380 N   0  0  0  0  0  0  0  0  0  0  0  0
   -3.8110   -0.7530   -0.7750 C   0  0  0  0  0  0  0  0  0  0  0  0
   -4.6270   -0.8470   -1.7060 O   0  0  0  0  0  0  0  0  0  0  0  0
   -4.3500   -0.9910    0.5900 C   0  0  1  0  0  0  0  0  0  0  0  0
   -4.3550    0.3140    1.3570 C   0  0  0  0  0  0  0  0  0  0  0  0
   -5.3060    0.0140    2.4860 C   0  0  1  0  0  0  0  0  0  0  0  0
   -6.1150    1.2310    2.8820 C   0  0  0  0  0  0  0  0  0  0  0  0
   -6.1710   -1.0940    1.9650 C   0  0  0  0  0  0  0  0  0  0  0  0
   -5.7400   -1.3290    0.5850 N   0  0  0  0  0  0  0  0  0  0  0  0
    4.1390   -0.2500    1.6870 C   0  0  0  0  0  0  0  0  0  0  0  0
    5.4390   -0.0610    2.0560 C   0  0  0  0  0  0  0  0  0  0  0  0
    6.0860   -0.0160    3.2520 N   0  0  0  0  0  0  0  0  0  0  0  0
    7.3940    0.2020    3.0570 C   0  0  0  0  0  0  0  0  0  0  0  0
    7.6000    0.2990    1.7000 C   0  0  0  0  0  0  0  0  0  0  0  0
    6.3790    0.1350    1.0730 C   0  0  0  0  0  0  0  0  0  0  0  0
  1  2  1  0
  2  3  2  0
  2 29  1  0
  3  4  1  0
  4  5  1  0
  4 24  2  0
  5  6  1  0
  6  7  2  0
  6  8  1  0
  8  9  1  0
  9 10  2  0
  9 14  1  0
 10 11  1  0
 11 12  2  0
 12 13  1  0
 13 14  2  0
 14 15  1  0
 15 16  1  0
 16 17  2  0
 18 16  1  6
 18 19  1  0
 18 23  1  0
 19 20  1  0
 20 21  1  6
 20 22  1  0
 22 23  1  0
 24 25  1  0
 25 26  1  0
 25 29  2  0
 26 27  1  0
 27 28  2  0
 28 29  1  0
M  CHG  1  23   1
M  END
