
     RDKit          3D

 29 32  0  0  0  0  0  0  0  0999 V2000
   -1.7880    2.8280   -1.3020 C   0  0  0  0  0  0  0  0  0  0  0  0
   -2.9790    2.4760   -0.9050 C   0  0  0  0  0  0  0  0  0  0  0  0
   -3.4090    1.0800   -0.7240 C   0  0  0  0  0  0  0  0  0  0  0  0
   -4.6630    0.9350   -0.3200 C   0  0  0  0  0  0  0  0  0  0  0  0
   -5.0790   -0.3030    0.5440 C   0  0  0  0  0  0  0  0  0  0  0  0
   -3.8450   -1.0480    0.4180 C   0  0  0  0  0  0  0  0  0  0  0  0
   -3.0890   -1.3280    1.4350 C   0  0  0  0  0  0  0  0  0  0  0  0
   -3.5350   -1.7990    2.7470 C   0  0  2  0  0  0  0  0  0  0  0  0
   -3.1990   -0.9100    3.7670 F   0  0  0  0  0  0  0  0  0  0  0  0
   -2.9360   -3.0400    3.0060 F   0  0  0  0  0  0  0  0  0  0  0  0
   -4.8890   -2.0390    2.7210 F   0  0  0  0  0  0  0  0  0  0  0  0
   -1.5900   -1.0790    1.1750 C   0  0  0  0  0  0  0  0  0  0  0  0
   -1.3670   -0.1550    0.0010 C   0  0  1  0  0  0  0  0  0  0  0  0
   -0.0720   -0.5420   -0.5120 N   0  0  1  0  0  0  0  0  0  0  0  0
    0.1180   -0.5820   -1.9050 C   0  0  0  0  0  0  0  0  0  0  0  0
    1.3800   -1.4440   -2.1450 C   0  0  0  0  0  0  0  0  0  0  0  0
    2.5340   -0.9010   -1.3940 C   0  0  0  0  0  0  0  0  0  0  0  0
    2.2940   -0.0780   -0.3220 C   0  0  0  0  0  0  0  0  0  0  0  0
    3.5130    0.3200    0.2410 C   0  0  0  0  0  0  0  0  0  0  0  0
    3.7110    1.1900    1.3900 C   0  0  0  0  0  0  0  0  0  0  0  0
    2.7060    1.6580    1.9700 O   0  0  0  0  0  0  0  0  0  0  0  0
    4.9940    1.5040    1.8450 N   0  0  0  0  0  0  0  0  0  0  0  0
    5.1760    2.3850    3.0080 C   0  0  0  0  0  0  0  0  0  0  0  0
    4.4450   -0.2860   -0.5220 N   0  0  0  0  0  0  0  0  0  0  0  0
    3.8670   -1.0030   -1.4830 N   0  0  0  0  0  0  0  0  0  0  0  0
    4.5950   -1.7780   -2.4750 C   0  0  0  0  0  0  0  0  0  0  0  0
    0.9330    0.2910    0.1150 C   0  0  0  0  0  0  0  0  0  0  0  0
   -2.4220   -0.0150   -1.0120 C   0  0  1  0  0  0  0  0  0  0  0  0
   -3.2870   -1.2690   -0.8620 N   0  0  0  0  0  0  0  0  0  0  0  0
  1  2  2  0
  2  3  1  0
  3  4  2  0
 28  3  1  1
  4  5  1  0
  5  6  1  0
  6  7  2  0
  6 29  1  0
  7  8  1  0
  7 12  1  0
  8  9  1  1
  8 10  1  0
  8 11  1  0
 13 12  1  1
 13 14  1  0
 13 28  1  0
 14 15  1  6
 14 27  1  0
 15 16  1  0
 16 17  1  0
 17 18  2  0
 17 25  1  0
 18 19  1  0
 18 27  1  0
 19 20  1  0
 19 24  2  0
 20 21  2  0
 20 22  1  0
 22 23  1  0
 24 25  1  0
 25 26  1  0
 28 29  1  0
M  CHG  1  14   1
M  END
