
     RDKit          3D

 23 25  0  0  0  0  0  0  0  0999 V2000
   -6.8210   -1.7720   -1.6910 C   0  0  0  0  0  0  0  0  0  0  0  0
   -5.6990   -1.1640   -0.9040 C   0  0  0  0  0  0  0  0  0  0  0  0
   -4.3570   -1.3240   -1.0730 C   0  0  0  0  0  0  0  0  0  0  0  0
   -3.7300   -0.5690   -0.1140 C   0  0  0  0  0  0  0  0  0  0  0  0
   -2.4100   -0.3180    0.2360 C   0  0  0  0  0  0  0  0  0  0  0  0
   -2.0490    0.4960    1.2730 C   0  0  0  0  0  0  0  0  0  0  0  0
   -0.8590    0.8960    1.8130 C   0  0  0  0  0  0  0  0  0  0  0  0
    0.4870    0.5300    1.4670 C   0  0  0  0  0  0  0  0  0  0  0  0
    1.4180    1.2560    2.0170 O   0  0  0  0  0  0  0  0  0  0  0  0
    0.9840   -0.4770    0.6450 N   0  0  0  0  0  0  0  0  0  0  0  0
    2.3740   -0.6810    0.4280 N   0  0  0  0  0  0  0  0  0  0  0  0
    3.0940    0.1250   -0.4830 C   0  0  0  0  0  0  0  0  0  0  0  0
    2.4730    1.0110   -1.0920 O   0  0  0  0  0  0  0  0  0  0  0  0
    4.5060   -0.1350   -0.6440 N   0  0  0  0  0  0  0  0  0  0  0  0
    5.2500    0.6740   -1.5660 C   0  0  0  0  0  0  0  0  0  0  0  0
    6.7000    0.2070   -1.5390 C   0  0  0  0  0  0  0  0  0  0  0  0
    7.2550    0.3560   -0.2330 N   0  0  0  0  0  0  0  0  0  0  0  0
   -1.1400    1.7470    2.8720 N   0  0  0  0  0  0  0  0  0  0  0  0
   -2.4420    1.8520    2.9680 N   0  0  0  0  0  0  0  0  0  0  0  0
   -3.0470    1.1110    2.0210 C   0  0  0  0  0  0  0  0  0  0  0  0
   -4.3650    0.8740    1.6850 C   0  0  0  0  0  0  0  0  0  0  0  0
   -4.7220    0.0340    0.6200 C   0  0  0  0  0  0  0  0  0  0  0  0
   -5.8800   -0.3420    0.1200 O   0  0  0  0  0  0  0  0  0  0  0  0
  1  2  1  0
  2  3  2  0
  2 23  1  0
  3  4  1  0
  4  5  2  0
  4 22  1  0
  5  6  1  0
  6  7  1  0
  6 20  2  0
  7  8  1  0
  7 18  2  0
  8  9  2  0
  8 10  1  0
 10 11  1  0
 11 12  1  0
 12 13  2  0
 12 14  1  0
 14 15  1  0
 15 16  1  0
 16 17  1  0
 18 19  1  0
 19 20  1  0
 20 21  1  0
 21 22  2  0
 22 23  1  0
M  END
