
     RDKit          3D

 23 25  0  0  0  0  0  0  0  0999 V2000
    0.6410    1.6620   -1.3640 O   0  0  0  0  0  0  0  0  0  0  0  0
    0.4700    0.9860   -0.3330 C   0  0  0  0  0  0  0  0  0  0  0  0
   -0.8850    1.0430    0.3120 C   0  0  0  0  0  0  0  0  0  0  0  0
   -1.7970    1.9430   -0.4510 C   0  0  0  0  0  0  0  0  0  0  0  0
   -3.1800    2.0280    0.1290 C   0  0  0  0  0  0  0  0  0  0  0  0
   -3.9070    0.7450    0.0850 C   0  0  0  0  0  0  0  0  0  0  0  0
   -3.4990   -0.3350   -0.6570 C   0  0  0  0  0  0  0  0  0  0  0  0
   -4.1950   -1.5430   -0.6470 C   0  0  0  0  0  0  0  0  0  0  0  0
   -3.8440   -2.5420   -1.3130 O   0  0  0  0  0  0  0  0  0  0  0  0
   -5.2880   -1.6100    0.1220 N   0  0  0  0  0  0  0  0  0  0  0  0
   -5.7130   -0.5660    0.8600 C   0  0  0  0  0  0  0  0  0  0  0  0
   -6.7470   -0.6240    1.5890 O   0  0  0  0  0  0  0  0  0  0  0  0
   -5.0350    0.5820    0.8390 N   0  0  0  0  0  0  0  0  0  0  0  0
    1.5040    0.2030    0.2040 N   0  0  0  0  0  0  0  0  0  0  0  0
    2.8040    0.0770   -0.3160 C   0  0  0  0  0  0  0  0  0  0  0  0
    3.2820    0.7050   -1.4440 C   0  0  0  0  0  0  0  0  0  0  0  0
    4.5940    0.5360   -1.9110 C   0  0  0  0  0  0  0  0  0  0  0  0
    5.4010   -0.2640   -1.2290 N   0  0  0  0  0  0  0  0  0  0  0  0
    4.9800   -0.8990   -0.1190 C   0  0  0  0  0  0  0  0  0  0  0  0
    3.7080   -0.7590    0.3650 C   0  0  0  0  0  0  0  0  0  0  0  0
    3.5700   -1.5580    1.5520 N   0  0  0  0  0  0  0  0  0  0  0  0
    4.9140   -1.8500    1.9700 C   0  0  0  0  0  0  0  0  0  0  0  0
    5.6700   -1.7880    0.7490 N   0  0  0  0  0  0  0  0  0  0  0  0
  1  2  2  0
  2  3  1  0
  2 14  1  0
  3  4  1  0
  4  5  1  0
  5  6  1  0
  6  7  2  0
  6 13  1  0
  7  8  1  0
  8  9  2  0
  8 10  1  0
 10 11  1  0
 11 12  2  0
 11 13  1  0
 14 15  1  0
 15 16  2  0
 15 20  1  0
 16 17  1  0
 17 18  2  0
 18 19  1  0
 19 20  2  0
 19 23  1  0
 20 21  1  0
 21 22  1  0
 22 23  1  0
M  END
