
     RDKit          3D

 23 25  0  0  0  0  0  0  0  0999 V2000
    3.3220    2.5060    0.0980 C   0  0  0  0  0  0  0  0  0  0  0  0
    3.4460    1.0220    0.0070 C   0  0  0  0  0  0  0  0  0  0  0  0
    4.6200    0.3950   -0.3180 C   0  0  0  0  0  0  0  0  0  0  0  0
    4.6860   -0.9810   -0.3900 C   0  0  0  0  0  0  0  0  0  0  0  0
    3.5930   -1.7660   -0.1420 C   0  0  0  0  0  0  0  0  0  0  0  0
    3.6200   -3.1780   -0.2070 N   0  0  0  0  0  0  0  0  0  0  0  0
    2.3760   -1.1540    0.1920 C   0  0  0  0  0  0  0  0  0  0  0  0
    1.2440   -1.9660    0.4730 N   0  0  0  0  0  0  0  0  0  0  0  0
   -0.0660   -1.4290    0.6920 C   0  0  0  0  0  0  0  0  0  0  0  0
   -0.6300   -0.9370   -0.6180 C   0  0  0  0  0  0  0  0  0  0  0  0
   -1.9470   -0.3790   -0.4040 N   0  0  0  0  0  0  0  0  0  0  0  0
   -3.0500   -1.1610   -0.4910 C   0  0  0  0  0  0  0  0  0  0  0  0
   -2.8780   -2.3780   -0.7620 O   0  0  0  0  0  0  0  0  0  0  0  0
   -4.2770   -0.6980   -0.3040 N   0  0  0  0  0  0  0  0  0  0  0  0
   -4.4410    0.6020   -0.0160 C   0  0  0  0  0  0  0  0  0  0  0  0
   -5.5160    1.3890    0.2280 N   0  0  0  0  0  0  0  0  0  0  0  0
   -5.1280    2.6580    0.4700 C   0  0  0  0  0  0  0  0  0  0  0  0
   -5.9330    3.6020    0.7280 O   0  0  0  0  0  0  0  0  0  0  0  0
   -3.7950    2.6980    0.3830 N   0  0  0  0  0  0  0  0  0  0  0  0
   -3.3480    1.4670    0.0890 C   0  0  0  0  0  0  0  0  0  0  0  0
   -2.1000    0.9160   -0.1180 C   0  0  0  0  0  0  0  0  0  0  0  0
   -1.1100    1.6710   -0.0290 O   0  0  0  0  0  0  0  0  0  0  0  0
    2.3370    0.2230    0.2580 C   0  0  0  0  0  0  0  0  0  0  0  0
  1  2  1  0
  2  3  2  0
  2 23  1  0
  3  4  1  0
  4  5  2  0
  5  6  1  0
  5  7  1  0
  7  8  1  0
  7 23  2  0
  8  9  1  0
  9 10  1  0
 10 11  1  0
 11 12  1  0
 11 21  1  0
 12 13  2  0
 12 14  1  0
 14 15  1  0
 15 16  1  0
 15 20  2  0
 16 17  1  0
 17 18  2  0
 17 19  1  0
 19 20  1  0
 20 21  1  0
 21 22  2  0
M  END
