
     RDKit          3D

 23 25  0  0  0  0  0  0  0  0999 V2000
   -1.8660    4.1760   -0.7150 C   0  0  0  0  0  0  0  0  0  0  0  0
   -1.4420    3.3940    0.5000 C   0  0  0  0  0  0  0  0  0  0  0  0
   -0.9460    2.0410    0.1540 C   0  0  0  0  0  0  0  0  0  0  0  0
   -1.5300    0.9930    0.6310 N   0  0  0  0  0  0  0  0  0  0  0  0
   -1.3130   -0.4090    0.5000 C   0  0  0  0  0  0  0  0  0  0  0  0
   -2.3600   -1.3010    0.8540 N   0  0  0  0  0  0  0  0  0  0  0  0
   -3.3550   -1.7690   -0.0770 C   0  0  1  0  0  0  0  0  0  0  0  0
   -4.3800   -2.7220    0.5350 C   0  0  0  0  0  0  0  0  0  0  0  0
   -4.7600   -1.3070    0.2270 C   0  0  0  0  0  0  0  0  0  0  0  0
   -0.1780   -1.0210    0.0650 C   0  0  0  0  0  0  0  0  0  0  0  0
    1.0710   -0.3280   -0.3600 C   0  0  0  0  0  0  0  0  0  0  0  0
    2.2170   -0.8630   -0.1330 C   0  0  0  0  0  0  0  0  0  0  0  0
    2.1630   -2.1600    0.5230 N   0  0  0  0  0  0  0  0  0  0  0  0
    3.2920   -2.8980    0.9000 C   0  0  0  0  0  0  0  0  0  0  0  0
    3.1430   -4.0200    1.4640 O   0  0  0  0  0  0  0  0  0  0  0  0
    4.5740   -2.3940    0.6530 N   0  0  0  0  0  0  0  0  0  0  0  0
    4.6800   -1.1340    0.0220 C   0  0  0  0  0  0  0  0  0  0  0  0
    5.8200   -0.6820   -0.1990 O   0  0  0  0  0  0  0  0  0  0  0  0
    3.5080   -0.3880   -0.3580 N   0  0  0  0  0  0  0  0  0  0  0  0
    3.7680    0.9260   -0.8600 C   0  0  0  0  0  0  0  0  0  0  0  0
    0.9630    0.9040   -1.1450 C   0  0  0  0  0  0  0  0  0  0  0  0
    1.5480    0.9650   -2.2420 O   0  0  0  0  0  0  0  0  0  0  0  0
    0.2030    2.0620   -0.7270 N   0  0  0  0  0  0  0  0  0  0  0  0
  1  2  1  0
  2  3  1  0
  3  4  2  0
  3 23  1  0
  4  5  1  0
  5  6  1  0
  5 10  2  0
  7  6  1  1
  7  8  1  0
  7  9  1  0
  8  9  1  0
 10 11  1  0
 11 12  2  3
 11 21  1  0
 12 13  1  0
 12 19  1  0
 13 14  1  0
 14 15  2  0
 14 16  1  0
 16 17  1  0
 17 18  2  0
 17 19  1  0
 19 20  1  0
 21 22  2  0
 21 23  1  0
M  END
