
     RDKit          3D

 22 24  0  0  0  0  0  0  0  0999 V2000
   -5.4500   -1.1810   -0.6780 N   0  0  0  0  0  0  0  0  0  0  0  0
   -4.0970   -0.8180   -0.4300 C   0  0  0  0  0  0  0  0  0  0  0  0
   -3.7420    0.3590    0.1860 C   0  0  0  0  0  0  0  0  0  0  0  0
   -2.3840    0.6460    0.3960 C   0  0  0  0  0  0  0  0  0  0  0  0
   -1.4020   -0.1900    0.0160 C   0  0  0  0  0  0  0  0  0  0  0  0
    0.0480    0.0470    0.1370 C   0  0  0  0  0  0  0  0  0  0  0  0
    0.9560   -0.9830    0.2130 N   0  0  0  0  0  0  0  0  0  0  0  0
    2.1980   -0.5350    0.3350 C   0  0  0  0  0  0  0  0  0  0  0  0
    3.4360   -1.3520    0.4480 C   0  0  0  0  0  0  0  0  0  0  0  0
    3.5390   -2.6900    0.4480 N   0  0  0  0  0  0  0  0  0  0  0  0
    4.8210   -3.0660    0.5690 C   0  0  0  0  0  0  0  0  0  0  0  0
    5.5340   -1.9290    0.6450 N   0  0  0  0  0  0  0  0  0  0  0  0
    4.6890   -0.8880    0.5710 N   0  0  0  0  0  0  0  0  0  0  0  0
    2.1180    0.7900    0.3370 N   0  0  0  0  0  0  0  0  0  0  0  0
    0.7840    1.1830    0.2100 C   0  0  0  0  0  0  0  0  0  0  0  0
    0.4210    2.5710    0.0120 C   0  0  0  0  0  0  0  0  0  0  0  0
   -0.6710    2.9880   -0.8170 C   0  0  0  0  0  0  0  0  0  0  0  0
   -0.9400    4.2360   -0.9160 O   0  0  0  0  0  0  0  0  0  0  0  0
    1.2170    3.4930    0.4990 C   0  0  0  0  0  0  0  0  0  0  0  0
    2.3620    3.1440    1.1780 O   0  0  0  0  0  0  0  0  0  0  0  0
   -1.8100   -1.3800   -0.6070 C   0  0  0  0  0  0  0  0  0  0  0  0
   -3.1160   -1.6860   -0.8240 C   0  0  0  0  0  0  0  0  0  0  0  0
  1  2  1  0
  2  3  2  0
  2 22  1  0
  3  4  1  0
  4  5  2  0
  5  6  1  0
  5 21  1  0
  6  7  1  0
  6 15  2  0
  7  8  1  0
  8  9  1  0
  8 14  2  0
  9 10  1  0
  9 13  2  0
 10 11  2  0
 11 12  1  0
 12 13  1  0
 14 15  1  0
 15 16  1  0
 16 17  1  0
 16 19  2  3
 17 18  2  0
 19 20  1  0
 21 22  2  0
M  END
