
     RDKit          3D

 23 25  0  0  0  0  0  0  0  0999 V2000
   -2.7240   -2.0850    0.9280 C   0  0  0  0  0  0  0  0  0  0  0  0
   -2.7450   -1.2670   -0.3340 C   0  0  0  0  0  0  0  0  0  0  0  0
   -2.8960    0.1530   -0.0930 N   0  0  0  0  0  0  0  0  0  0  0  0
   -1.8660    0.9870    0.0670 C   0  0  0  0  0  0  0  0  0  0  0  0
   -0.4530    0.6850    0.0670 C   0  0  0  0  0  0  0  0  0  0  0  0
    0.3110    1.7420    0.0760 O   0  0  0  0  0  0  0  0  0  0  0  0
    0.2330   -0.5100    0.0640 N   0  0  0  0  0  0  0  0  0  0  0  0
    1.6520   -0.6920    0.0580 C   0  0  0  0  0  0  0  0  0  0  0  0
    2.1800   -1.9340   -0.3370 C   0  0  0  0  0  0  0  0  0  0  0  0
    3.5270   -2.2070   -0.3530 C   0  0  0  0  0  0  0  0  0  0  0  0
    4.4070   -1.2150    0.0370 C   0  0  0  0  0  0  0  0  0  0  0  0
    5.7450   -1.1990    0.1190 N   0  0  0  0  0  0  0  0  0  0  0  0
    6.1320    0.0220    0.5600 C   0  0  0  0  0  0  0  0  0  0  0  0
    5.0080    0.7450    0.7440 N   0  0  0  0  0  0  0  0  0  0  0  0
    3.9430    0.0030    0.4280 C   0  0  0  0  0  0  0  0  0  0  0  0
    2.5510    0.2390    0.4300 C   0  0  0  0  0  0  0  0  0  0  0  0
   -2.2410    2.3420    0.2260 C   0  0  0  0  0  0  0  0  0  0  0  0
   -1.2710    3.3600    0.4070 N   0  0  0  0  0  0  0  0  0  0  0  0
   -3.5420    2.7460    0.2170 C   0  0  0  0  0  0  0  0  0  0  0  0
   -3.8720    3.9630    0.3600 O   0  0  0  0  0  0  0  0  0  0  0  0
   -4.5420    1.8770    0.0560 N   0  0  0  0  0  0  0  0  0  0  0  0
   -4.1960    0.5990   -0.0950 C   0  0  0  0  0  0  0  0  0  0  0  0
   -5.1140   -0.2370   -0.2470 O   0  0  0  0  0  0  0  0  0  0  0  0
  1  2  1  0
  2  3  1  0
  3  4  1  0
  3 22  1  0
  4  5  1  0
  4 17  2  0
  5  6  2  0
  5  7  1  0
  7  8  1  0
  8  9  2  0
  8 16  1  0
  9 10  1  0
 10 11  2  0
 11 12  1  0
 11 15  1  0
 12 13  1  0
 13 14  2  0
 14 15  1  0
 15 16  2  0
 17 18  1  0
 17 19  1  0
 19 20  2  0
 19 21  1  0
 21 22  1  0
 22 23  2  0
M  END
