
     RDKit          3D

 23 25  0  0  0  0  0  0  0  0999 V2000
   -3.8850   -0.4220    2.5840 C   0  0  0  0  0  0  0  0  0  0  0  0
   -4.3690    0.3590    1.5290 O   0  0  0  0  0  0  0  0  0  0  0  0
   -3.7030    0.5310    0.3150 C   0  0  0  0  0  0  0  0  0  0  0  0
   -4.3140    1.3350   -0.6310 C   0  0  0  0  0  0  0  0  0  0  0  0
   -3.7110    1.5480   -1.8520 C   0  0  0  0  0  0  0  0  0  0  0  0
   -2.4770    0.9600   -2.1580 C   0  0  0  0  0  0  0  0  0  0  0  0
   -1.8920    1.1830   -3.3800 O   0  0  0  0  0  0  0  0  0  0  0  0
   -1.8850    0.1650   -1.2090 C   0  0  0  0  0  0  0  0  0  0  0  0
   -0.6390   -0.4680   -1.4350 N   0  0  0  0  0  0  0  0  0  0  0  0
   -0.0010   -1.2930   -0.4810 C   0  0  0  0  0  0  0  0  0  0  0  0
    0.1290   -2.6840   -0.7150 N   0  0  0  0  0  0  0  0  0  0  0  0
    0.4840   -0.7620    0.6500 C   0  0  0  0  0  0  0  0  0  0  0  0
    1.1260   -1.5370    1.6290 N   0  0  0  0  0  0  0  0  0  0  0  0
    2.3790   -1.3960    1.8390 C   0  0  0  0  0  0  0  0  0  0  0  0
    3.1220   -0.4180    1.0430 C   0  0  0  0  0  0  0  0  0  0  0  0
    2.6500    0.3910    0.0770 N   0  0  0  0  0  0  0  0  0  0  0  0
    3.6450    1.1530   -0.4260 C   0  0  0  0  0  0  0  0  0  0  0  0
    4.0110    2.1050   -1.3010 N   0  0  0  0  0  0  0  0  0  0  0  0
    5.2820    2.3370   -1.1800 O   0  0  0  0  0  0  0  0  0  0  0  0
    5.8200    1.5880   -0.2570 C   0  0  0  0  0  0  0  0  0  0  0  0
    4.8070    0.8110    0.2550 C   0  0  0  0  0  0  0  0  0  0  0  0
    4.4400   -0.1470    1.1370 N   0  0  0  0  0  0  0  0  0  0  0  0
   -2.5090   -0.0430    0.0280 C   0  0  0  0  0  0  0  0  0  0  0  0
  1  2  1  0
  2  3  1  0
  3  4  2  0
  3 23  1  0
  4  5  1  0
  5  6  2  0
  6  7  1  0
  6  8  1  0
  8  9  1  0
  8 23  2  0
  9 10  1  0
 10 11  1  0
 10 12  2  3
 12 13  1  0
 13 14  2  3
 14 15  1  0
 15 16  2  0
 15 22  1  0
 16 17  1  0
 17 18  2  0
 17 21  1  0
 18 19  1  0
 19 20  1  0
 20 21  2  0
 21 22  1  0
M  END
