
     RDKit          3D

 23 24  0  0  0  0  0  0  0  0999 V2000
    5.8890   -2.4940    1.5450 C   0  0  0  0  0  0  0  0  0  0  0  0
    5.4450   -1.4590    0.8700 C   0  0  0  0  0  0  0  0  0  0  0  0
    4.0160   -1.2500    0.7130 C   0  0  0  0  0  0  0  0  0  0  0  0
    3.4780   -0.1130    0.2520 C   0  0  0  0  0  0  0  0  0  0  0  0
    2.0410   -0.0150    0.1360 C   0  0  0  0  0  0  0  0  0  0  0  0
    1.3390   -1.0460    0.4890 O   0  0  0  0  0  0  0  0  0  0  0  0
    1.3650    1.1350   -0.3380 N   0  0  0  0  0  0  0  0  0  0  0  0
   -0.0800    1.0810   -0.3960 C   0  0  0  0  0  0  0  0  0  0  0  0
   -0.9110    2.0620   -0.8140 N   0  0  0  0  0  0  0  0  0  0  0  0
   -2.1540    1.6120   -0.7120 N   0  0  0  0  0  0  0  0  0  0  0  0
   -2.1530    0.3560   -0.2350 C   0  0  0  0  0  0  0  0  0  0  0  0
   -3.2970   -0.4630    0.0140 N   0  0  0  0  0  0  0  0  0  0  0  0
   -4.6150    0.0000   -0.2340 C   0  0  0  0  0  0  0  0  0  0  0  0
   -5.3400    0.5430    0.7180 C   0  0  0  0  0  0  0  0  0  0  0  0
   -4.8360    0.7090    2.1060 C   0  0  0  0  0  0  0  0  0  0  0  0
   -5.1560   -0.1360   -1.5700 C   0  0  0  0  0  0  0  0  0  0  0  0
   -4.4600   -0.6760   -2.5510 C   0  0  0  0  0  0  0  0  0  0  0  0
   -6.4280    0.3040   -1.8390 O   0  0  0  0  0  0  0  0  0  0  0  0
   -0.8580    0.0490   -0.0470 N   0  0  0  0  0  0  0  0  0  0  0  0
    4.4040    0.9420   -0.0970 C   0  0  0  0  0  0  0  0  0  0  0  0
    4.0400    2.0560   -0.5400 O   0  0  0  0  0  0  0  0  0  0  0  0
    5.8250    0.7770    0.0450 N   0  0  0  0  0  0  0  0  0  0  0  0
    6.4050   -0.5090    0.2730 C   0  0  0  0  0  0  0  0  0  0  0  0
  1  2  2  0
  2  3  1  0
  2 23  1  0
  3  4  2  0
  4  5  1  0
  4 20  1  0
  5  6  2  0
  5  7  1  0
  7  8  1  0
  8  9  2  0
  8 19  1  0
  9 10  1  0
 10 11  1  0
 11 12  1  0
 11 19  2  0
 12 13  1  0
 13 14  2  3
 13 16  1  0
 14 15  1  0
 16 17  2  0
 16 18  1  0
 20 21  2  0
 20 22  1  0
 22 23  1  0
M  END
