
     RDKit          3D

 23 25  0  0  0  0  0  0  0  0999 V2000
    1.8690    1.9640   -0.5420 C   0  0  0  0  0  0  0  0  0  0  0  0
    1.7970    0.5380   -0.0810 C   0  0  0  0  0  0  0  0  0  0  0  0
    2.8280   -0.3270    0.1700 C   0  0  0  0  0  0  0  0  0  0  0  0
    4.2470   -0.0860    0.0540 C   0  0  0  0  0  0  0  0  0  0  0  0
    4.9160    0.9300    0.6990 C   0  0  0  0  0  0  0  0  0  0  0  0
    6.2380    1.1510    0.5960 N   0  0  0  0  0  0  0  0  0  0  0  0
    6.9290    0.3150   -0.1920 C   0  0  0  0  0  0  0  0  0  0  0  0
    8.1930    0.4440   -0.3540 O   0  0  0  0  0  0  0  0  0  0  0  0
    6.3080   -0.6960   -0.8430 N   0  0  0  0  0  0  0  0  0  0  0  0
    4.9940   -0.9450   -0.7630 C   0  0  0  0  0  0  0  0  0  0  0  0
    4.4310   -1.8930   -1.3780 O   0  0  0  0  0  0  0  0  0  0  0  0
    2.2660   -1.5040    0.5600 N   0  0  0  0  0  0  0  0  0  0  0  0
    0.9670   -1.4110    0.5630 N   0  0  0  0  0  0  0  0  0  0  0  0
    0.6410   -0.1630    0.1720 C   0  0  0  0  0  0  0  0  0  0  0  0
   -0.7380    0.2960    0.0580 C   0  0  0  0  0  0  0  0  0  0  0  0
   -1.0140    1.4500   -0.3150 O   0  0  0  0  0  0  0  0  0  0  0  0
   -1.8420   -0.5530    0.3670 N   0  0  0  0  0  0  0  0  0  0  0  0
   -3.2040   -0.0750    0.2480 C   0  0  1  0  0  0  0  0  0  0  0  0
   -4.0330   -0.9110   -0.7010 C   0  0  0  0  0  0  0  0  0  0  0  0
   -5.3410   -0.2310   -0.9210 C   0  0  0  0  0  0  0  0  0  0  0  0
   -5.9770    0.1420    0.2950 N   0  0  0  0  0  0  0  0  0  0  0  0
   -5.3640   -0.3080    1.5030 C   0  0  0  0  0  0  0  0  0  0  0  0
   -3.8910   -0.0960    1.6000 C   0  0  0  0  0  0  0  0  0  0  0  0
  1  2  1  0
  2  3  1  0
  2 14  2  0
  3  4  1  0
  3 12  2  0
  4  5  2  0
  4 10  1  0
  5  6  1  0
  6  7  1  0
  7  8  2  0
  7  9  1  0
  9 10  1  0
 10 11  2  0
 12 13  1  0
 13 14  1  0
 14 15  1  0
 15 16  2  0
 15 17  1  0
 18 17  1  1
 18 19  1  0
 18 23  1  0
 19 20  1  0
 20 21  1  0
 21 22  1  0
 22 23  1  0
M  END
