
     RDKit          3D

 21 23  0  0  0  0  0  0  0  0999 V2000
   -7.9640    0.8980   -0.0990 O   0  0  0  0  0  0  0  0  0  0  0  0
   -6.7410    0.6800   -0.1890 C   0  0  0  0  0  0  0  0  0  0  0  0
   -6.0600   -0.5160    0.0200 N   0  0  0  0  0  0  0  0  0  0  0  0
   -4.6660   -0.4230    0.0680 C   0  0  0  0  0  0  0  0  0  0  0  0
   -3.9250   -1.4530    0.2540 O   0  0  0  0  0  0  0  0  0  0  0  0
   -4.0970    0.8750   -0.1000 C   0  0  0  0  0  0  0  0  0  0  0  0
   -2.8870    1.3560    0.0530 C   0  0  0  0  0  0  0  0  0  0  0  0
   -1.7380    0.5370    0.4870 C   0  0  0  0  0  0  0  0  0  0  0  0
   -0.6450    0.5040   -0.5360 C   0  0  0  0  0  0  0  0  0  0  0  0
   -0.8790    1.1740   -1.5950 O   0  0  0  0  0  0  0  0  0  0  0  0
    0.5500   -0.2130   -0.3440 N   0  0  0  0  0  0  0  0  0  0  0  0
    0.7730   -0.9550    0.8620 C   0  0  0  0  0  0  0  0  0  0  0  0
    1.8860   -0.2320    1.6240 C   0  0  0  0  0  0  0  0  0  0  0  0
    3.0680   -0.2280    0.7480 C   0  0  0  0  0  0  0  0  0  0  0  0
    4.2800   -0.2280    1.2530 C   0  0  0  0  0  0  0  0  0  0  0  0
    5.4050   -0.2240    0.4620 O   0  0  0  0  0  0  0  0  0  0  0  0
    5.3640   -0.2190   -0.9100 C   0  0  0  0  0  0  0  0  0  0  0  0
    3.9990   -0.2190   -1.4580 C   0  0  0  0  0  0  0  0  0  0  0  0
    2.9370   -0.2230   -0.6870 C   0  0  0  0  0  0  0  0  0  0  0  0
    1.5780   -0.2230   -1.3480 C   0  0  0  0  0  0  0  0  0  0  0  0
   -5.5090    1.8970   -0.6280 S   0  0  0  0  0  0  0  0  0  0  0  0
  1  2  2  0
  2  3  1  0
  2 21  1  0
  3  4  1  0
  4  5  2  0
  4  6  1  0
  6  7  2  3
  6 21  1  0
  7  8  1  0
  8  9  1  0
  9 10  2  0
  9 11  1  0
 11 12  1  0
 11 20  1  0
 12 13  1  0
 13 14  1  0
 14 15  2  0
 14 19  1  0
 15 16  1  0
 16 17  1  0
 17 18  1  0
 18 19  2  0
 19 20  1  0
M  END
