
     RDKit          3D

 21 23  0  0  0  0  0  0  0  0999 V2000
    6.1090   -0.6980   -0.5590 C   0  0  0  0  0  0  0  0  0  0  0  0
    5.1760   -0.1440   -1.4430 O   0  0  0  0  0  0  0  0  0  0  0  0
    3.8520   -0.5140   -1.5350 C   0  0  0  0  0  0  0  0  0  0  0  0
    3.3980   -1.4100   -0.7900 O   0  0  0  0  0  0  0  0  0  0  0  0
    2.9740    0.1420   -2.5040 C   0  0  0  0  0  0  0  0  0  0  0  0
    2.1070    1.5780   -1.8150 S   0  0  0  0  0  0  0  0  0  0  0  0
    0.9360    1.1090   -0.5560 C   0  0  0  0  0  0  0  0  0  0  0  0
   -0.3360    0.8340   -0.9580 N   0  0  0  0  0  0  0  0  0  0  0  0
   -1.3040    0.4700   -0.0970 C   0  0  0  0  0  0  0  0  0  0  0  0
   -2.5920    0.1870   -0.4670 C   0  0  0  0  0  0  0  0  0  0  0  0
   -2.9670    0.2780   -1.9010 C   0  0  0  0  0  0  0  0  0  0  0  0
   -3.5820   -0.1840    0.4170 C   0  0  0  0  0  0  0  0  0  0  0  0
   -4.9210   -0.5150    0.3080 C   0  0  0  0  0  0  0  0  0  0  0  0
   -5.3350   -0.7920    1.5940 C   0  0  0  0  0  0  0  0  0  0  0  0
   -4.3200   -0.6370    2.4000 O   0  0  0  0  0  0  0  0  0  0  0  0
   -3.2360   -0.2740    1.7630 C   0  0  0  0  0  0  0  0  0  0  0  0
   -1.9360    0.0100    2.1480 C   0  0  0  0  0  0  0  0  0  0  0  0
   -0.9620    0.3810    1.2420 C   0  0  0  0  0  0  0  0  0  0  0  0
    0.3410    0.6660    1.6270 C   0  0  0  0  0  0  0  0  0  0  0  0
    0.6790    0.5940    2.8360 O   0  0  0  0  0  0  0  0  0  0  0  0
    1.2800    1.0270    0.7370 N   0  0  0  0  0  0  0  0  0  0  0  0
  1  2  1  0
  2  3  1  0
  3  4  2  0
  3  5  1  0
  5  6  1  0
  6  7  1  0
  7  8  2  0
  7 21  1  0
  8  9  1  0
  9 10  2  0
  9 18  1  0
 10 11  1  0
 10 12  1  0
 12 13  1  0
 12 16  2  0
 13 14  2  0
 14 15  1  0
 15 16  1  0
 16 17  1  0
 17 18  2  0
 18 19  1  0
 19 20  2  0
 19 21  1  0
M  END
