
     RDKit          3D

 21 22  0  0  0  0  0  0  0  0999 V2000
   -2.7760    2.2260    1.5120 C   0  0  0  0  0  0  0  0  0  0  0  0
   -1.5980    2.5020    1.0560 C   0  0  0  0  0  0  0  0  0  0  0  0
   -1.1960    3.8540    1.1460 O   0  0  0  0  0  0  0  0  0  0  0  0
   -0.6830    1.5160    0.4640 C   0  0  0  0  0  0  0  0  0  0  0  0
    0.5060    1.9670    0.0670 C   0  0  0  0  0  0  0  0  0  0  0  0
    1.6580    1.3050   -0.5540 C   0  0  0  0  0  0  0  0  0  0  0  0
    1.8590    0.4410   -1.4880 C   0  0  0  0  0  0  0  0  0  0  0  0
    3.0180   -0.2290   -2.1000 C   0  0  0  0  0  0  0  0  0  0  0  0
    3.2640   -0.1240   -3.3560 O   0  0  0  0  0  0  0  0  0  0  0  0
    4.0150   -1.0950   -1.3570 C   0  0  0  0  0  0  0  0  0  0  0  0
    4.0690   -0.7290   -0.0180 O   0  0  0  0  0  0  0  0  0  0  0  0
    3.1580   -0.7470    0.9740 C   0  0  0  0  0  0  0  0  0  0  0  0
    3.2450    0.0480    1.9420 O   0  0  0  0  0  0  0  0  0  0  0  0
    2.0080   -1.7160    0.9620 C   0  0  0  0  0  0  0  0  0  0  0  0
    0.7470   -1.2480    0.8320 N   0  0  0  0  0  0  0  0  0  0  0  0
   -0.4620   -1.0410    0.8060 C   0  0  0  0  0  0  0  0  0  0  0  0
   -1.6030   -2.4200    1.4260 S   0  0  0  0  0  0  0  0  0  0  0  0
   -2.8410   -2.4410    0.0760 C   0  0  0  0  0  0  0  0  0  0  0  0
   -3.3220   -0.9930   -0.1020 C   0  0  0  0  0  0  0  0  0  0  0  0
   -2.2880   -0.0410   -0.5420 C   0  0  0  0  0  0  0  0  0  0  0  0
   -1.1340    0.1450    0.2870 N   0  0  0  0  0  0  0  0  0  0  0  0
  1  2  2  0
  2  3  1  0
  2  4  1  0
  4  5  2  0
  4 21  1  0
  5  6  1  0
  6  7  2  0
  7  8  1  0
  8  9  2  0
  8 10  1  0
 10 11  1  0
 11 12  1  0
 12 13  2  0
 12 14  1  0
 14 15  1  0
 15 16  2  0
 16 17  1  0
 16 21  1  0
 17 18  1  0
 18 19  1  0
 19 20  1  0
 20 21  1  0
M  END
