
     RDKit          3D

 21 23  0  0  0  0  0  0  0  0999 V2000
    6.7690    0.2680    0.1590 C   0  0  0  0  0  0  0  0  0  0  0  0
    5.3650    0.1720    0.1360 O   0  0  0  0  0  0  0  0  0  0  0  0
    4.7310   -0.7560    0.9420 C   0  0  0  0  0  0  0  0  0  0  0  0
    5.4090   -1.5250    1.7050 O   0  0  0  0  0  0  0  0  0  0  0  0
    3.2540   -0.8410    0.9030 C   0  0  0  0  0  0  0  0  0  0  0  0
    2.6180    0.3630   -0.2590 S   0  0  0  0  0  0  0  0  0  0  0  0
    0.8530    0.3420   -0.3800 C   0  0  0  0  0  0  0  0  0  0  0  0
    0.0620    1.0950    0.4050 N   0  0  0  0  0  0  0  0  0  0  0  0
   -1.2820    1.0880    0.3240 C   0  0  0  0  0  0  0  0  0  0  0  0
   -1.8800    0.2770   -0.6040 C   0  0  0  0  0  0  0  0  0  0  0  0
   -1.0800   -0.5160   -1.4340 C   0  0  0  0  0  0  0  0  0  0  0  0
    0.2940   -0.5040   -1.3440 C   0  0  0  0  0  0  0  0  0  0  0  0
    0.8710   -1.4200   -2.3230 C   0  0  0  0  0  0  0  0  0  0  0  0
    2.1000   -1.6340   -2.4900 O   0  0  0  0  0  0  0  0  0  0  0  0
   -0.2190   -1.9650   -2.9840 O   0  0  0  0  0  0  0  0  0  0  0  0
   -1.4260   -1.4660   -2.5010 C   0  0  0  0  0  0  0  0  0  0  0  0
   -3.3220    0.1790   -0.7910 C   0  0  0  0  0  0  0  0  0  0  0  0
   -4.1050    1.1910   -0.0130 C   0  0  0  0  0  0  0  0  0  0  0  0
   -3.4750    1.4630    1.3470 C   0  0  1  0  0  0  0  0  0  0  0  0
   -3.5700    0.1960    2.1460 C   0  0  0  0  0  0  0  0  0  0  0  0
   -2.1030    1.8880    1.1590 N   0  0  0  0  0  0  0  0  0  0  0  0
  1  2  1  0
  2  3  1  0
  3  4  2  0
  3  5  1  0
  5  6  1  0
  6  7  1  0
  7  8  2  0
  7 12  1  0
  8  9  1  0
  9 10  2  0
  9 21  1  0
 10 11  1  0
 10 17  1  0
 11 12  2  0
 11 16  1  0
 12 13  1  0
 13 14  2  0
 13 15  1  0
 15 16  1  0
 17 18  1  0
 18 19  1  0
 19 20  1  1
 19 21  1  0
M  END
