
     RDKit          3D

 21 22  0  0  0  0  0  0  0  0999 V2000
   -4.3180   -0.7500    0.6210 C   0  0  0  0  0  0  0  0  0  0  0  0
   -3.2320   -0.0200    0.4960 C   0  0  0  0  0  0  0  0  0  0  0  0
   -3.4280    1.3820    0.5750 O   0  0  0  0  0  0  0  0  0  0  0  0
   -2.3970    2.2680    0.4630 C   0  0  0  0  0  0  0  0  0  0  0  0
   -1.0710    1.7080    0.2560 C   0  0  0  0  0  0  0  0  0  0  0  0
   -0.0140    2.6740    0.1430 N   0  0  0  0  0  0  0  0  0  0  0  0
    0.2440    3.3300   -1.1030 C   0  0  0  0  0  0  0  0  0  0  0  0
   -0.7630    0.3890    0.1650 C   0  0  0  0  0  0  0  0  0  0  0  0
    0.5990    0.0410   -0.0400 C   0  0  0  0  0  0  0  0  0  0  0  0
    1.4180    1.1120   -0.1140 O   0  0  0  0  0  0  0  0  0  0  0  0
    1.3240   -1.1940   -0.1880 C   0  0  0  0  0  0  0  0  0  0  0  0
    2.7990   -0.8930   -0.3770 N   0  0  0  0  0  0  0  0  0  0  0  0
    3.6770   -0.7920    0.6740 C   0  0  0  0  0  0  0  0  0  0  0  0
    3.3330   -0.6540    1.9020 O   0  0  0  0  0  0  0  0  0  0  0  0
    5.1180   -0.8500    0.3420 C   0  0  0  0  0  0  0  0  0  0  0  0
    5.0700   -0.4070   -1.4420 S   0  0  0  0  0  0  0  0  0  0  0  0
    3.3190   -0.7000   -1.6450 C   0  0  0  0  0  0  0  0  0  0  0  0
    2.7280   -0.7180   -2.7330 O   0  0  0  0  0  0  0  0  0  0  0  0
   -1.8940   -0.5750    0.2880 C   0  0  0  0  0  0  0  0  0  0  0  0
   -1.6600   -1.8460    0.2120 C   0  0  0  0  0  0  0  0  0  0  0  0
   -2.5560   -2.9960    0.3010 C   0  0  0  0  0  0  0  0  0  0  0  0
  1  2  2  0
  2  3  1  0
  2 19  1  0
  3  4  1  0
  4  5  1  0
  5  6  1  0
  5  8  2  0
  6  7  1  0
  8  9  1  0
  8 19  1  0
  9 10  2  0
  9 11  1  0
 11 12  1  0
 12 13  1  0
 12 17  1  0
 13 14  2  0
 13 15  1  0
 15 16  1  0
 16 17  1  0
 17 18  2  0
 19 20  2  3
 20 21  1  0
M  END
