
     RDKit          3D

 21 22  0  0  0  0  0  0  0  0999 V2000
    3.9100    1.4040   -1.8990 C   0  0  0  0  0  0  0  0  0  0  0  0
    3.8150    0.2970   -1.0380 O   0  0  0  0  0  0  0  0  0  0  0  0
    4.6410   -0.8310   -1.2520 C   0  0  0  0  0  0  0  0  0  0  0  0
    5.4680   -0.8770   -2.1890 O   0  0  0  0  0  0  0  0  0  0  0  0
    4.4670   -1.9400   -0.3120 C   0  0  0  0  0  0  0  0  0  0  0  0
    3.6070   -1.9200    0.6800 C   0  0  0  0  0  0  0  0  0  0  0  0
    3.4210   -3.0580    1.6680 C   0  0  0  0  0  0  0  0  0  0  0  0
    1.6350   -3.1250    1.0870 S   0  0  0  0  0  0  0  0  0  0  0  0
    1.4960   -1.3150    1.0650 C   0  0  0  0  0  0  0  0  0  0  0  0
    0.5530   -0.3120    1.2390 N   0  0  0  0  0  0  0  0  0  0  0  0
   -0.8030   -0.6020    1.2290 C   0  0  0  0  0  0  0  0  0  0  0  0
   -1.0480   -1.8000    1.0200 O   0  0  0  0  0  0  0  0  0  0  0  0
   -1.7770    0.4480    1.4480 C   0  0  0  0  0  0  0  0  0  0  0  0
   -1.4480    1.6320    1.6140 O   0  0  0  0  0  0  0  0  0  0  0  0
   -3.1930    0.0520    1.4610 C   0  0  0  0  0  0  0  0  0  0  0  0
   -3.8990    0.9210    0.4860 C   0  0  0  0  0  0  0  0  0  0  0  0
   -4.8700    1.7710    0.6910 C   0  0  0  0  0  0  0  0  0  0  0  0
   -5.2270    2.3860   -0.6030 C   0  0  0  0  0  0  0  0  0  0  0  0
   -4.3080    1.7400   -1.5650 C   0  0  0  0  0  0  0  0  0  0  0  0
   -3.5220    0.8820   -0.9460 C   0  0  0  0  0  0  0  0  0  0  0  0
    2.6570   -0.9380    0.8490 N   0  0  0  0  0  0  0  0  0  0  0  0
  1  2  1  0
  2  3  1  0
  3  4  2  0
  3  5  1  0
  5  6  2  3
  6  7  1  0
  6 21  1  0
  7  8  1  0
  8  9  1  0
  9 10  1  0
  9 21  2  0
 10 11  1  0
 11 12  2  0
 11 13  1  0
 13 14  2  0
 13 15  1  0
 15 16  1  0
 16 17  2  0
 16 20  1  0
 17 18  1  0
 18 19  1  0
 19 20  2  0
M  END
