
     RDKit          3D

 19 21  0  0  0  0  0  0  0  0999 V2000
   -2.4480   -0.4480   -2.1900 C   0  0  0  0  0  0  0  0  0  0  0  0
   -2.8700   -0.0760   -0.9990 C   0  0  0  0  0  0  0  0  0  0  0  0
   -4.3280   -0.1840   -0.6360 C   0  0  0  0  0  0  0  0  0  0  0  0
   -4.5720    0.6160    0.5520 N   0  0  0  0  0  0  0  0  0  0  0  0
   -3.6860    0.0840    1.5990 C   0  0  0  0  0  0  0  0  0  0  0  0
   -2.3190    0.5340    1.2640 C   0  0  0  0  0  0  0  0  0  0  0  0
   -1.9380    0.4500    0.0000 C   0  0  0  0  0  0  0  0  0  0  0  0
   -0.6380    0.8630   -0.4010 N   0  0  0  0  0  0  0  0  0  0  0  0
    0.5410    0.2040   -0.0010 C   0  0  0  0  0  0  0  0  0  0  0  0
    0.5320   -0.9140    0.8260 C   0  0  0  0  0  0  0  0  0  0  0  0
    1.6640   -1.5680    1.2260 C   0  0  0  0  0  0  0  0  0  0  0  0
    2.9050   -1.1100    0.7950 C   0  0  0  0  0  0  0  0  0  0  0  0
    4.1780   -1.4700    0.9680 N   0  0  0  0  0  0  0  0  0  0  0  0
    5.0180   -0.6570    0.3040 C   0  0  0  0  0  0  0  0  0  0  0  0
    6.2890   -0.7220    0.2580 O   0  0  0  0  0  0  0  0  0  0  0  0
    4.2410    0.2530   -0.3120 N   0  0  0  0  0  0  0  0  0  0  0  0
    4.7100    1.3440   -1.1530 C   0  0  0  0  0  0  0  0  0  0  0  0
    2.9440    0.0050   -0.0320 C   0  0  0  0  0  0  0  0  0  0  0  0
    1.7790    0.6400   -0.4160 C   0  0  0  0  0  0  0  0  0  0  0  0
  1  2  2  0
  2  3  1  0
  2  7  1  0
  3  4  1  0
  4  5  1  0
  5  6  1  0
  6  7  2  0
  7  8  1  0
  8  9  1  0
  9 10  2  0
  9 19  1  0
 10 11  1  0
 11 12  2  0
 12 13  1  0
 12 18  1  0
 13 14  1  0
 14 15  2  0
 14 16  1  0
 16 17  1  0
 16 18  1  0
 18 19  2  0
M  CHG  1   4   1
M  END
