
     RDKit          3D

 23 24  0  0  0  0  0  0  0  0999 V2000
   -6.1700    1.4880   -2.0290 C   0  0  0  0  0  0  0  0  0  0  0  0
   -5.2080    0.9410   -1.3120 C   0  0  0  0  0  0  0  0  0  0  0  0
   -3.7950    1.2120   -1.6270 C   0  0  0  0  0  0  0  0  0  0  0  0
   -2.8690    0.5070   -0.7090 C   0  0  0  0  0  0  0  0  0  0  0  0
   -3.2450   -0.2770    0.2810 C   0  0  0  0  0  0  0  0  0  0  0  0
   -2.2830   -0.9740    1.1890 C   0  0  0  0  0  0  0  0  0  0  0  0
   -0.9330   -0.6930    0.8600 O   0  0  0  0  0  0  0  0  0  0  0  0
   -0.5430    0.1120   -0.1550 C   0  0  0  0  0  0  0  0  0  0  0  0
    0.9380    0.3130   -0.3750 C   0  0  0  0  0  0  0  0  0  0  0  0
    1.7330   -0.3100    0.4230 C   0  0  0  0  0  0  0  0  0  0  0  0
    3.1210   -0.5170    0.7130 C   0  0  0  0  0  0  0  0  0  0  0  0
    4.1750    0.1350   -0.0630 C   0  0  0  0  0  0  0  0  0  0  0  0
    5.5810   -0.2750    0.4800 C   0  0  2  0  0  0  0  0  0  0  0  0
    5.7210    0.1320    1.9150 C   0  0  0  0  0  0  0  0  0  0  0  0
    6.5750    0.5050   -0.3510 C   0  0  0  0  0  0  0  0  0  0  0  0
    5.8080   -1.7430    0.3420 C   0  0  0  0  0  0  0  0  0  0  0  0
    1.2390    1.2060   -1.5020 C   0  0  0  0  0  0  0  0  0  0  0  0
    2.5220    1.4670   -1.8260 O   0  0  0  0  0  0  0  0  0  0  0  0
   -1.4100    0.6970   -0.9180 C   0  0  0  0  0  0  0  0  0  0  0  0
   -4.6640   -0.5290    0.5710 C   0  0  0  0  0  0  0  0  0  0  0  0
   -5.0990   -1.4120    1.6850 C   0  0  0  0  0  0  0  0  0  0  0  0
   -5.5680    0.0590   -0.1970 C   0  0  0  0  0  0  0  0  0  0  0  0
   -7.0230   -0.1550    0.0420 C   0  0  0  0  0  0  0  0  0  0  0  0
  1  2  2  0
  2  3  1  0
  2 22  1  0
  3  4  1  0
  4  5  2  0
  4 19  1  0
  5  6  1  0
  5 20  1  0
  6  7  1  0
  7  8  1  0
  8  9  1  0
  8 19  2  0
  9 10  2  3
  9 17  1  0
 10 11  1  0
 11 12  1  0
 12 13  1  0
 13 14  1  1
 13 15  1  0
 13 16  1  0
 17 18  1  0
 20 21  1  0
 20 22  2  0
 22 23  1  0
M  END
