
     RDKit          3D

 19 21  0  0  0  0  0  0  0  0999 V2000
   -3.8880    1.8210    0.3020 C   0  0  0  0  0  0  0  0  0  0  0  0
   -3.2100    0.5590   -0.1580 C   0  0  0  0  0  0  0  0  0  0  0  0
   -2.0650    0.1320    0.5020 C   0  0  0  0  0  0  0  0  0  0  0  0
   -1.4330   -1.0340    0.0820 C   0  0  0  0  0  0  0  0  0  0  0  0
   -0.2150   -1.5620    0.7210 C   0  0  2  0  0  0  0  0  0  0  0  0
   -0.2950   -1.5390    2.1730 N   0  0  0  0  0  0  0  0  0  0  0  0
    1.0170   -0.8670    0.2900 C   0  0  0  0  0  0  0  0  0  0  0  0
    1.8400   -1.4050   -0.6850 C   0  0  0  0  0  0  0  0  0  0  0  0
    2.9870   -0.8090   -1.1210 C   0  0  0  0  0  0  0  0  0  0  0  0
    3.3740    0.4050   -0.5730 C   0  0  0  0  0  0  0  0  0  0  0  0
    4.4400    1.2210   -0.7980 N   0  0  0  0  0  0  0  0  0  0  0  0
    4.3310    2.2800    0.0080 C   0  0  0  0  0  0  0  0  0  0  0  0
    5.1700    3.2210    0.0360 O   0  0  0  0  0  0  0  0  0  0  0  0
    3.2050    2.1310    0.7350 N   0  0  0  0  0  0  0  0  0  0  0  0
    2.5830    0.9760    0.4010 C   0  0  0  0  0  0  0  0  0  0  0  0
    1.4250    0.3450    0.8210 C   0  0  0  0  0  0  0  0  0  0  0  0
   -2.0190   -1.6840   -0.9880 C   0  0  0  0  0  0  0  0  0  0  0  0
   -3.1470   -1.2380   -1.6170 C   0  0  0  0  0  0  0  0  0  0  0  0
   -3.7270   -0.1240   -1.1950 N   0  0  0  0  0  0  0  0  0  0  0  0
  1  2  1  0
  2  3  2  0
  2 19  1  0
  3  4  1  0
  4  5  1  0
  4 17  2  0
  5  6  1  1
  5  7  1  0
  7  8  2  0
  7 16  1  0
  8  9  1  0
  9 10  2  0
 10 11  1  0
 10 15  1  0
 11 12  1  0
 12 13  2  0
 12 14  1  0
 14 15  1  0
 15 16  2  0
 17 18  1  0
 18 19  2  0
M  CHG  1  19   1
M  END
