
     RDKit          3D

 20 22  0  0  0  0  0  0  0  0999 V2000
    6.2180    0.4280   -0.3800 C   0  0  0  0  0  0  0  0  0  0  0  0
    5.0430   -0.0420    0.2460 O   0  0  0  0  0  0  0  0  0  0  0  0
    3.7710    0.2700   -0.1990 C   0  0  0  0  0  0  0  0  0  0  0  0
    3.6360    1.0000   -1.2000 O   0  0  0  0  0  0  0  0  0  0  0  0
    2.6270   -0.2790    0.5350 C   0  0  0  0  0  0  0  0  0  0  0  0
    2.7950   -1.0860    1.6410 C   0  0  0  0  0  0  0  0  0  0  0  0
    1.7680   -1.6050    2.3360 N   0  0  0  0  0  0  0  0  0  0  0  0
    0.4990   -1.3590    1.9800 C   0  0  0  0  0  0  0  0  0  0  0  0
    0.2730   -0.5570    0.8810 C   0  0  0  0  0  0  0  0  0  0  0  0
   -1.1130   -0.2760    0.4760 C   0  0  0  0  0  0  0  0  0  0  0  0
   -1.5280    0.4960   -0.5870 C   0  0  0  0  0  0  0  0  0  0  0  0
   -2.9110    0.4960   -0.6060 C   0  0  0  0  0  0  0  0  0  0  0  0
   -3.8980    1.0390   -1.3630 C   0  0  0  0  0  0  0  0  0  0  0  0
   -3.5610    1.7590   -2.3440 O   0  0  0  0  0  0  0  0  0  0  0  0
   -5.2110    0.8640   -1.1430 N   0  0  0  0  0  0  0  0  0  0  0  0
   -5.5800    0.1010   -0.1050 C   0  0  0  0  0  0  0  0  0  0  0  0
   -4.6140   -0.4860    0.7120 C   0  0  0  0  0  0  0  0  0  0  0  0
   -3.2670   -0.3010    0.4790 C   0  0  0  0  0  0  0  0  0  0  0  0
   -2.1810   -0.7110    1.0550 O   0  0  0  0  0  0  0  0  0  0  0  0
    1.3300   -0.0120    0.1510 C   0  0  0  0  0  0  0  0  0  0  0  0
  1  2  1  0
  2  3  1  0
  3  4  2  0
  3  5  1  0
  5  6  2  0
  5 20  1  0
  6  7  1  0
  7  8  2  0
  8  9  1  0
  9 10  1  0
  9 20  2  0
 10 11  2  0
 10 19  1  0
 11 12  1  0
 12 13  1  0
 12 18  2  0
 13 14  2  0
 13 15  1  0
 15 16  1  0
 16 17  2  0
 17 18  1  0
 18 19  1  0
M  END
