
     RDKit          3D

 19 21  0  0  0  0  0  0  0  0999 V2000
   -2.1160   -0.3360    3.7320 C   0  0  0  0  0  0  0  0  0  0  0  0
   -2.5450    0.3130    2.6390 N   0  0  0  0  0  0  0  0  0  0  0  0
   -2.8850    1.3190    2.0630 C   0  0  0  0  0  0  0  0  0  0  0  0
   -2.9170    2.6290    2.6950 N   0  0  0  0  0  0  0  0  0  0  0  0
   -3.2860    1.3340    0.6710 N   0  0  0  0  0  0  0  0  0  0  0  0
   -2.8640    0.2960   -0.2310 C   0  0  0  0  0  0  0  0  0  0  0  0
   -1.3910    0.1980   -0.3640 C   0  0  0  0  0  0  0  0  0  0  0  0
   -0.4960    0.9290    0.3790 C   0  0  0  0  0  0  0  0  0  0  0  0
    0.7930    0.5700   -0.0180 C   0  0  0  0  0  0  0  0  0  0  0  0
    2.0540    0.9590    0.3680 C   0  0  0  0  0  0  0  0  0  0  0  0
    3.1280    0.3850   -0.2460 C   0  0  0  0  0  0  0  0  0  0  0  0
    2.9250   -0.5790   -1.2450 C   0  0  0  0  0  0  0  0  0  0  0  0
    4.0070   -1.1650   -1.8790 C   0  0  0  0  0  0  0  0  0  0  0  0
    3.8520   -2.0810   -2.8420 N   0  0  0  0  0  0  0  0  0  0  0  0
    2.6350   -2.4880   -3.2520 C   0  0  0  0  0  0  0  0  0  0  0  0
    1.5300   -1.9310   -2.6450 C   0  0  0  0  0  0  0  0  0  0  0  0
    1.6660   -0.9720   -1.6340 C   0  0  0  0  0  0  0  0  0  0  0  0
    0.5870   -0.3920   -1.0140 C   0  0  0  0  0  0  0  0  0  0  0  0
   -0.6890   -0.5620   -1.1680 O   0  0  0  0  0  0  0  0  0  0  0  0
  1  2  1  0
  2  3  2  3
  3  4  1  0
  3  5  1  0
  5  6  1  0
  6  7  1  0
  7  8  2  0
  7 19  1  0
  8  9  1  0
  9 10  2  0
  9 18  1  0
 10 11  1  0
 11 12  2  0
 12 13  1  0
 12 17  1  0
 13 14  2  0
 14 15  1  0
 15 16  2  0
 16 17  1  0
 17 18  2  0
 18 19  1  0
M  CHG  1  14   1
M  END
