
     RDKit          3D

 19 20  0  0  0  0  0  0  0  0999 V2000
   -3.4050   -2.8100   -1.7210 N   0  0  0  0  0  0  0  0  0  0  0  0
   -2.5500   -2.1600   -1.0660 C   0  0  0  0  0  0  0  0  0  0  0  0
   -2.7020   -0.9360   -0.3330 C   0  0  0  0  0  0  0  0  0  0  0  0
   -3.9440   -0.4380   -0.3010 C   0  0  0  0  0  0  0  0  0  0  0  0
   -4.4120    0.7950    0.3720 C   0  0  0  0  0  0  0  0  0  0  0  0
   -3.8010    1.4380    1.3630 C   0  0  0  0  0  0  0  0  0  0  0  0
   -2.5250    1.1050    2.0380 C   0  0  0  0  0  0  0  0  0  0  0  0
   -1.5380    0.3350    1.5740 C   0  0  0  0  0  0  0  0  0  0  0  0
   -1.5070   -0.3590    0.2730 C   0  0  0  0  0  0  0  0  0  0  0  0
   -0.3710   -0.3790   -0.3750 C   0  0  0  0  0  0  0  0  0  0  0  0
   -0.0250   -0.8720   -1.6480 N   0  0  0  0  0  0  0  0  0  0  0  0
    1.3790   -0.6890   -1.8030 C   0  0  0  0  0  0  0  0  0  0  0  0
    1.9010   -0.1320   -0.7430 C   0  0  0  0  0  0  0  0  0  0  0  0
    3.3170    0.2240   -0.5080 C   0  0  0  0  0  0  0  0  0  0  0  0
    3.7060    0.7850    0.6150 C   0  0  0  0  0  0  0  0  0  0  0  0
    5.0790    1.1490    0.8860 C   0  0  0  0  0  0  0  0  0  0  0  0
    6.1480    0.9480   -0.0110 N   0  0  0  0  0  0  0  0  0  0  0  0
    5.3640    1.6920    2.0100 O   0  0  0  0  0  0  0  0  0  0  0  0
    0.8670    0.0940    0.1980 N   0  0  0  0  0  0  0  0  0  0  0  0
  1  2  2  0
  2  3  1  0
  3  4  2  0
  3  9  1  0
  4  5  1  0
  5  6  2  0
  6  7  1  0
  7  8  2  0
  8  9  1  0
  9 10  2  3
 10 11  1  0
 10 19  1  0
 11 12  1  0
 12 13  2  0
 13 14  1  0
 13 19  1  0
 14 15  2  3
 15 16  1  0
 16 17  1  0
 16 18  2  0
M  END
