
     RDKit          3D

 23 24  0  0  0  0  0  0  0  0999 V2000
   -2.4800   -3.8170    0.2890 C   0  0  0  0  0  0  0  0  0  0  0  0
   -2.1950   -2.5840    0.6210 C   0  0  0  0  0  0  0  0  0  0  0  0
   -3.1100   -1.5650   -0.0160 C   0  0  0  0  0  0  0  0  0  0  0  0
   -4.4220   -1.6830   -0.2720 C   0  0  0  0  0  0  0  0  0  0  0  0
   -5.1550   -0.5360   -0.6940 C   0  0  0  0  0  0  0  0  0  0  0  0
   -4.5830    0.6690   -0.8460 C   0  0  0  0  0  0  0  0  0  0  0  0
   -5.3640    1.8280   -1.3220 C   0  0  0  0  0  0  0  0  0  0  0  0
   -6.7350    1.4140   -1.4000 O   0  0  0  0  0  0  0  0  0  0  0  0
   -3.2480    0.8050   -0.5950 C   0  0  0  0  0  0  0  0  0  0  0  0
   -2.5800    2.1400   -0.6250 C   0  0  0  0  0  0  0  0  0  0  0  0
   -2.4820   -0.3310   -0.1900 C   0  0  0  0  0  0  0  0  0  0  0  0
   -1.1230   -0.1810   -0.0450 O   0  0  0  0  0  0  0  0  0  0  0  0
   -0.3320   -0.3720   -1.2320 C   0  0  0  0  0  0  0  0  0  0  0  0
    1.1630   -0.3090   -0.8480 C   0  0  0  0  0  0  0  0  0  0  0  0
    1.8140    0.8420   -1.2360 C   0  0  0  0  0  0  0  0  0  0  0  0
    3.1560    1.0440   -0.7160 C   0  0  0  0  0  0  0  0  0  0  0  0
    3.5640    0.0370    0.0940 C   0  0  0  0  0  0  0  0  0  0  0  0
    4.8330    0.4880    1.0440 C   0  0  0  0  0  0  0  0  0  0  0  0
    5.8580    0.8470    1.7820 C   0  0  0  0  0  0  0  0  0  0  0  0
    6.8530    1.2190    2.5060 C   0  0  0  0  0  0  0  0  0  0  0  0
    8.0090    0.1380    2.3670 C   0  0  0  0  0  0  0  0  0  0  0  0
    3.0210   -1.0310    0.4800 C   0  0  0  0  0  0  0  0  0  0  0  0
    1.6520   -1.2960   -0.0270 C   0  0  0  0  0  0  0  0  0  0  0  0
  1  2  2  0
  2  3  1  0
  3  4  2  0
  3 11  1  0
  4  5  1  0
  5  6  2  0
  6  7  1  0
  6  9  1  0
  7  8  1  0
  9 10  1  0
  9 11  2  0
 11 12  1  0
 12 13  1  0
 13 14  1  0
 14 15  2  0
 14 23  1  0
 15 16  1  0
 16 17  2  0
 17 18  1  0
 17 22  1  0
 18 19  3  0
 19 20  1  0
 20 21  1  0
 22 23  2  0
M  END
