
     RDKit          3D

 19 21  0  0  0  0  0  0  0  0999 V2000
   -6.1700    1.9260   -1.7570 O   0  0  0  0  0  0  0  0  0  0  0  0
   -5.3900    1.2570   -1.0220 C   0  0  0  0  0  0  0  0  0  0  0  0
   -4.0210    1.1400   -1.2550 C   0  0  0  0  0  0  0  0  0  0  0  0
   -3.5500    0.3390   -0.2400 C   0  0  0  0  0  0  0  0  0  0  0  0
   -2.1470   -0.0610   -0.0750 C   0  0  0  0  0  0  0  0  0  0  0  0
   -1.1670    0.3500   -0.9520 C   0  0  0  0  0  0  0  0  0  0  0  0
    0.1590   -0.0600   -0.7510 C   0  0  0  0  0  0  0  0  0  0  0  0
    0.5200   -0.8600    0.2970 C   0  0  0  0  0  0  0  0  0  0  0  0
    1.8520   -1.2500    0.5130 N   0  0  0  0  0  0  0  0  0  0  0  0
    3.0250   -0.6050    0.0980 C   0  0  0  0  0  0  0  0  0  0  0  0
    4.2150   -1.3320   -0.0740 C   0  0  0  0  0  0  0  0  0  0  0  0
    5.3770   -0.7050   -0.4510 C   0  0  0  0  0  0  0  0  0  0  0  0
    5.3910    0.6180   -0.6620 N   0  0  0  0  0  0  0  0  0  0  0  0
    4.2670    1.3280   -0.5030 C   0  0  0  0  0  0  0  0  0  0  0  0
    3.0760    0.7500   -0.1260 C   0  0  0  0  0  0  0  0  0  0  0  0
   -0.5070   -1.2570    1.1680 C   0  0  0  0  0  0  0  0  0  0  0  0
   -1.8150   -0.8740    0.9990 C   0  0  0  0  0  0  0  0  0  0  0  0
   -4.5770    0.0060    0.5400 N   0  0  0  0  0  0  0  0  0  0  0  0
   -5.7000    0.5500    0.0860 N   0  0  0  0  0  0  0  0  0  0  0  0
  1  2  2  0
  2  3  1  0
  2 19  1  0
  3  4  2  0
  4  5  1  0
  4 18  1  0
  5  6  2  0
  5 17  1  0
  6  7  1  0
  7  8  2  0
  8  9  1  0
  8 16  1  0
  9 10  1  0
 10 11  2  0
 10 15  1  0
 11 12  1  0
 12 13  2  0
 13 14  1  0
 14 15  2  0
 16 17  2  0
 18 19  1  0
M  CHG  1  13   1
M  END
