
     RDKit          3D

 42 43  0  0  0  0  0  0  0  0999 V2000
    4.8780   -2.7510    2.1550 O   0  0  0  0  0  0  0  0  0  0  0  0
    5.1510   -1.5620    2.0250 C   0  0  0  0  0  0  0  0  0  0  0  0
    6.3980   -1.2400    1.4530 O   0  0  0  0  0  0  0  0  0  0  0  0
    4.1830   -0.5540    2.4410 C   0  0  0  0  0  0  0  0  0  0  0  0
    2.8170   -1.0130    2.6330 N   0  0  0  0  0  0  0  0  0  0  0  0
    2.2960   -1.4240    1.3290 C   0  0  2  0  0  0  0  0  0  0  0  0
    1.0380   -0.9630    1.1230 O   0  0  0  0  0  0  0  0  0  0  0  0
    0.9340    0.4370    1.2250 C   0  0  2  0  0  0  0  0  0  0  0  0
    0.5170    0.6260    2.6820 C   0  0  0  0  0  0  0  0  0  0  0  0
    0.3640    1.7860    3.1620 O   0  0  0  0  0  0  0  0  0  0  0  0
    0.2910   -0.4480    3.5370 O   0  0  0  0  0  0  0  0  0  0  0  0
   -0.0750    0.9450    0.2660 C   0  0  2  0  0  0  0  0  0  0  0  0
    0.5750    1.5000   -1.0050 C   0  0  0  0  0  0  0  0  0  0  0  0
    1.4620    2.3860   -0.8290 O   0  0  0  0  0  0  0  0  0  0  0  0
    2.0370    3.4270   -0.4830 C   0  0  0  0  0  0  0  0  0  0  0  0
    3.4280    3.3750   -0.8390 F   0  0  0  0  0  0  0  0  0  0  0  0
   -0.8390    2.1150    0.8760 C   0  0  0  0  0  0  0  0  0  0  0  0
   -1.8260    2.5300    0.0250 O   0  0  0  0  0  0  0  0  0  0  0  0
   -2.5430    3.6380    0.3090 C   0  0  0  0  0  0  0  0  0  0  0  0
   -2.0590    4.8560   -0.4890 C   0  0  0  0  0  0  0  0  0  0  0  0
   -0.7500    5.1200   -0.2000 O   0  0  0  0  0  0  0  0  0  0  0  0
   -0.2940    6.1240   -0.9600 O   0  0  0  0  0  0  0  0  0  0  0  0
   -1.0720   -0.0670   -0.0200 C   0  0  0  0  0  0  0  0  0  0  0  0
   -1.4350   -0.6620    1.1120 O   0  0  0  0  0  0  0  0  0  0  0  0
   -1.7690   -0.6330   -1.1000 N   0  0  0  0  0  0  0  0  0  0  0  0
   -3.1570   -0.8680   -0.8370 C   0  0  0  0  0  0  0  0  0  0  0  0
   -4.2950   -0.7090   -1.7770 C   0  0  0  0  0  0  0  0  0  0  0  0
   -5.3220   -0.9250   -0.8430 O   0  0  0  0  0  0  0  0  0  0  0  0
   -6.3930   -2.1880   -0.9250 P   0  0  0  0  0  0  0  0  0  0  0  0
   -5.5930   -3.6920   -1.4700 O   0  0  0  0  0  0  0  0  0  0  0  0
   -6.7700   -2.5710    0.8240 O   0  0  0  0  0  0  0  0  0  0  0  0
   -1.3050   -0.9470   -2.4460 C   0  0  0  0  0  0  0  0  0  0  0  0
   -1.4530   -0.1240   -3.3270 O   0  0  0  0  0  0  0  0  0  0  0  0
   -0.7050   -2.2420   -2.7160 N   0  0  0  0  0  0  0  0  0  0  0  0
    0.4100   -2.6520   -2.3340 C   0  0  0  0  0  0  0  0  0  0  0  0
    1.5050   -2.0950   -1.5710 C   0  0  0  0  0  0  0  0  0  0  0  0
    2.3190   -3.1720   -1.3850 C   0  0  0  0  0  0  0  0  0  0  0  0
    2.2440   -3.8930   -2.6550 C   0  0  0  0  0  0  0  0  0  0  0  0
    0.7720   -4.0540   -2.6020 O   0  0  0  0  0  0  0  0  0  0  0  0
    2.8650   -3.5110   -0.1130 N   0  0  0  0  0  0  0  0  0  0  0  0
    2.4380   -2.8770    1.1140 C   0  0  0  0  0  0  0  0  0  0  0  0
    2.1390   -3.6170    2.1300 O   0  0  0  0  0  0  0  0  0  0  0  0
  1  2  2  0
  2  3  1  0
  2  4  1  0
  4  5  1  0
  6  5  1  1
  6  7  1  0
  6 41  1  0
  7  8  1  0
  8  9  1  1
  8 12  1  0
  9 10  2  0
  9 11  1  0
 12 13  1  6
 12 17  1  0
 12 23  1  0
 13 14  1  0
 14 15  1  0
 15 16  1  0
 17 18  1  0
 18 19  1  0
 19 20  1  0
 20 21  1  0
 21 22  1  0
 23 24  2  0
 23 25  1  0
 25 26  1  0
 25 32  1  0
 26 27  1  0
 27 28  1  0
 28 29  1  0
 29 30  1  0
 29 31  1  0
 32 33  2  0
 32 34  1  0
 34 35  2  0
 35 36  1  0
 35 39  1  0
 36 37  2  0
 37 38  1  0
 37 40  1  0
 38 39  1  0
 40 41  1  0
 41 42  2  0
M  END
