
     RDKit          3D

 42 43  0  0  0  0  0  0  0  0999 V2000
   -7.2330    2.7860    0.4050 O   0  0  0  0  0  0  0  0  0  0  0  0
   -7.0660    3.6270   -0.4930 C   0  0  0  0  0  0  0  0  0  0  0  0
   -8.1790    4.2850   -1.0030 O   0  0  0  0  0  0  0  0  0  0  0  0
   -5.7640    3.8920   -0.9720 N   0  0  0  0  0  0  0  0  0  0  0  0
   -4.6650    3.1830   -0.4070 C   0  0  0  0  0  0  0  0  0  0  0  0
   -4.8940    2.3450    0.4970 O   0  0  0  0  0  0  0  0  0  0  0  0
   -3.3620    3.3770   -0.8120 O   0  0  0  0  0  0  0  0  0  0  0  0
   -2.2230    2.7200   -0.3160 C   0  0  0  0  0  0  0  0  0  0  0  0
   -2.3380    1.2520   -0.5920 C   0  0  2  0  0  0  0  0  0  0  0  0
   -1.2370    0.5280   -0.1340 O   0  0  0  0  0  0  0  0  0  0  0  0
   -1.1950    0.3330    1.2180 C   0  0  2  0  0  0  0  0  0  0  0  0
    0.0650    1.0000    1.7600 C   0  0  2  0  0  0  0  0  0  0  0  0
    1.2980    0.6380    1.0060 C   0  0  0  0  0  0  0  0  0  0  0  0
    2.4880    1.2690    1.6910 C   0  0  2  0  0  0  0  0  0  0  0  0
    3.4680    0.3180    2.0560 O   0  0  0  0  0  0  0  0  0  0  0  0
    4.7550    0.3300    1.5300 C   0  0  0  0  0  0  0  0  0  0  0  0
    5.0370    1.2140    0.7130 O   0  0  0  0  0  0  0  0  0  0  0  0
    5.7420   -0.6160    1.8880 N   0  0  0  0  0  0  0  0  0  0  0  0
    7.0920   -0.6520    1.3720 C   0  0  0  0  0  0  0  0  0  0  0  0
    7.0080   -0.8450   -0.1250 C   0  0  0  0  0  0  0  0  0  0  0  0
    8.2800   -0.8940   -0.7040 O   0  0  0  0  0  0  0  0  0  0  0  0
    8.1430   -1.1110   -2.4010 P   0  0  0  0  0  0  0  0  0  0  0  0
    9.0880   -2.4640   -2.9430 O   0  0  0  0  0  0  0  0  0  0  0  0
    8.5630    0.3320   -3.2690 O   0  0  0  0  0  0  0  0  0  0  0  0
    2.0090    2.0870    2.8450 C   0  0  0  0  0  0  0  0  0  0  0  0
    1.1160    1.4690    3.6810 O   0  0  0  0  0  0  0  0  0  0  0  0
    0.1490    0.8240    3.1200 O   0  0  0  0  0  0  0  0  0  0  0  0
   -1.2950   -1.0990    1.6720 C   0  0  0  0  0  0  0  0  0  0  0  0
   -0.8680   -2.1090    0.6610 C   0  0  0  0  0  0  0  0  0  0  0  0
   -1.7700   -3.2700    0.5180 C   0  0  0  0  0  0  0  0  0  0  0  0
   -1.5360   -4.2980    1.2350 O   0  0  0  0  0  0  0  0  0  0  0  0
   -2.8870   -3.3620   -0.3480 N   0  0  0  0  0  0  0  0  0  0  0  0
   -3.1850   -4.5600   -1.0560 C   0  0  0  0  0  0  0  0  0  0  0  0
   -2.4480   -5.5680   -0.9210 O   0  0  0  0  0  0  0  0  0  0  0  0
   -4.2640   -4.7050   -1.9120 O   0  0  0  0  0  0  0  0  0  0  0  0
   -3.8180   -2.2530   -0.5800 C   0  0  0  0  0  0  0  0  0  0  0  0
   -3.7760   -1.7230   -1.9740 C   0  0  0  0  0  0  0  0  0  0  0  0
   -2.4590   -1.4580   -2.4500 N   0  0  0  0  0  0  0  0  0  0  0  0
   -1.8150   -0.2080   -2.5450 C   0  0  0  0  0  0  0  0  0  0  0  0
   -0.6370   -0.1470   -3.0440 O   0  0  0  0  0  0  0  0  0  0  0  0
   -2.3920    1.0840   -2.1080 C   0  0  1  0  0  0  0  0  0  0  0  0
   -3.7060    1.2540   -2.4970 F   0  0  0  0  0  0  0  0  0  0  0  0
  1  2  2  0
  2  3  1  0
  2  4  1  0
  4  5  1  0
  5  6  2  0
  5  7  1  0
  7  8  1  0
  9  8  1  6
  9 10  1  0
  9 41  1  0
 10 11  1  0
 11 12  1  0
 11 28  1  6
 12 13  1  6
 12 27  1  0
 13 14  1  0
 14 15  1  1
 14 25  1  0
 15 16  1  0
 16 17  2  0
 16 18  1  0
 18 19  1  0
 19 20  1  0
 20 21  1  0
 21 22  1  0
 22 23  1  0
 22 24  1  0
 25 26  1  0
 26 27  1  0
 28 29  1  0
 29 30  1  0
 30 31  2  0
 30 32  1  0
 32 33  1  0
 32 36  1  0
 33 34  2  0
 33 35  1  0
 36 37  1  0
 37 38  1  0
 38 39  1  0
 39 40  2  0
 39 41  1  0
 41 42  1  1
M  END
