
     RDKit          3D

 42 43  0  0  0  0  0  0  0  0999 V2000
    7.1350    1.0610   -0.1860 C   0  0  0  0  0  0  0  0  0  0  0  0
    6.6060    0.0400   -1.1560 C   0  0  0  0  0  0  0  0  0  0  0  0
    5.2880   -0.3770   -0.8460 O   0  0  0  0  0  0  0  0  0  0  0  0
    4.2520    0.5400   -0.8130 C   0  0  0  0  0  0  0  0  0  0  0  0
    4.5480    1.7350   -1.0680 O   0  0  0  0  0  0  0  0  0  0  0  0
    2.8520    0.1630   -0.4950 C   0  0  2  0  0  0  0  0  0  0  0  0
    1.9960    1.2270   -0.5130 O   0  0  0  0  0  0  0  0  0  0  0  0
    2.1770    2.1900    0.4430 C   0  0  0  0  0  0  0  0  0  0  0  0
    1.6620    3.4680   -0.1440 C   0  0  0  0  0  0  0  0  0  0  0  0
    2.5360    4.0790   -0.8550 O   0  0  0  0  0  0  0  0  0  0  0  0
    0.3790    3.9860    0.0320 N   0  0  0  0  0  0  0  0  0  0  0  0
   -0.5980    3.6370    0.9910 C   0  0  0  0  0  0  0  0  0  0  0  0
   -1.3050    4.6090    1.4610 O   0  0  0  0  0  0  0  0  0  0  0  0
   -0.9020    2.3770    1.5000 N   0  0  0  0  0  0  0  0  0  0  0  0
   -1.1330    1.1390    0.8150 C   0  0  0  0  0  0  0  0  0  0  0  0
   -1.4020    1.2610   -0.6390 C   0  0  2  0  0  0  0  0  0  0  0  0
   -2.6530    2.0420   -0.8340 C   0  0  0  0  0  0  0  0  0  0  0  0
   -3.4530    2.5690    0.1280 C   0  0  0  0  0  0  0  0  0  0  0  0
   -4.4590    3.1850   -0.4980 N   0  0  0  0  0  0  0  0  0  0  0  0
   -4.3450    3.0810   -1.8160 N   0  0  0  0  0  0  0  0  0  0  0  0
   -3.2370    2.3800   -2.0500 C   0  0  0  0  0  0  0  0  0  0  0  0
   -2.7630    2.0510   -3.2640 F   0  0  0  0  0  0  0  0  0  0  0  0
   -1.3550    0.0750   -1.3550 O   0  0  0  0  0  0  0  0  0  0  0  0
   -1.9660   -1.1240   -1.1560 C   0  0  0  0  0  0  0  0  0  0  0  0
   -2.8570   -1.5450   -1.9890 O   0  0  0  0  0  0  0  0  0  0  0  0
   -1.7060   -2.0310   -0.0430 C   0  0  0  0  0  0  0  0  0  0  0  0
   -2.9010   -2.6290    0.6650 C   0  0  2  0  0  0  0  0  0  0  0  0
   -2.4620   -3.5020    1.6910 O   0  0  0  0  0  0  0  0  0  0  0  0
   -2.8260   -3.3670    3.0130 C   0  0  0  0  0  0  0  0  0  0  0  0
   -3.5830   -2.4300    3.3410 O   0  0  0  0  0  0  0  0  0  0  0  0
   -2.3550   -4.2690    3.9810 O   0  0  0  0  0  0  0  0  0  0  0  0
   -3.6350   -3.2750   -0.3140 O   0  0  0  0  0  0  0  0  0  0  0  0
   -5.2490   -2.7200   -0.4560 P   0  0  0  0  0  0  0  0  0  0  0  0
   -5.7820   -2.6140   -2.0940 O   0  0  0  0  0  0  0  0  0  0  0  0
   -5.5650   -1.2820    0.4380 O   0  0  0  0  0  0  0  0  0  0  0  0
   -0.4950   -2.3750    0.3840 C   0  0  0  0  0  0  0  0  0  0  0  0
    0.7840   -1.8970   -0.1970 C   0  0  2  0  0  0  0  0  0  0  0  0
    1.3330   -3.0960   -0.9870 C   0  0  0  0  0  0  0  0  0  0  0  0
    1.4730   -4.1420   -0.0460 O   0  0  0  0  0  0  0  0  0  0  0  0
    1.7380   -1.6050    0.8040 O   0  0  0  0  0  0  0  0  0  0  0  0
    2.7490   -0.6870    0.7170 C   0  0  0  0  0  0  0  0  0  0  0  0
    3.6190   -0.5050    1.6100 O   0  0  0  0  0  0  0  0  0  0  0  0
  1  2  1  0
  2  3  1  0
  3  4  1  0
  4  5  2  0
  6  4  1  1
  6  7  1  0
  6 41  1  0
  7  8  1  0
  8  9  1  0
  9 10  2  0
  9 11  1  0
 11 12  1  0
 12 13  2  0
 12 14  1  0
 14 15  1  0
 15 16  1  0
 16 17  1  1
 16 23  1  0
 17 18  1  0
 17 21  2  0
 18 19  2  0
 19 20  1  0
 20 21  1  0
 21 22  1  0
 23 24  1  0
 24 25  2  0
 24 26  1  0
 26 27  1  0
 26 36  2  0
 27 28  1  1
 27 32  1  0
 28 29  1  0
 29 30  2  0
 29 31  1  0
 32 33  1  0
 33 34  1  0
 33 35  1  0
 36 37  1  0
 37 38  1  6
 37 40  1  0
 38 39  1  0
 40 41  1  0
 41 42  2  0
M  END
