
     RDKit          3D

 42 43  0  0  0  0  0  0  0  0999 V2000
   -4.4790    1.4940   -0.1540 O   0  0  0  0  0  0  0  0  0  0  0  0
   -3.3220    1.1150   -0.2390 C   0  0  0  0  0  0  0  0  0  0  0  0
   -2.2640    2.1570   -0.2420 C   0  0  0  0  0  0  0  0  0  0  0  0
   -2.5990    3.3420   -1.1210 C   0  0  0  0  0  0  0  0  0  0  0  0
   -1.4940    3.6260   -1.9990 N   0  0  0  0  0  0  0  0  0  0  0  0
   -0.1350    3.3290   -1.7730 C   0  0  0  0  0  0  0  0  0  0  0  0
    0.5530    2.8760   -2.7380 O   0  0  0  0  0  0  0  0  0  0  0  0
    0.5800    3.5010   -0.4830 C   0  0  2  0  0  0  0  0  0  0  0  0
    0.8330    4.9000   -0.4290 O   0  0  0  0  0  0  0  0  0  0  0  0
    1.9080    2.8490   -0.4800 C   0  0  0  0  0  0  0  0  0  0  0  0
    2.9100    3.5780   -1.0790 F   0  0  0  0  0  0  0  0  0  0  0  0
    2.2040    1.6610    0.0220 C   0  0  0  0  0  0  0  0  0  0  0  0
    1.1880    0.8190    0.6630 C   0  0  0  0  0  0  0  0  0  0  0  0
    0.7250   -0.2850   -0.1860 N   0  0  0  0  0  0  0  0  0  0  0  0
    1.1250   -0.3970   -1.5720 C   0  0  0  0  0  0  0  0  0  0  0  0
    1.9580   -1.5700   -1.9340 C   0  0  0  0  0  0  0  0  0  0  0  0
    3.2930   -1.1050   -2.3430 N   0  0  0  0  0  0  0  0  0  0  0  0
    4.4970   -1.8100   -2.1550 C   0  0  0  0  0  0  0  0  0  0  0  0
    5.1910   -1.9070   -3.2570 O   0  0  0  0  0  0  0  0  0  0  0  0
    4.9770   -2.3790   -0.9530 N   0  0  0  0  0  0  0  0  0  0  0  0
    5.0600   -1.8640    0.3380 C   0  0  0  0  0  0  0  0  0  0  0  0
    6.0740   -2.1300    1.0880 O   0  0  0  0  0  0  0  0  0  0  0  0
    4.0910   -0.9850    1.0440 C   0  0  1  0  0  0  0  0  0  0  0  0
    4.3240   -1.1340    2.5100 C   0  0  0  0  0  0  0  0  0  0  0  0
    4.6080   -0.1160    3.1840 O   0  0  0  0  0  0  0  0  0  0  0  0
    4.2470   -2.3310    3.1740 O   0  0  0  0  0  0  0  0  0  0  0  0
    4.2520    0.3530    0.7310 O   0  0  0  0  0  0  0  0  0  0  0  0
    3.6210    1.2210   -0.0810 C   0  0  0  0  0  0  0  0  0  0  0  0
    4.2910    1.7350   -1.0530 O   0  0  0  0  0  0  0  0  0  0  0  0
   -0.1450   -1.3040    0.3190 C   0  0  0  0  0  0  0  0  0  0  0  0
    0.1520   -2.4950   -0.1160 O   0  0  0  0  0  0  0  0  0  0  0  0
   -1.1950   -1.1600    1.1650 O   0  0  0  0  0  0  0  0  0  0  0  0
   -2.5620   -0.8740    0.9660 C   0  0  2  0  0  0  0  0  0  0  0  0
   -3.0050   -0.0950    2.1820 C   0  0  0  0  0  0  0  0  0  0  0  0
   -4.3410    0.2750    2.0940 O   0  0  0  0  0  0  0  0  0  0  0  0
   -3.3790   -2.1540    1.0630 C   0  0  0  0  0  0  0  0  0  0  0  0
   -2.7290   -3.2010    1.3180 O   0  0  0  0  0  0  0  0  0  0  0  0
   -4.7200   -2.2320    0.8990 O   0  0  0  0  0  0  0  0  0  0  0  0
   -5.6630   -3.7040    1.0110 P   0  0  0  0  0  0  0  0  0  0  0  0
   -6.7150   -3.5430    2.3850 O   0  0  0  0  0  0  0  0  0  0  0  0
   -6.6230   -3.9430   -0.4320 O   0  0  0  0  0  0  0  0  0  0  0  0
   -2.9200   -0.2970   -0.3410 C   0  0  0  0  0  0  0  0  0  0  0  0
  1  2  2  0
  2  3  1  0
  2 42  1  0
  3  4  1  0
  4  5  1  0
  5  6  1  0
  6  7  2  0
  6  8  1  0
  8  9  1  6
  8 10  1  0
 10 11  1  0
 10 12  2  0
 12 13  1  0
 12 28  1  0
 13 14  1  0
 14 15  1  0
 14 30  1  0
 15 16  1  0
 16 17  1  0
 17 18  1  0
 18 19  2  0
 18 20  1  0
 20 21  1  0
 21 22  2  0
 21 23  1  0
 23 24  1  1
 23 27  1  0
 24 25  2  0
 24 26  1  0
 27 28  1  0
 28 29  2  0
 30 31  2  0
 30 32  1  0
 32 33  1  0
 33 34  1  1
 33 36  1  0
 33 42  1  0
 34 35  1  0
 36 37  2  0
 36 38  1  0
 38 39  1  0
 39 40  1  0
 39 41  1  0
M  END
