
     RDKit          3D

 42 42  0  0  0  0  0  0  0  0999 V2000
   -4.6910   -3.1950   -3.5000 C   0  0  0  0  0  0  0  0  0  0  0  0
   -4.8070   -2.2450   -2.4330 O   0  0  0  0  0  0  0  0  0  0  0  0
   -3.6260   -1.7910   -1.7820 C   0  0  0  0  0  0  0  0  0  0  0  0
   -2.5510   -2.2600   -2.1950 O   0  0  0  0  0  0  0  0  0  0  0  0
   -3.8470   -0.8230   -0.7000 C   0  0  1  0  0  0  0  0  0  0  0  0
   -4.4270    0.4360   -1.4140 C   0  0  0  0  0  0  0  0  0  0  0  0
   -3.4690    1.0110   -2.2370 O   0  0  0  0  0  0  0  0  0  0  0  0
   -5.0470   -1.3380    0.0940 C   0  0  0  0  0  0  0  0  0  0  0  0
   -5.3790   -0.4530    1.2390 C   0  0  0  0  0  0  0  0  0  0  0  0
   -6.3780   -0.7490    1.9340 O   0  0  0  0  0  0  0  0  0  0  0  0
   -4.6560    0.6760    1.5860 O   0  0  0  0  0  0  0  0  0  0  0  0
   -2.7680   -0.4330    0.0470 N   0  0  0  0  0  0  0  0  0  0  0  0
   -2.0100   -1.1870    0.9180 C   0  0  1  0  0  0  0  0  0  0  0  0
   -1.1910   -2.3470    0.4350 C   0  0  0  0  0  0  0  0  0  0  0  0
   -0.1680   -1.8890   -0.3900 O   0  0  0  0  0  0  0  0  0  0  0  0
    1.1010   -2.3740   -0.5940 C   0  0  0  0  0  0  0  0  0  0  0  0
    1.3800   -2.8390   -1.7400 O   0  0  0  0  0  0  0  0  0  0  0  0
    2.1640   -2.4100    0.3950 N   0  0  0  0  0  0  0  0  0  0  0  0
    2.8850   -1.3140    0.9630 C   0  0  0  0  0  0  0  0  0  0  0  0
    2.8340   -0.9150    2.3230 N   0  0  0  0  0  0  0  0  0  0  0  0
    3.4740   -1.7250    3.2870 C   0  0  0  0  0  0  0  0  0  0  0  0
    4.1420   -2.6590    2.6440 O   0  0  0  0  0  0  0  0  0  0  0  0
    3.5030   -1.6830    4.6130 O   0  0  0  0  0  0  0  0  0  0  0  0
    3.3880   -0.3800    0.2960 N   0  0  0  0  0  0  0  0  0  0  0  0
    3.4160   -0.1640   -1.0360 C   0  0  0  0  0  0  0  0  0  0  0  0
    4.6410   -0.3660   -1.8580 C   0  0  0  0  0  0  0  0  0  0  0  0
    5.7410    0.4770   -1.2970 C   0  0  0  0  0  0  0  0  0  0  0  0
    5.5090    1.1840   -0.3030 O   0  0  0  0  0  0  0  0  0  0  0  0
    6.9920    0.4700   -1.8700 O   0  0  0  0  0  0  0  0  0  0  0  0
    2.3400    0.3220   -1.6730 C   0  0  0  0  0  0  0  0  0  0  0  0
    1.1660    0.6560   -1.0990 O   0  0  0  0  0  0  0  0  0  0  0  0
    0.3340    1.7150   -0.9190 C   0  0  0  0  0  0  0  0  0  0  0  0
   -0.0690    1.8040    0.5700 C   0  0  2  0  0  0  0  0  0  0  0  0
   -1.1160    2.6650    0.7370 F   0  0  0  0  0  0  0  0  0  0  0  0
    1.1180    2.4990    1.2560 C   0  0  0  0  0  0  0  0  0  0  0  0
    1.4150    3.8560    0.7310 C   0  0  0  0  0  0  0  0  0  0  0  0
    2.8520    4.5170    1.7570 P   0  0  0  0  0  0  0  0  0  0  0  0
    4.0980    3.3130    1.7000 O   0  0  0  0  0  0  0  0  0  0  0  0
    3.4660    5.9640    1.0270 O   0  0  0  0  0  0  0  0  0  0  0  0
   -0.1910    0.5370    1.0700 O   0  0  0  0  0  0  0  0  0  0  0  0
   -1.0730   -0.2520    1.6670 C   0  0  0  0  0  0  0  0  0  0  0  0
   -1.2160   -0.3030    2.9420 O   0  0  0  0  0  0  0  0  0  0  0  0
  1  2  1  0
  2  3  1  0
  3  4  2  0
  3  5  1  0
  5  6  1  6
  5  8  1  0
  5 12  1  0
  6  7  1  0
  8  9  1  0
  9 10  2  0
  9 11  1  0
 13 12  1  6
 13 14  1  0
 13 41  1  0
 14 15  1  0
 15 16  1  0
 16 17  2  0
 16 18  1  0
 18 19  1  0
 19 20  1  0
 19 24  2  0
 20 21  1  0
 21 22  2  0
 21 23  1  0
 24 25  1  0
 25 26  1  0
 25 30  2  0
 26 27  1  0
 27 28  2  0
 27 29  1  0
 30 31  1  0
 31 32  1  0
 32 33  1  0
 33 34  1  6
 33 35  1  0
 33 40  1  0
 35 36  1  0
 36 37  1  0
 37 38  1  0
 37 39  1  0
 40 41  1  0
 41 42  2  0
M  END
