
     RDKit          3D

 18 19  0  0  0  0  0  0  0  0999 V2000
    0.3970    3.7180    0.4240 C   0  0  0  0  0  0  0  0  0  0  0  0
    1.0910    2.4750    0.1500 C   0  0  0  0  0  0  0  0  0  0  0  0
    2.3620    2.4060    0.0090 O   0  0  0  0  0  0  0  0  0  0  0  0
    0.3140    1.2060    0.0220 C   0  0  0  0  0  0  0  0  0  0  0  0
   -0.9760    1.2420    0.1570 C   0  0  0  0  0  0  0  0  0  0  0  0
   -1.6380    2.4550    0.4390 O   0  0  0  0  0  0  0  0  0  0  0  0
   -1.8300    0.0750    0.0150 C   0  0  0  0  0  0  0  0  0  0  0  0
   -3.1700    0.0960    0.2070 C   0  0  0  0  0  0  0  0  0  0  0  0
   -3.6910   -1.2430   -0.0270 C   0  0  0  0  0  0  0  0  0  0  0  0
   -2.5370   -2.0590   -0.4150 C   0  0  0  0  0  0  0  0  0  0  0  0
   -1.4630   -1.2720   -0.3800 C   0  0  0  0  0  0  0  0  0  0  0  0
    1.1670    0.0290   -0.0960 C   0  0  0  0  0  0  0  0  0  0  0  0
    1.9310   -0.2270   -1.1930 C   0  0  0  0  0  0  0  0  0  0  0  0
    2.8120   -1.2970   -1.2540 C   0  0  0  0  0  0  0  0  0  0  0  0
    2.9160   -2.1320   -0.1590 C   0  0  0  0  0  0  0  0  0  0  0  0
    3.7940   -3.1930   -0.2270 O   0  0  0  0  0  0  0  0  0  0  0  0
    2.1350   -1.8580    0.9430 C   0  0  0  0  0  0  0  0  0  0  0  0
    1.2570   -0.8020    1.0200 C   0  0  0  0  0  0  0  0  0  0  0  0
  1  2  1  0
  2  3  2  0
  2  4  1  0
  4  5  2  3
  4 12  1  0
  5  6  1  0
  5  7  1  0
  7  8  2  0
  7 11  1  0
  8  9  1  0
  9 10  1  0
 10 11  2  0
 12 13  2  0
 12 18  1  0
 13 14  1  0
 14 15  2  0
 15 16  1  0
 15 17  1  0
 17 18  2  0
M  END
