
     RDKit          3D

 18 19  0  0  0  0  0  0  0  0999 V2000
   -4.3400   -1.1550    0.2170 C   0  0  0  0  0  0  0  0  0  0  0  0
   -3.0560   -0.9770    0.0050 C   0  0  0  0  0  0  0  0  0  0  0  0
   -2.1320   -2.0710   -0.2680 C   0  0  0  0  0  0  0  0  0  0  0  0
   -0.7450   -1.4490   -0.0430 C   0  0  0  0  0  0  0  0  0  0  0  0
    0.5450   -2.0400    0.0280 C   0  0  0  0  0  0  0  0  0  0  0  0
    1.6720   -1.3250    0.1840 C   0  0  0  0  0  0  0  0  0  0  0  0
    3.0290   -1.9040    0.3590 C   0  0  0  0  0  0  0  0  0  0  0  0
    3.9100   -1.6000   -0.7090 O   0  0  0  0  0  0  0  0  0  0  0  0
    1.5240    0.0520    0.2760 C   0  0  0  0  0  0  0  0  0  0  0  0
    2.7040    0.8540    0.4470 C   0  0  0  0  0  0  0  0  0  0  0  0
    3.6190    0.3930    1.1840 O   0  0  0  0  0  0  0  0  0  0  0  0
    2.9440    2.0730   -0.1390 O   0  0  0  0  0  0  0  0  0  0  0  0
    4.1900    2.7610    0.0830 C   0  0  0  0  0  0  0  0  0  0  0  0
    0.2840    0.6580    0.1970 C   0  0  0  0  0  0  0  0  0  0  0  0
   -0.8470   -0.1050    0.0400 C   0  0  0  0  0  0  0  0  0  0  0  0
   -2.3210    0.2450    0.0620 C   0  0  0  0  0  0  0  0  0  0  0  0
   -2.7240    1.5040    0.0680 C   0  0  0  0  0  0  0  0  0  0  0  0
   -4.0590    2.0670    0.0150 C   0  0  0  0  0  0  0  0  0  0  0  0
  1  2  2  0
  2  3  1  0
  2 16  1  0
  3  4  1  0
  4  5  2  0
  4 15  1  0
  5  6  1  0
  6  7  1  0
  6  9  2  0
  7  8  1  0
  9 10  1  0
  9 14  1  0
 10 11  2  0
 10 12  1  0
 12 13  1  0
 14 15  2  0
 15 16  1  0
 16 17  2  3
 17 18  1  0
M  END
