
     RDKit          3D

 20 21  0  0  0  0  0  0  0  0999 V2000
    3.3150   -1.3280   -0.3960 C   0  0  0  0  0  0  0  0  0  0  0  0
    3.6760    0.0750    0.1380 C   0  0  2  0  0  0  0  0  0  0  0  0
    3.4560    0.1130    1.5320 O   0  0  0  0  0  0  0  0  0  0  0  0
    2.0130   -0.0350    1.6290 C   0  0  0  0  0  0  0  0  0  0  0  0
    1.4320   -0.5670    2.5960 O   0  0  0  0  0  0  0  0  0  0  0  0
    1.4540    0.5360    0.4360 N   0  0  0  0  0  0  0  0  0  0  0  0
    0.1360    0.6520    0.0520 N   0  0  0  0  0  0  0  0  0  0  0  0
   -0.9580   -0.0710    0.5250 C   0  0  0  0  0  0  0  0  0  0  0  0
   -0.7910   -0.9470    1.4010 O   0  0  0  0  0  0  0  0  0  0  0  0
   -2.3280    0.1780    0.0130 C   0  0  0  0  0  0  0  0  0  0  0  0
   -3.3640   -0.6560    0.7450 C   0  0  1  0  0  0  0  0  0  0  0  0
   -3.3560   -0.3550    2.1180 O   0  0  0  0  0  0  0  0  0  0  0  0
   -4.6580   -0.2920    0.1360 C   0  0  0  0  0  0  0  0  0  0  0  0
   -5.5520    0.2640    0.8500 N   0  0  0  0  0  0  0  0  0  0  0  0
   -4.8820   -0.5620   -1.2240 N   0  0  0  0  0  0  0  0  0  0  0  0
    2.5900    1.0090   -0.3370 C   0  0  0  0  0  0  0  0  0  0  0  0
    3.1180    1.8590   -1.1600 C   0  0  0  0  0  0  0  0  0  0  0  0
    4.5130    1.6580   -1.3210 N   0  0  0  0  0  0  0  0  0  0  0  0
    4.8690    0.5510   -0.4660 C   0  0  0  0  0  0  0  0  0  0  0  0
    6.0810    0.1210   -0.3220 O   0  0  0  0  0  0  0  0  0  0  0  0
  2  1  1  6
  2  3  1  0
  2 16  1  0
  2 19  1  0
  3  4  1  0
  4  5  2  0
  4  6  1  0
  6  7  1  0
  6 16  1  0
  7  8  1  0
  8  9  2  0
  8 10  1  0
 10 11  1  0
 11 12  1  1
 11 13  1  0
 13 14  2  0
 13 15  1  0
 16 17  2  0
 17 18  1  0
 18 19  1  0
 19 20  2  0
M  END
