
     RDKit          3D

 18 19  0  0  0  0  0  0  0  0999 V2000
   -1.6060    3.1770    0.4070 O   0  0  0  0  0  0  0  0  0  0  0  0
   -0.7880    2.0950    0.6040 C   0  0  2  0  0  0  0  0  0  0  0  0
    0.4260    2.1880   -0.0710 O   0  0  0  0  0  0  0  0  0  0  0  0
   -1.4440    0.8040    0.2340 C   0  0  0  0  0  0  0  0  0  0  0  0
   -2.6800    1.0180   -0.2030 C   0  0  0  0  0  0  0  0  0  0  0  0
   -3.7590    0.1770   -0.6850 C   0  0  0  0  0  0  0  0  0  0  0  0
   -3.8880   -1.1300   -0.8990 C   0  0  0  0  0  0  0  0  0  0  0  0
   -2.9890   -2.2720   -0.7370 C   0  0  0  0  0  0  0  0  0  0  0  0
   -1.7530   -2.4790   -0.3010 C   0  0  0  0  0  0  0  0  0  0  0  0
   -0.6990   -1.6230    0.2320 C   0  0  0  0  0  0  0  0  0  0  0  0
   -0.5460   -0.3260    0.4560 C   0  0  0  0  0  0  0  0  0  0  0  0
    0.6330    0.0750    0.9820 O   0  0  0  0  0  0  0  0  0  0  0  0
    1.8960   -0.0770    0.5180 C   0  0  0  0  0  0  0  0  0  0  0  0
    2.9590    0.4250    1.2400 C   0  0  0  0  0  0  0  0  0  0  0  0
    4.2760    0.2830    0.7850 C   0  0  0  0  0  0  0  0  0  0  0  0
    4.5370   -0.3670   -0.4020 C   0  0  0  0  0  0  0  0  0  0  0  0
    3.4830   -0.8690   -1.1250 C   0  0  0  0  0  0  0  0  0  0  0  0
    2.1800   -0.7220   -0.6630 C   0  0  0  0  0  0  0  0  0  0  0  0
  2  1  1  6
  2  3  1  0
  2  4  1  0
  4  5  2  0
  4 11  1  0
  5  6  1  0
  6  7  2  0
  7  8  1  0
  8  9  2  0
  9 10  1  0
 10 11  2  0
 11 12  1  0
 12 13  1  0
 13 14  2  0
 13 18  1  0
 14 15  1  0
 15 16  2  0
 16 17  1  0
 17 18  2  0
M  END
