
     RDKit          3D

 18 19  0  0  0  0  0  0  0  0999 V2000
   -4.9900   -2.0340    0.1420 C   0  0  0  0  0  0  0  0  0  0  0  0
   -3.8430   -1.0670    0.0070 C   0  0  0  0  0  0  0  0  0  0  0  0
   -4.1480    0.2550   -0.1930 C   0  0  0  0  0  0  0  0  0  0  0  0
   -3.1500    1.2080   -0.3270 C   0  0  0  0  0  0  0  0  0  0  0  0
   -3.4840    2.5170   -0.5260 O   0  0  0  0  0  0  0  0  0  0  0  0
   -1.8290    0.7930   -0.2540 C   0  0  0  0  0  0  0  0  0  0  0  0
   -0.8690    1.7830   -0.3940 O   0  0  0  0  0  0  0  0  0  0  0  0
   -1.5150   -0.5190   -0.0550 C   0  0  0  0  0  0  0  0  0  0  0  0
   -0.1520   -0.9920    0.0270 C   0  0  0  0  0  0  0  0  0  0  0  0
    0.9110   -0.2530   -0.0740 C   0  0  0  0  0  0  0  0  0  0  0  0
    2.2360   -0.9290    0.0380 C   0  0  0  0  0  0  0  0  0  0  0  0
    2.2910   -2.1680    0.2240 O   0  0  0  0  0  0  0  0  0  0  0  0
    3.4670   -0.1390   -0.0700 C   0  0  0  0  0  0  0  0  0  0  0  0
    4.7070   -0.5880    0.0080 C   0  0  0  0  0  0  0  0  0  0  0  0
    5.6710    0.5270   -0.1510 C   0  0  0  0  0  0  0  0  0  0  0  0
    4.7960    1.6940   -0.3330 C   0  0  0  0  0  0  0  0  0  0  0  0
    3.5310    1.3020   -0.2850 C   0  0  0  0  0  0  0  0  0  0  0  0
   -2.5420   -1.4730    0.0790 C   0  0  0  0  0  0  0  0  0  0  0  0
  1  2  1  0
  2  3  2  0
  2 18  1  0
  3  4  1  0
  4  5  1  0
  4  6  2  0
  6  7  1  0
  6  8  1  0
  8  9  1  0
  8 18  2  0
  9 10  2  3
 10 11  1  0
 11 12  2  0
 11 13  1  0
 13 14  2  0
 13 17  1  0
 14 15  1  0
 15 16  1  0
 16 17  2  0
M  END
