
     RDKit          3D

 18 19  0  0  0  0  0  0  0  0999 V2000
    1.1540   -0.0330   -2.8560 C   0  0  0  0  0  0  0  0  0  0  0  0
    1.2900    0.0700   -1.5460 C   0  0  0  0  0  0  0  0  0  0  0  0
    2.5630    0.0740   -0.8240 C   0  0  0  0  0  0  0  0  0  0  0  0
    3.7910   -0.1220   -1.3330 C   0  0  0  0  0  0  0  0  0  0  0  0
    5.0190   -0.0850   -0.5460 C   0  0  0  0  0  0  0  0  0  0  0  0
    2.2310    0.2970    0.5840 C   0  0  0  0  0  0  0  0  0  0  0  0
    0.7630    0.1870    0.6660 C   0  0  0  0  0  0  0  0  0  0  0  0
    0.1970    0.1320   -0.5780 C   0  0  0  0  0  0  0  0  0  0  0  0
   -1.1560    0.0510   -0.7470 C   0  0  0  0  0  0  0  0  0  0  0  0
   -2.0020    0.0290    0.3190 C   0  0  0  0  0  0  0  0  0  0  0  0
   -3.4040   -0.0100    0.1040 O   0  0  0  0  0  0  0  0  0  0  0  0
   -3.9270   -0.0190   -1.2310 C   0  0  0  0  0  0  0  0  0  0  0  0
   -5.4290    0.0630   -1.2660 C   0  0  0  0  0  0  0  0  0  0  0  0
   -1.4690    0.0750    1.5980 C   0  0  0  0  0  0  0  0  0  0  0  0
   -2.3550    0.0470    2.6360 O   0  0  0  0  0  0  0  0  0  0  0  0
   -0.1250    0.1510    1.7410 C   0  0  0  0  0  0  0  0  0  0  0  0
    0.5250    0.3740    3.0860 C   0  0  0  0  0  0  0  0  0  0  0  0
    0.6540   -0.8230    3.8050 O   0  0  0  0  0  0  0  0  0  0  0  0
  1  2  2  0
  2  3  1  0
  2  8  1  0
  3  4  2  3
  3  6  1  0
  4  5  1  0
  6  7  1  0
  7  8  2  0
  7 16  1  0
  8  9  1  0
  9 10  2  0
 10 11  1  0
 10 14  1  0
 11 12  1  0
 12 13  1  0
 14 15  1  0
 14 16  2  0
 16 17  1  0
 17 18  1  0
M  END
