
     RDKit          3D

 22 23  0  0  0  0  0  0  0  0999 V2000
    5.4570   -0.6220    0.3020 C   0  0  0  0  0  0  0  0  0  0  0  0
    3.9550   -0.3300    0.3890 C   0  0  2  0  0  0  0  0  0  0  0  0
    3.3670   -0.4690   -0.8420 O   0  0  0  0  0  0  0  0  0  0  0  0
    2.4380   -1.4770   -0.9200 C   0  0  0  0  0  0  0  0  0  0  0  0
    1.2630   -1.3310    0.0140 C   0  0  1  0  0  0  0  0  0  0  0  0
    0.3360   -0.1690   -0.4840 C   0  0  0  0  0  0  0  0  0  0  0  0
   -0.9320   -0.6940    0.1000 C   0  0  1  0  0  0  0  0  0  0  0  0
   -2.1780    0.0390    0.0240 C   0  0  1  0  0  0  0  0  0  0  0  0
   -2.8150    0.4020   -1.2550 C   0  0  0  0  0  0  0  0  0  0  0  0
   -2.0700    1.2980   -2.1770 C   0  0  0  0  0  0  0  0  0  0  0  0
   -2.9090    1.5070   -3.3130 O   0  0  0  0  0  0  0  0  0  0  0  0
   -3.2000   -0.7050    0.8980 C   0  0  0  0  0  0  0  0  0  0  0  0
   -3.1620    0.1130    2.1650 C   0  0  2  0  0  0  0  0  0  0  0  0
   -4.3540    0.0380    2.8800 O   0  0  0  0  0  0  0  0  0  0  0  0
   -2.9900    1.5050    1.5390 C   0  0  0  0  0  0  0  0  0  0  0  0
   -1.9490    1.2750    0.6900 O   0  0  0  0  0  0  0  0  0  0  0  0
   -0.8980   -2.0810   -0.4450 C   0  0  0  0  0  0  0  0  0  0  0  0
   -1.7760   -2.7870   -0.9840 O   0  0  0  0  0  0  0  0  0  0  0  0
    0.4280   -2.4830   -0.2180 O   0  0  0  0  0  0  0  0  0  0  0  0
    3.8140    1.0710    0.8410 C   0  0  0  0  0  0  0  0  0  0  0  0
    3.1720    2.0260    0.0450 N   0  0  0  0  0  0  0  0  0  0  0  0
    4.2820    1.3910    1.9570 O   0  0  0  0  0  0  0  0  0  0  0  0
  2  1  1  6
  2  3  1  0
  2 20  1  0
  3  4  1  0
  5  4  1  6
  5  6  1  0
  5 19  1  0
  7  6  1  6
  7  8  1  0
  7 17  1  0
  8  9  1  6
  8 12  1  0
  8 16  1  0
  9 10  1  0
 10 11  1  0
 12 13  1  0
 13 14  1  6
 13 15  1  0
 15 16  1  0
 17 18  2  0
 17 19  1  0
 20 21  1  0
 20 22  2  0
M  END
