
     RDKit          3D

 22 23  0  0  0  0  0  0  0  0999 V2000
   -0.6880    0.3410    1.7980 N   0  0  0  0  0  0  0  0  0  0  0  0
   -0.8270    0.3350    0.3210 C   0  0  1  0  0  0  0  0  0  0  0  0
   -1.2930    1.7060   -0.0650 C   0  0  0  0  0  0  0  0  0  0  0  0
   -2.5940    2.1260    0.5240 C   0  0  0  0  0  0  0  0  0  0  0  0
   -2.9070    3.5230    0.0640 C   0  0  0  0  0  0  0  0  0  0  0  0
   -3.9460    4.1360    0.4060 O   0  0  0  0  0  0  0  0  0  0  0  0
   -2.0160    4.1670   -0.7740 O   0  0  0  0  0  0  0  0  0  0  0  0
    0.5350    0.1290   -0.2800 C   0  0  0  0  0  0  0  0  0  0  0  0
    0.7020    0.1580   -1.5140 O   0  0  0  0  0  0  0  0  0  0  0  0
    1.5910   -0.0920    0.5470 O   0  0  0  0  0  0  0  0  0  0  0  0
    2.8890   -0.2970    0.1750 C   0  0  0  0  0  0  0  0  0  0  0  0
    3.3780   -1.5000   -0.0710 C   0  0  0  0  0  0  0  0  0  0  0  0
    4.7800   -1.7740   -0.4780 C   0  0  0  0  0  0  0  0  0  0  0  0
    5.5410   -0.6190   -0.5770 O   0  0  0  0  0  0  0  0  0  0  0  0
    5.0720    0.6410   -0.3310 C   0  0  0  0  0  0  0  0  0  0  0  0
    3.7940    0.8370    0.0350 C   0  0  0  0  0  0  0  0  0  0  0  0
   -1.7560   -0.7720    0.0210 C   0  0  2  0  0  0  0  0  0  0  0  0
   -2.9950   -0.6450    0.6330 O   0  0  0  0  0  0  0  0  0  0  0  0
   -1.2290   -2.1380    0.4010 C   0  0  0  0  0  0  0  0  0  0  0  0
   -2.1410   -3.0210   -0.4420 C   0  0  0  0  0  0  0  0  0  0  0  0
   -2.6310   -2.2830   -1.4820 O   0  0  0  0  0  0  0  0  0  0  0  0
   -2.0350   -1.0230   -1.4450 C   0  0  0  0  0  0  0  0  0  0  0  0
  2  1  1  1
  2  3  1  0
  2  8  1  0
  2 17  1  0
  3  4  1  0
  4  5  1  0
  5  6  2  0
  5  7  1  0
  8  9  2  0
  8 10  1  0
 10 11  1  0
 11 12  2  0
 11 16  1  0
 12 13  1  0
 13 14  1  0
 14 15  1  0
 15 16  2  0
 17 18  1  1
 17 19  1  0
 17 22  1  0
 19 20  1  0
 20 21  1  0
 21 22  1  0
M  END
