
     RDKit          3D

 22 23  0  0  0  0  0  0  0  0999 V2000
    5.7720    1.5050   -0.4210 C   0  0  0  0  0  0  0  0  0  0  0  0
    5.0400    0.5590   -1.1570 O   0  0  0  0  0  0  0  0  0  0  0  0
    3.9530   -0.1410   -0.6260 C   0  0  0  0  0  0  0  0  0  0  0  0
    2.8810    0.5140   -0.2720 C   0  0  0  0  0  0  0  0  0  0  0  0
    1.6800   -0.0950    0.2940 C   0  0  1  0  0  0  0  0  0  0  0  0
    0.4920    0.4100   -0.5190 C   0  0  0  0  0  0  0  0  0  0  0  0
   -0.7830   -0.1260   -0.0540 C   0  0  0  0  0  0  0  0  0  0  0  0
   -0.8320   -0.9110    0.9170 O   0  0  0  0  0  0  0  0  0  0  0  0
   -1.9880    0.2360   -0.6960 N   0  0  0  0  0  0  0  0  0  0  0  0
   -3.2940   -0.2530   -0.2930 C   0  0  2  0  0  0  0  0  0  0  0  0
   -3.9000   -1.0160   -1.4530 C   0  0  0  0  0  0  0  0  0  0  0  0
   -3.0460   -2.0830   -1.7620 O   0  0  0  0  0  0  0  0  0  0  0  0
   -4.1380    0.9390   -0.0160 C   0  0  0  0  0  0  0  0  0  0  0  0
   -3.8100    2.2220   -0.1030 C   0  0  0  0  0  0  0  0  0  0  0  0
   -4.8650    3.0380    0.2360 O   0  0  0  0  0  0  0  0  0  0  0  0
   -5.7860    2.2040    0.9260 C   0  0  0  0  0  0  0  0  0  0  0  0
   -5.4790    0.9430    0.4030 O   0  0  0  0  0  0  0  0  0  0  0  0
    1.7140   -1.5380    0.4620 C   0  0  2  0  0  0  0  0  0  0  0  0
    1.5490   -1.9440    1.8180 O   0  0  0  0  0  0  0  0  0  0  0  0
    2.9690   -2.1680    0.0320 C   0  0  0  0  0  0  0  0  0  0  0  0
    4.0200   -1.5660   -0.4720 C   0  0  0  0  0  0  0  0  0  0  0  0
    5.1800   -2.2410   -0.8590 O   0  0  0  0  0  0  0  0  0  0  0  0
  1  2  1  0
  2  3  1  0
  3  4  2  0
  3 21  1  0
  4  5  1  0
  5  6  1  6
  5 18  1  0
  6  7  1  0
  7  8  2  0
  7  9  1  0
  9 10  1  0
 10 11  1  6
 10 13  1  0
 11 12  1  0
 13 14  2  0
 13 17  1  0
 14 15  1  0
 15 16  1  0
 16 17  1  0
 18 19  1  1
 18 20  1  0
 20 21  2  0
 21 22  1  0
M  END
