
     RDKit          3D

 22 23  0  0  0  0  0  0  0  0999 V2000
    3.8310   -0.7880    0.4650 O   0  0  0  0  0  0  0  0  0  0  0  0
    3.2130   -0.5040   -0.5740 C   0  0  0  0  0  0  0  0  0  0  0  0
    1.8230   -0.7140   -0.6540 N   0  0  0  0  0  0  0  0  0  0  0  0
    1.0050   -1.2320    0.3420 C   0  0  0  0  0  0  0  0  0  0  0  0
    1.3450   -1.6330    1.5510 C   0  0  0  0  0  0  0  0  0  0  0  0
    0.4450   -2.1730    2.5680 C   0  0  2  0  0  0  0  0  0  0  0  0
    0.8920   -3.5150    2.7810 O   0  0  0  0  0  0  0  0  0  0  0  0
   -0.9770   -2.2690    2.1950 C   0  0  0  0  0  0  0  0  0  0  0  0
   -1.2960   -1.8140    0.8540 C   0  0  0  0  0  0  0  0  0  0  0  0
   -0.4380   -1.3460    0.0030 C   0  0  0  0  0  0  0  0  0  0  0  0
   -0.8930   -0.9490   -1.2440 O   0  0  0  0  0  0  0  0  0  0  0  0
   -1.3120    0.3290   -1.5950 C   0  0  0  0  0  0  0  0  0  0  0  0
   -2.4850    0.8230   -0.7820 C   0  0  2  0  0  0  0  0  0  0  0  0
   -2.8840    2.2240   -1.1390 C   0  0  0  0  0  0  0  0  0  0  0  0
   -3.4850    2.8870   -0.0460 O   0  0  0  0  0  0  0  0  0  0  0  0
   -4.1460    1.9570    0.7420 C   0  0  0  0  0  0  0  0  0  0  0  0
   -3.1600    1.0380    1.4240 C   0  0  0  0  0  0  0  0  0  0  0  0
   -2.0920    0.8420    0.5680 O   0  0  0  0  0  0  0  0  0  0  0  0
    3.9970    0.0660   -1.7240 C   0  0  2  0  0  0  0  0  0  0  0  0
    5.3390    0.1630   -1.3670 O   0  0  0  0  0  0  0  0  0  0  0  0
    3.4970    1.5030   -1.8900 C   0  0  0  0  0  0  0  0  0  0  0  0
    4.2030    2.1760   -2.8700 O   0  0  0  0  0  0  0  0  0  0  0  0
  1  2  2  0
  2  3  1  0
  2 19  1  0
  3  4  1  0
  4  5  2  0
  4 10  1  0
  5  6  1  0
  6  7  1  6
  6  8  1  0
  8  9  1  0
  9 10  2  0
 10 11  1  0
 11 12  1  0
 13 12  1  6
 13 14  1  0
 13 18  1  0
 14 15  1  0
 15 16  1  0
 16 17  1  0
 17 18  1  0
 19 20  1  1
 19 21  1  0
 21 22  1  0
M  END
