
     RDKit          3D

 22 23  0  0  0  0  0  0  0  0999 V2000
    0.3770   -1.0330   -1.1010 O   0  0  0  0  0  0  0  0  0  0  0  0
    0.7440   -0.2640   -0.1630 C   0  0  0  0  0  0  0  0  0  0  0  0
   -0.2850    0.3670    0.5970 N   0  0  0  0  0  0  0  0  0  0  0  0
   -1.6770    0.1630    0.3360 C   0  0  1  0  0  0  0  0  0  0  0  0
   -2.4170   -0.3320    1.5190 C   0  0  2  0  0  0  0  0  0  0  0  0
   -2.0980   -1.7010    1.6810 O   0  0  0  0  0  0  0  0  0  0  0  0
   -3.7400   -0.1880    1.5460 O   0  0  0  0  0  0  0  0  0  0  0  0
   -4.4290    0.1560    0.4380 C   0  0  2  0  0  0  0  0  0  0  0  0
   -5.0370   -1.1130   -0.1590 C   0  0  0  0  0  0  0  0  0  0  0  0
   -5.8790   -1.6480    0.8300 O   0  0  0  0  0  0  0  0  0  0  0  0
   -3.7340    0.8950   -0.6280 C   0  0  1  0  0  0  0  0  0  0  0  0
   -4.4880    1.9270   -1.1880 O   0  0  0  0  0  0  0  0  0  0  0  0
   -2.3800    1.4290   -0.1400 C   0  0  2  0  0  0  0  0  0  0  0  0
   -1.6950    2.0840   -1.1290 O   0  0  0  0  0  0  0  0  0  0  0  0
    2.0810   -0.0930    0.0580 O   0  0  0  0  0  0  0  0  0  0  0  0
    3.0890   -0.7430   -0.7250 C   0  0  0  0  0  0  0  0  0  0  0  0
    4.4390   -0.3920   -0.2860 C   0  0  0  0  0  0  0  0  0  0  0  0
    5.1600    0.6810   -0.7820 C   0  0  0  0  0  0  0  0  0  0  0  0
    6.4390    0.9230   -0.2900 C   0  0  0  0  0  0  0  0  0  0  0  0
    7.0110    0.1300    0.6750 C   0  0  0  0  0  0  0  0  0  0  0  0
    6.3080   -0.9290    1.1700 C   0  0  0  0  0  0  0  0  0  0  0  0
    5.0370   -1.1730    0.6840 C   0  0  0  0  0  0  0  0  0  0  0  0
  1  2  2  0
  2  3  1  0
  2 15  1  0
  4  3  1  1
  4  5  1  0
  4 13  1  0
  5  6  1  6
  5  7  1  0
  7  8  1  0
  8  9  1  6
  8 11  1  0
  9 10  1  0
 11 12  1  1
 11 13  1  0
 13 14  1  6
 15 16  1  0
 16 17  1  0
 17 18  2  0
 17 22  1  0
 18 19  1  0
 19 20  2  0
 20 21  1  0
 21 22  2  0
M  END
