
     RDKit          3D

 21 21  0  0  0  0  0  0  0  0999 V2000
    6.4510    1.8230   -0.6930 C   0  0  0  0  0  0  0  0  0  0  0  0
    5.5010    0.9180   -0.1780 O   0  0  0  0  0  0  0  0  0  0  0  0
    4.1390    1.0640   -0.3540 C   0  0  0  0  0  0  0  0  0  0  0  0
    3.7390    2.0610   -1.0090 O   0  0  0  0  0  0  0  0  0  0  0  0
    3.1630    0.0630    0.2200 C   0  0  1  0  0  0  0  0  0  0  0  0
    3.3810    0.0800    1.6890 C   0  0  0  0  0  0  0  0  0  0  0  0
    1.8140    0.3750   -0.2710 C   0  0  0  0  0  0  0  0  0  0  0  0
    0.6860   -0.4710    0.1530 C   0  0  1  0  0  0  0  0  0  0  0  0
    0.4240   -0.5340    1.6300 C   0  0  0  0  0  0  0  0  0  0  0  0
   -0.4950    0.1430   -0.4070 O   0  0  0  0  0  0  0  0  0  0  0  0
   -1.4310   -0.8430   -0.6680 C   0  0  0  0  0  0  0  0  0  0  0  0
   -2.7580   -0.8080   -0.4570 C   0  0  0  0  0  0  0  0  0  0  0  0
   -3.4240    0.3310    0.1020 C   0  0  0  0  0  0  0  0  0  0  0  0
   -2.7430    1.3520    0.4140 O   0  0  0  0  0  0  0  0  0  0  0  0
   -4.8820    0.3150    0.3100 C   0  0  1  0  0  0  0  0  0  0  0  0
   -5.3770    1.5470    0.8820 N   0  0  0  0  0  0  0  0  0  0  0  0
   -5.5180    0.0650   -1.0590 C   0  0  0  0  0  0  0  0  0  0  0  0
   -5.2080    1.1140   -1.9160 O   0  0  0  0  0  0  0  0  0  0  0  0
   -0.6430   -1.9650   -1.2380 C   0  0  0  0  0  0  0  0  0  0  0  0
    0.6640   -1.8430   -0.4830 C   0  0  2  0  0  0  0  0  0  0  0  0
    0.6200   -2.8460    0.5120 O   0  0  0  0  0  0  0  0  0  0  0  0
  1  2  1  0
  2  3  1  0
  3  4  2  0
  3  5  1  0
  5  6  1  1
  5  7  1  0
  7  8  1  0
  8  9  1  1
  8 10  1  0
  8 20  1  0
 10 11  1  0
 11 12  2  3
 11 19  1  0
 12 13  1  0
 13 14  2  0
 13 15  1  0
 15 16  1  6
 15 17  1  0
 17 18  1  0
 19 20  1  0
 20 21  1  1
M  END
