
     RDKit          3D

 22 22  0  0  0  0  0  0  0  0999 V2000
    6.1470   -2.4900    0.7550 C   0  0  0  0  0  0  0  0  0  0  0  0
    5.3190   -1.3360    0.9600 O   0  0  0  0  0  0  0  0  0  0  0  0
    4.1480   -1.1900    0.2330 C   0  0  0  0  0  0  0  0  0  0  0  0
    3.8610   -2.0960   -0.5890 O   0  0  0  0  0  0  0  0  0  0  0  0
    3.2750   -0.0040    0.4270 C   0  0  2  0  0  0  0  0  0  0  0  0
    2.1670   -0.0620   -0.3940 O   0  0  0  0  0  0  0  0  0  0  0  0
    1.7720    1.1540   -0.9020 C   0  0  1  0  0  0  0  0  0  0  0  0
    0.3820    1.0290   -1.4360 C   0  0  0  0  0  0  0  0  0  0  0  0
   -0.5080    0.6340   -0.3730 N   0  0  0  0  0  0  0  0  0  0  0  0
   -1.9030    0.4320   -0.5670 C   0  0  0  0  0  0  0  0  0  0  0  0
   -2.3520    0.6090   -1.7090 O   0  0  0  0  0  0  0  0  0  0  0  0
   -2.7280    0.0320    0.5690 C   0  0  0  0  0  0  0  0  0  0  0  0
   -4.1810   -0.1930    0.2690 C   0  0  1  0  0  0  0  0  0  0  0  0
   -4.8010   -0.5860    1.6240 C   0  0  0  0  0  0  0  0  0  0  0  0
   -4.7560    1.0060   -0.1000 O   0  0  0  0  0  0  0  0  0  0  0  0
   -4.4330   -1.2820   -0.7460 C   0  0  2  0  0  0  0  0  0  0  0  0
   -5.9140   -1.5170   -0.9550 C   0  0  0  0  0  0  0  0  0  0  0  0
   -3.8560   -2.4760   -0.3870 O   0  0  0  0  0  0  0  0  0  0  0  0
    1.8980    2.2180    0.1600 C   0  0  0  0  0  0  0  0  0  0  0  0
    3.3760    2.5030    0.3350 C   0  0  0  0  0  0  0  0  0  0  0  0
    4.1260    1.2220    0.1320 C   0  0  2  0  0  0  0  0  0  0  0  0
    4.6430    1.0750   -1.1430 O   0  0  0  0  0  0  0  0  0  0  0  0
  1  2  1  0
  2  3  1  0
  3  4  2  0
  5  3  1  6
  5  6  1  0
  5 21  1  0
  6  7  1  0
  7  8  1  1
  7 19  1  0
  8  9  1  0
  9 10  1  0
 10 11  2  0
 10 12  1  0
 12 13  1  0
 13 14  1  1
 13 15  1  0
 13 16  1  0
 16 17  1  1
 16 18  1  0
 19 20  1  0
 20 21  1  0
 21 22  1  6
M  END
