
     RDKit          3D

 22 23  0  0  0  0  0  0  0  0999 V2000
   -0.9370    3.8870   -1.4840 N   0  0  0  0  0  0  0  0  0  0  0  0
   -1.9470    3.0290   -0.9830 C   0  0  0  0  0  0  0  0  0  0  0  0
   -3.1380    3.2760   -1.2920 O   0  0  0  0  0  0  0  0  0  0  0  0
   -1.6700    1.8570   -0.1150 C   0  0  1  0  0  0  0  0  0  0  0  0
   -2.9230    1.1290    0.2650 C   0  0  0  0  0  0  0  0  0  0  0  0
   -2.6530   -0.1680    0.6540 O   0  0  0  0  0  0  0  0  0  0  0  0
   -1.3520   -0.3530    1.0730 C   0  0  1  0  0  0  0  0  0  0  0  0
   -1.1770   -1.6380    1.8180 C   0  0  0  0  0  0  0  0  0  0  0  0
   -1.6570   -2.7660    0.9350 C   0  0  0  0  0  0  0  0  0  0  0  0
   -0.7070   -2.8220   -0.2480 C   0  0  0  0  0  0  0  0  0  0  0  0
   -0.6740   -1.5420   -1.0170 C   0  0  0  0  0  0  0  0  0  0  0  0
   -0.4180   -0.3300   -0.1540 C   0  0  2  0  0  0  0  0  0  0  0  0
    0.8760   -0.2790    0.3530 O   0  0  0  0  0  0  0  0  0  0  0  0
    2.0370   -0.2310   -0.3990 C   0  0  0  0  0  0  0  0  0  0  0  0
    1.9450   -0.2300   -1.6530 O   0  0  0  0  0  0  0  0  0  0  0  0
    3.3580   -0.1820    0.1790 C   0  0  0  0  0  0  0  0  0  0  0  0
    4.4150   -0.1380   -0.5800 C   0  0  0  0  0  0  0  0  0  0  0  0
    4.2660   -0.1380   -1.9570 O   0  0  0  0  0  0  0  0  0  0  0  0
    3.4920   -0.1830    1.6170 C   0  0  0  0  0  0  0  0  0  0  0  0
    4.6210   -0.1410    2.1360 O   0  0  0  0  0  0  0  0  0  0  0  0
    2.3780   -0.2290    2.4640 O   0  0  0  0  0  0  0  0  0  0  0  0
   -0.8210    0.9000   -0.9370 C   0  0  0  0  0  0  0  0  0  0  0  0
  1  2  1  0
  2  3  2  0
  4  2  1  6
  4  5  1  0
  4 22  1  0
  5  6  1  0
  6  7  1  0
  7  8  1  6
  7 12  1  0
  8  9  1  0
  9 10  1  0
 10 11  1  0
 11 12  1  0
 12 13  1  1
 12 22  1  0
 13 14  1  0
 14 15  2  0
 14 16  1  0
 16 17  2  3
 16 19  1  0
 17 18  1  0
 19 20  2  0
 19 21  1  0
M  END
