
     RDKit          3D

 22 22  0  0  0  0  0  0  0  0999 V2000
    4.5570    0.6700    1.9810 N   0  0  0  0  0  0  0  0  0  0  0  0
    3.4260    1.2740    1.3590 C   0  0  0  0  0  0  0  0  0  0  0  0
    2.4640    1.6610    2.0790 O   0  0  0  0  0  0  0  0  0  0  0  0
    3.4020    1.4340   -0.1090 C   0  0  0  0  0  0  0  0  0  0  0  0
    2.5750    0.3680   -0.7330 C   0  0  2  0  0  0  0  0  0  0  0  0
    2.5700    0.5320   -2.1380 O   0  0  0  0  0  0  0  0  0  0  0  0
    1.1570    0.2960   -0.2190 C   0  0  1  0  0  0  0  0  0  0  0  0
    0.3830    1.5730   -0.4560 C   0  0  0  0  0  0  0  0  0  0  0  0
   -0.9650    1.3610    0.2090 C   0  0  0  0  0  0  0  0  0  0  0  0
   -1.9140    2.5140   -0.0170 C   0  0  2  0  0  0  0  0  0  0  0  0
   -1.6260    3.5220    0.8750 O   0  0  0  0  0  0  0  0  0  0  0  0
   -3.3170    1.9300    0.2160 C   0  0  0  0  0  0  0  0  0  0  0  0
   -3.4210    0.7960   -0.5640 O   0  0  0  0  0  0  0  0  0  0  0  0
   -3.8300   -0.3210    0.1500 C   0  0  0  0  0  0  0  0  0  0  0  0
   -3.4000   -1.6190   -0.5330 C   0  0  0  0  0  0  0  0  0  0  0  0
   -2.4930   -2.2780    0.2820 O   0  0  0  0  0  0  0  0  0  0  0  0
   -1.2870   -2.5720   -0.3500 C   0  0  0  0  0  0  0  0  0  0  0  0
   -0.1310   -1.8030    0.2530 C   0  0  1  0  0  0  0  0  0  0  0  0
    0.9270   -2.7100    0.8490 C   0  0  0  0  0  0  0  0  0  0  0  0
    1.5030   -3.5720   -0.0440 O   0  0  0  0  0  0  0  0  0  0  0  0
    0.4590   -0.8900   -0.8040 C   0  0  2  0  0  0  0  0  0  0  0  0
    1.4040   -1.6810   -1.4990 O   0  0  0  0  0  0  0  0  0  0  0  0
  1  2  1  0
  2  3  2  0
  2  4  1  0
  4  5  1  0
  5  6  1  6
  5  7  1  0
  7  8  1  6
  7 21  1  0
  8  9  1  0
  9 10  1  0
 10 11  1  1
 10 12  1  0
 12 13  1  0
 13 14  1  0
 14 15  1  0
 15 16  1  0
 16 17  1  0
 17 18  1  0
 18 19  1  6
 18 21  1  0
 19 20  1  0
 21 22  1  1
M  END
