
     RDKit          3D

 41 43  0  0  0  0  0  0  0  0999 V2000
   -7.4170    1.9550    2.2860 C   0  0  0  0  0  0  0  0  0  0  0  0
   -6.9280    0.9200    2.9530 C   0  0  0  0  0  0  0  0  0  0  0  0
   -5.5550    0.3740    2.6540 C   0  0  0  0  0  0  0  0  0  0  0  0
   -5.6190   -1.0740    2.2170 C   0  0  0  0  0  0  0  0  0  0  0  0
   -6.4150   -1.2740    1.0130 C   0  0  0  0  0  0  0  0  0  0  0  0
   -5.9430   -0.9610   -0.2130 C   0  0  0  0  0  0  0  0  0  0  0  0
   -4.6110   -0.5150   -0.3990 N   0  0  0  0  0  0  0  0  0  0  0  0
   -4.0910   -0.1070   -1.6390 C   0  0  0  0  0  0  0  0  0  0  0  0
   -4.9320   -0.1060   -2.5970 O   0  0  0  0  0  0  0  0  0  0  0  0
   -2.7240    0.2930   -1.9250 C   0  0  0  0  0  0  0  0  0  0  0  0
   -2.2730    0.7490   -3.0780 C   0  0  0  0  0  0  0  0  0  0  0  0
   -3.1650    0.9190   -4.2900 C   0  0  0  0  0  0  0  0  0  0  0  0
   -0.8290    1.0480   -3.0030 C   0  0  2  0  0  0  0  0  0  0  0  0
   -0.0820    0.1290   -3.9350 C   0  0  0  0  0  0  0  0  0  0  0  0
   -0.4950    0.6820   -1.6490 N   0  0  0  0  0  0  0  0  0  0  0  0
   -1.5570    0.2550   -1.0320 C   0  0  0  0  0  0  0  0  0  0  0  0
   -1.6140   -0.3860    0.6060 S   0  0  0  0  0  0  0  0  0  0  0  0
   -0.0880   -0.1250    1.4830 C   0  0  0  0  0  0  0  0  0  0  0  0
    0.1030   -0.9520    2.7260 C   0  0  0  0  0  0  0  0  0  0  0  0
    0.8360    0.7400    1.1240 C   0  0  0  0  0  0  0  0  0  0  0  0
    2.1160    0.9930    1.8230 C   0  0  0  0  0  0  0  0  0  0  0  0
    3.2730    0.6990    0.9930 C   0  0  0  0  0  0  0  0  0  0  0  0
    3.4750    0.3270   -0.0990 O   0  0  0  0  0  0  0  0  0  0  0  0
    4.7210    0.9900    1.9030 N   0  0  0  0  0  0  0  0  0  0  0  0
    5.6080    0.6500    0.9100 C   0  0  0  0  0  0  0  0  0  0  0  0
    5.6210    0.2970   -0.2350 O   0  0  0  0  0  0  0  0  0  0  0  0
    6.9870    0.7870    1.5480 N   0  0  0  0  0  0  0  0  0  0  0  0
    8.1280    0.4640    0.8210 C   0  0  1  0  0  0  0  0  0  0  0  0
    8.0120   -0.9460    0.1900 C   0  0  0  0  0  0  0  0  0  0  0  0
    9.4150   -1.4900    0.0900 C   0  0  0  0  0  0  0  0  0  0  0  0
   10.2710   -0.3750   -0.5080 C   0  0  0  0  0  0  0  0  0  0  0  0
    9.4500    0.6730   -1.1900 C   0  0  0  0  0  0  0  0  0  0  0  0
    8.5110    1.4170   -0.2690 C   0  0  2  0  0  0  0  0  0  0  0  0
    9.1570    2.6680    0.2400 C   0  0  0  0  0  0  0  0  0  0  0  0
   -6.6880   -1.1120   -1.3500 N   0  0  0  0  0  0  0  0  0  0  0  0
   -7.9470   -1.5940   -1.2740 C   0  0  0  0  0  0  0  0  0  0  0  0
   -8.4820   -1.9330   -0.0420 C   0  0  0  0  0  0  0  0  0  0  0  0
   -9.7840   -2.4360    0.0460 O   0  0  0  0  0  0  0  0  0  0  0  0
  -10.5250   -2.5920   -1.1580 C   0  0  0  0  0  0  0  0  0  0  0  0
   -7.7210   -1.7750    1.0960 C   0  0  0  0  0  0  0  0  0  0  0  0
   -8.2770   -2.1180    2.3140 O   0  0  0  0  0  0  0  0  0  0  0  0
  1  2  2  0
  2  3  1  0
  3  4  1  0
  4  5  1  0
  5  6  2  0
  5 40  1  0
  6  7  1  0
  6 35  1  0
  7  8  1  0
  8  9  2  0
  8 10  1  0
 10 11  2  0
 10 16  1  0
 11 12  1  0
 11 13  1  0
 13 14  1  6
 13 15  1  0
 15 16  2  0
 16 17  1  0
 17 18  1  0
 18 19  1  0
 18 20  2  3
 20 21  1  0
 21 22  1  0
 22 23  2  0
 22 24  1  0
 24 25  1  0
 25 26  2  0
 25 27  1  0
 28 27  1  6
 28 29  1  0
 28 33  1  0
 29 30  1  0
 30 31  1  0
 31 32  1  0
 32 33  1  0
 33 34  1  1
 35 36  2  0
 36 37  1  0
 37 38  1  0
 37 40  2  0
 38 39  1  0
 40 41  1  0
M  END
