
     RDKit          3D

 41 43  0  0  0  0  0  0  0  0999 V2000
    3.1270    3.3840   -0.8500 C   0  0  0  0  0  0  0  0  0  0  0  0
    4.3170    2.5460   -1.1760 C   0  0  0  0  0  0  0  0  0  0  0  0
    5.4810    3.0720   -1.6080 N   0  0  0  0  0  0  0  0  0  0  0  0
    6.3520    2.0430   -1.8110 C   0  0  0  0  0  0  0  0  0  0  0  0
    5.7160    0.8590   -1.4990 C   0  0  0  0  0  0  0  0  0  0  0  0
    6.3480   -0.4720   -1.5950 C   0  0  0  0  0  0  0  0  0  0  0  0
    6.2890   -1.1440   -2.6430 O   0  0  0  0  0  0  0  0  0  0  0  0
    7.0330   -0.9890   -0.4700 N   0  0  0  0  0  0  0  0  0  0  0  0
    7.1350   -0.2500    0.7800 C   0  0  0  0  0  0  0  0  0  0  0  0
    6.2590   -0.8600    1.8540 C   0  0  0  0  0  0  0  0  0  0  0  0
    6.5490   -2.6430    1.9270 S   0  0  0  0  0  0  0  0  0  0  0  0
    6.8290   -3.2650    0.2690 C   0  0  0  0  0  0  0  0  0  0  0  0
    7.6640   -2.2910   -0.5280 C   0  0  0  0  0  0  0  0  0  0  0  0
    4.4360    1.1700   -1.0990 C   0  0  0  0  0  0  0  0  0  0  0  0
    3.4020    0.2040   -0.6720 C   0  0  0  0  0  0  0  0  0  0  0  0
    2.3510   -0.0180   -1.7280 C   0  0  1  0  0  0  0  0  0  0  0  0
    2.9600   -0.5590   -3.0150 C   0  0  0  0  0  0  0  0  0  0  0  0
    1.4380   -1.1360   -1.2240 C   0  0  0  0  0  0  0  0  0  0  0  0
    0.7780   -0.8130    0.0480 C   0  0  0  0  0  0  0  0  0  0  0  0
    1.4320   -1.0930    1.1020 O   0  0  0  0  0  0  0  0  0  0  0  0
   -0.4900   -0.2320    0.2040 N   0  0  0  0  0  0  0  0  0  0  0  0
   -1.2980    0.1330   -0.9280 C   0  0  0  0  0  0  0  0  0  0  0  0
   -2.6490   -0.4970   -0.8200 C   0  0  0  0  0  0  0  0  0  0  0  0
   -3.3380   -0.2460    0.5250 C   0  0  1  0  0  0  0  0  0  0  0  0
   -4.5770    0.5420    0.1850 C   0  0  0  0  0  0  0  0  0  0  0  0
   -5.4770    0.9460    1.2650 C   0  0  1  0  0  0  0  0  0  0  0  0
   -4.9730    1.8340    2.3450 C   0  0  0  0  0  0  0  0  0  0  0  0
   -6.7080    1.6490    0.6690 C   0  0  0  0  0  0  0  0  0  0  0  0
   -6.3810    2.8820   -0.0590 C   0  0  0  0  0  0  0  0  0  0  0  0
   -5.2220    3.3620   -0.0420 O   0  0  0  0  0  0  0  0  0  0  0  0
   -7.3940    3.5480   -0.7980 O   0  0  0  0  0  0  0  0  0  0  0  0
   -6.9990    4.7400   -1.4780 C   0  0  0  0  0  0  0  0  0  0  0  0
   -6.5150    5.6820   -0.4990 N   0  0  0  0  0  0  0  0  0  0  0  0
   -3.7330   -1.5780    1.0120 C   0  0  0  0  0  0  0  0  0  0  0  0
   -4.9300   -1.8210    1.2650 O   0  0  0  0  0  0  0  0  0  0  0  0
   -2.8330   -2.6610    1.2280 N   0  0  0  0  0  0  0  0  0  0  0  0
   -3.2910   -3.9450    1.7110 C   0  0  1  0  0  0  0  0  0  0  0  0
   -2.9500   -5.0790    0.7960 C   0  0  0  0  0  0  0  0  0  0  0  0
   -2.6930   -4.2730    3.0830 C   0  0  0  0  0  0  0  0  0  0  0  0
   -2.4520    0.5280    1.4470 C   0  0  0  0  0  0  0  0  0  0  0  0
   -1.0210    0.0100    1.5280 C   0  0  0  0  0  0  0  0  0  0  0  0
  1  2  1  0
  2  3  1  0
  2 14  2  0
  3  4  1  0
  4  5  2  0
  5  6  1  0
  5 14  1  0
  6  7  2  0
  6  8  1  0
  8  9  1  0
  8 13  1  0
  9 10  1  0
 10 11  1  0
 11 12  1  0
 12 13  1  0
 14 15  1  0
 15 16  1  0
 16 17  1  6
 16 18  1  0
 18 19  1  0
 19 20  2  0
 19 21  1  0
 21 22  1  0
 21 41  1  0
 22 23  1  0
 23 24  1  0
 24 25  1  6
 24 34  1  0
 24 40  1  0
 25 26  1  0
 26 27  1  1
 26 28  1  0
 28 29  1  0
 29 30  2  0
 29 31  1  0
 31 32  1  0
 32 33  1  0
 34 35  2  0
 34 36  1  0
 36 37  1  0
 37 38  1  6
 37 39  1  0
 40 41  1  0
M  END
