
     RDKit          3D

 41 43  0  0  0  0  0  0  0  0999 V2000
    9.0720    2.4770   -3.0420 C   0  0  0  0  0  0  0  0  0  0  0  0
    9.8080    2.1100   -2.0530 C   0  0  0  0  0  0  0  0  0  0  0  0
    9.5140    1.4260   -0.8630 C   0  0  0  0  0  0  0  0  0  0  0  0
   10.5850    1.2000   -0.0200 C   0  0  0  0  0  0  0  0  0  0  0  0
   11.9390    1.6620   -0.3790 C   0  0  0  0  0  0  0  0  0  0  0  0
    8.2800    0.9160   -0.3390 C   0  0  0  0  0  0  0  0  0  0  0  0
    8.3400    0.3120    0.8170 O   0  0  0  0  0  0  0  0  0  0  0  0
    6.9860    0.9560   -0.8670 N   0  0  0  0  0  0  0  0  0  0  0  0
    5.8070    0.4030   -0.2670 C   0  0  0  0  0  0  0  0  0  0  0  0
    4.5970    0.9750   -0.6880 C   0  0  0  0  0  0  0  0  0  0  0  0
    3.3680    0.5600   -0.2350 C   0  0  0  0  0  0  0  0  0  0  0  0
    3.3420   -0.4660    0.6710 C   0  0  0  0  0  0  0  0  0  0  0  0
    4.5280   -1.0590    1.1100 C   0  0  0  0  0  0  0  0  0  0  0  0
    5.7610   -0.6110    0.6290 C   0  0  0  0  0  0  0  0  0  0  0  0
    4.5400   -2.1690    2.0890 C   0  0  0  0  0  0  0  0  0  0  0  0
    3.1570   -2.7210    2.2680 C   0  0  2  0  0  0  0  0  0  0  0  0
    2.7680   -3.4670    0.9890 C   0  0  0  0  0  0  0  0  0  0  0  0
    3.9710   -4.8080    0.7390 S   0  0  0  0  0  0  0  0  0  0  0  0
    2.1740   -1.5950    2.4720 C   0  0  0  0  0  0  0  0  0  0  0  0
    2.0880   -0.9140    1.1400 N   0  0  0  0  0  0  0  0  0  0  0  0
    0.8400   -0.8070    0.5370 C   0  0  0  0  0  0  0  0  0  0  0  0
   -0.0970   -1.4250    1.2060 O   0  0  0  0  0  0  0  0  0  0  0  0
    0.3690   -0.1510   -0.6850 C   0  0  0  0  0  0  0  0  0  0  0  0
   -1.0750   -0.4700   -0.8770 N   0  0  0  0  0  0  0  0  0  0  0  0
   -1.4010   -1.6390   -1.6460 C   0  0  0  0  0  0  0  0  0  0  0  0
   -2.0760    0.3370   -0.3280 C   0  0  0  0  0  0  0  0  0  0  0  0
   -1.7440    1.3720    0.3450 O   0  0  0  0  0  0  0  0  0  0  0  0
   -3.4820    0.0330   -0.5000 C   0  0  0  0  0  0  0  0  0  0  0  0
   -4.4700    0.7480   -0.0050 C   0  0  0  0  0  0  0  0  0  0  0  0
   -4.1860    1.9500    0.7850 C   0  0  0  0  0  0  0  0  0  0  0  0
   -5.8380    0.3290   -0.2480 C   0  0  0  0  0  0  0  0  0  0  0  0
   -6.0770   -0.7210   -0.9370 O   0  0  0  0  0  0  0  0  0  0  0  0
   -6.9630    1.0230    0.2400 N   0  0  0  0  0  0  0  0  0  0  0  0
   -8.2950    0.5510   -0.0370 C   0  0  1  0  0  0  0  0  0  0  0  0
   -9.0330    0.1380    1.1880 C   0  0  0  0  0  0  0  0  0  0  0  0
  -10.4990   -0.0410    0.8740 C   0  0  2  0  0  0  0  0  0  0  0  0
  -10.6020   -0.9540   -0.3330 C   0  0  0  0  0  0  0  0  0  0  0  0
  -11.1390    1.2840    0.4960 C   0  0  0  0  0  0  0  0  0  0  0  0
  -10.2470    2.0900   -0.2860 N   0  0  0  0  0  0  0  0  0  0  0  0
   -9.0780    1.5250   -0.8270 C   0  0  0  0  0  0  0  0  0  0  0  0
   -8.6830    1.8500   -2.0060 O   0  0  0  0  0  0  0  0  0  0  0  0
  1  2  2  0
  2  3  1  0
  3  4  2  3
  3  6  1  0
  4  5  1  0
  6  7  2  0
  6  8  1  0
  8  9  1  0
  9 10  2  0
  9 14  1  0
 10 11  1  0
 11 12  2  0
 12 13  1  0
 12 20  1  0
 13 14  2  0
 13 15  1  0
 15 16  1  0
 16 17  1  6
 16 19  1  0
 17 18  1  0
 19 20  1  0
 20 21  1  0
 21 22  2  0
 21 23  1  0
 23 24  1  0
 24 25  1  0
 24 26  1  0
 26 27  2  0
 26 28  1  0
 28 29  2  3
 29 30  1  0
 29 31  1  0
 31 32  2  0
 31 33  1  0
 34 33  1  1
 34 35  1  0
 34 40  1  0
 35 36  1  0
 36 37  1  6
 36 38  1  0
 38 39  1  0
 39 40  1  0
 40 41  2  0
M  END
