
     RDKit          3D

 41 43  0  0  0  0  0  0  0  0999 V2000
   -8.8130   -1.1620    4.3710 C   0  0  0  0  0  0  0  0  0  0  0  0
   -8.8180   -1.0810    2.8020 C   0  0  0  0  0  0  0  0  0  0  0  0
   -7.1610   -1.2740    2.3160 S   0  0  0  0  0  0  0  0  0  0  0  0
   -6.5680   -1.0420    0.7010 C   0  0  0  0  0  0  0  0  0  0  0  0
   -6.7910    0.2980    0.1100 C   0  0  0  0  0  0  0  0  0  0  0  0
   -8.0070    0.6810   -0.4580 C   0  0  0  0  0  0  0  0  0  0  0  0
   -8.1430    1.8540   -1.1890 C   0  0  0  0  0  0  0  0  0  0  0  0
   -9.4290    2.2560   -1.8250 C   0  0  0  0  0  0  0  0  0  0  0  0
   -7.0230    2.6370   -1.3390 C   0  0  0  0  0  0  0  0  0  0  0  0
   -5.7890    2.2850   -0.7800 C   0  0  0  0  0  0  0  0  0  0  0  0
   -5.7030    1.1120   -0.0620 C   0  0  0  0  0  0  0  0  0  0  0  0
   -4.5060    0.8170    0.6730 N   0  0  0  0  0  0  0  0  0  0  0  0
   -3.3640    1.6350    0.7610 C   0  0  0  0  0  0  0  0  0  0  0  0
   -2.1410    1.2520    0.0970 C   0  0  0  0  0  0  0  0  0  0  0  0
   -1.1520    2.1180    0.1590 O   0  0  0  0  0  0  0  0  0  0  0  0
   -1.8970    0.0570   -0.5980 N   0  0  0  0  0  0  0  0  0  0  0  0
   -2.6370   -1.1180   -0.8200 C   0  0  0  0  0  0  0  0  0  0  0  0
   -0.6200    0.0780   -1.2870 N   0  0  0  0  0  0  0  0  0  0  0  0
    0.5000   -0.5430   -0.7130 C   0  0  0  0  0  0  0  0  0  0  0  0
    0.4560   -1.1150    0.3980 O   0  0  0  0  0  0  0  0  0  0  0  0
    1.7580   -0.4750   -1.5040 C   0  0  0  0  0  0  0  0  0  0  0  0
    2.9390   -0.1260   -0.8580 C   0  0  0  0  0  0  0  0  0  0  0  0
    4.0850    0.1140   -1.5690 C   0  0  0  0  0  0  0  0  0  0  0  0
    5.3440    0.3570   -0.9680 N   0  0  0  0  0  0  0  0  0  0  0  0
    5.7060   -0.3110    0.2370 C   0  0  0  0  0  0  0  0  0  0  0  0
    4.8390   -1.1150    0.7160 O   0  0  0  0  0  0  0  0  0  0  0  0
    6.9530   -0.1940    0.9770 C   0  0  1  0  0  0  0  0  0  0  0  0
    7.3530    1.1890    1.4180 C   0  0  0  0  0  0  0  0  0  0  0  0
    8.8010    1.0760    1.8770 C   0  0  2  0  0  0  0  0  0  0  0  0
    9.6300    0.7450    0.6460 C   0  0  0  0  0  0  0  0  0  0  0  0
    9.0140    0.0880    2.9770 C   0  0  0  0  0  0  0  0  0  0  0  0
    8.2820   -1.2130    2.7720 C   0  0  2  0  0  0  0  0  0  0  0  0
    8.9530   -2.1240    1.9900 O   0  0  0  0  0  0  0  0  0  0  0  0
    6.8940   -1.0180    2.2670 C   0  0  0  0  0  0  0  0  0  0  0  0
    3.9980   -0.0070   -2.9690 C   0  0  0  0  0  0  0  0  0  0  0  0
    2.8370   -0.3550   -3.6000 C   0  0  0  0  0  0  0  0  0  0  0  0
    1.6840   -0.6010   -2.8490 C   0  0  0  0  0  0  0  0  0  0  0  0
    0.5280   -1.1340   -3.4650 N   0  0  0  0  0  0  0  0  0  0  0  0
    0.0520   -2.4370   -2.9620 C   0  0  0  0  0  0  0  0  0  0  0  0
   -0.1580   -0.5030   -4.5220 C   0  0  0  0  0  0  0  0  0  0  0  0
    0.2060    0.6170   -4.9180 O   0  0  0  0  0  0  0  0  0  0  0  0
  1  2  1  0
  2  3  1  0
  3  4  1  0
  4  5  1  0
  5  6  2  0
  5 11  1  0
  6  7  1  0
  7  8  1  0
  7  9  2  0
  9 10  1  0
 10 11  2  0
 11 12  1  0
 12 13  1  0
 13 14  1  0
 14 15  2  0
 14 16  1  0
 16 17  1  0
 16 18  1  0
 18 19  1  0
 19 20  2  0
 19 21  1  0
 21 22  2  0
 21 37  1  0
 22 23  1  0
 23 24  1  0
 23 35  2  0
 24 25  1  0
 25 26  2  0
 27 25  1  1
 27 28  1  0
 27 34  1  0
 28 29  1  0
 29 30  1  6
 29 31  1  0
 31 32  1  0
 32 33  1  6
 32 34  1  0
 35 36  1  0
 36 37  2  0
 37 38  1  0
 38 39  1  0
 38 40  1  0
 40 41  2  0
M  END
