
     RDKit          3D

 41 43  0  0  0  0  0  0  0  0999 V2000
   -2.1510   -6.1910    0.9550 C   0  0  0  0  0  0  0  0  0  0  0  0
   -2.1980   -4.7950    1.5720 C   0  0  0  0  0  0  0  0  0  0  0  0
   -3.4840   -4.0890    1.2260 C   0  0  0  0  0  0  0  0  0  0  0  0
   -3.6720   -3.9270   -0.2610 C   0  0  0  0  0  0  0  0  0  0  0  0
   -2.6130   -3.1420   -0.9320 C   0  0  0  0  0  0  0  0  0  0  0  0
   -2.4510   -1.7130   -0.4470 C   0  0  1  0  0  0  0  0  0  0  0  0
   -1.3720   -1.0520   -1.1600 N   0  0  0  0  0  0  0  0  0  0  0  0
   -0.0650   -0.8240   -0.7630 C   0  0  0  0  0  0  0  0  0  0  0  0
    0.8330   -1.2070   -1.6150 O   0  0  0  0  0  0  0  0  0  0  0  0
    0.4740   -0.2210    0.4560 C   0  0  1  0  0  0  0  0  0  0  0  0
    1.3670    1.3050   -0.0220 S   0  0  0  0  0  0  0  0  0  0  0  0
    2.7850    0.9810   -1.0160 C   0  0  0  0  0  0  0  0  0  0  0  0
    2.6210    0.9430   -2.3820 C   0  0  0  0  0  0  0  0  0  0  0  0
    3.6880    0.7040   -3.2030 C   0  0  0  0  0  0  0  0  0  0  0  0
    4.9400    0.5020   -2.6210 C   0  0  0  0  0  0  0  0  0  0  0  0
    5.1070    0.5390   -1.2820 C   0  0  0  0  0  0  0  0  0  0  0  0
    6.4160    0.3250   -0.6780 C   0  0  0  0  0  0  0  0  0  0  0  0
    6.5640    0.3650    0.7100 C   0  0  0  0  0  0  0  0  0  0  0  0
    7.7970    0.1620    1.2670 C   0  0  0  0  0  0  0  0  0  0  0  0
    8.9180   -0.0830    0.5100 C   0  0  0  0  0  0  0  0  0  0  0  0
    8.7670   -0.1190   -0.8560 C   0  0  0  0  0  0  0  0  0  0  0  0
    7.5100    0.0860   -1.4400 C   0  0  0  0  0  0  0  0  0  0  0  0
    4.0100    0.7800   -0.5210 N   0  0  0  0  0  0  0  0  0  0  0  0
   -0.4390   -0.0260    1.5700 C   0  0  0  0  0  0  0  0  0  0  0  0
   -0.4480   -0.9840    2.4400 O   0  0  0  0  0  0  0  0  0  0  0  0
   -1.3220    1.0520    1.8540 N   0  0  0  0  0  0  0  0  0  0  0  0
   -1.3570    2.3460    1.2830 C   0  0  0  0  0  0  0  0  0  0  0  0
   -1.3840    3.3810    2.1290 C   0  0  0  0  0  0  0  0  0  0  0  0
   -1.3810    3.2550    3.5390 C   0  0  0  0  0  0  0  0  0  0  0  0
   -1.4150    4.3320    4.2500 O   0  0  0  0  0  0  0  0  0  0  0  0
   -1.3420    2.0920    4.2770 O   0  0  0  0  0  0  0  0  0  0  0  0
   -1.3420    2.1160    5.7070 C   0  0  0  0  0  0  0  0  0  0  0  0
   -1.3460    2.6500   -0.1530 C   0  0  0  0  0  0  0  0  0  0  0  0
   -1.9790    2.2250   -1.2050 C   0  0  0  0  0  0  0  0  0  0  0  0
   -1.6180    2.8670   -2.5700 C   0  0  0  0  0  0  0  0  0  0  0  0
   -2.7520    3.4890   -3.1620 N   0  0  0  0  0  0  0  0  0  0  0  0
   -3.2370    4.6540   -2.4860 C   0  0  0  0  0  0  0  0  0  0  0  0
   -2.9840    1.2680   -1.4010 N   0  0  0  0  0  0  0  0  0  0  0  0
   -3.7810    0.5150   -0.4580 C   0  0  0  0  0  0  0  0  0  0  0  0
   -3.6660   -0.9450   -0.8150 C   0  0  0  0  0  0  0  0  0  0  0  0
   -4.5540   -1.5060   -1.4010 O   0  0  0  0  0  0  0  0  0  0  0  0
  1  2  1  0
  2  3  1  0
  3  4  1  0
  4  5  1  0
  6  5  1  6
  6  7  1  0
  6 40  1  0
  7  8  1  0
  8  9  2  0
  8 10  1  0
 10 11  1  6
 10 24  1  0
 11 12  1  0
 12 13  2  0
 12 23  1  0
 13 14  1  0
 14 15  2  0
 15 16  1  0
 16 17  1  0
 16 23  2  0
 17 18  2  0
 17 22  1  0
 18 19  1  0
 19 20  2  0
 20 21  1  0
 21 22  2  0
 24 25  2  0
 24 26  1  0
 26 27  1  0
 27 28  2  3
 27 33  1  0
 28 29  1  0
 29 30  2  0
 29 31  1  0
 31 32  1  0
 33 34  2  0
 34 35  1  0
 34 38  1  0
 35 36  1  0
 36 37  1  0
 38 39  1  0
 39 40  1  0
 40 41  2  0
M  END
