
     RDKit          3D

 41 43  0  0  0  0  0  0  0  0999 V2000
   -3.8950    3.7650    0.2500 C   0  0  0  0  0  0  0  0  0  0  0  0
   -3.7270    2.8800    1.4330 C   0  0  0  0  0  0  0  0  0  0  0  0
   -3.3220    1.4670    1.0840 C   0  0  0  0  0  0  0  0  0  0  0  0
   -2.0230    1.3880    0.3570 C   0  0  2  0  0  0  0  0  0  0  0  0
   -1.6520   -0.3440    0.0080 S   0  0  0  0  0  0  0  0  0  0  0  0
   -2.6780   -1.0880   -1.2030 C   0  0  0  0  0  0  0  0  0  0  0  0
   -2.5770   -2.4270   -1.4220 N   0  0  0  0  0  0  0  0  0  0  0  0
   -3.3350   -3.0840   -2.3130 C   0  0  0  0  0  0  0  0  0  0  0  0
   -3.2000   -4.5360   -2.5260 C   0  0  0  0  0  0  0  0  0  0  0  0
   -2.2140   -5.0880   -1.7000 O   0  0  0  0  0  0  0  0  0  0  0  0
   -4.2540   -2.3830   -3.0390 C   0  0  0  0  0  0  0  0  0  0  0  0
   -5.1090   -3.0820   -4.0320 C   0  0  0  0  0  0  0  0  0  0  0  0
   -4.3650   -1.0350   -2.8280 C   0  0  0  0  0  0  0  0  0  0  0  0
   -5.2040   -0.3710   -3.4830 O   0  0  0  0  0  0  0  0  0  0  0  0
   -3.5710   -0.4220   -1.9130 N   0  0  0  0  0  0  0  0  0  0  0  0
   -0.8650    1.9860    1.0160 C   0  0  0  0  0  0  0  0  0  0  0  0
   -0.2650    2.8950    0.3230 O   0  0  0  0  0  0  0  0  0  0  0  0
   -0.3170    1.7220    2.2710 N   0  0  0  0  0  0  0  0  0  0  0  0
   -1.0290    0.9570    3.2740 C   0  0  0  0  0  0  0  0  0  0  0  0
   -1.8000    1.6120    4.1910 C   0  0  0  0  0  0  0  0  0  0  0  0
   -2.4890    0.9350    5.1620 C   0  0  0  0  0  0  0  0  0  0  0  0
   -2.4060   -0.4470    5.2210 C   0  0  0  0  0  0  0  0  0  0  0  0
   -3.1580   -1.1810    6.2770 C   0  0  0  0  0  0  0  0  0  0  0  0
   -1.6190   -1.0950    4.2830 C   0  0  0  0  0  0  0  0  0  0  0  0
   -0.9280   -0.4040    3.3090 C   0  0  0  0  0  0  0  0  0  0  0  0
    1.0320    2.1110    2.6230 C   0  0  2  0  0  0  0  0  0  0  0  0
    1.3330    3.5540    2.4780 C   0  0  0  0  0  0  0  0  0  0  0  0
    2.0870    1.1570    2.2090 C   0  0  0  0  0  0  0  0  0  0  0  0
    2.3400    0.7810    0.8500 C   0  0  0  0  0  0  0  0  0  0  0  0
    1.7880    1.0580   -0.2230 O   0  0  0  0  0  0  0  0  0  0  0  0
    3.4860   -0.1170    0.6720 N   0  0  0  0  0  0  0  0  0  0  0  0
    3.8040   -0.5370   -0.6390 C   0  0  0  0  0  0  0  0  0  0  0  0
    4.9750   -0.2400   -1.1560 C   0  0  0  0  0  0  0  0  0  0  0  0
    5.4580   -0.6060   -2.5080 C   0  0  2  0  0  0  0  0  0  0  0  0
    6.4160    0.4770   -2.9650 C   0  0  0  0  0  0  0  0  0  0  0  0
    7.5880    0.5960   -2.0190 C   0  0  0  0  0  0  0  0  0  0  0  0
    4.3020   -0.7740   -3.4330 C   0  0  1  0  0  0  0  0  0  0  0  0
    4.6720   -1.2920   -4.7870 C   0  0  0  0  0  0  0  0  0  0  0  0
    3.3330   -1.6380   -2.7880 N   0  0  0  0  0  0  0  0  0  0  0  0
    2.8580   -1.2990   -1.4720 C   0  0  0  0  0  0  0  0  0  0  0  0
    1.7350   -1.6150   -1.0460 O   0  0  0  0  0  0  0  0  0  0  0  0
  1  2  1  0
  2  3  1  0
  4  3  1  1
  4  5  1  0
  4 16  1  0
  5  6  1  0
  6  7  2  0
  6 15  1  0
  7  8  1  0
  8  9  1  0
  8 11  2  0
  9 10  1  0
 11 12  1  0
 11 13  1  0
 13 14  2  0
 13 15  1  0
 16 17  2  0
 16 18  1  0
 18 19  1  0
 18 26  1  0
 19 20  2  0
 19 25  1  0
 20 21  1  0
 21 22  2  0
 22 23  1  0
 22 24  1  0
 24 25  2  0
 26 27  1  6
 26 28  1  0
 28 29  1  0
 29 30  2  0
 29 31  1  0
 31 32  1  0
 32 33  2  0
 32 40  1  0
 33 34  1  0
 34 35  1  6
 34 37  1  0
 35 36  1  0
 37 38  1  6
 37 39  1  0
 39 40  1  0
 40 41  2  0
M  END
