
     RDKit          3D

 41 43  0  0  0  0  0  0  0  0999 V2000
    9.0220   -0.2900    0.3500 C   0  0  0  0  0  0  0  0  0  0  0  0
    8.5470    0.8890   -0.5280 C   0  0  0  0  0  0  0  0  0  0  0  0
    8.1330    2.0620    0.2240 C   0  0  1  0  0  0  0  0  0  0  0  0
    9.1140    2.7740    1.0720 C   0  0  0  0  0  0  0  0  0  0  0  0
    9.8760    3.3100    1.7390 N   0  0  0  0  0  0  0  0  0  0  0  0
    7.3200    2.9880   -0.5480 N   0  0  0  0  0  0  0  0  0  0  0  0
    5.9570    2.6380   -0.7370 C   0  0  0  0  0  0  0  0  0  0  0  0
    5.5890    1.5160   -0.2070 O   0  0  0  0  0  0  0  0  0  0  0  0
    4.9290    3.3600   -1.4470 C   0  0  0  0  0  0  0  0  0  0  0  0
    3.5420    3.0040   -0.9080 C   0  0  0  0  0  0  0  0  0  0  0  0
    3.4670    3.2310    0.6120 C   0  0  0  0  0  0  0  0  0  0  0  0
    2.0610    2.8850    1.0480 C   0  0  0  0  0  0  0  0  0  0  0  0
    1.1970    3.7810    1.1270 O   0  0  0  0  0  0  0  0  0  0  0  0
    1.8100    1.4890    1.3390 N   0  0  0  0  0  0  0  0  0  0  0  0
    2.8700    0.5670    1.4330 C   0  0  0  0  0  0  0  0  0  0  0  0
    2.7230   -0.7160    1.2560 C   0  0  0  0  0  0  0  0  0  0  0  0
    1.3440   -1.2310    0.9670 C   0  0  0  0  0  0  0  0  0  0  0  0
    0.3290   -0.4460    0.9510 C   0  0  0  0  0  0  0  0  0  0  0  0
    0.4480    1.0240    1.2380 C   0  0  0  0  0  0  0  0  0  0  0  0
   -1.0480   -0.9680    0.6320 C   0  0  0  0  0  0  0  0  0  0  0  0
   -2.0990   -0.0160    0.4890 C   0  0  0  0  0  0  0  0  0  0  0  0
   -1.8980    1.1630    0.9700 O   0  0  0  0  0  0  0  0  0  0  0  0
   -3.3920   -0.0700   -0.1030 N   0  0  0  0  0  0  0  0  0  0  0  0
   -4.2500    1.1070    0.0030 C   0  0  2  0  0  0  0  0  0  0  0  0
   -4.9420    0.9510    1.3460 C   0  0  0  0  0  0  0  0  0  0  0  0
   -5.0780    1.3990   -1.1610 C   0  0  2  0  0  0  0  0  0  0  0  0
   -5.9470    2.6490   -0.9320 C   0  0  0  0  0  0  0  0  0  0  0  0
   -5.9060    0.2910   -1.7480 C   0  0  0  0  0  0  0  0  0  0  0  0
   -6.9890   -0.2850   -0.9460 C   0  0  0  0  0  0  0  0  0  0  0  0
   -7.9810    0.6370   -0.5850 O   0  0  0  0  0  0  0  0  0  0  0  0
   -1.1340   -2.2510    0.3320 C   0  0  0  0  0  0  0  0  0  0  0  0
   -2.4180   -2.8590    0.0970 N   0  0  0  0  0  0  0  0  0  0  0  0
   -2.5220   -4.2350   -0.3040 C   0  0  0  0  0  0  0  0  0  0  0  0
   -1.6030   -4.9410   -0.6020 O   0  0  0  0  0  0  0  0  0  0  0  0
   -3.9390   -4.8370   -0.3380 C   0  0  0  0  0  0  0  0  0  0  0  0
   -5.0360   -4.4940    0.0860 C   0  0  0  0  0  0  0  0  0  0  0  0
   -6.1750   -5.3290    0.1590 C   0  0  0  0  0  0  0  0  0  0  0  0
   -5.8410   -6.6690   -0.3460 C   0  0  0  0  0  0  0  0  0  0  0  0
   -4.1320   -6.5450   -0.8110 S   0  0  0  0  0  0  0  0  0  0  0  0
    0.0150   -3.1750    0.1870 C   0  0  0  0  0  0  0  0  0  0  0  0
    1.3050   -2.6940    0.7130 C   0  0  0  0  0  0  0  0  0  0  0  0
  1  2  1  0
  3  2  1  6
  3  4  1  0
  3  6  1  0
  4  5  3  0
  6  7  1  0
  7  8  2  0
  7  9  1  0
  9 10  1  0
 10 11  1  0
 11 12  1  0
 12 13  2  0
 12 14  1  0
 14 15  1  0
 14 19  1  0
 15 16  2  0
 16 17  1  0
 17 18  2  0
 17 41  1  0
 18 19  1  0
 18 20  1  0
 20 21  1  0
 20 31  2  0
 21 22  2  0
 21 23  1  0
 23 24  1  0
 24 25  1  1
 24 26  1  0
 26 27  1  1
 26 28  1  0
 28 29  1  0
 29 30  1  0
 31 32  1  0
 31 40  1  0
 32 33  1  0
 33 34  2  0
 33 35  1  0
 35 36  2  0
 35 39  1  0
 36 37  1  0
 37 38  2  0
 38 39  1  0
 40 41  1  0
M  END
