
     RDKit          3D

 41 43  0  0  0  0  0  0  0  0999 V2000
   -5.6220   -2.2480   -3.5850 C   0  0  0  0  0  0  0  0  0  0  0  0
   -4.9780   -2.3860   -2.4340 C   0  0  0  0  0  0  0  0  0  0  0  0
   -5.0740   -3.5390   -1.6740 O   0  0  0  0  0  0  0  0  0  0  0  0
   -4.4470   -3.6430   -0.4340 C   0  0  0  0  0  0  0  0  0  0  0  0
   -4.2240   -2.4080    0.3490 C   0  0  0  0  0  0  0  0  0  0  0  0
   -4.1700   -1.1110   -0.4400 C   0  0  1  0  0  0  0  0  0  0  0  0
   -3.1710   -0.2710    0.1100 N   0  0  0  0  0  0  0  0  0  0  0  0
   -1.7410   -0.4680   -0.0730 C   0  0  0  0  0  0  0  0  0  0  0  0
   -1.3880   -1.5830   -0.5840 O   0  0  0  0  0  0  0  0  0  0  0  0
   -0.8080    0.4660    0.2670 N   0  0  0  0  0  0  0  0  0  0  0  0
    0.6420    0.5270    0.2400 C   0  0  2  0  0  0  0  0  0  0  0  0
    1.0280    1.8700   -0.3660 C   0  0  0  0  0  0  0  0  0  0  0  0
    2.2420    1.7770   -1.3090 C   0  0  0  0  0  0  0  0  0  0  0  0
    3.1930    1.1250   -0.4330 N   0  0  0  0  0  0  0  0  0  0  0  0
    4.3190    1.6750    0.0920 C   0  0  0  0  0  0  0  0  0  0  0  0
    5.0360    1.4400    0.9910 O   0  0  0  0  0  0  0  0  0  0  0  0
    4.8210    3.0800   -0.8230 N   0  0  0  0  0  0  0  0  0  0  0  0
    5.7030    3.5870    0.1020 C   0  0  0  0  0  0  0  0  0  0  0  0
    6.0000    3.3160    1.2370 O   0  0  0  0  0  0  0  0  0  0  0  0
    6.4400    4.7460   -0.4990 N   0  0  0  0  0  0  0  0  0  0  0  0
    7.3970    5.4920    0.1950 C   0  0  0  0  0  0  0  0  0  0  0  0
    6.8710    6.2420    1.2820 O   0  0  0  0  0  0  0  0  0  0  0  0
    2.8720   -0.2370   -0.1510 C   0  0  0  0  0  0  0  0  0  0  0  0
    1.3430   -0.5770   -0.4820 C   0  0  1  0  0  0  0  0  0  0  0  0
    1.2800   -1.9260    0.2380 C   0  0  0  0  0  0  0  0  0  0  0  0
    1.8050   -3.0170   -0.6850 C   0  0  0  0  0  0  0  0  0  0  0  0
    1.7900   -4.5850    0.2140 S   0  0  0  0  0  0  0  0  0  0  0  0
    3.3660   -4.7110    1.1870 C   0  0  0  0  0  0  0  0  0  0  0  0
    4.4130   -4.9270    0.0810 C   0  0  0  0  0  0  0  0  0  0  0  0
    5.7810   -5.0760    0.6430 C   0  0  0  0  0  0  0  0  0  0  0  0
   -3.5920    0.8520    0.9280 C   0  0  0  0  0  0  0  0  0  0  0  0
   -3.5570    0.6260    2.3090 C   0  0  0  0  0  0  0  0  0  0  0  0
   -3.9220    1.5830    3.2310 C   0  0  0  0  0  0  0  0  0  0  0  0
   -3.8730    1.3170    4.6910 C   0  0  0  0  0  0  0  0  0  0  0  0
   -4.3370    2.8060    2.7480 C   0  0  0  0  0  0  0  0  0  0  0  0
   -4.3760    3.0290    1.3940 C   0  0  0  0  0  0  0  0  0  0  0  0
   -4.8410    4.3340    0.8610 C   0  0  0  0  0  0  0  0  0  0  0  0
   -4.0010    2.0460    0.4740 C   0  0  0  0  0  0  0  0  0  0  0  0
   -4.1230   -1.3220   -1.9000 C   0  0  0  0  0  0  0  0  0  0  0  0
   -3.3780   -0.6060   -2.6790 C   0  0  0  0  0  0  0  0  0  0  0  0
   -3.2020   -0.6570   -4.1350 C   0  0  0  0  0  0  0  0  0  0  0  0
  1  2  2  0
  2  3  1  0
  2 39  1  0
  3  4  1  0
  4  5  1  0
  5  6  1  0
  6  7  1  1
  6 39  1  0
  7  8  1  0
  7 31  1  0
  8  9  2  0
  8 10  1  0
 11 10  1  6
 11 12  1  0
 11 24  1  0
 12 13  1  0
 13 14  1  0
 14 15  1  0
 14 23  1  0
 15 16  2  0
 15 17  1  0
 17 18  1  0
 18 19  2  0
 18 20  1  0
 20 21  1  0
 21 22  1  0
 23 24  1  0
 24 25  1  1
 25 26  1  0
 26 27  1  0
 27 28  1  0
 28 29  1  0
 29 30  1  0
 31 32  2  0
 31 38  1  0
 32 33  1  0
 33 34  1  0
 33 35  2  0
 35 36  1  0
 36 37  1  0
 36 38  2  0
 39 40  2  3
 40 41  1  0
M  END
