
     RDKit          3D

 41 44  0  0  0  0  0  0  0  0999 V2000
   -3.3300    4.9710   -0.0850 C   0  0  0  0  0  0  0  0  0  0  0  0
   -2.8440    3.8290   -0.8580 N   0  0  0  0  0  0  0  0  0  0  0  0
   -3.8930    3.0780   -1.4920 C   0  0  1  0  0  0  0  0  0  0  0  0
   -4.9540    3.8890   -2.1420 C   0  0  0  0  0  0  0  0  0  0  0  0
   -4.7080    3.7840   -3.5060 O   0  0  0  0  0  0  0  0  0  0  0  0
   -4.4410    2.4210   -3.6500 C   0  0  2  0  0  0  0  0  0  0  0  0
   -5.5050    1.6370   -3.2520 O   0  0  0  0  0  0  0  0  0  0  0  0
   -5.0760    0.7160   -2.3060 C   0  0  0  0  0  0  0  0  0  0  0  0
   -3.5450    0.7440   -2.3260 C   0  0  2  0  0  0  0  0  0  0  0  0
   -3.0070    0.4250   -1.0850 O   0  0  0  0  0  0  0  0  0  0  0  0
   -2.1380   -0.6860   -0.9400 C   0  0  0  0  0  0  0  0  0  0  0  0
   -1.8590   -1.4030   -1.9140 O   0  0  0  0  0  0  0  0  0  0  0  0
   -1.6270   -0.9270    0.3360 N   0  0  0  0  0  0  0  0  0  0  0  0
   -0.7590   -2.0140    0.7230 C   0  0  1  0  0  0  0  0  0  0  0  0
   -1.1030   -3.2940    0.0140 C   0  0  0  0  0  0  0  0  0  0  0  0
   -0.2540   -4.4430    0.4290 C   0  0  0  0  0  0  0  0  0  0  0  0
   -0.6170   -5.1560    1.5770 C   0  0  0  0  0  0  0  0  0  0  0  0
    0.0650   -6.2490    2.0250 C   0  0  0  0  0  0  0  0  0  0  0  0
    1.1640   -6.7040    1.3470 C   0  0  0  0  0  0  0  0  0  0  0  0
    1.5540   -6.0130    0.1960 C   0  0  0  0  0  0  0  0  0  0  0  0
    0.8440   -4.9010   -0.2420 C   0  0  0  0  0  0  0  0  0  0  0  0
    0.6750   -1.6350    0.7540 C   0  0  2  0  0  0  0  0  0  0  0  0
    0.7630   -0.5670    1.6840 O   0  0  0  0  0  0  0  0  0  0  0  0
    1.2570   -1.2570   -0.5550 C   0  0  0  0  0  0  0  0  0  0  0  0
    2.6020   -0.8650   -0.6110 N   0  0  0  0  0  0  0  0  0  0  0  0
    3.5890   -1.5300    0.1030 C   0  0  0  0  0  0  0  0  0  0  0  0
    4.6010   -2.3270   -0.6460 C   0  0  1  0  0  0  0  0  0  0  0  0
    3.9600   -3.4380   -1.4540 C   0  0  0  0  0  0  0  0  0  0  0  0
    5.5670   -1.5570   -1.4920 C   0  0  0  0  0  0  0  0  0  0  0  0
    2.8600    0.8010   -0.8700 S   0  0  1  0  0  0  0  0  0  0  0  0
    4.3220    1.0910   -1.1750 O   0  0  0  0  0  0  0  0  0  0  0  0
    2.1460    1.1480   -2.1820 O   0  0  0  0  0  0  0  0  0  0  0  0
    2.2410    1.8620    0.3300 C   0  0  0  0  0  0  0  0  0  0  0  0
    1.0300    2.5140    0.1360 C   0  0  0  0  0  0  0  0  0  0  0  0
    0.5500    3.3850    1.0750 C   0  0  0  0  0  0  0  0  0  0  0  0
    1.2810    3.6180    2.2380 C   0  0  0  0  0  0  0  0  0  0  0  0
    0.7440    4.5100    3.1510 O   0  0  0  0  0  0  0  0  0  0  0  0
    1.4500    4.7650    4.3400 C   0  0  0  0  0  0  0  0  0  0  0  0
    2.4790    2.9650    2.4230 C   0  0  0  0  0  0  0  0  0  0  0  0
    2.9910    2.0740    1.4800 C   0  0  0  0  0  0  0  0  0  0  0  0
   -3.3480    2.2120   -2.6060 C   0  0  2  0  0  0  0  0  0  0  0  0
  1  2  1  0
  3  2  1  6
  3  4  1  0
 41  3  1  1
  4  5  1  0
  6  5  1  1
  6  7  1  0
  6 41  1  0
  7  8  1  0
  8  9  1  0
  9 10  1  1
  9 41  1  0
 10 11  1  0
 11 12  2  0
 11 13  1  0
 13 14  1  0
 14 15  1  6
 14 22  1  0
 15 16  1  0
 16 17  2  0
 16 21  1  0
 17 18  1  0
 18 19  2  0
 19 20  1  0
 20 21  2  0
 22 23  1  1
 22 24  1  0
 24 25  1  0
 25 26  1  0
 30 25  1  1
 26 27  1  0
 27 28  1  6
 27 29  1  0
 30 31  2  0
 30 32  2  0
 30 33  1  0
 33 34  2  0
 33 40  1  0
 34 35  1  0
 35 36  2  0
 36 37  1  0
 36 39  1  0
 37 38  1  0
 39 40  2  0
M  CHG  1   2   1
M  END
