
     RDKit          3D

 41 44  0  0  0  0  0  0  0  0999 V2000
    7.3270   -3.0590   -1.0190 C   0  0  0  0  0  0  0  0  0  0  0  0
    8.0960   -1.7560   -0.9770 C   0  0  0  0  0  0  0  0  0  0  0  0
    7.3760   -0.6460   -1.6660 C   0  0  0  0  0  0  0  0  0  0  0  0
    6.0180   -0.3570   -1.0550 C   0  0  0  0  0  0  0  0  0  0  0  0
    6.1940    0.0390    0.3900 C   0  0  0  0  0  0  0  0  0  0  0  0
    4.9140    0.3710    1.0800 C   0  0  0  0  0  0  0  0  0  0  0  0
    4.1990    1.5550    0.5490 C   0  0  0  0  0  0  0  0  0  0  0  0
    4.7820    2.4430   -0.3190 C   0  0  0  0  0  0  0  0  0  0  0  0
    4.0770    3.5280   -0.8300 C   0  0  0  0  0  0  0  0  0  0  0  0
    2.7700    3.6750   -0.4280 C   0  0  0  0  0  0  0  0  0  0  0  0
    1.9810    4.6980   -0.8600 C   0  0  0  0  0  0  0  0  0  0  0  0
    0.6790    4.8170   -0.4400 C   0  0  0  0  0  0  0  0  0  0  0  0
    0.1670    3.9110    0.4160 N   0  0  0  0  0  0  0  0  0  0  0  0
    0.8950    2.8840    0.8750 C   0  0  0  0  0  0  0  0  0  0  0  0
    0.1910    1.7170    1.9940 S   0  0  0  0  0  0  0  0  0  0  0  0
   -0.8020    2.3190    2.9440 O   0  0  0  0  0  0  0  0  0  0  0  0
   -0.5410    0.3830    0.9940 C   0  0  1  0  0  0  0  0  0  0  0  0
   -1.1370   -0.6070    1.9310 C   0  0  0  0  0  0  0  0  0  0  0  0
   -1.6890   -1.7490    1.1360 C   0  0  1  0  0  0  0  0  0  0  0  0
   -0.5530   -2.7220    0.8860 C   0  0  0  0  0  0  0  0  0  0  0  0
   -2.6870   -2.4650    2.0000 C   0  0  0  0  0  0  0  0  0  0  0  0
   -2.3040   -1.2980   -0.1980 C   0  0  1  0  0  0  0  0  0  0  0  0
   -3.1250   -2.3760   -0.7200 C   0  0  0  0  0  0  0  0  0  0  0  0
   -2.4170   -3.4530   -0.6300 O   0  0  0  0  0  0  0  0  0  0  0  0
   -4.3600   -2.7290   -1.2780 N   0  0  0  0  0  0  0  0  0  0  0  0
   -5.4060   -2.1060   -1.9700 C   0  0  0  0  0  0  0  0  0  0  0  0
   -5.4860   -0.7060   -2.0260 N   0  0  0  0  0  0  0  0  0  0  0  0
   -4.6310    0.3690   -1.7130 C   0  0  0  0  0  0  0  0  0  0  0  0
   -5.2550    1.4210   -1.4430 O   0  0  0  0  0  0  0  0  0  0  0  0
   -3.1490    0.4520   -1.6550 C   0  0  2  0  0  0  0  0  0  0  0  0
   -2.8080    1.8850   -2.0010 C   0  0  0  0  0  0  0  0  0  0  0  0
   -2.5190   -0.3930   -2.5620 O   0  0  0  0  0  0  0  0  0  0  0  0
   -2.7480    0.0950   -0.2230 C   0  0  1  0  0  0  0  0  0  0  0  0
   -3.6590    0.5650    0.7920 C   0  0  0  0  0  0  0  0  0  0  0  0
   -3.4110    1.6280    1.4250 O   0  0  0  0  0  0  0  0  0  0  0  0
   -4.8910   -0.0690    1.1920 N   0  0  0  0  0  0  0  0  0  0  0  0
   -5.7390    0.4980    2.2290 C   0  0  0  0  0  0  0  0  0  0  0  0
   -6.9280   -0.4070    2.3940 C   0  0  0  0  0  0  0  0  0  0  0  0
   -1.4470    0.9270   -0.0520 C   0  0  0  0  0  0  0  0  0  0  0  0
    2.1940    2.7640    0.4560 C   0  0  0  0  0  0  0  0  0  0  0  0
    2.8980    1.7340    0.9270 N   0  0  0  0  0  0  0  0  0  0  0  0
  1  2  1  0
  2  3  1  0
  3  4  1  0
  4  5  1  0
  5  6  1  0
  6  7  1  0
  7  8  2  0
  7 41  1  0
  8  9  1  0
  9 10  2  0
 10 11  1  0
 10 40  1  0
 11 12  2  0
 12 13  1  0
 13 14  2  0
 15 14  1  6
 14 40  1  0
 15 16  2  0
 15 17  1  0
 17 18  1  1
 17 39  1  0
 18 19  1  0
 19 20  1  6
 19 21  1  0
 19 22  1  0
 22 23  1  1
 22 33  1  0
 23 24  2  0
 23 25  1  0
 25 26  1  0
 26 27  1  0
 27 28  1  0
 28 29  2  0
 28 30  1  0
 30 31  1  6
 30 32  1  0
 30 33  1  0
 33 34  1  1
 33 39  1  0
 34 35  2  0
 34 36  1  0
 36 37  1  0
 37 38  1  0
 40 41  2  0
M  END
