
     RDKit          3D

 42 45  0  0  0  0  0  0  0  0999 V2000
   -3.5250    1.3350   -2.0660 C   0  0  0  0  0  0  0  0  0  0  0  0
   -2.4980    0.7630   -1.1810 C   0  0  0  0  0  0  0  0  0  0  0  0
   -2.1050    1.5020   -0.2290 O   0  0  0  0  0  0  0  0  0  0  0  0
   -1.9080   -0.5190   -1.2860 N   0  0  0  0  0  0  0  0  0  0  0  0
   -2.3390   -1.4110   -2.3310 C   0  0  0  0  0  0  0  0  0  0  0  0
   -3.4400   -2.3390   -1.9610 C   0  0  0  0  0  0  0  0  0  0  0  0
   -4.6370   -1.5830   -1.5620 C   0  0  0  0  0  0  0  0  0  0  0  0
   -4.7390   -1.2250   -0.2170 C   0  0  0  0  0  0  0  0  0  0  0  0
   -5.8570   -0.5230    0.1700 C   0  0  0  0  0  0  0  0  0  0  0  0
   -6.8340   -0.1920   -0.7450 C   0  0  0  0  0  0  0  0  0  0  0  0
   -7.9880    0.5390   -0.3610 N   0  0  0  0  0  0  0  0  0  0  0  0
   -8.1050    0.9360    1.0220 C   0  0  0  0  0  0  0  0  0  0  0  0
   -9.3150    1.7250    1.3170 C   0  0  0  0  0  0  0  0  0  0  0  0
   -9.3790    3.0870    1.2460 N   0  0  0  0  0  0  0  0  0  0  0  0
  -10.6290    3.4100    1.5860 C   0  0  0  0  0  0  0  0  0  0  0  0
  -11.3210    2.2490    1.8620 C   0  0  0  0  0  0  0  0  0  0  0  0
  -10.4760    1.2050    1.6870 N   0  0  0  0  0  0  0  0  0  0  0  0
   -6.7080   -0.5630   -2.0820 C   0  0  0  0  0  0  0  0  0  0  0  0
   -5.5930   -1.2640   -2.4740 C   0  0  0  0  0  0  0  0  0  0  0  0
   -0.9060   -0.9540   -0.3970 C   0  0  0  0  0  0  0  0  0  0  0  0
   -0.4290   -0.3080    0.5720 N   0  0  0  0  0  0  0  0  0  0  0  0
    0.5510   -0.8790    1.3490 C   0  0  0  0  0  0  0  0  0  0  0  0
    1.1660   -0.2450    2.2780 O   0  0  0  0  0  0  0  0  0  0  0  0
    0.8820   -2.2920    1.0690 C   0  0  2  0  0  0  0  0  0  0  0  0
    0.3960   -3.2050    2.1770 C   0  0  0  0  0  0  0  0  0  0  0  0
    2.3030   -2.4820    0.7720 C   0  0  0  0  0  0  0  0  0  0  0  0
    2.9280   -3.3570    1.4670 O   0  0  0  0  0  0  0  0  0  0  0  0
    3.0160   -1.7830   -0.2070 N   0  0  0  0  0  0  0  0  0  0  0  0
    2.4840   -0.7780   -1.0860 C   0  0  0  0  0  0  0  0  0  0  0  0
    4.4470   -2.1030   -0.3700 C   0  0  0  0  0  0  0  0  0  0  0  0
    5.3070   -1.2610    0.5550 C   0  0  2  0  0  0  0  0  0  0  0  0
    5.2160    0.0800    0.3750 O   0  0  0  0  0  0  0  0  0  0  0  0
    6.6860   -1.8560    0.5380 C   0  0  0  0  0  0  0  0  0  0  0  0
    7.7950   -0.9500    1.5900 S   0  0  0  0  0  0  0  0  0  0  0  0
    8.2040    0.6440    0.9480 C   0  0  0  0  0  0  0  0  0  0  0  0
    8.8780    1.4310    1.7830 C   0  0  0  0  0  0  0  0  0  0  0  0
    9.4050    2.8030    1.6590 C   0  0  0  0  0  0  0  0  0  0  0  0
    9.4760    3.2640    0.3080 N   0  0  0  0  0  0  0  0  0  0  0  0
    8.1300    3.4750   -0.2560 C   0  0  0  0  0  0  0  0  0  0  0  0
    7.7440    2.2060   -0.9700 C   0  0  0  0  0  0  0  0  0  0  0  0
    7.7930    1.0120   -0.4120 C   0  0  0  0  0  0  0  0  0  0  0  0
   -0.0780   -2.5260   -0.4490 S   0  0  0  0  0  0  0  0  0  0  0  0
  1  2  1  0
  2  3  2  0
  2  4  1  0
  4  5  1  0
  4 20  1  0
  5  6  1  0
  6  7  1  0
  7  8  2  0
  7 19  1  0
  8  9  1  0
  9 10  2  0
 10 11  1  0
 10 18  1  0
 11 12  1  0
 12 13  1  0
 13 14  2  0
 13 17  1  0
 14 15  1  0
 15 16  2  0
 16 17  1  0
 18 19  2  0
 20 21  2  0
 20 42  1  0
 21 22  1  0
 22 23  2  0
 22 24  1  0
 24 25  1  1
 24 26  1  0
 24 42  1  0
 26 27  2  0
 26 28  1  0
 28 29  1  0
 28 30  1  0
 30 31  1  0
 31 32  1  6
 31 33  1  0
 33 34  1  0
 34 35  1  0
 35 36  2  0
 35 41  1  0
 36 37  1  0
 37 38  1  0
 38 39  1  0
 39 40  1  0
 40 41  2  0
M  CHG  1  38   1
M  END
