
     RDKit          3D

 42 45  0  0  0  0  0  0  0  0999 V2000
   -1.8660   -3.8130    3.8470 C   0  0  0  0  0  0  0  0  0  0  0  0
   -0.5980   -4.9010    3.1520 S   0  0  0  0  0  0  0  0  0  0  0  0
   -0.0280   -4.2950    1.5450 C   0  0  0  0  0  0  0  0  0  0  0  0
    0.6920   -2.9850    1.7570 C   0  0  0  0  0  0  0  0  0  0  0  0
    1.2210   -2.4060    0.5460 N   0  0  0  0  0  0  0  0  0  0  0  0
    2.4890   -2.7260    0.1140 N   0  0  0  0  0  0  0  0  0  0  0  0
    2.7300   -2.0760   -0.9880 C   0  0  0  0  0  0  0  0  0  0  0  0
    1.6380   -1.3280   -1.2950 C   0  0  0  0  0  0  0  0  0  0  0  0
    0.6680   -1.5570   -0.2850 C   0  0  0  0  0  0  0  0  0  0  0  0
   -0.5620   -0.9140   -0.3900 N   0  0  0  0  0  0  0  0  0  0  0  0
   -1.7390   -1.0150    0.3860 C   0  0  0  0  0  0  0  0  0  0  0  0
   -1.7960   -1.7960    1.3310 O   0  0  0  0  0  0  0  0  0  0  0  0
   -2.9010   -0.2340    0.1240 N   0  0  0  0  0  0  0  0  0  0  0  0
   -4.1190   -0.2490    0.8350 C   0  0  0  0  0  0  0  0  0  0  0  0
   -4.3710   -0.9670    1.9730 C   0  0  0  0  0  0  0  0  0  0  0  0
   -5.5830   -0.9160    2.6140 C   0  0  0  0  0  0  0  0  0  0  0  0
   -6.5770   -0.1220    2.1020 C   0  0  0  0  0  0  0  0  0  0  0  0
   -7.8760   -0.0680    2.7960 C   0  0  0  0  0  0  0  0  0  0  0  0
   -7.9440    1.0380    3.7350 N   0  0  0  0  0  0  0  0  0  0  0  0
   -6.3640    0.6250    0.9470 C   0  0  0  0  0  0  0  0  0  0  0  0
   -5.1500    0.5610    0.3240 C   0  0  0  0  0  0  0  0  0  0  0  0
   -4.9310    1.3650   -0.9080 C   0  0  0  0  0  0  0  0  0  0  0  0
   -6.1360    2.0940   -1.2250 N   0  0  0  0  0  0  0  0  0  0  0  0
   -5.9780    2.9030   -2.4200 C   0  0  0  0  0  0  0  0  0  0  0  0
   -7.2450    3.6620   -2.7210 C   0  0  0  0  0  0  0  0  0  0  0  0
   -7.0880    4.4360   -3.8680 O   0  0  0  0  0  0  0  0  0  0  0  0
    1.6710   -0.5070   -2.5080 C   0  0  0  0  0  0  0  0  0  0  0  0
    3.0000    0.1750   -2.7640 C   0  0  0  0  0  0  0  0  0  0  0  0
    4.0860   -0.5620   -2.1320 N   0  0  0  0  0  0  0  0  0  0  0  0
    5.2560    0.1860   -1.7340 C   0  0  0  0  0  0  0  0  0  0  0  0
    5.2060    1.4100   -1.9980 O   0  0  0  0  0  0  0  0  0  0  0  0
    6.3730   -0.4210   -1.0930 C   0  0  0  0  0  0  0  0  0  0  0  0
    7.5100   -0.1170   -0.6160 C   0  0  0  0  0  0  0  0  0  0  0  0
    8.3300    1.0480   -0.4530 C   0  0  0  0  0  0  0  0  0  0  0  0
    8.0170    2.3400   -0.7970 C   0  0  0  0  0  0  0  0  0  0  0  0
    8.8810    3.4260   -0.6140 C   0  0  0  0  0  0  0  0  0  0  0  0
   10.1130    3.2130   -0.0630 C   0  0  0  0  0  0  0  0  0  0  0  0
   11.2120    4.5700    0.1740 S   0  0  0  0  0  0  0  0  0  0  0  0
   10.8060    5.6890   -0.7750 O   0  0  0  0  0  0  0  0  0  0  0  0
   10.4640    1.9350    0.2940 C   0  0  0  0  0  0  0  0  0  0  0  0
    9.6050    0.8960    0.1060 C   0  0  0  0  0  0  0  0  0  0  0  0
    3.8860   -1.9590   -1.9570 C   0  0  0  0  0  0  0  0  0  0  0  0
  1  2  1  0
  2  3  1  0
  3  4  1  0
  4  5  1  0
  5  6  1  0
  5  9  1  0
  6  7  2  0
  7  8  1  0
  7 42  1  0
  8  9  2  0
  8 27  1  0
  9 10  1  0
 10 11  1  0
 11 12  2  0
 11 13  1  0
 13 14  1  0
 14 15  2  0
 14 21  1  0
 15 16  1  0
 16 17  2  0
 17 18  1  0
 17 20  1  0
 18 19  1  0
 20 21  2  0
 21 22  1  0
 22 23  1  0
 23 24  1  0
 24 25  1  0
 25 26  1  0
 27 28  1  0
 28 29  1  0
 29 30  1  0
 29 42  1  0
 30 31  2  0
 30 32  1  0
 32 33  2  3
 33 34  1  0
 34 35  2  0
 34 41  1  0
 35 36  1  0
 36 37  2  0
 37 38  1  0
 37 40  1  0
 38 39  2  0
 40 41  2  0
M  CHG  1  19   1
M  END
