
     RDKit          3D

 42 45  0  0  0  0  0  0  0  0999 V2000
   -9.4640    3.4840    0.3800 C   0  0  0  0  0  0  0  0  0  0  0  0
   -8.5480    2.3550    0.4500 N   0  0  0  0  0  0  0  0  0  0  0  0
   -9.2840    1.0990    0.3620 C   0  0  0  0  0  0  0  0  0  0  0  0
   -8.3030   -0.0510    0.4390 C   0  0  1  0  0  0  0  0  0  0  0  0
   -7.5820   -0.0010    1.6990 N   0  0  0  0  0  0  0  0  0  0  0  0
   -6.2350   -0.4750    1.6230 C   0  0  0  0  0  0  0  0  0  0  0  0
   -5.2400    0.6410    1.3830 C   0  0  0  0  0  0  0  0  0  0  0  0
   -3.9230    0.0330    1.3280 N   0  0  0  0  0  0  0  0  0  0  0  0
   -3.4590   -0.3690    0.1340 C   0  0  0  0  0  0  0  0  0  0  0  0
   -2.1970   -0.9600   -0.0190 C   0  0  0  0  0  0  0  0  0  0  0  0
   -1.6810   -1.4290   -1.2760 C   0  0  0  0  0  0  0  0  0  0  0  0
   -0.5230   -1.0630   -1.8270 C   0  0  0  0  0  0  0  0  0  0  0  0
    0.1140   -1.6710   -3.4150 S   0  0  0  0  0  0  0  0  0  0  0  0
    1.8160   -1.1070   -3.1290 C   0  0  2  0  0  0  0  0  0  0  0  0
    2.9430   -2.4600   -2.7430 S   0  0  0  0  0  0  0  0  0  0  0  0
    3.7970   -1.9440   -1.2160 C   0  0  0  0  0  0  0  0  0  0  0  0
    4.1260   -0.5030   -1.3950 C   0  0  2  0  0  0  0  0  0  0  0  0
    4.9460    0.0350   -0.3240 N   0  0  0  0  0  0  0  0  0  0  0  0
    6.1690    0.7140   -0.4980 C   0  0  0  0  0  0  0  0  0  0  0  0
    6.6020    0.8700   -1.6520 O   0  0  0  0  0  0  0  0  0  0  0  0
    6.8930    1.2170    0.6450 N   0  0  0  0  0  0  0  0  0  0  0  0
    8.1300    1.9360    0.5360 C   0  0  0  0  0  0  0  0  0  0  0  0
    9.2840    1.0930    0.2710 C   0  0  0  0  0  0  0  0  0  0  0  0
    9.7510    0.9620   -1.0310 C   0  0  0  0  0  0  0  0  0  0  0  0
   10.8450    0.1950   -1.3210 C   0  0  0  0  0  0  0  0  0  0  0  0
   11.3190    0.0820   -2.7340 C   0  0  0  0  0  0  0  0  0  0  0  0
   11.4990   -0.4590   -0.3170 C   0  0  0  0  0  0  0  0  0  0  0  0
   11.0770   -0.3650    1.0060 C   0  0  0  0  0  0  0  0  0  0  0  0
   11.7790   -1.0680    2.1010 C   0  0  0  0  0  0  0  0  0  0  0  0
    9.9680    0.4160    1.2730 C   0  0  0  0  0  0  0  0  0  0  0  0
    2.9680    0.4060   -1.5490 C   0  0  0  0  0  0  0  0  0  0  0  0
    1.7390   -0.2450   -1.9800 N   0  0  0  0  0  0  0  0  0  0  0  0
    0.4660   -0.1000   -1.4110 C   0  0  0  0  0  0  0  0  0  0  0  0
    0.1390    0.8190   -0.5580 O   0  0  0  0  0  0  0  0  0  0  0  0
   -1.4680   -1.1040    1.1320 C   0  0  0  0  0  0  0  0  0  0  0  0
   -0.3440   -1.6150    1.1220 O   0  0  0  0  0  0  0  0  0  0  0  0
   -1.9450   -0.6930    2.3440 N   0  0  0  0  0  0  0  0  0  0  0  0
   -3.1630   -0.1290    2.4400 C   0  0  0  0  0  0  0  0  0  0  0  0
   -3.6160    0.2560    3.5460 O   0  0  0  0  0  0  0  0  0  0  0  0
   -9.0600   -1.3480    0.2730 C   0  0  1  0  0  0  0  0  0  0  0  0
  -10.1020   -1.5710    1.3220 C   0  0  0  0  0  0  0  0  0  0  0  0
   -9.7880   -1.2600   -1.0690 C   0  0  0  0  0  0  0  0  0  0  0  0
  1  2  1  0
  2  3  1  0
  4  3  1  1
  4  5  1  0
  4 40  1  0
  5  6  1  0
  6  7  1  0
  7  8  1  0
  8  9  1  0
  8 38  1  0
  9 10  2  0
 10 11  1  0
 10 35  1  0
 11 12  2  3
 12 13  1  0
 12 33  1  0
 14 13  1  1
 14 15  1  0
 14 32  1  0
 15 16  1  0
 16 17  1  0
 17 18  1  1
 17 31  1  0
 18 19  1  0
 19 20  2  0
 19 21  1  0
 21 22  1  0
 22 23  1  0
 23 24  2  0
 23 30  1  0
 24 25  1  0
 25 26  1  0
 25 27  2  0
 27 28  1  0
 28 29  1  0
 28 30  2  0
 31 32  1  0
 32 33  1  0
 33 34  2  0
 35 36  2  0
 35 37  1  0
 37 38  1  0
 38 39  2  0
 40 41  1  1
 40 42  1  0
M  CHG  1   5   1
M  END
