
     RDKit          3D

 42 44  0  0  0  0  0  0  0  0999 V2000
   -2.3020   -5.9230    2.7080 C   0  0  0  0  0  0  0  0  0  0  0  0
   -1.3780   -5.9410    1.5340 C   0  0  0  0  0  0  0  0  0  0  0  0
   -1.3450   -7.1610    0.9190 C   0  0  0  0  0  0  0  0  0  0  0  0
   -0.5660   -7.4860   -0.2340 C   0  0  0  0  0  0  0  0  0  0  0  0
   -1.4600   -7.9160   -1.3420 N   0  0  0  0  0  0  0  0  0  0  0  0
   -0.5420   -4.8890    1.0690 C   0  0  0  0  0  0  0  0  0  0  0  0
   -0.4800   -3.6590    1.5510 C   0  0  0  0  0  0  0  0  0  0  0  0
    0.4790   -2.6570    0.9310 C   0  0  0  0  0  0  0  0  0  0  0  0
    1.3030   -1.7940    1.3560 C   0  0  0  0  0  0  0  0  0  0  0  0
    2.2570   -0.7910    0.8710 C   0  0  0  0  0  0  0  0  0  0  0  0
    3.5370   -0.8610    1.1240 O   0  0  0  0  0  0  0  0  0  0  0  0
    1.9240    0.3830    0.0760 N   0  0  0  0  0  0  0  0  0  0  0  0
    2.8930    0.9270   -0.8540 C   0  0  0  0  0  0  0  0  0  0  0  0
    3.7570    1.9420   -0.1310 C   0  0  0  0  0  0  0  0  0  0  0  0
    4.8680    2.5210   -0.9180 C   0  0  2  0  0  0  0  0  0  0  0  0
    4.5120    3.2570   -2.1640 C   0  0  0  0  0  0  0  0  0  0  0  0
    5.7620    3.7810   -2.8550 C   0  0  0  0  0  0  0  0  0  0  0  0
    6.5490    4.6780   -1.9280 C   0  0  0  0  0  0  0  0  0  0  0  0
    7.9870    5.3450   -2.7930 S   0  0  0  0  0  0  0  0  0  0  0  0
    6.3020    1.4080   -1.1250 S   0  0  0  0  0  0  0  0  0  0  0  0
    7.0440    1.1250    0.5070 C   0  0  0  0  0  0  0  0  0  0  0  0
    8.3590    0.4740    0.3430 C   0  0  0  0  0  0  0  0  0  0  0  0
    9.3560   -0.0410    0.2140 N   0  0  0  0  0  0  0  0  0  0  0  0
    0.6730    1.1070    0.1190 C   0  0  0  0  0  0  0  0  0  0  0  0
   -0.4050    0.5720   -0.7740 C   0  0  0  0  0  0  0  0  0  0  0  0
   -1.4350   -0.1310   -0.3480 O   0  0  0  0  0  0  0  0  0  0  0  0
   -1.7910   -0.1430    0.9370 C   0  0  1  0  0  0  0  0  0  0  0  0
   -2.8370    0.8730    1.3330 C   0  0  0  0  0  0  0  0  0  0  0  0
   -3.0950    1.0990    2.5300 O   0  0  0  0  0  0  0  0  0  0  0  0
   -3.5240    1.5470    0.3220 N   0  0  0  0  0  0  0  0  0  0  0  0
   -4.5930    2.4530    0.5770 C   0  0  0  0  0  0  0  0  0  0  0  0
   -5.3230    3.1590   -0.3580 C   0  0  0  0  0  0  0  0  0  0  0  0
   -6.2720    3.8880    0.2640 C   0  0  0  0  0  0  0  0  0  0  0  0
   -7.3300    4.7940   -0.2470 C   0  0  2  0  0  0  0  0  0  0  0  0
   -8.0180    4.5010   -1.5340 C   0  0  0  0  0  0  0  0  0  0  0  0
   -7.0060    5.6290   -1.4480 C   0  0  0  0  0  0  0  0  0  0  0  0
   -6.1200    3.6270    1.5870 N   0  0  0  0  0  0  0  0  0  0  0  0
   -5.1050    2.7630    1.7510 N   0  0  0  0  0  0  0  0  0  0  0  0
   -2.5810   -1.4580    1.2410 C   0  0  0  0  0  0  0  0  0  0  0  0
   -2.0830   -1.9780    2.5190 C   0  0  0  0  0  0  0  0  0  0  0  0
   -2.2860   -1.3120    3.5620 O   0  0  0  0  0  0  0  0  0  0  0  0
   -1.3570   -3.2630    2.5890 N   0  0  0  0  0  0  0  0  0  0  0  0
  1  2  1  0
  2  3  2  3
  2  6  1  0
  3  4  1  0
  4  5  1  0
  6  7  2  3
  7  8  1  0
  7 42  1  0
  8  9  2  0
  9 10  1  0
 10 11  2  0
 10 12  1  0
 12 13  1  0
 12 24  1  0
 13 14  1  0
 15 14  1  6
 15 16  1  0
 15 20  1  0
 16 17  1  0
 17 18  1  0
 18 19  1  0
 20 21  1  0
 21 22  1  0
 22 23  3  0
 24 25  1  0
 25 26  1  0
 26 27  1  0
 27 28  1  6
 27 39  1  0
 28 29  2  0
 28 30  1  0
 30 31  1  0
 31 32  2  0
 31 38  1  0
 32 33  1  0
 34 33  1  6
 33 37  2  0
 34 35  1  0
 34 36  1  0
 35 36  1  0
 37 38  1  0
 39 40  1  0
 40 41  2  0
 40 42  1  0
M  CHG  1   5   1
M  END
