
     RDKit          3D

 42 45  0  0  0  0  0  0  0  0999 V2000
  -10.0020    2.4200    0.8900 C   0  0  0  0  0  0  0  0  0  0  0  0
   -9.1380    1.3660    1.5490 C   0  0  0  0  0  0  0  0  0  0  0  0
   -8.1370    0.8280    0.6300 N   0  0  0  0  0  0  0  0  0  0  0  0
   -6.8740    1.4520    0.5600 C   0  0  0  0  0  0  0  0  0  0  0  0
   -6.6380    2.4780    1.2970 O   0  0  0  0  0  0  0  0  0  0  0  0
   -5.7580    0.9990   -0.3330 C   0  0  0  0  0  0  0  0  0  0  0  0
   -4.6210    1.9540   -0.2050 C   0  0  0  0  0  0  0  0  0  0  0  0
   -3.4170    1.6380   -1.0700 C   0  0  0  0  0  0  0  0  0  0  0  0
   -2.7800    0.5080   -0.9300 O   0  0  0  0  0  0  0  0  0  0  0  0
   -2.4560   -0.7440   -0.8840 C   0  0  0  0  0  0  0  0  0  0  0  0
   -3.3900   -1.7470   -1.1940 C   0  0  0  0  0  0  0  0  0  0  0  0
   -3.0600   -3.0800   -1.1470 C   0  0  0  0  0  0  0  0  0  0  0  0
   -1.7790   -3.4210   -0.7840 C   0  0  0  0  0  0  0  0  0  0  0  0
   -0.8350   -2.4700   -0.4740 C   0  0  0  0  0  0  0  0  0  0  0  0
   -1.1460   -1.1520   -0.5170 C   0  0  0  0  0  0  0  0  0  0  0  0
   -0.1900   -0.1030   -0.1940 C   0  0  0  0  0  0  0  0  0  0  0  0
    1.1260   -0.2600    0.2580 C   0  0  0  0  0  0  0  0  0  0  0  0
    1.7170    0.9620    0.4640 C   0  0  0  0  0  0  0  0  0  0  0  0
    3.0210    1.3690    0.9420 C   0  0  0  0  0  0  0  0  0  0  0  0
    3.1580    2.6530    1.0360 O   0  0  0  0  0  0  0  0  0  0  0  0
    4.1140    0.6160    1.3060 N   0  0  0  0  0  0  0  0  0  0  0  0
    4.1000   -0.8390    1.1610 C   0  0  0  0  0  0  0  0  0  0  0  0
    5.4540   -1.4400    1.3630 C   0  0  0  0  0  0  0  0  0  0  0  0
    6.6640   -0.6670    1.1170 C   0  0  1  0  0  0  0  0  0  0  0  0
    7.3210   -1.1570   -0.1040 N   0  0  0  0  0  0  0  0  0  0  0  0
    8.6600   -1.5240   -0.1410 C   0  0  0  0  0  0  0  0  0  0  0  0
    9.3480   -1.4380    0.9000 O   0  0  0  0  0  0  0  0  0  0  0  0
    9.2940   -2.0240   -1.4240 C   0  0  0  0  0  0  0  0  0  0  0  0
    8.8080   -2.1980   -2.5930 C   0  0  0  0  0  0  0  0  0  0  0  0
    9.9000   -2.7850   -3.7730 S   0  0  0  0  0  0  0  0  0  0  0  0
   11.4210   -2.9780   -2.9790 C   0  0  0  0  0  0  0  0  0  0  0  0
   12.5550   -3.4060   -3.5070 N   0  0  0  0  0  0  0  0  0  0  0  0
   11.0250   -2.4790   -1.4420 S   0  0  0  0  0  0  0  0  0  0  0  0
    6.4130    0.8120    0.8820 C   0  0  0  0  0  0  0  0  0  0  0  0
    5.3240    1.1950    1.8510 C   0  0  1  0  0  0  0  0  0  0  0  0
    5.3850    2.5930    2.2450 C   0  0  0  0  0  0  0  0  0  0  0  0
    4.4890    2.9700    3.3210 N   0  0  0  0  0  0  0  0  0  0  0  0
    0.7240    1.8490    0.1260 N   0  0  0  0  0  0  0  0  0  0  0  0
   -0.3620    1.2180   -0.2490 N   0  0  0  0  0  0  0  0  0  0  0  0
   -8.4880   -0.3270   -0.1630 C   0  0  1  0  0  0  0  0  0  0  0  0
   -8.5080   -0.0150   -1.6550 C   0  0  0  0  0  0  0  0  0  0  0  0
   -7.6190   -1.5150    0.1140 C   0  0  0  0  0  0  0  0  0  0  0  0
  1  2  1  0
  2  3  1  0
  3  4  1  0
  3 40  1  0
  4  5  2  0
  4  6  1  0
  6  7  1  0
  7  8  1  0
  8  9  1  0
  9 10  1  0
 10 11  2  0
 10 15  1  0
 11 12  1  0
 12 13  2  0
 13 14  1  0
 14 15  2  0
 15 16  1  0
 16 17  1  0
 16 39  2  0
 17 18  2  0
 18 19  1  0
 18 38  1  0
 19 20  2  0
 19 21  1  0
 21 22  1  0
 21 35  1  0
 22 23  1  0
 23 24  1  0
 24 25  1  6
 24 34  1  0
 25 26  1  0
 26 27  2  0
 26 28  1  0
 28 29  2  0
 28 33  1  0
 29 30  1  0
 30 31  1  0
 31 32  2  0
 31 33  1  0
 34 35  1  0
 35 36  1  6
 36 37  1  0
 38 39  1  0
 40 41  1  6
 40 42  1  0
M  CHG  1  37   1
M  END
