
     RDKit          3D

 42 45  0  0  0  0  0  0  0  0999 V2000
    8.9420   -3.7800   -1.0270 C   0  0  0  0  0  0  0  0  0  0  0  0
    8.1960   -2.5500   -1.0080 O   0  0  0  0  0  0  0  0  0  0  0  0
    7.2070   -2.3040   -0.0530 C   0  0  0  0  0  0  0  0  0  0  0  0
    7.3030   -2.9930    1.0630 N   0  0  0  0  0  0  0  0  0  0  0  0
    6.1160   -1.3710   -0.2110 C   0  0  0  0  0  0  0  0  0  0  0  0
    6.2180   -0.0210    0.3190 C   0  0  2  0  0  0  0  0  0  0  0  0
    5.0280    0.7870    0.1170 N   0  0  0  0  0  0  0  0  0  0  0  0
    4.0450    0.6400   -0.8580 C   0  0  0  0  0  0  0  0  0  0  0  0
    4.0810   -0.2460   -1.7110 O   0  0  0  0  0  0  0  0  0  0  0  0
    2.8580    1.5760   -0.9250 C   0  0  0  0  0  0  0  0  0  0  0  0
    1.7530    0.8350   -0.3900 N   0  0  0  0  0  0  0  0  0  0  0  0
    1.4840    0.8520    0.9160 C   0  0  0  0  0  0  0  0  0  0  0  0
    2.1840    1.5230    1.7200 O   0  0  0  0  0  0  0  0  0  0  0  0
    0.4420    0.1460    1.4440 N   0  0  0  0  0  0  0  0  0  0  0  0
   -0.3100   -0.5660    0.6350 N   0  0  0  0  0  0  0  0  0  0  0  0
   -0.0960   -0.6250   -0.6800 C   0  0  0  0  0  0  0  0  0  0  0  0
   -1.1430   -1.6100   -1.7710 S   0  0  0  0  0  0  0  0  0  0  0  0
   -2.5660   -0.5990   -2.3080 C   0  0  0  0  0  0  0  0  0  0  0  0
   -3.4130   -0.2920   -1.0820 C   0  0  0  0  0  0  0  0  0  0  0  0
   -4.2840   -0.6550   -0.4280 N   0  0  0  0  0  0  0  0  0  0  0  0
   -4.8220   -0.1410    0.6620 C   0  0  0  0  0  0  0  0  0  0  0  0
   -5.9790   -0.7100    1.4600 C   0  0  0  0  0  0  0  0  0  0  0  0
   -7.1280    0.0520    1.1170 N   0  0  0  0  0  0  0  0  0  0  0  0
   -8.3670   -0.6320    1.0060 C   0  0  2  0  0  0  0  0  0  0  0  0
   -8.3240   -2.0650    0.6340 C   0  0  0  0  0  0  0  0  0  0  0  0
   -9.2190    0.1030   -0.0020 C   0  0  0  0  0  0  0  0  0  0  0  0
   -9.9450   -0.5010   -0.9770 C   0  0  0  0  0  0  0  0  0  0  0  0
  -10.6980    0.2760   -1.8500 C   0  0  0  0  0  0  0  0  0  0  0  0
  -10.7300    1.6500   -1.7570 C   0  0  0  0  0  0  0  0  0  0  0  0
   -9.9940    2.2600   -0.7700 C   0  0  0  0  0  0  0  0  0  0  0  0
   -9.2490    1.4970    0.0980 C   0  0  0  0  0  0  0  0  0  0  0  0
   -4.2190    1.0360    1.0650 C   0  0  0  0  0  0  0  0  0  0  0  0
   -2.9290    1.3090   -0.1490 S   0  0  0  0  0  0  0  0  0  0  0  0
    0.9610    0.0940   -1.1970 C   0  0  0  0  0  0  0  0  0  0  0  0
    1.2220    0.0900   -2.4250 O   0  0  0  0  0  0  0  0  0  0  0  0
    7.4600    0.7160    0.3720 C   0  0  0  0  0  0  0  0  0  0  0  0
    8.7170    0.2150    0.6130 C   0  0  0  0  0  0  0  0  0  0  0  0
    9.8690    0.9910    0.7430 C   0  0  0  0  0  0  0  0  0  0  0  0
    9.7880    2.3430    0.6320 C   0  0  0  0  0  0  0  0  0  0  0  0
    8.5600    2.9000    0.3910 C   0  0  0  0  0  0  0  0  0  0  0  0
    7.4330    2.1280    0.2640 C   0  0  0  0  0  0  0  0  0  0  0  0
    6.2640    2.7880    0.0200 O   0  0  0  0  0  0  0  0  0  0  0  0
  1  2  1  0
  2  3  1  0
  3  4  2  0
  3  5  1  0
  6  5  1  6
  6  7  1  0
  6 36  1  0
  7  8  1  0
  8  9  2  0
  8 10  1  0
 10 11  1  0
 11 12  1  0
 11 34  1  0
 12 13  2  0
 12 14  1  0
 14 15  1  0
 15 16  2  0
 16 17  1  0
 16 34  1  0
 17 18  1  0
 18 19  1  0
 19 20  2  0
 19 33  1  0
 20 21  1  0
 21 22  1  0
 21 32  2  0
 22 23  1  0
 23 24  1  0
 24 25  1  6
 24 26  1  0
 26 27  2  0
 26 31  1  0
 27 28  1  0
 28 29  2  0
 29 30  1  0
 30 31  2  0
 32 33  1  0
 34 35  2  0
 36 37  2  0
 36 41  1  0
 37 38  1  0
 38 39  2  0
 39 40  1  0
 40 41  2  0
 41 42  1  0
M  CHG  1  23   1
M  END
