
     RDKit          3D

 42 45  0  0  0  0  0  0  0  0999 V2000
  -10.0520    0.1670    4.6140 C   0  0  0  0  0  0  0  0  0  0  0  0
   -9.8950    0.7400    3.3310 N   0  0  0  0  0  0  0  0  0  0  0  0
   -9.1550   -0.1060    2.2990 C   0  0  0  0  0  0  0  0  0  0  0  0
   -8.7730   -1.1510    2.6230 O   0  0  0  0  0  0  0  0  0  0  0  0
   -9.1250    0.7030    1.1090 N   0  0  0  0  0  0  0  0  0  0  0  0
   -8.0690   -0.3900    0.2040 C   0  0  0  0  0  0  0  0  0  0  0  0
   -7.7690   -1.3180    0.8160 O   0  0  0  0  0  0  0  0  0  0  0  0
   -7.8570    0.1920   -1.0830 C   0  0  0  0  0  0  0  0  0  0  0  0
   -6.7300   -0.4920   -1.8560 C   0  0  0  0  0  0  0  0  0  0  0  0
   -5.4360   -0.4100   -1.0730 C   0  0  2  0  0  0  0  0  0  0  0  0
   -5.0340    1.0220   -0.7760 C   0  0  0  0  0  0  0  0  0  0  0  0
   -4.4980    1.5730   -2.0680 C   0  0  0  0  0  0  0  0  0  0  0  0
   -4.1200    0.4020   -2.9010 C   0  0  0  0  0  0  0  0  0  0  0  0
   -4.3000   -0.8090   -2.0550 C   0  0  1  0  0  0  0  0  0  0  0  0
   -3.1380   -1.1770   -1.2890 N   0  0  0  0  0  0  0  0  0  0  0  0
   -2.0030   -1.4940   -2.1560 C   0  0  0  0  0  0  0  0  0  0  0  0
   -0.8080   -0.7550   -1.6250 C   0  0  0  0  0  0  0  0  0  0  0  0
    0.4610   -0.9290   -2.4310 C   0  0  0  0  0  0  0  0  0  0  0  0
    1.4760   -0.0760   -1.6690 C   0  0  0  0  0  0  0  0  0  0  0  0
    2.3090   -0.0400   -0.8870 N   0  0  0  0  0  0  0  0  0  0  0  0
    3.0010    0.9400   -0.3430 C   0  0  0  0  0  0  0  0  0  0  0  0
    4.0920    0.8460    0.6350 C   0  0  0  0  0  0  0  0  0  0  0  0
    4.7710   -0.1660    0.9470 C   0  0  0  0  0  0  0  0  0  0  0  0
    4.9490   -1.5460    0.6490 C   0  0  0  0  0  0  0  0  0  0  0  0
    5.7190   -2.2240    1.5450 O   0  0  0  0  0  0  0  0  0  0  0  0
    4.5430   -2.4250   -0.3460 N   0  0  0  0  0  0  0  0  0  0  0  0
    4.5530   -3.9060   -0.0190 C   0  0  0  0  0  0  0  0  0  0  0  0
    4.3970   -2.2360   -1.7750 C   0  0  1  0  0  0  0  0  0  0  0  0
    4.7120   -0.9790   -2.4630 C   0  0  0  0  0  0  0  0  0  0  0  0
    5.7600   -2.0460   -2.4720 C   0  0  0  0  0  0  0  0  0  0  0  0
    4.4620    2.1600    1.2310 N   0  0  0  0  0  0  0  0  0  0  0  0
    5.8080    2.4920    1.4530 C   0  0  0  0  0  0  0  0  0  0  0  0
    6.7110    1.7060    1.0710 O   0  0  0  0  0  0  0  0  0  0  0  0
    6.2550    3.6770    2.0920 N   0  0  0  0  0  0  0  0  0  0  0  0
    7.6520    4.0080    2.2650 C   0  0  0  0  0  0  0  0  0  0  0  0
    8.4410    2.9490    2.9600 C   0  0  0  0  0  0  0  0  0  0  0  0
    9.2240    1.9730    2.4440 C   0  0  0  0  0  0  0  0  0  0  0  0
    9.8310    1.1270    3.2720 C   0  0  0  0  0  0  0  0  0  0  0  0
    9.6740    1.2360    4.6040 C   0  0  0  0  0  0  0  0  0  0  0  0
    8.5400    2.7010    4.7050 S   0  0  0  0  0  0  0  0  0  0  0  0
    2.6230    2.1930   -0.8410 C   0  0  0  0  0  0  0  0  0  0  0  0
    1.3250    1.7990   -2.0230 S   0  0  0  0  0  0  0  0  0  0  0  0
  1  2  1  0
  2  3  1  0
  3  4  2  0
  3  5  1  0
  5  6  1  0
  6  7  2  0
  6  8  1  0
  8  9  1  0
 10  9  1  6
 10 11  1  0
 10 14  1  0
 11 12  1  0
 12 13  1  0
 13 14  1  0
 14 15  1  1
 15 16  1  0
 16 17  1  0
 17 18  1  0
 18 19  1  0
 19 20  2  0
 19 42  1  0
 20 21  1  0
 21 22  1  0
 21 41  2  0
 22 23  2  3
 22 31  1  0
 23 24  1  0
 24 25  2  0
 24 26  1  0
 26 27  1  0
 28 26  1  1
 28 29  1  0
 28 30  1  0
 29 30  1  0
 31 32  1  0
 32 33  2  0
 32 34  1  0
 34 35  1  0
 35 36  1  0
 36 37  2  0
 36 40  1  0
 37 38  1  0
 38 39  2  0
 39 40  1  0
 41 42  1  0
M  CHG  1  15   1
M  END
