
     RDKit          3D

 42 45  0  0  0  0  0  0  0  0999 V2000
    5.6230   -0.7520    1.2030 C   0  0  0  0  0  0  0  0  0  0  0  0
    5.1460   -0.6020   -0.2430 C   0  0  0  0  0  0  0  0  0  0  0  0
    3.8870   -0.6540   -0.5470 N   0  0  0  0  0  0  0  0  0  0  0  0
    3.3570   -0.5510   -1.6630 C   0  0  0  0  0  0  0  0  0  0  0  0
    2.0850   -0.5660   -2.2740 N   0  0  0  0  0  0  0  0  0  0  0  0
    0.9350   -0.7550   -1.4350 C   0  0  0  0  0  0  0  0  0  0  0  0
    1.1540   -0.8940   -0.2000 O   0  0  0  0  0  0  0  0  0  0  0  0
   -0.3840   -0.7720   -2.0730 C   0  0  0  0  0  0  0  0  0  0  0  0
   -1.5260   -0.9190   -1.0980 C   0  0  0  0  0  0  0  0  0  0  0  0
   -1.5380    0.1830   -0.2040 N   0  0  0  0  0  0  0  0  0  0  0  0
   -2.3520    0.1130    0.9560 C   0  0  1  0  0  0  0  0  0  0  0  0
   -3.7350   -0.3480    0.7280 C   0  0  0  0  0  0  0  0  0  0  0  0
   -4.2020   -0.7340   -0.3800 O   0  0  0  0  0  0  0  0  0  0  0  0
   -4.7010   -0.3920    1.8020 N   0  0  0  0  0  0  0  0  0  0  0  0
   -6.0450   -0.8370    1.6110 C   0  0  0  0  0  0  0  0  0  0  0  0
   -6.9090    0.1580    0.9370 C   0  0  0  0  0  0  0  0  0  0  0  0
   -6.5490    1.4180    0.5420 C   0  0  0  0  0  0  0  0  0  0  0  0
   -7.6580    1.9700   -0.0310 N   0  0  0  0  0  0  0  0  0  0  0  0
   -8.6640    1.1100    0.0010 C   0  0  0  0  0  0  0  0  0  0  0  0
  -10.0240    1.3220   -0.5110 C   0  0  0  0  0  0  0  0  0  0  0  0
  -10.9630    0.3180   -0.4090 C   0  0  0  0  0  0  0  0  0  0  0  0
  -12.2470    0.5240   -0.8920 C   0  0  0  0  0  0  0  0  0  0  0  0
  -12.6360    1.7100   -1.4810 C   0  0  0  0  0  0  0  0  0  0  0  0
  -11.6840    2.7180   -1.5810 C   0  0  0  0  0  0  0  0  0  0  0  0
  -10.4030    2.5080   -1.0970 C   0  0  0  0  0  0  0  0  0  0  0  0
   -8.1810    0.0010    0.6010 N   0  0  0  0  0  0  0  0  0  0  0  0
   -1.7110   -0.5450    2.1600 C   0  0  2  0  0  0  0  0  0  0  0  0
   -0.4690    0.1480    2.6170 C   0  0  0  0  0  0  0  0  0  0  0  0
   -1.4190   -2.0080    1.9810 C   0  0  0  0  0  0  0  0  0  0  0  0
    4.8940   -0.3090   -2.6970 S   0  0  0  0  0  0  0  0  0  0  0  0
    6.0280   -0.4040   -1.2950 C   0  0  0  0  0  0  0  0  0  0  0  0
    7.4530   -0.2820   -1.4290 C   0  0  0  0  0  0  0  0  0  0  0  0
    7.9220   -0.0980   -2.6340 O   0  0  0  0  0  0  0  0  0  0  0  0
    8.3740   -0.3420   -0.4060 N   0  0  0  0  0  0  0  0  0  0  0  0
    9.8030   -0.2290   -0.5320 C   0  0  0  0  0  0  0  0  0  0  0  0
   10.5160    0.0690    0.6430 C   0  0  0  0  0  0  0  0  0  0  0  0
   11.8850    0.1720    0.6010 C   0  0  0  0  0  0  0  0  0  0  0  0
   12.5670   -0.0140   -0.5860 C   0  0  0  0  0  0  0  0  0  0  0  0
   14.3240    0.1160   -0.6610 S   0  0  0  0  0  0  0  0  0  0  0  0
   14.9730   -0.1780    0.6970 O   0  0  0  0  0  0  0  0  0  0  0  0
   11.8520   -0.3030   -1.7140 C   0  0  0  0  0  0  0  0  0  0  0  0
   10.4520   -0.4170   -1.7130 C   0  0  0  0  0  0  0  0  0  0  0  0
  1  2  1  0
  2  3  1  0
  2 31  2  0
  3  4  2  0
  4  5  1  0
  4 30  1  0
  5  6  1  0
  6  7  2  0
  6  8  1  0
  8  9  1  0
  9 10  1  0
 11 10  1  6
 11 12  1  0
 11 27  1  0
 12 13  2  0
 12 14  1  0
 14 15  1  0
 15 16  1  0
 16 17  2  0
 16 26  1  0
 17 18  1  0
 18 19  1  0
 19 20  1  0
 19 26  2  0
 20 21  2  0
 20 25  1  0
 21 22  1  0
 22 23  2  0
 23 24  1  0
 24 25  2  0
 27 28  1  6
 27 29  1  0
 30 31  1  0
 31 32  1  0
 32 33  2  0
 32 34  1  0
 34 35  1  0
 35 36  2  0
 35 42  1  0
 36 37  1  0
 37 38  2  0
 38 39  1  0
 38 41  1  0
 39 40  2  0
 41 42  2  0
M  CHG  1  10   1
M  END
