
     RDKit          3D

 26 27  0  0  0  0  0  0  0  0999 V2000
   -4.6190    3.0420    0.0830 C   0  0  0  0  0  0  0  0  0  0  0  0
   -4.3580    1.5740    0.1960 N   0  0  0  0  0  0  0  0  0  0  0  0
   -5.4130    0.7160   -0.2060 C   0  0  0  0  0  0  0  0  0  0  0  0
   -5.3780    0.3490   -1.6780 C   0  0  0  0  0  0  0  0  0  0  0  0
   -6.4280   -0.4960   -2.0070 O   0  0  0  0  0  0  0  0  0  0  0  0
   -3.0860    1.2370    0.6850 C   0  0  0  0  0  0  0  0  0  0  0  0
   -2.2830    2.1880    0.9830 O   0  0  0  0  0  0  0  0  0  0  0  0
   -2.6400   -0.1400    0.8690 C   0  0  0  0  0  0  0  0  0  0  0  0
   -1.4600   -0.4830    1.3390 C   0  0  0  0  0  0  0  0  0  0  0  0
   -0.4570    0.5360    1.7390 C   0  0  0  0  0  0  0  0  0  0  0  0
    0.7460    0.5120    0.8370 C   0  0  0  0  0  0  0  0  0  0  0  0
    1.8390   -0.2890    1.0790 C   0  0  0  0  0  0  0  0  0  0  0  0
    2.9570   -0.3430    0.2810 C   0  0  0  0  0  0  0  0  0  0  0  0
    3.0150    0.4440   -0.8360 C   0  0  0  0  0  0  0  0  0  0  0  0
    4.0770    0.4720   -1.6940 O   0  0  0  0  0  0  0  0  0  0  0  0
    5.2880   -0.1860   -1.6850 C   0  0  0  0  0  0  0  0  0  0  0  0
    6.2100    0.1350   -0.5350 C   0  0  0  0  0  0  0  0  0  0  0  0
    7.8000   -0.8560   -0.6950 P   0  0  0  0  0  0  0  0  0  0  0  0
    7.6790   -2.2970    0.2900 O   0  0  0  0  0  0  0  0  0  0  0  0
    9.0850    0.1100   -0.0450 O   0  0  0  0  0  0  0  0  0  0  0  0
    1.9040    1.2790   -1.1120 C   0  0  0  0  0  0  0  0  0  0  0  0
    0.8080    1.3040   -0.2920 C   0  0  0  0  0  0  0  0  0  0  0  0
   -1.0650   -1.8410    1.4960 O   0  0  0  0  0  0  0  0  0  0  0  0
   -1.4900   -2.8010    0.5860 C   0  0  0  0  0  0  0  0  0  0  0  0
   -2.9840   -3.0350    0.8740 C   0  0  0  0  0  0  0  0  0  0  0  0
   -3.7750   -1.4900    0.4370 S   0  0  0  0  0  0  0  0  0  0  0  0
  1  2  1  0
  2  3  1  0
  2  6  1  0
  3  4  1  0
  4  5  1  0
  6  7  2  0
  6  8  1  0
  8  9  2  0
  8 26  1  0
  9 10  1  0
  9 23  1  0
 10 11  1  0
 11 12  2  0
 11 22  1  0
 12 13  1  0
 13 14  2  0
 14 15  1  0
 14 21  1  0
 15 16  1  0
 16 17  1  0
 17 18  1  0
 18 19  1  0
 18 20  1  0
 21 22  2  0
 23 24  1  0
 24 25  1  0
 25 26  1  0
M  END
