
     RDKit          3D

 26 27  0  0  0  0  0  0  0  0999 V2000
    6.8280    2.7000   -0.2050 C   0  0  0  0  0  0  0  0  0  0  0  0
    5.5380    3.3430   -0.6330 C   0  0  0  0  0  0  0  0  0  0  0  0
    4.3790    2.3600   -0.4990 C   0  0  0  0  0  0  0  0  0  0  0  0
    4.6060    1.2420   -1.3000 O   0  0  0  0  0  0  0  0  0  0  0  0
    3.2750    0.1670   -1.1140 P   0  0  0  0  0  0  0  0  0  0  0  0
    3.6150   -1.4290   -1.6320 O   0  0  0  0  0  0  0  0  0  0  0  0
    4.0430   -2.1610   -0.5020 C   0  0  0  0  0  0  0  0  0  0  0  0
    4.3610   -3.5930   -0.8970 C   0  0  0  0  0  0  0  0  0  0  0  0
    2.5270    0.2660    0.4180 O   0  0  0  0  0  0  0  0  0  0  0  0
    1.1820   -0.0010    0.4130 C   0  0  0  0  0  0  0  0  0  0  0  0
    0.6850    0.1330    1.8560 C   0  0  0  0  0  0  0  0  0  0  0  0
   -0.7120   -0.1330    1.9250 O   0  0  0  0  0  0  0  0  0  0  0  0
   -1.5500    0.6810    1.1840 C   0  0  0  0  0  0  0  0  0  0  0  0
   -1.4930    2.2910    1.4430 S   0  0  0  0  0  0  0  0  0  0  0  0
   -2.4210    0.1010    0.2350 N   0  0  0  0  0  0  0  0  0  0  0  0
   -2.4270   -1.3230    0.0510 C   0  0  0  0  0  0  0  0  0  0  0  0
   -3.5870   -1.7780   -0.8200 C   0  0  0  0  0  0  0  0  0  0  0  0
   -4.8330   -1.0450   -0.4730 C   0  0  0  0  0  0  0  0  0  0  0  0
   -6.0150   -1.6970   -0.2940 C   0  0  0  0  0  0  0  0  0  0  0  0
   -6.1900   -3.0660   -0.4090 O   0  0  0  0  0  0  0  0  0  0  0  0
   -7.1420   -0.9330    0.0310 C   0  0  0  0  0  0  0  0  0  0  0  0
   -7.0230    0.4200    0.1560 C   0  0  0  0  0  0  0  0  0  0  0  0
   -5.7950    1.0710   -0.0330 C   0  0  0  0  0  0  0  0  0  0  0  0
   -5.7180    2.4330    0.1020 O   0  0  0  0  0  0  0  0  0  0  0  0
   -4.6840    0.3450   -0.3500 C   0  0  0  0  0  0  0  0  0  0  0  0
   -3.3280    0.9100   -0.5760 C   0  0  0  0  0  0  0  0  0  0  0  0
  1  2  1  0
  2  3  1  0
  3  4  1  0
  4  5  1  0
  5  6  1  0
  5  9  1  0
  6  7  1  0
  7  8  1  0
  9 10  1  0
 10 11  1  0
 11 12  1  0
 12 13  1  0
 13 14  2  0
 13 15  1  0
 15 16  1  0
 15 26  1  0
 16 17  1  0
 17 18  1  0
 18 19  2  0
 18 25  1  0
 19 20  1  0
 19 21  1  0
 21 22  2  0
 22 23  1  0
 23 24  1  0
 23 25  2  0
 25 26  1  0
M  END
