
     RDKit          3D

 26 28  0  0  0  0  0  0  0  0999 V2000
   -2.8860    0.0780   -1.3100 O   0  0  0  0  0  0  0  0  0  0  0  0
   -3.8650   -0.3640   -0.6270 C   0  0  0  0  0  0  0  0  0  0  0  0
   -4.0560   -1.7560   -0.6370 N   0  0  0  0  0  0  0  0  0  0  0  0
   -3.1820   -2.6560   -1.3880 C   0  0  0  0  0  0  0  0  0  0  0  0
   -1.7950   -2.5050   -0.8820 C   0  0  0  0  0  0  0  0  0  0  0  0
   -1.1830   -3.2000    0.1370 C   0  0  0  0  0  0  0  0  0  0  0  0
    0.1030   -2.7210    0.2520 C   0  0  0  0  0  0  0  0  0  0  0  0
    0.2290   -1.7400   -0.7140 C   0  0  0  0  0  0  0  0  0  0  0  0
    1.3900   -0.9190   -1.0170 C   0  0  0  0  0  0  0  0  0  0  0  0
    1.3020   -0.0760   -1.9400 O   0  0  0  0  0  0  0  0  0  0  0  0
    2.5770   -1.0280   -0.3350 O   0  0  0  0  0  0  0  0  0  0  0  0
    3.7250   -0.2130   -0.6380 C   0  0  0  0  0  0  0  0  0  0  0  0
    4.8110   -0.6100    0.2970 C   0  0  0  0  0  0  0  0  0  0  0  0
    6.0130    0.0170    0.2220 O   0  0  0  0  0  0  0  0  0  0  0  0
    6.3150    1.3780    0.4650 C   0  0  0  0  0  0  0  0  0  0  0  0
    7.5260    1.9160    0.3380 C   0  0  0  0  0  0  0  0  0  0  0  0
    7.6880    3.2730    0.6130 C   0  0  0  0  0  0  0  0  0  0  0  0
    6.0540    3.8000    1.0670 S   0  0  0  0  0  0  0  0  0  0  0  0
    5.2630    2.1980    0.8670 C   0  0  0  0  0  0  0  0  0  0  0  0
   -0.9150   -1.6690   -1.3350 O   0  0  0  0  0  0  0  0  0  0  0  0
   -4.6940    0.5850    0.0960 C   0  0  0  0  0  0  0  0  0  0  0  0
   -5.7230    0.2170    0.8240 C   0  0  0  0  0  0  0  0  0  0  0  0
   -6.5660    1.1910    1.5600 C   0  0  0  0  0  0  0  0  0  0  0  0
   -6.1410    2.5100    1.3870 O   0  0  0  0  0  0  0  0  0  0  0  0
   -5.0620    2.8920    0.6230 C   0  0  0  0  0  0  0  0  0  0  0  0
   -4.3570    2.0010   -0.0010 C   0  0  0  0  0  0  0  0  0  0  0  0
  1  2  2  0
  2  3  1  0
  2 21  1  0
  3  4  1  0
  4  5  1  0
  5  6  2  0
  5 20  1  0
  6  7  1  0
  7  8  2  0
  8  9  1  0
  8 20  1  0
  9 10  2  0
  9 11  1  0
 11 12  1  0
 12 13  1  0
 13 14  1  0
 14 15  1  0
 15 16  1  0
 15 19  2  0
 16 17  2  0
 17 18  1  0
 18 19  1  0
 21 22  2  0
 21 26  1  0
 22 23  1  0
 23 24  1  0
 24 25  1  0
 25 26  2  0
M  END
