
     RDKit          3D

 26 27  0  0  0  0  0  0  0  0999 V2000
   -6.2600    0.4830    2.0280 C   0  0  0  0  0  0  0  0  0  0  0  0
   -5.3730   -0.3040    2.6250 C   0  0  0  0  0  0  0  0  0  0  0  0
   -5.6190   -1.2070    4.2520 P   0  0  0  0  0  0  0  0  0  0  0  0
   -3.9960   -1.9730    4.2630 C   0  0  0  0  0  0  0  0  0  0  0  0
   -3.4030   -1.4930    3.0530 C   0  0  0  0  0  0  0  0  0  0  0  0
   -4.0370   -0.7060    2.2680 C   0  0  0  0  0  0  0  0  0  0  0  0
   -3.4450   -0.1830    0.9900 C   0  0  0  0  0  0  0  0  0  0  0  0
   -4.0870    0.5840    0.2440 O   0  0  0  0  0  0  0  0  0  0  0  0
   -2.1760   -0.5220    0.5860 O   0  0  0  0  0  0  0  0  0  0  0  0
   -1.6640   -0.0070   -0.6190 C   0  0  0  0  0  0  0  0  0  0  0  0
   -0.2710   -0.4520   -0.9480 C   0  0  1  0  0  0  0  0  0  0  0  0
    0.0520    0.2040   -2.2780 C   0  0  0  0  0  0  0  0  0  0  0  0
    0.3310   -0.5110   -3.2730 O   0  0  0  0  0  0  0  0  0  0  0  0
    0.0470    1.5650   -2.4230 O   0  0  0  0  0  0  0  0  0  0  0  0
    0.3400    2.2340   -3.6360 C   0  0  0  0  0  0  0  0  0  0  0  0
    0.6820    0.1120    0.0730 C   0  0  1  0  0  0  0  0  0  0  0  0
    0.4020   -0.3190    1.4730 C   0  0  0  0  0  0  0  0  0  0  0  0
    0.5290   -1.6880    1.6790 O   0  0  0  0  0  0  0  0  0  0  0  0
    2.0750   -0.2210   -0.3030 N   0  0  0  0  0  0  0  0  0  0  0  0
    3.0130    0.7810   -0.6220 C   0  0  0  0  0  0  0  0  0  0  0  0
    2.5980    1.9830   -0.5710 O   0  0  0  0  0  0  0  0  0  0  0  0
    4.3910    0.4970   -0.9960 C   0  0  0  0  0  0  0  0  0  0  0  0
    5.1280   -0.6110   -1.1410 C   0  0  0  0  0  0  0  0  0  0  0  0
    6.3940   -0.5870   -1.5000 C   0  0  0  0  0  0  0  0  0  0  0  0
    7.0100    0.6810   -1.7440 C   0  0  0  0  0  0  0  0  0  0  0  0
    5.5800    1.7730   -1.4020 S   0  0  0  0  0  0  0  0  0  0  0  0
  1  2  2  0
  2  3  1  0
  2  6  1  0
  3  4  2  0
  4  5  1  0
  5  6  2  0
  6  7  1  0
  7  8  2  0
  7  9  1  0
  9 10  1  0
 11 10  1  1
 11 12  1  0
 11 16  1  0
 12 13  2  0
 12 14  1  0
 14 15  1  0
 16 17  1  1
 16 19  1  0
 17 18  1  0
 19 20  1  0
 20 21  2  0
 20 22  1  0
 22 23  2  0
 22 26  1  0
 23 24  1  0
 24 25  2  0
 25 26  1  0
M  END
