
     RDKit          3D

 22 25  0  0  0  0  0  0  0  0999 V2000
   -6.1250   -0.7370   -0.0340 N   0  0  0  0  0  0  0  0  0  0  0  0
   -4.8100   -0.5090   -0.5070 C   0  0  0  0  0  0  0  0  0  0  0  0
   -4.5160   -0.4180   -1.8360 N   0  0  0  0  0  0  0  0  0  0  0  0
   -3.2560   -0.2000   -2.2610 C   0  0  0  0  0  0  0  0  0  0  0  0
   -2.2140   -0.0600   -1.4030 N   0  0  0  0  0  0  0  0  0  0  0  0
   -2.4560   -0.1420   -0.0900 C   0  0  0  0  0  0  0  0  0  0  0  0
   -3.7440   -0.3640    0.3510 C   0  0  0  0  0  0  0  0  0  0  0  0
   -3.6710   -0.3960    1.6910 N   0  0  0  0  0  0  0  0  0  0  0  0
   -2.3880   -0.2000    2.0480 C   0  0  0  0  0  0  0  0  0  0  0  0
   -1.6110   -0.0390    0.9600 N   0  0  0  0  0  0  0  0  0  0  0  0
   -0.2070    0.1870    1.0010 C   0  0  2  0  0  0  0  0  0  0  0  0
    0.2200    1.1420    0.0500 O   0  0  0  0  0  0  0  0  0  0  0  0
    1.6170    1.0040    0.2370 C   0  0  2  0  0  0  0  0  0  0  0  0
    2.4030    1.7670   -0.7600 C   0  0  0  0  0  0  0  0  0  0  0  0
    3.7260    1.7370   -0.4930 O   0  0  0  0  0  0  0  0  0  0  0  0
    4.1150    0.2330    0.1090 P   0  0  0  0  0  0  0  0  0  0  0  0
    4.5510   -0.2480   -1.2650 O   0  0  0  0  0  0  0  0  0  0  0  0
    5.6150   -0.0070    0.7670 O   0  0  0  0  0  0  0  0  0  0  0  0
    2.9890   -0.9430    0.2740 O   0  0  0  0  0  0  0  0  0  0  0  0
    1.7680   -0.4780   -0.0730 C   0  0  1  0  0  0  0  0  0  0  0  0
    0.6120   -1.0540    0.7190 C   0  0  1  0  0  0  0  0  0  0  0  0
    1.0150   -1.5860    1.9270 O   0  0  0  0  0  0  0  0  0  0  0  0
  1  2  1  0
  2  3  2  0
  2  7  1  0
  3  4  1  0
  4  5  2  0
  5  6  1  0
  6  7  2  0
  6 10  1  0
  7  8  1  0
  8  9  2  0
  9 10  1  0
 11 10  1  6
 11 12  1  0
 11 21  1  0
 12 13  1  0
 13 14  1  6
 13 20  1  0
 14 15  1  0
 15 16  1  0
 16 17  1  0
 16 18  1  0
 16 19  1  0
 20 19  1  1
 20 21  1  0
 21 22  1  1
M  END
