
     RDKit          3D

 28 31  0  0  0  0  0  0  0  0999 V2000
    3.9550    0.1020    2.0500 C   0  0  0  0  0  0  0  0  0  0  0  0
    4.4240   -0.3280    0.9050 C   0  0  0  0  0  0  0  0  0  0  0  0
    5.8240   -0.2050    0.7460 O   0  0  0  0  0  0  0  0  0  0  0  0
    6.4380   -0.6390   -0.4020 C   0  0  0  0  0  0  0  0  0  0  0  0
    5.6760   -1.1770   -1.3540 C   0  0  0  0  0  0  0  0  0  0  0  0
    4.2460   -1.3100   -1.2160 C   0  0  0  0  0  0  0  0  0  0  0  0
    3.5630   -0.8970   -0.1010 C   0  0  0  0  0  0  0  0  0  0  0  0
    2.1250   -1.1630   -0.0540 C   0  0  0  0  0  0  0  0  0  0  0  0
    1.1360   -0.0880   -0.2210 C   0  0  2  0  0  0  0  0  0  0  0  0
    1.0720    1.0660    0.6810 C   0  0  0  0  0  0  0  0  0  0  0  0
    0.2500    2.0380    0.2000 O   0  0  0  0  0  0  0  0  0  0  0  0
   -0.5070    1.9130   -0.8780 C   0  0  1  0  0  0  0  0  0  0  0  0
   -1.8390    2.6540   -0.5510 C   0  0  0  0  0  0  0  0  0  0  0  0
   -1.5690    4.1450   -0.3640 C   0  0  0  0  0  0  0  0  0  0  0  0
   -1.0070    4.7420   -1.4610 O   0  0  0  0  0  0  0  0  0  0  0  0
    0.2940    4.1980   -1.5780 C   0  0  0  0  0  0  0  0  0  0  0  0
    0.0920    2.7650   -2.0100 C   0  0  0  0  0  0  0  0  0  0  0  0
   -0.7880    0.5790   -1.4690 C   0  0  0  0  0  0  0  0  0  0  0  0
   -0.2360   -0.5850   -0.6180 C   0  0  1  0  0  0  0  0  0  0  0  0
   -0.0540   -1.6480   -1.4840 O   0  0  0  0  0  0  0  0  0  0  0  0
   -1.2330   -0.8980    0.3770 C   0  0  1  0  0  0  0  0  0  0  0  0
   -2.4510   -1.5130   -0.3150 C   0  0  0  0  0  0  0  0  0  0  0  0
   -3.6670   -1.3080    0.5620 C   0  0  1  0  0  0  0  0  0  0  0  0
   -4.8460   -1.9970   -0.0930 C   0  0  0  0  0  0  0  0  0  0  0  0
   -3.3840   -2.0900    1.8540 C   0  0  0  0  0  0  0  0  0  0  0  0
   -2.1330   -1.6050    2.5170 C   0  0  0  0  0  0  0  0  0  0  0  0
   -0.9630   -1.7880    1.5260 C   0  0  1  0  0  0  0  0  0  0  0  0
   -1.0310   -3.1350    1.1690 O   0  0  0  0  0  0  0  0  0  0  0  0
  1  2  2  0
  2  3  1  0
  2  7  1  0
  3  4  1  0
  4  5  2  0
  5  6  1  0
  6  7  2  0
  7  8  1  0
  9  8  1  1
  9 10  1  0
  9 19  1  0
 10 11  1  0
 11 12  1  0
 12 13  1  1
 12 17  1  0
 12 18  1  0
 13 14  1  0
 14 15  1  0
 15 16  1  0
 16 17  1  0
 18 19  1  0
 19 20  1  6
 19 21  1  0
 21 22  1  6
 21 27  1  0
 22 23  1  0
 23 24  1  6
 23 25  1  0
 25 26  1  0
 26 27  1  0
 27 28  1  6
M  END
