
     RDKit          3D

 28 32  0  0  0  0  0  0  0  0999 V2000
   -4.3010    0.2530    2.4880 O   0  0  0  0  0  0  0  0  0  0  0  0
   -3.0090    0.0020    2.0990 C   0  0  0  0  0  0  0  0  0  0  0  0
   -2.8150    0.1240    0.5820 C   0  0  1  0  0  0  0  0  0  0  0  0
   -1.3690   -0.1760    0.3240 C   0  0  2  0  0  0  0  0  0  0  0  0
   -1.1460   -1.4830    0.8180 O   0  0  0  0  0  0  0  0  0  0  0  0
   -0.4030    0.7340    1.0180 C   0  0  0  0  0  0  0  0  0  0  0  0
    0.5410    1.4410    0.0720 C   0  0  0  0  0  0  0  0  0  0  0  0
    1.4020    0.4880   -0.7320 C   0  0  2  0  0  0  0  0  0  0  0  0
    2.4500   -0.0550    0.1810 C   0  0  2  0  0  0  0  0  0  0  0  0
    3.3600    0.9470    0.8090 C   0  0  0  0  0  0  0  0  0  0  0  0
    4.4750    0.0820    1.2730 C   0  0  0  0  0  0  0  0  0  0  0  0
    5.3970    0.1630    2.2080 C   0  0  0  0  0  0  0  0  0  0  0  0
    6.4160   -0.8790    2.4600 C   0  0  0  0  0  0  0  0  0  0  0  0
    6.3100   -1.9850    1.6010 O   0  0  0  0  0  0  0  0  0  0  0  0
    5.3310   -2.0440    0.6280 C   0  0  0  0  0  0  0  0  0  0  0  0
    4.4240   -1.0950    0.4150 C   0  0  0  0  0  0  0  0  0  0  0  0
    3.3640   -0.9210   -0.4770 O   0  0  0  0  0  0  0  0  0  0  0  0
    1.9410    1.2570   -1.8900 C   0  0  0  0  0  0  0  0  0  0  0  0
    2.1330    0.4580   -3.1530 C   0  0  0  0  0  0  0  0  0  0  0  0
    0.9000   -0.3870   -3.4060 C   0  0  0  0  0  0  0  0  0  0  0  0
    0.7830   -1.2370   -2.3320 O   0  0  0  0  0  0  0  0  0  0  0  0
    0.5030   -0.6550   -1.1310 C   0  0  2  0  0  0  0  0  0  0  0  0
   -0.9790   -0.2370   -1.1290 C   0  0  0  0  0  0  0  0  0  0  0  0
   -3.6430   -0.9160   -0.1150 C   0  0  0  0  0  0  0  0  0  0  0  0
   -5.1250   -0.6890    0.0250 C   0  0  0  0  0  0  0  0  0  0  0  0
   -5.5380    0.7140   -0.2890 C   0  0  0  0  0  0  0  0  0  0  0  0
   -4.3820    1.5690   -0.7320 C   0  0  0  0  0  0  0  0  0  0  0  0
   -3.2180    1.5310    0.2200 C   0  0  0  0  0  0  0  0  0  0  0  0
  1  2  1  0
  3  2  1  1
  3  4  1  0
  3 24  1  0
  3 28  1  0
  4  5  1  1
  4  6  1  0
  4 23  1  0
  6  7  1  0
  8  7  1  1
  8  9  1  0
  8 18  1  0
  8 22  1  0
  9 10  1  6
  9 17  1  0
 10 11  1  0
 11 12  2  0
 11 16  1  0
 12 13  1  0
 13 14  1  0
 14 15  1  0
 15 16  2  0
 16 17  1  0
 18 19  1  0
 19 20  1  0
 20 21  1  0
 21 22  1  0
 22 23  1  6
 24 25  1  0
 25 26  1  0
 26 27  1  0
 27 28  1  0
M  END
