
     RDKit          3D

 28 31  0  0  0  0  0  0  0  0999 V2000
   -4.2850   -0.9330    0.4540 C   0  0  0  0  0  0  0  0  0  0  0  0
   -2.8260   -1.4260    0.4690 C   0  0  1  0  0  0  0  0  0  0  0  0
   -2.8930   -2.8160   -0.1290 C   0  0  0  0  0  0  0  0  0  0  0  0
   -1.8940   -0.4920   -0.2930 C   0  0  0  0  0  0  0  0  0  0  0  0
   -0.9780    0.0790    0.7160 C   0  0  2  0  0  0  0  0  0  0  0  0
   -1.8800    1.2180    1.3210 C   0  0  0  0  0  0  0  0  0  0  0  0
   -2.4220    2.1430    0.2630 C   0  0  0  0  0  0  0  0  0  0  0  0
   -1.3570    2.4350   -0.7410 C   0  0  0  0  0  0  0  0  0  0  0  0
   -0.0730    2.2140   -0.0160 C   0  0  2  0  0  0  0  0  0  0  0  0
    0.9750    2.9970   -0.6960 C   0  0  1  0  0  0  0  0  0  0  0  0
    0.4450    4.3230   -0.7350 O   0  0  0  0  0  0  0  0  0  0  0  0
    2.1290    3.0820    0.2630 C   0  0  1  0  0  0  0  0  0  0  0  0
    2.0840    4.2470    1.0350 O   0  0  0  0  0  0  0  0  0  0  0  0
    2.3450    1.9100    1.1090 C   0  0  0  0  0  0  0  0  0  0  0  0
    1.2640    0.9360    1.3980 C   0  0  0  0  0  0  0  0  0  0  0  0
    0.2660    0.7200    0.2290 C   0  0  1  0  0  0  0  0  0  0  0  0
    1.0530    0.1910   -0.8840 C   0  0  0  0  0  0  0  0  0  0  0  0
    1.7470   -1.0350   -1.1100 C   0  0  1  0  0  0  0  0  0  0  0  0
    2.7570   -1.4660   -0.2930 O   0  0  0  0  0  0  0  0  0  0  0  0
    1.0500   -2.2670   -1.6070 C   0  0  0  0  0  0  0  0  0  0  0  0
    2.0900   -3.3970   -1.7010 C   0  0  0  0  0  0  0  0  0  0  0  0
    2.9280   -3.0880   -2.7440 O   0  0  0  0  0  0  0  0  0  0  0  0
    3.5710   -1.8670   -2.5610 C   0  0  0  0  0  0  0  0  0  0  0  0
    2.6060   -0.7260   -2.4210 C   0  0  0  0  0  0  0  0  0  0  0  0
   -1.0160   -0.9390    1.7570 C   0  0  2  0  0  0  0  0  0  0  0  0
   -0.9470   -0.4840    3.2070 C   0  0  0  0  0  0  0  0  0  0  0  0
   -0.3080   -2.2090    1.6900 C   0  0  0  0  0  0  0  0  0  0  0  0
   -2.3960   -1.3190    1.7260 O   0  0  0  0  0  0  0  0  0  0  0  0
  2  1  1  1
  2  3  1  0
  2  4  1  0
  2 28  1  0
  5  4  1  6
  5  6  1  0
  5 16  1  0
  5 25  1  0
  6  7  1  0
  7  8  1  0
  9  8  1  6
  9 10  1  0
  9 16  1  0
 10 11  1  1
 10 12  1  0
 12 13  1  1
 12 14  1  0
 14 15  1  0
 15 16  1  0
 16 17  1  6
 17 18  1  0
 18 19  1  1
 18 20  1  0
 18 24  1  0
 20 21  1  0
 21 22  1  0
 22 23  1  0
 23 24  1  0
 25 26  1  1
 25 27  1  0
 25 28  1  0
M  END
