
     RDKit          3D

 28 30  0  0  0  0  0  0  0  0999 V2000
   -3.6530    2.9120    0.8170 C   0  0  0  0  0  0  0  0  0  0  0  0
   -2.7910    1.7980    0.1630 C   0  0  1  0  0  0  0  0  0  0  0  0
   -1.4450    1.7800    0.7320 C   0  0  0  0  0  0  0  0  0  0  0  0
   -0.2680    2.1020   -0.1160 C   0  0  2  0  0  0  0  0  0  0  0  0
   -0.3780    1.9090   -1.5800 C   0  0  0  0  0  0  0  0  0  0  0  0
    0.1390    0.5700   -2.0530 C   0  0  0  0  0  0  0  0  0  0  0  0
    0.0080   -0.3480   -0.9700 O   0  0  0  0  0  0  0  0  0  0  0  0
    0.3080   -1.6840   -1.1240 C   0  0  0  0  0  0  0  0  0  0  0  0
   -0.2050   -2.5830   -0.3390 C   0  0  0  0  0  0  0  0  0  0  0  0
   -1.1110   -2.2680    0.7430 C   0  0  0  0  0  0  0  0  0  0  0  0
   -2.5830   -2.2450    0.4420 C   0  0  2  0  0  0  0  0  0  0  0  0
   -2.9940   -1.7150   -0.8680 C   0  0  0  0  0  0  0  0  0  0  0  0
   -3.4040   -0.3070   -0.9780 C   0  0  0  0  0  0  0  0  0  0  0  0
   -3.5910    0.4900    0.2600 C   0  0  1  0  0  0  0  0  0  0  0  0
   -3.5680   -0.1830    1.5550 C   0  0  0  0  0  0  0  0  0  0  0  0
   -3.2570   -1.6120    1.6360 C   0  0  1  0  0  0  0  0  0  0  0  0
   -4.4520   -2.3480    1.8350 O   0  0  0  0  0  0  0  0  0  0  0  0
    1.2530   -2.0080   -2.2380 C   0  0  0  0  0  0  0  0  0  0  0  0
    2.6870   -1.7740   -1.7950 C   0  0  0  0  0  0  0  0  0  0  0  0
    2.7660   -1.4840   -0.3170 C   0  0  0  0  0  0  0  0  0  0  0  0
    3.7830   -0.3440   -0.0200 C   0  0  2  0  0  0  0  0  0  0  0  0
    4.0360   -0.3450    1.4290 C   0  0  0  0  0  0  0  0  0  0  0  0
    5.0150    0.7010    1.8930 C   0  0  0  0  0  0  0  0  0  0  0  0
    6.2230    0.4360    1.2020 O   0  0  0  0  0  0  0  0  0  0  0  0
    3.4320    0.6900   -0.7270 O   0  0  0  0  0  0  0  0  0  0  0  0
    3.0730    1.9100   -0.4130 C   0  0  0  0  0  0  0  0  0  0  0  0
    1.9550    2.0150    0.6100 C   0  0  0  0  0  0  0  0  0  0  0  0
    0.8330    1.3020    0.2940 O   0  0  0  0  0  0  0  0  0  0  0  0
  2  1  1  1
  2  3  1  0
  2 14  1  0
  4  3  1  1
  4  5  1  0
  4 28  1  0
  5  6  1  0
  6  7  1  0
  7  8  1  0
  8  9  2  0
  8 18  1  0
  9 10  1  0
 11 10  1  1
 11 12  1  0
 11 16  1  0
 12 13  1  0
 13 14  1  0
 14 15  1  1
 15 16  1  0
 16 17  1  6
 18 19  1  0
 19 20  1  0
 20 21  1  0
 21 22  1  1
 21 25  1  0
 22 23  1  0
 23 24  1  0
 25 26  1  0
 26 27  1  0
 27 28  1  0
M  END
