
     RDKit          3D

 28 32  0  0  0  0  0  0  0  0999 V2000
    2.6710    1.8020   -0.0470 C   0  0  0  0  0  0  0  0  0  0  0  0
    2.3480    0.3870    0.3540 C   0  0  2  0  0  0  0  0  0  0  0  0
    2.8380    0.1530    1.7620 C   0  0  0  0  0  0  0  0  0  0  0  0
    4.3510    0.1590    1.8440 C   0  0  0  0  0  0  0  0  0  0  0  0
    4.9900   -0.6880    0.7920 C   0  0  2  0  0  0  0  0  0  0  0  0
    5.6630    0.0870   -0.1660 O   0  0  0  0  0  0  0  0  0  0  0  0
    3.9140   -1.4650    0.0910 C   0  0  0  0  0  0  0  0  0  0  0  0
    2.9510   -0.5340   -0.6520 C   0  0  1  0  0  0  0  0  0  0  0  0
    1.9830   -1.3910   -1.3730 C   0  0  0  0  0  0  0  0  0  0  0  0
    0.7910   -0.6610   -1.9450 C   0  0  0  0  0  0  0  0  0  0  0  0
    0.3890    0.5160   -1.0990 C   0  0  2  0  0  0  0  0  0  0  0  0
    0.8580    0.2070    0.3030 C   0  0  2  0  0  0  0  0  0  0  0  0
    0.1110    1.0910    1.2430 C   0  0  0  0  0  0  0  0  0  0  0  0
   -1.3030    0.4810    1.2760 C   0  0  1  0  0  0  0  0  0  0  0  0
   -2.0430    1.1350    2.2760 O   0  0  0  0  0  0  0  0  0  0  0  0
   -1.9270    0.6200   -0.0390 C   0  0  2  0  0  0  0  0  0  0  0  0
   -2.9990    1.7260    0.0810 C   0  0  0  0  0  0  0  0  0  0  0  0
   -2.6110   -0.6410   -0.4790 C   0  0  1  0  0  0  0  0  0  0  0  0
   -3.7750   -1.0760    0.2840 C   0  0  0  0  0  0  0  0  0  0  0  0
   -5.0470   -1.0440   -0.1470 C   0  0  0  0  0  0  0  0  0  0  0  0
   -5.9350   -1.5550    0.8800 C   0  0  0  0  0  0  0  0  0  0  0  0
   -7.2070   -1.6530    0.7760 O   0  0  0  0  0  0  0  0  0  0  0  0
   -5.1760   -1.9070    1.9660 O   0  0  0  0  0  0  0  0  0  0  0  0
   -3.8160   -1.6820    1.6210 C   0  0  0  0  0  0  0  0  0  0  0  0
   -3.0240   -0.1910   -1.8890 C   0  0  0  0  0  0  0  0  0  0  0  0
   -1.7670    0.4700   -2.3790 C   0  0  0  0  0  0  0  0  0  0  0  0
   -1.0130    0.9600   -1.1870 C   0  0  2  0  0  0  0  0  0  0  0  0
   -1.0220    2.3750   -1.2590 O   0  0  0  0  0  0  0  0  0  0  0  0
  2  1  1  6
  2  3  1  0
  2  8  1  0
  2 12  1  0
  3  4  1  0
  4  5  1  0
  5  6  1  6
  5  7  1  0
  8  7  1  1
  8  9  1  0
  9 10  1  0
 11 10  1  6
 11 12  1  0
 11 27  1  0
 12 13  1  1
 13 14  1  0
 14 15  1  1
 14 16  1  0
 16 17  1  1
 16 18  1  0
 16 27  1  0
 18 19  1  1
 18 25  1  0
 19 20  2  0
 19 24  1  0
 20 21  1  0
 21 22  2  0
 21 23  1  0
 23 24  1  0
 25 26  1  0
 26 27  1  0
 27 28  1  6
M  END
