
     RDKit          3D

 28 31  0  0  0  0  0  0  0  0999 V2000
   -3.6370   -1.3140    2.3160 C   0  0  0  0  0  0  0  0  0  0  0  0
   -2.9550   -0.0580    1.7290 C   0  0  1  0  0  0  0  0  0  0  0  0
   -2.6950    0.8170    2.9410 C   0  0  0  0  0  0  0  0  0  0  0  0
   -2.3220    2.1160    2.6130 O   0  0  0  0  0  0  0  0  0  0  0  0
   -1.7480   -0.4170    0.9480 C   0  0  0  0  0  0  0  0  0  0  0  0
   -1.8060   -0.3480   -0.5310 C   0  0  2  0  0  0  0  0  0  0  0  0
   -3.2000    0.0450   -1.0680 C   0  0  0  0  0  0  0  0  0  0  0  0
   -4.2900   -0.2210   -0.0840 C   0  0  0  0  0  0  0  0  0  0  0  0
   -3.9700    0.5630    1.0240 O   0  0  0  0  0  0  0  0  0  0  0  0
   -1.7130   -1.8230   -1.0020 C   0  0  1  0  0  0  0  0  0  0  0  0
   -2.9820   -2.3710   -1.2220 O   0  0  0  0  0  0  0  0  0  0  0  0
   -0.8650   -2.0850   -2.1670 C   0  0  0  0  0  0  0  0  0  0  0  0
   -0.8030   -1.0420   -3.2230 C   0  0  0  0  0  0  0  0  0  0  0  0
   -1.0670    0.3420   -2.7470 C   0  0  0  0  0  0  0  0  0  0  0  0
   -0.8870    0.5490   -1.2540 C   0  0  1  0  0  0  0  0  0  0  0  0
   -1.5490    1.8400   -1.1320 O   0  0  0  0  0  0  0  0  0  0  0  0
    0.4680    0.9000   -0.8070 C   0  0  1  0  0  0  0  0  0  0  0  0
    1.1210    1.6030   -2.0440 C   0  0  0  0  0  0  0  0  0  0  0  0
    0.5370    2.1080    0.1400 C   0  0  0  0  0  0  0  0  0  0  0  0
    1.8820    2.2820    0.7630 C   0  0  0  0  0  0  0  0  0  0  0  0
    2.2820    1.1100    1.3300 O   0  0  0  0  0  0  0  0  0  0  0  0
    2.5490    0.1160    0.4020 C   0  0  2  0  0  0  0  0  0  0  0  0
    2.9150   -1.1150    1.2500 C   0  0  0  0  0  0  0  0  0  0  0  0
    3.9740   -0.7880    2.2530 C   0  0  0  0  0  0  0  0  0  0  0  0
    5.1250   -0.1230    1.5730 C   0  0  0  0  0  0  0  0  0  0  0  0
    5.0080   -0.3640    0.0810 C   0  0  0  0  0  0  0  0  0  0  0  0
    3.8030    0.4200   -0.3930 C   0  0  0  0  0  0  0  0  0  0  0  0
    1.3950   -0.1990   -0.4920 C   0  0  0  0  0  0  0  0  0  0  0  0
  2  1  1  1
  2  3  1  0
  2  5  1  0
  2  9  1  0
  3  4  1  0
  6  5  1  1
  6  7  1  0
  6 10  1  0
  6 15  1  0
  7  8  1  0
  8  9  1  0
 10 11  1  6
 10 12  1  0
 12 13  1  0
 13 14  1  0
 14 15  1  0
 15 16  1  6
 15 17  1  0
 17 18  1  6
 17 19  1  0
 17 28  1  0
 19 20  1  0
 20 21  1  0
 21 22  1  0
 22 23  1  1
 22 27  1  0
 22 28  1  0
 23 24  1  0
 24 25  1  0
 25 26  1  0
 26 27  1  0
M  END
