
     RDKit          3D

 28 31  0  0  0  0  0  0  0  0999 V2000
   -0.6590   -3.7670    0.1070 C   0  0  0  0  0  0  0  0  0  0  0  0
   -1.0130   -2.2690   -0.1950 C   0  0  2  0  0  0  0  0  0  0  0  0
   -1.3180   -2.3120   -1.6400 C   0  0  0  0  0  0  0  0  0  0  0  0
   -0.2000   -2.7680   -2.3680 O   0  0  0  0  0  0  0  0  0  0  0  0
    0.0940   -1.5340    0.3640 C   0  0  0  0  0  0  0  0  0  0  0  0
    0.1080   -0.0170    0.4160 C   0  0  2  0  0  0  0  0  0  0  0  0
    0.4500    0.5260   -0.8920 C   0  0  0  0  0  0  0  0  0  0  0  0
    1.6150    0.2480   -1.7070 C   0  0  1  0  0  0  0  0  0  0  0  0
    1.3730    1.1190   -2.9940 C   0  0  0  0  0  0  0  0  0  0  0  0
    2.0940    0.4750   -4.1520 C   0  0  0  0  0  0  0  0  0  0  0  0
    3.2120   -0.2140   -3.6650 O   0  0  0  0  0  0  0  0  0  0  0  0
    3.8320    0.5090   -2.6770 C   0  0  0  0  0  0  0  0  0  0  0  0
    2.9960    0.5980   -1.3810 C   0  0  1  0  0  0  0  0  0  0  0  0
    3.0750    1.9130   -0.8970 O   0  0  0  0  0  0  0  0  0  0  0  0
    0.8530    0.4670    1.6100 C   0  0  1  0  0  0  0  0  0  0  0  0
    2.2280    0.0080    1.9130 C   0  0  0  0  0  0  0  0  0  0  0  0
    2.3860    0.3920    3.4280 C   0  0  0  0  0  0  0  0  0  0  0  0
    2.3730    1.7610    3.5580 O   0  0  0  0  0  0  0  0  0  0  0  0
    1.0760    2.1970    3.3070 C   0  0  0  0  0  0  0  0  0  0  0  0
    0.8690    1.9860    1.7900 C   0  0  0  0  0  0  0  0  0  0  0  0
   -1.3770    0.4050    0.7470 C   0  0  1  0  0  0  0  0  0  0  0  0
   -2.0630    1.1330   -0.3630 C   0  0  0  0  0  0  0  0  0  0  0  0
   -3.2010    1.9590    0.2920 C   0  0  0  0  0  0  0  0  0  0  0  0
   -3.7160    1.2890    1.5420 C   0  0  0  0  0  0  0  0  0  0  0  0
   -3.6460   -0.1870    1.3440 C   0  0  0  0  0  0  0  0  0  0  0  0
   -2.2130   -0.6820    1.3190 C   0  0  1  0  0  0  0  0  0  0  0  0
   -2.2350   -1.9880    0.6340 C   0  0  1  0  0  0  0  0  0  0  0  0
   -3.4310   -2.2040   -0.0940 O   0  0  0  0  0  0  0  0  0  0  0  0
  2  1  1  1
  2  3  1  0
  2  5  1  0
  2 27  1  0
  3  4  1  0
  5  6  1  0
  6  7  1  6
  6 15  1  0
  6 21  1  0
  8  7  1  1
  8  9  1  0
  8 13  1  0
  9 10  1  0
 10 11  1  0
 11 12  1  0
 12 13  1  0
 13 14  1  6
 15 16  1  6
 15 20  1  0
 16 17  1  0
 17 18  1  0
 18 19  1  0
 19 20  1  0
 21 22  1  6
 21 26  1  0
 22 23  1  0
 23 24  1  0
 24 25  1  0
 26 25  1  6
 26 27  1  0
 27 28  1  6
M  END
