
     RDKit          3D

 12 13  0  0  0  0  0  0  0  0999 V2000
    3.2930    0.1990    0.4570 C   0  0  0  0  0  0  0  0  0  0  0  0
    2.3830   -0.8300    0.2200 O   0  0  0  0  0  0  0  0  0  0  0  0
    0.9990   -0.6350    0.1630 C   0  0  0  0  0  0  0  0  0  0  0  0
    0.1420   -1.6890   -0.0750 C   0  0  0  0  0  0  0  0  0  0  0  0
   -1.2300   -1.5510   -0.1410 C   0  0  0  0  0  0  0  0  0  0  0  0
   -1.8000   -0.3030    0.0370 C   0  0  0  0  0  0  0  0  0  0  0  0
   -0.9610    0.7680    0.2760 C   0  0  0  0  0  0  0  0  0  0  0  0
    0.4140    0.6020    0.3380 C   0  0  0  0  0  0  0  0  0  0  0  0
   -1.7800    1.8310    0.4060 N   0  0  0  0  0  0  0  0  0  0  0  0
   -3.0360    1.4420    0.2570 N   0  0  0  0  0  0  0  0  0  0  0  0
   -3.0720    0.1580    0.0330 N   0  0  0  0  0  0  0  0  0  0  0  0
   -4.1540   -0.6850   -0.1830 O   0  0  0  0  0  0  0  0  0  0  0  0
  1  2  1  0
  2  3  1  0
  3  4  2  0
  3  8  1  0
  4  5  1  0
  5  6  2  0
  6  7  1  0
  6 11  1  0
  7  8  2  0
  7  9  1  0
  9 10  1  0
 10 11  2  0
 11 12  1  0
M  CHG  2  11   1  12  -1
M  END
