
     RDKit          3D

 11 12  0  0  0  0  0  0  0  0999 V2000
    3.3760    0.2580   -0.8090 O   0  0  0  0  0  0  0  0  0  0  0  0
    2.2530   -0.2930   -0.6090 C   0  0  0  0  0  0  0  0  0  0  0  0
    2.1740   -1.6610   -0.7750 O   0  0  0  0  0  0  0  0  0  0  0  0
    1.1380    0.5450   -0.2230 C   0  0  0  0  0  0  0  0  0  0  0  0
    1.0860    1.9040   -0.0260 C   0  0  0  0  0  0  0  0  0  0  0  0
   -0.1510    2.2250    0.3200 N   0  0  0  0  0  0  0  0  0  0  0  0
   -0.9460    1.1400    0.3670 N   0  0  0  0  0  0  0  0  0  0  0  0
   -0.1700    0.0990    0.0370 C   0  0  0  0  0  0  0  0  0  0  0  0
   -1.0080   -1.1100    0.0780 C   0  0  0  0  0  0  0  0  0  0  0  0
   -2.3380   -0.6160    0.4700 C   0  0  0  0  0  0  0  0  0  0  0  0
   -2.2690    0.6860    0.6300 C   0  0  0  0  0  0  0  0  0  0  0  0
  1  2  2  0
  2  3  1  0
  2  4  1  0
  4  5  1  0
  4  8  2  0
  5  6  2  0
  6  7  1  0
  7  8  1  0
  7 11  1  0
  8  9  1  0
  9 10  1  0
 10 11  2  0
M  END
