
     RDKit          3D

 12 12  0  0  0  0  0  0  0  0999 V2000
   -2.6740   -0.7260    1.2190 C   0  0  0  0  0  0  0  0  0  0  0  0
   -1.3230   -0.1410    1.2710 C   0  0  0  0  0  0  0  0  0  0  0  0
   -0.5410   -0.1530    0.2030 C   0  0  0  0  0  0  0  0  0  0  0  0
   -1.0910   -0.7810   -1.0350 C   0  0  0  0  0  0  0  0  0  0  0  0
    0.8090    0.3800    0.2480 C   0  0  0  0  0  0  0  0  0  0  0  0
    1.3700    0.7860    1.4310 N   0  0  0  0  0  0  0  0  0  0  0  0
    2.5950    1.2310    1.2300 N   0  0  0  0  0  0  0  0  0  0  0  0
    2.9100    1.1510   -0.0520 C   0  0  0  0  0  0  0  0  0  0  0  0
    1.7700    0.6080   -0.6900 C   0  0  0  0  0  0  0  0  0  0  0  0
    1.7120    0.3740   -2.0730 N   0  0  0  0  0  0  0  0  0  0  0  0
    0.7170    0.5340   -2.7750 O   0  0  0  0  0  0  0  0  0  0  0  0
    2.8830   -0.0220   -2.7440 O   0  0  0  0  0  0  0  0  0  0  0  0
  1  2  1  0
  2  3  2  3
  3  4  1  0
  3  5  1  0
  5  6  1  0
  5  9  2  0
  6  7  1  0
  7  8  2  0
  8  9  1  0
  9 10  1  0
 10 11  2  0
 10 12  1  0
M  CHG  2  10   1  12  -1
M  END
