
     RDKit          3D

 12 13  0  0  0  0  0  0  0  0999 V2000
    3.7130    1.1910   -1.0490 O   0  0  0  0  0  0  0  0  0  0  0  0
    2.5510    0.5980   -0.6150 N   0  0  0  0  0  0  0  0  0  0  0  0
    2.5770   -0.5790    0.0390 C   0  0  0  0  0  0  0  0  0  0  0  0
    1.4270   -1.2010    0.4880 C   0  0  0  0  0  0  0  0  0  0  0  0
    0.2350   -0.5270    0.2180 C   0  0  0  0  0  0  0  0  0  0  0  0
   -0.9810   -1.0430    0.6140 C   0  0  0  0  0  0  0  0  0  0  0  0
   -2.1650   -0.3840    0.3520 C   0  0  0  0  0  0  0  0  0  0  0  0
   -2.1540    0.8190   -0.3190 C   0  0  0  0  0  0  0  0  0  0  0  0
   -3.3310    1.5200   -0.6050 O   0  0  0  0  0  0  0  0  0  0  0  0
   -0.9570    1.3040   -0.6960 N   0  0  0  0  0  0  0  0  0  0  0  0
    0.2090    0.6780   -0.4510 C   0  0  0  0  0  0  0  0  0  0  0  0
    1.3900    1.2020   -0.8480 N   0  0  0  0  0  0  0  0  0  0  0  0
  1  2  1  0
  2  3  2  0
  2 12  1  0
  3  4  1  0
  4  5  2  0
  5  6  1  0
  5 11  1  0
  6  7  2  0
  7  8  1  0
  8  9  1  0
  8 10  2  0
 10 11  1  0
 11 12  2  0
M  CHG  2   1  -1   2   1
M  END
