
     RDKit          3D

 11 12  0  0  0  0  0  0  0  0999 V2000
    4.1660    0.1460   -0.0650 N   0  0  0  0  0  0  0  0  0  0  0  0
    2.8650   -0.3940   -0.0190 C   0  0  0  0  0  0  0  0  0  0  0  0
    1.7270    0.3540   -0.0680 N   0  0  0  0  0  0  0  0  0  0  0  0
    0.6550   -0.4540   -0.0040 C   0  0  0  0  0  0  0  0  0  0  0  0
   -0.7720   -0.0640   -0.0250 C   0  0  0  0  0  0  0  0  0  0  0  0
   -1.7670   -0.9190    0.0410 C   0  0  0  0  0  0  0  0  0  0  0  0
   -3.0190   -0.1450   -0.0090 C   0  0  0  0  0  0  0  0  0  0  0  0
   -2.5940    1.2620   -0.1120 C   0  0  0  0  0  0  0  0  0  0  0  0
   -1.2790    1.2950   -0.1210 C   0  0  0  0  0  0  0  0  0  0  0  0
    1.1530   -1.6990    0.0830 N   0  0  0  0  0  0  0  0  0  0  0  0
    2.4630   -1.6290    0.0720 O   0  0  0  0  0  0  0  0  0  0  0  0
  1  2  1  0
  2  3  2  0
  2 11  1  0
  3  4  1  0
  4  5  1  0
  4 10  2  0
  5  6  2  0
  5  9  1  0
  6  7  1  0
  7  8  1  0
  8  9  2  0
 10 11  1  0
M  END
