
     RDKit          3D

 12 13  0  0  0  0  0  0  0  0999 V2000
    2.9510    0.5130    0.3140 C   0  0  0  0  0  0  0  0  0  0  0  0
    2.1910   -0.4270   -0.5630 C   0  0  2  0  0  0  0  0  0  0  0  0
    2.4580   -0.1670   -1.9140 O   0  0  0  0  0  0  0  0  0  0  0  0
    0.7180   -0.2920   -0.3060 C   0  0  0  0  0  0  0  0  0  0  0  0
    0.1140    0.3390    0.7180 N   0  0  0  0  0  0  0  0  0  0  0  0
   -1.2240    0.2470    0.6100 C   0  0  0  0  0  0  0  0  0  0  0  0
   -2.3040    0.6930    1.3520 C   0  0  0  0  0  0  0  0  0  0  0  0
   -3.5600    0.4180    0.9490 N   0  0  0  0  0  0  0  0  0  0  0  0
   -3.8070   -0.2920   -0.1770 C   0  0  0  0  0  0  0  0  0  0  0  0
   -2.7540   -0.7240   -0.8960 N   0  0  0  0  0  0  0  0  0  0  0  0
   -1.4790   -0.4770   -0.5380 C   0  0  0  0  0  0  0  0  0  0  0  0
   -0.2770   -0.7830   -1.0610 N   0  0  0  0  0  0  0  0  0  0  0  0
  2  1  1  1
  2  3  1  0
  2  4  1  0
  4  5  2  0
  4 12  1  0
  5  6  1  0
  6  7  2  0
  6 11  1  0
  7  8  1  0
  8  9  2  0
  9 10  1  0
 10 11  2  0
 11 12  1  0
M  END
