
     RDKit          3D

 11 12  0  0  0  0  0  0  0  0999 V2000
   -3.9240   -0.2880   -0.2300 N   0  0  0  0  0  0  0  0  0  0  0  0
   -2.5010   -0.2780    0.0000 C   0  0  0  0  0  0  0  0  0  0  0  0
   -1.7340   -1.2810    0.5560 C   0  0  0  0  0  0  0  0  0  0  0  0
   -0.4590   -0.8370    0.5750 N   0  0  0  0  0  0  0  0  0  0  0  0
   -0.3700    0.3730    0.0720 N   0  0  0  0  0  0  0  0  0  0  0  0
    0.7550    1.1690   -0.0830 O   0  0  0  0  0  0  0  0  0  0  0  0
    2.0370    0.6890   -0.0820 C   0  0  0  0  0  0  0  0  0  0  0  0
    3.1160    0.8930   -0.8550 C   0  0  0  0  0  0  0  0  0  0  0  0
    3.8890   -0.0340   -0.0410 C   0  0  0  0  0  0  0  0  0  0  0  0
    2.8290   -0.2350    0.7200 C   0  0  0  0  0  0  0  0  0  0  0  0
   -1.6130    0.7360   -0.2880 C   0  0  0  0  0  0  0  0  0  0  0  0
  1  2  1  0
  2  3  1  0
  2 11  2  0
  3  4  2  0
  4  5  1  0
  5  6  1  0
  5 11  1  0
  6  7  1  0
  7  8  2  0
  7 10  1  0
  8  9  1  0
  9 10  2  0
M  END
