
     RDKit          3D

 10 10  0  0  0  0  0  0  0  0999 V2000
   -0.9470    1.9910    0.5300 N   0  0  0  0  0  0  0  0  0  0  0  0
   -0.0600    0.9210    0.2250 C   0  0  2  0  0  0  0  0  0  0  0  0
    0.4450    0.9780   -1.1810 C   0  0  0  0  0  0  0  0  0  0  0  0
    1.4600    0.0890   -1.4320 O   0  0  0  0  0  0  0  0  0  0  0  0
    2.2560   -0.2030   -0.3510 C   0  0  0  0  0  0  0  0  0  0  0  0
    1.5740   -1.1080    0.6540 C   0  0  0  0  0  0  0  0  0  0  0  0
    0.2900   -1.4280    0.2910 O   0  0  0  0  0  0  0  0  0  0  0  0
   -0.6400   -0.4430    0.4910 C   0  0  2  0  0  0  0  0  0  0  0  0
   -1.8180   -0.7390   -0.4140 C   0  0  0  0  0  0  0  0  0  0  0  0
   -2.2950   -2.0090   -0.0200 O   0  0  0  0  0  0  0  0  0  0  0  0
  2  1  1  6
  2  3  1  0
  2  8  1  0
  3  4  1  0
  4  5  1  0
  5  6  1  0
  6  7  1  0
  7  8  1  0
  8  9  1  6
  9 10  1  0
M  END
