
     RDKit          3D

 11 11  0  0  0  0  0  0  0  0999 V2000
   -1.5330   -1.8610    0.7840 N   0  0  0  0  0  0  0  0  0  0  0  0
   -0.4060   -1.2160    0.1530 C   0  0  1  0  0  0  0  0  0  0  0  0
   -0.3570   -1.4860   -1.3410 C   0  0  0  0  0  0  0  0  0  0  0  0
    0.3470   -0.4560   -1.9080 O   0  0  0  0  0  0  0  0  0  0  0  0
    0.3960    0.6010   -1.0210 C   0  0  2  0  0  0  0  0  0  0  0  0
    1.8020    0.6480   -0.4460 C   0  0  0  0  0  0  0  0  0  0  0  0
    2.7400    0.8320   -1.4860 O   0  0  0  0  0  0  0  0  0  0  0  0
   -0.5750    0.2850    0.0870 C   0  0  1  0  0  0  0  0  0  0  0  0
   -1.8420    0.5680   -0.3970 O   0  0  0  0  0  0  0  0  0  0  0  0
   -0.2620    0.9730    1.3740 C   0  0  0  0  0  0  0  0  0  0  0  0
   -0.3490    2.3480    1.1540 O   0  0  0  0  0  0  0  0  0  0  0  0
  2  1  1  6
  2  3  1  0
  2  8  1  0
  3  4  1  0
  4  5  1  0
  5  6  1  1
  5  8  1  0
  6  7  1  0
  8  9  1  6
  8 10  1  0
 10 11  1  0
M  END
