
     RDKit          3D

 11 11  0  0  0  0  0  0  0  0999 V2000
   -1.1110    1.9040   -2.2760 N   0  0  0  0  0  0  0  0  0  0  0  0
   -0.8990    1.1570   -1.4180 C   0  0  0  0  0  0  0  0  0  0  0  0
   -0.6220    0.2200   -0.3030 C   0  0  1  0  0  0  0  0  0  0  0  0
    0.8060   -0.2050   -0.1950 C   0  0  2  0  0  0  0  0  0  0  0  0
    1.0000   -1.0760    0.8600 O   0  0  0  0  0  0  0  0  0  0  0  0
    1.7310    0.9860    0.0040 C   0  0  0  0  0  0  0  0  0  0  0  0
    3.0200    0.5070    0.0240 O   0  0  0  0  0  0  0  0  0  0  0  0
   -1.4720    0.3230    0.9380 C   0  0  2  0  0  0  0  0  0  0  0  0
   -0.8560    0.2060    2.1640 O   0  0  0  0  0  0  0  0  0  0  0  0
   -1.6660   -0.8190    0.0280 C   0  0  2  0  0  0  0  0  0  0  0  0
   -1.2000   -2.0890    0.3360 O   0  0  0  0  0  0  0  0  0  0  0  0
  1  2  3  0
  3  2  1  6
  3  4  1  0
  3  8  1  0
  3 10  1  0
  4  5  1  1
  4  6  1  0
  6  7  1  0
  8  9  1  1
  8 10  1  0
 10 11  1  1
M  END
