
     RDKit          3D

 10 10  0  0  0  0  0  0  0  0999 V2000
   -2.1770    0.2280   -1.0660 N   0  0  0  0  0  0  0  0  0  0  0  0
   -1.5780   -0.0150    0.2510 C   0  0  2  0  0  0  0  0  0  0  0  0
   -1.0750    1.2970    0.7620 C   0  0  0  0  0  0  0  0  0  0  0  0
    0.2510    1.4340    0.0160 C   0  0  0  0  0  0  0  0  0  0  0  0
    0.8430    0.0590    0.2230 C   0  0  2  0  0  0  0  0  0  0  0  0
    1.4340   -0.0970    1.4530 O   0  0  0  0  0  0  0  0  0  0  0  0
    1.8000   -0.3040   -0.8920 C   0  0  0  0  0  0  0  0  0  0  0  0
    2.9430    0.4740   -0.8970 O   0  0  0  0  0  0  0  0  0  0  0  0
   -0.3510   -0.8540    0.1220 C   0  0  1  0  0  0  0  0  0  0  0  0
   -0.3350   -1.7820    1.1770 O   0  0  0  0  0  0  0  0  0  0  0  0
  2  1  1  6
  2  3  1  0
  2  9  1  0
  3  4  1  0
  4  5  1  0
  5  6  1  1
  5  7  1  0
  5  9  1  0
  7  8  1  0
  9 10  1  1
M  END
