
     RDKit          3D

 11 11  0  0  0  0  0  0  0  0999 V2000
    2.7620   -0.3970    1.0390 O   0  0  0  0  0  0  0  0  0  0  0  0
    2.4210   -0.0340   -0.2580 C   0  0  0  0  0  0  0  0  0  0  0  0
    0.9390   -0.0720   -0.4490 C   0  0  1  0  0  0  0  0  0  0  0  0
    0.4130   -1.3820   -0.2110 N   0  0  0  0  0  0  0  0  0  0  0  0
   -0.9840   -1.5110   -0.3150 C   0  0  0  0  0  0  0  0  0  0  0  0
   -1.8030   -0.4110    0.2550 C   0  0  2  0  0  0  0  0  0  0  0  0
   -3.0990   -0.4560   -0.3030 O   0  0  0  0  0  0  0  0  0  0  0  0
   -1.2070    0.9570   -0.0870 C   0  0  1  0  0  0  0  0  0  0  0  0
   -1.9490    1.9640    0.5050 O   0  0  0  0  0  0  0  0  0  0  0  0
    0.2120    0.9030    0.4420 C   0  0  2  0  0  0  0  0  0  0  0  0
    0.8080    2.1270    0.5350 O   0  0  0  0  0  0  0  0  0  0  0  0
  1  2  1  0
  3  2  1  1
  3  4  1  0
  3 10  1  0
  4  5  1  0
  5  6  1  0
  6  7  1  6
  6  8  1  0
  8  9  1  1
  8 10  1  0
 10 11  1  6
M  END
