
     RDKit          3D

 10 10  0  0  0  0  0  0  0  0999 V2000
    2.5160    0.8840    0.3620 N   0  0  0  0  0  0  0  0  0  0  0  0
    1.7580   -0.3520    0.3170 C   0  0  2  0  0  0  0  0  0  0  0  0
    2.3520   -1.1520   -0.6720 O   0  0  0  0  0  0  0  0  0  0  0  0
    0.3280   -0.1370   -0.0830 C   0  0  2  0  0  0  0  0  0  0  0  0
    0.3180    0.4370   -1.3470 O   0  0  0  0  0  0  0  0  0  0  0  0
   -0.4300    0.7600    0.8420 C   0  0  0  0  0  0  0  0  0  0  0  0
   -1.8530    0.8220    0.4080 C   0  0  0  0  0  0  0  0  0  0  0  0
   -2.3320   -0.2690   -0.4490 C   0  0  0  0  0  0  0  0  0  0  0  0
   -1.6320   -1.4120   -0.5300 O   0  0  0  0  0  0  0  0  0  0  0  0
   -0.3770   -1.4710   -0.0510 C   0  0  0  0  0  0  0  0  0  0  0  0
  2  1  1  6
  2  3  1  0
  2  4  1  0
  4  5  1  6
  4  6  1  0
  4 10  1  0
  6  7  1  0
  7  8  1  0
  8  9  1  0
  9 10  1  0
M  END
