
     RDKit          3D

 15 16  0  0  0  0  0  0  0  0999 V2000
    1.8520   -2.5530   -1.7550 N   0  0  0  0  0  0  0  0  0  0  0  0
    0.8620   -1.6440   -1.3950 C   0  0  0  0  0  0  0  0  0  0  0  0
   -0.8270   -1.6650   -2.1260 S   0  0  0  0  0  0  0  0  0  0  0  0
   -1.4050   -0.3130   -1.2130 C   0  0  0  0  0  0  0  0  0  0  0  0
   -0.3140    0.1110   -0.3930 C   0  0  0  0  0  0  0  0  0  0  0  0
    0.8110   -0.5780   -0.5040 C   0  0  0  0  0  0  0  0  0  0  0  0
    2.0790   -0.3360    0.2470 C   0  0  0  0  0  0  0  0  0  0  0  0
    3.1200   -1.0550   -0.0230 O   0  0  0  0  0  0  0  0  0  0  0  0
    2.3070    0.5980    1.2500 N   0  0  0  0  0  0  0  0  0  0  0  0
    3.9070    0.7450    2.0320 S   0  0  0  0  0  0  0  0  0  0  0  0
    4.3070   -0.5980    2.6210 O   0  0  0  0  0  0  0  0  0  0  0  0
   -0.8100    1.3260    0.3790 C   0  0  0  0  0  0  0  0  0  0  0  0
   -1.9650    0.7780    1.2280 C   0  0  0  0  0  0  0  0  0  0  0  0
   -3.1570    0.6730    0.2700 C   0  0  0  0  0  0  0  0  0  0  0  0
   -2.7200    0.4020   -1.1300 C   0  0  0  0  0  0  0  0  0  0  0  0
  1  2  1  0
  2  3  1  0
  2  6  2  0
  3  4  1  0
  4  5  2  0
  4 15  1  0
  5  6  1  0
  5 12  1  0
  6  7  1  0
  7  8  2  0
  7  9  1  0
  9 10  1  0
 10 11  2  0
 12 13  1  0
 13 14  1  0
 14 15  1  0
M  END
