
     RDKit          3D

 15 15  0  0  0  0  0  0  0  0999 V2000
    5.7750   -0.3390    0.3370 N   0  0  0  0  0  0  0  0  0  0  0  0
    4.4010   -0.3780    0.0040 C   0  0  0  0  0  0  0  0  0  0  0  0
    3.7770   -1.4100    0.4280 O   0  0  0  0  0  0  0  0  0  0  0  0
    3.7340    0.6990   -0.7770 C   0  0  0  0  0  0  0  0  0  0  0  0
    2.3370    0.3280   -0.9190 N   0  0  0  0  0  0  0  0  0  0  0  0
    1.4800    0.1200    0.1840 C   0  0  0  0  0  0  0  0  0  0  0  0
    1.9720    0.2630    1.3310 O   0  0  0  0  0  0  0  0  0  0  0  0
    0.0500   -0.2540    0.0560 C   0  0  0  0  0  0  0  0  0  0  0  0
   -1.0590    1.0080    0.6550 S   0  0  0  0  0  0  0  0  0  0  0  0
   -2.7730    0.4750    0.4100 C   0  0  0  0  0  0  0  0  0  0  0  0
   -2.9880   -0.6710   -0.1760 C   0  0  0  0  0  0  0  0  0  0  0  0
   -4.2500   -1.3500   -0.5030 C   0  0  0  0  0  0  0  0  0  0  0  0
   -5.6630   -0.3690   -0.0330 S   0  0  0  0  0  0  0  0  0  0  0  0
   -5.1120    1.1270    0.7410 C   0  0  0  0  0  0  0  0  0  0  0  0
   -3.8480    1.3730    0.8700 C   0  0  0  0  0  0  0  0  0  0  0  0
  1  2  1  0
  2  3  2  0
  2  4  1  0
  4  5  1  0
  5  6  1  0
  6  7  2  0
  6  8  1  0
  8  9  1  0
  9 10  1  0
 10 11  2  0
 10 15  1  0
 11 12  1  0
 12 13  1  0
 13 14  1  0
 14 15  2  0
M  END
