
     RDKit          3D

 14 15  0  0  0  0  0  0  0  0999 V2000
    3.7730    1.4760   -0.4370 N   0  0  0  0  0  0  0  0  0  0  0  0
    3.4960    0.1380   -0.0200 C   0  0  0  0  0  0  0  0  0  0  0  0
    4.4030   -0.6890    0.2200 O   0  0  0  0  0  0  0  0  0  0  0  0
    2.1440   -0.2820    0.1300 C   0  0  0  0  0  0  0  0  0  0  0  0
    1.4900   -1.3830    0.4790 C   0  0  0  0  0  0  0  0  0  0  0  0
    0.1530   -1.4530    0.5220 C   0  0  0  0  0  0  0  0  0  0  0  0
   -0.5350   -0.3630    0.1970 C   0  0  0  0  0  0  0  0  0  0  0  0
   -2.0580   -0.1210    0.1470 C   0  0  0  0  0  0  0  0  0  0  0  0
   -2.8380   -1.1420    0.4730 C   0  0  0  0  0  0  0  0  0  0  0  0
   -4.5100   -0.3570    0.2580 S   0  0  0  0  0  0  0  0  0  0  0  0
   -3.8580    1.1840   -0.2270 C   0  0  0  0  0  0  0  0  0  0  0  0
   -4.5460    2.2490   -0.5440 O   0  0  0  0  0  0  0  0  0  0  0  0
   -2.5710    1.0320   -0.2000 N   0  0  0  0  0  0  0  0  0  0  0  0
    0.6930    0.8500   -0.1950 S   0  0  0  0  0  0  0  0  0  0  0  0
  1  2  1  0
  2  3  2  0
  2  4  1  0
  4  5  2  0
  4 14  1  0
  5  6  1  0
  6  7  2  0
  7  8  1  0
  7 14  1  0
  8  9  2  0
  8 13  1  0
  9 10  1  0
 10 11  1  0
 11 12  2  0
 11 13  1  0
M  END
