
     RDKit          3D

 15 16  0  0  0  0  0  0  0  0999 V2000
    5.2020    0.8900    0.1100 N   0  0  0  0  0  0  0  0  0  0  0  0
    4.3770   -0.1950    0.4670 C   0  0  0  0  0  0  0  0  0  0  0  0
    4.8580   -1.3360    0.5920 O   0  0  0  0  0  0  0  0  0  0  0  0
    2.9370    0.0230    0.6940 C   0  0  0  0  0  0  0  0  0  0  0  0
    2.0850   -0.2130   -0.9110 S   0  0  0  0  0  0  0  0  0  0  0  0
    0.3490    0.0440   -0.6640 C   0  0  0  0  0  0  0  0  0  0  0  0
   -0.4260   -1.0500   -0.3240 C   0  0  0  0  0  0  0  0  0  0  0  0
   -1.8100   -0.9290   -0.1110 C   0  0  0  0  0  0  0  0  0  0  0  0
   -2.3730    0.2700   -0.2430 C   0  0  0  0  0  0  0  0  0  0  0  0
   -1.5580    1.3730   -0.5910 C   0  0  0  0  0  0  0  0  0  0  0  0
   -2.1150    2.6240   -0.7330 O   0  0  0  0  0  0  0  0  0  0  0  0
   -0.2450    1.2390   -0.7890 N   0  0  0  0  0  0  0  0  0  0  0  0
   -3.8540    0.3460   -0.0140 C   0  0  0  0  0  0  0  0  0  0  0  0
   -4.0720   -1.1140    1.0420 S   0  0  0  0  0  0  0  0  0  0  0  0
   -2.6990   -2.0600    0.2640 C   0  0  0  0  0  0  0  0  0  0  0  0
  1  2  1  0
  2  3  2  0
  2  4  1  0
  4  5  1  0
  5  6  1  0
  6  7  2  0
  6 12  1  0
  7  8  1  0
  8  9  2  0
  8 15  1  0
  9 10  1  0
  9 13  1  0
 10 11  1  0
 10 12  2  0
 13 14  1  0
 14 15  1  0
M  END
