
     RDKit          3D

 14 14  0  0  0  0  0  0  0  0999 V2000
   -2.8310   -1.4940   -0.0200 C   0  0  0  0  0  0  0  0  0  0  0  0
   -1.3360   -1.3290   -0.1510 C   0  0  0  0  0  0  0  0  0  0  0  0
   -0.5950   -2.7510   -0.5470 S   0  0  0  0  0  0  0  0  0  0  0  0
   -0.6310   -0.0960    0.0460 C   0  0  0  0  0  0  0  0  0  0  0  0
   -1.1540    1.0920    0.3600 C   0  0  0  0  0  0  0  0  0  0  0  0
   -2.6030    1.3920    0.5750 C   0  0  0  0  0  0  0  0  0  0  0  0
   -0.1360    2.0770    0.4730 N   0  0  0  0  0  0  0  0  0  0  0  0
    1.1310    1.4900    0.2160 C   0  0  0  0  0  0  0  0  0  0  0  0
    2.2030    2.1460    0.2520 O   0  0  0  0  0  0  0  0  0  0  0  0
    0.8380    0.0920   -0.0610 C   0  0  0  0  0  0  0  0  0  0  0  0
    1.7520   -0.8080   -0.3510 C   0  0  0  0  0  0  0  0  0  0  0  0
    3.1760   -0.6460   -0.4590 C   0  0  0  0  0  0  0  0  0  0  0  0
    3.7980    0.4290   -0.2870 N   0  0  0  0  0  0  0  0  0  0  0  0
    3.9810   -1.7690   -0.7870 O   0  0  0  0  0  0  0  0  0  0  0  0
  1  2  1  0
  2  3  2  0
  2  4  1  0
  4  5  2  0
  4 10  1  0
  5  6  1  0
  5  7  1  0
  7  8  1  0
  8  9  2  0
  8 10  1  0
 10 11  2  3
 11 12  1  0
 12 13  2  0
 12 14  1  0
M  END
