
     RDKit          3D

 15 15  0  0  0  0  0  0  0  0999 V2000
    6.2190   -0.8710    0.2380 C   0  0  0  0  0  0  0  0  0  0  0  0
    4.5180   -0.9740    0.8760 S   0  0  0  0  0  0  0  0  0  0  0  0
    3.3400   -0.4620   -0.4390 C   0  0  0  0  0  0  0  0  0  0  0  0
    2.0260   -0.3590    0.1170 C   0  0  0  0  0  0  0  0  0  0  0  0
    1.5610   -0.3230    1.1680 O   0  0  0  0  0  0  0  0  0  0  0  0
    0.7970   -0.2550   -1.1430 N   0  0  0  0  0  0  0  0  0  0  0  0
   -0.2780   -0.0210   -0.3400 C   0  0  0  0  0  0  0  0  0  0  0  0
   -0.4640    0.1780    0.8320 O   0  0  0  0  0  0  0  0  0  0  0  0
   -1.5370   -0.0350   -1.2040 N   0  0  0  0  0  0  0  0  0  0  0  0
   -2.7690    0.2670   -0.6100 C   0  0  0  0  0  0  0  0  0  0  0  0
   -2.7910    1.2340    0.2740 C   0  0  0  0  0  0  0  0  0  0  0  0
   -3.9820    1.6920    1.0210 C   0  0  0  0  0  0  0  0  0  0  0  0
   -5.4410    0.7970    0.6370 S   0  0  0  0  0  0  0  0  0  0  0  0
   -5.0890   -0.4380   -0.5960 C   0  0  0  0  0  0  0  0  0  0  0  0
   -3.8740   -0.5570   -1.0450 C   0  0  0  0  0  0  0  0  0  0  0  0
  1  2  1  0
  2  3  1  0
  3  4  1  0
  4  5  2  0
  4  6  1  0
  6  7  1  0
  7  8  2  0
  7  9  1  0
  9 10  1  0
 10 11  2  0
 10 15  1  0
 11 12  1  0
 12 13  1  0
 13 14  1  0
 14 15  2  0
M  END
