
     RDKit          3D

 30 32  0  0  0  0  0  0  0  0999 V2000
    5.3460   -2.9420   -0.2000 O   0  0  0  0  0  0  0  0  0  0  0  0
    6.7060   -2.0950   -0.2400 P   0  0  0  0  0  0  0  0  0  0  0  0
    6.6290   -0.5260    0.5010 O   0  0  0  0  0  0  0  0  0  0  0  0
    6.5680    0.4580   -0.5030 C   0  0  0  0  0  0  0  0  0  0  0  0
    5.3790    1.2990   -0.1230 C   0  0  2  0  0  0  0  0  0  0  0  0
    5.6500    2.6490   -0.2550 O   0  0  0  0  0  0  0  0  0  0  0  0
    4.6940    1.0510    1.1700 C   0  0  0  0  0  0  0  0  0  0  0  0
    3.3760    0.7050    1.0740 O   0  0  0  0  0  0  0  0  0  0  0  0
    2.4220    2.0630    0.5040 S   0  0  2  0  0  0  0  0  0  0  0  0
    3.0670    2.7410   -0.5720 O   0  0  0  0  0  0  0  0  0  0  0  0
    2.1270    2.9550    1.6440 O   0  0  0  0  0  0  0  0  0  0  0  0
    0.9430    1.1890   -0.0400 C   0  0  0  0  0  0  0  0  0  0  0  0
    0.9380    0.3050   -0.9600 N   0  0  0  0  0  0  0  0  0  0  0  0
   -0.2380   -0.3650   -0.9790 C   0  0  0  0  0  0  0  0  0  0  0  0
   -0.9140    0.2640   -0.0040 N   0  0  0  0  0  0  0  0  0  0  0  0
   -0.1770    1.2390    0.5830 N   0  0  0  0  0  0  0  0  0  0  0  0
   -2.2410   -0.1950    0.3620 C   0  0  0  0  0  0  0  0  0  0  0  0
   -2.7340   -1.2330   -0.4940 N   0  0  0  0  0  0  0  0  0  0  0  0
   -3.9670   -1.8830   -0.5300 C   0  0  0  0  0  0  0  0  0  0  0  0
   -5.1220   -1.6300    0.4210 C   0  0  2  0  0  0  0  0  0  0  0  0
   -5.9430   -2.7630    0.4290 O   0  0  0  0  0  0  0  0  0  0  0  0
   -5.9950   -0.0790    0.2110 P   0  0  0  0  0  0  0  0  0  0  0  0
   -7.6630   -0.3210   -0.1880 O   0  0  0  0  0  0  0  0  0  0  0  0
   -5.2440    0.9550   -0.9490 O   0  0  0  0  0  0  0  0  0  0  0  0
   -4.9610    2.5400   -0.2660 P   0  0  0  0  0  0  0  0  0  0  0  0
   -6.1090    3.4860    0.1360 O   0  0  0  0  0  0  0  0  0  0  0  0
   -3.9500   -2.7720   -1.4410 C   0  0  0  0  0  0  0  0  0  0  0  0
   -2.7280   -2.7470   -2.1830 O   0  0  0  0  0  0  0  0  0  0  0  0
   -1.9170   -1.8180   -1.6420 C   0  0  0  0  0  0  0  0  0  0  0  0
   -0.8280   -1.2830   -1.6420 N   0  0  0  0  0  0  0  0  0  0  0  0
  1  2  2  0
  2  3  1  0
  3  4  1  0
  4  5  1  0
  5  6  1  1
  5  7  1  0
  7  8  1  0
  9  8  1  1
  9 10  2  0
  9 11  2  0
  9 12  1  0
 12 13  1  0
 12 16  2  0
 13 14  2  0
 14 15  1  0
 14 30  1  0
 15 16  1  0
 15 17  1  0
 17 18  1  0
 18 19  1  0
 18 29  1  0
 19 20  1  0
 19 27  2  0
 20 21  1  6
 20 22  1  0
 22 23  1  0
 22 24  1  0
 24 25  1  0
 25 26  2  0
 27 28  1  0
 28 29  1  0
 29 30  2  0
M  END
