
     RDKit          3D

 31 32  0  0  0  0  0  0  0  0999 V2000
   -4.2490    4.9730    0.4410 O   0  0  0  0  0  0  0  0  0  0  0  0
   -3.5470    4.8610   -1.0370 P   0  0  0  0  0  0  0  0  0  0  0  0
   -2.0640    3.9510   -0.9350 O   0  0  0  0  0  0  0  0  0  0  0  0
   -2.4220    2.6090   -1.1960 C   0  0  0  0  0  0  0  0  0  0  0  0
   -2.9230    2.0970    0.1550 C   0  0  1  0  0  0  0  0  0  0  0  0
   -2.9980    0.5800    0.0810 C   0  0  0  0  0  0  0  0  0  0  0  0
   -1.6330    0.0430   -0.1780 N   0  0  0  0  0  0  0  0  0  0  0  0
   -1.6380   -1.2170   -0.8140 C   0  0  0  0  0  0  0  0  0  0  0  0
   -1.4360   -1.2000   -2.0460 O   0  0  0  0  0  0  0  0  0  0  0  0
   -1.9130   -2.4630   -0.1000 C   0  0  2  0  0  0  0  0  0  0  0  0
   -2.5450   -3.4190   -1.1930 C   0  0  0  0  0  0  0  0  0  0  0  0
   -2.7290   -4.6370   -0.5770 O   0  0  0  0  0  0  0  0  0  0  0  0
   -3.5210   -4.0840    0.9190 P   0  0  0  0  0  0  0  0  0  0  0  0
   -2.5190   -4.6830    2.2080 O   0  0  0  0  0  0  0  0  0  0  0  0
   -3.1340   -2.3450    0.7080 N   0  0  0  0  0  0  0  0  0  0  0  0
   -0.5070    0.7350    0.2310 N   0  0  0  0  0  0  0  0  0  0  0  0
    1.0310    0.3790   -0.3960 S   0  0  1  0  0  0  0  0  0  0  0  0
    1.0110   -0.8230   -1.3160 O   0  0  0  0  0  0  0  0  0  0  0  0
    1.3290    1.5700   -1.4040 O   0  0  0  0  0  0  0  0  0  0  0  0
    2.3670    0.2680    0.5600 N   0  0  0  0  0  0  0  0  0  0  0  0
    3.5280    0.9430    0.2070 C   0  0  0  0  0  0  0  0  0  0  0  0
    4.1890    0.4780   -1.1100 C   0  0  0  0  0  0  0  0  0  0  0  0
    3.3200    0.7780   -2.1280 O   0  0  0  0  0  0  0  0  0  0  0  0
    3.9930    1.4580   -3.0940 O   0  0  0  0  0  0  0  0  0  0  0  0
    2.5370   -1.0680    1.0410 C   0  0  0  0  0  0  0  0  0  0  0  0
    4.0250   -1.2910    2.0920 P   0  0  0  0  0  0  0  0  0  0  0  0
    5.4810   -1.3410    1.1980 O   0  0  0  0  0  0  0  0  0  0  0  0
    4.0950   -0.2740    3.4790 O   0  0  0  0  0  0  0  0  0  0  0  0
   -0.6780    1.9150    0.9940 C   0  0  0  0  0  0  0  0  0  0  0  0
    0.2660    2.5520    1.4390 O   0  0  0  0  0  0  0  0  0  0  0  0
   -2.0220    2.3530    1.2690 N   0  0  0  0  0  0  0  0  0  0  0  0
  1  2  2  0
  2  3  1  0
  3  4  1  0
  5  4  1  6
  5  6  1  0
  5 31  1  0
  6  7  1  0
  7  8  1  0
  7 16  1  0
  8  9  2  0
 10  8  1  6
 10 11  1  0
 10 15  1  0
 11 12  1  0
 12 13  1  0
 13 14  1  0
 13 15  1  0
 16 17  1  0
 16 29  1  0
 17 18  2  0
 17 19  2  0
 17 20  1  1
 20 21  1  0
 20 25  1  0
 21 22  1  0
 22 23  1  0
 23 24  1  0
 25 26  1  0
 26 27  1  0
 26 28  1  0
 29 30  2  0
 29 31  1  0
M  END
