
     RDKit          3D

 31 32  0  0  0  0  0  0  0  0999 V2000
    4.7410    1.0960   -1.7680 O   0  0  0  0  0  0  0  0  0  0  0  0
    5.4940    0.2710   -1.1690 C   0  0  0  0  0  0  0  0  0  0  0  0
    6.8510   -0.0440   -1.4890 N   0  0  0  0  0  0  0  0  0  0  0  0
    7.3220   -0.8780   -0.4010 C   0  0  0  0  0  0  0  0  0  0  0  0
    6.0530   -1.5750    0.0500 C   0  0  0  0  0  0  0  0  0  0  0  0
    5.0860   -0.4990   -0.0420 N   0  0  0  0  0  0  0  0  0  0  0  0
    3.9880   -0.3060    0.8340 C   0  0  0  0  0  0  0  0  0  0  0  0
    3.8060   -1.1140    1.7780 O   0  0  0  0  0  0  0  0  0  0  0  0
    3.0640    0.7530    0.7170 N   0  0  0  0  0  0  0  0  0  0  0  0
    1.7340    0.9730    1.7920 S   0  0  2  0  0  0  0  0  0  0  0  0
    1.9070    2.3310    2.4400 O   0  0  0  0  0  0  0  0  0  0  0  0
    1.7010   -0.0410    2.8730 O   0  0  0  0  0  0  0  0  0  0  0  0
    0.2230    0.9010    0.9180 C   0  0  0  0  0  0  0  0  0  0  0  0
   -0.2840    1.9590    0.4340 N   0  0  0  0  0  0  0  0  0  0  0  0
   -1.5020    1.9600   -0.2820 C   0  0  0  0  0  0  0  0  0  0  0  0
   -1.9940    3.1810   -0.7860 N   0  0  0  0  0  0  0  0  0  0  0  0
   -2.6530    4.4140    0.3310 P   0  0  0  0  0  0  0  0  0  0  0  0
   -2.0060    4.1830    1.9380 O   0  0  0  0  0  0  0  0  0  0  0  0
   -2.3160    6.0250   -0.2110 O   0  0  0  0  0  0  0  0  0  0  0  0
   -2.1210    0.7970   -0.4400 C   0  0  0  0  0  0  0  0  0  0  0  0
   -1.5650   -0.4310    0.1030 C   0  0  0  0  0  0  0  0  0  0  0  0
   -2.1500   -1.6050   -0.0330 C   0  0  0  0  0  0  0  0  0  0  0  0
   -3.4400   -1.6420   -0.7840 C   0  0  1  0  0  0  0  0  0  0  0  0
   -3.8570   -3.4360   -1.0920 P   0  0  0  0  0  0  0  0  0  0  0  0
   -3.7200   -3.7750   -2.7970 O   0  0  0  0  0  0  0  0  0  0  0  0
   -5.4880   -3.7220   -0.6020 O   0  0  0  0  0  0  0  0  0  0  0  0
   -4.7600   -0.8770    0.2520 P   0  0  0  0  0  0  0  0  0  0  0  0
   -6.0390   -0.3640   -0.8030 O   0  0  0  0  0  0  0  0  0  0  0  0
   -5.4110   -2.0050    1.3980 O   0  0  0  0  0  0  0  0  0  0  0  0
   -4.5020   -2.8970    1.7220 O   0  0  0  0  0  0  0  0  0  0  0  0
   -0.3690   -0.3600    0.7930 O   0  0  0  0  0  0  0  0  0  0  0  0
  1  2  2  0
  2  3  1  0
  2  6  1  0
  3  4  1  0
  4  5  1  0
  5  6  1  0
  6  7  1  0
  7  8  2  0
  7  9  1  0
 10  9  1  6
 10 11  2  0
 10 12  2  0
 10 13  1  0
 13 14  2  0
 13 31  1  0
 14 15  1  0
 15 16  1  0
 15 20  2  0
 16 17  1  0
 17 18  1  0
 17 19  1  0
 20 21  1  0
 21 22  2  3
 21 31  1  0
 22 23  1  0
 23 24  1  1
 23 27  1  0
 24 25  1  0
 24 26  1  0
 27 28  1  0
 27 29  1  0
 29 30  1  0
M  END
