
     RDKit          3D

 30 30  0  0  0  0  0  0  0  0999 V2000
    1.6150   -2.6740   -1.4230 N   0  0  0  0  0  0  0  0  0  0  0  0
    0.9600   -3.0870   -0.2470 C   0  0  0  0  0  0  0  0  0  0  0  0
    1.3760   -4.0950    0.3800 O   0  0  0  0  0  0  0  0  0  0  0  0
   -0.2190   -2.3380    0.2530 C   0  0  1  0  0  0  0  0  0  0  0  0
    0.0110   -2.0670    1.6750 C   0  0  0  0  0  0  0  0  0  0  0  0
    1.0280   -1.2230    2.0330 O   0  0  0  0  0  0  0  0  0  0  0  0
    1.0990   -1.0610    3.7590 P   0  0  0  0  0  0  0  0  0  0  0  0
    1.8470   -2.0500    4.6760 O   0  0  0  0  0  0  0  0  0  0  0  0
   -0.5680   -1.2680   -0.6420 N   0  0  0  0  0  0  0  0  0  0  0  0
   -0.9830   -1.7250   -1.9400 C   0  0  0  0  0  0  0  0  0  0  0  0
   -1.3580   -3.1160   -2.1180 N   0  0  0  0  0  0  0  0  0  0  0  0
   -1.0770   -0.9980   -2.9880 N   0  0  0  0  0  0  0  0  0  0  0  0
   -0.7530    0.4260   -2.9310 C   0  0  2  0  0  0  0  0  0  0  0  0
   -1.5830    1.0320   -3.8880 O   0  0  0  0  0  0  0  0  0  0  0  0
    0.5360    0.6340   -3.2970 O   0  0  0  0  0  0  0  0  0  0  0  0
    1.0640    2.2380   -3.3090 S   0  0  0  0  0  0  0  0  0  0  0  0
   -1.1910    0.8850   -1.5960 C   0  0  0  0  0  0  0  0  0  0  0  0
   -0.5690    0.1260   -0.4150 C   0  0  1  0  0  0  0  0  0  0  0  0
   -1.4390    0.5600    0.7430 C   0  0  0  0  0  0  0  0  0  0  0  0
   -2.7550    0.0840    0.5860 O   0  0  0  0  0  0  0  0  0  0  0  0
   -3.7480    0.5850    1.9180 P   0  0  0  0  0  0  0  0  0  0  0  0
   -2.8320    1.6590    2.9240 O   0  0  0  0  0  0  0  0  0  0  0  0
   -5.1080    1.4750    1.3080 O   0  0  0  0  0  0  0  0  0  0  0  0
    0.7740    0.5880   -0.1920 N   0  0  0  0  0  0  0  0  0  0  0  0
    1.1020    1.9060    0.1330 C   0  0  0  0  0  0  0  0  0  0  0  0
    0.2520    2.8160    0.2570 O   0  0  0  0  0  0  0  0  0  0  0  0
    2.5530    2.2160    0.3390 C   0  0  0  0  0  0  0  0  0  0  0  0
    3.0880    1.9960    2.0770 P   0  0  0  0  0  0  0  0  0  0  0  0
    2.8790    3.5120    2.9140 O   0  0  0  0  0  0  0  0  0  0  0  0
    4.7860    1.6310    2.1040 O   0  0  0  0  0  0  0  0  0  0  0  0
  1  2  1  0
  2  3  2  0
  2  4  1  0
  4  5  1  1
  4  9  1  0
  5  6  1  0
  6  7  1  0
  7  8  2  0
  9 10  1  0
  9 18  1  0
 10 11  1  0
 10 12  2  0
 12 13  1  0
 13 14  1  6
 13 15  1  0
 13 17  1  0
 15 16  1  0
 17 18  1  0
 18 19  1  1
 18 24  1  0
 19 20  1  0
 20 21  1  0
 21 22  1  0
 21 23  1  0
 24 25  1  0
 25 26  2  0
 25 27  1  0
 27 28  1  0
 28 29  1  0
 28 30  1  0
M  END
