
     RDKit          3D

 31 33  0  0  0  0  0  0  0  0999 V2000
   -6.2990    2.8410    0.6270 N   0  0  0  0  0  0  0  0  0  0  0  0
   -5.8530    1.5030    0.8070 C   0  0  0  0  0  0  0  0  0  0  0  0
   -6.6010    0.6330    1.4830 N   0  0  0  0  0  0  0  0  0  0  0  0
   -6.1910   -0.6350    1.6610 C   0  0  0  0  0  0  0  0  0  0  0  0
   -5.0140   -1.0510    1.1580 N   0  0  0  0  0  0  0  0  0  0  0  0
   -4.2130   -0.2090    0.4630 C   0  0  0  0  0  0  0  0  0  0  0  0
   -4.6450    1.0820    0.2900 C   0  0  0  0  0  0  0  0  0  0  0  0
   -3.6770    1.6950   -0.4230 N   0  0  0  0  0  0  0  0  0  0  0  0
   -2.6940    0.7840   -0.6660 C   0  0  0  0  0  0  0  0  0  0  0  0
   -3.0200   -0.3900   -0.1220 N   0  0  0  0  0  0  0  0  0  0  0  0
   -2.2460   -1.6330   -0.1480 C   0  0  2  0  0  0  0  0  0  0  0  0
   -1.0980   -1.5000    0.5750 O   0  0  0  0  0  0  0  0  0  0  0  0
   -0.0360   -1.9810   -0.1740 C   0  0  2  0  0  0  0  0  0  0  0  0
    1.1660   -1.0650    0.0990 C   0  0  0  0  0  0  0  0  0  0  0  0
    0.7750    0.2040   -0.3000 O   0  0  0  0  0  0  0  0  0  0  0  0
    1.9730    1.3590   -0.0760 P   0  0  1  0  0  0  0  0  0  0  0  0
    2.7140    1.6730   -1.3510 O   0  0  0  0  0  0  0  0  0  0  0  0
    1.1920    2.7870    0.4350 O   0  0  0  0  0  0  0  0  0  0  0  0
    3.0940    0.9080    1.0890 O   0  0  0  0  0  0  0  0  0  0  0  0
    4.5790    1.6160    0.6910 P   0  0  2  0  0  0  0  0  0  0  0  0
    5.4070    1.6550    1.9560 O   0  0  0  0  0  0  0  0  0  0  0  0
    4.3760    3.2070    0.1370 O   0  0  0  0  0  0  0  0  0  0  0  0
    5.3010    0.6860   -0.5100 O   0  0  0  0  0  0  0  0  0  0  0  0
    6.7590    0.0730    0.0690 P   0  0  2  0  0  0  0  0  0  0  0  0
    7.9960    1.1910   -0.1320 O   0  0  0  0  0  0  0  0  0  0  0  0
    7.1220   -1.3290   -0.8060 O   0  0  0  0  0  0  0  0  0  0  0  0
    6.6090   -0.3470    1.7390 S   0  0  0  0  0  0  0  0  0  0  0  0
   -0.4360   -1.8960   -1.6200 C   0  0  1  0  0  0  0  0  0  0  0  0
    0.0770   -2.9370   -2.3870 O   0  0  0  0  0  0  0  0  0  0  0  0
   -1.9320   -2.0460   -1.5410 C   0  0  1  0  0  0  0  0  0  0  0  0
   -2.2340   -3.3990   -1.7400 O   0  0  0  0  0  0  0  0  0  0  0  0
  1  2  1  0
  2  3  2  0
  2  7  1  0
  3  4  1  0
  4  5  2  0
  5  6  1  0
  6  7  2  0
  6 10  1  0
  7  8  1  0
  8  9  2  0
  9 10  1  0
 11 10  1  6
 11 12  1  0
 11 30  1  0
 12 13  1  0
 13 14  1  6
 13 28  1  0
 14 15  1  0
 15 16  1  0
 16 17  2  0
 16 18  1  1
 16 19  1  0
 19 20  1  0
 20 21  2  0
 20 22  1  6
 20 23  1  0
 23 24  1  0
 24 25  1  1
 24 26  1  0
 24 27  2  0
 28 29  1  6
 28 30  1  0
 30 31  1  1
M  END
