
     RDKit          3D

 30 31  0  0  0  0  0  0  0  0999 V2000
   -4.0100    4.5420   -2.7120 O   0  0  0  0  0  0  0  0  0  0  0  0
   -5.0820    3.4590   -2.3190 P   0  0  0  0  0  0  0  0  0  0  0  0
   -5.3490    3.2470   -0.6090 O   0  0  0  0  0  0  0  0  0  0  0  0
   -5.2950    1.9560   -0.3180 O   0  0  0  0  0  0  0  0  0  0  0  0
   -4.0980    1.2150   -0.4690 C   0  0  0  0  0  0  0  0  0  0  0  0
   -2.9220    1.6140   -0.8870 N   0  0  0  0  0  0  0  0  0  0  0  0
   -2.0680    0.6290   -0.8830 N   0  0  0  0  0  0  0  0  0  0  0  0
   -2.6510   -0.4830   -0.4550 C   0  0  0  0  0  0  0  0  0  0  0  0
   -3.9840   -0.1400   -0.1680 C   0  0  0  0  0  0  0  0  0  0  0  0
   -4.9640   -1.0600    0.3230 C   0  0  0  0  0  0  0  0  0  0  0  0
   -5.9050   -0.6860    1.0540 O   0  0  0  0  0  0  0  0  0  0  0  0
   -4.7880   -2.8100   -0.1420 S   0  0  0  0  0  0  0  0  0  0  0  0
   -3.1360   -2.8590   -0.9540 C   0  0  0  0  0  0  0  0  0  0  0  0
   -2.2300   -1.8740   -0.2140 C   0  0  1  0  0  0  0  0  0  0  0  0
   -0.8980   -2.1980   -0.6070 N   0  0  0  0  0  0  0  0  0  0  0  0
   -0.0170   -1.0910   -0.4450 C   0  0  0  0  0  0  0  0  0  0  0  0
    1.3830   -1.4420   -0.5310 C   0  0  0  0  0  0  0  0  0  0  0  0
    2.0500   -2.3970   -0.7040 O   0  0  0  0  0  0  0  0  0  0  0  0
    2.3870   -0.0190   -0.3150 N   0  0  0  0  0  0  0  0  0  0  0  0
    3.5540   -0.6290   -0.4570 C   0  0  0  0  0  0  0  0  0  0  0  0
    4.3430   -1.3990   -0.6440 O   0  0  0  0  0  0  0  0  0  0  0  0
    4.5580    0.6510   -0.0610 N   0  0  0  0  0  0  0  0  0  0  0  0
    6.2470    0.3110   -0.0540 P   0  0  0  0  0  0  0  0  0  0  0  0
    6.7500   -0.6240    1.3480 O   0  0  0  0  0  0  0  0  0  0  0  0
    7.3450    2.2420    0.0780 P   0  0  0  0  0  0  0  0  0  0  0  0
    6.5970    3.4570   -0.9030 O   0  0  0  0  0  0  0  0  0  0  0  0
    7.3990    2.8360    1.7020 O   0  0  0  0  0  0  0  0  0  0  0  0
   -2.2990   -2.1940    1.2430 C   0  0  0  0  0  0  0  0  0  0  0  0
   -1.6240   -3.1520    1.6820 O   0  0  0  0  0  0  0  0  0  0  0  0
   -3.0910   -1.4650    2.1210 O   0  0  0  0  0  0  0  0  0  0  0  0
  1  2  2  0
  2  3  1  0
  3  4  1  0
  4  5  1  0
  5  6  1  0
  5  9  2  0
  6  7  1  0
  7  8  2  0
  8  9  1  0
  8 14  1  0
  9 10  1  0
 10 11  2  0
 10 12  1  0
 12 13  1  0
 13 14  1  0
 14 15  1  6
 14 28  1  0
 15 16  1  0
 16 17  1  0
 17 18  2  0
 17 19  1  0
 19 20  1  0
 20 21  2  0
 20 22  1  0
 22 23  1  0
 23 24  1  0
 23 25  1  0
 25 26  1  0
 25 27  1  0
 28 29  2  0
 28 30  1  0
M  END
