
     RDKit          3D

 31 32  0  0  0  0  0  0  0  0999 V2000
    6.5460    1.4260    0.4160 C   0  0  0  0  0  0  0  0  0  0  0  0
    5.9320    0.3000   -0.2160 N   0  0  0  0  0  0  0  0  0  0  0  0
    6.7640   -0.8140   -0.5860 C   0  0  0  0  0  0  0  0  0  0  0  0
    7.9910   -0.7670   -0.3470 O   0  0  0  0  0  0  0  0  0  0  0  0
    6.2630   -1.9500   -1.2030 O   0  0  0  0  0  0  0  0  0  0  0  0
    4.5330    0.2650   -0.4810 C   0  0  0  0  0  0  0  0  0  0  0  0
    3.9940   -0.7330   -1.0400 O   0  0  0  0  0  0  0  0  0  0  0  0
    3.7030    1.3820   -0.1090 C   0  0  0  0  0  0  0  0  0  0  0  0
    4.1710    2.4030    0.4490 O   0  0  0  0  0  0  0  0  0  0  0  0
    2.3020    1.3300   -0.3820 N   0  0  0  0  0  0  0  0  0  0  0  0
    1.5650    0.4600    0.2220 C   0  0  0  0  0  0  0  0  0  0  0  0
    1.6950   -0.6340    1.2210 C   0  0  0  0  0  0  0  0  0  0  0  0
    0.3180   -0.2410    1.5230 N   0  0  0  0  0  0  0  0  0  0  0  0
   -0.4790   -1.1820    2.0570 N   0  0  0  0  0  0  0  0  0  0  0  0
   -1.8080   -1.7010    1.1520 S   0  0  2  0  0  0  0  0  0  0  0  0
   -2.9540   -2.0570    2.0530 O   0  0  0  0  0  0  0  0  0  0  0  0
   -1.3850   -2.8910    0.3140 O   0  0  0  0  0  0  0  0  0  0  0  0
   -2.2470   -0.4050    0.0170 C   0  0  2  0  0  0  0  0  0  0  0  0
   -2.8360    0.7760    0.7800 C   0  0  0  0  0  0  0  0  0  0  0  0
   -3.9770    0.4160    1.4850 O   0  0  0  0  0  0  0  0  0  0  0  0
   -3.2270   -0.9570   -0.9710 C   0  0  2  0  0  0  0  0  0  0  0  0
   -2.6750   -2.0160   -1.6750 O   0  0  0  0  0  0  0  0  0  0  0  0
   -3.9130    0.3220   -2.1120 P   0  0  0  0  0  0  0  0  0  0  0  0
   -4.5790   -0.4900   -3.5100 O   0  0  0  0  0  0  0  0  0  0  0  0
   -5.5150    1.4420   -1.1220 P   0  0  0  0  0  0  0  0  0  0  0  0
   -5.3070    3.1430   -1.3920 O   0  0  0  0  0  0  0  0  0  0  0  0
   -7.4820    0.7440   -1.8120 P   0  0  0  0  0  0  0  0  0  0  0  0
   -8.5750    0.4970   -0.7120 O   0  0  0  0  0  0  0  0  0  0  0  0
   -0.9810    0.0460   -0.5820 C   0  0  0  0  0  0  0  0  0  0  0  0
   -0.9650    0.3670   -1.7980 O   0  0  0  0  0  0  0  0  0  0  0  0
    0.1820    0.1070    0.2190 N   0  0  0  0  0  0  0  0  0  0  0  0
  1  2  1  0
  2  3  1  0
  2  6  1  0
  3  4  2  0
  3  5  1  0
  6  7  2  0
  6  8  1  0
  8  9  2  0
  8 10  1  0
 10 11  2  3
 11 12  1  0
 11 31  1  0
 12 13  1  0
 13 14  1  0
 13 31  1  0
 15 14  1  1
 15 16  2  0
 15 17  2  0
 15 18  1  0
 18 19  1  1
 18 21  1  0
 18 29  1  0
 19 20  1  0
 21 22  1  6
 21 23  1  0
 23 24  1  0
 23 25  1  0
 25 26  1  0
 25 27  1  0
 27 28  2  0
 29 30  2  0
 29 31  1  0
M  END
