
     RDKit          3D

 33 37  0  0  0  0  0  0  0  0999 V2000
   -1.0160   -2.4620   -1.2400 C   0  0  0  0  0  0  0  0  0  0  0  0
   -0.4980   -1.1710   -0.7160 C   0  0  0  0  0  0  0  0  0  0  0  0
    0.8400   -1.0460   -0.3440 C   0  0  0  0  0  0  0  0  0  0  0  0
    1.3330    0.1370    0.1410 C   0  0  0  0  0  0  0  0  0  0  0  0
    0.4890    1.2300    0.2660 C   0  0  0  0  0  0  0  0  0  0  0  0
   -0.8210    1.0850   -0.1050 C   0  0  0  0  0  0  0  0  0  0  0  0
   -1.3530   -0.1120   -0.6040 C   0  0  0  0  0  0  0  0  0  0  0  0
   -2.7610   -0.1310   -0.9600 C   0  0  0  0  0  0  0  0  0  0  0  0
   -3.2760   -1.1820   -1.4120 O   0  0  0  0  0  0  0  0  0  0  0  0
   -3.5890    0.9650   -0.8290 O   0  0  0  0  0  0  0  0  0  0  0  0
   -4.9310    0.8740   -1.1910 C   0  0  0  0  0  0  0  0  0  0  0  0
   -5.3630    1.1640   -2.4730 C   0  0  0  0  0  0  0  0  0  0  0  0
   -6.7060    1.0630   -2.8010 C   0  0  0  0  0  0  0  0  0  0  0  0
   -7.6580    0.6760   -1.8820 C   0  0  0  0  0  0  0  0  0  0  0  0
   -7.2270    0.3870   -0.6060 C   0  0  0  0  0  0  0  0  0  0  0  0
   -5.8910    0.4870   -0.2780 C   0  0  0  0  0  0  0  0  0  0  0  0
   -8.4350    0.0050    0.1650 C   0  0  0  0  0  0  0  0  0  0  0  0
   -9.3780   -0.4590   -0.9250 C   0  0  0  0  0  0  0  0  0  0  0  0
   -9.0530    0.4950   -1.9500 O   0  0  0  0  0  0  0  0  0  0  0  0
    1.0020    2.4120    0.7560 C   0  0  0  0  0  0  0  0  0  0  0  0
    0.2300    3.4160    0.8720 O   0  0  0  0  0  0  0  0  0  0  0  0
    2.3050    2.5150    1.1110 N   0  0  0  0  0  0  0  0  0  0  0  0
    3.1040    1.4160    0.9730 C   0  0  0  0  0  0  0  0  0  0  0  0
    4.4040    1.1850    1.2260 N   0  0  0  0  0  0  0  0  0  0  0  0
    4.7250   -0.0840    0.9170 C   0  0  0  0  0  0  0  0  0  0  0  0
    6.0350   -0.7360    1.0430 C   0  0  0  0  0  0  0  0  0  0  0  0
    7.0720   -0.0740    1.5030 C   0  0  0  0  0  0  0  0  0  0  0  0
    8.3690   -0.7370    1.6220 C   0  0  0  0  0  0  0  0  0  0  0  0
    9.4350   -0.0860    2.0860 C   0  0  0  0  0  0  0  0  0  0  0  0
   10.7150   -0.8030    2.1850 C   0  0  0  0  0  0  0  0  0  0  0  0
   10.5790   -2.1020    1.7540 F   0  0  0  0  0  0  0  0  0  0  0  0
    3.5840   -0.6360    0.4640 N   0  0  0  0  0  0  0  0  0  0  0  0
    2.6120    0.2590    0.4960 N   0  0  0  0  0  0  0  0  0  0  0  0
  1  2  1  0
  2  3  2  0
  2  7  1  0
  3  4  1  0
  4  5  2  0
  4 33  1  0
  5  6  1  0
  5 20  1  0
  6  7  2  0
  7  8  1  0
  8  9  2  0
  8 10  1  0
 10 11  1  0
 11 12  2  0
 11 16  1  0
 12 13  1  0
 13 14  2  0
 14 15  1  0
 14 19  1  0
 15 16  2  0
 15 17  1  0
 17 18  1  0
 18 19  1  0
 20 21  2  0
 20 22  1  0
 22 23  2  0
 23 24  1  0
 23 33  1  0
 24 25  1  0
 25 26  1  0
 25 32  2  0
 26 27  2  3
 27 28  1  0
 28 29  2  3
 29 30  1  0
 30 31  1  0
 32 33  1  0
M  END
