
     RDKit          3D

 33 37  0  0  0  0  0  0  0  0999 V2000
   -9.4780    0.9120   -0.5780 C   0  0  0  0  0  0  0  0  0  0  0  0
   -8.6150    1.5440    0.3160 O   0  0  0  0  0  0  0  0  0  0  0  0
   -7.2550    1.3290    0.4130 C   0  0  0  0  0  0  0  0  0  0  0  0
   -6.6110    0.4330   -0.4050 C   0  0  0  0  0  0  0  0  0  0  0  0
   -5.2530    0.1880   -0.3420 C   0  0  0  0  0  0  0  0  0  0  0  0
   -4.4470   -0.5840   -0.9870 O   0  0  0  0  0  0  0  0  0  0  0  0
   -3.2110   -0.4650   -0.5580 C   0  0  0  0  0  0  0  0  0  0  0  0
   -2.0130   -1.0500   -0.9040 C   0  0  0  0  0  0  0  0  0  0  0  0
   -1.9380   -2.0610   -1.9850 C   0  0  0  0  0  0  0  0  0  0  0  0
   -0.8110   -0.7310   -0.2670 C   0  0  0  0  0  0  0  0  0  0  0  0
    0.3860   -1.3570   -0.6580 N   0  0  0  0  0  0  0  0  0  0  0  0
    1.6740   -1.1580   -0.1290 C   0  0  0  0  0  0  0  0  0  0  0  0
    1.8700   -0.3600    0.7860 O   0  0  0  0  0  0  0  0  0  0  0  0
    2.8600   -1.9190   -0.6690 C   0  0  0  0  0  0  0  0  0  0  0  0
    4.0600   -1.5320    0.0420 N   0  0  0  0  0  0  0  0  0  0  0  0
    4.3980   -2.2190    1.1450 C   0  0  0  0  0  0  0  0  0  0  0  0
    5.5340   -1.9110    1.8840 C   0  0  0  0  0  0  0  0  0  0  0  0
    6.3260   -0.8750    1.4680 C   0  0  0  0  0  0  0  0  0  0  0  0
    5.9930   -0.1590    0.3370 C   0  0  0  0  0  0  0  0  0  0  0  0
    6.8270    0.9520   -0.1240 C   0  0  0  0  0  0  0  0  0  0  0  0
    6.6340    1.7280   -1.1910 N   0  0  0  0  0  0  0  0  0  0  0  0
    7.6080    2.6450   -1.2970 C   0  0  0  0  0  0  0  0  0  0  0  0
    8.4580    2.4370   -0.2460 C   0  0  0  0  0  0  0  0  0  0  0  0
    7.9560    1.3980    0.4520 N   0  0  0  0  0  0  0  0  0  0  0  0
    4.8600   -0.5250   -0.3330 C   0  0  0  0  0  0  0  0  0  0  0  0
    4.5440    0.1210   -1.3690 O   0  0  0  0  0  0  0  0  0  0  0  0
   -0.8730    0.1970    0.7260 C   0  0  0  0  0  0  0  0  0  0  0  0
   -2.0920    0.8030    1.0890 C   0  0  0  0  0  0  0  0  0  0  0  0
   -3.2410    0.4760    0.4560 C   0  0  0  0  0  0  0  0  0  0  0  0
   -4.5480    0.9050    0.6060 C   0  0  0  0  0  0  0  0  0  0  0  0
   -5.1850    1.8080    1.4330 C   0  0  0  0  0  0  0  0  0  0  0  0
   -6.5430    2.0380    1.3540 C   0  0  0  0  0  0  0  0  0  0  0  0
   -7.1620    2.9300    2.1740 F   0  0  0  0  0  0  0  0  0  0  0  0
  1  2  1  0
  2  3  1  0
  3  4  2  0
  3 32  1  0
  4  5  1  0
  5  6  1  0
  5 30  2  0
  6  7  1  0
  7  8  2  0
  7 29  1  0
  8  9  1  0
  8 10  1  0
 10 11  1  0
 10 27  2  0
 11 12  1  0
 12 13  2  0
 12 14  1  0
 14 15  1  0
 15 16  1  0
 15 25  1  0
 16 17  2  0
 17 18  1  0
 18 19  2  0
 19 20  1  0
 19 25  1  0
 20 21  2  0
 20 24  1  0
 21 22  1  0
 22 23  2  0
 23 24  1  0
 25 26  2  0
 27 28  1  0
 28 29  2  0
 29 30  1  0
 30 31  1  0
 31 32  2  0
 32 33  1  0
M  END
