
     RDKit          3D

 32 36  0  0  0  0  0  0  0  0999 V2000
    2.0900   -4.4580    0.8160 C   0  0  0  0  0  0  0  0  0  0  0  0
    2.9630   -3.2550    0.7720 C   0  0  0  0  0  0  0  0  0  0  0  0
    4.1270   -3.2000    1.3480 O   0  0  0  0  0  0  0  0  0  0  0  0
    4.6770   -2.0050    1.1400 C   0  0  0  0  0  0  0  0  0  0  0  0
    3.8120   -1.2520    0.3860 C   0  0  0  0  0  0  0  0  0  0  0  0
    3.8730    0.0890   -0.1310 C   0  0  0  0  0  0  0  0  0  0  0  0
    2.8930    0.5540   -0.8190 O   0  0  0  0  0  0  0  0  0  0  0  0
    4.9580    0.9640    0.0620 N   0  0  0  0  0  0  0  0  0  0  0  0
    6.1860    0.7590    0.7660 C   0  0  0  0  0  0  0  0  0  0  0  0
    7.0020    2.0070    0.5650 C   0  0  0  0  0  0  0  0  0  0  0  0
    6.4110    2.6170   -0.5830 N   0  0  0  0  0  0  0  0  0  0  0  0
    4.9930    2.3370   -0.4710 C   0  0  0  0  0  0  0  0  0  0  0  0
    2.6830   -2.0690    0.1400 C   0  0  0  0  0  0  0  0  0  0  0  0
    1.5140   -1.7480   -0.5930 N   0  0  0  0  0  0  0  0  0  0  0  0
    0.4080   -1.1660    0.0800 C   0  0  0  0  0  0  0  0  0  0  0  0
    0.4730   -0.9440    1.3000 O   0  0  0  0  0  0  0  0  0  0  0  0
   -0.8150   -0.8150   -0.6110 N   0  0  0  0  0  0  0  0  0  0  0  0
   -1.8440   -0.2370    0.1960 C   0  0  0  0  0  0  0  0  0  0  0  0
   -3.0600    0.1000   -0.5380 C   0  0  0  0  0  0  0  0  0  0  0  0
   -3.1190   -0.1620   -1.9120 C   0  0  0  0  0  0  0  0  0  0  0  0
   -4.2490    0.1460   -2.6410 C   0  0  0  0  0  0  0  0  0  0  0  0
   -5.3180    0.7120   -2.0140 C   0  0  0  0  0  0  0  0  0  0  0  0
   -5.2500    0.9640   -0.6680 C   0  0  0  0  0  0  0  0  0  0  0  0
   -4.1280    0.6710    0.1220 C   0  0  0  0  0  0  0  0  0  0  0  0
   -4.1830    0.9750    1.5420 C   0  0  0  0  0  0  0  0  0  0  0  0
   -3.3360    0.7760    2.5740 C   0  0  0  0  0  0  0  0  0  0  0  0
   -3.9290    1.2840    3.7370 C   0  0  0  0  0  0  0  0  0  0  0  0
   -5.1420    1.7770    3.3290 C   0  0  0  0  0  0  0  0  0  0  0  0
   -5.2660    1.5880    2.0600 O   0  0  0  0  0  0  0  0  0  0  0  0
   -6.3720    0.9260   -3.0390 C   0  0  0  0  0  0  0  0  0  0  0  0
   -5.8020    0.4350   -4.2830 C   0  0  0  0  0  0  0  0  0  0  0  0
   -4.5840   -0.0090   -4.0420 C   0  0  0  0  0  0  0  0  0  0  0  0
  1  2  1  0
  2  3  1  0
  2 13  2  0
  3  4  1  0
  4  5  2  0
  5  6  1  0
  5 13  1  0
  6  7  2  0
  6  8  1  0
  8  9  1  0
  8 12  1  0
  9 10  1  0
 10 11  1  0
 11 12  1  0
 13 14  1  0
 14 15  1  0
 15 16  2  0
 15 17  1  0
 17 18  1  0
 18 19  1  0
 19 20  2  0
 19 24  1  0
 20 21  1  0
 21 22  2  0
 21 32  1  0
 22 23  1  0
 22 30  1  0
 23 24  2  0
 24 25  1  0
 25 26  2  0
 25 29  1  0
 26 27  1  0
 27 28  2  0
 28 29  1  0
 30 31  1  0
 31 32  2  0
M  END
