
     RDKit          3D

 33 37  0  0  0  0  0  0  0  0999 V2000
   -9.0970    1.0040    0.0140 C   0  0  0  0  0  0  0  0  0  0  0  0
   -7.6660    0.6900    0.1910 C   0  0  0  0  0  0  0  0  0  0  0  0
   -6.7210    1.5060   -0.3790 C   0  0  0  0  0  0  0  0  0  0  0  0
   -5.3640    1.2250   -0.2230 C   0  0  0  0  0  0  0  0  0  0  0  0
   -4.9170    0.1520    0.4860 C   0  0  0  0  0  0  0  0  0  0  0  0
   -3.5550   -0.1650    0.6470 N   0  0  0  0  0  0  0  0  0  0  0  0
   -2.4940    0.3970   -0.1060 C   0  0  0  0  0  0  0  0  0  0  0  0
   -2.7190    1.2460   -1.0060 O   0  0  0  0  0  0  0  0  0  0  0  0
   -1.1500    0.0230    0.1290 N   0  0  0  0  0  0  0  0  0  0  0  0
    0.0030    0.4870   -0.5280 C   0  0  0  0  0  0  0  0  0  0  0  0
   -0.0290    1.4050   -1.5300 C   0  0  0  0  0  0  0  0  0  0  0  0
    1.1650    1.8210   -2.1390 C   0  0  0  0  0  0  0  0  0  0  0  0
    2.3830    1.3150   -1.7450 C   0  0  0  0  0  0  0  0  0  0  0  0
    2.4280    0.3840   -0.7310 C   0  0  0  0  0  0  0  0  0  0  0  0
    3.4190   -0.2660   -0.1480 O   0  0  0  0  0  0  0  0  0  0  0  0
    2.9820   -1.0660    0.7850 C   0  0  0  0  0  0  0  0  0  0  0  0
    3.6780   -1.9630    1.6760 C   0  0  0  0  0  0  0  0  0  0  0  0
    4.9510   -2.1620    1.7280 C   0  0  0  0  0  0  0  0  0  0  0  0
    5.9790   -1.5340    0.9070 C   0  0  0  0  0  0  0  0  0  0  0  0
    7.3220   -1.7930    1.0160 N   0  0  0  0  0  0  0  0  0  0  0  0
    8.0090   -1.0640    0.1280 C   0  0  0  0  0  0  0  0  0  0  0  0
    7.0650   -0.3290   -0.5530 C   0  0  0  0  0  0  0  0  0  0  0  0
    5.8970   -0.6530   -0.0460 O   0  0  0  0  0  0  0  0  0  0  0  0
    7.6320    0.4470   -1.4760 C   0  0  0  0  0  0  0  0  0  0  0  0
    9.0850    0.2130   -1.4100 C   0  0  0  0  0  0  0  0  0  0  0  0
    9.2180   -0.7890   -0.3300 C   0  0  0  0  0  0  0  0  0  0  0  0
   10.3860   -1.3090    0.0880 F   0  0  0  0  0  0  0  0  0  0  0  0
    1.6190   -0.9080    0.7890 N   0  0  0  0  0  0  0  0  0  0  0  0
    1.2510   -0.0160   -0.1400 C   0  0  0  0  0  0  0  0  0  0  0  0
   -5.8920   -0.6620    1.0560 C   0  0  0  0  0  0  0  0  0  0  0  0
   -7.2450   -0.4050    0.9160 C   0  0  0  0  0  0  0  0  0  0  0  0
   -8.2470   -1.2710    1.5220 C   0  0  0  0  0  0  0  0  0  0  0  0
   -9.4580   -1.0220    1.3830 O   0  0  0  0  0  0  0  0  0  0  0  0
  1  2  1  0
  2  3  2  0
  2 31  1  0
  3  4  1  0
  4  5  2  0
  5  6  1  0
  5 30  1  0
  6  7  1  0
  7  8  2  0
  7  9  1  0
  9 10  1  0
 10 11  2  0
 10 29  1  0
 11 12  1  0
 12 13  2  0
 13 14  1  0
 14 15  1  0
 14 29  2  0
 15 16  1  0
 16 17  1  0
 16 28  2  0
 17 18  2  3
 18 19  1  0
 19 20  2  0
 19 23  1  0
 20 21  1  0
 21 22  1  0
 21 26  2  0
 22 23  1  0
 22 24  2  0
 24 25  1  0
 25 26  1  0
 26 27  1  0
 28 29  1  0
 30 31  2  0
 31 32  1  0
 32 33  2  0
M  END
