
     RDKit          3D

 33 37  0  0  0  0  0  0  0  0999 V2000
    5.9530    2.3900   -1.8460 C   0  0  0  0  0  0  0  0  0  0  0  0
    4.8650    2.0760   -0.8160 C   0  0  0  0  0  0  0  0  0  0  0  0
    5.4840    1.2480    0.2350 C   0  0  0  0  0  0  0  0  0  0  0  0
    6.0880    1.7440    1.3700 C   0  0  0  0  0  0  0  0  0  0  0  0
    6.5300    0.6580    2.0800 C   0  0  0  0  0  0  0  0  0  0  0  0
    6.1780   -0.4630    1.3480 C   0  0  0  0  0  0  0  0  0  0  0  0
    5.5420   -0.0890    0.2280 N   0  0  0  0  0  0  0  0  0  0  0  0
    5.0130   -0.9400   -0.8000 C   0  0  0  0  0  0  0  0  0  0  0  0
    3.6020   -1.3320   -0.5410 C   0  0  0  0  0  0  0  0  0  0  0  0
    3.0480   -2.0790   -1.3880 O   0  0  0  0  0  0  0  0  0  0  0  0
    2.8820   -0.9300    0.5520 O   0  0  0  0  0  0  0  0  0  0  0  0
    1.5430   -1.3250    0.7600 C   0  0  0  0  0  0  0  0  0  0  0  0
    1.2620   -2.4770    1.4620 C   0  0  0  0  0  0  0  0  0  0  0  0
   -0.0520   -2.8450    1.6540 C   0  0  0  0  0  0  0  0  0  0  0  0
   -0.3940   -4.0120    2.3630 O   0  0  0  0  0  0  0  0  0  0  0  0
   -1.0530   -2.0350    1.1280 C   0  0  0  0  0  0  0  0  0  0  0  0
   -2.3850   -2.1710    1.1770 N   0  0  0  0  0  0  0  0  0  0  0  0
   -2.9700   -1.1320    0.5220 C   0  0  0  0  0  0  0  0  0  0  0  0
   -4.2750   -0.7620    0.2600 C   0  0  0  0  0  0  0  0  0  0  0  0
   -5.1720   -1.5340    0.7110 O   0  0  0  0  0  0  0  0  0  0  0  0
   -4.6030    0.3450   -0.4310 N   0  0  0  0  0  0  0  0  0  0  0  0
   -5.9600    0.6950   -0.6820 C   0  0  0  0  0  0  0  0  0  0  0  0
   -6.9240    0.5390    0.3050 C   0  0  0  0  0  0  0  0  0  0  0  0
   -8.2330    0.8870    0.0360 C   0  0  0  0  0  0  0  0  0  0  0  0
   -8.6190    1.3910   -1.2030 C   0  0  0  0  0  0  0  0  0  0  0  0
   -7.6680    1.5430   -2.1690 C   0  0  0  0  0  0  0  0  0  0  0  0
   -8.0380    2.0370   -3.3850 F   0  0  0  0  0  0  0  0  0  0  0  0
   -6.3720    1.1990   -1.9040 C   0  0  0  0  0  0  0  0  0  0  0  0
   -3.5960    1.1210   -0.8820 C   0  0  0  0  0  0  0  0  0  0  0  0
   -2.2980    0.8190   -0.6620 N   0  0  0  0  0  0  0  0  0  0  0  0
   -1.9820   -0.2900    0.0290 C   0  0  0  0  0  0  0  0  0  0  0  0
   -0.7860   -0.8800    0.4240 C   0  0  0  0  0  0  0  0  0  0  0  0
    0.5250   -0.5410    0.2500 C   0  0  0  0  0  0  0  0  0  0  0  0
  1  2  1  0
  2  3  1  0
  3  4  2  0
  3  7  1  0
  4  5  1  0
  5  6  2  0
  6  7  1  0
  7  8  1  0
  8  9  1  0
  9 10  2  0
  9 11  1  0
 11 12  1  0
 12 13  2  0
 12 33  1  0
 13 14  1  0
 14 15  1  0
 14 16  2  0
 16 17  1  0
 16 32  1  0
 17 18  1  0
 18 19  1  0
 18 31  2  0
 19 20  2  0
 19 21  1  0
 21 22  1  0
 21 29  1  0
 22 23  2  0
 22 28  1  0
 23 24  1  0
 24 25  2  0
 25 26  1  0
 26 27  1  0
 26 28  2  0
 29 30  2  0
 30 31  1  0
 31 32  1  0
 32 33  2  0
M  END
