
     RDKit          3D

 32 34  0  0  0  0  0  0  0  0999 V2000
   -7.4520    1.7820    2.0560 C   0  0  0  0  0  0  0  0  0  0  0  0
   -7.2690    2.6120    1.0580 C   0  0  0  0  0  0  0  0  0  0  0  0
   -6.0790    2.4700    0.1990 C   0  0  0  0  0  0  0  0  0  0  0  0
   -6.0140    3.3060   -0.7310 O   0  0  0  0  0  0  0  0  0  0  0  0
   -5.1150    1.4860    0.4120 N   0  0  0  0  0  0  0  0  0  0  0  0
   -3.9720    1.3130   -0.3770 C   0  0  0  0  0  0  0  0  0  0  0  0
   -3.6230    2.0360   -1.5050 C   0  0  0  0  0  0  0  0  0  0  0  0
   -2.4680    1.7590   -2.2140 C   0  0  0  0  0  0  0  0  0  0  0  0
   -1.5890    0.7410   -1.8400 C   0  0  0  0  0  0  0  0  0  0  0  0
   -0.4130    0.5040   -2.5980 N   0  0  0  0  0  0  0  0  0  0  0  0
    0.6880   -0.2790   -2.2150 C   0  0  0  0  0  0  0  0  0  0  0  0
    0.7160   -0.8610   -1.0980 O   0  0  0  0  0  0  0  0  0  0  0  0
    1.8550   -0.4780   -3.0470 N   0  0  0  0  0  0  0  0  0  0  0  0
    2.9500   -1.3080   -2.5610 C   0  0  0  0  0  0  0  0  0  0  0  0
    3.7920   -0.6220   -1.5570 C   0  0  0  0  0  0  0  0  0  0  0  0
    4.6540   -1.2370   -0.6600 C   0  0  0  0  0  0  0  0  0  0  0  0
    5.2660   -0.2360    0.0910 C   0  0  0  0  0  0  0  0  0  0  0  0
    6.2410   -0.4830    1.1430 C   0  0  0  0  0  0  0  0  0  0  0  0
    6.6240    0.4230    2.0130 C   0  0  0  0  0  0  0  0  0  0  0  0
    6.0310    1.7880    1.9270 C   0  0  0  0  0  0  0  0  0  0  0  0
    7.7950    0.0880    3.2590 Cl  0  0  0  0  0  0  0  0  0  0  0  0
    6.8270   -1.8620    1.2380 C   0  0  1  0  0  0  0  0  0  0  0  0
    7.4820   -2.2110    0.0550 F   0  0  0  0  0  0  0  0  0  0  0  0
    7.7170   -1.9420    2.2810 F   0  0  0  0  0  0  0  0  0  0  0  0
    5.7940   -2.7680    1.5040 F   0  0  0  0  0  0  0  0  0  0  0  0
    4.7810    0.8810   -0.3550 O   0  0  0  0  0  0  0  0  0  0  0  0
    3.9140    0.6810   -1.3190 N   0  0  0  0  0  0  0  0  0  0  0  0
   -1.9510    0.0410   -0.7290 C   0  0  0  0  0  0  0  0  0  0  0  0
   -3.1000    0.2920    0.0050 C   0  0  0  0  0  0  0  0  0  0  0  0
   -3.4100   -0.4940    1.2000 C   0  0  2  0  0  0  0  0  0  0  0  0
   -2.7230   -1.7600    1.5150 C   0  0  0  0  0  0  0  0  0  0  0  0
   -4.2460   -1.7070    1.2150 C   0  0  0  0  0  0  0  0  0  0  0  0
  1  2  2  0
  2  3  1  0
  3  4  2  0
  3  5  1  0
  5  6  1  0
  6  7  2  0
  6 29  1  0
  7  8  1  0
  8  9  2  0
  9 10  1  0
  9 28  1  0
 10 11  1  0
 11 12  2  0
 11 13  1  0
 13 14  1  0
 14 15  1  0
 15 16  1  0
 15 27  2  0
 16 17  2  0
 17 18  1  0
 17 26  1  0
 18 19  2  3
 18 22  1  0
 19 20  1  0
 19 21  1  0
 22 23  1  6
 22 24  1  0
 22 25  1  0
 26 27  1  0
 28 29  2  0
 30 29  1  6
 30 31  1  0
 30 32  1  0
 31 32  1  0
M  END
