
     RDKit          3D

 32 34  0  0  0  0  0  0  0  0999 V2000
   -6.3310   -2.8830    0.4850 C   0  0  0  0  0  0  0  0  0  0  0  0
   -5.6750   -1.5950    0.8430 C   0  0  0  0  0  0  0  0  0  0  0  0
   -6.3280   -0.6630    1.6220 C   0  0  0  0  0  0  0  0  0  0  0  0
   -5.7230    0.5350    1.9590 C   0  0  0  0  0  0  0  0  0  0  0  0
   -4.4370    0.8390    1.5250 C   0  0  0  0  0  0  0  0  0  0  0  0
   -3.8230    2.0270    1.8600 O   0  0  0  0  0  0  0  0  0  0  0  0
   -3.7780   -0.0780    0.7500 C   0  0  0  0  0  0  0  0  0  0  0  0
   -2.4500    0.2040    0.2310 C   0  0  0  0  0  0  0  0  0  0  0  0
   -2.1230    1.1140   -0.6370 C   0  0  0  0  0  0  0  0  0  0  0  0
   -0.7960    1.3970   -1.1520 C   0  0  0  0  0  0  0  0  0  0  0  0
   -0.5280    2.5680   -1.8220 N   0  0  0  0  0  0  0  0  0  0  0  0
    0.7350    2.5720   -2.1820 N   0  0  0  0  0  0  0  0  0  0  0  0
    1.2660    1.4600   -1.7710 N   0  0  0  0  0  0  0  0  0  0  0  0
    0.3610    0.6670   -1.1170 C   0  0  0  0  0  0  0  0  0  0  0  0
    0.5510   -0.6760   -0.6840 C   0  0  0  0  0  0  0  0  0  0  0  0
    1.5050   -1.4260   -0.3200 C   0  0  0  0  0  0  0  0  0  0  0  0
    2.9180   -1.2950   -0.1500 C   0  0  0  0  0  0  0  0  0  0  0  0
    3.5520   -2.3840    0.2250 O   0  0  0  0  0  0  0  0  0  0  0  0
    3.7580   -0.1940   -0.3130 N   0  0  0  0  0  0  0  0  0  0  0  0
    5.1620   -0.1570   -0.1280 C   0  0  0  0  0  0  0  0  0  0  0  0
    5.9700   -1.1800    0.2690 C   0  0  0  0  0  0  0  0  0  0  0  0
    7.3590   -1.0500    0.4300 C   0  0  0  0  0  0  0  0  0  0  0  0
    7.9660    0.1590    0.1830 C   0  0  0  0  0  0  0  0  0  0  0  0
    9.3260    0.3680    0.3190 O   0  0  0  0  0  0  0  0  0  0  0  0
    7.1910    1.2020   -0.2140 C   0  0  0  0  0  0  0  0  0  0  0  0
    5.8260    1.0580   -0.3680 C   0  0  0  0  0  0  0  0  0  0  0  0
    4.8610    2.4170   -0.8820 Cl  0  0  0  0  0  0  0  0  0  0  0  0
   -3.2780    1.9170   -1.2160 C   0  0  2  0  0  0  0  0  0  0  0  0
   -3.1080    1.8890   -2.6260 F   0  0  0  0  0  0  0  0  0  0  0  0
   -3.1720    3.2260   -0.8640 F   0  0  0  0  0  0  0  0  0  0  0  0
   -4.4770    1.3240   -1.0080 F   0  0  0  0  0  0  0  0  0  0  0  0
   -4.3990   -1.2890    0.4140 C   0  0  0  0  0  0  0  0  0  0  0  0
  1  2  1  0
  2  3  2  0
  2 32  1  0
  3  4  1  0
  4  5  2  0
  5  6  1  0
  5  7  1  0
  7  8  1  0
  7 32  2  0
  8  9  2  3
  9 10  1  0
  9 28  1  0
 10 11  1  0
 10 14  2  0
 11 12  1  0
 12 13  2  0
 13 14  1  0
 14 15  1  0
 15 16  2  3
 16 17  1  0
 17 18  2  0
 17 19  1  0
 19 20  1  0
 20 21  2  0
 20 26  1  0
 21 22  1  0
 22 23  2  0
 23 24  1  0
 23 25  1  0
 25 26  2  0
 26 27  1  0
 28 29  1  6
 28 30  1  0
 28 31  1  0
M  END
