
     RDKit          3D

 32 34  0  0  0  0  0  0  0  0999 V2000
   -8.6540   -1.7790   -0.9460 C   0  0  0  0  0  0  0  0  0  0  0  0
   -7.2470   -1.2270   -0.7940 C   0  0  0  0  0  0  0  0  0  0  0  0
   -6.5520   -1.1900   -1.8290 O   0  0  0  0  0  0  0  0  0  0  0  0
   -6.7910   -0.7930    0.4600 N   0  0  0  0  0  0  0  0  0  0  0  0
   -5.5140   -0.2630    0.7170 C   0  0  0  0  0  0  0  0  0  0  0  0
   -5.1760   -0.0970    2.0780 C   0  0  0  0  0  0  0  0  0  0  0  0
   -3.9590    0.4230    2.4210 C   0  0  0  0  0  0  0  0  0  0  0  0
   -3.0120    0.8070    1.4610 C   0  0  0  0  0  0  0  0  0  0  0  0
   -1.4860    1.4620    2.0080 Cl  0  0  0  0  0  0  0  0  0  0  0  0
   -3.3590    0.6390    0.1550 C   0  0  0  0  0  0  0  0  0  0  0  0
   -2.4770    0.9980   -0.9440 C   0  0  0  0  0  0  0  0  0  0  0  0
   -1.2010    1.5480   -0.6850 N   0  0  0  0  0  0  0  0  0  0  0  0
   -0.8330    2.8090   -0.5880 N   0  0  0  0  0  0  0  0  0  0  0  0
    0.4870    2.9300   -0.3790 C   0  0  0  0  0  0  0  0  0  0  0  0
    1.0020    1.6250   -0.3390 C   0  0  0  0  0  0  0  0  0  0  0  0
    2.4400    1.3420   -0.1460 C   0  0  0  0  0  0  0  0  0  0  0  0
    3.1580    2.3220    0.2620 O   0  0  0  0  0  0  0  0  0  0  0  0
    3.0670    0.1280   -0.3680 N   0  0  0  0  0  0  0  0  0  0  0  0
    4.4490   -0.1220   -0.1780 C   0  0  0  0  0  0  0  0  0  0  0  0
    4.8870   -1.4670   -0.1110 C   0  0  0  0  0  0  0  0  0  0  0  0
    6.2090   -1.7810    0.0530 C   0  0  0  0  0  0  0  0  0  0  0  0
    7.1970   -0.8310    0.1640 C   0  0  0  0  0  0  0  0  0  0  0  0
    8.6280   -1.1980    0.3450 C   0  0  1  0  0  0  0  0  0  0  0  0
    8.8230   -2.5450    0.3800 F   0  0  0  0  0  0  0  0  0  0  0  0
    9.4120   -0.6820   -0.6820 F   0  0  0  0  0  0  0  0  0  0  0  0
    9.0180   -0.6140    1.5540 F   0  0  0  0  0  0  0  0  0  0  0  0
    6.7920    0.4780    0.1010 C   0  0  0  0  0  0  0  0  0  0  0  0
    7.7340    1.5030    0.2060 O   0  0  0  0  0  0  0  0  0  0  0  0
    5.4380    0.8150   -0.0680 C   0  0  0  0  0  0  0  0  0  0  0  0
   -0.0610    0.8040   -0.5290 C   0  0  0  0  0  0  0  0  0  0  0  0
   -0.0100   -0.6920   -0.5490 C   0  0  0  0  0  0  0  0  0  0  0  0
   -4.6050    0.1060   -0.2300 C   0  0  0  0  0  0  0  0  0  0  0  0
  1  2  1  0
  2  3  2  0
  2  4  1  0
  4  5  1  0
  5  6  2  0
  5 32  1  0
  6  7  1  0
  7  8  2  0
  8  9  1  0
  8 10  1  0
 10 11  1  0
 10 32  2  0
 11 12  1  0
 12 13  1  0
 12 30  1  0
 13 14  2  0
 14 15  1  0
 15 16  1  0
 15 30  2  0
 16 17  2  0
 16 18  1  0
 18 19  1  0
 19 20  2  0
 19 29  1  0
 20 21  1  0
 21 22  2  0
 22 23  1  0
 22 27  1  0
 23 24  1  1
 23 25  1  0
 23 26  1  0
 27 28  1  0
 27 29  2  0
 30 31  1  0
M  END
