
     RDKit          3D

 19 21  0  0  0  0  0  0  0  0999 V2000
    4.8160    0.1940   -2.3230 C   0  0  0  0  0  0  0  0  0  0  0  0
    3.4530   -0.1090   -1.8830 C   0  0  0  0  0  0  0  0  0  0  0  0
    3.0710   -0.0030   -0.6230 C   0  0  0  0  0  0  0  0  0  0  0  0
    1.6940   -0.3140   -0.2060 C   0  0  0  0  0  0  0  0  0  0  0  0
    1.3670   -0.1970    1.0310 C   0  0  0  0  0  0  0  0  0  0  0  0
    0.1310   -0.4110    1.7420 C   0  0  0  0  0  0  0  0  0  0  0  0
    0.2250   -0.8240    3.0970 C   0  0  0  0  0  0  0  0  0  0  0  0
   -0.8890   -1.0360    3.8300 C   0  0  0  0  0  0  0  0  0  0  0  0
   -0.7570   -1.4320    5.1280 F   0  0  0  0  0  0  0  0  0  0  0  0
   -2.1590   -0.8780    3.3540 C   0  0  0  0  0  0  0  0  0  0  0  0
   -2.2660   -0.4690    2.0310 C   0  0  0  0  0  0  0  0  0  0  0  0
   -3.3420   -0.1720    1.2870 N   0  0  0  0  0  0  0  0  0  0  0  0
   -2.9540    0.2410    0.0730 C   0  0  0  0  0  0  0  0  0  0  0  0
   -3.3820    0.7060   -1.1250 N   0  0  0  0  0  0  0  0  0  0  0  0
   -2.3640    0.9750   -1.9350 C   0  0  0  0  0  0  0  0  0  0  0  0
   -2.3850    1.4360   -3.1550 N   0  0  0  0  0  0  0  0  0  0  0  0
   -1.2390    0.6710   -1.2280 N   0  0  0  0  0  0  0  0  0  0  0  0
   -1.5620    0.2230   -0.0170 C   0  0  0  0  0  0  0  0  0  0  0  0
   -1.1360   -0.2380    1.2380 C   0  0  0  0  0  0  0  0  0  0  0  0
  1  2  1  0
  2  3  2  3
  3  4  1  0
  4  5  2  3
  5  6  1  0
  6  7  2  0
  6 19  1  0
  7  8  1  0
  8  9  1  0
  8 10  2  0
 10 11  1  0
 11 12  1  0
 11 19  2  0
 12 13  1  0
 13 14  1  0
 13 18  2  0
 14 15  1  0
 15 16  2  0
 15 17  1  0
 17 18  1  0
 18 19  1  0
M  CHG  1  16   1
M  END
