
     RDKit          3D

 19 21  0  0  0  0  0  0  0  0999 V2000
    1.3760   -2.2020   -1.6550 C   0  0  0  0  0  0  0  0  0  0  0  0
    1.8770   -1.0940   -0.7970 C   0  0  0  0  0  0  0  0  0  0  0  0
    3.0260   -0.4040   -0.8920 N   0  0  0  0  0  0  0  0  0  0  0  0
    3.0910    0.5170    0.0860 C   0  0  0  0  0  0  0  0  0  0  0  0
    3.8440    1.5340    0.6540 C   0  0  0  0  0  0  0  0  0  0  0  0
    5.1650    1.9780    0.1550 C   0  0  0  0  0  0  0  0  0  0  0  0
    3.1640    2.0100    1.6970 N   0  0  0  0  0  0  0  0  0  0  0  0
    2.0130    1.3710    1.8500 N   0  0  0  0  0  0  0  0  0  0  0  0
    1.9500    0.4390    0.8590 C   0  0  0  0  0  0  0  0  0  0  0  0
    1.1950   -0.5670    0.3050 C   0  0  0  0  0  0  0  0  0  0  0  0
   -0.0950   -1.0030    0.7890 C   0  0  0  0  0  0  0  0  0  0  0  0
   -0.1580   -1.9090    1.6410 O   0  0  0  0  0  0  0  0  0  0  0  0
   -1.3440   -0.3940    0.2920 C   0  0  0  0  0  0  0  0  0  0  0  0
   -1.2860    0.5620   -0.6060 C   0  0  0  0  0  0  0  0  0  0  0  0
   -2.5420    1.1640   -1.0960 C   0  0  0  0  0  0  0  0  0  0  0  0
   -3.5270    0.0600   -1.3820 C   0  0  0  0  0  0  0  0  0  0  0  0
   -3.6610   -0.9250   -0.2820 C   0  0  0  0  0  0  0  0  0  0  0  0
   -2.6390   -0.8520    0.7970 C   0  0  2  0  0  0  0  0  0  0  0  0
   -3.0790   -0.0940    1.9530 N   0  0  0  0  0  0  0  0  0  0  0  0
  1  2  1  0
  2  3  1  0
  2 10  2  0
  3  4  1  0
  4  5  1  0
  4  9  2  0
  5  6  1  0
  5  7  2  0
  7  8  1  0
  8  9  1  0
  9 10  1  0
 10 11  1  0
 11 12  2  0
 11 13  1  0
 13 14  2  0
 13 18  1  0
 14 15  1  0
 15 16  1  0
 16 17  1  0
 17 18  1  0
 18 19  1  1
M  CHG  1  19   1
M  END
