
     RDKit          3D

 19 21  0  0  0  0  0  0  0  0999 V2000
    2.9390    1.7900   -0.3250 C   0  0  0  0  0  0  0  0  0  0  0  0
    3.5110    0.4310   -0.5120 C   0  0  0  0  0  0  0  0  0  0  0  0
    4.8900    0.2450   -0.5070 C   0  0  0  0  0  0  0  0  0  0  0  0
    5.4070   -1.0180   -0.6810 C   0  0  0  0  0  0  0  0  0  0  0  0
    4.5860   -2.0660   -0.8540 N   0  0  0  0  0  0  0  0  0  0  0  0
    3.2550   -1.9140   -0.8630 C   0  0  0  0  0  0  0  0  0  0  0  0
    2.7270   -0.6710   -0.6930 C   0  0  0  0  0  0  0  0  0  0  0  0
    1.2500   -0.4940   -0.7020 C   0  0  0  0  0  0  0  0  0  0  0  0
    0.5150   -0.5720   -2.1380 S   0  0  0  0  0  0  0  0  0  0  0  0
    0.5470   -0.2500    0.4840 N   0  0  0  0  0  0  0  0  0  0  0  0
   -0.8320   -0.0660    0.6740 C   0  0  0  0  0  0  0  0  0  0  0  0
   -1.2250    0.5540    1.8750 C   0  0  0  0  0  0  0  0  0  0  0  0
   -2.5490    0.7520    2.1450 C   0  0  0  0  0  0  0  0  0  0  0  0
   -3.5320    0.3440    1.2400 C   0  0  0  0  0  0  0  0  0  0  0  0
   -3.1790   -0.2610    0.0670 C   0  0  0  0  0  0  0  0  0  0  0  0
   -1.8260   -0.4550   -0.1930 C   0  0  0  0  0  0  0  0  0  0  0  0
   -4.4200   -0.5910   -0.7120 C   0  0  0  0  0  0  0  0  0  0  0  0
   -5.4550    0.2910   -0.0330 C   0  0  0  0  0  0  0  0  0  0  0  0
   -4.9190    0.4160    1.2540 O   0  0  0  0  0  0  0  0  0  0  0  0
  1  2  1  0
  2  3  2  0
  2  7  1  0
  3  4  1  0
  4  5  2  0
  5  6  1  0
  6  7  2  0
  7  8  1  0
  8  9  2  0
  8 10  1  0
 10 11  1  0
 11 12  2  0
 11 16  1  0
 12 13  1  0
 13 14  2  0
 14 15  1  0
 14 19  1  0
 15 16  2  0
 15 17  1  0
 17 18  1  0
 18 19  1  0
M  END
