
     RDKit          3D

 20 22  0  0  0  0  0  0  0  0999 V2000
   -2.1890   -3.4180   -2.7200 N   0  0  0  0  0  0  0  0  0  0  0  0
   -1.6100   -2.6940   -1.8120 C   0  0  0  0  0  0  0  0  0  0  0  0
   -0.9840   -3.2430   -0.6820 N   0  0  0  0  0  0  0  0  0  0  0  0
   -0.3570   -2.4390    0.2870 C   0  0  0  0  0  0  0  0  0  0  0  0
   -0.4270   -0.9490    0.0120 C   0  0  0  0  0  0  0  0  0  0  0  0
    0.2250   -0.2560    1.0500 N   0  0  0  0  0  0  0  0  0  0  0  0
    1.6620   -0.2360    1.0460 C   0  0  0  0  0  0  0  0  0  0  0  0
    2.2580    0.4950    2.1830 C   0  0  0  0  0  0  0  0  0  0  0  0
    2.5420    0.0030    3.4470 C   0  0  0  0  0  0  0  0  0  0  0  0
    3.0860    1.0450    4.1590 C   0  0  0  0  0  0  0  0  0  0  0  0
    3.1100    2.1170    3.3110 C   0  0  0  0  0  0  0  0  0  0  0  0
    2.6140    1.7520    2.1540 O   0  0  0  0  0  0  0  0  0  0  0  0
   -0.9890   -0.3980   -1.0070 C   0  0  0  0  0  0  0  0  0  0  0  0
   -1.0890    1.0210   -1.3260 C   0  0  0  0  0  0  0  0  0  0  0  0
   -1.6900    1.5140   -2.4120 C   0  0  0  0  0  0  0  0  0  0  0  0
   -1.6180    2.9790   -2.4390 C   0  0  0  0  0  0  0  0  0  0  0  0
   -0.8920    3.3290   -1.2200 C   0  0  0  0  0  0  0  0  0  0  0  0
   -0.6000    2.1690   -0.5990 C   0  0  0  0  0  0  0  0  0  0  0  0
    0.0780    2.2570    0.5670 F   0  0  0  0  0  0  0  0  0  0  0  0
   -1.6050   -1.2970   -1.9590 N   0  0  0  0  0  0  0  0  0  0  0  0
  1  2  2  0
  2  3  1  0
  2 20  1  0
  3  4  1  0
  4  5  1  0
  5  6  1  0
  5 13  2  0
  6  7  1  0
  7  8  1  0
  8  9  2  0
  8 12  1  0
  9 10  1  0
 10 11  2  0
 11 12  1  0
 13 14  1  0
 13 20  1  0
 14 15  2  0
 14 18  1  0
 15 16  1  0
 16 17  1  0
 17 18  2  0
 18 19  1  0
M  CHG  1   1   1
M  END
