
     RDKit          3D

 19 20  0  0  0  0  0  0  0  0999 V2000
   -3.5270    3.9660   -0.2920 C   0  0  0  0  0  0  0  0  0  0  0  0
   -3.1790    2.5290   -0.0260 C   0  0  0  0  0  0  0  0  0  0  0  0
   -2.2180    2.0480   -0.9750 O   0  0  0  0  0  0  0  0  0  0  0  0
   -1.7980    0.7360   -0.8590 C   0  0  0  0  0  0  0  0  0  0  0  0
   -2.7530   -0.1170   -1.1770 C   0  0  0  0  0  0  0  0  0  0  0  0
   -2.9150   -1.5750   -1.2490 C   0  0  0  0  0  0  0  0  0  0  0  0
   -2.1170   -2.6010   -1.0110 C   0  0  0  0  0  0  0  0  0  0  0  0
   -0.7340   -2.7370   -0.5750 C   0  0  0  0  0  0  0  0  0  0  0  0
   -0.2280   -3.9960   -0.4370 N   0  0  0  0  0  0  0  0  0  0  0  0
    1.0370   -3.9190   -0.0340 C   0  0  0  0  0  0  0  0  0  0  0  0
    1.9270   -5.0930    0.2270 C   0  0  0  0  0  0  0  0  0  0  0  0
    1.3380   -2.6160    0.0840 N   0  0  0  0  0  0  0  0  0  0  0  0
    0.2850   -1.8450   -0.2360 C   0  0  0  0  0  0  0  0  0  0  0  0
    0.4270   -0.3740   -0.1650 C   0  0  0  0  0  0  0  0  0  0  0  0
    1.7780   -0.0420    0.2680 C   0  0  0  0  0  0  0  0  0  0  0  0
    2.1320    1.3980    0.3700 C   0  0  0  0  0  0  0  0  0  0  0  0
    3.8590    1.4690    0.9410 S   0  0  0  0  0  0  0  0  0  0  0  0
    4.4350    3.1690    1.1140 C   0  0  0  0  0  0  0  0  0  0  0  0
   -0.4120    0.6210   -0.4160 C   0  0  0  0  0  0  0  0  0  0  0  0
  1  2  1  0
  2  3  1  0
  3  4  1  0
  4  5  2  0
  4 19  1  0
  5  6  1  0
  6  7  2  0
  7  8  1  0
  8  9  1  0
  8 13  2  0
  9 10  2  0
 10 11  1  0
 10 12  1  0
 12 13  1  0
 13 14  1  0
 14 15  1  0
 14 19  2  0
 15 16  1  0
 16 17  1  0
 17 18  1  0
M  END
