
     RDKit          3D

 19 21  0  0  0  0  0  0  0  0999 V2000
   -5.7240   -1.3530   -0.3100 C   0  0  0  0  0  0  0  0  0  0  0  0
   -4.4360   -1.3890    0.0260 C   0  0  0  0  0  0  0  0  0  0  0  0
   -3.5110   -0.2840   -0.1540 C   0  0  0  0  0  0  0  0  0  0  0  0
   -2.0990   -0.4960    0.2790 C   0  0  0  0  0  0  0  0  0  0  0  0
   -1.7060   -1.6960    0.8260 C   0  0  0  0  0  0  0  0  0  0  0  0
   -0.4020   -1.9180    1.2360 C   0  0  0  0  0  0  0  0  0  0  0  0
    0.4940   -0.9540    1.1010 N   0  0  0  0  0  0  0  0  0  0  0  0
    0.1800    0.2260    0.5820 C   0  0  0  0  0  0  0  0  0  0  0  0
    1.1700    1.2680    0.4410 N   0  0  0  0  0  0  0  0  0  0  0  0
    2.5170    1.0680    0.8530 C   0  0  0  0  0  0  0  0  0  0  0  0
    3.2310   -0.0500    0.1590 C   0  0  1  0  0  0  0  0  0  0  0  0
    3.3240    0.1070   -1.3180 C   0  0  0  0  0  0  0  0  0  0  0  0
    4.8290   -0.0590   -1.5610 C   0  0  0  0  0  0  0  0  0  0  0  0
    5.3680    0.4830   -0.2310 C   0  0  0  0  0  0  0  0  0  0  0  0
    4.5230   -0.1140    0.6710 O   0  0  0  0  0  0  0  0  0  0  0  0
   -1.1310    0.4610    0.1650 C   0  0  0  0  0  0  0  0  0  0  0  0
   -3.8840    0.8490   -0.6700 C   0  0  0  0  0  0  0  0  0  0  0  0
   -5.1620    1.3330   -1.1720 C   0  0  0  0  0  0  0  0  0  0  0  0
   -6.4480    0.0940   -1.0320 S   0  0  0  0  0  0  0  0  0  0  0  0
  1  2  2  0
  1 19  1  0
  2  3  1  0
  3  4  1  0
  3 17  2  0
  4  5  2  0
  4 16  1  0
  5  6  1  0
  6  7  2  0
  7  8  1  0
  8  9  1  0
  8 16  2  0
  9 10  1  0
 11 10  1  1
 11 12  1  0
 11 15  1  0
 12 13  1  0
 13 14  1  0
 14 15  1  0
 17 18  1  0
 18 19  1  0
M  END
