
     RDKit          3D

 12 13  0  0  0  0  0  0  0  0999 V2000
    3.3970    0.3680    0.4280 C   0  0  0  0  0  0  0  0  0  0  0  0
    1.9800    0.0500    0.1500 C   0  0  0  0  0  0  0  0  0  0  0  0
    1.0010    0.9000    0.5990 C   0  0  0  0  0  0  0  0  0  0  0  0
    1.3830    2.3560    1.4940 Cl  0  0  0  0  0  0  0  0  0  0  0  0
   -0.2790    0.5900    0.3350 N   0  0  0  0  0  0  0  0  0  0  0  0
   -0.6250   -0.5240   -0.3540 C   0  0  0  0  0  0  0  0  0  0  0  0
   -2.0810   -0.7350   -0.5700 C   0  0  2  0  0  0  0  0  0  0  0  0
   -2.8260    0.5340   -0.9220 C   0  0  0  0  0  0  0  0  0  0  0  0
   -3.0740   -0.1610    0.3680 C   0  0  0  0  0  0  0  0  0  0  0  0
    0.3160   -1.3710   -0.8030 N   0  0  0  0  0  0  0  0  0  0  0  0
    1.6260   -1.0880   -0.5520 C   0  0  0  0  0  0  0  0  0  0  0  0
    2.9080   -2.1410   -1.1040 Cl  0  0  0  0  0  0  0  0  0  0  0  0
  1  2  1  0
  2  3  2  0
  2 11  1  0
  3  4  1  0
  3  5  1  0
  5  6  2  0
  7  6  1  1
  6 10  1  0
  7  8  1  0
  7  9  1  0
  8  9  1  0
 10 11  2  0
 11 12  1  0
M  END
