
     RDKit          3D

 20 22  0  0  0  0  0  0  0  0999 V2000
   -2.9660    1.0950   -2.2590 N   0  0  0  0  0  0  0  0  0  0  0  0
   -3.4520    0.8540   -0.9490 C   0  0  0  0  0  0  0  0  0  0  0  0
   -4.6240    1.1720   -0.6270 O   0  0  0  0  0  0  0  0  0  0  0  0
   -2.6000    0.2310    0.0560 C   0  0  0  0  0  0  0  0  0  0  0  0
   -1.2950   -0.1270   -0.2900 C   0  0  0  0  0  0  0  0  0  0  0  0
   -0.4510   -0.7100    0.5990 C   0  0  0  0  0  0  0  0  0  0  0  0
    0.9240   -1.1060    0.3610 C   0  0  0  0  0  0  0  0  0  0  0  0
    1.3560   -2.3950    0.5810 C   0  0  0  0  0  0  0  0  0  0  0  0
    2.6210   -2.7890    0.3540 N   0  0  0  0  0  0  0  0  0  0  0  0
    3.5250   -1.9130   -0.1060 C   0  0  0  0  0  0  0  0  0  0  0  0
    4.8220   -2.2550   -0.3550 F   0  0  0  0  0  0  0  0  0  0  0  0
    3.1650   -0.5890   -0.3530 C   0  0  0  0  0  0  0  0  0  0  0  0
    1.8600   -0.1960   -0.1160 C   0  0  0  0  0  0  0  0  0  0  0  0
    1.7420    1.2210   -0.4280 C   0  0  0  0  0  0  0  0  0  0  0  0
    2.9270    1.5130   -1.2200 N   0  0  0  0  0  0  0  0  0  0  0  0
    3.9250    0.5810   -0.8430 C   0  0  0  0  0  0  0  0  0  0  0  0
   -0.9350   -0.9480    1.8950 C   0  0  0  0  0  0  0  0  0  0  0  0
   -2.2050   -0.6030    2.2450 C   0  0  0  0  0  0  0  0  0  0  0  0
   -3.0610   -0.0080    1.3330 C   0  0  0  0  0  0  0  0  0  0  0  0
   -4.3700    0.3350    1.7320 N   0  0  0  0  0  0  0  0  0  0  0  0
  1  2  1  0
  2  3  2  0
  2  4  1  0
  4  5  2  0
  4 19  1  0
  5  6  1  0
  6  7  1  0
  6 17  2  0
  7  8  2  0
  7 13  1  0
  8  9  1  0
  9 10  2  0
 10 11  1  0
 10 12  1  0
 12 13  2  0
 12 16  1  0
 13 14  1  0
 14 15  1  0
 15 16  1  0
 17 18  1  0
 18 19  2  0
 19 20  1  0
M  CHG  1  15   1
M  END
