
     RDKit          3D

 20 21  0  0  0  0  0  0  0  0999 V2000
    6.5680    0.8330    0.9110 C   0  0  0  0  0  0  0  0  0  0  0  0
    6.4320   -0.0840   -0.1490 O   0  0  0  0  0  0  0  0  0  0  0  0
    5.2100   -0.5060   -0.6410 C   0  0  0  0  0  0  0  0  0  0  0  0
    5.2010   -1.4050   -1.6790 C   0  0  0  0  0  0  0  0  0  0  0  0
    4.0050   -1.8000   -2.1400 N   0  0  0  0  0  0  0  0  0  0  0  0
    2.8590   -1.3240   -1.5950 C   0  0  0  0  0  0  0  0  0  0  0  0
    2.8340   -0.4270   -0.5600 C   0  0  0  0  0  0  0  0  0  0  0  0
    1.6740    0.1040    0.0490 N   0  0  0  0  0  0  0  0  0  0  0  0
    0.3410   -0.1600   -0.2620 C   0  0  0  0  0  0  0  0  0  0  0  0
    0.0670   -0.9470   -1.1710 O   0  0  0  0  0  0  0  0  0  0  0  0
   -0.7690    0.4340    0.4190 N   0  0  0  0  0  0  0  0  0  0  0  0
   -2.1140    0.1240    0.0560 C   0  0  2  0  0  0  0  0  0  0  0  0
   -2.9010    1.3200   -0.4340 C   0  0  0  0  0  0  0  0  0  0  0  0
   -3.9750    0.8070   -1.1780 O   0  0  0  0  0  0  0  0  0  0  0  0
   -5.1500    0.8010   -0.4690 C   0  0  0  0  0  0  0  0  0  0  0  0
   -5.2690   -0.2360    0.5040 N   0  0  0  0  0  0  0  0  0  0  0  0
   -4.1370   -1.1310    0.5570 C   0  0  0  0  0  0  0  0  0  0  0  0
   -2.9150   -0.5070    1.1730 C   0  0  2  0  0  0  0  0  0  0  0  0
   -3.3550    0.4570    2.0890 O   0  0  0  0  0  0  0  0  0  0  0  0
    4.0710   -0.0460   -0.1140 N   0  0  0  0  0  0  0  0  0  0  0  0
  1  2  1  0
  2  3  1  0
  3  4  2  0
  3 20  1  0
  4  5  1  0
  5  6  2  0
  6  7  1  0
  7  8  1  0
  7 20  2  0
  8  9  1  0
  9 10  2  0
  9 11  1  0
 12 11  1  1
 12 13  1  0
 12 18  1  0
 13 14  1  0
 14 15  1  0
 15 16  1  0
 16 17  1  0
 17 18  1  0
 18 19  1  1
M  END
