
     RDKit          3D

 20 21  0  0  0  0  0  0  0  0999 V2000
    3.5200   -0.7590   -2.1980 C   0  0  0  0  0  0  0  0  0  0  0  0
    4.0760   -0.4390   -0.8400 C   0  0  0  0  0  0  0  0  0  0  0  0
    5.3930   -0.5180   -0.6290 N   0  0  0  0  0  0  0  0  0  0  0  0
    5.9520   -0.2490    0.5470 N   0  0  0  0  0  0  0  0  0  0  0  0
    5.2070    0.1210    1.5970 C   0  0  0  0  0  0  0  0  0  0  0  0
    5.7620    0.3680    2.6920 O   0  0  0  0  0  0  0  0  0  0  0  0
    3.8450    0.2100    1.4050 C   0  0  0  0  0  0  0  0  0  0  0  0
    3.2380   -0.0650    0.1890 C   0  0  0  0  0  0  0  0  0  0  0  0
    1.8340    0.0300    0.0020 N   0  0  0  0  0  0  0  0  0  0  0  0
    1.0330    0.4180    1.0980 C   0  0  0  0  0  0  0  0  0  0  0  0
   -0.4230    0.5060    0.8670 C   0  0  0  0  0  0  0  0  0  0  0  0
   -1.2530    0.8420    1.7450 O   0  0  0  0  0  0  0  0  0  0  0  0
   -1.0400    0.2300   -0.3300 N   0  0  0  0  0  0  0  0  0  0  0  0
   -2.4870    0.3590   -0.4070 C   0  0  0  0  0  0  0  0  0  0  0  0
   -2.9620    0.0930   -1.5140 N   0  0  0  0  0  0  0  0  0  0  0  0
   -4.3810    0.2150   -1.6000 C   0  0  1  0  0  0  0  0  0  0  0  0
   -4.9370   -1.0250   -1.7520 O   0  0  0  0  0  0  0  0  0  0  0  0
   -4.7450    0.8070   -0.2300 C   0  0  1  0  0  0  0  0  0  0  0  0
   -5.7700   -0.1480    0.3460 C   0  0  0  0  0  0  0  0  0  0  0  0
   -3.5200    0.6940    0.3880 O   0  0  0  0  0  0  0  0  0  0  0  0
  1  2  1  0
  2  3  2  0
  2  8  1  0
  3  4  1  0
  4  5  1  0
  5  6  2  0
  5  7  1  0
  7  8  2  0
  8  9  1  0
  9 10  1  0
 10 11  1  0
 11 12  2  0
 11 13  1  0
 13 14  1  0
 14 15  2  0
 14 20  1  0
 15 16  1  0
 16 17  1  1
 16 18  1  0
 18 19  1  1
 18 20  1  0
M  END
