
     RDKit          3D

 20 21  0  0  0  0  0  0  0  0999 V2000
    4.3570   -2.2510    0.1020 C   0  0  0  0  0  0  0  0  0  0  0  0
    3.8400   -1.1270    0.7250 O   0  0  0  0  0  0  0  0  0  0  0  0
    3.6530   -0.0600   -0.1200 C   0  0  2  0  0  0  0  0  0  0  0  0
    4.4100    1.1740    0.2870 C   0  0  0  0  0  0  0  0  0  0  0  0
    2.1760    0.2120   -0.2080 C   0  0  0  0  0  0  0  0  0  0  0  0
    1.4090    0.2300    0.8950 N   0  0  0  0  0  0  0  0  0  0  0  0
    0.0900    0.4670    0.8680 C   0  0  0  0  0  0  0  0  0  0  0  0
   -0.7120    0.4810    2.0590 N   0  0  0  0  0  0  0  0  0  0  0  0
   -0.5140    0.7040   -0.3420 C   0  0  0  0  0  0  0  0  0  0  0  0
   -1.9130    0.9530   -0.3520 N   0  0  0  0  0  0  0  0  0  0  0  0
   -2.7430   -0.0120   -0.1430 C   0  0  0  0  0  0  0  0  0  0  0  0
   -2.4980   -1.4050    0.1200 C   0  0  0  0  0  0  0  0  0  0  0  0
   -1.3940   -1.9670    0.1970 O   0  0  0  0  0  0  0  0  0  0  0  0
   -3.7210   -2.0260    0.2730 O   0  0  0  0  0  0  0  0  0  0  0  0
   -4.6940   -1.1960   -0.3090 C   0  0  0  0  0  0  0  0  0  0  0  0
   -4.1700    0.1340   -0.1310 N   0  0  0  0  0  0  0  0  0  0  0  0
   -4.9140    1.3650    0.0260 C   0  0  0  0  0  0  0  0  0  0  0  0
    0.2610    0.6880   -1.4740 C   0  0  0  0  0  0  0  0  0  0  0  0
   -0.3150    0.9080   -2.5760 O   0  0  0  0  0  0  0  0  0  0  0  0
    1.5820    0.4450   -1.3950 N   0  0  0  0  0  0  0  0  0  0  0  0
  1  2  1  0
  2  3  1  0
  3  4  1  1
  3  5  1  0
  5  6  2  0
  5 20  1  0
  6  7  1  0
  7  8  1  0
  7  9  2  0
  9 10  1  0
  9 18  1  0
 10 11  2  3
 11 12  1  0
 11 16  1  0
 12 13  2  0
 12 14  1  0
 14 15  1  0
 15 16  1  0
 16 17  1  0
 18 19  2  0
 18 20  1  0
M  END
