
     RDKit          3D

 20 21  0  0  0  0  0  0  0  0999 V2000
    5.2200   -0.7990    0.7950 C   0  0  0  0  0  0  0  0  0  0  0  0
    4.7940   -1.0480   -0.3950 N   0  0  0  0  0  0  0  0  0  0  0  0
    4.0010   -0.1120   -1.1070 C   0  0  0  0  0  0  0  0  0  0  0  0
    4.5710    0.6170   -2.0370 C   0  0  0  0  0  0  0  0  0  0  0  0
    2.5860    0.0590   -0.8340 C   0  0  0  0  0  0  0  0  0  0  0  0
    1.9090    0.9060   -1.4900 O   0  0  0  0  0  0  0  0  0  0  0  0
    1.8930   -0.6830    0.1490 N   0  0  0  0  0  0  0  0  0  0  0  0
    0.4880   -0.4540    0.3590 C   0  0  0  0  0  0  0  0  0  0  0  0
    0.0330   -0.0540    1.5330 C   0  0  0  0  0  0  0  0  0  0  0  0
   -1.3860    0.1750    1.7370 C   0  0  0  0  0  0  0  0  0  0  0  0
   -2.2190   -0.0200    0.7400 C   0  0  0  0  0  0  0  0  0  0  0  0
   -3.6610    0.2180    0.9690 C   0  0  0  0  0  0  0  0  0  0  0  0
   -4.2790    0.6190    2.0780 N   0  0  0  0  0  0  0  0  0  0  0  0
   -5.5750    0.7030    1.8420 O   0  0  0  0  0  0  0  0  0  0  0  0
   -5.8130    0.3640    0.5990 C   0  0  0  0  0  0  0  0  0  0  0  0
   -6.9300    0.3300    0.0340 O   0  0  0  0  0  0  0  0  0  0  0  0
   -4.6110    0.0580    0.0460 N   0  0  0  0  0  0  0  0  0  0  0  0
   -1.8040   -0.4620   -0.5880 C   0  0  1  0  0  0  0  0  0  0  0  0
   -2.1780    0.5610   -1.4810 O   0  0  0  0  0  0  0  0  0  0  0  0
   -0.3960   -0.6660   -0.7140 N   0  0  0  0  0  0  0  0  0  0  0  0
  1  2  2  0
  2  3  1  0
  3  4  2  0
  3  5  1  0
  5  6  2  0
  5  7  1  0
  7  8  1  0
  8  9  2  0
  8 20  1  0
  9 10  1  0
 10 11  2  0
 11 12  1  0
 11 18  1  0
 12 13  2  0
 12 17  1  0
 13 14  1  0
 14 15  1  0
 15 16  2  0
 15 17  1  0
 18 19  1  6
 18 20  1  0
M  END
