
     RDKit          3D

 20 22  0  0  0  0  0  0  0  0999 V2000
    1.0390   -2.8170    0.3530 C   0  0  0  0  0  0  0  0  0  0  0  0
    1.6060   -1.4470    0.1490 C   0  0  0  0  0  0  0  0  0  0  0  0
    2.9080   -1.1650   -0.0290 N   0  0  0  0  0  0  0  0  0  0  0  0
    3.0060    0.1520   -0.1730 N   0  0  0  0  0  0  0  0  0  0  0  0
    4.2290    0.9230   -0.3920 C   0  0  0  0  0  0  0  0  0  0  0  0
    4.7280    1.2750    0.8590 O   0  0  0  0  0  0  0  0  0  0  0  0
    1.7950    0.7310   -0.0930 C   0  0  0  0  0  0  0  0  0  0  0  0
    1.5520    1.9610   -0.1890 O   0  0  0  0  0  0  0  0  0  0  0  0
    0.8740   -0.2850    0.1160 C   0  0  0  0  0  0  0  0  0  0  0  0
   -0.5130   -0.0780    0.2540 N   0  0  0  0  0  0  0  0  0  0  0  0
   -1.1550   -0.5750    1.3240 C   0  0  0  0  0  0  0  0  0  0  0  0
   -0.5380   -1.2340    2.2250 O   0  0  0  0  0  0  0  0  0  0  0  0
   -2.4770   -0.3500    1.4090 N   0  0  0  0  0  0  0  0  0  0  0  0
   -3.1700    0.3390    0.4830 C   0  0  0  0  0  0  0  0  0  0  0  0
   -4.4840    0.6820    0.3650 N   0  0  0  0  0  0  0  0  0  0  0  0
   -4.6760    1.3870   -0.7630 C   0  0  0  0  0  0  0  0  0  0  0  0
   -3.4420    1.4880   -1.3710 C   0  0  0  0  0  0  0  0  0  0  0  0
   -2.5040    0.8430   -0.6070 C   0  0  0  0  0  0  0  0  0  0  0  0
   -1.1410    0.6200   -0.7090 C   0  0  0  0  0  0  0  0  0  0  0  0
   -0.5610    1.0940   -1.7190 O   0  0  0  0  0  0  0  0  0  0  0  0
  1  2  1  0
  2  3  1  0
  2  9  2  0
  3  4  1  0
  4  5  1  0
  4  7  1  0
  5  6  1  0
  7  8  2  0
  7  9  1  0
  9 10  1  0
 10 11  1  0
 10 19  1  0
 11 12  2  0
 11 13  1  0
 13 14  1  0
 14 15  1  0
 14 18  2  0
 15 16  1  0
 16 17  2  0
 17 18  1  0
 18 19  1  0
 19 20  2  0
M  END
