
     RDKit          3D

 19 20  0  0  0  0  0  0  0  0999 V2000
   -3.6460    0.8720    0.6030 C   0  0  0  0  0  0  0  0  0  0  0  0
   -2.8370   -0.1670    0.3280 O   0  0  0  0  0  0  0  0  0  0  0  0
   -1.5000   -0.0430    0.8970 C   0  0  1  0  0  0  0  0  0  0  0  0
   -1.5430   -1.1310    1.9660 C   0  0  0  0  0  0  0  0  0  0  0  0
   -0.5280   -0.2460   -0.1740 C   0  0  2  0  0  0  0  0  0  0  0  0
   -0.9330    0.8740   -1.1520 C   0  0  0  0  0  0  0  0  0  0  0  0
   -0.5790    2.1900   -0.7040 N   0  0  0  0  0  0  0  0  0  0  0  0
   -1.5020    0.7000   -2.2140 O   0  0  0  0  0  0  0  0  0  0  0  0
   -0.8700   -1.5390   -0.9430 C   0  0  0  0  0  0  0  0  0  0  0  0
   -0.3120   -1.5210   -2.3300 C   0  0  0  0  0  0  0  0  0  0  0  0
    0.7490   -0.5540   -2.4640 N   0  0  0  0  0  0  0  0  0  0  0  0
    1.5240   -0.2540   -1.3090 C   0  0  0  0  0  0  0  0  0  0  0  0
    0.8850   -0.0910   -0.1090 C   0  0  0  0  0  0  0  0  0  0  0  0
    1.6810    0.2070    0.9990 N   0  0  0  0  0  0  0  0  0  0  0  0
    1.1580    0.4160    2.3030 C   0  0  0  0  0  0  0  0  0  0  0  0
    3.0850    0.3180    0.8090 N   0  0  0  0  0  0  0  0  0  0  0  0
    3.6870    0.1650   -0.3110 C   0  0  0  0  0  0  0  0  0  0  0  0
    5.0980    0.2890   -0.4350 N   0  0  0  0  0  0  0  0  0  0  0  0
    2.8960   -0.1290   -1.4070 O   0  0  0  0  0  0  0  0  0  0  0  0
  1  2  1  0
  2  3  1  0
  3  4  1  1
  3  5  1  0
  5  6  1  6
  5  9  1  0
  5 13  1  0
  6  7  1  0
  6  8  2  0
  9 10  1  0
 10 11  1  0
 11 12  1  0
 12 13  2  0
 12 19  1  0
 13 14  1  0
 14 15  1  0
 14 16  1  0
 16 17  2  0
 17 18  1  0
 17 19  1  0
M  END
