
     RDKit          3D

 20 21  0  0  0  0  0  0  0  0999 V2000
    4.6880   -1.3570    0.1860 C   0  0  0  0  0  0  0  0  0  0  0  0
    3.9490   -0.5480    1.2280 C   0  0  1  0  0  0  0  0  0  0  0  0
    4.8870    0.2160    1.9530 O   0  0  0  0  0  0  0  0  0  0  0  0
    2.8980    0.3080    0.6850 C   0  0  2  0  0  0  0  0  0  0  0  0
    1.8230   -0.3150   -0.0180 N   0  0  0  0  0  0  0  0  0  0  0  0
    0.4560   -0.0430    0.1070 C   0  0  0  0  0  0  0  0  0  0  0  0
    0.0390    0.8220    0.8930 O   0  0  0  0  0  0  0  0  0  0  0  0
   -0.5090   -0.7750   -0.7000 N   0  0  0  0  0  0  0  0  0  0  0  0
   -1.8690   -0.3520   -0.5910 C   0  0  1  0  0  0  0  0  0  0  0  0
   -2.7710   -0.6860   -1.7200 C   0  0  0  0  0  0  0  0  0  0  0  0
   -3.8380    0.4230   -1.7190 C   0  0  0  0  0  0  0  0  0  0  0  0
   -4.1950    0.8760   -0.3410 C   0  0  0  0  0  0  0  0  0  0  0  0
   -3.7550    0.0910    0.7700 N   0  0  0  0  0  0  0  0  0  0  0  0
   -4.3180   -0.1160    1.9420 C   0  0  0  0  0  0  0  0  0  0  0  0
   -3.4840   -0.9120    2.6050 N   0  0  0  0  0  0  0  0  0  0  0  0
   -2.4020   -1.2060    1.8510 N   0  0  0  0  0  0  0  0  0  0  0  0
   -2.5830   -0.5670    0.6980 C   0  0  0  0  0  0  0  0  0  0  0  0
    3.2940    1.5170   -0.0890 C   0  0  0  0  0  0  0  0  0  0  0  0
    3.4770    2.6320    0.4160 O   0  0  0  0  0  0  0  0  0  0  0  0
    3.4870    1.4110   -1.5150 O   0  0  0  0  0  0  0  0  0  0  0  0
  2  1  1  6
  2  3  1  0
  2  4  1  0
  4  5  1  6
  4 18  1  0
  5  6  1  0
  6  7  2  0
  6  8  1  0
  9  8  1  1
  9 10  1  0
  9 17  1  0
 10 11  1  0
 11 12  1  0
 12 13  1  0
 13 14  1  0
 13 17  1  0
 14 15  2  0
 15 16  1  0
 16 17  2  0
 18 19  2  0
 18 20  1  0
M  END
