
     RDKit          3D

 20 22  0  0  0  0  0  0  0  0999 V2000
   -5.7260   -1.9180    1.0180 C   0  0  0  0  0  0  0  0  0  0  0  0
   -4.7430   -1.0140    0.3430 C   0  0  0  0  0  0  0  0  0  0  0  0
   -4.6800   -0.0840   -0.3650 N   0  0  0  0  0  0  0  0  0  0  0  0
   -3.6300    0.5070   -0.8370 C   0  0  0  0  0  0  0  0  0  0  0  0
   -3.6670    1.8150   -1.6250 C   0  0  0  0  0  0  0  0  0  0  0  0
   -2.3890   -0.0290   -0.4560 C   0  0  0  0  0  0  0  0  0  0  0  0
   -1.0960    0.2410   -1.0780 C   0  0  0  0  0  0  0  0  0  0  0  0
   -0.1550    0.9980   -0.3800 N   0  0  0  0  0  0  0  0  0  0  0  0
    1.2480    0.7810   -0.3760 C   0  0  0  0  0  0  0  0  0  0  0  0
    1.7920   -0.4310   -0.6960 N   0  0  0  0  0  0  0  0  0  0  0  0
    3.0860   -0.6750   -0.5280 C   0  0  0  0  0  0  0  0  0  0  0  0
    3.8170   -1.9220   -0.7940 C   0  0  1  0  0  0  0  0  0  0  0  0
    4.8300   -2.2610    0.3720 C   0  0  0  0  0  0  0  0  0  0  0  0
    3.6600   -3.1430    0.0340 C   0  0  0  0  0  0  0  0  0  0  0  0
    3.8860    0.3240   -0.0260 N   0  0  0  0  0  0  0  0  0  0  0  0
    3.4360    1.5320    0.3070 C   0  0  0  0  0  0  0  0  0  0  0  0
    4.4620    2.8130    0.9340 Cl  0  0  0  0  0  0  0  0  0  0  0  0
    2.0770    1.8040    0.1390 C   0  0  0  0  0  0  0  0  0  0  0  0
    1.6190    3.1350    0.4040 C   0  0  0  0  0  0  0  0  0  0  0  0
   -2.9110   -1.3400    0.5810 S   0  0  0  0  0  0  0  0  0  0  0  0
  1  2  1  0
  2  3  2  0
  2 20  1  0
  3  4  1  0
  4  5  1  0
  4  6  2  0
  6  7  1  0
  6 20  1  0
  7  8  1  0
  8  9  1  0
  9 10  2  0
  9 18  1  0
 10 11  1  0
 12 11  1  1
 11 15  2  0
 12 13  1  0
 12 14  1  0
 13 14  1  0
 15 16  1  0
 16 17  1  0
 16 18  2  0
 18 19  1  0
M  END
