
     RDKit          3D

 27 30  0  0  0  0  0  0  0  0999 V2000
    7.1840    0.0500    1.1500 C   0  0  0  0  0  0  0  0  0  0  0  0
    6.6500   -0.6870   -0.0630 C   0  0  2  0  0  0  0  0  0  0  0  0
    7.1690   -0.2370   -1.2550 O   0  0  0  0  0  0  0  0  0  0  0  0
    6.1600    0.2060   -2.0790 C   0  0  0  0  0  0  0  0  0  0  0  0
    6.2660    0.6910   -3.2580 O   0  0  0  0  0  0  0  0  0  0  0  0
    4.8840    0.0410   -1.3960 C   0  0  0  0  0  0  0  0  0  0  0  0
    3.5670    0.3280   -1.7810 C   0  0  0  0  0  0  0  0  0  0  0  0
    2.5200    0.0700   -0.9280 C   0  0  0  0  0  0  0  0  0  0  0  0
    1.1540    0.2190   -0.9700 C   0  0  0  0  0  0  0  0  0  0  0  0
    0.6670   -0.2390    0.2320 C   0  0  0  0  0  0  0  0  0  0  0  0
   -0.7560   -0.2760    0.6440 C   0  0  0  0  0  0  0  0  0  0  0  0
   -1.0310   -0.7230    1.7720 O   0  0  0  0  0  0  0  0  0  0  0  0
   -1.7840    0.1730   -0.1920 N   0  0  0  0  0  0  0  0  0  0  0  0
   -3.1740    0.1920    0.0790 C   0  0  0  0  0  0  0  0  0  0  0  0
   -3.7750   -0.2420    1.2220 C   0  0  0  0  0  0  0  0  0  0  0  0
   -5.1550   -0.1740    1.3780 C   0  0  0  0  0  0  0  0  0  0  0  0
   -5.9860    0.3280    0.4060 C   0  0  0  0  0  0  0  0  0  0  0  0
   -7.4280    0.3860    0.6000 C   0  0  0  0  0  0  0  0  0  0  0  0
   -8.0040   -0.0770    1.8050 N   0  0  0  0  0  0  0  0  0  0  0  0
   -8.1740    0.8440   -0.2940 O   0  0  0  0  0  0  0  0  0  0  0  0
   -5.3960    0.7710   -0.7570 C   0  0  0  0  0  0  0  0  0  0  0  0
   -6.2400    1.2740   -1.7310 O   0  0  0  0  0  0  0  0  0  0  0  0
   -4.0340    0.7000   -0.9030 C   0  0  0  0  0  0  0  0  0  0  0  0
    1.6870   -0.6280    0.9260 O   0  0  0  0  0  0  0  0  0  0  0  0
    2.8190   -0.4720    0.2970 C   0  0  0  0  0  0  0  0  0  0  0  0
    4.1220   -0.7600    0.6850 C   0  0  0  0  0  0  0  0  0  0  0  0
    5.1880   -0.5000   -0.1760 C   0  0  0  0  0  0  0  0  0  0  0  0
  2  1  1  1
  2  3  1  0
  2 27  1  0
  3  4  1  0
  4  5  2  0
  4  6  1  0
  6  7  2  0
  6 27  1  0
  7  8  1  0
  8  9  1  0
  8 25  2  0
  9 10  2  0
 10 11  1  0
 10 24  1  0
 11 12  2  0
 11 13  1  0
 13 14  1  0
 14 15  2  0
 14 23  1  0
 15 16  1  0
 16 17  2  0
 17 18  1  0
 17 21  1  0
 18 19  1  0
 18 20  2  0
 21 22  1  0
 21 23  2  0
 24 25  1  0
 25 26  1  0
 26 27  2  0
M  END
