
     RDKit          3D

 12 12  0  0  0  0  0  0  0  0999 V2000
   -1.2160   -0.0010    1.2890 C   0  0  0  0  0  0  0  0  0  0  0  0
   -1.0400    0.4150    0.0540 C   0  0  0  0  0  0  0  0  0  0  0  0
   -2.1850    0.9870   -0.6730 C   0  0  0  0  0  0  0  0  0  0  0  0
   -3.3690    0.9830    0.1630 N   0  0  0  0  0  0  0  0  0  0  0  0
    0.2630    0.3100   -0.5760 C   0  0  0  0  0  0  0  0  0  0  0  0
    0.3760    0.7460   -1.8170 C   0  0  0  0  0  0  0  0  0  0  0  0
    1.3960   -0.2500    0.1290 N   0  0  0  0  0  0  0  0  0  0  0  0
    1.8180   -1.5820   -0.0770 C   0  0  0  0  0  0  0  0  0  0  0  0
    3.2260   -1.7980    0.2710 C   0  0  0  0  0  0  0  0  0  0  0  0
    3.7230   -0.2840    1.1800 S   0  0  0  0  0  0  0  0  0  0  0  0
    2.1240    0.5110    1.0530 C   0  0  0  0  0  0  0  0  0  0  0  0
    1.7000    1.8560    1.8920 S   0  0  0  0  0  0  0  0  0  0  0  0
  1  2  2  0
  2  3  1  0
  2  5  1  0
  3  4  1  0
  5  6  2  0
  5  7  1  0
  7  8  1  0
  7 11  1  0
  8  9  1  0
  9 10  1  0
 10 11  1  0
 11 12  2  0
M  CHG  1   4   1
M  END
