
     RDKit          3D

 27 29  0  0  0  0  0  0  0  0999 V2000
   -5.0020    1.7550   -0.8240 C   0  0  0  0  0  0  0  0  0  0  0  0
   -4.4560    0.4240   -0.3320 C   0  0  1  0  0  0  0  0  0  0  0  0
   -3.3980    0.7410    0.5740 N   0  0  0  0  0  0  0  0  0  0  0  0
   -2.0350    0.3660    0.3830 C   0  0  0  0  0  0  0  0  0  0  0  0
   -1.8130   -0.2750   -0.6510 O   0  0  0  0  0  0  0  0  0  0  0  0
   -1.0880    0.7440    1.3570 N   0  0  0  0  0  0  0  0  0  0  0  0
    0.2760    0.4230    1.2400 C   0  0  0  0  0  0  0  0  0  0  0  0
    1.0610    0.5990    2.3690 C   0  0  0  0  0  0  0  0  0  0  0  0
    2.4010    0.3230    2.3360 C   0  0  0  0  0  0  0  0  0  0  0  0
    2.9960   -0.1380    1.1730 C   0  0  0  0  0  0  0  0  0  0  0  0
    2.2620   -0.3290    0.0260 C   0  0  0  0  0  0  0  0  0  0  0  0
    2.8190   -0.7880   -1.1580 O   0  0  0  0  0  0  0  0  0  0  0  0
    4.1680   -1.0240   -1.2490 C   0  0  0  0  0  0  0  0  0  0  0  0
    4.6040   -2.3000   -1.5390 C   0  0  0  0  0  0  0  0  0  0  0  0
    5.9680   -2.5090   -1.6250 C   0  0  0  0  0  0  0  0  0  0  0  0
    6.8430   -1.4760   -1.4280 C   0  0  0  0  0  0  0  0  0  0  0  0
    8.2020   -1.7070   -1.5190 O   0  0  0  0  0  0  0  0  0  0  0  0
    6.3920   -0.2020   -1.1390 C   0  0  0  0  0  0  0  0  0  0  0  0
    5.0410    0.0190   -1.0500 C   0  0  0  0  0  0  0  0  0  0  0  0
    4.8650    1.3800   -0.7520 O   0  0  0  0  0  0  0  0  0  0  0  0
    6.1150    1.9320   -0.4370 C   0  0  0  0  0  0  0  0  0  0  0  0
    7.0580    0.9720   -0.9050 O   0  0  0  0  0  0  0  0  0  0  0  0
    0.8920   -0.0340    0.1030 C   0  0  0  0  0  0  0  0  0  0  0  0
   -5.6040   -0.3280    0.2590 C   0  0  2  0  0  0  0  0  0  0  0  0
   -6.5740   -0.6470   -0.8640 C   0  0  0  0  0  0  0  0  0  0  0  0
   -6.3400    0.5340    1.2590 C   0  0  0  0  0  0  0  0  0  0  0  0
   -5.2380   -1.5570    0.8000 O   0  0  0  0  0  0  0  0  0  0  0  0
  2  1  1  1
  2  3  1  0
  2 24  1  0
  3  4  1  0
  4  5  2  0
  4  6  1  0
  6  7  1  0
  7  8  2  0
  7 23  1  0
  8  9  1  0
  9 10  2  0
 10 11  1  0
 11 12  1  0
 11 23  2  0
 12 13  1  0
 13 14  2  0
 13 19  1  0
 14 15  1  0
 15 16  2  0
 16 17  1  0
 16 18  1  0
 18 19  2  0
 18 22  1  0
 19 20  1  0
 20 21  1  0
 21 22  1  0
 24 25  1  6
 24 26  1  0
 24 27  1  0
M  END
