
     RDKit          3D

 12 13  0  0  0  0  0  0  0  0999 V2000
    4.0260   -0.0550   -0.8850 C   0  0  0  0  0  0  0  0  0  0  0  0
    2.7440    0.1720   -0.2000 C   0  0  0  0  0  0  0  0  0  0  0  0
    1.5890    0.0440   -0.2600 N   0  0  0  0  0  0  0  0  0  0  0  0
    0.6230    0.3650    0.5600 C   0  0  0  0  0  0  0  0  0  0  0  0
   -0.8510    0.1200    0.3160 C   0  0  0  0  0  0  0  0  0  0  0  0
   -1.7360    0.4750    1.1930 C   0  0  0  0  0  0  0  0  0  0  0  0
   -3.4530    0.1980    0.9260 S   0  0  0  0  0  0  0  0  0  0  0  0
   -3.6990   -0.5720   -0.6030 N   0  0  0  0  0  0  0  0  0  0  0  0
   -2.4910   -0.7990   -1.2770 C   0  0  0  0  0  0  0  0  0  0  0  0
   -1.2970   -0.5150   -0.9020 C   0  0  0  0  0  0  0  0  0  0  0  0
    1.0650    0.9810    1.7410 C   0  0  0  0  0  0  0  0  0  0  0  0
    2.8680    1.0160    1.5000 S   0  0  0  0  0  0  0  0  0  0  0  0
  1  2  1  0
  2  3  2  0
  2 12  1  0
  3  4  1  0
  4  5  1  0
  4 11  2  0
  5  6  2  0
  5 10  1  0
  6  7  1  0
  7  8  1  0
  8  9  1  0
  9 10  2  0
 11 12  1  0
M  CHG  1   8   1
M  END
