
     RDKit          3D

 27 29  0  0  0  0  0  0  0  0999 V2000
   -2.0030   -1.6910   -5.1860 O   0  0  0  0  0  0  0  0  0  0  0  0
   -2.6170   -1.2160   -4.2020 C   0  0  0  0  0  0  0  0  0  0  0  0
   -1.9460   -0.8340   -2.9670 C   0  0  0  0  0  0  0  0  0  0  0  0
   -0.5910   -0.9680   -2.7970 C   0  0  0  0  0  0  0  0  0  0  0  0
    0.0880   -0.6100   -1.6200 C   0  0  0  0  0  0  0  0  0  0  0  0
    1.4840   -0.7970   -1.5830 N   0  0  0  0  0  0  0  0  0  0  0  0
    2.3150   -0.5780   -0.4620 C   0  0  0  0  0  0  0  0  0  0  0  0
    1.8130   -0.1940    0.5890 O   0  0  0  0  0  0  0  0  0  0  0  0
    3.7120   -0.7870   -0.5040 N   0  0  0  0  0  0  0  0  0  0  0  0
    4.6440   -0.6080    0.5340 C   0  0  0  0  0  0  0  0  0  0  0  0
    4.3080   -0.1860    1.7950 C   0  0  0  0  0  0  0  0  0  0  0  0
    5.3440   -0.0530    2.7290 C   0  0  0  0  0  0  0  0  0  0  0  0
    6.6480   -0.3310    2.4040 C   0  0  0  0  0  0  0  0  0  0  0  0
    6.9220   -0.7300    1.1890 O   0  0  0  0  0  0  0  0  0  0  0  0
    6.0110   -0.8710    0.2870 C   0  0  0  0  0  0  0  0  0  0  0  0
    6.3440   -1.2650   -0.8830 O   0  0  0  0  0  0  0  0  0  0  0  0
   -0.7070   -0.1070   -0.6330 C   0  0  0  0  0  0  0  0  0  0  0  0
   -2.1020    0.0430   -0.7790 C   0  0  0  0  0  0  0  0  0  0  0  0
   -2.8730    0.6190    0.3240 C   0  0  0  0  0  0  0  0  0  0  0  0
   -3.7070    1.6940    0.1420 C   0  0  0  0  0  0  0  0  0  0  0  0
   -4.4470    2.2210    1.2090 C   0  0  0  0  0  0  0  0  0  0  0  0
   -4.3600    1.6780    2.4710 C   0  0  0  0  0  0  0  0  0  0  0  0
   -5.0850    2.1800    3.5580 O   0  0  0  0  0  0  0  0  0  0  0  0
   -3.5220    0.6000    2.6490 C   0  0  0  0  0  0  0  0  0  0  0  0
   -2.7940    0.0800    1.6010 C   0  0  0  0  0  0  0  0  0  0  0  0
   -2.7330   -0.3180   -1.9420 C   0  0  0  0  0  0  0  0  0  0  0  0
   -4.0850   -0.1900   -2.1180 O   0  0  0  0  0  0  0  0  0  0  0  0
  1  2  2  0
  2  3  1  0
  3  4  2  0
  3 26  1  0
  4  5  1  0
  5  6  1  0
  5 17  2  0
  6  7  1  0
  7  8  2  0
  7  9  1  0
  9 10  1  0
 10 11  2  0
 10 15  1  0
 11 12  1  0
 12 13  2  0
 13 14  1  0
 14 15  1  0
 15 16  2  0
 17 18  1  0
 18 19  1  0
 18 26  2  0
 19 20  2  0
 19 25  1  0
 20 21  1  0
 21 22  2  0
 22 23  1  0
 22 24  1  0
 24 25  2  0
 26 27  1  0
M  END
