
     RDKit          3D

 12 14  0  0  0  0  0  0  0  0999 V2000
    4.0320   -1.5350    0.2210 S   0  0  0  0  0  0  0  0  0  0  0  0
    2.4610   -1.0760    0.1360 C   0  0  0  0  0  0  0  0  0  0  0  0
    2.1040    0.2150    0.1100 N   0  0  0  0  0  0  0  0  0  0  0  0
    0.8400    0.6830    0.0410 C   0  0  0  0  0  0  0  0  0  0  0  0
    0.2680    1.9530    0.0030 C   0  0  0  0  0  0  0  0  0  0  0  0
   -1.0970    1.8440   -0.0680 N   0  0  0  0  0  0  0  0  0  0  0  0
   -1.4330    0.5180   -0.0780 C   0  0  0  0  0  0  0  0  0  0  0  0
   -2.4020   -0.4780   -0.1240 C   0  0  0  0  0  0  0  0  0  0  0  0
   -1.7070   -1.7000   -0.0810 C   0  0  0  0  0  0  0  0  0  0  0  0
   -0.3420   -1.4660   -0.0100 C   0  0  0  0  0  0  0  0  0  0  0  0
    1.1770   -2.2410    0.0740 S   0  0  0  0  0  0  0  0  0  0  0  0
   -0.2340   -0.1280   -0.0120 C   0  0  0  0  0  0  0  0  0  0  0  0
  1  2  2  0
  2  3  1  0
  2 11  1  0
  3  4  1  0
  4  5  2  0
  4 12  1  0
  5  6  1  0
  6  7  2  0
  7  8  1  0
  7 12  1  0
  8  9  2  0
  9 10  1  0
 10 11  1  0
 10 12  2  0
M  CHG  1   6   1
M  END
