
     RDKit          3D

 27 29  0  0  0  0  0  0  0  0999 V2000
    8.1190   -0.4290   -0.1850 C   0  0  0  0  0  0  0  0  0  0  0  0
    6.9120   -0.7270   -1.0460 C   0  0  0  0  0  0  0  0  0  0  0  0
    5.7290   -0.3540   -0.3540 O   0  0  0  0  0  0  0  0  0  0  0  0
    4.4980   -0.5510   -0.9810 C   0  0  0  0  0  0  0  0  0  0  0  0
    4.4780   -1.0440   -2.1220 O   0  0  0  0  0  0  0  0  0  0  0  0
    3.2700   -0.1910   -0.3240 C   0  0  0  0  0  0  0  0  0  0  0  0
    2.0700   -0.4020   -0.9700 C   0  0  0  0  0  0  0  0  0  0  0  0
    0.9090   -0.0580   -0.3300 C   0  0  0  0  0  0  0  0  0  0  0  0
   -0.4200   -0.1380   -0.6880 C   0  0  0  0  0  0  0  0  0  0  0  0
   -1.1540    0.3640    0.3700 C   0  0  0  0  0  0  0  0  0  0  0  0
   -0.3240    0.7380    1.3430 N   0  0  0  0  0  0  0  0  0  0  0  0
    0.9560    0.4880    0.9340 C   0  0  0  0  0  0  0  0  0  0  0  0
    2.1400    0.7060    1.5930 C   0  0  0  0  0  0  0  0  0  0  0  0
    3.3130    0.3630    0.9590 C   0  0  0  0  0  0  0  0  0  0  0  0
    4.5390    0.5580    1.5710 O   0  0  0  0  0  0  0  0  0  0  0  0
   -2.6660    0.4550    0.4040 C   0  0  2  0  0  0  0  0  0  0  0  0
   -3.0600    1.5710    1.3330 C   0  0  0  0  0  0  0  0  0  0  0  0
   -3.1990   -0.8520    0.9200 C   0  0  0  0  0  0  0  0  0  0  0  0
   -4.6320   -1.0050    1.0420 C   0  0  0  0  0  0  0  0  0  0  0  0
   -5.0580   -2.0670    1.5510 O   0  0  0  0  0  0  0  0  0  0  0  0
   -5.6740   -0.0560    0.6360 C   0  0  0  0  0  0  0  0  0  0  0  0
   -7.0150   -0.5390    0.9400 N   0  0  0  0  0  0  0  0  0  0  0  0
   -3.0830    0.7570   -1.0250 C   0  0  0  0  0  0  0  0  0  0  0  0
   -3.2520   -0.4410   -1.6800 O   0  0  0  0  0  0  0  0  0  0  0  0
   -2.2490   -0.7050   -2.5940 C   0  0  0  0  0  0  0  0  0  0  0  0
   -0.8800   -0.6810   -1.9690 C   0  0  0  0  0  0  0  0  0  0  0  0
   -0.0050   -1.2300   -2.6990 O   0  0  0  0  0  0  0  0  0  0  0  0
  1  2  1  0
  2  3  1  0
  3  4  1  0
  4  5  2  0
  4  6  1  0
  6  7  2  0
  6 14  1  0
  7  8  1  0
  8  9  1  0
  8 12  2  0
  9 10  2  0
  9 26  1  0
 10 11  1  0
 10 16  1  0
 11 12  1  0
 12 13  1  0
 13 14  2  0
 14 15  1  0
 16 17  1  1
 16 18  1  0
 16 23  1  0
 18 19  1  0
 19 20  2  0
 19 21  1  0
 21 22  1  0
 23 24  1  0
 24 25  1  0
 25 26  1  0
 26 27  2  0
M  END
