
     RDKit          3D

 31 32  0  0  0  0  0  0  0  0999 V2000
    8.1080    2.2700   -0.5100 C   0  0  0  0  0  0  0  0  0  0  0  0
    7.3940    0.9850   -0.1100 C   0  0  1  0  0  0  0  0  0  0  0  0
    6.3880    0.6580   -1.1710 C   0  0  0  0  0  0  0  0  0  0  0  0
    5.9030   -0.7790   -1.0220 C   0  0  2  0  0  0  0  0  0  0  0  0
    6.4080   -1.5620   -2.1510 N   0  0  0  0  0  0  0  0  0  0  0  0
    4.3960   -0.7330   -1.1260 C   0  0  0  0  0  0  0  0  0  0  0  0
    3.8280    0.1010   -0.0870 N   0  0  0  0  0  0  0  0  0  0  0  0
    2.4310    0.3070    0.0370 C   0  0  0  0  0  0  0  0  0  0  0  0
    1.6970   -0.2830   -0.8170 O   0  0  0  0  0  0  0  0  0  0  0  0
    1.8570    1.1200    1.0470 N   0  0  0  0  0  0  0  0  0  0  0  0
    0.4300    1.3140    1.1560 C   0  0  0  0  0  0  0  0  0  0  0  0
   -0.2740   -0.0150    1.3860 C   0  0  2  0  0  0  0  0  0  0  0  0
   -1.7100    0.1730    1.4970 N   0  0  0  0  0  0  0  0  0  0  0  0
   -2.4240   -0.4470    0.3850 C   0  0  0  0  0  0  0  0  0  0  0  0
   -3.8850   -0.3250    0.6680 C   0  0  0  0  0  0  0  0  0  0  0  0
   -4.7420   -0.9350   -0.4210 C   0  0  0  0  0  0  0  0  0  0  0  0
   -6.1460   -0.8090   -0.1340 N   0  0  0  0  0  0  0  0  0  0  0  0
   -6.9590   -1.7330    0.5800 C   0  0  0  0  0  0  0  0  0  0  0  0
   -6.5860   -2.9150    0.8740 O   0  0  0  0  0  0  0  0  0  0  0  0
   -8.1860   -1.1400    0.8880 O   0  0  0  0  0  0  0  0  0  0  0  0
   -7.9830    0.2490    0.7390 C   0  0  2  0  0  0  0  0  0  0  0  0
   -9.2350    1.0280    0.5400 C   0  0  0  0  0  0  0  0  0  0  0  0
   -7.0710    0.2760   -0.4950 C   0  0  2  0  0  0  0  0  0  0  0  0
   -7.8110   -0.1750   -1.7220 C   0  0  0  0  0  0  0  0  0  0  0  0
   -6.3690    1.5840   -0.6520 C   0  0  0  0  0  0  0  0  0  0  0  0
    0.1870   -0.5740    2.6810 C   0  0  0  0  0  0  0  0  0  0  0  0
    1.5700   -0.8520    2.8360 N   0  0  0  0  0  0  0  0  0  0  0  0
   -0.5770   -0.8130    3.6410 O   0  0  0  0  0  0  0  0  0  0  0  0
    6.3010   -1.3840    0.2840 C   0  0  0  0  0  0  0  0  0  0  0  0
    7.7440   -1.1270    0.6540 C   0  0  0  0  0  0  0  0  0  0  0  0
    8.3040   -0.0800   -0.0630 O   0  0  0  0  0  0  0  0  0  0  0  0
  2  1  1  6
  2  3  1  0
  2 31  1  0
  3  4  1  0
  4  5  1  6
  4  6  1  0
  4 29  1  0
  6  7  1  0
  7  8  1  0
  8  9  2  0
  8 10  1  0
 10 11  1  0
 12 11  1  1
 12 13  1  0
 12 26  1  0
 13 14  1  0
 14 15  1  0
 15 16  1  0
 16 17  1  0
 17 18  1  0
 17 23  1  0
 18 19  2  0
 18 20  1  0
 20 21  1  0
 21 22  1  6
 21 23  1  0
 23 24  1  6
 23 25  1  0
 26 27  1  0
 26 28  2  0
 29 30  1  0
 30 31  1  0
M  CHG  2   5   1  13   1
M  END
