
     RDKit          3D

 31 32  0  0  0  0  0  0  0  0999 V2000
   -3.2180    2.2090   -0.5810 C   0  0  0  0  0  0  0  0  0  0  0  0
   -4.1560    1.4230    0.3020 C   0  0  0  0  0  0  0  0  0  0  0  0
   -4.3960    0.0300   -0.2580 C   0  0  2  0  0  0  0  0  0  0  0  0
   -5.2970   -0.6730    0.6290 N   0  0  0  0  0  0  0  0  0  0  0  0
   -6.6180   -0.1350    0.5040 C   0  0  2  0  0  0  0  0  0  0  0  0
   -7.5300   -0.9990    1.3660 C   0  0  0  0  0  0  0  0  0  0  0  0
   -8.8130   -0.3320    1.7180 C   0  0  0  0  0  0  0  0  0  0  0  0
   -9.0020    1.0410    1.1710 C   0  0  0  0  0  0  0  0  0  0  0  0
   -8.9510    1.1540   -0.3200 C   0  0  0  0  0  0  0  0  0  0  0  0
   -8.5720   -0.1040   -1.0370 C   0  0  0  0  0  0  0  0  0  0  0  0
   -7.0390   -0.2020   -0.9480 C   0  0  0  0  0  0  0  0  0  0  0  0
   -3.0750   -0.7070   -0.2810 C   0  0  0  0  0  0  0  0  0  0  0  0
   -2.8500   -1.5940    0.6130 O   0  0  0  0  0  0  0  0  0  0  0  0
   -2.0550   -0.4960   -1.2170 N   0  0  0  0  0  0  0  0  0  0  0  0
   -0.8640   -1.2280   -1.1190 N   0  0  0  0  0  0  0  0  0  0  0  0
    0.3560   -0.5880   -0.8120 C   0  0  0  0  0  0  0  0  0  0  0  0
    0.3570    0.6510   -0.6540 O   0  0  0  0  0  0  0  0  0  0  0  0
    1.6140   -1.2550   -0.6590 N   0  0  0  0  0  0  0  0  0  0  0  0
    2.8100   -0.5000   -0.3350 C   0  0  0  0  0  0  0  0  0  0  0  0
    3.9700   -1.4060   -0.1880 C   0  0  0  0  0  0  0  0  0  0  0  0
    3.7910   -2.6290   -0.3590 O   0  0  0  0  0  0  0  0  0  0  0  0
    5.2620   -0.8960    0.1450 N   0  0  0  0  0  0  0  0  0  0  0  0
    6.4380   -1.6830    0.3200 C   0  0  2  0  0  0  0  0  0  0  0  0
    6.9740   -1.6490    1.7320 C   0  0  0  0  0  0  0  0  0  0  0  0
    8.1670   -0.7760    1.9240 C   0  0  0  0  0  0  0  0  0  0  0  0
    7.9420    0.5290    1.1900 C   0  0  0  0  0  0  0  0  0  0  0  0
    7.9380    0.2070   -0.2800 C   0  0  1  0  0  0  0  0  0  0  0  0
    9.3120    0.4570   -0.7470 N   0  0  0  0  0  0  0  0  0  0  0  0
    9.3860    1.4450   -1.6400 O   0  0  0  0  0  0  0  0  0  0  0  0
    9.0840    2.6850   -1.1020 C   0  0  0  0  0  0  0  0  0  0  0  0
    7.5300   -1.2090   -0.5970 C   0  0  0  0  0  0  0  0  0  0  0  0
  1  2  1  0
  3  2  1  1
  3  4  1  0
  3 12  1  0
  5  4  1  6
  5  6  1  0
  5 11  1  0
  6  7  1  0
  7  8  1  0
  8  9  1  0
  9 10  1  0
 10 11  1  0
 12 13  2  0
 12 14  1  0
 14 15  1  0
 15 16  1  0
 16 17  2  0
 16 18  1  0
 18 19  1  0
 19 20  1  0
 20 21  2  0
 20 22  1  0
 23 22  1  1
 23 24  1  0
 23 31  1  0
 24 25  1  0
 25 26  1  0
 26 27  1  0
 27 28  1  1
 27 31  1  0
 28 29  1  0
 29 30  1  0
M  CHG  2   4   1  28   1
M  END
