
     RDKit          3D

 31 32  0  0  0  0  0  0  0  0999 V2000
   10.0330    0.9900    1.9830 N   0  0  0  0  0  0  0  0  0  0  0  0
    9.4030    0.0980    1.0640 C   0  0  0  0  0  0  0  0  0  0  0  0
    9.9930   -0.9370    0.6950 O   0  0  0  0  0  0  0  0  0  0  0  0
    8.1030    0.4130    0.5850 N   0  0  0  0  0  0  0  0  0  0  0  0
    7.4860   -0.4750   -0.3230 C   0  0  0  0  0  0  0  0  0  0  0  0
    7.9880   -1.5300   -0.7530 O   0  0  0  0  0  0  0  0  0  0  0  0
    6.0980   -0.1100   -0.8100 C   0  0  0  0  0  0  0  0  0  0  0  0
    5.6590   -1.1790   -1.7170 C   0  0  0  0  0  0  0  0  0  0  0  0
    4.3550   -1.0070   -2.3820 C   0  0  0  0  0  0  0  0  0  0  0  0
    3.2320   -0.8430   -1.5520 N   0  0  0  0  0  0  0  0  0  0  0  0
    2.8690    0.2630   -0.7410 C   0  0  0  0  0  0  0  0  0  0  0  0
    3.5850    1.2880   -0.7350 O   0  0  0  0  0  0  0  0  0  0  0  0
    1.6960    0.1670    0.0440 N   0  0  0  0  0  0  0  0  0  0  0  0
    1.3130    1.2730    0.8660 C   0  0  0  0  0  0  0  0  0  0  0  0
   -0.1810    1.5340    0.9110 C   0  0  0  0  0  0  0  0  0  0  0  0
   -0.9930    0.2750    1.1090 C   0  0  1  0  0  0  0  0  0  0  0  0
   -2.2670    0.2480    0.2830 C   0  0  2  0  0  0  0  0  0  0  0  0
   -1.8610    0.3320   -1.1160 N   0  0  0  0  0  0  0  0  0  0  0  0
   -3.0190    1.4520    0.6480 C   0  0  0  0  0  0  0  0  0  0  0  0
   -3.0420    2.6080    0.0150 C   0  0  0  0  0  0  0  0  0  0  0  0
   -3.8590    3.7600    0.5030 C   0  0  0  0  0  0  0  0  0  0  0  0
   -4.5600    3.4720    1.6540 O   0  0  0  0  0  0  0  0  0  0  0  0
   -2.9450   -1.0450    0.5250 C   0  0  0  0  0  0  0  0  0  0  0  0
   -4.1770   -1.3800   -0.0560 N   0  0  1  0  0  0  0  0  0  0  0  0
   -5.1370   -1.6960    0.9880 C   0  0  0  0  0  0  0  0  0  0  0  0
   -6.4400   -2.2160    0.4580 C   0  0  0  0  0  0  0  0  0  0  0  0
   -7.0380   -1.0750   -0.3600 C   0  0  0  0  0  0  0  0  0  0  0  0
   -6.1080   -0.9170   -1.5210 C   0  0  0  0  0  0  0  0  0  0  0  0
   -4.6860   -0.6080   -1.1280 C   0  0  0  0  0  0  0  0  0  0  0  0
   -0.1710   -0.9450    1.1440 C   0  0  0  0  0  0  0  0  0  0  0  0
    0.8760   -1.0210    0.0470 C   0  0  0  0  0  0  0  0  0  0  0  0
  1  2  1  0
  2  3  2  0
  2  4  1  0
  4  5  1  0
  5  6  2  0
  5  7  1  0
  7  8  1  0
  8  9  1  0
  9 10  1  0
 10 11  1  0
 11 12  2  0
 11 13  1  0
 13 14  1  0
 13 31  1  0
 14 15  1  0
 16 15  1  6
 16 17  1  0
 16 30  1  0
 17 18  1  6
 17 19  1  0
 17 23  1  0
 19 20  2  3
 20 21  1  0
 21 22  1  0
 24 23  1  1
 24 25  1  0
 24 29  1  0
 25 26  1  0
 26 27  1  0
 27 28  1  0
 28 29  1  0
 30 31  1  0
M  CHG  2  18   1  24   1
M  END
