
     RDKit          3D

 29 31  0  0  0  0  0  0  0  0999 V2000
   -3.2060    3.0480   -0.6050 C   0  0  0  0  0  0  0  0  0  0  0  0
   -3.9210    2.0020   -0.2980 C   0  0  0  0  0  0  0  0  0  0  0  0
   -5.2170    1.9730    0.4090 C   0  0  0  0  0  0  0  0  0  0  0  0
   -5.8530    0.7060   -0.0640 C   0  0  0  0  0  0  0  0  0  0  0  0
   -7.0170    0.2710    0.2790 N   0  0  0  0  0  0  0  0  0  0  0  0
   -4.9190    0.0570   -0.9790 C   0  0  0  0  0  0  0  0  0  0  0  0
   -5.2310   -0.8000   -1.9100 C   0  0  0  0  0  0  0  0  0  0  0  0
   -3.5700    0.5970   -0.6030 C   0  0  1  0  0  0  0  0  0  0  0  0
   -2.6480    0.4960   -1.7160 N   0  0  0  0  0  0  0  0  0  0  0  0
   -1.2800    0.2500   -1.3760 C   0  0  0  0  0  0  0  0  0  0  0  0
   -0.3970    0.4120   -2.2490 O   0  0  0  0  0  0  0  0  0  0  0  0
   -0.8920   -0.1770   -0.0520 C   0  0  0  0  0  0  0  0  0  0  0  0
   -1.7890   -0.3540    0.9060 C   0  0  0  0  0  0  0  0  0  0  0  0
   -1.4510   -0.7680    2.2380 N   0  0  0  0  0  0  0  0  0  0  0  0
   -0.0780   -0.9920    2.5310 C   0  0  0  0  0  0  0  0  0  0  0  0
    0.2980   -1.7720    3.4200 O   0  0  0  0  0  0  0  0  0  0  0  0
    0.8840   -0.1950    1.6650 C   0  0  0  0  0  0  0  0  0  0  0  0
    0.4830   -0.4760    0.2630 N   0  0  0  0  0  0  0  0  0  0  0  0
    1.3630   -0.9920   -0.6850 C   0  0  0  0  0  0  0  0  0  0  0  0
    1.0790   -1.3120   -1.8280 O   0  0  0  0  0  0  0  0  0  0  0  0
    2.8130   -1.1680   -0.2460 C   0  0  0  0  0  0  0  0  0  0  0  0
    3.5590   -1.6980   -1.3990 C   0  0  0  0  0  0  0  0  0  0  0  0
    4.8470   -1.9890   -1.3840 O   0  0  0  0  0  0  0  0  0  0  0  0
    5.8520   -1.1590   -1.1200 C   0  0  0  0  0  0  0  0  0  0  0  0
    5.9090   -0.7190    0.2790 C   0  0  0  0  0  0  0  0  0  0  0  0
    5.2300   -1.1100    1.2420 O   0  0  0  0  0  0  0  0  0  0  0  0
    6.8760    0.3080    0.6140 N   0  0  0  0  0  0  0  0  0  0  0  0
    7.0110    0.8110    1.9670 C   0  0  0  0  0  0  0  0  0  0  0  0
   -3.1440   -0.1170    0.5720 N   0  0  0  0  0  0  0  0  0  0  0  0
  1  2  2  0
  2  3  1  0
  2  8  1  0
  3  4  1  0
  4  5  2  0
  4  6  1  0
  6  7  2  0
  6  8  1  0
  8  9  1  6
  8 29  1  0
  9 10  1  0
 10 11  2  0
 10 12  1  0
 12 13  2  0
 12 18  1  0
 13 14  1  0
 13 29  1  0
 14 15  1  0
 15 16  2  0
 15 17  1  0
 17 18  1  0
 18 19  1  0
 19 20  2  0
 19 21  1  0
 21 22  1  0
 22 23  1  0
 23 24  1  0
 24 25  1  0
 25 26  2  0
 25 27  1  0
 27 28  1  0
M  CHG  1   5   1
M  END
