
     RDKit          3D

 31 32  0  0  0  0  0  0  0  0999 V2000
   -3.6380   -1.9080   -1.2860 C   0  0  0  0  0  0  0  0  0  0  0  0
   -3.5840   -1.5200   -0.0190 C   0  0  0  0  0  0  0  0  0  0  0  0
   -3.0490   -2.3930    0.9720 N   0  0  0  0  0  0  0  0  0  0  0  0
   -2.7910   -1.9340    2.3130 C   0  0  0  0  0  0  0  0  0  0  0  0
   -3.4990   -0.6690    2.6810 C   0  0  0  0  0  0  0  0  0  0  0  0
   -3.4300    0.3990    1.5780 C   0  0  1  0  0  0  0  0  0  0  0  0
   -2.0540    0.7400    1.4110 N   0  0  0  0  0  0  0  0  0  0  0  0
   -1.6330    1.1300    0.1140 C   0  0  2  0  0  0  0  0  0  0  0  0
   -0.2410    0.7090   -0.2740 C   0  0  0  0  0  0  0  0  0  0  0  0
   -0.0240   -0.7700   -0.2760 C   0  0  0  0  0  0  0  0  0  0  0  0
    1.3840   -1.0250   -0.6750 C   0  0  0  0  0  0  0  0  0  0  0  0
    2.1370   -0.0820   -0.9230 O   0  0  0  0  0  0  0  0  0  0  0  0
    1.9300   -2.3490   -0.7900 N   0  0  0  0  0  0  0  0  0  0  0  0
    3.2730   -2.6170   -1.1690 C   0  0  0  0  0  0  0  0  0  0  0  0
    4.3230   -2.0440   -0.2650 C   0  0  0  0  0  0  0  0  0  0  0  0
    5.6660   -2.4400   -0.8480 C   0  0  0  0  0  0  0  0  0  0  0  0
    6.8120   -1.9200   -0.0090 C   0  0  2  0  0  0  0  0  0  0  0  0
    6.7550   -0.4740    0.0610 N   0  0  0  0  0  0  0  0  0  0  0  0
    7.9750    0.0600   -0.4320 C   0  0  0  0  0  0  0  0  0  0  0  0
    8.3020    1.2910   -0.4550 O   0  0  0  0  0  0  0  0  0  0  0  0
    8.8110   -0.9780   -0.9130 N   0  0  0  0  0  0  0  0  0  0  0  0
    8.0930   -2.1810   -0.7110 C   0  0  0  0  0  0  0  0  0  0  0  0
    8.4900   -3.3110   -1.0790 O   0  0  0  0  0  0  0  0  0  0  0  0
   -1.8450    2.5370   -0.2430 C   0  0  0  0  0  0  0  0  0  0  0  0
   -1.4820    2.9700   -1.3920 O   0  0  0  0  0  0  0  0  0  0  0  0
   -2.4330    3.4860    0.5990 N   0  0  0  0  0  0  0  0  0  0  0  0
   -2.6320    4.8720    0.2220 C   0  0  0  0  0  0  0  0  0  0  0  0
   -3.5010    5.0350   -0.9820 C   0  0  0  0  0  0  0  0  0  0  0  0
   -4.0670   -0.2050    0.3880 C   0  0  0  0  0  0  0  0  0  0  0  0
   -5.0350    0.3570   -0.3210 C   0  0  0  0  0  0  0  0  0  0  0  0
   -5.6390    1.6780   -0.0480 C   0  0  0  0  0  0  0  0  0  0  0  0
  1  2  2  0
  2  3  1  0
  2 29  1  0
  3  4  1  0
  4  5  1  0
  5  6  1  0
  6  7  1  6
  6 29  1  0
  7  8  1  0
  8  9  1  1
  8 24  1  0
  9 10  1  0
 10 11  1  0
 11 12  2  0
 11 13  1  0
 13 14  1  0
 14 15  1  0
 15 16  1  0
 17 16  1  6
 17 18  1  0
 17 22  1  0
 18 19  1  0
 19 20  2  0
 19 21  1  0
 21 22  1  0
 22 23  2  0
 24 25  2  0
 24 26  1  0
 26 27  1  0
 27 28  1  0
 29 30  2  3
 30 31  1  0
M  CHG  1   7   1
M  END
