
     RDKit          3D

 31 32  0  0  0  0  0  0  0  0999 V2000
    3.9210   -3.0100    0.5190 C   0  0  0  0  0  0  0  0  0  0  0  0
    3.3560   -1.8980    1.3960 C   0  0  0  0  0  0  0  0  0  0  0  0
    3.6090   -0.5740    0.7680 N   0  0  1  0  0  0  0  0  0  0  0  0
    4.9600   -0.5250    0.4270 C   0  0  0  0  0  0  0  0  0  0  0  0
    5.3310    0.0610   -0.9140 C   0  0  0  0  0  0  0  0  0  0  0  0
    4.3730    1.1630   -1.1420 C   0  0  0  0  0  0  0  0  0  0  0  0
    4.6170    2.4260   -1.2610 C   0  0  0  0  0  0  0  0  0  0  0  0
    5.8740    3.1170   -1.2110 C   0  0  0  0  0  0  0  0  0  0  0  0
    7.1450    2.5460   -1.0270 N   0  0  0  0  0  0  0  0  0  0  0  0
    5.8900    4.3950   -1.3450 O   0  0  0  0  0  0  0  0  0  0  0  0
    2.9500    0.6920   -1.2610 C   0  0  0  0  0  0  0  0  0  0  0  0
    2.6150   -0.4210   -0.2920 C   0  0  2  0  0  0  0  0  0  0  0  0
    1.3830   -0.0520    0.3690 C   0  0  0  0  0  0  0  0  0  0  0  0
    1.1350    0.6630    1.2730 O   0  0  0  0  0  0  0  0  0  0  0  0
   -0.0510   -0.8010   -0.2700 N   0  0  0  0  0  0  0  0  0  0  0  0
   -0.9410   -0.2220    0.5300 C   0  0  0  0  0  0  0  0  0  0  0  0
   -0.9370    0.6530    1.3560 O   0  0  0  0  0  0  0  0  0  0  0  0
   -2.2720   -0.8550    0.3110 N   0  0  0  0  0  0  0  0  0  0  0  0
   -3.5230   -0.4980    0.6980 C   0  0  0  0  0  0  0  0  0  0  0  0
   -4.5800   -1.3360    0.4820 C   0  0  0  0  0  0  0  0  0  0  0  0
   -4.5240   -2.6600   -0.1560 C   0  0  0  0  0  0  0  0  0  0  0  0
   -5.3640   -2.7680   -1.3390 N   0  0  0  0  0  0  0  0  0  0  0  0
   -6.6100   -3.4290   -1.0630 C   0  0  0  0  0  0  0  0  0  0  0  0
   -5.7950   -0.7510    0.9500 C   0  0  0  0  0  0  0  0  0  0  0  0
   -6.9670   -1.2420    0.9260 O   0  0  0  0  0  0  0  0  0  0  0  0
   -5.4550    0.5100    1.4640 N   0  0  0  0  0  0  0  0  0  0  0  0
   -3.9860    0.7220    1.3070 C   0  0  0  0  0  0  0  0  0  0  0  0
   -3.6000    1.9770    1.3880 C   0  0  0  0  0  0  0  0  0  0  0  0
   -2.5070    2.7890    0.8750 C   0  0  0  0  0  0  0  0  0  0  0  0
   -3.1800    4.0740    0.2910 C   0  0  0  0  0  0  0  0  0  0  0  0
   -2.1700    4.8690   -0.2240 O   0  0  0  0  0  0  0  0  0  0  0  0
  1  2  1  0
  3  2  1  6
  3  4  1  0
  3 12  1  0
  4  5  1  0
  5  6  1  0
  6  7  2  3
  6 11  1  0
  7  8  1  0
  8  9  1  0
  8 10  2  0
 11 12  1  0
 12 13  1  1
 13 14  2  0
 13 15  1  0
 15 16  1  0
 16 17  2  0
 16 18  1  0
 18 19  1  0
 19 20  2  0
 19 27  1  0
 20 21  1  0
 20 24  1  0
 21 22  1  0
 22 23  1  0
 24 25  2  0
 24 26  1  0
 26 27  1  0
 27 28  2  3
 28 29  1  0
 29 30  1  0
 30 31  1  0
M  CHG  2   3   1  22   1
M  END
