
     RDKit          3D

 30 31  0  0  0  0  0  0  0  0999 V2000
   -3.8860   -2.0020    3.8440 C   0  0  0  0  0  0  0  0  0  0  0  0
   -3.6910   -1.5720    2.5080 O   0  0  0  0  0  0  0  0  0  0  0  0
   -2.7260   -0.6380    2.2050 C   0  0  0  0  0  0  0  0  0  0  0  0
   -2.0160   -0.1650    3.1100 O   0  0  0  0  0  0  0  0  0  0  0  0
   -2.5810   -0.2300    0.7560 C   0  0  1  0  0  0  0  0  0  0  0  0
   -3.8690    0.3850    0.3860 C   0  0  0  0  0  0  0  0  0  0  0  0
   -4.0440    0.9020   -0.9920 C   0  0  0  0  0  0  0  0  0  0  0  0
   -5.4320    1.5140   -1.1590 C   0  0  0  0  0  0  0  0  0  0  0  0
   -5.5640    2.7360   -1.4760 N   0  0  0  0  0  0  0  0  0  0  0  0
   -6.5930    0.6900   -0.9520 C   0  0  0  0  0  0  0  0  0  0  0  0
   -7.7660    1.1370   -1.0750 N   0  0  0  0  0  0  0  0  0  0  0  0
   -1.3970    0.6850    0.6980 C   0  0  0  0  0  0  0  0  0  0  0  0
   -0.2160    0.0270   -0.0420 C   0  0  1  0  0  0  0  0  0  0  0  0
    0.7800    1.0250   -0.1170 N   0  0  0  0  0  0  0  0  0  0  0  0
    2.0740    0.6580   -0.6140 C   0  0  1  0  0  0  0  0  0  0  0  0
    2.9150    0.2500    0.5530 C   0  0  0  0  0  0  0  0  0  0  0  0
    2.4800    0.3890    1.7250 O   0  0  0  0  0  0  0  0  0  0  0  0
    4.2160   -0.3030    0.4240 N   0  0  0  0  0  0  0  0  0  0  0  0
    4.9690   -0.6730    1.6290 C   0  0  0  0  0  0  0  0  0  0  0  0
    6.3140   -1.2340    1.2210 C   0  0  0  0  0  0  0  0  0  0  0  0
    7.0200   -1.5830    2.4400 N   0  0  0  0  0  0  0  0  0  0  0  0
    2.0930   -0.3250   -1.7250 C   0  0  0  0  0  0  0  0  0  0  0  0
    2.2960    0.3450   -3.0940 C   0  0  0  0  0  0  0  0  0  0  0  0
    3.7270    0.8300   -3.0860 C   0  0  0  0  0  0  0  0  0  0  0  0
    3.8560    1.8340   -1.9850 C   0  0  0  0  0  0  0  0  0  0  0  0
    2.6480    1.9820   -1.1410 C   0  0  0  0  0  0  0  0  0  0  0  0
    0.0950   -1.2230    0.6790 C   0  0  0  0  0  0  0  0  0  0  0  0
   -1.0480   -2.1930    0.4820 C   0  0  0  0  0  0  0  0  0  0  0  0
   -2.3300   -1.5320    0.0320 C   0  0  2  0  0  0  0  0  0  0  0  0
   -2.4560   -1.4740   -1.3290 O   0  0  0  0  0  0  0  0  0  0  0  0
  1  2  1  0
  2  3  1  0
  3  4  2  0
  3  5  1  0
  5  6  1  6
  5 12  1  0
  5 29  1  0
  6  7  1  0
  7  8  1  0
  8  9  2  0
  8 10  1  0
 10 11  2  0
 12 13  1  0
 13 14  1  1
 13 27  1  0
 15 14  1  1
 15 16  1  0
 15 22  1  0
 15 26  1  0
 16 17  2  0
 16 18  1  0
 18 19  1  0
 19 20  1  0
 20 21  1  0
 22 23  1  0
 23 24  1  0
 24 25  1  0
 25 26  1  0
 27 28  1  0
 28 29  1  0
 29 30  1  6
M  CHG  2   9   1  14   1
M  END
