
     RDKit          3D

 29 31  0  0  0  0  0  0  0  0999 V2000
   -8.1210   -2.0640    0.9380 C   0  0  0  0  0  0  0  0  0  0  0  0
   -7.2980   -0.8430    0.8470 C   0  0  0  0  0  0  0  0  0  0  0  0
   -7.7500    0.3040    1.1720 O   0  0  0  0  0  0  0  0  0  0  0  0
   -5.9430   -0.9520    0.3770 N   0  0  0  0  0  0  0  0  0  0  0  0
   -5.1270    0.1980    0.2780 C   0  0  0  0  0  0  0  0  0  0  0  0
   -5.6740    1.3030    0.6230 O   0  0  0  0  0  0  0  0  0  0  0  0
   -3.7780    0.1630   -0.1750 N   0  0  0  0  0  0  0  0  0  0  0  0
   -3.0670    1.4200   -0.2300 C   0  0  0  0  0  0  0  0  0  0  0  0
   -1.7490    1.2020    0.5020 C   0  0  0  0  0  0  0  0  0  0  0  0
   -1.0130    0.1820   -0.3440 C   0  0  1  0  0  0  0  0  0  0  0  0
    0.3920    0.0900    0.0700 N   0  0  0  0  0  0  0  0  0  0  0  0
    1.3780    0.5380   -0.8020 C   0  0  0  0  0  0  0  0  0  0  0  0
    1.0550    1.0250   -1.9570 O   0  0  0  0  0  0  0  0  0  0  0  0
    2.8200    0.5040   -0.5150 C   0  0  0  0  0  0  0  0  0  0  0  0
    3.6410    0.9760   -1.4480 C   0  0  0  0  0  0  0  0  0  0  0  0
    5.0640    1.0150   -1.3480 C   0  0  0  0  0  0  0  0  0  0  0  0
    5.9270   -0.0080   -1.0740 N   0  0  0  0  0  0  0  0  0  0  0  0
    7.1670    0.4350   -1.0590 C   0  0  0  0  0  0  0  0  0  0  0  0
    8.4870    0.0840   -0.8780 C   0  0  0  0  0  0  0  0  0  0  0  0
    9.2440    1.1340   -1.0220 O   0  0  0  0  0  0  0  0  0  0  0  0
    8.4830    2.1730   -1.2910 C   0  0  0  0  0  0  0  0  0  0  0  0
    7.1500    1.7930   -1.3290 C   0  0  0  0  0  0  0  0  0  0  0  0
    5.8800    2.1070   -1.4960 N   0  0  0  0  0  0  0  0  0  0  0  0
    3.3730    0.0630    0.7380 C   0  0  0  0  0  0  0  0  0  0  0  0
    2.6380   -0.4960    1.8100 N   0  0  0  0  0  0  0  0  0  0  0  0
    4.6200    0.1730    0.9350 O   0  0  0  0  0  0  0  0  0  0  0  0
   -1.6760   -1.1470   -0.3760 C   0  0  1  0  0  0  0  0  0  0  0  0
   -1.3410   -2.0130    0.8190 C   0  0  0  0  0  0  0  0  0  0  0  0
   -3.1440   -1.0540   -0.5610 C   0  0  0  0  0  0  0  0  0  0  0  0
  1  2  1  0
  2  3  2  0
  2  4  1  0
  4  5  1  0
  5  6  2  0
  5  7  1  0
  7  8  1  0
  7 29  1  0
  8  9  1  0
  9 10  1  0
 10 11  1  1
 10 27  1  0
 11 12  1  0
 12 13  2  0
 12 14  1  0
 14 15  2  3
 14 24  1  0
 15 16  1  0
 16 17  2  0
 16 23  1  0
 17 18  1  0
 18 19  2  0
 18 22  1  0
 19 20  1  0
 20 21  1  0
 21 22  2  0
 22 23  1  0
 24 25  1  0
 24 26  2  0
 27 28  1  1
 27 29  1  0
M  END
