
     RDKit          3D

 28 29  0  0  0  0  0  0  0  0999 V2000
    8.8850    0.4020    0.3520 O   0  0  0  0  0  0  0  0  0  0  0  0
    7.9360   -0.4430    0.2320 C   0  0  0  0  0  0  0  0  0  0  0  0
    7.0140   -0.8970    1.1690 O   0  0  0  0  0  0  0  0  0  0  0  0
    6.1720   -1.8000    0.5820 O   0  0  0  0  0  0  0  0  0  0  0  0
    6.1910   -1.4100   -0.7660 C   0  0  1  0  0  0  0  0  0  0  0  0
    5.5450   -0.0420   -0.9620 C   0  0  0  0  0  0  0  0  0  0  0  0
    4.2610    0.0070   -0.5450 O   0  0  0  0  0  0  0  0  0  0  0  0
    3.5370    1.2390   -0.5260 C   0  0  0  0  0  0  0  0  0  0  0  0
    4.2300    2.2490   -0.9230 O   0  0  0  0  0  0  0  0  0  0  0  0
    2.1770    1.3690   -0.0900 C   0  0  2  0  0  0  0  0  0  0  0  0
    2.0040    1.5710    1.3390 N   0  0  0  0  0  0  0  0  0  0  0  0
    1.5680    0.2570    1.8480 C   0  0  0  0  0  0  0  0  0  0  0  0
    0.2040    0.1880    1.4620 O   0  0  0  0  0  0  0  0  0  0  0  0
    0.1520   -0.0900    0.1680 N   0  0  0  0  0  0  0  0  0  0  0  0
   -0.8950   -0.8350   -0.4440 C   0  0  0  0  0  0  0  0  0  0  0  0
   -0.8580   -1.0510   -1.6740 O   0  0  0  0  0  0  0  0  0  0  0  0
   -2.0110   -1.3290    0.3940 C   0  0  0  0  0  0  0  0  0  0  0  0
   -3.1540   -1.4450   -0.4390 O   0  0  0  0  0  0  0  0  0  0  0  0
   -3.4260   -0.2230   -1.0100 C   0  0  0  0  0  0  0  0  0  0  0  0
   -3.7240    0.8990   -0.0360 C   0  0  0  0  0  0  0  0  0  0  0  0
   -4.9280    0.5470    0.8510 C   0  0  0  0  0  0  0  0  0  0  0  0
   -6.1040    0.1830    0.0140 C   0  0  0  0  0  0  0  0  0  0  0  0
   -7.2230   -0.1040    0.8370 O   0  0  0  0  0  0  0  0  0  0  0  0
   -8.2400   -0.3520   -0.0150 O   0  0  0  0  0  0  0  0  0  0  0  0
   -7.7120   -1.2070   -0.8750 O   0  0  0  0  0  0  0  0  0  0  0  0
    1.1990    0.4740   -0.6910 C   0  0  0  0  0  0  0  0  0  0  0  0
    1.1720    0.1780   -1.8920 O   0  0  0  0  0  0  0  0  0  0  0  0
    7.6170   -1.1460   -0.9530 O   0  0  0  0  0  0  0  0  0  0  0  0
  1  2  2  0
  2  3  1  0
  2 28  1  0
  3  4  1  0
  4  5  1  0
  5  6  1  1
  5 28  1  0
  6  7  1  0
  7  8  1  0
  8  9  2  0
 10  8  1  1
 10 11  1  0
 10 26  1  0
 11 12  1  0
 12 13  1  0
 13 14  1  0
 14 15  1  0
 14 26  1  0
 15 16  2  0
 15 17  1  0
 17 18  1  0
 18 19  1  0
 19 20  1  0
 20 21  1  0
 21 22  1  0
 22 23  1  0
 23 24  1  0
 24 25  1  0
 26 27  2  0
M  END
