
     RDKit          3D

 29 30  0  0  0  0  0  0  0  0999 V2000
    4.2400    3.2610    1.4040 C   0  0  0  0  0  0  0  0  0  0  0  0
    4.1920    1.7800    1.2830 C   0  0  0  0  0  0  0  0  0  0  0  0
    3.5350    1.1490    0.2480 C   0  0  0  0  0  0  0  0  0  0  0  0
    3.4860   -0.1870    0.1290 N   0  0  0  0  0  0  0  0  0  0  0  0
    2.8040   -0.8240   -0.9420 C   0  0  1  0  0  0  0  0  0  0  0  0
    2.4250   -2.2490   -0.6980 C   0  0  0  0  0  0  0  0  0  0  0  0
    1.3730   -2.4590   -1.7890 C   0  0  2  0  0  0  0  0  0  0  0  0
    2.0120   -2.8380   -2.9570 O   0  0  0  0  0  0  0  0  0  0  0  0
    0.8320   -1.0750   -1.9690 C   0  0  1  0  0  0  0  0  0  0  0  0
   -0.6420   -1.1040   -1.6690 C   0  0  0  0  0  0  0  0  0  0  0  0
   -0.8330   -1.5290   -0.3480 O   0  0  0  0  0  0  0  0  0  0  0  0
   -2.3170   -1.5950    0.0570 P   0  0  0  0  0  0  0  0  0  0  0  0
   -1.7760   -2.1690    1.5760 O   0  0  0  0  0  0  0  0  0  0  0  0
   -2.6000   -2.7330   -1.1110 O   0  0  0  0  0  0  0  0  0  0  0  0
   -2.5900   -0.0470   -0.1640 O   0  0  0  0  0  0  0  0  0  0  0  0
   -4.1390    0.4510   -0.5580 P   0  0  0  0  0  0  0  0  0  0  0  0
   -3.5910    1.0530   -1.8460 O   0  0  0  0  0  0  0  0  0  0  0  0
   -5.1960   -0.5720   -1.3030 O   0  0  0  0  0  0  0  0  0  0  0  0
   -4.6920    1.8740   -0.0020 O   0  0  0  0  0  0  0  0  0  0  0  0
   -3.9030    2.2500    1.4450 P   0  0  0  0  0  0  0  0  0  0  0  0
   -4.6880    1.0490    2.0170 O   0  0  0  0  0  0  0  0  0  0  0  0
   -4.5110    3.4020    2.3780 O   0  0  0  0  0  0  0  0  0  0  0  0
   -2.9800    3.0950    0.5400 O   0  0  0  0  0  0  0  0  0  0  0  0
    1.5400   -0.2290   -1.1550 O   0  0  0  0  0  0  0  0  0  0  0  0
    4.1070   -0.9210    1.0640 C   0  0  0  0  0  0  0  0  0  0  0  0
    4.1360   -2.1790    1.0690 O   0  0  0  0  0  0  0  0  0  0  0  0
    4.7670   -0.3250    2.1020 N   0  0  0  0  0  0  0  0  0  0  0  0
    4.8210    1.0050    2.2290 C   0  0  0  0  0  0  0  0  0  0  0  0
    5.4230    1.5920    3.1760 O   0  0  0  0  0  0  0  0  0  0  0  0
  1  2  1  0
  2  3  2  0
  2 28  1  0
  3  4  1  0
  5  4  1  1
  4 25  1  0
  5  6  1  0
  5 24  1  0
  6  7  1  0
  7  8  1  6
  7  9  1  0
  9 10  1  1
  9 24  1  0
 10 11  1  0
 11 12  1  0
 12 13  1  0
 12 14  1  0
 12 15  1  0
 15 16  1  0
 16 17  1  0
 16 18  1  0
 16 19  1  0
 19 20  1  0
 20 21  1  0
 20 22  1  0
 20 23  1  0
 25 26  2  0
 25 27  1  0
 27 28  1  0
 28 29  2  0
M  END
