
     RDKit          3D

 28 29  0  0  0  0  0  0  0  0999 V2000
    8.5980   -0.8220    0.8490 O   0  0  0  0  0  0  0  0  0  0  0  0
    7.4590   -0.5750    0.4620 C   0  0  0  0  0  0  0  0  0  0  0  0
    6.2580   -1.3860    0.8270 C   0  0  0  0  0  0  0  0  0  0  0  0
    5.1340   -0.4250    0.7080 C   0  0  2  0  0  0  0  0  0  0  0  0
    4.0760   -0.8290    0.0260 O   0  0  0  0  0  0  0  0  0  0  0  0
    3.2060   -0.0360   -0.5250 O   0  0  0  0  0  0  0  0  0  0  0  0
    1.9920    0.2030    0.1680 C   0  0  0  0  0  0  0  0  0  0  0  0
    1.9640   -0.1540    1.3180 O   0  0  0  0  0  0  0  0  0  0  0  0
    1.0050    0.8330   -0.6780 N   0  0  0  0  0  0  0  0  0  0  0  0
   -0.4130    0.7180   -0.1630 C   0  0  0  0  0  0  0  0  0  0  0  0
   -0.4220   -0.0110    1.0100 N   0  0  0  0  0  0  0  0  0  0  0  0
   -1.7930   -0.1760    1.4800 C   0  0  2  0  0  0  0  0  0  0  0  0
   -1.9970   -1.7440    1.1950 C   0  0  0  0  0  0  0  0  0  0  0  0
   -1.1880   -2.4090    2.1350 O   0  0  0  0  0  0  0  0  0  0  0  0
   -1.7550   -2.0040    3.3320 O   0  0  0  0  0  0  0  0  0  0  0  0
   -2.8440    0.4480    0.9240 O   0  0  0  0  0  0  0  0  0  0  0  0
   -2.7300    1.0890   -0.2920 C   0  0  0  0  0  0  0  0  0  0  0  0
   -3.8120    1.6110   -1.0420 O   0  0  0  0  0  0  0  0  0  0  0  0
   -4.7330    0.7570   -1.4690 C   0  0  0  0  0  0  0  0  0  0  0  0
   -6.0450    0.5400   -0.7600 C   0  0  0  0  0  0  0  0  0  0  0  0
   -5.7980    0.0390    0.5190 O   0  0  0  0  0  0  0  0  0  0  0  0
   -5.6020   -1.2360    0.4080 O   0  0  0  0  0  0  0  0  0  0  0  0
   -1.5070    1.2090   -0.8010 C   0  0  0  0  0  0  0  0  0  0  0  0
   -1.4250    1.6940   -2.2320 C   0  0  0  0  0  0  0  0  0  0  0  0
   -1.3780    2.7670   -2.5760 O   0  0  0  0  0  0  0  0  0  0  0  0
   -1.4270    0.5430   -3.0760 O   0  0  0  0  0  0  0  0  0  0  0  0
    5.7200    0.7220   -0.1550 C   0  0  0  0  0  0  0  0  0  0  0  0
    7.0190    0.3910   -0.3850 O   0  0  0  0  0  0  0  0  0  0  0  0
  1  2  2  0
  2  3  1  0
  2 28  1  0
  3  4  1  0
  4  5  1  6
  4 27  1  0
  5  6  1  0
  6  7  1  0
  7  8  2  0
  7  9  1  0
  9 10  1  0
 10 11  2  0
 10 23  1  0
 11 12  1  0
 12 13  1  6
 12 16  1  0
 13 14  1  0
 14 15  1  0
 16 17  1  0
 17 18  1  0
 17 23  2  0
 18 19  1  0
 19 20  1  0
 20 21  1  0
 21 22  1  0
 23 24  1  0
 24 25  2  0
 24 26  1  0
 27 28  1  0
M  END
