
     RDKit          3D

 28 29  0  0  0  0  0  0  0  0999 V2000
    1.5280    1.7350   -0.4460 O   0  0  0  0  0  0  0  0  0  0  0  0
    1.2760    0.5000   -0.3480 C   0  0  0  0  0  0  0  0  0  0  0  0
   -0.0550    0.1180   -0.0370 N   0  0  0  0  0  0  0  0  0  0  0  0
   -1.1660    1.1030    0.1850 C   0  0  0  0  0  0  0  0  0  0  0  0
   -1.5160    1.6800    1.3860 C   0  0  0  0  0  0  0  0  0  0  0  0
   -2.5440    2.5850    1.1550 N   0  0  0  0  0  0  0  0  0  0  0  0
   -2.8260    2.5780   -0.0550 O   0  0  0  0  0  0  0  0  0  0  0  0
   -2.0210    1.6830   -0.7140 C   0  0  0  0  0  0  0  0  0  0  0  0
   -2.3210    1.6020   -2.1580 C   0  0  0  0  0  0  0  0  0  0  0  0
   -2.2670    2.6750   -2.8830 O   0  0  0  0  0  0  0  0  0  0  0  0
   -2.6740    0.4610   -2.8650 O   0  0  0  0  0  0  0  0  0  0  0  0
   -3.5700   -0.5450   -2.4760 C   0  0  0  0  0  0  0  0  0  0  0  0
   -3.9750   -0.5940   -1.0440 C   0  0  0  0  0  0  0  0  0  0  0  0
   -3.1010   -1.2590   -0.2120 O   0  0  0  0  0  0  0  0  0  0  0  0
   -3.4140   -1.1500    1.1440 C   0  0  0  0  0  0  0  0  0  0  0  0
   -2.2230   -0.9380    1.8530 O   0  0  0  0  0  0  0  0  0  0  0  0
   -2.3850   -0.4070    3.1070 C   0  0  0  0  0  0  0  0  0  0  0  0
   -1.2680    0.4840    3.5900 C   0  0  0  0  0  0  0  0  0  0  0  0
   -1.1050    1.5630    2.7120 O   0  0  0  0  0  0  0  0  0  0  0  0
    2.3050   -0.3680   -0.5480 O   0  0  0  0  0  0  0  0  0  0  0  0
    3.6210   -0.0090   -0.8550 C   0  0  1  0  0  0  0  0  0  0  0  0
    4.6160   -0.5240    0.1570 C   0  0  0  0  0  0  0  0  0  0  0  0
    5.8880   -0.1150   -0.2550 O   0  0  0  0  0  0  0  0  0  0  0  0
    6.8140   -0.5230    0.5790 O   0  0  0  0  0  0  0  0  0  0  0  0
    7.9570    0.0400    0.2690 O   0  0  0  0  0  0  0  0  0  0  0  0
    3.9550   -0.6190   -2.1580 C   0  0  0  0  0  0  0  0  0  0  0  0
    5.1200   -0.4140   -2.6440 O   0  0  0  0  0  0  0  0  0  0  0  0
    3.0950   -1.4010   -2.8940 O   0  0  0  0  0  0  0  0  0  0  0  0
  1  2  2  0
  2  3  1  0
  2 20  1  0
  3  4  1  0
  4  5  1  0
  4  8  2  0
  5  6  2  0
  5 19  1  0
  6  7  1  0
  7  8  1  0
  8  9  1  0
  9 10  2  0
  9 11  1  0
 11 12  1  0
 12 13  1  0
 13 14  1  0
 14 15  1  0
 15 16  1  0
 16 17  1  0
 17 18  1  0
 18 19  1  0
 20 21  1  0
 21 22  1  1
 21 26  1  0
 22 23  1  0
 23 24  1  0
 24 25  1  0
 26 27  2  0
 26 28  1  0
M  END
