
     RDKit          3D

 15 15  0  0  0  0  0  0  0  0999 V2000
   -3.2460    1.9830    1.9670 O   0  0  0  0  0  0  0  0  0  0  0  0
   -3.2940    1.7630    0.5010 S   0  0  1  0  0  0  0  0  0  0  0  0
   -3.4140    3.0370   -0.2790 O   0  0  0  0  0  0  0  0  0  0  0  0
   -1.9650    0.7820   -0.0710 C   0  0  0  0  0  0  0  0  0  0  0  0
   -2.5460   -0.2890   -0.5790 C   0  0  0  0  0  0  0  0  0  0  0  0
   -1.5450   -1.6270   -1.3140 S   0  0  0  0  0  0  0  0  0  0  0  0
    0.4970   -1.1730   -1.2020 S   0  0  0  0  0  0  0  0  0  0  0  0
    1.2030   -1.7830    0.3120 C   0  0  0  0  0  0  0  0  0  0  0  0
    0.4190   -2.4800    1.2740 S   0  0  0  0  0  0  0  0  0  0  0  0
    2.6410   -1.5640    0.5850 C   0  0  0  0  0  0  0  0  0  0  0  0
    2.9600   -0.0740    0.6180 C   0  0  0  0  0  0  0  0  0  0  0  0
    2.6260    0.4360   -0.6260 O   0  0  0  0  0  0  0  0  0  0  0  0
    2.9310    2.1160   -0.7410 S   0  0  0  0  0  0  0  0  0  0  0  0
   -3.9690   -0.3170   -0.5110 C   0  0  0  0  0  0  0  0  0  0  0  0
   -4.5470    0.6810    0.0270 N   0  0  0  0  0  0  0  0  0  0  0  0
  1  2  2  0
  2  3  2  0
  2  4  1  6
  2 15  1  0
  4  5  2  0
  5  6  1  0
  5 14  1  0
  6  7  1  0
  7  8  1  0
  8  9  2  0
  8 10  1  0
 10 11  1  0
 11 12  1  0
 12 13  1  0
 14 15  2  0
M  END
