
     RDKit          3D

 15 14  0  0  0  0  0  0  0  0999 V2000
    4.9980   -0.5330   -0.7030 O   0  0  0  0  0  0  0  0  0  0  0  0
    4.0370   -1.3230   -0.8060 C   0  0  0  0  0  0  0  0  0  0  0  0
    4.2970   -2.6640   -0.9990 O   0  0  0  0  0  0  0  0  0  0  0  0
    2.6590   -0.8420   -0.7250 C   0  0  0  0  0  0  0  0  0  0  0  0
    2.5850    0.6580   -0.5100 C   0  0  0  0  0  0  0  0  0  0  0  0
    0.8620    1.1650   -0.4220 S   0  0  0  0  0  0  0  0  0  0  0  0
    0.0080    0.5400    0.9910 C   0  0  0  0  0  0  0  0  0  0  0  0
    0.8700   -0.4830    2.1540 S   0  0  0  0  0  0  0  0  0  0  0  0
   -1.1980    0.8060    1.1870 N   0  0  0  0  0  0  0  0  0  0  0  0
   -2.0710    0.2100    2.5630 S   0  0  0  0  0  0  0  0  0  0  0  0
   -1.8930    1.6300    0.2480 C   0  0  0  0  0  0  0  0  0  0  0  0
   -3.0480    0.9090   -0.3520 C   0  0  0  0  0  0  0  0  0  0  0  0
   -3.7230    1.4990   -1.1730 O   0  0  0  0  0  0  0  0  0  0  0  0
   -3.3860   -0.7730    0.1560 S   0  0  0  0  0  0  0  0  0  0  0  0
   -5.0870   -1.5240   -0.8750 S   0  0  0  0  0  0  0  0  0  0  0  0
  1  2  2  0
  2  3  1  0
  2  4  1  0
  4  5  1  0
  5  6  1  0
  6  7  1  0
  7  8  1  0
  7  9  2  3
  9 10  1  0
  9 11  1  0
 11 12  1  0
 12 13  2  0
 12 14  1  0
 14 15  1  0
M  CHG  2   3  -1   9   1
M  END
