
     RDKit          3D

 15 14  0  0  0  0  0  0  0  0999 V2000
    4.5140   -1.2700   -0.6380 C   0  0  0  0  0  0  0  0  0  0  0  0
    3.2490   -1.4700    0.1660 C   0  0  0  0  0  0  0  0  0  0  0  0
    2.3910   -0.3000    0.1170 N   0  0  2  0  0  0  0  0  0  0  0  0
    2.2630    0.0630   -1.1740 O   0  0  0  0  0  0  0  0  0  0  0  0
    3.2340    1.0100    0.9470 S   0  0  0  0  0  0  0  0  0  0  0  0
    3.0890    2.5670    0.0320 C   0  0  0  0  0  0  0  0  0  0  0  0
    0.9210   -0.6810    0.8790 S   0  0  1  0  0  0  0  0  0  0  0  0
    0.8950   -2.0100    1.5640 O   0  0  0  0  0  0  0  0  0  0  0  0
    0.6850    0.3030    1.9370 O   0  0  0  0  0  0  0  0  0  0  0  0
   -0.4150   -1.0640   -0.6040 S   0  0  0  0  0  0  0  0  0  0  0  0
   -1.8050    0.2840   -0.9930 S   0  0  0  0  0  0  0  0  0  0  0  0
   -3.3750    0.1650   -0.0730 C   0  0  2  0  0  0  0  0  0  0  0  0
   -4.2560    1.2780   -0.5340 C   0  0  0  0  0  0  0  0  0  0  0  0
   -3.0140    0.3220    1.4030 C   0  0  0  0  0  0  0  0  0  0  0  0
   -3.9590   -1.1960   -0.2970 C   0  0  0  0  0  0  0  0  0  0  0  0
  1  2  1  0
  2  3  1  0
  3  4  1  6
  3  5  1  0
  3  7  1  0
  5  6  1  0
  7  8  2  0
  7  9  2  0
  7 10  1  6
 10 11  1  0
 11 12  1  0
 12 13  1  6
 12 14  1  0
 12 15  1  0
M  CHG  2   3   1   4  -1
M  END
