
     RDKit          3D

 15 14  0  0  0  0  0  0  0  0999 V2000
   -3.7680    2.0510   -0.3920 N   0  0  0  0  0  0  0  0  0  0  0  0
   -3.5000    0.8370   -1.1360 C   0  0  0  0  0  0  0  0  0  0  0  0
   -2.3900    0.0530   -0.4320 C   0  0  0  0  0  0  0  0  0  0  0  0
   -2.0390   -1.4660   -1.3430 S   0  0  0  0  0  0  0  0  0  0  0  0
   -0.7050   -2.3500   -0.4500 C   0  0  0  0  0  0  0  0  0  0  0  0
    0.5220   -1.5100   -0.5530 C   0  0  0  0  0  0  0  0  0  0  0  0
    1.6910   -2.1170    0.1370 C   0  0  0  0  0  0  0  0  0  0  0  0
    1.5010   -3.2240    0.7000 O   0  0  0  0  0  0  0  0  0  0  0  0
    2.9750   -1.4370    0.1410 C   0  0  0  0  0  0  0  0  0  0  0  0
    4.2000   -2.1690    0.9170 S   0  0  0  0  0  0  0  0  0  0  0  0
    3.2860    0.1220   -0.6390 S   0  0  0  0  0  0  0  0  0  0  0  0
    5.2950    0.6840   -0.3530 S   0  0  0  0  0  0  0  0  0  0  0  0
    5.3960    1.8140    1.4440 S   0  0  0  0  0  0  0  0  0  0  0  0
    5.1650    3.4630    1.0280 O   0  0  0  0  0  0  0  0  0  0  0  0
    6.0380    4.2440    1.6240 O   0  0  0  0  0  0  0  0  0  0  0  0
  1  2  1  0
  2  3  1  0
  3  4  1  0
  4  5  1  0
  5  6  1  0
  6  7  1  0
  7  8  2  0
  7  9  1  0
  9 10  2  0
  9 11  1  0
 11 12  1  0
 12 13  1  0
 13 14  1  0
 14 15  1  0
M  CHG  2   1   1  15  -1
M  END
