
     RDKit          3D

 15 14  0  0  0  0  0  0  0  0999 V2000
    4.0350   -0.8060    0.8530 C   0  0  0  0  0  0  0  0  0  0  0  0
    2.9090   -0.6840    0.0010 O   0  0  0  0  0  0  0  0  0  0  0  0
    2.9420    0.2660   -1.0080 C   0  0  0  0  0  0  0  0  0  0  0  0
    4.3600    0.4160   -1.8270 S   0  0  0  0  0  0  0  0  0  0  0  0
    1.8380    1.1220   -1.3870 C   0  0  0  0  0  0  0  0  0  0  0  0
    2.0210    1.9600   -2.3510 O   0  0  0  0  0  0  0  0  0  0  0  0
    0.4920    1.1380   -0.7710 C   0  0  0  0  0  0  0  0  0  0  0  0
    0.2750    0.2750    0.3190 N   0  0  0  0  0  0  0  0  0  0  0  0
    1.0860    0.5420    1.3500 O   0  0  0  0  0  0  0  0  0  0  0  0
    0.1930   -1.4180    0.0140 S   0  0  0  0  0  0  0  0  0  0  0  0
   -1.2310   -2.2820    1.3390 S   0  0  0  0  0  0  0  0  0  0  0  0
   -3.1060   -2.2390    0.3870 S   0  0  0  0  0  0  0  0  0  0  0  0
   -4.0230   -0.7600    0.7110 C   0  0  0  0  0  0  0  0  0  0  0  0
   -4.9370   -0.3420   -0.1370 C   0  0  0  0  0  0  0  0  0  0  0  0
   -5.8940    1.1620    0.1580 S   0  0  0  0  0  0  0  0  0  0  0  0
  1  2  1  0
  2  3  1  0
  3  4  2  0
  3  5  1  0
  5  6  2  0
  5  7  1  0
  7  8  1  0
  8  9  1  0
  8 10  1  0
 10 11  1  0
 11 12  1  0
 12 13  1  0
 13 14  2  3
 14 15  1  0
M  CHG  1   9  -1
M  END
