
     RDKit          3D

 15 14  0  0  0  0  0  0  0  0999 V2000
   -5.4520    0.2400    0.2250 C   0  0  0  0  0  0  0  0  0  0  0  0
   -5.2360   -0.1140   -1.1900 C   0  0  0  0  0  0  0  0  0  0  0  0
   -4.3640    0.7700   -1.8910 O   0  0  0  0  0  0  0  0  0  0  0  0
   -3.0490   -0.3730   -2.3470 S   0  0  0  0  0  0  0  0  0  0  0  0
   -1.2700    0.7260   -1.6040 S   0  0  0  0  0  0  0  0  0  0  0  0
   -1.1930    0.4810    0.4610 S   0  0  0  0  0  0  0  0  0  0  0  0
   -0.2820   -0.7610    1.1630 C   0  0  0  0  0  0  0  0  0  0  0  0
   -0.8470   -1.8250    1.5530 O   0  0  0  0  0  0  0  0  0  0  0  0
    1.1780   -0.6680    1.3680 C   0  0  0  0  0  0  0  0  0  0  0  0
    1.8390    0.4000    0.0370 S   0  0  0  0  0  0  0  0  0  0  0  0
    3.6130    0.6110    0.1530 C   0  0  0  0  0  0  0  0  0  0  0  0
    4.3900   -0.6010   -0.2790 C   0  0  0  0  0  0  0  0  0  0  0  0
    5.8340   -0.2960   -0.1060 N   0  0  0  0  0  0  0  0  0  0  0  0
    6.3880    0.5910   -0.9680 O   0  0  0  0  0  0  0  0  0  0  0  0
    6.6550   -1.0080    1.0530 S   0  0  0  0  0  0  0  0  0  0  0  0
  1  2  1  0
  2  3  1  0
  3  4  1  0
  4  5  1  0
  5  6  1  0
  6  7  1  0
  7  8  2  0
  7  9  1  0
  9 10  1  0
 10 11  1  0
 11 12  1  0
 12 13  1  0
 13 14  1  0
 13 15  2  0
M  CHG  2  13   1  14  -1
M  END
