
     RDKit          3D

 15 14  0  0  0  0  0  0  0  0999 V2000
   -2.8800    1.7150   -1.6670 C   0  0  0  0  0  0  0  0  0  0  0  0
   -2.9330    1.0200   -0.3550 C   0  0  0  0  0  0  0  0  0  0  0  0
   -1.9740    0.2160    0.0230 C   0  0  0  0  0  0  0  0  0  0  0  0
   -0.5810   -0.0510   -1.0510 S   0  0  0  0  0  0  0  0  0  0  0  0
    0.5830   -1.1520   -0.3690 N   0  0  0  0  0  0  0  0  0  0  0  0
    1.8180   -0.8400   -0.3240 C   0  0  0  0  0  0  0  0  0  0  0  0
    2.3490    0.7290   -0.9620 S   0  0  0  0  0  0  0  0  0  0  0  0
    4.4440    0.9900   -0.7620 S   0  0  0  0  0  0  0  0  0  0  0  0
    4.7430    1.7310    0.7630 O   0  0  0  0  0  0  0  0  0  0  0  0
    2.7710   -1.7500    0.2390 C   0  0  0  0  0  0  0  0  0  0  0  0
    4.1050   -1.4170    0.2890 O   0  0  0  0  0  0  0  0  0  0  0  0
    2.2920   -3.1820    0.8220 S   0  0  0  0  0  0  0  0  0  0  0  0
   -2.0360   -0.4530    1.2970 C   0  0  0  0  0  0  0  0  0  0  0  0
   -1.0150   -1.3170    1.7130 O   0  0  0  0  0  0  0  0  0  0  0  0
   -3.3200   -0.1970    2.2680 S   0  0  0  0  0  0  0  0  0  0  0  0
  1  2  1  0
  2  3  2  3
  3  4  1  0
  3 13  1  0
  4  5  1  0
  5  6  2  3
  6  7  1  0
  6 10  1  0
  7  8  1  0
  8  9  1  0
 10 11  1  0
 10 12  2  0
 13 14  1  0
 13 15  2  0
M  CHG  1   9  -1
M  END
