
     RDKit          3D

 15 14  0  0  0  0  0  0  0  0999 V2000
    7.6630   -0.9040   -0.8340 C   0  0  0  0  0  0  0  0  0  0  0  0
    6.0940   -1.8030   -0.8070 S   0  0  0  0  0  0  0  0  0  0  0  0
    4.7650   -1.0630    0.6550 S   0  0  0  0  0  0  0  0  0  0  0  0
    3.5120    0.4770   -0.0760 S   0  0  0  0  0  0  0  0  0  0  0  0
    1.9700   -0.1760   -0.7750 C   0  0  0  0  0  0  0  0  0  0  0  0
    0.9970   -0.9260    0.5560 S   0  0  0  0  0  0  0  0  0  0  0  0
    0.4010    0.5850    1.8930 S   0  0  0  0  0  0  0  0  0  0  0  0
   -1.1110    1.2390    1.4260 O   0  0  0  0  0  0  0  0  0  0  0  0
   -1.8500    0.8770    0.3060 C   0  0  0  0  0  0  0  0  0  0  0  0
   -1.3630   -0.0070   -0.4260 O   0  0  0  0  0  0  0  0  0  0  0  0
   -3.1300    1.5720    0.0970 C   0  0  0  0  0  0  0  0  0  0  0  0
   -4.3260    0.7990    0.5530 C   0  0  0  0  0  0  0  0  0  0  0  0
   -4.4920   -0.5000   -0.1500 C   0  0  0  0  0  0  0  0  0  0  0  0
   -5.5240   -0.7620   -0.8660 N   0  0  0  0  0  0  0  0  0  0  0  0
   -3.5030   -1.4620   -0.0300 O   0  0  0  0  0  0  0  0  0  0  0  0
  1  2  1  0
  2  3  1  0
  3  4  1  0
  4  5  1  0
  5  6  1  0
  6  7  1  0
  7  8  1  0
  8  9  1  0
  9 10  2  0
  9 11  1  0
 11 12  1  0
 12 13  1  0
 13 14  2  0
 13 15  1  0
M  CHG  2  14   1  15  -1
M  END
