
     RDKit          3D

 14 13  0  0  0  0  0  0  0  0999 V2000
   -4.9740   -0.0540   -0.7220 C   0  0  0  0  0  0  0  0  0  0  0  0
   -3.4750   -0.1150   -0.4830 C   0  0  0  0  0  0  0  0  0  0  0  0
   -3.1670    0.4300    0.8370 C   0  0  0  0  0  0  0  0  0  0  0  0
   -4.1190    0.8140    1.5320 O   0  0  0  0  0  0  0  0  0  0  0  0
   -1.8190    0.5700    1.4170 C   0  0  0  0  0  0  0  0  0  0  0  0
   -0.7810    0.0100    0.7020 O   0  0  0  0  0  0  0  0  0  0  0  0
   -0.5290   -1.3140    0.4400 C   0  0  0  0  0  0  0  0  0  0  0  0
   -1.2980   -2.1720    0.8910 O   0  0  0  0  0  0  0  0  0  0  0  0
    0.8670   -1.8670   -0.5280 S   0  0  0  0  0  0  0  0  0  0  0  0
    1.9450   -0.1330   -1.1240 S   0  0  0  0  0  0  0  0  0  0  0  0
    3.1140    0.1830    0.0920 O   0  0  0  0  0  0  0  0  0  0  0  0
    4.2860   -1.0930   -0.0060 S   0  0  0  0  0  0  0  0  0  0  0  0
    6.1800   -0.4230    0.6780 S   0  0  0  0  0  0  0  0  0  0  0  0
    7.1630    0.2690   -0.6830 C   0  0  0  0  0  0  0  0  0  0  0  0
  1  2  1  0
  2  3  1  0
  3  4  2  0
  3  5  1  0
  5  6  1  0
  6  7  1  0
  7  8  2  0
  7  9  1  0
  9 10  1  0
 10 11  1  0
 11 12  1  0
 12 13  1  0
 13 14  1  0
M  END
