
     RDKit          3D

 14 13  0  0  0  0  0  0  0  0999 V2000
    4.5670   -0.2310   -0.6340 C   0  0  0  0  0  0  0  0  0  0  0  0
    2.9470   -0.0480   -1.4310 S   0  0  0  0  0  0  0  0  0  0  0  0
    1.8520    1.3800   -0.3160 S   0  0  0  0  0  0  0  0  0  0  0  0
    0.7720    0.3300    1.1780 S   0  0  0  0  0  0  0  0  0  0  0  0
   -0.8480   -0.1000    0.4840 C   0  0  2  0  0  0  0  0  0  0  0  0
   -0.7700   -1.1360   -0.5800 C   0  0  0  0  0  0  0  0  0  0  0  0
    0.2420   -1.8880   -0.7110 N   0  0  0  0  0  0  0  0  0  0  0  0
   -2.1570   -1.3640   -1.6820 S   0  0  0  0  0  0  0  0  0  0  0  0
   -1.3990    1.1620   -0.0650 C   0  0  0  0  0  0  0  0  0  0  0  0
   -1.5940    2.3690    0.7620 C   0  0  0  0  0  0  0  0  0  0  0  0
   -1.6960    1.1980   -1.2320 O   0  0  0  0  0  0  0  0  0  0  0  0
   -1.7290   -0.6560    1.5550 C   0  0  0  0  0  0  0  0  0  0  0  0
   -1.3320   -0.7770    2.7420 O   0  0  0  0  0  0  0  0  0  0  0  0
   -3.0060   -1.0400    1.2040 O   0  0  0  0  0  0  0  0  0  0  0  0
  1  2  1  0
  2  3  1  0
  3  4  1  0
  5  4  1  1
  5  6  1  0
  5  9  1  0
  5 12  1  0
  6  7  2  0
  6  8  1  0
  9 10  1  0
  9 11  2  0
 12 13  2  0
 12 14  1  0
M  CHG  1   7   1
M  END
