
     RDKit          3D

 10 10  0  0  0  0  0  0  0  0999 V2000
   -3.4870    0.1150    0.4370 O   0  0  0  0  0  0  0  0  0  0  0  0
   -2.2490    0.0140    0.2720 C   0  0  0  0  0  0  0  0  0  0  0  0
   -1.6510   -1.1250   -0.1980 N   0  0  0  0  0  0  0  0  0  0  0  0
   -0.3370   -1.2350   -0.3710 C   0  0  0  0  0  0  0  0  0  0  0  0
    0.5150   -0.1640   -0.0720 C   0  0  0  0  0  0  0  0  0  0  0  0
    1.9910   -0.2930   -0.2070 C   0  0  0  0  0  0  0  0  0  0  0  0
    2.4490    0.8050   -0.9610 O   0  0  0  0  0  0  0  0  0  0  0  0
   -0.0860    0.9780    0.3960 C   0  0  0  0  0  0  0  0  0  0  0  0
    0.6580    1.9860    0.6750 O   0  0  0  0  0  0  0  0  0  0  0  0
   -1.4100    1.0510    0.5570 N   0  0  0  0  0  0  0  0  0  0  0  0
  1  2  2  0
  2  3  1  0
  2 10  1  0
  3  4  1  0
  4  5  2  0
  5  6  1  0
  5  8  1  0
  6  7  1  0
  8  9  2  0
  8 10  1  0
M  END
