
     RDKit          3D

 10 10  0  0  0  0  0  0  0  0999 V2000
    3.8860    0.0280    0.1060 N   0  0  0  0  0  0  0  0  0  0  0  0
    2.6110    0.4820    0.4930 C   0  0  0  0  0  0  0  0  0  0  0  0
    2.4710    1.3810    1.3880 O   0  0  0  0  0  0  0  0  0  0  0  0
    1.3940   -0.0460   -0.1040 C   0  0  0  0  0  0  0  0  0  0  0  0
    1.5190   -0.9330   -0.9890 O   0  0  0  0  0  0  0  0  0  0  0  0
    0.1350    0.3960    0.2710 O   0  0  0  0  0  0  0  0  0  0  0  0
   -0.9910   -0.1490   -0.3380 C   0  0  1  0  0  0  0  0  0  0  0  0
   -2.0080   -0.5600    0.7020 C   0  0  0  0  0  0  0  0  0  0  0  0
   -2.7810    0.6210    0.4540 N   0  0  0  0  0  0  0  0  0  0  0  0
   -2.0510    0.8410   -0.7660 C   0  0  0  0  0  0  0  0  0  0  0  0
  1  2  1  0
  2  3  2  0
  2  4  1  0
  4  5  2  0
  4  6  1  0
  7  6  1  1
  7  8  1  0
  7 10  1  0
  8  9  1  0
  9 10  1  0
M  END
