
     RDKit          3D

 10 10  0  0  0  0  0  0  0  0999 V2000
    2.4870    0.1210    0.6030 N   0  0  0  0  0  0  0  0  0  0  0  0
    1.6120   -0.7500   -0.1390 C   0  0  0  0  0  0  0  0  0  0  0  0
    1.9980   -1.9070   -0.3410 O   0  0  0  0  0  0  0  0  0  0  0  0
    0.2780   -0.2300   -0.6160 C   0  0  1  0  0  0  0  0  0  0  0  0
   -0.8100   -1.2640   -0.2950 C   0  0  0  0  0  0  0  0  0  0  0  0
   -1.8490   -0.6970    0.6020 C   0  0  0  0  0  0  0  0  0  0  0  0
   -2.3300   -1.3200    1.5730 O   0  0  0  0  0  0  0  0  0  0  0  0
   -2.2580    0.6060    0.3110 O   0  0  0  0  0  0  0  0  0  0  0  0
   -1.2610    1.5540   -0.1040 C   0  0  0  0  0  0  0  0  0  0  0  0
    0.0170    0.9590    0.1940 N   0  0  0  0  0  0  0  0  0  0  0  0
  1  2  1  0
  2  3  2  0
  4  2  1  1
  4  5  1  0
  4 10  1  0
  5  6  1  0
  6  7  2  0
  6  8  1  0
  8  9  1  0
  9 10  1  0
M  END
