
     RDKit          3D

 10 10  0  0  0  0  0  0  0  0999 V2000
    3.2110   -0.3070   -0.1690 C   0  0  0  0  0  0  0  0  0  0  0  0
    1.8790    0.1590   -0.2960 O   0  0  0  0  0  0  0  0  0  0  0  0
    0.7810   -0.5310    0.1900 C   0  0  0  0  0  0  0  0  0  0  0  0
    1.0120   -1.6230    0.7680 O   0  0  0  0  0  0  0  0  0  0  0  0
   -0.5910   -0.0530    0.0600 C   0  0  0  0  0  0  0  0  0  0  0  0
   -1.7190   -0.6980    0.5230 C   0  0  0  0  0  0  0  0  0  0  0  0
   -2.7930    0.0520    0.2150 N   0  0  0  0  0  0  0  0  0  0  0  0
   -2.3900    1.1470   -0.4260 C   0  0  0  0  0  0  0  0  0  0  0  0
   -3.1470    2.0790   -0.8650 O   0  0  0  0  0  0  0  0  0  0  0  0
   -1.0490    1.0690   -0.5130 N   0  0  0  0  0  0  0  0  0  0  0  0
  1  2  1  0
  2  3  1  0
  3  4  2  0
  3  5  1  0
  5  6  2  0
  5 10  1  0
  6  7  1  0
  7  8  1  0
  8  9  2  0
  8 10  1  0
M  END
