
     RDKit          3D

 27 29  0  0  0  0  0  0  0  0999 V2000
    5.8370    2.0470    1.3300 C   0  0  0  0  0  0  0  0  0  0  0  0
    4.5570    1.6230    0.9250 O   0  0  0  0  0  0  0  0  0  0  0  0
    4.3550    0.4690    0.1690 C   0  0  0  0  0  0  0  0  0  0  0  0
    5.4260   -0.2960   -0.2020 C   0  0  0  0  0  0  0  0  0  0  0  0
    5.2590   -1.4500   -0.9540 C   0  0  0  0  0  0  0  0  0  0  0  0
    3.9800   -1.7810   -1.3030 C   0  0  0  0  0  0  0  0  0  0  0  0
    3.7610   -3.0130   -2.1040 C   0  0  0  0  0  0  0  0  0  0  0  0
    2.8890   -0.9900   -0.9170 C   0  0  0  0  0  0  0  0  0  0  0  0
    3.0360    0.1430   -0.1810 C   0  0  0  0  0  0  0  0  0  0  0  0
    1.9790    0.9830    0.2520 N   0  0  0  0  0  0  0  0  0  0  0  0
    0.6160    0.8500   -0.0590 C   0  0  0  0  0  0  0  0  0  0  0  0
    0.2190   -0.0650   -0.7800 O   0  0  0  0  0  0  0  0  0  0  0  0
   -0.3500    1.8080    0.4750 C   0  0  2  0  0  0  0  0  0  0  0  0
   -0.4880    1.8280    1.9380 C   0  0  0  0  0  0  0  0  0  0  0  0
   -1.9250    2.2490    2.1660 C   0  0  0  0  0  0  0  0  0  0  0  0
   -2.3450    2.6570    0.7780 C   0  0  0  0  0  0  0  0  0  0  0  0
   -1.6950    1.6710   -0.0200 N   0  0  0  0  0  0  0  0  0  0  0  0
   -2.1390    0.8270   -1.0630 C   0  0  0  0  0  0  0  0  0  0  0  0
   -1.5950    1.1170   -2.2900 N   0  0  0  0  0  0  0  0  0  0  0  0
   -1.9690    0.3920   -3.3550 C   0  0  0  0  0  0  0  0  0  0  0  0
   -2.8820   -0.6330   -3.2600 C   0  0  0  0  0  0  0  0  0  0  0  0
   -3.4190   -0.9070   -2.0080 C   0  0  0  0  0  0  0  0  0  0  0  0
   -3.0400   -0.1590   -0.8800 C   0  0  0  0  0  0  0  0  0  0  0  0
   -3.6180   -0.4680    0.4210 C   0  0  1  0  0  0  0  0  0  0  0  0
   -4.8100   -1.4330    0.2770 C   0  0  0  0  0  0  0  0  0  0  0  0
   -2.5910   -1.3180    1.1690 C   0  0  0  0  0  0  0  0  0  0  0  0
   -3.0650   -1.6790    2.4860 N   0  0  0  0  0  0  0  0  0  0  0  0
  1  2  1  0
  2  3  1  0
  3  4  2  0
  3  9  1  0
  4  5  1  0
  5  6  2  0
  6  7  1  0
  6  8  1  0
  8  9  2  0
  9 10  1  0
 10 11  1  0
 11 12  2  0
 13 11  1  1
 13 14  1  0
 13 17  1  0
 14 15  1  0
 15 16  1  0
 16 17  1  0
 17 18  1  0
 18 19  2  0
 18 23  1  0
 19 20  1  0
 20 21  2  0
 21 22  1  0
 22 23  2  0
 23 24  1  0
 24 25  1  6
 24 26  1  0
 26 27  1  0
M  CHG  2  19   1  27   1
M  END
