
     RDKit          3D

 27 30  0  0  0  0  0  0  0  0999 V2000
    4.4970   -1.6490    2.9380 C   0  0  0  0  0  0  0  0  0  0  0  0
    3.6900   -2.3930    1.9680 C   0  0  0  0  0  0  0  0  0  0  0  0
    3.5720   -2.0280    0.7190 C   0  0  0  0  0  0  0  0  0  0  0  0
    2.7790   -2.7250   -0.3200 C   0  0  0  0  0  0  0  0  0  0  0  0
    1.6010   -1.8370   -0.6800 C   0  0  0  0  0  0  0  0  0  0  0  0
    1.9600   -0.3890   -0.5740 C   0  0  0  0  0  0  0  0  0  0  0  0
    1.1910    0.7280   -0.4620 C   0  0  0  0  0  0  0  0  0  0  0  0
   -0.1410    1.0740   -0.4040 C   0  0  0  0  0  0  0  0  0  0  0  0
   -1.2430    0.1080   -0.7350 C   0  0  0  0  0  0  0  0  0  0  0  0
   -0.9300   -0.9840   -1.2690 O   0  0  0  0  0  0  0  0  0  0  0  0
   -2.6520    0.2680   -0.5010 C   0  0  1  0  0  0  0  0  0  0  0  0
   -3.2220    1.4810   -0.4490 O   0  0  0  0  0  0  0  0  0  0  0  0
   -3.3840    2.2330   -1.5640 C   0  0  0  0  0  0  0  0  0  0  0  0
   -4.0880    3.5250   -1.1070 C   0  0  0  0  0  0  0  0  0  0  0  0
   -4.3130    4.3790   -2.1850 O   0  0  0  0  0  0  0  0  0  0  0  0
   -3.4880   -0.7110   -1.3300 C   0  0  0  0  0  0  0  0  0  0  0  0
   -4.0140   -1.7880   -0.4270 C   0  0  0  0  0  0  0  0  0  0  0  0
   -3.0200   -1.8020    0.6900 C   0  0  0  0  0  0  0  0  0  0  0  0
   -2.8850   -0.3180    0.9280 C   0  0  0  0  0  0  0  0  0  0  0  0
   -0.4760    2.3470   -0.0950 C   0  0  0  0  0  0  0  0  0  0  0  0
    1.0730    3.2170    0.1450 S   0  0  0  0  0  0  0  0  0  0  0  0
    2.0740    1.7720   -0.1920 C   0  0  0  0  0  0  0  0  0  0  0  0
    3.3380    1.4180   -0.2630 C   0  0  0  0  0  0  0  0  0  0  0  0
    4.4460    2.3190   -0.0180 C   0  0  0  0  0  0  0  0  0  0  0  0
    5.3210    3.0540    0.1670 N   0  0  0  0  0  0  0  0  0  0  0  0
    3.3630    0.0180   -0.6330 C   0  0  1  0  0  0  0  0  0  0  0  0
    4.2750   -0.8110    0.2400 C   0  0  0  0  0  0  0  0  0  0  0  0
  1  2  1  0
  2  3  2  3
  3  4  1  0
  3 27  1  0
  4  5  1  0
  5  6  1  0
  6  7  2  0
  6 26  1  0
  7  8  1  0
  7 22  1  0
  8  9  1  0
  8 20  2  0
  9 10  2  0
  9 11  1  0
 11 12  1  1
 11 16  1  0
 11 19  1  0
 12 13  1  0
 13 14  1  0
 14 15  1  0
 16 17  1  0
 17 18  1  0
 18 19  1  0
 20 21  1  0
 21 22  1  0
 22 23  2  0
 23 24  1  0
 23 26  1  0
 24 25  3  0
 26 27  1  1
M  END
