
     RDKit          3D

 27 29  0  0  0  0  0  0  0  0999 V2000
    1.6650    3.4990    1.0790 C   0  0  0  0  0  0  0  0  0  0  0  0
    1.8710    2.3510    2.0100 C   0  0  0  0  0  0  0  0  0  0  0  0
    1.2130    1.1310    1.6280 N   0  0  0  0  0  0  0  0  0  0  0  0
   -0.1010    1.0170    2.1680 N   0  0  0  0  0  0  0  0  0  0  0  0
   -1.2340    0.6470    1.4010 C   0  0  0  0  0  0  0  0  0  0  0  0
   -1.7900    1.5240    0.4740 C   0  0  0  0  0  0  0  0  0  0  0  0
   -2.9160    1.1530   -0.2590 C   0  0  0  0  0  0  0  0  0  0  0  0
   -3.5100   -0.0700   -0.0980 C   0  0  0  0  0  0  0  0  0  0  0  0
   -2.9250   -0.9180    0.8350 C   0  0  0  0  0  0  0  0  0  0  0  0
   -1.8460   -0.5520    1.5330 N   0  0  0  0  0  0  0  0  0  0  0  0
   -3.6960   -2.2210    0.8580 C   0  0  0  0  0  0  0  0  0  0  0  0
   -4.4040   -2.2070   -0.4840 C   0  0  0  0  0  0  0  0  0  0  0  0
   -4.6860   -0.6940   -0.7150 C   0  0  2  0  0  0  0  0  0  0  0  0
   -4.7800   -0.5190   -2.2000 C   0  0  0  0  0  0  0  0  0  0  0  0
   -5.9650   -0.4200    0.0010 C   0  0  0  0  0  0  0  0  0  0  0  0
   -6.3800    0.9690    0.1250 C   0  0  0  0  0  0  0  0  0  0  0  0
   -5.8420    1.9650   -0.2880 O   0  0  0  0  0  0  0  0  0  0  0  0
    1.6420    0.0780    0.8300 C   0  0  0  0  0  0  0  0  0  0  0  0
    0.7800   -0.9000    0.7300 O   0  0  0  0  0  0  0  0  0  0  0  0
    2.8590   -0.1320    0.0970 C   0  0  0  0  0  0  0  0  0  0  0  0
    3.8450    0.7920   -0.0620 C   0  0  0  0  0  0  0  0  0  0  0  0
    5.0250    0.5240   -0.7600 C   0  0  0  0  0  0  0  0  0  0  0  0
    5.2290   -0.7000   -1.3170 C   0  0  0  0  0  0  0  0  0  0  0  0
    6.4870   -1.0110   -2.0680 C   0  0  0  0  0  0  0  0  0  0  0  0
    7.4530   -1.5970   -1.1460 N   0  0  0  0  0  0  0  0  0  0  0  0
    4.2570   -1.6440   -1.1740 C   0  0  0  0  0  0  0  0  0  0  0  0
    3.1090   -1.3880   -0.4960 C   0  0  0  0  0  0  0  0  0  0  0  0
  1  2  1  0
  2  3  1  0
  3  4  1  0
  3 18  1  0
  4  5  1  0
  5  6  2  0
  5 10  1  0
  6  7  1  0
  7  8  2  0
  8  9  1  0
  8 13  1  0
  9 10  2  0
  9 11  1  0
 11 12  1  0
 12 13  1  0
 13 14  1  6
 13 15  1  0
 15 16  1  0
 16 17  2  0
 18 19  2  0
 18 20  1  0
 20 21  2  0
 20 27  1  0
 21 22  1  0
 22 23  2  0
 23 24  1  0
 23 26  1  0
 24 25  1  0
 26 27  2  0
M  CHG  2  10   1  25   1
M  END
