
     RDKit          3D

 27 30  0  0  0  0  0  0  0  0999 V2000
    4.4940   -3.2910    0.9360 C   0  0  0  0  0  0  0  0  0  0  0  0
    3.6030   -2.1100    0.9340 C   0  0  0  0  0  0  0  0  0  0  0  0
    4.0840   -0.9350    0.6310 C   0  0  0  0  0  0  0  0  0  0  0  0
    5.5390   -0.8530    0.2930 C   0  0  0  0  0  0  0  0  0  0  0  0
    5.9410    0.4780   -0.1880 C   0  0  0  0  0  0  0  0  0  0  0  0
    7.1230    0.8630   -0.6410 C   0  0  0  0  0  0  0  0  0  0  0  0
    7.0660    2.2940   -1.0090 C   0  0  0  0  0  0  0  0  0  0  0  0
    5.6760    2.6690   -0.6910 C   0  0  0  0  0  0  0  0  0  0  0  0
    5.0310    1.6160   -0.2200 C   0  0  0  0  0  0  0  0  0  0  0  0
    3.6520    1.4250    0.2020 C   0  0  0  0  0  0  0  0  0  0  0  0
    3.2120    0.2210    0.6060 C   0  0  0  0  0  0  0  0  0  0  0  0
    1.5750    0.1020    1.1380 S   0  0  2  0  0  0  0  0  0  0  0  0
    1.1580    1.5260    1.5650 O   0  0  0  0  0  0  0  0  0  0  0  0
    1.4660   -0.7720    2.3400 O   0  0  0  0  0  0  0  0  0  0  0  0
    0.4760   -0.4540   -0.1090 C   0  0  0  0  0  0  0  0  0  0  0  0
   -0.9200   -0.5370    0.4560 C   0  0  1  0  0  0  0  0  0  0  0  0
   -1.3440    0.8200    0.9310 C   0  0  0  0  0  0  0  0  0  0  0  0
   -2.8230    0.7660    0.7960 C   0  0  0  0  0  0  0  0  0  0  0  0
   -3.5780    1.5170    1.4620 O   0  0  0  0  0  0  0  0  0  0  0  0
   -3.1610   -0.2280   -0.1620 N   0  0  0  0  0  0  0  0  0  0  0  0
   -4.5410   -0.5200   -0.5840 C   0  0  2  0  0  0  0  0  0  0  0  0
   -5.1690    0.6230   -1.3050 C   0  0  0  0  0  0  0  0  0  0  0  0
   -6.0930    1.4790   -0.5340 C   0  0  0  0  0  0  0  0  0  0  0  0
   -6.8110    0.8470    0.5990 C   0  0  0  0  0  0  0  0  0  0  0  0
   -6.7990   -0.6580    0.4870 C   0  0  0  0  0  0  0  0  0  0  0  0
   -5.3470   -1.0860    0.5410 C   0  0  0  0  0  0  0  0  0  0  0  0
   -1.9360   -0.8600   -0.6120 C   0  0  0  0  0  0  0  0  0  0  0  0
  1  2  1  0
  2  3  2  3
  3  4  1  0
  3 11  1  0
  4  5  1  0
  5  6  2  0
  5  9  1  0
  6  7  1  0
  7  8  1  0
  8  9  2  0
  9 10  1  0
 10 11  2  0
 11 12  1  0
 12 13  2  0
 12 14  2  0
 12 15  1  6
 16 15  1  6
 16 17  1  0
 16 27  1  0
 17 18  1  0
 18 19  2  0
 18 20  1  0
 21 20  1  1
 20 27  1  0
 21 22  1  0
 21 26  1  0
 22 23  1  0
 23 24  1  0
 24 25  1  0
 25 26  1  0
M  END
