
     RDKit          3D

 27 29  0  0  0  0  0  0  0  0999 V2000
   -6.1850    1.6550   -1.1510 C   0  0  0  0  0  0  0  0  0  0  0  0
   -5.5760    0.5150   -0.8780 C   0  0  0  0  0  0  0  0  0  0  0  0
   -6.3870   -0.7020   -0.6000 C   0  0  0  0  0  0  0  0  0  0  0  0
   -5.5410   -1.5460    0.3650 C   0  0  2  0  0  0  0  0  0  0  0  0
   -6.4090   -2.5170    1.1300 C   0  0  0  0  0  0  0  0  0  0  0  0
   -4.8620   -0.5530    1.2850 C   0  0  0  0  0  0  0  0  0  0  0  0
   -3.6290   -0.0380    0.5240 C   0  0  1  0  0  0  0  0  0  0  0  0
   -2.6500   -1.0490    0.5730 N   0  0  0  0  0  0  0  0  0  0  0  0
   -1.2890   -0.6690    0.4910 C   0  0  0  0  0  0  0  0  0  0  0  0
   -1.0500    0.6300   -0.2550 C   0  0  0  0  0  0  0  0  0  0  0  0
    0.4390    0.9590   -0.2970 C   0  0  1  0  0  0  0  0  0  0  0  0
    0.8340    1.0710    1.0530 O   0  0  0  0  0  0  0  0  0  0  0  0
    1.2200   -0.0800   -1.0370 C   0  0  0  0  0  0  0  0  0  0  0  0
    2.4900    0.5070   -1.6610 C   0  0  0  0  0  0  0  0  0  0  0  0
    2.9520    1.6420   -0.8530 N   0  0  0  0  0  0  0  0  0  0  0  0
    4.1920    1.5840   -0.2010 C   0  0  0  0  0  0  0  0  0  0  0  0
    4.5750    2.5590    0.4850 O   0  0  0  0  0  0  0  0  0  0  0  0
    5.0630    0.3930   -0.3050 C   0  0  0  0  0  0  0  0  0  0  0  0
    6.3390    0.5950    0.4940 C   0  0  0  0  0  0  0  0  0  0  0  0
    7.2040   -0.5590    0.4040 N   0  0  0  0  0  0  0  0  0  0  0  0
    7.1680   -1.6150    1.2590 C   0  0  0  0  0  0  0  0  0  0  0  0
    8.1220   -2.5280    0.8810 C   0  0  0  0  0  0  0  0  0  0  0  0
    8.7390   -2.0020   -0.2240 C   0  0  0  0  0  0  0  0  0  0  0  0
    8.1580   -0.8220   -0.4760 N   0  0  0  0  0  0  0  0  0  0  0  0
    2.0550    2.7760   -0.7910 C   0  0  0  0  0  0  0  0  0  0  0  0
    0.6110    2.3400   -0.8950 C   0  0  0  0  0  0  0  0  0  0  0  0
   -4.0960    0.3710   -0.8300 C   0  0  0  0  0  0  0  0  0  0  0  0
  1  2  2  0
  2  3  1  0
  2 27  1  0
  3  4  1  0
  4  5  1  1
  4  6  1  0
  6  7  1  0
  7  8  1  6
  7 27  1  0
  8  9  1  0
  9 10  1  0
 10 11  1  0
 11 12  1  1
 11 13  1  0
 11 26  1  0
 13 14  1  0
 14 15  1  0
 15 16  1  0
 15 25  1  0
 16 17  2  0
 16 18  1  0
 18 19  1  0
 19 20  1  0
 20 21  1  0
 20 24  1  0
 21 22  2  0
 22 23  1  0
 23 24  2  0
 25 26  1  0
M  CHG  1   8   1
M  END
