
     RDKit          3D

 27 29  0  0  0  0  0  0  0  0999 V2000
    4.7440    1.5180   -2.6920 C   0  0  0  0  0  0  0  0  0  0  0  0
    4.1060    0.9860   -1.5560 O   0  0  0  0  0  0  0  0  0  0  0  0
    4.7960    0.6410   -0.4020 C   0  0  0  0  0  0  0  0  0  0  0  0
    4.0990    0.2670    0.6430 C   0  0  0  0  0  0  0  0  0  0  0  0
    2.6480    0.1860    0.6800 C   0  0  0  0  0  0  0  0  0  0  0  0
    2.1020   -0.8760    1.3970 C   0  0  0  0  0  0  0  0  0  0  0  0
    0.7280   -0.9820    1.4540 C   0  0  0  0  0  0  0  0  0  0  0  0
   -0.1120   -0.0910    0.8410 C   0  0  0  0  0  0  0  0  0  0  0  0
   -1.5500   -0.2520    0.9390 C   0  0  2  0  0  0  0  0  0  0  0  0
   -1.9340   -1.5620    1.5670 C   0  0  0  0  0  0  0  0  0  0  0  0
   -1.8180   -2.7920    0.7790 C   0  0  0  0  0  0  0  0  0  0  0  0
   -1.2930   -2.7450   -0.6010 C   0  0  0  0  0  0  0  0  0  0  0  0
   -2.3080   -2.0340   -1.4790 C   0  0  0  0  0  0  0  0  0  0  0  0
   -2.0470   -0.5300   -1.4390 C   0  0  0  0  0  0  0  0  0  0  0  0
   -2.3900    0.0220   -0.1610 N   0  0  2  0  0  0  0  0  0  0  0  0
   -2.7850    1.4160   -0.2200 C   0  0  0  0  0  0  0  0  0  0  0  0
   -4.3090    1.5890   -0.1550 C   0  0  0  0  0  0  0  0  0  0  0  0
   -4.8420    1.0490    1.0690 N   0  0  0  0  0  0  0  0  0  0  0  0
   -6.2370    1.1050    1.3380 C   0  0  0  0  0  0  0  0  0  0  0  0
   -7.0950    1.2590    0.3660 N   0  0  0  0  0  0  0  0  0  0  0  0
    0.4510    0.9660    0.1290 C   0  0  0  0  0  0  0  0  0  0  0  0
    1.8090    1.0840    0.0630 C   0  0  0  0  0  0  0  0  0  0  0  0
    6.2500    0.7030   -0.3800 C   0  0  0  0  0  0  0  0  0  0  0  0
    7.0580    0.3920    0.6880 C   0  0  0  0  0  0  0  0  0  0  0  0
    8.3600    0.5890    0.2760 C   0  0  0  0  0  0  0  0  0  0  0  0
    8.2680    1.0020   -1.0010 N   0  0  0  0  0  0  0  0  0  0  0  0
    7.0280    1.0570   -1.3490 O   0  0  0  0  0  0  0  0  0  0  0  0
  1  2  1  0
  2  3  1  0
  3  4  2  3
  3 23  1  0
  4  5  1  0
  5  6  2  0
  5 22  1  0
  6  7  1  0
  7  8  2  0
  9  8  1  6
  8 21  1  0
  9 10  1  0
  9 15  1  0
 10 11  1  0
 11 12  1  0
 12 13  1  0
 13 14  1  0
 14 15  1  0
 15 16  1  6
 16 17  1  0
 17 18  1  0
 18 19  1  0
 19 20  2  0
 21 22  2  0
 23 24  2  0
 23 27  1  0
 24 25  1  0
 25 26  2  0
 26 27  1  0
M  CHG  2  15   1  20   1
M  END
