
     RDKit          3D

 10 10  0  0  0  0  0  0  0  0999 V2000
    3.2540   -0.4150   -0.7710 N   0  0  0  0  0  0  0  0  0  0  0  0
    2.5070    0.0420    0.3750 C   0  0  0  0  0  0  0  0  0  0  0  0
    1.0430    0.0270    0.1400 C   0  0  0  0  0  0  0  0  0  0  0  0
    0.4530   -0.3490   -0.9650 C   0  0  0  0  0  0  0  0  0  0  0  0
   -1.0010   -0.3650   -1.2020 C   0  0  0  0  0  0  0  0  0  0  0  0
   -1.8010    0.1530   -0.0550 C   0  0  1  0  0  0  0  0  0  0  0  0
   -3.0840   -0.5530    0.0820 N   0  0  0  0  0  0  0  0  0  0  0  0
   -1.1100    0.0690    1.2630 C   0  0  1  0  0  0  0  0  0  0  0  0
   -1.1990   -1.2560    1.7130 O   0  0  0  0  0  0  0  0  0  0  0  0
    0.2440    0.4520    1.1930 O   0  0  0  0  0  0  0  0  0  0  0  0
  1  2  1  0
  2  3  1  0
  3  4  2  0
  3 10  1  0
  4  5  1  0
  5  6  1  0
  6  7  1  1
  6  8  1  0
  8  9  1  6
  8 10  1  0
M  END
