
     RDKit          3D

 27 30  0  0  0  0  0  0  0  0999 V2000
    4.5020   -2.3870   -2.3430 C   0  0  0  0  0  0  0  0  0  0  0  0
    5.2970   -1.4130   -2.0870 C   0  0  0  0  0  0  0  0  0  0  0  0
    5.1780   -0.2570   -1.2370 C   0  0  0  0  0  0  0  0  0  0  0  0
    6.2740    0.5350   -1.1880 C   0  0  0  0  0  0  0  0  0  0  0  0
    6.5720    1.7630   -0.4710 C   0  0  0  0  0  0  0  0  0  0  0  0
    6.1120    2.3150    0.6740 C   0  0  0  0  0  0  0  0  0  0  0  0
    5.1030    1.8540    1.6490 C   0  0  0  0  0  0  0  0  0  0  0  0
    4.0050    1.1360    1.6340 C   0  0  0  0  0  0  0  0  0  0  0  0
    3.2770    0.4410    0.5410 C   0  0  0  0  0  0  0  0  0  0  0  0
    1.9390    0.3270    0.6110 C   0  0  0  0  0  0  0  0  0  0  0  0
    1.2260   -0.2450   -0.3460 C   0  0  0  0  0  0  0  0  0  0  0  0
   -0.1970   -0.5040   -0.5160 C   0  0  0  0  0  0  0  0  0  0  0  0
   -0.5500   -1.0840   -1.5710 O   0  0  0  0  0  0  0  0  0  0  0  0
   -1.1460   -0.1300    0.4470 N   0  0  0  0  0  0  0  0  0  0  0  0
   -2.5710   -0.3670    0.3180 C   0  0  1  0  0  0  0  0  0  0  0  0
   -3.0960    0.3720   -0.8870 C   0  0  1  0  0  0  0  0  0  0  0  0
   -4.5520    0.1730   -1.1350 C   0  0  0  0  0  0  0  0  0  0  0  0
   -5.0390    1.5040   -1.7070 C   0  0  0  0  0  0  0  0  0  0  0  0
   -4.0290    2.4300   -1.0640 C   0  0  0  0  0  0  0  0  0  0  0  0
   -2.8960    1.7210   -0.8230 O   0  0  0  0  0  0  0  0  0  0  0  0
   -2.7270   -1.8660    0.1490 C   0  0  0  0  0  0  0  0  0  0  0  0
   -4.0570   -2.4140    0.5000 C   0  0  0  0  0  0  0  0  0  0  0  0
   -4.6520   -1.9320    1.6320 O   0  0  0  0  0  0  0  0  0  0  0  0
   -3.7510   -1.1810    2.3710 C   0  0  0  0  0  0  0  0  0  0  0  0
   -3.2400    0.0160    1.5930 C   0  0  0  0  0  0  0  0  0  0  0  0
    2.4630   -0.7300   -1.5610 S   0  0  0  0  0  0  0  0  0  0  0  0
    3.8590   -0.0870   -0.6070 C   0  0  0  0  0  0  0  0  0  0  0  0
  1  2  2  0
  2  3  1  0
  3  4  2  0
  3 27  1  0
  4  5  1  0
  5  6  2  0
  6  7  1  0
  7  8  2  0
  8  9  1  0
  9 10  1  0
  9 27  2  0
 10 11  2  0
 11 12  1  0
 11 26  1  0
 12 13  2  0
 12 14  1  0
 15 14  1  1
 15 16  1  0
 15 21  1  0
 15 25  1  0
 16 17  1  1
 16 20  1  0
 17 18  1  0
 18 19  1  0
 19 20  1  0
 21 22  1  0
 22 23  1  0
 23 24  1  0
 24 25  1  0
 26 27  1  0
M  END
