
     RDKit          3D

 27 30  0  0  0  0  0  0  0  0999 V2000
    6.4290    2.1180    1.7080 C   0  0  0  0  0  0  0  0  0  0  0  0
    5.7390    1.1000    1.0230 O   0  0  0  0  0  0  0  0  0  0  0  0
    4.7120    0.3040    1.6730 C   0  0  0  0  0  0  0  0  0  0  0  0
    4.4400    0.5600    2.8160 O   0  0  0  0  0  0  0  0  0  0  0  0
    4.1510   -0.6980    0.7730 C   0  0  0  0  0  0  0  0  0  0  0  0
    4.4950   -1.9960    0.5660 C   0  0  0  0  0  0  0  0  0  0  0  0
    5.4910   -2.7450    1.3420 C   0  0  0  0  0  0  0  0  0  0  0  0
    3.7940   -2.4960   -0.4310 O   0  0  0  0  0  0  0  0  0  0  0  0
    2.9570   -1.5770   -0.9160 C   0  0  0  0  0  0  0  0  0  0  0  0
    2.0480   -1.7650   -2.0630 C   0  0  0  0  0  0  0  0  0  0  0  0
    3.1350   -0.4280   -0.1790 C   0  0  0  0  0  0  0  0  0  0  0  0
    2.5710    0.9130   -0.3640 C   0  0  0  0  0  0  0  0  0  0  0  0
    1.1970    1.0000   -0.0410 N   0  0  0  0  0  0  0  0  0  0  0  0
    0.1710    0.2820   -0.6470 C   0  0  0  0  0  0  0  0  0  0  0  0
   -1.1430    0.9110   -0.2690 C   0  0  0  0  0  0  0  0  0  0  0  0
   -1.3420    2.5400    0.3880 S   0  0  0  0  0  0  0  0  0  0  0  0
   -3.0500    2.6480    0.2470 C   0  0  0  0  0  0  0  0  0  0  0  0
   -3.9430    3.7800    0.6520 C   0  0  0  0  0  0  0  0  0  0  0  0
   -3.4030    1.4050   -0.2970 C   0  0  0  0  0  0  0  0  0  0  0  0
   -2.4240    0.5300   -0.5440 C   0  0  0  0  0  0  0  0  0  0  0  0
   -2.7950   -0.8780   -0.9420 C   0  0  0  0  0  0  0  0  0  0  0  0
   -4.1350   -1.2520   -0.4020 C   0  0  0  0  0  0  0  0  0  0  0  0
   -4.7080   -2.3420    0.0950 C   0  0  0  0  0  0  0  0  0  0  0  0
   -6.1180   -2.1030    0.4700 C   0  0  0  0  0  0  0  0  0  0  0  0
   -6.3340   -0.6810    0.1030 C   0  0  0  0  0  0  0  0  0  0  0  0
   -5.1960   -0.2130   -0.3760 C   0  0  0  0  0  0  0  0  0  0  0  0
   -4.8050    1.1030   -0.8560 C   0  0  0  0  0  0  0  0  0  0  0  0
  1  2  1  0
  2  3  1  0
  3  4  2  0
  3  5  1  0
  5  6  2  0
  5 11  1  0
  6  7  1  0
  6  8  1  0
  8  9  1  0
  9 10  1  0
  9 11  2  0
 11 12  1  0
 12 13  1  0
 13 14  1  0
 14 15  1  0
 15 16  1  0
 15 20  2  0
 16 17  1  0
 17 18  1  0
 17 19  2  0
 19 20  1  0
 19 27  1  0
 20 21  1  0
 21 22  1  0
 22 23  2  0
 22 26  1  0
 23 24  1  0
 24 25  1  0
 25 26  2  0
 26 27  1  0
M  END
