
     RDKit          3D

 29 33  0  0  0  0  0  0  0  0999 V2000
    7.3840    1.9740   -2.6820 C   0  0  0  0  0  0  0  0  0  0  0  0
    5.9910    1.8180   -2.4890 O   0  0  0  0  0  0  0  0  0  0  0  0
    5.5450    1.0840   -1.4020 C   0  0  0  0  0  0  0  0  0  0  0  0
    6.3970    0.4950   -0.4950 C   0  0  0  0  0  0  0  0  0  0  0  0
    5.9020   -0.2320    0.5800 C   0  0  0  0  0  0  0  0  0  0  0  0
    4.5580   -0.3970    0.7890 C   0  0  0  0  0  0  0  0  0  0  0  0
    4.0710   -1.1930    1.9660 C   0  0  0  0  0  0  0  0  0  0  0  0
    3.6740    0.1920   -0.1210 C   0  0  0  0  0  0  0  0  0  0  0  0
    2.3040   -0.0180    0.1550 N   0  0  0  0  0  0  0  0  0  0  0  0
    1.2040    0.4600   -0.5940 C   0  0  0  0  0  0  0  0  0  0  0  0
    1.4020    1.1450   -1.6130 O   0  0  0  0  0  0  0  0  0  0  0  0
   -0.1880    0.1460   -0.1650 C   0  0  0  0  0  0  0  0  0  0  0  0
   -0.5820   -0.5920    0.9280 C   0  0  0  0  0  0  0  0  0  0  0  0
   -1.9540   -0.6530    0.9790 C   0  0  0  0  0  0  0  0  0  0  0  0
   -2.8590   -1.2490    1.8450 C   0  0  0  0  0  0  0  0  0  0  0  0
   -4.2070   -1.1180    1.6090 C   0  0  0  0  0  0  0  0  0  0  0  0
   -5.2180   -1.7460    2.5200 C   0  0  0  0  0  0  0  0  0  0  0  0
   -4.6730   -0.3990    0.5200 C   0  0  0  0  0  0  0  0  0  0  0  0
   -3.7440    0.1840   -0.3250 C   0  0  0  0  0  0  0  0  0  0  0  0
   -2.3940    0.0710   -0.1160 C   0  0  0  0  0  0  0  0  0  0  0  0
   -1.3150    0.5370   -0.7830 N   0  0  0  0  0  0  0  0  0  0  0  0
   -4.5310    0.8610   -1.3600 C   0  0  0  0  0  0  0  0  0  0  0  0
   -4.0050    1.5030   -2.3060 O   0  0  0  0  0  0  0  0  0  0  0  0
   -5.9060    0.6410   -1.0720 N   0  0  0  0  0  0  0  0  0  0  0  0
   -7.1380    0.8900   -1.4800 N   0  0  0  0  0  0  0  0  0  0  0  0
   -8.0470    0.3420   -0.6870 C   0  0  0  0  0  0  0  0  0  0  0  0
   -7.3720   -0.3120    0.3110 C   0  0  0  0  0  0  0  0  0  0  0  0
   -6.0240   -0.1100    0.0490 C   0  0  0  0  0  0  0  0  0  0  0  0
    4.1720    0.9120   -1.1840 C   0  0  0  0  0  0  0  0  0  0  0  0
  1  2  1  0
  2  3  1  0
  3  4  2  0
  3 29  1  0
  4  5  1  0
  5  6  2  0
  6  7  1  0
  6  8  1  0
  8  9  1  0
  8 29  2  0
  9 10  1  0
 10 11  2  0
 10 12  1  0
 12 13  2  0
 12 21  1  0
 13 14  1  0
 14 15  2  0
 14 20  1  0
 15 16  1  0
 16 17  1  0
 16 18  2  0
 18 19  1  0
 18 28  1  0
 19 20  2  0
 19 22  1  0
 20 21  1  0
 22 23  2  0
 22 24  1  0
 24 25  1  0
 24 28  1  0
 25 26  2  0
 26 27  1  0
 27 28  2  0
M  END
