
     RDKit          3D

 29 32  0  0  0  0  0  0  0  0999 V2000
   -5.1330    1.9510   -0.8750 C   0  0  0  0  0  0  0  0  0  0  0  0
   -4.0500    2.4560    0.0140 C   0  0  0  0  0  0  0  0  0  0  0  0
   -2.7940    1.6270    0.0170 C   0  0  2  0  0  0  0  0  0  0  0  0
   -2.2180    1.5720   -1.3720 C   0  0  0  0  0  0  0  0  0  0  0  0
   -2.9760    0.3120    0.6440 C   0  0  0  0  0  0  0  0  0  0  0  0
   -4.1330   -0.1540    1.1290 N   0  0  0  0  0  0  0  0  0  0  0  0
   -3.9780   -1.3780    1.6330 C   0  0  0  0  0  0  0  0  0  0  0  0
   -4.9810   -2.2620    2.2670 C   0  0  0  0  0  0  0  0  0  0  0  0
   -2.6450   -1.7280    1.4670 C   0  0  0  0  0  0  0  0  0  0  0  0
   -2.0520   -2.9220    1.8520 O   0  0  0  0  0  0  0  0  0  0  0  0
   -2.0070   -0.6510    0.8360 C   0  0  0  0  0  0  0  0  0  0  0  0
   -0.5980   -0.5800    0.4670 C   0  0  0  0  0  0  0  0  0  0  0  0
    0.3610   -0.0900    1.3310 C   0  0  0  0  0  0  0  0  0  0  0  0
    1.6960   -0.0230    0.9900 C   0  0  0  0  0  0  0  0  0  0  0  0
    2.0510   -0.4690   -0.2660 C   0  0  0  0  0  0  0  0  0  0  0  0
    1.0920   -0.9610   -1.1360 C   0  0  0  0  0  0  0  0  0  0  0  0
   -0.1940   -0.9990   -0.7400 N   0  0  0  0  0  0  0  0  0  0  0  0
    1.7170   -1.3380   -2.3200 C   0  0  0  0  0  0  0  0  0  0  0  0
    1.0820   -1.9040   -3.5010 C   0  0  0  0  0  0  0  0  0  0  0  0
   -0.1500   -2.1220   -3.5780 O   0  0  0  0  0  0  0  0  0  0  0  0
    3.0030   -1.0700   -2.1390 N   0  0  0  0  0  0  0  0  0  0  0  0
    3.2300   -0.5550   -0.9310 N   0  0  0  0  0  0  0  0  0  0  0  0
    4.4640   -0.1420   -0.3580 C   0  0  0  0  0  0  0  0  0  0  0  0
    4.7230    1.1730   -0.0120 C   0  0  0  0  0  0  0  0  0  0  0  0
    5.9410    1.5150    0.5440 C   0  0  0  0  0  0  0  0  0  0  0  0
    6.9240    0.5750    0.7690 C   0  0  0  0  0  0  0  0  0  0  0  0
    8.1450    0.9640    1.3350 O   0  0  0  0  0  0  0  0  0  0  0  0
    6.6680   -0.7330    0.4260 C   0  0  0  0  0  0  0  0  0  0  0  0
    5.4490   -1.0800   -0.1310 C   0  0  0  0  0  0  0  0  0  0  0  0
  1  2  1  0
  2  3  1  0
  3  4  1  6
  3  5  1  0
  5  6  1  0
  5 11  2  0
  6  7  1  0
  7  8  1  0
  7  9  2  0
  9 10  1  0
  9 11  1  0
 11 12  1  0
 12 13  2  0
 12 17  1  0
 13 14  1  0
 14 15  2  0
 15 16  1  0
 15 22  1  0
 16 17  2  0
 16 18  1  0
 18 19  1  0
 18 21  2  0
 19 20  2  0
 21 22  1  0
 22 23  1  0
 23 24  2  0
 23 29  1  0
 24 25  1  0
 25 26  2  0
 26 27  1  0
 26 28  1  0
 28 29  2  0
M  END
