
     RDKit          3D

 29 32  0  0  0  0  0  0  0  0999 V2000
   -5.0460    3.2040   -0.5370 C   0  0  0  0  0  0  0  0  0  0  0  0
   -4.9600    2.0530    0.4330 C   0  0  0  0  0  0  0  0  0  0  0  0
   -3.8730    1.1160    0.0270 C   0  0  0  0  0  0  0  0  0  0  0  0
   -4.1750   -0.1240   -0.2790 C   0  0  0  0  0  0  0  0  0  0  0  0
   -5.5920   -0.5500   -0.2130 C   0  0  0  0  0  0  0  0  0  0  0  0
   -5.8720   -1.9050   -0.7840 C   0  0  0  0  0  0  0  0  0  0  0  0
   -4.8220   -2.4150   -1.6550 C   0  0  0  0  0  0  0  0  0  0  0  0
   -5.1100   -3.0680   -2.6780 O   0  0  0  0  0  0  0  0  0  0  0  0
   -3.4180   -2.1800   -1.3590 C   0  0  0  0  0  0  0  0  0  0  0  0
   -2.4220   -3.0420   -1.7290 C   0  0  0  0  0  0  0  0  0  0  0  0
   -1.1600   -2.7580   -1.4140 N   0  0  0  0  0  0  0  0  0  0  0  0
   -0.7680   -1.6400   -0.7310 C   0  0  0  0  0  0  0  0  0  0  0  0
    0.6080   -1.4450   -0.4530 N   0  0  0  0  0  0  0  0  0  0  0  0
    1.2310   -0.3920    0.2200 C   0  0  0  0  0  0  0  0  0  0  0  0
    0.4520    0.5350    0.6500 O   0  0  0  0  0  0  0  0  0  0  0  0
    2.6640   -0.2560    0.4720 C   0  0  0  0  0  0  0  0  0  0  0  0
    3.5370   -1.1410    0.0780 C   0  0  0  0  0  0  0  0  0  0  0  0
    4.9710   -1.1940    0.2230 N   0  0  0  0  0  0  0  0  0  0  0  0
    5.8590   -0.1230    0.4710 C   0  0  0  0  0  0  0  0  0  0  0  0
    7.1660   -0.4220    0.1460 C   0  0  0  0  0  0  0  0  0  0  0  0
    8.1900    0.4850    0.3110 C   0  0  0  0  0  0  0  0  0  0  0  0
    7.9070    1.7400    0.8190 C   0  0  0  0  0  0  0  0  0  0  0  0
    6.5940    2.0760    1.1580 C   0  0  0  0  0  0  0  0  0  0  0  0
    5.5830    1.1490    0.9830 C   0  0  0  0  0  0  0  0  0  0  0  0
    4.2950    1.6120    1.3650 N   0  0  0  0  0  0  0  0  0  0  0  0
    3.0350    0.9700    1.2110 C   0  0  0  0  0  0  0  0  0  0  0  0
    2.0550    1.5200    1.7910 O   0  0  0  0  0  0  0  0  0  0  0  0
   -1.7450   -0.7800   -0.3600 C   0  0  0  0  0  0  0  0  0  0  0  0
   -3.1020   -1.0210   -0.6630 C   0  0  0  0  0  0  0  0  0  0  0  0
  1  2  1  0
  2  3  1  0
  3  4  2  3
  4  5  1  0
  4 29  1  0
  5  6  1  0
  6  7  1  0
  7  8  2  0
  7  9  1  0
  9 10  2  0
  9 29  1  0
 10 11  1  0
 11 12  2  0
 12 13  1  0
 12 28  1  0
 13 14  1  0
 14 15  2  0
 14 16  1  0
 16 17  2  0
 16 26  1  0
 17 18  1  0
 18 19  1  0
 19 20  2  0
 19 24  1  0
 20 21  1  0
 21 22  2  0
 22 23  1  0
 23 24  2  0
 24 25  1  0
 25 26  1  0
 26 27  2  0
 28 29  2  0
M  END
