
     RDKit          3D

 29 32  0  0  0  0  0  0  0  0999 V2000
   -4.4920   -3.7600    0.1860 C   0  0  0  0  0  0  0  0  0  0  0  0
   -3.6240   -2.5840    0.1080 C   0  0  0  0  0  0  0  0  0  0  0  0
   -4.0000   -1.3420    0.4290 C   0  0  0  0  0  0  0  0  0  0  0  0
   -5.3550   -1.1030    0.8840 C   0  0  0  0  0  0  0  0  0  0  0  0
   -2.9850   -0.3070    0.3910 C   0  0  0  0  0  0  0  0  0  0  0  0
   -1.6700   -0.6040    0.3480 O   0  0  0  0  0  0  0  0  0  0  0  0
   -0.9030    0.4210    0.3310 C   0  0  0  0  0  0  0  0  0  0  0  0
    0.4980    0.6620    0.2750 C   0  0  0  0  0  0  0  0  0  0  0  0
    1.1300    1.6100    0.4810 O   0  0  0  0  0  0  0  0  0  0  0  0
    1.3890   -0.7210   -0.2050 N   0  0  0  0  0  0  0  0  0  0  0  0
    2.6530   -0.1480   -0.1600 C   0  0  0  0  0  0  0  0  0  0  0  0
    3.0980    0.9120    0.0960 O   0  0  0  0  0  0  0  0  0  0  0  0
    3.6430   -1.2100   -0.5400 N   0  0  0  0  0  0  0  0  0  0  0  0
    4.9870   -1.0040   -0.5850 C   0  0  0  0  0  0  0  0  0  0  0  0
    5.7660   -2.1700   -0.5180 C   0  0  0  0  0  0  0  0  0  0  0  0
    7.1330   -2.1020   -0.4920 C   0  0  0  0  0  0  0  0  0  0  0  0
    7.7520   -0.8890   -0.5290 C   0  0  0  0  0  0  0  0  0  0  0  0
    9.0430   -0.5420   -0.5060 N   0  0  0  0  0  0  0  0  0  0  0  0
    9.1320    0.8060   -0.5550 C   0  0  0  0  0  0  0  0  0  0  0  0
    7.8700    1.2930   -0.6080 N   0  0  0  0  0  0  0  0  0  0  0  0
    6.9940    0.2600   -0.5940 C   0  0  0  0  0  0  0  0  0  0  0  0
    5.6160    0.1950   -0.6230 C   0  0  0  0  0  0  0  0  0  0  0  0
   -1.7700    1.5210    0.3680 C   0  0  0  0  0  0  0  0  0  0  0  0
   -3.0720    1.0160    0.3960 C   0  0  0  0  0  0  0  0  0  0  0  0
   -4.2050    1.9560    0.1980 C   0  0  0  0  0  0  0  0  0  0  0  0
   -5.3350    1.8120   -0.4050 C   0  0  0  0  0  0  0  0  0  0  0  0
   -6.1190    3.0670   -0.3100 C   0  0  0  0  0  0  0  0  0  0  0  0
   -5.2630    3.9740    0.4740 C   0  0  0  0  0  0  0  0  0  0  0  0
   -4.1490    3.3210    0.7560 C   0  0  0  0  0  0  0  0  0  0  0  0
  1  2  1  0
  2  3  2  3
  3  4  1  0
  3  5  1  0
  5  6  1  0
  5 24  2  0
  6  7  1  0
  7  8  1  0
  7 23  2  0
  8  9  2  0
  8 10  1  0
 10 11  1  0
 11 12  2  0
 11 13  1  0
 13 14  1  0
 14 15  2  0
 14 22  1  0
 15 16  1  0
 16 17  2  0
 17 18  1  0
 17 21  1  0
 18 19  2  0
 19 20  1  0
 20 21  1  0
 21 22  2  0
 23 24  1  0
 24 25  1  0
 25 26  2  0
 25 29  1  0
 26 27  1  0
 27 28  1  0
 28 29  2  0
M  END
