
     RDKit          3D

 28 31  0  0  0  0  0  0  0  0999 V2000
    4.2740   -3.7880   -0.8250 C   0  0  0  0  0  0  0  0  0  0  0  0
    4.5740   -2.5000   -1.4680 C   0  0  0  0  0  0  0  0  0  0  0  0
    4.3070   -1.3390   -0.9410 C   0  0  0  0  0  0  0  0  0  0  0  0
    3.6670   -1.1860    0.3720 C   0  0  0  0  0  0  0  0  0  0  0  0
    2.4130   -0.4360    0.3000 N   0  0  0  0  0  0  0  0  0  0  0  0
    2.2810    0.9180    0.3930 C   0  0  0  0  0  0  0  0  0  0  0  0
    3.2520    1.6840    0.5490 O   0  0  0  0  0  0  0  0  0  0  0  0
    0.9860    1.2490    0.2910 N   0  0  0  0  0  0  0  0  0  0  0  0
    0.4570    2.5890    0.3440 C   0  0  0  0  0  0  0  0  0  0  0  0
    0.0560    3.2330   -0.8110 C   0  0  0  0  0  0  0  0  0  0  0  0
   -0.4540    4.5110   -0.8060 C   0  0  0  0  0  0  0  0  0  0  0  0
   -0.5670    5.1710    0.4100 C   0  0  0  0  0  0  0  0  0  0  0  0
   -0.1780    4.5620    1.5860 C   0  0  0  0  0  0  0  0  0  0  0  0
   -0.2940    5.2420    2.8380 N   0  0  0  0  0  0  0  0  0  0  0  0
    0.3320    3.2710    1.5320 C   0  0  0  0  0  0  0  0  0  0  0  0
    0.3120    0.1040    0.1350 C   0  0  0  0  0  0  0  0  0  0  0  0
   -0.9790   -0.1680   -0.0110 N   0  0  0  0  0  0  0  0  0  0  0  0
   -1.5140   -1.3980   -0.1570 C   0  0  0  0  0  0  0  0  0  0  0  0
   -2.9660   -1.5900   -0.3130 C   0  0  0  0  0  0  0  0  0  0  0  0
   -3.4830   -2.8480   -0.4590 C   0  0  0  0  0  0  0  0  0  0  0  0
   -4.8470   -3.0930   -0.6110 C   0  0  0  0  0  0  0  0  0  0  0  0
   -5.7330   -2.0610   -0.6180 C   0  0  0  0  0  0  0  0  0  0  0  0
   -5.2430   -0.7910   -0.4730 C   0  0  0  0  0  0  0  0  0  0  0  0
   -3.8630   -0.5410   -0.3200 C   0  0  0  0  0  0  0  0  0  0  0  0
   -3.5090    0.7600   -0.1860 O   0  0  0  0  0  0  0  0  0  0  0  0
   -0.6200   -2.4510   -0.1500 C   0  0  0  0  0  0  0  0  0  0  0  0
    0.7520   -2.2600   -0.0030 C   0  0  0  0  0  0  0  0  0  0  0  0
    1.2040   -0.9750    0.1390 C   0  0  0  0  0  0  0  0  0  0  0  0
  1  2  1  0
  2  3  2  3
  3  4  1  0
  4  5  1  0
  5  6  1  0
  5 28  1  0
  6  7  2  0
  6  8  1  0
  8  9  1  0
  8 16  1  0
  9 10  2  0
  9 15  1  0
 10 11  1  0
 11 12  2  0
 12 13  1  0
 13 14  1  0
 13 15  2  0
 16 17  2  0
 16 28  1  0
 17 18  1  0
 18 19  1  0
 18 26  2  0
 19 20  2  0
 19 24  1  0
 20 21  1  0
 21 22  2  0
 22 23  1  0
 23 24  2  0
 24 25  1  0
 26 27  1  0
 27 28  2  0
M  END
