
     RDKit          3D

 29 32  0  0  0  0  0  0  0  0999 V2000
   -5.9580    3.2380   -0.6780 C   0  0  0  0  0  0  0  0  0  0  0  0
   -5.6420    1.7850   -0.6600 C   0  0  0  0  0  0  0  0  0  0  0  0
   -6.3710    0.9300   -1.4590 C   0  0  0  0  0  0  0  0  0  0  0  0
   -6.1090   -0.4230   -1.4710 C   0  0  0  0  0  0  0  0  0  0  0  0
   -5.0930   -0.9510   -0.6660 C   0  0  0  0  0  0  0  0  0  0  0  0
   -4.3520   -0.1130    0.1410 C   0  0  0  0  0  0  0  0  0  0  0  0
   -3.3270   -0.6710    0.9480 N   0  0  0  0  0  0  0  0  0  0  0  0
   -3.5770   -1.3740    2.0660 C   0  0  0  0  0  0  0  0  0  0  0  0
   -4.7830   -1.5280    2.3880 O   0  0  0  0  0  0  0  0  0  0  0  0
   -2.6040   -1.8930    2.8140 N   0  0  0  0  0  0  0  0  0  0  0  0
   -1.2810   -1.7390    2.4850 C   0  0  0  0  0  0  0  0  0  0  0  0
   -0.9720   -1.0300    1.3530 C   0  0  0  0  0  0  0  0  0  0  0  0
    0.3450   -0.8080    0.9180 N   0  0  0  0  0  0  0  0  0  0  0  0
    1.5100   -1.2600    1.5470 C   0  0  0  0  0  0  0  0  0  0  0  0
    1.4550   -1.9270    2.5930 O   0  0  0  0  0  0  0  0  0  0  0  0
    2.8320   -0.9610    0.9910 C   0  0  0  0  0  0  0  0  0  0  0  0
    3.9560   -1.4240    1.6600 C   0  0  0  0  0  0  0  0  0  0  0  0
    5.2300   -1.1660    1.1720 C   0  0  0  0  0  0  0  0  0  0  0  0
    5.4040   -0.4400    0.0050 C   0  0  0  0  0  0  0  0  0  0  0  0
    4.2990    0.0230   -0.6640 C   0  0  0  0  0  0  0  0  0  0  0  0
    3.0370   -0.2450   -0.1610 C   0  0  0  0  0  0  0  0  0  0  0  0
    4.2920    0.8000   -1.9020 C   0  0  0  0  0  0  0  0  0  0  0  0
    5.3160    1.3230   -2.5540 C   0  0  0  0  0  0  0  0  0  0  0  0
    6.7460    1.3060   -2.2760 C   0  0  0  0  0  0  0  0  0  0  0  0
    7.3460    0.6200   -1.3320 C   0  0  0  0  0  0  0  0  0  0  0  0
    6.7720   -0.2640   -0.3570 N   0  0  0  0  0  0  0  0  0  0  0  0
   -2.0490   -0.5050    0.6030 C   0  0  0  0  0  0  0  0  0  0  0  0
   -1.7660    0.1570   -0.4550 O   0  0  0  0  0  0  0  0  0  0  0  0
   -4.6500    1.2340    0.1190 C   0  0  0  0  0  0  0  0  0  0  0  0
  1  2  1  0
  2  3  2  0
  2 29  1  0
  3  4  1  0
  4  5  2  0
  5  6  1  0
  6  7  1  0
  6 29  2  0
  7  8  1  0
  7 27  1  0
  8  9  2  0
  8 10  1  0
 10 11  1  0
 11 12  2  0
 12 13  1  0
 12 27  1  0
 13 14  1  0
 14 15  2  0
 14 16  1  0
 16 17  2  0
 16 21  1  0
 17 18  1  0
 18 19  2  0
 19 20  1  0
 19 26  1  0
 20 21  2  0
 20 22  1  0
 22 23  2  0
 23 24  1  0
 24 25  2  0
 25 26  1  0
 27 28  2  0
M  END
