
     RDKit          3D

 15 14  0  0  0  0  0  0  0  0999 V2000
    4.2530    1.3060   -0.1510 C   0  0  0  0  0  0  0  0  0  0  0  0
    2.9030    1.0980   -0.7680 C   0  0  0  0  0  0  0  0  0  0  0  0
    2.1340    0.0460   -0.1080 N   0  0  2  0  0  0  0  0  0  0  0  0
    2.0210    0.3450    1.2180 O   0  0  0  0  0  0  0  0  0  0  0  0
    2.8300   -1.5390   -0.3740 S   0  0  0  0  0  0  0  0  0  0  0  0
    4.3940   -1.7800    0.4840 C   0  0  0  0  0  0  0  0  0  0  0  0
    0.5700    0.0830   -0.7720 S   0  0  1  0  0  0  0  0  0  0  0  0
    0.1930    1.4950   -0.9450 O   0  0  0  0  0  0  0  0  0  0  0  0
    0.3820   -0.5960   -2.0640 O   0  0  0  0  0  0  0  0  0  0  0  0
   -0.4770   -1.1340    0.4880 S   0  0  0  0  0  0  0  0  0  0  0  0
   -1.9640   -0.2550    1.5060 S   0  0  0  0  0  0  0  0  0  0  0  0
   -3.4870   -0.1100    0.5190 C   0  0  2  0  0  0  0  0  0  0  0  0
   -4.6470    0.3910    1.3290 C   0  0  0  0  0  0  0  0  0  0  0  0
   -3.7570   -1.4210   -0.1680 C   0  0  0  0  0  0  0  0  0  0  0  0
   -3.1880    0.9070   -0.5770 C   0  0  0  0  0  0  0  0  0  0  0  0
  1  2  1  0
  2  3  1  0
  3  4  1  1
  3  5  1  0
  3  7  1  0
  5  6  1  0
  7  8  2  0
  7  9  2  0
  7 10  1  1
 10 11  1  0
 11 12  1  0
 12 13  1  1
 12 14  1  0
 12 15  1  0
M  CHG  2   3   1   4  -1
M  END
