
     RDKit          3D

 14 13  0  0  0  0  0  0  0  0999 V2000
   -4.4580    1.9510    0.6680 C   0  0  0  0  0  0  0  0  0  0  0  0
   -4.2480    0.4750    0.5110 C   0  0  0  0  0  0  0  0  0  0  0  0
   -2.8450    0.0370    0.4630 C   0  0  0  0  0  0  0  0  0  0  0  0
   -2.0700    0.4240    1.3630 O   0  0  0  0  0  0  0  0  0  0  0  0
   -2.2980   -0.8280   -0.5840 C   0  0  0  0  0  0  0  0  0  0  0  0
   -0.9340   -1.1240   -0.3260 O   0  0  0  0  0  0  0  0  0  0  0  0
   -0.2590   -1.9240   -1.2240 C   0  0  0  0  0  0  0  0  0  0  0  0
   -0.8740   -2.3560   -2.2310 O   0  0  0  0  0  0  0  0  0  0  0  0
    1.4260   -2.3690   -1.0070 S   0  0  0  0  0  0  0  0  0  0  0  0
    2.3240   -1.5720    0.7290 S   0  0  0  0  0  0  0  0  0  0  0  0
    3.0570   -0.0520    0.3970 O   0  0  0  0  0  0  0  0  0  0  0  0
    4.1920   -0.1870   -0.8930 S   0  0  0  0  0  0  0  0  0  0  0  0
    6.1000   -0.8270   -0.2300 S   0  0  0  0  0  0  0  0  0  0  0  0
    7.1630    0.5520    0.2100 C   0  0  0  0  0  0  0  0  0  0  0  0
  1  2  1  0
  2  3  1  0
  3  4  2  0
  3  5  1  0
  5  6  1  0
  6  7  1  0
  7  8  2  0
  7  9  1  0
  9 10  1  0
 10 11  1  0
 11 12  1  0
 12 13  1  0
 13 14  1  0
M  END
