
     RDKit          3D

 14 13  0  0  0  0  0  0  0  0999 V2000
    3.3020    1.7500   -0.3660 C   0  0  0  0  0  0  0  0  0  0  0  0
    3.6480    0.4840    0.8380 S   0  0  0  0  0  0  0  0  0  0  0  0
    2.4690   -1.2250    0.4440 S   0  0  0  0  0  0  0  0  0  0  0  0
    0.6680   -1.1860    1.4490 S   0  0  0  0  0  0  0  0  0  0  0  0
   -0.7550   -0.5250    0.6740 C   0  0  2  0  0  0  0  0  0  0  0  0
   -1.3270   -1.3420   -0.4490 C   0  0  0  0  0  0  0  0  0  0  0  0
   -0.8260   -2.4260   -0.8560 N   0  0  0  0  0  0  0  0  0  0  0  0
   -2.8030   -0.7170   -1.2420 S   0  0  0  0  0  0  0  0  0  0  0  0
   -0.5100    0.8260    0.1090 C   0  0  0  0  0  0  0  0  0  0  0  0
    0.2600    0.8650   -1.1680 C   0  0  0  0  0  0  0  0  0  0  0  0
   -0.9210    1.7950    0.6750 O   0  0  0  0  0  0  0  0  0  0  0  0
   -1.8840   -0.3810    1.6510 C   0  0  0  0  0  0  0  0  0  0  0  0
   -1.6980   -0.7280    2.8240 O   0  0  0  0  0  0  0  0  0  0  0  0
   -3.0780    0.1230    1.2320 O   0  0  0  0  0  0  0  0  0  0  0  0
  1  2  1  0
  2  3  1  0
  3  4  1  0
  5  4  1  1
  5  6  1  0
  5  9  1  0
  5 12  1  0
  6  7  2  0
  6  8  1  0
  9 10  1  0
  9 11  2  0
 12 13  2  0
 12 14  1  0
M  CHG  1   7   1
M  END
