
     RDKit          3D

 15 14  0  0  0  0  0  0  0  0999 V2000
   -3.0260    1.3880    0.1920 C   0  0  0  0  0  0  0  0  0  0  0  0
   -1.7950    0.6490   -0.1490 C   0  0  0  0  0  0  0  0  0  0  0  0
   -1.5810   -0.6190    0.0730 C   0  0  0  0  0  0  0  0  0  0  0  0
   -0.0360   -1.3390   -0.4070 S   0  0  0  0  0  0  0  0  0  0  0  0
    1.0180   -0.1430   -1.1480 N   0  0  0  0  0  0  0  0  0  0  0  0
    2.2320    0.0440   -0.8490 C   0  0  0  0  0  0  0  0  0  0  0  0
    3.1870    1.2960   -1.6840 S   0  0  0  0  0  0  0  0  0  0  0  0
    5.1820    1.3670   -0.9630 S   0  0  0  0  0  0  0  0  0  0  0  0
    5.3520    2.4470    0.3530 O   0  0  0  0  0  0  0  0  0  0  0  0
    2.8670   -0.7490    0.1730 C   0  0  0  0  0  0  0  0  0  0  0  0
    4.2040   -0.5380    0.4980 O   0  0  0  0  0  0  0  0  0  0  0  0
    1.9890   -1.9050    0.9460 S   0  0  0  0  0  0  0  0  0  0  0  0
   -2.5800   -1.4410    0.6990 C   0  0  0  0  0  0  0  0  0  0  0  0
   -3.8190   -0.9260    1.0990 O   0  0  0  0  0  0  0  0  0  0  0  0
   -2.2720   -3.0220    0.9580 S   0  0  0  0  0  0  0  0  0  0  0  0
  1  2  1  0
  2  3  2  3
  3  4  1  0
  3 13  1  0
  4  5  1  0
  5  6  2  3
  6  7  1  0
  6 10  1  0
  7  8  1  0
  8  9  1  0
 10 11  1  0
 10 12  2  0
 13 14  1  0
 13 15  2  0
M  CHG  1   9  -1
M  END
