
     RDKit          3D

 10  9  0  0  0  0  0  0  0  0999 V2000
   -2.8840   -1.5260   -0.2410 O   0  0  0  0  0  0  0  0  0  0  0  0
   -2.2170   -0.4490   -0.2310 C   0  0  0  0  0  0  0  0  0  0  0  0
   -2.8860    0.7270   -0.4390 O   0  0  0  0  0  0  0  0  0  0  0  0
   -0.7590   -0.5640    0.0090 C   0  0  0  0  0  0  0  0  0  0  0  0
   -0.1510    0.7930   -0.0150 C   0  0  0  0  0  0  0  0  0  0  0  0
    1.2980    0.8170    0.2110 C   0  0  0  0  0  0  0  0  0  0  0  0
    1.8500    1.9670    0.1930 O   0  0  0  0  0  0  0  0  0  0  0  0
    2.1100   -0.3650    0.4460 C   0  0  0  0  0  0  0  0  0  0  0  0
    1.6100   -1.5020    0.4710 O   0  0  0  0  0  0  0  0  0  0  0  0
    3.4660   -0.2450    0.6480 O   0  0  0  0  0  0  0  0  0  0  0  0
  1  2  2  0
  2  3  1  0
  2  4  1  0
  4  5  1  0
  5  6  1  0
  6  7  2  0
  6  8  1  0
  8  9  2  0
  8 10  1  0
M  END
