
     RDKit          3D

 15 14  0  0  0  0  0  0  0  0999 V2000
   -2.4800    1.9120    0.0150 N   0  0  0  0  0  0  0  0  0  0  0  0
   -2.5130    0.4620   -0.1670 C   0  0  0  0  0  0  0  0  0  0  0  0
   -1.8290   -0.2330    1.0030 C   0  0  0  0  0  0  0  0  0  0  0  0
   -1.8110   -2.0030    0.8350 S   0  0  0  0  0  0  0  0  0  0  0  0
   -0.7880   -2.5550   -0.5160 C   0  0  0  0  0  0  0  0  0  0  0  0
    0.6750   -2.3730   -0.2590 C   0  0  0  0  0  0  0  0  0  0  0  0
    1.1190   -0.9830   -0.0690 C   0  0  0  0  0  0  0  0  0  0  0  0
    0.7830   -0.1280   -0.9400 O   0  0  0  0  0  0  0  0  0  0  0  0
    1.9260   -0.5970    1.0950 C   0  0  0  0  0  0  0  0  0  0  0  0
    2.3100   -1.7380    2.1970 S   0  0  0  0  0  0  0  0  0  0  0  0
    2.5200    1.0440    1.3460 S   0  0  0  0  0  0  0  0  0  0  0  0
    2.1360    2.3270   -0.2900 S   0  0  0  0  0  0  0  0  0  0  0  0
    3.7190    2.3180   -1.7050 S   0  0  0  0  0  0  0  0  0  0  0  0
    4.9000    3.5080   -1.3470 O   0  0  0  0  0  0  0  0  0  0  0  0
    5.5250    3.2830   -0.2330 O   0  0  0  0  0  0  0  0  0  0  0  0
  1  2  1  0
  2  3  1  0
  3  4  1  0
  4  5  1  0
  5  6  1  0
  6  7  1  0
  7  8  2  0
  7  9  1  0
  9 10  2  0
  9 11  1  0
 11 12  1  0
 12 13  1  0
 13 14  1  0
 14 15  1  0
M  CHG  2   1   1  15  -1
M  END
