
     RDKit          3D

 29 31  0  0  0  0  0  0  0  0999 V2000
   -3.0980   -0.9480   -3.3890 C   0  0  0  0  0  0  0  0  0  0  0  0
   -4.0230   -1.4990   -2.3330 C   0  0  0  0  0  0  0  0  0  0  0  0
   -4.5710   -0.3800   -1.5410 C   0  0  0  0  0  0  0  0  0  0  0  0
   -5.8800   -0.0830   -1.4440 C   0  0  0  0  0  0  0  0  0  0  0  0
   -6.9210   -0.7230   -2.0280 F   0  0  0  0  0  0  0  0  0  0  0  0
   -6.0280    1.0810   -0.5810 C   0  0  0  0  0  0  0  0  0  0  0  0
   -7.0220    1.5020    0.0650 O   0  0  0  0  0  0  0  0  0  0  0  0
   -4.6750    1.7440   -0.6030 C   0  0  0  0  0  0  0  0  0  0  0  0
   -3.8340    0.5470   -0.7630 N   0  0  0  0  0  0  0  0  0  0  0  0
   -2.5210    0.3540   -0.2310 C   0  0  0  0  0  0  0  0  0  0  0  0
   -2.2550    0.5730    1.1610 N   0  0  0  0  0  0  0  0  0  0  0  0
   -2.4260   -0.3500    2.0410 C   0  0  0  0  0  0  0  0  0  0  0  0
   -2.1160   -0.0040    3.4540 C   0  0  0  0  0  0  0  0  0  0  0  0
   -3.3900    0.1920    4.1310 N   0  0  0  0  0  0  0  0  0  0  0  0
   -1.5430   -0.0200   -0.9740 N   0  0  0  0  0  0  0  0  0  0  0  0
   -0.2520   -0.2040   -0.4280 C   0  0  0  0  0  0  0  0  0  0  0  0
    0.2650    0.7940    0.3680 C   0  0  0  0  0  0  0  0  0  0  0  0
    1.5380    0.6660    0.9380 C   0  0  0  0  0  0  0  0  0  0  0  0
    2.2770   -0.4770    0.6940 C   0  0  0  0  0  0  0  0  0  0  0  0
    3.5390   -0.6350    1.2440 O   0  0  0  0  0  0  0  0  0  0  0  0
    4.6860   -0.2140    0.5910 C   0  0  0  0  0  0  0  0  0  0  0  0
    4.5610    0.3800   -0.6430 C   0  0  0  0  0  0  0  0  0  0  0  0
    5.6530    0.8250   -1.3550 C   0  0  0  0  0  0  0  0  0  0  0  0
    6.8940    0.6320   -0.7360 C   0  0  0  0  0  0  0  0  0  0  0  0
    6.9980    0.0360    0.4990 C   0  0  0  0  0  0  0  0  0  0  0  0
    8.3360   -0.1520    1.1250 C   0  0  0  0  0  0  0  0  0  0  0  0
    5.8850   -0.3850    1.1580 N   0  0  0  0  0  0  0  0  0  0  0  0
    1.7730   -1.4820   -0.0990 C   0  0  0  0  0  0  0  0  0  0  0  0
    0.5200   -1.3220   -0.6410 C   0  0  0  0  0  0  0  0  0  0  0  0
  1  2  1  0
  2  3  1  0
  3  4  2  0
  3  9  1  0
  4  5  1  0
  4  6  1  0
  6  7  2  0
  6  8  1  0
  8  9  1  0
  9 10  1  0
 10 11  1  0
 10 15  2  3
 11 12  2  3
 12 13  1  0
 13 14  1  0
 15 16  1  0
 16 17  2  0
 16 29  1  0
 17 18  1  0
 18 19  2  0
 19 20  1  0
 19 28  1  0
 20 21  1  0
 21 22  2  0
 21 27  1  0
 22 23  1  0
 23 24  2  0
 24 25  1  0
 25 26  1  0
 25 27  2  0
 28 29  2  0
M  END
