
     RDKit          3D

 29 31  0  0  0  0  0  0  0  0999 V2000
   -1.1070   -3.0430   -0.1140 C   0  0  0  0  0  0  0  0  0  0  0  0
   -0.0900   -2.8510    0.6840 C   0  0  0  0  0  0  0  0  0  0  0  0
    0.4040   -3.8720    1.4500 F   0  0  0  0  0  0  0  0  0  0  0  0
    0.5390   -1.5250    0.7970 C   0  0  0  0  0  0  0  0  0  0  0  0
    1.5680   -1.4230    1.6060 C   0  0  0  0  0  0  0  0  0  0  0  0
    2.1350   -2.5290    2.3900 C   0  0  0  0  0  0  0  0  0  0  0  0
    0.0670   -0.4190   -0.0610 C   0  0  0  0  0  0  0  0  0  0  0  0
   -1.3010   -0.1950   -0.0190 N   0  0  0  0  0  0  0  0  0  0  0  0
   -1.9010    0.6850   -0.8080 C   0  0  0  0  0  0  0  0  0  0  0  0
   -3.2910    0.9460   -0.7870 N   0  0  0  0  0  0  0  0  0  0  0  0
   -3.8470    1.8880   -1.7430 C   0  0  0  0  0  0  0  0  0  0  0  0
   -5.1920    1.4460   -2.2690 C   0  0  0  0  0  0  0  0  0  0  0  0
   -5.4820    0.0630   -1.9880 N   0  0  0  0  0  0  0  0  0  0  0  0
   -5.1630   -0.4570   -0.7150 C   0  0  0  0  0  0  0  0  0  0  0  0
   -5.6730   -1.5500   -0.3690 O   0  0  0  0  0  0  0  0  0  0  0  0
   -4.2330    0.3430    0.1290 C   0  0  1  0  0  0  0  0  0  0  0  0
   -3.6030   -0.4550    1.2270 C   0  0  0  0  0  0  0  0  0  0  0  0
   -1.0990    1.3500   -1.6580 N   0  0  0  0  0  0  0  0  0  0  0  0
    0.2080    1.1490   -1.7160 C   0  0  0  0  0  0  0  0  0  0  0  0
    0.9300    1.7890   -2.5430 O   0  0  0  0  0  0  0  0  0  0  0  0
    0.8670    0.2320   -0.8960 N   0  0  0  0  0  0  0  0  0  0  0  0
    2.2540    0.0520   -1.0660 C   0  0  0  0  0  0  0  0  0  0  0  0
    3.3500    0.5250   -0.2760 C   0  0  0  0  0  0  0  0  0  0  0  0
    4.2520   -0.4110    0.1010 C   0  0  0  0  0  0  0  0  0  0  0  0
    5.4300   -0.1700    0.8940 C   0  0  0  0  0  0  0  0  0  0  0  0
    5.6170    1.2140    1.3080 C   0  0  0  0  0  0  0  0  0  0  0  0
    4.8030    2.1650    0.9950 C   0  0  0  0  0  0  0  0  0  0  0  0
    3.5910    1.8800    0.1670 C   0  0  0  0  0  0  0  0  0  0  0  0
    2.7810    2.8800   -0.0650 C   0  0  0  0  0  0  0  0  0  0  0  0
  1  2  2  0
  2  3  1  0
  2  4  1  0
  4  5  2  3
  4  7  1  0
  5  6  1  0
  7  8  2  0
  7 21  1  0
  8  9  1  0
  9 10  1  0
  9 18  2  0
 10 11  1  0
 10 16  1  0
 11 12  1  0
 12 13  1  0
 13 14  1  0
 14 15  2  0
 14 16  1  0
 16 17  1  1
 18 19  1  0
 19 20  2  0
 19 21  1  0
 21 22  1  0
 22 23  1  0
 23 24  2  0
 23 28  1  0
 24 25  1  0
 25 26  1  0
 26 27  2  0
 27 28  1  0
 28 29  2  0
M  END
