
     RDKit          3D

 29 31  0  0  0  0  0  0  0  0999 V2000
    0.8750    4.2210    0.7450 C   0  0  0  0  0  0  0  0  0  0  0  0
   -0.1270    3.1440    0.5190 C   0  0  0  0  0  0  0  0  0  0  0  0
   -0.7110    2.9710   -0.6840 C   0  0  0  0  0  0  0  0  0  0  0  0
   -0.2590    3.9410   -1.6920 C   0  0  0  0  0  0  0  0  0  0  0  0
   -1.5820    1.8620   -0.8610 C   0  0  0  0  0  0  0  0  0  0  0  0
   -2.3130    1.6390   -1.9390 C   0  0  0  0  0  0  0  0  0  0  0  0
   -2.2770    2.5310   -3.1460 C   0  0  0  0  0  0  0  0  0  0  0  0
   -3.4460    0.7350   -1.8570 N   0  0  0  0  0  0  0  0  0  0  0  0
   -3.7190    0.1540   -0.6050 C   0  0  0  0  0  0  0  0  0  0  0  0
   -4.9290   -0.0490   -0.2410 O   0  0  0  0  0  0  0  0  0  0  0  0
   -2.5810   -0.2100    0.2640 C   0  0  1  0  0  0  0  0  0  0  0  0
   -2.2480   -1.6070   -0.2580 C   0  0  0  0  0  0  0  0  0  0  0  0
   -1.2130   -1.9360   -0.9510 C   0  0  0  0  0  0  0  0  0  0  0  0
   -1.2560   -3.4110   -1.2750 C   0  0  0  0  0  0  0  0  0  0  0  0
   -2.5210   -3.8310   -0.6470 C   0  0  0  0  0  0  0  0  0  0  0  0
   -3.0690   -2.7810   -0.0700 C   0  0  0  0  0  0  0  0  0  0  0  0
   -4.2600   -2.7850    0.6240 F   0  0  0  0  0  0  0  0  0  0  0  0
   -1.4680    0.6680   -0.0110 N   0  0  0  0  0  0  0  0  0  0  0  0
   -0.2320    0.3380    0.5960 C   0  0  0  0  0  0  0  0  0  0  0  0
    0.8490    0.8090    0.2150 O   0  0  0  0  0  0  0  0  0  0  0  0
   -0.1820   -0.5850    1.7380 C   0  0  0  0  0  0  0  0  0  0  0  0
    1.2590   -0.9160    2.1320 C   0  0  0  0  0  0  0  0  0  0  0  0
    1.9690   -1.5350    1.0470 N   0  0  0  0  0  0  0  0  0  0  0  0
    3.3420   -1.9300    1.1920 C   0  0  0  0  0  0  0  0  0  0  0  0
    3.9730   -1.7150    2.3680 N   0  0  0  0  0  0  0  0  0  0  0  0
    5.2660   -2.0810    2.5260 C   0  0  0  0  0  0  0  0  0  0  0  0
    5.9810   -2.6770    1.5170 C   0  0  0  0  0  0  0  0  0  0  0  0
    5.3140   -2.8900    0.3150 C   0  0  0  0  0  0  0  0  0  0  0  0
    4.0210   -2.5060    0.2050 N   0  0  0  0  0  0  0  0  0  0  0  0
  1  2  1  0
  2  3  2  3
  3  4  1  0
  3  5  1  0
  5  6  2  0
  5 18  1  0
  6  7  1  0
  6  8  1  0
  8  9  1  0
  9 10  2  0
  9 11  1  0
 11 12  1  6
 11 18  1  0
 12 13  2  0
 12 16  1  0
 13 14  1  0
 14 15  1  0
 15 16  2  0
 16 17  1  0
 18 19  1  0
 19 20  2  0
 19 21  1  0
 21 22  1  0
 22 23  1  0
 23 24  1  0
 24 25  2  0
 24 29  1  0
 25 26  1  0
 26 27  2  0
 27 28  1  0
 28 29  2  0
M  END
