
     RDKit          3D

 29 31  0  0  0  0  0  0  0  0999 V2000
   -5.0690    0.6600   -2.1950 C   0  0  0  0  0  0  0  0  0  0  0  0
   -5.3810   -0.7140   -1.7940 C   0  0  0  0  0  0  0  0  0  0  0  0
   -4.9180   -1.1000   -0.4050 C   0  0  1  0  0  0  0  0  0  0  0  0
   -5.5440   -0.2060    0.6360 C   0  0  0  0  0  0  0  0  0  0  0  0
   -7.0500   -0.3600    0.5520 C   0  0  0  0  0  0  0  0  0  0  0  0
   -5.4930   -2.4510   -0.2740 N   0  0  0  0  0  0  0  0  0  0  0  0
   -4.6330   -3.2890   -0.1110 N   0  0  0  0  0  0  0  0  0  0  0  0
   -3.3270   -2.7830   -0.0740 C   0  0  0  0  0  0  0  0  0  0  0  0
   -2.2310   -3.3770    0.0660 O   0  0  0  0  0  0  0  0  0  0  0  0
   -3.4880   -1.3010   -0.2430 C   0  0  0  0  0  0  0  0  0  0  0  0
   -2.4720   -0.4680   -0.1660 C   0  0  0  0  0  0  0  0  0  0  0  0
   -2.4350    0.9590   -0.2130 C   0  0  0  0  0  0  0  0  0  0  0  0
   -1.2420    1.5710   -0.1160 C   0  0  0  0  0  0  0  0  0  0  0  0
   -1.1650    3.0440   -0.1610 C   0  0  0  0  0  0  0  0  0  0  0  0
   -0.6260    3.5610    0.9740 F   0  0  0  0  0  0  0  0  0  0  0  0
   -0.0500    0.8110    0.0080 N   0  0  0  0  0  0  0  0  0  0  0  0
    0.8360    0.8460    1.1090 C   0  0  0  0  0  0  0  0  0  0  0  0
    0.5650    1.6080    2.0790 O   0  0  0  0  0  0  0  0  0  0  0  0
    2.0180    0.0710    1.1870 N   0  0  0  0  0  0  0  0  0  0  0  0
    2.8820    0.1510    2.3390 C   0  0  0  0  0  0  0  0  0  0  0  0
    4.2660    0.4750    1.8840 C   0  0  0  0  0  0  0  0  0  0  0  0
    4.6830   -0.3280    0.7640 N   0  0  0  0  0  0  0  0  0  0  0  0
    5.9920   -0.1600    0.1900 C   0  0  0  0  0  0  0  0  0  0  0  0
    7.1340   -0.6170    0.6190 C   0  0  0  0  0  0  0  0  0  0  0  0
    8.2230   -0.1950   -0.2920 C   0  0  0  0  0  0  0  0  0  0  0  0
    7.5360    0.5850   -1.3270 C   0  0  0  0  0  0  0  0  0  0  0  0
    6.2660    0.5910   -1.0320 C   0  0  0  0  0  0  0  0  0  0  0  0
    3.7970   -1.3030    0.2130 C   0  0  0  0  0  0  0  0  0  0  0  0
    2.3680   -0.8060    0.1180 C   0  0  0  0  0  0  0  0  0  0  0  0
  1  2  1  0
  3  2  1  6
  3  4  1  0
  3  6  1  0
  3 10  1  0
  4  5  1  0
  6  7  2  0
  7  8  1  0
  8  9  2  0
  8 10  1  0
 10 11  2  3
 11 12  1  0
 12 13  2  3
 13 14  1  0
 13 16  1  0
 14 15  1  0
 16 17  1  0
 17 18  2  0
 17 19  1  0
 19 20  1  0
 19 29  1  0
 20 21  1  0
 21 22  1  0
 22 23  1  0
 22 28  1  0
 23 24  2  0
 23 27  1  0
 24 25  1  0
 25 26  1  0
 26 27  2  0
 28 29  1  0
M  END
