
     RDKit          3D

 29 31  0  0  0  0  0  0  0  0999 V2000
    2.4340    5.1320    0.0860 C   0  0  0  0  0  0  0  0  0  0  0  0
    3.1440    4.0660   -0.1510 C   0  0  0  0  0  0  0  0  0  0  0  0
    2.5590    2.9140   -0.8120 C   0  0  0  0  0  0  0  0  0  0  0  0
    3.3220    1.8460   -1.0280 C   0  0  0  0  0  0  0  0  0  0  0  0
    4.7450    1.6650   -0.6730 C   0  0  1  0  0  0  0  0  0  0  0  0
    4.9730    1.7940    0.6940 F   0  0  0  0  0  0  0  0  0  0  0  0
    5.0700    0.2990   -1.1250 C   0  0  0  0  0  0  0  0  0  0  0  0
    4.0040   -0.2420   -1.6680 C   0  0  0  0  0  0  0  0  0  0  0  0
    3.9960   -1.6450   -2.2370 C   0  0  0  0  0  0  0  0  0  0  0  0
    2.9050    0.6470   -1.6420 N   0  0  0  0  0  0  0  0  0  0  0  0
    1.6020    0.3140   -2.1620 C   0  0  0  0  0  0  0  0  0  0  0  0
    0.9890   -0.7310   -1.2700 C   0  0  0  0  0  0  0  0  0  0  0  0
    1.6340   -1.1430   -0.2480 O   0  0  0  0  0  0  0  0  0  0  0  0
   -0.2930   -1.2820   -1.5270 N   0  0  0  0  0  0  0  0  0  0  0  0
   -0.7960   -2.2590   -0.6260 C   0  0  0  0  0  0  0  0  0  0  0  0
   -0.5780   -3.5920   -0.6920 C   0  0  0  0  0  0  0  0  0  0  0  0
    0.2540   -4.3080   -1.7300 C   0  0  0  0  0  0  0  0  0  0  0  0
   -1.2340   -4.1330    0.3310 N   0  0  0  0  0  0  0  0  0  0  0  0
   -1.8490   -3.1540    1.0220 N   0  0  0  0  0  0  0  0  0  0  0  0
   -1.6240   -1.9480    0.4830 C   0  0  0  0  0  0  0  0  0  0  0  0
   -1.9700   -0.6150    0.9020 C   0  0  0  0  0  0  0  0  0  0  0  0
   -1.2890    0.3280    0.3170 O   0  0  0  0  0  0  0  0  0  0  0  0
   -2.9070   -0.2050    1.8260 N   0  0  0  0  0  0  0  0  0  0  0  0
   -2.8460    1.2790    2.1340 C   0  0  1  0  0  0  0  0  0  0  0  0
   -1.4980    1.6420    2.6780 C   0  0  0  0  0  0  0  0  0  0  0  0
   -3.1130    2.0760    0.9050 C   0  0  0  0  0  0  0  0  0  0  0  0
   -4.0300   -0.8500    2.3940 C   0  0  2  0  0  0  0  0  0  0  0  0
   -4.7930   -2.0400    2.1590 C   0  0  0  0  0  0  0  0  0  0  0  0
   -5.1400   -0.9180    1.2750 C   0  0  0  0  0  0  0  0  0  0  0  0
  1  2  2  0
  2  3  1  0
  3  4  2  3
  4  5  1  0
  4 10  1  0
  5  6  1  1
  5  7  1  0
  7  8  2  0
  8  9  1  0
  8 10  1  0
 10 11  1  0
 11 12  1  0
 12 13  2  0
 12 14  1  0
 14 15  1  0
 15 16  1  0
 15 20  2  0
 16 17  1  0
 16 18  2  0
 18 19  1  0
 19 20  1  0
 20 21  1  0
 21 22  2  0
 21 23  1  0
 23 24  1  0
 27 23  1  6
 24 25  1  6
 24 26  1  0
 27 28  1  0
 27 29  1  0
 28 29  1  0
M  END
