
     RDKit          3D

 29 31  0  0  0  0  0  0  0  0999 V2000
   -7.5860    0.9250   -2.3100 C   0  0  0  0  0  0  0  0  0  0  0  0
   -7.3560   -0.1490   -1.2670 C   0  0  0  0  0  0  0  0  0  0  0  0
   -6.0370   -0.0400   -0.6170 C   0  0  0  0  0  0  0  0  0  0  0  0
   -4.8880   -0.4420   -1.2690 C   0  0  0  0  0  0  0  0  0  0  0  0
   -5.0050   -0.9860   -2.6350 C   0  0  0  0  0  0  0  0  0  0  0  0
   -3.6910   -0.3190   -0.6200 C   0  0  0  0  0  0  0  0  0  0  0  0
   -3.5370    0.1870    0.6650 C   0  0  0  0  0  0  0  0  0  0  0  0
   -2.2650    0.2910    1.2570 N   0  0  0  0  0  0  0  0  0  0  0  0
   -1.9210    0.6110    2.5700 C   0  0  0  0  0  0  0  0  0  0  0  0
   -2.8750    0.8480    3.3870 O   0  0  0  0  0  0  0  0  0  0  0  0
   -0.5770    0.7140    3.1510 C   0  0  0  0  0  0  0  0  0  0  0  0
    0.5150    0.4580    2.2760 N   0  0  0  0  0  0  0  0  0  0  0  0
    1.8860    0.5290    2.7290 C   0  0  0  0  0  0  0  0  0  0  0  0
    2.0760    0.8270    3.9320 O   0  0  0  0  0  0  0  0  0  0  0  0
    2.9970    0.2660    1.8280 C   0  0  0  0  0  0  0  0  0  0  0  0
    4.1880    0.3700    2.3850 C   0  0  0  0  0  0  0  0  0  0  0  0
    5.5020    0.1860    1.8210 N   0  0  0  0  0  0  0  0  0  0  0  0
    5.8050   -0.1300    0.6090 C   0  0  0  0  0  0  0  0  0  0  0  0
    7.2380   -0.2390    0.3580 C   0  0  0  0  0  0  0  0  0  0  0  0
    7.7380   -0.5510   -0.8130 C   0  0  0  0  0  0  0  0  0  0  0  0
    9.2070   -0.6400   -0.9860 C   0  0  0  0  0  0  0  0  0  0  0  0
    6.8120   -0.7990   -1.9100 C   0  0  0  0  0  0  0  0  0  0  0  0
    5.5010   -0.7170   -1.7460 C   0  0  0  0  0  0  0  0  0  0  0  0
    4.9300   -0.3810   -0.4910 N   0  0  0  0  0  0  0  0  0  0  0  0
    3.5120   -0.3380   -0.4970 C   0  0  0  0  0  0  0  0  0  0  0  0
    2.7180   -0.0650    0.4820 N   0  0  0  0  0  0  0  0  0  0  0  0
   -4.6750    0.5820    1.2990 C   0  0  0  0  0  0  0  0  0  0  0  0
   -5.9170    0.4670    0.6590 C   0  0  0  0  0  0  0  0  0  0  0  0
   -7.0340    0.8710    1.3240 F   0  0  0  0  0  0  0  0  0  0  0  0
  1  2  1  0
  2  3  1  0
  3  4  2  0
  3 28  1  0
  4  5  1  0
  4  6  1  0
  6  7  2  0
  7  8  1  0
  7 27  1  0
  8  9  1  0
  9 10  2  0
  9 11  1  0
 11 12  1  0
 12 13  1  0
 13 14  2  0
 13 15  1  0
 15 16  2  0
 15 26  1  0
 16 17  1  0
 17 18  2  0
 18 19  1  0
 18 24  1  0
 19 20  2  0
 20 21  1  0
 20 22  1  0
 22 23  2  0
 23 24  1  0
 24 25  1  0
 25 26  2  0
 27 28  2  0
 28 29  1  0
M  END
