
     RDKit          3D

 31 34  0  0  0  0  0  0  0  0999 V2000
   -5.4300    2.6220   -0.6130 C   0  0  0  0  0  0  0  0  0  0  0  0
   -4.1080    2.6150   -0.8490 O   0  0  0  0  0  0  0  0  0  0  0  0
   -3.1970    2.3890    0.1080 C   0  0  0  0  0  0  0  0  0  0  0  0
   -3.1680    1.1110    0.8430 C   0  0  1  0  0  0  0  0  0  0  0  0
   -4.3370    0.9510    1.7580 C   0  0  0  0  0  0  0  0  0  0  0  0
   -5.0250   -0.3260    1.5380 N   0  0  0  0  0  0  0  0  0  0  0  0
   -4.1010   -1.4340    1.7760 C   0  0  2  0  0  0  0  0  0  0  0  0
   -3.6860   -1.5340    3.2080 C   0  0  0  0  0  0  0  0  0  0  0  0
   -2.9330   -1.2430    0.8320 C   0  0  0  0  0  0  0  0  0  0  0  0
   -3.0190   -0.0670    0.0400 N   0  0  0  0  0  0  0  0  0  0  0  0
   -2.0690   -0.0260   -0.9970 C   0  0  0  0  0  0  0  0  0  0  0  0
   -0.6570    0.1180   -0.5740 C   0  0  0  0  0  0  0  0  0  0  0  0
   -0.3260    0.2000    0.6450 O   0  0  0  0  0  0  0  0  0  0  0  0
    0.3680    0.1670   -1.5520 N   0  0  0  0  0  0  0  0  0  0  0  0
    0.1680    0.0790   -3.0020 C   0  0  0  0  0  0  0  0  0  0  0  0
    1.4660   -0.4700   -3.5360 C   0  0  1  0  0  0  0  0  0  0  0  0
    1.4260   -1.9640   -3.7140 C   0  0  0  0  0  0  0  0  0  0  0  0
    1.7380    0.1690   -4.8640 C   0  0  0  0  0  0  0  0  0  0  0  0
    2.4270   -0.0600   -2.4790 C   0  0  0  0  0  0  0  0  0  0  0  0
    3.8200    0.0160   -2.4430 C   0  0  0  0  0  0  0  0  0  0  0  0
    4.4920    0.4230   -1.3550 N   0  0  0  0  0  0  0  0  0  0  0  0
    3.8840    0.7890   -0.2130 C   0  0  0  0  0  0  0  0  0  0  0  0
    4.6410    1.2360    0.9800 C   0  0  0  0  0  0  0  0  0  0  0  0
    4.9930    0.1290    1.8840 C   0  0  0  0  0  0  0  0  0  0  0  0
    6.1680   -0.5620    1.7500 C   0  0  0  0  0  0  0  0  0  0  0  0
    6.4500   -1.6010    2.6340 C   0  0  0  0  0  0  0  0  0  0  0  0
    5.5850   -1.9630    3.6490 C   0  0  0  0  0  0  0  0  0  0  0  0
    4.4140   -1.2630    3.7710 C   0  0  0  0  0  0  0  0  0  0  0  0
    4.1220   -0.2170    2.8860 C   0  0  0  0  0  0  0  0  0  0  0  0
    2.5060    0.7270   -0.2090 C   0  0  0  0  0  0  0  0  0  0  0  0
    1.7710    0.3070   -1.3270 C   0  0  0  0  0  0  0  0  0  0  0  0
  1  2  1  0
  2  3  1  0
  4  3  1  6
  4  5  1  0
  4 10  1  0
  5  6  1  0
  6  7  1  0
  7  8  1  1
  7  9  1  0
  9 10  1  0
 10 11  1  0
 11 12  1  0
 12 13  2  0
 12 14  1  0
 14 15  1  0
 14 31  1  0
 15 16  1  0
 16 17  1  6
 16 18  1  0
 16 19  1  0
 19 20  2  0
 19 31  1  0
 20 21  1  0
 21 22  2  0
 22 23  1  0
 22 30  1  0
 23 24  1  0
 24 25  2  0
 24 29  1  0
 25 26  1  0
 26 27  2  0
 27 28  1  0
 28 29  2  0
 30 31  2  0
M  CHG  1   6   1
M  END
