
     RDKit          3D

 28 30  0  0  0  0  0  0  0  0999 V2000
   -7.6020   -0.4440   -1.3050 C   0  0  0  0  0  0  0  0  0  0  0  0
   -6.6360    0.5760   -0.6650 C   0  0  0  0  0  0  0  0  0  0  0  0
   -6.5490    0.3840    0.7760 C   0  0  0  0  0  0  0  0  0  0  0  0
   -7.9450    0.5790    1.4610 C   0  0  0  0  0  0  0  0  0  0  0  0
   -5.5840    0.1000    1.5800 C   0  0  0  0  0  0  0  0  0  0  0  0
   -4.2160   -0.1490    1.4460 C   0  0  0  0  0  0  0  0  0  0  0  0
   -3.5500   -0.4030    2.5370 O   0  0  0  0  0  0  0  0  0  0  0  0
   -3.4380   -0.1650    0.2840 N   0  0  0  0  0  0  0  0  0  0  0  0
   -1.9870   -0.4320    0.2710 C   0  0  0  0  0  0  0  0  0  0  0  0
   -1.3080    0.6540    1.0560 C   0  0  0  0  0  0  0  0  0  0  0  0
    0.1060    0.4670    1.0850 O   0  0  0  0  0  0  0  0  0  0  0  0
    0.9070    0.4360   -0.0320 C   0  0  0  0  0  0  0  0  0  0  0  0
    0.3960    0.5780   -1.1540 O   0  0  0  0  0  0  0  0  0  0  0  0
    2.3590    0.2340    0.1450 C   0  0  0  0  0  0  0  0  0  0  0  0
    2.8970    0.0790    1.4030 C   0  0  0  0  0  0  0  0  0  0  0  0
    4.2580   -0.1090    1.5480 C   0  0  0  0  0  0  0  0  0  0  0  0
    5.0670   -0.1400    0.4210 C   0  0  0  0  0  0  0  0  0  0  0  0
    4.5210    0.0150   -0.8340 C   0  0  0  0  0  0  0  0  0  0  0  0
    3.1560    0.2030   -0.9710 C   0  0  0  0  0  0  0  0  0  0  0  0
    5.3910   -0.0240   -1.9640 N   0  0  0  0  0  0  0  0  0  0  0  0
    6.8160   -0.2210   -1.8190 C   0  0  0  0  0  0  0  0  0  0  0  0
    7.6630   -0.2680   -2.7760 N   0  0  0  0  0  0  0  0  0  0  0  0
    9.2290   -0.5190   -2.1020 S   0  0  2  0  0  0  0  0  0  0  0  0
   10.1570    0.6230   -2.3730 O   0  0  0  0  0  0  0  0  0  0  0  0
    9.8100   -1.8360   -2.5350 O   0  0  0  0  0  0  0  0  0  0  0  0
    8.7470   -0.5660   -0.4410 N   0  0  0  0  0  0  0  0  0  0  0  0
    7.3360   -0.3770   -0.4980 C   0  0  0  0  0  0  0  0  0  0  0  0
    6.4900   -0.3370    0.5580 C   0  0  0  0  0  0  0  0  0  0  0  0
  1  2  1  0
  2  3  1  0
  3  4  1  0
  3  5  2  3
  5  6  1  0
  6  7  2  0
  6  8  1  0
  8  9  1  0
  9 10  1  0
 10 11  1  0
 11 12  1  0
 12 13  2  0
 12 14  1  0
 14 15  2  0
 14 19  1  0
 15 16  1  0
 16 17  2  0
 17 18  1  0
 17 28  1  0
 18 19  2  0
 18 20  1  0
 20 21  1  0
 21 22  2  0
 21 27  1  0
 22 23  1  0
 23 24  2  0
 23 25  2  0
 23 26  1  1
 26 27  1  0
 27 28  2  0
M  END
