
     RDKit          3D

 28 31  0  0  0  0  0  0  0  0999 V2000
   -0.4150    3.1350   -3.1520 C   0  0  0  0  0  0  0  0  0  0  0  0
   -0.4600    2.5260   -1.7550 C   0  0  2  0  0  0  0  0  0  0  0  0
    0.3580    1.3300   -1.8060 N   0  0  0  0  0  0  0  0  0  0  0  0
    1.5080    1.1510   -0.9760 C   0  0  0  0  0  0  0  0  0  0  0  0
    1.7720    2.0860   -0.2000 O   0  0  0  0  0  0  0  0  0  0  0  0
    2.3010   -0.0220   -1.0340 N   0  0  0  0  0  0  0  0  0  0  0  0
    3.4370   -0.2930   -0.2730 C   0  0  0  0  0  0  0  0  0  0  0  0
    3.9830    0.5790    0.6100 C   0  0  0  0  0  0  0  0  0  0  0  0
    5.1320    0.2510    1.3580 C   0  0  0  0  0  0  0  0  0  0  0  0
    5.7170   -0.9800    1.1910 C   0  0  0  0  0  0  0  0  0  0  0  0
    6.8500   -1.3740    1.8920 C   0  0  0  0  0  0  0  0  0  0  0  0
    7.3760   -0.5000    2.7610 F   0  0  0  0  0  0  0  0  0  0  0  0
    7.4200   -2.5870    1.7230 N   0  0  0  0  0  0  0  0  0  0  0  0
    6.9040   -3.4750    0.8550 C   0  0  0  0  0  0  0  0  0  0  0  0
    5.7810   -3.1000    0.1520 C   0  0  0  0  0  0  0  0  0  0  0  0
    5.1770   -1.8800    0.2970 C   0  0  0  0  0  0  0  0  0  0  0  0
    4.0520   -1.5170   -0.4130 C   0  0  0  0  0  0  0  0  0  0  0  0
   -1.8360    2.1090   -1.4110 C   0  0  0  0  0  0  0  0  0  0  0  0
   -2.2550    1.2470   -0.4790 N   0  0  0  0  0  0  0  0  0  0  0  0
   -3.5960    1.1780   -0.5250 C   0  0  0  0  0  0  0  0  0  0  0  0
   -4.5220    0.3720    0.2970 C   0  0  2  0  0  0  0  0  0  0  0  0
   -4.4220    0.7380    1.7830 C   0  0  0  0  0  0  0  0  0  0  0  0
   -5.4650   -0.0200    2.5170 C   0  0  0  0  0  0  0  0  0  0  0  0
   -5.6260   -1.3690    2.2030 N   0  0  0  0  0  0  0  0  0  0  0  0
   -5.2360   -1.8610    0.9590 C   0  0  0  0  0  0  0  0  0  0  0  0
   -4.1510   -1.1120    0.2470 C   0  0  0  0  0  0  0  0  0  0  0  0
   -3.9720    2.0170   -1.5050 N   0  0  0  0  0  0  0  0  0  0  0  0
   -2.9060    2.5620   -2.0210 O   0  0  0  0  0  0  0  0  0  0  0  0
  2  1  1  6
  2  3  1  0
  2 18  1  0
  3  4  1  0
  4  5  2  0
  4  6  1  0
  6  7  1  0
  7  8  2  0
  7 17  1  0
  8  9  1  0
  9 10  2  0
 10 11  1  0
 10 16  1  0
 11 12  1  0
 11 13  2  0
 13 14  1  0
 14 15  2  0
 15 16  1  0
 16 17  2  0
 18 19  2  0
 18 28  1  0
 19 20  1  0
 21 20  1  6
 20 27  2  0
 21 22  1  0
 21 26  1  0
 22 23  1  0
 23 24  1  0
 24 25  1  0
 25 26  1  0
 27 28  1  0
M  END
