
     RDKit          3D

 29 31  0  0  0  0  0  0  0  0999 V2000
    7.3030   -0.1560   -2.4600 C   0  0  0  0  0  0  0  0  0  0  0  0
    5.8610    0.2590   -2.3430 C   0  0  0  0  0  0  0  0  0  0  0  0
    5.0810    1.4470   -3.5110 S   0  0  0  0  0  0  0  0  0  0  0  0
    3.4860    1.3140   -2.6170 C   0  0  0  0  0  0  0  0  0  0  0  0
    2.3780    2.0570   -3.0660 F   0  0  0  0  0  0  0  0  0  0  0  0
    3.6770    0.4630   -1.6150 C   0  0  0  0  0  0  0  0  0  0  0  0
    2.6550    0.1090   -0.7000 C   0  0  0  0  0  0  0  0  0  0  0  0
    2.8270   -0.7630    0.3370 C   0  0  0  0  0  0  0  0  0  0  0  0
    1.8170   -1.1290    1.2560 N   0  0  0  0  0  0  0  0  0  0  0  0
    0.4880   -0.6870    1.3140 C   0  0  0  0  0  0  0  0  0  0  0  0
    0.0630    0.1330    0.4870 O   0  0  0  0  0  0  0  0  0  0  0  0
   -0.4720   -1.1770    2.3630 C   0  0  0  0  0  0  0  0  0  0  0  0
   -1.7690   -0.5660    2.2060 N   0  0  0  0  0  0  0  0  0  0  0  0
   -1.9380    0.8410    2.2910 C   0  0  0  0  0  0  0  0  0  0  0  0
   -0.8840    1.5060    2.5110 O   0  0  0  0  0  0  0  0  0  0  0  0
   -3.2360    1.5410    2.1410 C   0  0  0  0  0  0  0  0  0  0  0  0
   -3.4940    1.9730    0.7730 N   0  0  0  0  0  0  0  0  0  0  0  0
   -4.1300    1.2680   -0.1670 C   0  0  0  0  0  0  0  0  0  0  0  0
   -4.7380   -0.0880   -0.0820 C   0  0  1  0  0  0  0  0  0  0  0  0
   -6.1990   -0.0590   -0.4870 C   0  0  0  0  0  0  0  0  0  0  0  0
   -4.0170   -0.9980   -1.0540 C   0  0  0  0  0  0  0  0  0  0  0  0
   -4.1450    2.0250   -1.2800 N   0  0  0  0  0  0  0  0  0  0  0  0
   -3.5480    3.1230   -1.0110 O   0  0  0  0  0  0  0  0  0  0  0  0
   -3.1360    3.1330    0.2270 C   0  0  0  0  0  0  0  0  0  0  0  0
   -2.5080    4.0550    0.8410 O   0  0  0  0  0  0  0  0  0  0  0  0
    4.0850   -1.3110    0.4670 C   0  0  0  0  0  0  0  0  0  0  0  0
    4.3950   -2.2070    1.4720 O   0  0  0  0  0  0  0  0  0  0  0  0
    5.0820   -0.9680   -0.4230 C   0  0  0  0  0  0  0  0  0  0  0  0
    4.8930   -0.0650   -1.4900 C   0  0  0  0  0  0  0  0  0  0  0  0
  1  2  1  0
  2  3  1  0
  2 29  2  0
  3  4  1  0
  4  5  1  0
  4  6  2  0
  6  7  1  0
  6 29  1  0
  7  8  2  0
  8  9  1  0
  8 26  1  0
  9 10  1  0
 10 11  2  0
 10 12  1  0
 12 13  1  0
 13 14  1  0
 14 15  2  0
 14 16  1  0
 16 17  1  0
 17 18  1  0
 17 24  1  0
 18 19  1  0
 18 22  2  0
 19 20  1  6
 19 21  1  0
 22 23  1  0
 23 24  1  0
 24 25  2  0
 26 27  1  0
 26 28  2  0
 28 29  1  0
M  END
