
     RDKit          3D

 29 30  0  0  0  0  0  0  0  0999 V2000
   -3.5560   -2.0490    2.2290 C   0  0  0  0  0  0  0  0  0  0  0  0
   -2.9860   -0.9610    1.2980 C   0  0  0  0  0  0  0  0  0  0  0  0
   -3.6850   -0.5940    0.2750 C   0  0  0  0  0  0  0  0  0  0  0  0
   -5.2800   -1.4470    0.0940 S   0  0  0  0  0  0  0  0  0  0  0  0
   -6.0760   -0.7500   -1.3020 C   0  0  0  0  0  0  0  0  0  0  0  0
   -5.4700    0.1810   -1.9740 C   0  0  0  0  0  0  0  0  0  0  0  0
   -4.1580    0.7470   -1.7000 C   0  0  0  0  0  0  0  0  0  0  0  0
   -3.7890    1.7130   -2.6110 F   0  0  0  0  0  0  0  0  0  0  0  0
   -3.3430    0.4180   -0.7080 C   0  0  0  0  0  0  0  0  0  0  0  0
   -2.0370    1.0870   -0.5640 C   0  0  0  0  0  0  0  0  0  0  0  0
   -1.5290    2.1350   -1.4020 C   0  0  0  0  0  0  0  0  0  0  0  0
   -2.0230    2.6990   -2.3810 O   0  0  0  0  0  0  0  0  0  0  0  0
   -1.2630    0.6990    0.3660 N   0  0  0  0  0  0  0  0  0  0  0  0
   -0.0500    1.0150    0.8280 N   0  0  0  0  0  0  0  0  0  0  0  0
    1.2350    1.0130    0.2380 C   0  0  0  0  0  0  0  0  0  0  0  0
    1.9140    2.2970    0.1780 C   0  0  0  0  0  0  0  0  0  0  0  0
    3.0480    2.4570   -0.3010 O   0  0  0  0  0  0  0  0  0  0  0  0
    1.3070    3.4600    0.6730 O   0  0  0  0  0  0  0  0  0  0  0  0
    2.0090    4.6790    0.5910 C   0  0  0  0  0  0  0  0  0  0  0  0
    1.8140   -0.0750   -0.1650 C   0  0  0  0  0  0  0  0  0  0  0  0
    3.1250   -0.0160   -0.7690 N   0  0  0  0  0  0  0  0  0  0  0  0
    4.2590   -0.8490   -0.4880 C   0  0  0  0  0  0  0  0  0  0  0  0
    4.2650   -2.0830   -0.0490 C   0  0  0  0  0  0  0  0  0  0  0  0
    5.5970   -2.7110    0.1560 C   0  0  0  0  0  0  0  0  0  0  0  0
    3.1450   -2.9510    0.2720 C   0  0  0  0  0  0  0  0  0  0  0  0
    3.4250   -4.1580    0.4440 O   0  0  0  0  0  0  0  0  0  0  0  0
    1.7610   -2.6140    0.4200 N   0  0  0  0  0  0  0  0  0  0  0  0
    1.1390   -1.3730    0.0520 C   0  0  0  0  0  0  0  0  0  0  0  0
   -0.0710   -1.4250   -0.0890 O   0  0  0  0  0  0  0  0  0  0  0  0
  1  2  1  0
  2  3  2  3
  3  4  1  0
  3  9  1  0
  4  5  1  0
  5  6  2  0
  6  7  1  0
  7  8  1  0
  7  9  2  0
  9 10  1  0
 10 11  1  0
 10 13  2  3
 11 12  2  0
 13 14  1  0
 14 15  1  0
 15 16  1  0
 15 20  2  3
 16 17  2  0
 16 18  1  0
 18 19  1  0
 20 21  1  0
 20 28  1  0
 21 22  1  0
 22 23  2  0
 23 24  1  0
 23 25  1  0
 25 26  2  0
 25 27  1  0
 27 28  1  0
 28 29  2  0
M  END
