
     RDKit          3D

 31 34  0  0  0  0  0  0  0  0999 V2000
    5.4060   -2.5850    0.7750 C   0  0  0  0  0  0  0  0  0  0  0  0
    4.6290   -1.8060   -0.0430 O   0  0  0  0  0  0  0  0  0  0  0  0
    5.3120   -0.7210   -0.6200 C   0  0  2  0  0  0  0  0  0  0  0  0
    6.4550   -1.2030   -1.4230 C   0  0  0  0  0  0  0  0  0  0  0  0
    7.2970   -0.2280   -2.1400 C   0  0  0  0  0  0  0  0  0  0  0  0
    7.9850    0.7180   -1.3130 N   0  0  0  0  0  0  0  0  0  0  0  0
    5.5870    0.2590    0.4700 C   0  0  0  0  0  0  0  0  0  0  0  0
    4.3330    0.4630    1.3030 C   0  0  0  0  0  0  0  0  0  0  0  0
    3.1120    0.3090    0.5650 N   0  0  0  0  0  0  0  0  0  0  0  0
    1.8830    0.5340    1.2930 C   0  0  0  0  0  0  0  0  0  0  0  0
    1.8900    0.8680    2.5980 N   0  0  0  0  0  0  0  0  0  0  0  0
    0.7600    1.0790    3.2830 C   0  0  0  0  0  0  0  0  0  0  0  0
   -0.4900    0.9570    2.6590 C   0  0  0  0  0  0  0  0  0  0  0  0
   -0.5050    0.6180    1.3350 C   0  0  0  0  0  0  0  0  0  0  0  0
   -1.6830    0.4620    0.5890 N   0  0  0  0  0  0  0  0  0  0  0  0
   -3.0030    0.6130    1.0260 C   0  0  0  0  0  0  0  0  0  0  0  0
   -4.0580    0.4150    0.1230 C   0  0  0  0  0  0  0  0  0  0  0  0
   -5.3610    0.5530    0.5160 C   0  0  0  0  0  0  0  0  0  0  0  0
   -5.6800    0.8990    1.8350 C   0  0  0  0  0  0  0  0  0  0  0  0
   -4.6200    1.0870    2.6960 C   0  0  0  0  0  0  0  0  0  0  0  0
   -3.3680    0.9400    2.2680 N   0  0  0  0  0  0  0  0  0  0  0  0
   -7.0130    0.9710    1.9470 N   0  0  0  0  0  0  0  0  0  0  0  0
   -7.5780    0.6910    0.7720 C   0  0  0  0  0  0  0  0  0  0  0  0
   -9.0460    0.6900    0.5210 C   0  0  0  0  0  0  0  0  0  0  0  0
   -6.5610    0.4340   -0.1030 N   0  0  0  0  0  0  0  0  0  0  0  0
   -6.8400    0.0940   -1.4540 C   0  0  2  0  0  0  0  0  0  0  0  0
   -7.8740   -1.0520   -1.4390 C   0  0  0  0  0  0  0  0  0  0  0  0
   -5.7390   -0.3780   -2.3250 C   0  0  0  0  0  0  0  0  0  0  0  0
    0.6980    0.4180    0.7010 N   0  0  0  0  0  0  0  0  0  0  0  0
    2.9930   -0.0430   -0.8220 C   0  0  0  0  0  0  0  0  0  0  0  0
    4.2920   -0.0490   -1.5530 C   0  0  0  0  0  0  0  0  0  0  0  0
  1  2  1  0
  2  3  1  0
  3  4  1  6
  3  7  1  0
  3 31  1  0
  4  5  1  0
  5  6  1  0
  7  8  1  0
  8  9  1  0
  9 10  1  0
  9 30  1  0
 10 11  2  0
 10 29  1  0
 11 12  1  0
 12 13  2  0
 13 14  1  0
 14 15  1  0
 14 29  2  0
 15 16  1  0
 16 17  2  0
 16 21  1  0
 17 18  1  0
 18 19  2  0
 18 25  1  0
 19 20  1  0
 19 22  1  0
 20 21  2  0
 22 23  2  0
 23 24  1  0
 23 25  1  0
 25 26  1  0
 26 27  1  1
 26 28  1  0
 30 31  1  0
M  CHG  1   6   1
M  END
