
     RDKit          3D

 29 32  0  0  0  0  0  0  0  0999 V2000
   -2.5320   -2.3080   -1.4200 C   0  0  0  0  0  0  0  0  0  0  0  0
   -2.7110   -2.0670    0.0680 C   0  0  2  0  0  0  0  0  0  0  0  0
   -4.0970   -2.0120    0.4290 N   0  0  0  0  0  0  0  0  0  0  0  0
   -4.7430   -0.7380    0.4460 C   0  0  0  0  0  0  0  0  0  0  0  0
   -6.0000   -0.7300    0.4200 O   0  0  0  0  0  0  0  0  0  0  0  0
   -4.0320    0.4990    0.4870 N   0  0  0  0  0  0  0  0  0  0  0  0
   -4.7270    1.7420    0.5190 C   0  0  0  0  0  0  0  0  0  0  0  0
   -4.2550    2.9650    0.5010 C   0  0  0  0  0  0  0  0  0  0  0  0
   -5.3950    3.9130    0.5500 C   0  0  0  0  0  0  0  0  0  0  0  0
   -6.3510    3.1690    1.2140 O   0  0  0  0  0  0  0  0  0  0  0  0
   -6.2060    1.8970    0.6090 C   0  0  0  0  0  0  0  0  0  0  0  0
   -2.6340    0.4050    0.5090 C   0  0  0  0  0  0  0  0  0  0  0  0
   -1.8810    1.4160    0.5470 N   0  0  0  0  0  0  0  0  0  0  0  0
   -0.4690    1.3880    0.5720 C   0  0  0  0  0  0  0  0  0  0  0  0
    0.2520    0.7600   -0.2780 N   0  0  0  0  0  0  0  0  0  0  0  0
    1.6680    0.7760   -0.1920 C   0  0  0  0  0  0  0  0  0  0  0  0
    2.3880    1.9630   -0.2140 C   0  0  0  0  0  0  0  0  0  0  0  0
    3.7820    1.9240   -0.1260 C   0  0  0  0  0  0  0  0  0  0  0  0
    4.4290    0.7160   -0.0200 C   0  0  0  0  0  0  0  0  0  0  0  0
    3.7220   -0.4850    0.0040 C   0  0  0  0  0  0  0  0  0  0  0  0
    2.3590   -0.4150   -0.0840 C   0  0  0  0  0  0  0  0  0  0  0  0
    4.5140   -1.7080    0.1210 C   0  0  1  0  0  0  0  0  0  0  0  0
    3.7540   -2.9820    0.0400 C   0  0  1  0  0  0  0  0  0  0  0  0
    2.8370   -3.0300    1.0450 F   0  0  0  0  0  0  0  0  0  0  0  0
    3.2100   -3.2170   -1.2050 F   0  0  0  0  0  0  0  0  0  0  0  0
    5.6530   -1.6140   -0.8810 C   0  0  0  0  0  0  0  0  0  0  0  0
    6.5950   -0.5460   -0.3610 C   0  0  0  0  0  0  0  0  0  0  0  0
    5.8590    0.6180    0.0730 N   0  0  0  0  0  0  0  0  0  0  0  0
   -2.0150   -0.8740    0.4900 N   0  0  0  0  0  0  0  0  0  0  0  0
  2  1  1  6
  2  3  1  0
  2 29  1  0
  3  4  1  0
  4  5  2  0
  4  6  1  0
  6  7  1  0
  6 12  1  0
  7  8  2  0
  7 11  1  0
  8  9  1  0
  9 10  1  0
 10 11  1  0
 12 13  2  3
 12 29  1  0
 13 14  1  0
 14 15  2  3
 15 16  1  0
 16 17  2  0
 16 21  1  0
 17 18  1  0
 18 19  2  0
 19 20  1  0
 19 28  1  0
 20 21  2  0
 20 22  1  0
 22 23  1  0
 22 26  1  6
 23 24  1  1
 23 25  1  0
 26 27  1  0
 27 28  1  0
M  END
