
     RDKit          3D

 30 33  0  0  0  0  0  0  0  0999 V2000
    3.6280    1.7150   -0.8920 O   0  0  0  0  0  0  0  0  0  0  0  0
    4.8160    1.0710   -0.5750 C   0  0  0  0  0  0  0  0  0  0  0  0
    4.7260    0.1020    0.5430 C   0  0  0  0  0  0  0  0  0  0  0  0
    3.7560   -1.0400    0.3200 C   0  0  2  0  0  0  0  0  0  0  0  0
    4.1290   -1.8490   -0.8910 C   0  0  0  0  0  0  0  0  0  0  0  0
    3.9620   -1.2220   -2.0830 O   0  0  0  0  0  0  0  0  0  0  0  0
    2.3840   -0.6020    0.3530 N   0  0  0  0  0  0  0  0  0  0  0  0
    1.3410   -1.5570    0.2810 C   0  0  0  0  0  0  0  0  0  0  0  0
    1.5610   -2.8830    0.2040 N   0  0  0  0  0  0  0  0  0  0  0  0
    0.5170   -3.7220    0.1500 C   0  0  0  0  0  0  0  0  0  0  0  0
   -0.7520   -3.2920    0.1700 N   0  0  0  0  0  0  0  0  0  0  0  0
   -0.9920   -1.9410    0.2480 C   0  0  0  0  0  0  0  0  0  0  0  0
   -2.3400   -1.4810    0.2630 N   0  0  0  0  0  0  0  0  0  0  0  0
   -2.9670   -0.7440    1.3180 C   0  0  0  0  0  0  0  0  0  0  0  0
   -4.4680   -0.9790    1.1660 C   0  0  0  0  0  0  0  0  0  0  0  0
   -4.5490   -2.0110    0.0930 C   0  0  1  0  0  0  0  0  0  0  0  0
   -5.8340   -1.9510   -0.7050 C   0  0  1  0  0  0  0  0  0  0  0  0
   -5.7750   -2.9530   -1.6560 F   0  0  0  0  0  0  0  0  0  0  0  0
   -6.8950   -2.2120    0.1150 F   0  0  0  0  0  0  0  0  0  0  0  0
   -5.9360   -0.7250   -1.3140 F   0  0  0  0  0  0  0  0  0  0  0  0
   -3.3510   -1.6790   -0.7910 C   0  0  0  0  0  0  0  0  0  0  0  0
    0.0420   -1.0410    0.3050 C   0  0  0  0  0  0  0  0  0  0  0  0
   -0.1350    0.4010    0.3830 C   0  0  0  0  0  0  0  0  0  0  0  0
   -0.2940    1.2030   -0.6890 N   0  0  0  0  0  0  0  0  0  0  0  0
   -0.4230    2.4880   -0.3100 C   0  0  0  0  0  0  0  0  0  0  0  0
   -0.3450    2.4990    1.0190 N   0  0  0  0  0  0  0  0  0  0  0  0
   -0.1710    1.2270    1.4290 N   0  0  0  0  0  0  0  0  0  0  0  0
   -0.4800    3.8610    1.5010 C   0  0  0  0  0  0  0  0  0  0  0  0
   -0.0120    4.6840    0.3250 C   0  0  0  0  0  0  0  0  0  0  0  0
   -0.6170    3.8930   -0.8250 C   0  0  0  0  0  0  0  0  0  0  0  0
  1  2  1  0
  2  3  1  0
  4  3  1  6
  4  5  1  0
  4  7  1  0
  5  6  1  0
  7  8  1  0
  8  9  2  0
  8 22  1  0
  9 10  1  0
 10 11  2  0
 11 12  1  0
 12 13  1  0
 12 22  2  0
 13 14  1  0
 13 21  1  0
 14 15  1  0
 16 15  1  1
 16 17  1  0
 16 21  1  0
 17 18  1  6
 17 19  1  0
 17 20  1  0
 22 23  1  0
 23 24  1  0
 23 27  2  0
 24 25  2  0
 25 26  1  0
 25 30  1  0
 26 27  1  0
 26 28  1  0
 28 29  1  0
 29 30  1  0
M  END
