
     RDKit          3D

 31 34  0  0  0  0  0  0  0  0999 V2000
   -7.1590   -1.9630   -0.3920 C   0  0  0  0  0  0  0  0  0  0  0  0
   -6.3200   -1.1760    0.5060 N   0  0  0  0  0  0  0  0  0  0  0  0
   -4.9110   -1.1610    0.3840 C   0  0  0  0  0  0  0  0  0  0  0  0
   -4.1630   -0.3540    1.1760 C   0  0  0  0  0  0  0  0  0  0  0  0
   -2.7900   -0.3360    1.0520 C   0  0  0  0  0  0  0  0  0  0  0  0
   -2.1620   -1.1290    0.1290 C   0  0  0  0  0  0  0  0  0  0  0  0
   -0.7200   -1.0910    0.0250 C   0  0  0  0  0  0  0  0  0  0  0  0
    0.0270   -0.0580   -0.5370 C   0  0  0  0  0  0  0  0  0  0  0  0
   -0.6570    1.4070   -1.2180 S   0  0  0  0  0  0  0  0  0  0  0  0
   -0.8500    2.7720   -0.0800 C   0  0  0  0  0  0  0  0  0  0  0  0
    0.4800    3.3170    0.3050 C   0  0  0  0  0  0  0  0  0  0  0  0
    1.2970    2.9800    1.3490 C   0  0  0  0  0  0  0  0  0  0  0  0
    2.4380    3.7530    1.3010 C   0  0  0  0  0  0  0  0  0  0  0  0
    2.2660    4.5560    0.1960 C   0  0  0  0  0  0  0  0  0  0  0  0
    1.1260    4.2860   -0.3650 O   0  0  0  0  0  0  0  0  0  0  0  0
    1.2960   -0.4220   -0.4420 N   0  0  0  0  0  0  0  0  0  0  0  0
    2.4630    0.3100   -0.8710 C   0  0  0  0  0  0  0  0  0  0  0  0
    2.2960    1.4150   -1.4040 O   0  0  0  0  0  0  0  0  0  0  0  0
    3.8010   -0.2280   -0.6830 C   0  0  0  0  0  0  0  0  0  0  0  0
    4.7200    0.2760    0.2210 C   0  0  0  0  0  0  0  0  0  0  0  0
    5.9890   -0.2660    0.3340 C   0  0  0  0  0  0  0  0  0  0  0  0
    6.3700   -1.3300   -0.4560 C   0  0  0  0  0  0  0  0  0  0  0  0
    7.6300   -1.8680   -0.3440 F   0  0  0  0  0  0  0  0  0  0  0  0
    5.4630   -1.8400   -1.3590 C   0  0  0  0  0  0  0  0  0  0  0  0
    4.2090   -1.2960   -1.4650 C   0  0  0  0  0  0  0  0  0  0  0  0
    3.0380   -1.9310   -2.6300 Cl  0  0  0  0  0  0  0  0  0  0  0  0
    1.3760   -1.5990    0.1340 N   0  0  0  0  0  0  0  0  0  0  0  0
    0.1620   -2.0640    0.4470 C   0  0  0  0  0  0  0  0  0  0  0  0
   -0.1360   -3.1680    1.0130 O   0  0  0  0  0  0  0  0  0  0  0  0
   -2.9250   -1.9410   -0.6670 C   0  0  0  0  0  0  0  0  0  0  0  0
   -4.3180   -1.9750   -0.5570 C   0  0  0  0  0  0  0  0  0  0  0  0
  1  2  1  0
  2  3  1  0
  3  4  2  0
  3 31  1  0
  4  5  1  0
  5  6  2  0
  6  7  1  0
  6 30  1  0
  7  8  2  0
  7 28  1  0
  8  9  1  0
  8 16  1  0
  9 10  1  0
 10 11  1  0
 11 12  2  0
 11 15  1  0
 12 13  1  0
 13 14  2  0
 14 15  1  0
 16 17  1  0
 16 27  1  0
 17 18  2  0
 17 19  1  0
 19 20  2  0
 19 25  1  0
 20 21  1  0
 21 22  2  0
 22 23  1  0
 22 24  1  0
 24 25  2  0
 25 26  1  0
 27 28  1  0
 28 29  2  0
 30 31  2  0
M  END
