
     RDKit          3D

 31 33  0  0  0  0  0  0  0  0999 V2000
    8.7550   -0.6060   -0.9210 C   0  0  0  0  0  0  0  0  0  0  0  0
    7.3830   -0.3720   -0.3570 C   0  0  0  0  0  0  0  0  0  0  0  0
    6.2750   -1.0930   -0.5640 N   0  0  0  0  0  0  0  0  0  0  0  0
    5.2380   -0.5670    0.1180 C   0  0  0  0  0  0  0  0  0  0  0  0
    3.8310   -1.0490    0.1710 C   0  0  0  0  0  0  0  0  0  0  0  0
    3.0480   -0.4550   -0.8710 N   0  0  0  0  0  0  0  0  0  0  0  0
    2.9740    0.9710   -0.8300 C   0  0  0  0  0  0  0  0  0  0  0  0
    2.0300    1.4820    0.2280 C   0  0  0  0  0  0  0  0  0  0  0  0
    0.7210    0.8150    0.0400 C   0  0  0  0  0  0  0  0  0  0  0  0
    0.6290   -0.4020   -0.5940 C   0  0  0  0  0  0  0  0  0  0  0  0
   -0.5770   -1.0270   -0.7740 N   0  0  0  0  0  0  0  0  0  0  0  0
   -0.6400   -2.3240   -1.4530 C   0  0  0  0  0  0  0  0  0  0  0  0
   -1.6580   -0.4240   -0.3180 N   0  0  0  0  0  0  0  0  0  0  0  0
   -1.6380    0.7560    0.3050 C   0  0  0  0  0  0  0  0  0  0  0  0
   -2.8530    1.3310    0.7610 N   0  0  0  0  0  0  0  0  0  0  0  0
   -4.1210    0.6560    0.5620 C   0  0  0  0  0  0  0  0  0  0  0  0
   -4.0370   -0.4350   -0.0260 O   0  0  0  0  0  0  0  0  0  0  0  0
   -5.3270    1.2190    1.0120 N   0  0  0  0  0  0  0  0  0  0  0  0
   -6.6030    0.6510    0.8700 C   0  0  0  0  0  0  0  0  0  0  0  0
   -6.8180   -0.4970    0.2870 C   0  0  0  0  0  0  0  0  0  0  0  0
   -8.1840   -1.1160    0.1310 C   0  0  0  0  0  0  0  0  0  0  0  0
   -8.4240   -1.2660   -1.2380 F   0  0  0  0  0  0  0  0  0  0  0  0
   -7.7710    1.4310    1.4300 C   0  0  1  0  0  0  0  0  0  0  0  0
   -7.2980    2.6460    1.9310 F   0  0  0  0  0  0  0  0  0  0  0  0
   -8.6690    1.6690    0.4160 F   0  0  0  0  0  0  0  0  0  0  0  0
   -8.4860    0.5760    2.8020 Cl  0  0  0  0  0  0  0  0  0  0  0  0
   -0.4480    1.4020    0.4980 C   0  0  0  0  0  0  0  0  0  0  0  0
   -0.3680    2.5060    1.0730 O   0  0  0  0  0  0  0  0  0  0  0  0
    1.8050   -1.1060   -1.1160 C   0  0  0  0  0  0  0  0  0  0  0  0
    5.7330    0.5350    0.7790 C   0  0  0  0  0  0  0  0  0  0  0  0
    7.0370    0.6260    0.4710 N   0  0  0  0  0  0  0  0  0  0  0  0
  1  2  1  0
  2  3  2  0
  2 31  1  0
  3  4  1  0
  4  5  1  0
  4 30  2  0
  5  6  1  0
  6  7  1  0
  6 29  1  0
  7  8  1  0
  8  9  1  0
  9 10  2  0
  9 27  1  0
 10 11  1  0
 10 29  1  0
 11 12  1  0
 11 13  1  0
 13 14  2  0
 14 15  1  0
 14 27  1  0
 15 16  1  0
 16 17  2  0
 16 18  1  0
 18 19  1  0
 19 20  2  3
 19 23  1  0
 20 21  1  0
 21 22  1  0
 23 24  1  1
 23 25  1  0
 23 26  1  0
 27 28  2  0
 30 31  1  0
M  END
