
     RDKit          3D

 30 33  0  0  0  0  0  0  0  0999 V2000
   -4.6820   -1.3730   -0.9150 C   0  0  0  0  0  0  0  0  0  0  0  0
   -3.2830   -0.8120   -0.8210 C   0  0  0  0  0  0  0  0  0  0  0  0
   -2.4350   -0.8760   -1.8240 C   0  0  0  0  0  0  0  0  0  0  0  0
   -2.1870   -1.3210   -3.2340 C   0  0  0  0  0  0  0  0  0  0  0  0
   -0.8270   -0.8920   -3.4500 N   0  0  0  0  0  0  0  0  0  0  0  0
   -0.3790   -0.2860   -2.3000 N   0  0  0  0  0  0  0  0  0  0  0  0
   -1.2150   -0.2410   -1.3600 C   0  0  0  0  0  0  0  0  0  0  0  0
   -1.4160    0.2080    0.0180 C   0  0  0  0  0  0  0  0  0  0  0  0
   -0.4890    0.9000    0.9170 C   0  0  2  0  0  0  0  0  0  0  0  0
   -0.0420    2.2080    0.3970 C   0  0  0  0  0  0  0  0  0  0  0  0
    1.2680    2.5210    0.3720 C   0  0  0  0  0  0  0  0  0  0  0  0
    1.3440    3.7750   -0.2030 N   0  0  0  0  0  0  0  0  0  0  0  0
    0.1240    4.1570   -0.4910 N   0  0  0  0  0  0  0  0  0  0  0  0
   -0.7400    3.2450   -0.1470 N   0  0  0  0  0  0  0  0  0  0  0  0
   -2.1950    3.2400   -0.2760 C   0  0  0  0  0  0  0  0  0  0  0  0
    2.2930    1.6810    0.8990 N   0  0  0  0  0  0  0  0  0  0  0  0
    1.8850    0.5550    1.4330 C   0  0  0  0  0  0  0  0  0  0  0  0
    2.9170   -0.2840    1.9540 O   0  0  0  0  0  0  0  0  0  0  0  0
    4.1140   -0.4600    1.2520 C   0  0  0  0  0  0  0  0  0  0  0  0
    4.0380   -1.0930   -0.0810 C   0  0  0  0  0  0  0  0  0  0  0  0
    3.2080   -0.3950   -1.1110 C   0  0  0  0  0  0  0  0  0  0  0  0
    3.2440   -1.1750   -2.4440 C   0  0  2  0  0  0  0  0  0  0  0  0
    4.5500   -1.2600   -2.8970 F   0  0  0  0  0  0  0  0  0  0  0  0
    2.5300   -0.4310   -3.3460 F   0  0  0  0  0  0  0  0  0  0  0  0
    2.6790   -2.4100   -2.2200 F   0  0  0  0  0  0  0  0  0  0  0  0
    0.5270    0.1650    1.5170 N   0  0  0  0  0  0  0  0  0  0  0  0
    0.2880   -1.0700    2.3020 C   0  0  0  0  0  0  0  0  0  0  0  0
   -0.4140   -0.7900    3.6050 C   0  0  0  0  0  0  0  0  0  0  0  0
   -1.6500   -0.2100    3.5010 O   0  0  0  0  0  0  0  0  0  0  0  0
   -2.6540   -0.1540    0.2870 C   0  0  0  0  0  0  0  0  0  0  0  0
  1  2  1  0
  2  3  2  0
  2 30  1  0
  3  4  1  0
  3  7  1  0
  4  5  1  0
  5  6  1  0
  6  7  2  0
  7  8  1  0
  9  8  1  6
  8 30  2  0
  9 10  1  0
  9 26  1  0
 10 11  2  0
 10 14  1  0
 11 12  1  0
 11 16  1  0
 12 13  2  0
 13 14  1  0
 14 15  1  0
 16 17  2  0
 17 18  1  0
 17 26  1  0
 18 19  1  0
 19 20  1  0
 20 21  1  0
 21 22  1  0
 22 23  1  6
 22 24  1  0
 22 25  1  0
 26 27  1  0
 27 28  1  0
 28 29  1  0
M  END
