
     RDKit          3D

 31 34  0  0  0  0  0  0  0  0999 V2000
   -2.7210    0.7400   -1.8540 C   0  0  0  0  0  0  0  0  0  0  0  0
   -1.6860    1.0160   -0.8300 C   0  0  0  0  0  0  0  0  0  0  0  0
   -0.9640    0.2440   -0.0210 C   0  0  0  0  0  0  0  0  0  0  0  0
   -1.2130   -1.2480    0.0990 C   0  0  0  0  0  0  0  0  0  0  0  0
   -2.5610   -1.6280   -0.2450 N   0  0  0  0  0  0  0  0  0  0  0  0
   -2.5870   -3.0370   -0.6170 C   0  0  0  0  0  0  0  0  0  0  0  0
   -3.6500   -3.7130    0.1660 C   0  0  0  0  0  0  0  0  0  0  0  0
   -4.4870   -2.5800    0.6880 C   0  0  0  0  0  0  0  0  0  0  0  0
   -3.4840   -1.4620    0.8210 C   0  0  0  0  0  0  0  0  0  0  0  0
   -0.0390    0.8590    0.6400 N   0  0  0  0  0  0  0  0  0  0  0  0
    1.1630    0.2640    1.2900 C   0  0  0  0  0  0  0  0  0  0  0  0
    2.3670    0.8100    0.5400 N   0  0  0  0  0  0  0  0  0  0  0  0
    2.8520   -0.2260   -0.3620 C   0  0  0  0  0  0  0  0  0  0  0  0
    3.9300   -0.9960    0.2860 C   0  0  1  0  0  0  0  0  0  0  0  0
    4.1770   -2.3320   -0.2160 N   0  0  0  0  0  0  0  0  0  0  0  0
    5.4920   -2.6240   -0.4130 C   0  0  0  0  0  0  0  0  0  0  0  0
    5.9960   -3.7670   -0.5650 O   0  0  0  0  0  0  0  0  0  0  0  0
    6.2070   -1.3750   -0.4210 N   0  0  0  0  0  0  0  0  0  0  0  0
    5.2570   -0.3570   -0.1870 C   0  0  0  0  0  0  0  0  0  0  0  0
    5.4800    0.8440   -0.4180 O   0  0  0  0  0  0  0  0  0  0  0  0
   -0.1770    2.1690    0.3610 C   0  0  0  0  0  0  0  0  0  0  0  0
    0.4490    3.3060    0.7850 N   0  0  0  0  0  0  0  0  0  0  0  0
    0.0110    4.5140    0.3570 C   0  0  0  0  0  0  0  0  0  0  0  0
    0.4860    5.7780    1.0150 C   0  0  1  0  0  0  0  0  0  0  0  0
    1.5220    5.5960    1.8790 F   0  0  0  0  0  0  0  0  0  0  0  0
    0.7800    6.6720    0.0260 F   0  0  0  0  0  0  0  0  0  0  0  0
   -0.6250    6.2910    1.7280 F   0  0  0  0  0  0  0  0  0  0  0  0
   -0.9860    4.6020   -0.4750 N   0  0  0  0  0  0  0  0  0  0  0  0
   -1.5730    3.5900   -0.9910 C   0  0  0  0  0  0  0  0  0  0  0  0
   -3.0460    3.7360   -1.9710 Cl  0  0  0  0  0  0  0  0  0  0  0  0
   -1.2260    2.3110   -0.5990 C   0  0  0  0  0  0  0  0  0  0  0  0
  1  2  1  0
  2  3  2  0
  2 31  1  0
  3  4  1  0
  3 10  1  0
  4  5  1  0
  5  6  1  0
  5  9  1  0
  6  7  1  0
  7  8  1  0
  8  9  1  0
 10 11  1  0
 10 21  1  0
 11 12  1  0
 12 13  1  0
 14 13  1  6
 14 15  1  0
 14 19  1  0
 15 16  1  0
 16 17  2  0
 16 18  1  0
 18 19  1  0
 19 20  2  0
 21 22  2  0
 21 31  1  0
 22 23  1  0
 23 24  1  0
 23 28  2  0
 24 25  1  1
 24 26  1  0
 24 27  1  0
 28 29  1  0
 29 30  1  0
 29 31  2  0
M  END
