
     RDKit          3D

 31 34  0  0  0  0  0  0  0  0999 V2000
   -3.0390    1.5190   -0.7730 O   0  0  0  0  0  0  0  0  0  0  0  0
   -2.9690    0.9250    0.3190 C   0  0  0  0  0  0  0  0  0  0  0  0
   -1.7390    0.4030    0.7440 N   0  0  0  0  0  0  0  0  0  0  0  0
   -0.4920    0.4460    0.0920 C   0  0  0  0  0  0  0  0  0  0  0  0
   -0.2930    1.0360   -1.1160 C   0  0  0  0  0  0  0  0  0  0  0  0
    0.9330    1.0770   -1.7550 C   0  0  0  0  0  0  0  0  0  0  0  0
    2.0460    0.4920   -1.1570 C   0  0  0  0  0  0  0  0  0  0  0  0
    3.2600    0.5690   -1.8870 N   0  0  0  0  0  0  0  0  0  0  0  0
    4.5490    0.2620   -1.3970 C   0  0  0  0  0  0  0  0  0  0  0  0
    4.7690   -0.1250   -0.1370 N   0  0  0  0  0  0  0  0  0  0  0  0
    5.9930   -0.4020    0.3180 C   0  0  0  0  0  0  0  0  0  0  0  0
    6.1950   -0.7920    1.5930 N   0  0  0  0  0  0  0  0  0  0  0  0
    7.4400   -1.0520    1.9830 C   0  0  0  0  0  0  0  0  0  0  0  0
    8.5320   -0.9360    1.1270 C   0  0  0  0  0  0  0  0  0  0  0  0
    8.3240   -0.5500   -0.1320 N   0  0  0  0  0  0  0  0  0  0  0  0
    7.0750   -0.2830   -0.5450 C   0  0  0  0  0  0  0  0  0  0  0  0
    6.8400    0.1080   -1.8070 N   0  0  0  0  0  0  0  0  0  0  0  0
    5.6190    0.3920   -2.2910 C   0  0  0  0  0  0  0  0  0  0  0  0
    5.4420    0.7540   -3.4800 O   0  0  0  0  0  0  0  0  0  0  0  0
    1.8780   -0.1070    0.0530 C   0  0  0  0  0  0  0  0  0  0  0  0
    0.6350   -0.1310    0.6680 C   0  0  0  0  0  0  0  0  0  0  0  0
    0.4410   -0.9010    2.2140 Cl  0  0  0  0  0  0  0  0  0  0  0  0
   -4.2200    0.8020    1.1240 C   0  0  1  0  0  0  0  0  0  0  0  0
   -5.4280    1.4210    0.5070 C   0  0  0  0  0  0  0  0  0  0  0  0
   -5.9590    0.1380    0.0960 N   0  0  0  0  0  0  0  0  0  0  0  0
   -7.3230   -0.0340    0.5620 C   0  0  0  0  0  0  0  0  0  0  0  0
   -7.8380   -1.3890    0.1090 C   0  0  2  0  0  0  0  0  0  0  0  0
   -7.0190   -2.3600    0.6530 F   0  0  0  0  0  0  0  0  0  0  0  0
   -7.8380   -1.4310   -1.2660 F   0  0  0  0  0  0  0  0  0  0  0  0
   -9.1430   -1.5460    0.5300 F   0  0  0  0  0  0  0  0  0  0  0  0
   -4.9600   -0.4820    0.9710 C   0  0  0  0  0  0  0  0  0  0  0  0
  1  2  2  0
  2  3  1  0
 23  2  1  6
  3  4  1  0
  4  5  2  0
  4 21  1  0
  5  6  1  0
  6  7  2  0
  7  8  1  0
  7 20  1  0
  8  9  1  0
  9 10  2  0
  9 18  1  0
 10 11  1  0
 11 12  2  0
 11 16  1  0
 12 13  1  0
 13 14  2  0
 14 15  1  0
 15 16  2  0
 16 17  1  0
 17 18  1  0
 18 19  2  0
 20 21  2  0
 21 22  1  0
 23 24  1  0
 23 31  1  0
 24 25  1  0
 25 26  1  0
 25 31  1  0
 26 27  1  0
 27 28  1  1
 27 29  1  0
 27 30  1  0
M  END
