
     RDKit          3D

 29 32  0  0  0  0  0  0  0  0999 V2000
    6.4400    3.1670   -0.5980 C   0  0  0  0  0  0  0  0  0  0  0  0
    5.4820    2.5650    0.2210 O   0  0  0  0  0  0  0  0  0  0  0  0
    5.4370    1.2090   -0.0330 C   0  0  1  0  0  0  0  0  0  0  0  0
    5.8120    0.3830    1.1920 C   0  0  0  0  0  0  0  0  0  0  0  0
    4.7700    0.5650    2.2720 C   0  0  0  0  0  0  0  0  0  0  0  0
    3.4340    0.4050    1.7560 N   0  0  0  0  0  0  0  0  0  0  0  0
    2.5010   -0.4450    2.4000 C   0  0  0  0  0  0  0  0  0  0  0  0
    2.8700   -1.1380    3.5170 N   0  0  0  0  0  0  0  0  0  0  0  0
    2.0140   -1.9520    4.1530 C   0  0  0  0  0  0  0  0  0  0  0  0
    0.7440   -2.0740    3.6520 C   0  0  0  0  0  0  0  0  0  0  0  0
    0.3480   -1.3880    2.5310 C   0  0  0  0  0  0  0  0  0  0  0  0
   -0.9580   -1.5060    2.0060 N   0  0  0  0  0  0  0  0  0  0  0  0
   -1.4200   -0.8170    0.8520 C   0  0  0  0  0  0  0  0  0  0  0  0
   -2.7050   -0.9640    0.3730 C   0  0  0  0  0  0  0  0  0  0  0  0
   -3.1570   -0.2960   -0.7480 C   0  0  0  0  0  0  0  0  0  0  0  0
   -2.2780    0.5440   -1.3990 C   0  0  0  0  0  0  0  0  0  0  0  0
   -0.9890    0.7000   -0.9310 C   0  0  0  0  0  0  0  0  0  0  0  0
   -0.6240    0.0240    0.1550 N   0  0  0  0  0  0  0  0  0  0  0  0
   -2.9800    1.0440   -2.4280 N   0  0  0  0  0  0  0  0  0  0  0  0
   -4.2280    0.5580   -2.4390 C   0  0  0  0  0  0  0  0  0  0  0  0
   -5.3120    0.8560   -3.3990 C   0  0  0  0  0  0  0  0  0  0  0  0
   -4.3600   -0.2790   -1.3990 N   0  0  0  0  0  0  0  0  0  0  0  0
   -5.4720   -1.0430   -0.9700 C   0  0  2  0  0  0  0  0  0  0  0  0
   -5.4990   -2.3830   -1.7230 C   0  0  0  0  0  0  0  0  0  0  0  0
   -6.8130   -0.4130   -1.1660 C   0  0  0  0  0  0  0  0  0  0  0  0
    1.2500   -0.5920    1.9430 N   0  0  0  0  0  0  0  0  0  0  0  0
    3.0510    1.1230    0.5660 C   0  0  0  0  0  0  0  0  0  0  0  0
    4.0850    0.7860   -0.5080 C   0  0  1  0  0  0  0  0  0  0  0  0
    3.7440    1.3340   -1.7110 F   0  0  0  0  0  0  0  0  0  0  0  0
  1  2  1  0
  3  2  1  1
  3  4  1  0
  3 28  1  0
  4  5  1  0
  5  6  1  0
  6  7  1  0
  6 27  1  0
  7  8  2  0
  7 26  1  0
  8  9  1  0
  9 10  2  0
 10 11  1  0
 11 12  1  0
 11 26  2  0
 12 13  1  0
 13 14  2  0
 13 18  1  0
 14 15  1  0
 15 16  2  0
 15 22  1  0
 16 17  1  0
 16 19  1  0
 17 18  2  0
 19 20  2  0
 20 21  1  0
 20 22  1  0
 22 23  1  0
 23 24  1  6
 23 25  1  0
 27 28  1  0
 28 29  1  6
M  END
