
     RDKit          3D

 29 30  0  0  0  0  0  0  0  0999 V2000
   -3.9950    3.3510    2.9940 C   0  0  0  0  0  0  0  0  0  0  0  0
   -3.2980    2.4030    2.0500 C   0  0  0  0  0  0  0  0  0  0  0  0
   -3.6990    2.3150    0.7940 C   0  0  0  0  0  0  0  0  0  0  0  0
   -4.8420    3.1420    0.2850 C   0  0  0  0  0  0  0  0  0  0  0  0
   -3.0520    1.4170   -0.1720 C   0  0  0  0  0  0  0  0  0  0  0  0
   -3.4890    1.3590   -1.4030 C   0  0  0  0  0  0  0  0  0  0  0  0
   -2.9190    0.5120   -2.4410 C   0  0  0  0  0  0  0  0  0  0  0  0
   -3.4520    0.5110   -3.6770 C   0  0  0  0  0  0  0  0  0  0  0  0
   -2.6860   -0.4300   -4.5280 C   0  0  0  0  0  0  0  0  0  0  0  0
   -1.6660   -0.9320   -3.6050 C   0  0  0  0  0  0  0  0  0  0  0  0
   -1.7930   -0.4000   -2.4140 C   0  0  0  0  0  0  0  0  0  0  0  0
   -2.0170    0.6100    0.3040 N   0  0  0  0  0  0  0  0  0  0  0  0
   -0.7250    1.0660    0.7180 C   0  0  0  0  0  0  0  0  0  0  0  0
   -0.4780    2.2900    0.6520 O   0  0  0  0  0  0  0  0  0  0  0  0
    0.2660    0.0570    1.2100 C   0  0  0  0  0  0  0  0  0  0  0  0
    1.5230    0.7840    1.5670 C   0  0  2  0  0  0  0  0  0  0  0  0
    2.8310   -0.2580    2.1720 S   0  0  0  0  0  0  0  0  0  0  0  0
    3.5360   -1.3470    0.9920 C   0  0  0  0  0  0  0  0  0  0  0  0
    4.5120   -2.2290    1.4040 C   0  0  0  0  0  0  0  0  0  0  0  0
    5.1370   -3.1150    0.5190 C   0  0  0  0  0  0  0  0  0  0  0  0
    4.7790   -3.1220   -0.8070 C   0  0  0  0  0  0  0  0  0  0  0  0
    5.3740   -3.9770   -1.6970 O   0  0  0  0  0  0  0  0  0  0  0  0
    6.3740   -4.8650   -1.2670 C   0  0  0  0  0  0  0  0  0  0  0  0
    3.7930   -2.2220   -1.1860 C   0  0  0  0  0  0  0  0  0  0  0  0
    3.4390   -2.2380   -2.5290 O   0  0  0  0  0  0  0  0  0  0  0  0
    3.1760   -1.3530   -0.3360 C   0  0  0  0  0  0  0  0  0  0  0  0
    1.1800    1.7970    2.6060 C   0  0  0  0  0  0  0  0  0  0  0  0
    0.6430    1.3340    3.8280 N   0  0  0  0  0  0  0  0  0  0  0  0
    1.3740    3.0220    2.3690 O   0  0  0  0  0  0  0  0  0  0  0  0
  1  2  1  0
  2  3  2  3
  3  4  1  0
  3  5  1  0
  5  6  2  3
  5 12  1  0
  6  7  1  0
  7  8  2  0
  7 11  1  0
  8  9  1  0
  9 10  1  0
 10 11  2  0
 12 13  1  0
 13 14  2  0
 13 15  1  0
 16 15  1  1
 16 17  1  0
 16 27  1  0
 17 18  1  0
 18 19  2  0
 18 26  1  0
 19 20  1  0
 20 21  2  0
 21 22  1  0
 21 24  1  0
 22 23  1  0
 24 25  1  0
 24 26  2  0
 27 28  1  0
 27 29  2  0
M  END
