
     RDKit          3D

 30 33  0  0  0  0  0  0  0  0999 V2000
   -3.4210    4.1520    2.5620 C   0  0  0  0  0  0  0  0  0  0  0  0
   -4.2360    3.1900    1.7860 C   0  0  0  0  0  0  0  0  0  0  0  0
   -5.5180    3.3420    1.5240 C   0  0  0  0  0  0  0  0  0  0  0  0
   -5.9450    2.2060    0.7520 C   0  0  0  0  0  0  0  0  0  0  0  0
   -4.9400    1.3520    0.5350 C   0  0  0  0  0  0  0  0  0  0  0  0
   -3.7730    1.9180    1.1800 C   0  0  0  0  0  0  0  0  0  0  0  0
   -2.6210    1.4700    1.2510 N   0  0  0  0  0  0  0  0  0  0  0  0
   -2.1520    0.2140    0.6510 C   0  0  0  0  0  0  0  0  0  0  0  0
   -2.7210   -0.3950   -0.1720 N   0  0  0  0  0  0  0  0  0  0  0  0
   -3.1080   -1.2820   -1.0800 C   0  0  0  0  0  0  0  0  0  0  0  0
   -2.9800   -1.1080   -2.4660 C   0  0  0  0  0  0  0  0  0  0  0  0
   -3.3760   -2.0660   -3.3670 C   0  0  0  0  0  0  0  0  0  0  0  0
   -3.9240   -3.2550   -2.9480 C   0  0  0  0  0  0  0  0  0  0  0  0
   -4.0500   -3.4290   -1.5840 C   0  0  0  0  0  0  0  0  0  0  0  0
   -3.6700   -2.5090   -0.6770 C   0  0  0  0  0  0  0  0  0  0  0  0
   -0.9290   -0.3320    1.1910 N   0  0  0  0  0  0  0  0  0  0  0  0
    0.3180   -0.3220    0.6000 C   0  0  1  0  0  0  0  0  0  0  0  0
    1.1410   -1.4940    1.1820 C   0  0  0  0  0  0  0  0  0  0  0  0
    2.5840   -1.0540    1.0210 C   0  0  0  0  0  0  0  0  0  0  0  0
    2.9000   -0.7110   -0.2920 N   0  0  0  0  0  0  0  0  0  0  0  0
    4.1270   -1.0260   -0.8640 C   0  0  0  0  0  0  0  0  0  0  0  0
    5.3190   -0.3900   -0.2730 C   0  0  0  0  0  0  0  0  0  0  0  0
    6.5020   -0.3870   -1.0340 C   0  0  0  0  0  0  0  0  0  0  0  0
    7.6290    0.1990   -0.5250 C   0  0  0  0  0  0  0  0  0  0  0  0
    7.6180    0.7820    0.7130 C   0  0  0  0  0  0  0  0  0  0  0  0
    8.6400    1.3330    1.2180 O   0  0  0  0  0  0  0  0  0  0  0  0
    6.4800    0.7580    1.4040 N   0  0  0  0  0  0  0  0  0  0  0  0
    5.3710    0.1940    0.9290 N   0  0  0  0  0  0  0  0  0  0  0  0
    2.0260    0.1290   -1.0150 C   0  0  0  0  0  0  0  0  0  0  0  0
    0.5410   -0.2800   -0.8390 C   0  0  0  0  0  0  0  0  0  0  0  0
  1  2  1  0
  2  3  2  0
  2  6  1  0
  3  4  1  0
  4  5  2  0
  5  6  1  0
  6  7  2  3
  7  8  1  0
  8  9  2  3
  8 16  1  0
  9 10  1  0
 10 11  2  0
 10 15  1  0
 11 12  1  0
 12 13  2  0
 13 14  1  0
 14 15  2  0
 17 16  1  6
 17 18  1  0
 17 30  1  0
 18 19  1  0
 19 20  1  0
 20 21  1  0
 20 29  1  0
 21 22  1  0
 22 23  1  0
 22 28  2  0
 23 24  2  0
 24 25  1  0
 25 26  2  0
 25 27  1  0
 27 28  1  0
 29 30  1  0
M  END
