
     RDKit          3D

 29 31  0  0  0  0  0  0  0  0999 V2000
   -5.5580   -2.8770    1.0020 C   0  0  0  0  0  0  0  0  0  0  0  0
   -4.3160   -2.1320    0.5730 C   0  0  2  0  0  0  0  0  0  0  0  0
   -3.5000   -2.9300   -0.4210 C   0  0  0  0  0  0  0  0  0  0  0  0
   -3.5140   -1.8380    1.8320 C   0  0  0  0  0  0  0  0  0  0  0  0
   -2.2900   -1.1040    1.4080 C   0  0  0  0  0  0  0  0  0  0  0  0
   -0.6870   -1.7980    1.2490 S   0  0  0  0  0  0  0  0  0  0  0  0
    0.1270   -0.3520    0.7250 C   0  0  0  0  0  0  0  0  0  0  0  0
    1.5220   -0.2800    0.4100 N   0  0  0  0  0  0  0  0  0  0  0  0
    2.3350   -1.4240    0.5110 C   0  0  0  0  0  0  0  0  0  0  0  0
    1.7730   -2.4970    0.8930 O   0  0  0  0  0  0  0  0  0  0  0  0
    3.7680   -1.4410    0.2040 C   0  0  0  0  0  0  0  0  0  0  0  0
    4.4150   -0.3850   -0.1950 C   0  0  0  0  0  0  0  0  0  0  0  0
    5.8210   -0.4180   -0.4930 C   0  0  0  0  0  0  0  0  0  0  0  0
    6.6100   -1.5380   -0.3910 C   0  0  0  0  0  0  0  0  0  0  0  0
    7.9520   -1.5180   -0.6950 C   0  0  0  0  0  0  0  0  0  0  0  0
    8.5080   -0.3800   -1.1010 N   0  0  0  0  0  0  0  0  0  0  0  0
    7.7620    0.7500   -1.2150 C   0  0  0  0  0  0  0  0  0  0  0  0
    8.3130    1.8330   -1.6070 O   0  0  0  0  0  0  0  0  0  0  0  0
    6.4360    0.7630   -0.9230 C   0  0  0  0  0  0  0  0  0  0  0  0
   -0.8560    0.5760    0.6990 C   0  0  0  0  0  0  0  0  0  0  0  0
   -2.1010    0.2090    1.0460 C   0  0  0  0  0  0  0  0  0  0  0  0
   -3.0470    1.4010    0.9480 C   0  0  1  0  0  0  0  0  0  0  0  0
   -3.2890    2.0070    2.3120 C   0  0  0  0  0  0  0  0  0  0  0  0
   -2.2650    2.3900    0.1310 C   0  0  2  0  0  0  0  0  0  0  0  0
   -2.6830    2.2650   -1.3200 C   0  0  0  0  0  0  0  0  0  0  0  0
   -1.8530    3.2970   -2.0880 C   0  0  0  0  0  0  0  0  0  0  0  0
   -2.1690    4.5590   -1.5420 O   0  0  0  0  0  0  0  0  0  0  0  0
   -0.8630    2.0350    0.3490 C   0  0  0  0  0  0  0  0  0  0  0  0
    0.1050    2.8200    0.2530 O   0  0  0  0  0  0  0  0  0  0  0  0
  2  1  1  1
  2  3  1  0
  2  4  1  0
  4  5  1  0
  5  6  1  0
  5 21  2  0
  6  7  1  0
  7  8  1  0
  7 20  2  0
  8  9  1  0
  9 10  2  0
  9 11  1  0
 11 12  2  3
 12 13  1  0
 13 14  1  0
 13 19  2  0
 14 15  2  0
 15 16  1  0
 16 17  1  0
 17 18  2  0
 17 19  1  0
 20 21  1  0
 20 28  1  0
 21 22  1  0
 22 23  1  1
 22 24  1  0
 24 25  1  6
 24 28  1  0
 25 26  1  0
 26 27  1  0
 28 29  2  0
M  END
