
     RDKit          3D

 30 33  0  0  0  0  0  0  0  0999 V2000
   -6.4950   -0.3070    1.3820 C   0  0  0  0  0  0  0  0  0  0  0  0
   -5.2600   -1.1190    1.1450 C   0  0  1  0  0  0  0  0  0  0  0  0
   -4.7340   -1.5330    2.5260 C   0  0  0  0  0  0  0  0  0  0  0  0
   -5.6350   -2.3510    0.3570 C   0  0  0  0  0  0  0  0  0  0  0  0
   -4.2130   -0.3490    0.4130 C   0  0  0  0  0  0  0  0  0  0  0  0
   -3.8440   -0.7960   -0.6880 O   0  0  0  0  0  0  0  0  0  0  0  0
   -3.6510    0.8350    0.9190 N   0  0  0  0  0  0  0  0  0  0  0  0
   -2.6580    1.6520    0.3320 C   0  0  0  0  0  0  0  0  0  0  0  0
   -2.3250    2.8730    0.9500 C   0  0  0  0  0  0  0  0  0  0  0  0
   -1.3630    3.6740    0.4020 C   0  0  0  0  0  0  0  0  0  0  0  0
   -0.6930    3.3330   -0.7510 C   0  0  0  0  0  0  0  0  0  0  0  0
   -0.9860    2.1570   -1.3840 C   0  0  0  0  0  0  0  0  0  0  0  0
   -0.3410    1.7850   -2.5870 N   0  0  0  0  0  0  0  0  0  0  0  0
   -0.8540    2.1650   -3.8060 C   0  0  0  0  0  0  0  0  0  0  0  0
   -0.0450    1.6800   -4.8010 C   0  0  0  0  0  0  0  0  0  0  0  0
    0.9390    1.0180   -4.2030 N   0  0  0  0  0  0  0  0  0  0  0  0
    0.7420    1.0920   -2.8270 C   0  0  0  0  0  0  0  0  0  0  0  0
    1.6490    0.4680   -1.8900 C   0  0  0  0  0  0  0  0  0  0  0  0
    1.5070    0.5060   -0.5440 C   0  0  0  0  0  0  0  0  0  0  0  0
    2.4300   -0.1250    0.3190 C   0  0  0  0  0  0  0  0  0  0  0  0
    3.5060   -0.8000   -0.1930 C   0  0  0  0  0  0  0  0  0  0  0  0
    4.4570   -1.4490    0.6330 N   0  0  0  0  0  0  0  0  0  0  0  0
    4.4170   -1.5120    2.0690 C   0  0  0  0  0  0  0  0  0  0  0  0
    5.6110   -0.7110    2.5640 C   0  0  0  0  0  0  0  0  0  0  0  0
    6.6530   -0.5900    1.5920 N   0  0  0  0  0  0  0  0  0  0  0  0
    6.8450   -1.7380    0.7560 C   0  0  0  0  0  0  0  0  0  0  0  0
    5.5890   -2.1200   -0.0020 C   0  0  0  0  0  0  0  0  0  0  0  0
    3.6370   -0.8300   -1.5540 N   0  0  0  0  0  0  0  0  0  0  0  0
    2.7620   -0.2320   -2.3700 C   0  0  0  0  0  0  0  0  0  0  0  0
   -1.9760    1.3370   -0.8140 C   0  0  0  0  0  0  0  0  0  0  0  0
  2  1  1  1
  2  3  1  0
  2  4  1  0
  2  5  1  0
  5  6  2  0
  5  7  1  0
  7  8  1  0
  8  9  2  0
  8 30  1  0
  9 10  1  0
 10 11  2  0
 11 12  1  0
 12 13  1  0
 12 30  2  0
 13 14  1  0
 13 17  1  0
 14 15  2  0
 15 16  1  0
 16 17  2  0
 17 18  1  0
 18 19  2  0
 18 29  1  0
 19 20  1  0
 20 21  2  0
 21 22  1  0
 21 28  1  0
 22 23  1  0
 22 27  1  0
 23 24  1  0
 24 25  1  0
 25 26  1  0
 26 27  1  0
 28 29  2  0
M  END
