
     RDKit          3D

 29 31  0  0  0  0  0  0  0  0999 V2000
   -2.2660    3.5170    2.7320 C   0  0  0  0  0  0  0  0  0  0  0  0
   -1.7690    2.5480    1.9760 C   0  0  0  0  0  0  0  0  0  0  0  0
   -0.5890    2.8290    1.1330 C   0  0  0  0  0  0  0  0  0  0  0  0
   -1.0010    2.5710   -0.3120 C   0  0  0  0  0  0  0  0  0  0  0  0
   -1.4130    1.1430   -0.3940 C   0  0  0  0  0  0  0  0  0  0  0  0
   -3.0350    0.5370   -0.4260 S   0  0  0  0  0  0  0  0  0  0  0  0
   -2.6620   -1.1780   -0.5100 C   0  0  0  0  0  0  0  0  0  0  0  0
   -3.5520   -2.3310   -0.5620 C   0  0  1  0  0  0  0  0  0  0  0  0
   -3.0500   -3.3110    0.3250 O   0  0  0  0  0  0  0  0  0  0  0  0
   -4.9200   -2.0110   -0.1770 C   0  0  0  0  0  0  0  0  0  0  0  0
   -5.3610   -1.4270    0.9870 C   0  0  0  0  0  0  0  0  0  0  0  0
   -6.7210   -1.3100    0.9390 N   0  0  0  0  0  0  0  0  0  0  0  0
   -7.1560   -1.8070   -0.2310 C   0  0  0  0  0  0  0  0  0  0  0  0
   -6.0400   -2.2490   -0.9380 C   0  0  0  0  0  0  0  0  0  0  0  0
   -6.1540   -2.8200   -2.1960 O   0  0  0  0  0  0  0  0  0  0  0  0
   -1.2820   -1.1800   -0.5080 C   0  0  0  0  0  0  0  0  0  0  0  0
   -0.6360   -0.0130   -0.4500 C   0  0  0  0  0  0  0  0  0  0  0  0
    0.8040    0.1500   -0.4510 N   0  0  0  0  0  0  0  0  0  0  0  0
    1.7570   -0.8820   -0.4750 C   0  0  0  0  0  0  0  0  0  0  0  0
    1.3670   -2.0800   -0.5010 O   0  0  0  0  0  0  0  0  0  0  0  0
    3.2080   -0.5940   -0.4720 C   0  0  0  0  0  0  0  0  0  0  0  0
    3.7350    0.6280   -0.1940 C   0  0  0  0  0  0  0  0  0  0  0  0
    5.1060    0.8810   -0.2010 C   0  0  0  0  0  0  0  0  0  0  0  0
    5.9770   -0.1540   -0.5050 C   0  0  0  0  0  0  0  0  0  0  0  0
    7.4020    0.0830   -0.5200 C   0  0  0  0  0  0  0  0  0  0  0  0
    7.9140    1.4370   -0.2070 C   0  0  0  0  0  0  0  0  0  0  0  0
    8.1970   -0.8470   -0.7940 O   0  0  0  0  0  0  0  0  0  0  0  0
    5.4450   -1.4150   -0.7940 C   0  0  0  0  0  0  0  0  0  0  0  0
    4.0750   -1.6270   -0.7760 C   0  0  0  0  0  0  0  0  0  0  0  0
  1  2  2  0
  2  3  1  0
  3  4  1  0
  4  5  1  0
  5  6  1  0
  5 17  2  0
  6  7  1  0
  7  8  1  0
  7 16  2  0
  8  9  1  1
  8 10  1  0
 10 11  2  0
 10 14  1  0
 11 12  1  0
 12 13  1  0
 13 14  2  0
 14 15  1  0
 16 17  1  0
 17 18  1  0
 18 19  1  0
 19 20  2  0
 19 21  1  0
 21 22  2  0
 21 29  1  0
 22 23  1  0
 23 24  2  0
 24 25  1  0
 24 28  1  0
 25 26  1  0
 25 27  2  0
 28 29  2  0
M  END
