
     RDKit          3D

 30 33  0  0  0  0  0  0  0  0999 V2000
   -3.3150    2.0360   -1.1100 N   0  0  0  0  0  0  0  0  0  0  0  0
   -3.2300    1.0330   -0.5220 C   0  0  0  0  0  0  0  0  0  0  0  0
   -3.1460   -0.1840    0.1750 C   0  0  0  0  0  0  0  0  0  0  0  0
   -4.3560   -0.6440    0.5300 C   0  0  0  0  0  0  0  0  0  0  0  0
   -4.8420   -1.8190    1.2420 C   0  0  0  0  0  0  0  0  0  0  0  0
   -4.3750   -3.0430    1.4050 C   0  0  0  0  0  0  0  0  0  0  0  0
   -3.1450   -3.7110    0.9140 C   0  0  0  0  0  0  0  0  0  0  0  0
   -3.3060   -5.1000    0.8150 N   0  0  0  0  0  0  0  0  0  0  0  0
   -1.9580   -3.2500    0.5690 C   0  0  0  0  0  0  0  0  0  0  0  0
   -1.3320   -1.9070    0.5150 C   0  0  0  0  0  0  0  0  0  0  0  0
   -1.7700   -0.6930    0.3640 C   0  0  0  0  0  0  0  0  0  0  0  0
   -0.8160    0.4190    0.3980 C   0  0  0  0  0  0  0  0  0  0  0  0
   -1.1460    1.7160    0.2550 N   0  0  0  0  0  0  0  0  0  0  0  0
   -0.1340    2.5270    0.3290 N   0  0  0  0  0  0  0  0  0  0  0  0
   -0.1450    3.9580    0.2180 C   0  0  0  0  0  0  0  0  0  0  0  0
    0.4370    4.7500    1.1720 C   0  0  0  0  0  0  0  0  0  0  0  0
    0.4130    6.1440    1.0400 C   0  0  0  0  0  0  0  0  0  0  0  0
   -0.1960    6.7210   -0.0500 C   0  0  0  0  0  0  0  0  0  0  0  0
   -0.7580    5.9300   -0.9680 N   0  0  0  0  0  0  0  0  0  0  0  0
   -0.7430    4.5640   -0.8530 C   0  0  0  0  0  0  0  0  0  0  0  0
    0.9430    1.7530    0.5310 C   0  0  0  0  0  0  0  0  0  0  0  0
    0.5360    0.4100    0.5790 C   0  0  0  0  0  0  0  0  0  0  0  0
    1.5010   -0.6280    0.7920 C   0  0  0  0  0  0  0  0  0  0  0  0
    1.7560   -0.9700    1.9950 O   0  0  0  0  0  0  0  0  0  0  0  0
    2.1820   -1.2850   -0.2610 N   0  0  0  0  0  0  0  0  0  0  0  0
    3.1490   -2.3250    0.0300 C   0  0  0  0  0  0  0  0  0  0  0  0
    4.4640   -2.0500   -0.6030 C   0  0  0  0  0  0  0  0  0  0  0  0
    4.5150   -0.9180   -1.5580 C   0  0  0  0  0  0  0  0  0  0  0  0
    3.2700   -0.5470   -2.2580 C   0  0  0  0  0  0  0  0  0  0  0  0
    1.9970   -1.0050   -1.6500 C   0  0  0  0  0  0  0  0  0  0  0  0
  1  2  3  0
  2  3  1  0
  3  4  2  0
  3 11  1  0
  4  5  1  0
  5  6  2  0
  6  7  1  0
  7  8  1  0
  7  9  2  0
  9 10  1  0
 10 11  2  0
 11 12  1  0
 12 13  2  0
 12 22  1  0
 13 14  1  0
 14 15  1  0
 14 21  1  0
 15 16  2  0
 15 20  1  0
 16 17  1  0
 17 18  2  0
 18 19  1  0
 19 20  2  0
 21 22  2  0
 22 23  1  0
 23 24  2  0
 23 25  1  0
 25 26  1  0
 25 30  1  0
 26 27  1  0
 27 28  1  0
 28 29  1  0
 29 30  1  0
M  END
