
     RDKit          3D

 34 37  0  0  0  0  0  0  0  0999 V2000
    9.5090   -1.4890    0.1820 C   0  0  0  0  0  0  0  0  0  0  0  0
    8.4590   -0.9360   -0.5560 O   0  0  0  0  0  0  0  0  0  0  0  0
    7.2710   -0.9380    0.1980 C   0  0  1  0  0  0  0  0  0  0  0  0
    6.9410    0.5140    0.4580 C   0  0  0  0  0  0  0  0  0  0  0  0
    6.0020    0.9840   -0.6300 C   0  0  0  0  0  0  0  0  0  0  0  0
    4.7580    0.2890   -0.4250 N   0  0  0  0  0  0  0  0  0  0  0  0
    3.5090    0.9540   -0.4950 C   0  0  0  0  0  0  0  0  0  0  0  0
    3.5040    2.2910   -0.7580 N   0  0  0  0  0  0  0  0  0  0  0  0
    2.3890    3.0030   -0.8440 C   0  0  0  0  0  0  0  0  0  0  0  0
    1.1730    2.3140   -0.6500 C   0  0  0  0  0  0  0  0  0  0  0  0
    1.1590    0.9720   -0.3860 C   0  0  0  0  0  0  0  0  0  0  0  0
   -0.0580    0.2780   -0.1900 N   0  0  0  0  0  0  0  0  0  0  0  0
   -1.3630    0.7930   -0.2250 C   0  0  0  0  0  0  0  0  0  0  0  0
   -2.4240   -0.1010   -0.0000 C   0  0  0  0  0  0  0  0  0  0  0  0
   -3.7360    0.3360   -0.0180 C   0  0  0  0  0  0  0  0  0  0  0  0
   -3.9700    1.6540   -0.2580 C   0  0  0  0  0  0  0  0  0  0  0  0
   -2.9350    2.5660   -0.4840 C   0  0  0  0  0  0  0  0  0  0  0  0
   -1.6950    2.0580   -0.4500 N   0  0  0  0  0  0  0  0  0  0  0  0
   -5.2780    1.8240   -0.2240 N   0  0  0  0  0  0  0  0  0  0  0  0
   -5.8540    0.6270    0.0340 C   0  0  0  0  0  0  0  0  0  0  0  0
   -7.3240    0.4810    0.1350 C   0  0  1  0  0  0  0  0  0  0  0  0
   -7.8840    1.2280    1.3530 C   0  0  0  0  0  0  0  0  0  0  0  0
   -7.8680    1.1840   -0.9700 O   0  0  0  0  0  0  0  0  0  0  0  0
   -4.9130   -0.3230    0.1680 N   0  0  0  0  0  0  0  0  0  0  0  0
   -5.0870   -1.7170    0.4410 C   0  0  1  0  0  0  0  0  0  0  0  0
   -6.1280   -2.0380    1.4780 C   0  0  0  0  0  0  0  0  0  0  0  0
   -5.2290   -2.5500   -0.8170 C   0  0  2  0  0  0  0  0  0  0  0  0
   -6.3150   -2.1660   -1.5790 F   0  0  0  0  0  0  0  0  0  0  0  0
   -5.4870   -3.8800   -0.4580 F   0  0  0  0  0  0  0  0  0  0  0  0
   -4.0650   -2.5820   -1.5470 F   0  0  0  0  0  0  0  0  0  0  0  0
    2.3470    0.3180   -0.3150 N   0  0  0  0  0  0  0  0  0  0  0  0
    4.7910   -1.1220   -0.1380 C   0  0  0  0  0  0  0  0  0  0  0  0
    6.1720   -1.6750   -0.4980 C   0  0  1  0  0  0  0  0  0  0  0  0
    6.3890   -1.5830   -1.8630 F   0  0  0  0  0  0  0  0  0  0  0  0
  1  2  1  0
  3  2  1  6
  3  4  1  0
  3 33  1  0
  4  5  1  0
  5  6  1  0
  6  7  1  0
  6 32  1  0
  7  8  2  0
  7 31  1  0
  8  9  1  0
  9 10  2  0
 10 11  1  0
 11 12  1  0
 11 31  2  0
 12 13  1  0
 13 14  2  0
 13 18  1  0
 14 15  1  0
 15 16  2  0
 15 24  1  0
 16 17  1  0
 16 19  1  0
 17 18  2  0
 19 20  2  0
 20 21  1  0
 20 24  1  0
 21 22  1  1
 21 23  1  0
 24 25  1  0
 25 26  1  1
 25 27  1  0
 27 28  1  6
 27 29  1  0
 27 30  1  0
 32 33  1  0
 33 34  1  6
M  END
