
     RDKit          3D

 34 36  0  0  0  0  0  0  0  0999 V2000
   -1.5850    1.0070    0.5130 C   0  0  0  0  0  0  0  0  0  0  0  0
   -2.2810   -0.2710    0.2080 C   0  0  0  0  0  0  0  0  0  0  0  0
   -3.6070   -0.3320    0.5460 N   0  0  0  0  0  0  0  0  0  0  0  0
   -4.3700   -1.3890    0.3430 C   0  0  0  0  0  0  0  0  0  0  0  0
   -5.7520   -1.4450    0.6670 N   0  0  0  0  0  0  0  0  0  0  0  0
   -6.3520   -0.2690    1.1950 N   0  0  0  0  0  0  0  0  0  0  0  0
   -7.2970    0.4690    0.4340 C   0  0  0  0  0  0  0  0  0  0  0  0
   -7.5650    0.0290   -0.7020 O   0  0  0  0  0  0  0  0  0  0  0  0
   -7.9390    1.6790    0.9260 C   0  0  0  0  0  0  0  0  0  0  0  0
   -8.8730    2.4530    0.2720 C   0  0  0  0  0  0  0  0  0  0  0  0
   -9.2540    3.5330    1.0650 C   0  0  0  0  0  0  0  0  0  0  0  0
   -8.5440    3.4090    2.2100 N   0  0  0  0  0  0  0  0  0  0  0  0
   -7.7550    2.3100    2.1430 C   0  0  0  0  0  0  0  0  0  0  0  0
   -3.7840   -2.4480   -0.2280 N   0  0  0  0  0  0  0  0  0  0  0  0
   -2.5090   -2.4790   -0.5880 C   0  0  0  0  0  0  0  0  0  0  0  0
   -1.6640   -1.3490   -0.3800 C   0  0  0  0  0  0  0  0  0  0  0  0
   -0.3610   -1.7090   -0.9090 C   0  0  2  0  0  0  0  0  0  0  0  0
    0.6440   -0.8340   -1.4430 C   0  0  0  0  0  0  0  0  0  0  0  0
    1.4090    0.1830   -0.7140 C   0  0  0  0  0  0  0  0  0  0  0  0
    2.2690    0.8420   -1.7390 N   0  0  0  0  0  0  0  0  0  0  0  0
    3.2380    2.0580   -1.0480 S   0  0  1  0  0  0  0  0  0  0  0  0
    2.9050    3.3540   -1.7850 O   0  0  0  0  0  0  0  0  0  0  0  0
    2.8330    2.3360    0.3970 O   0  0  0  0  0  0  0  0  0  0  0  0
    4.9050    1.8150   -1.1590 N   0  0  0  0  0  0  0  0  0  0  0  0
    5.5010    0.9200   -0.2230 C   0  0  0  0  0  0  0  0  0  0  0  0
    7.0110    0.8200   -0.4590 C   0  0  0  0  0  0  0  0  0  0  0  0
    7.6690   -0.1100    0.4730 C   0  0  0  0  0  0  0  0  0  0  0  0
    6.9850   -0.7390    1.2990 O   0  0  0  0  0  0  0  0  0  0  0  0
    9.0760   -0.2650    0.4050 N   0  0  0  0  0  0  0  0  0  0  0  0
    9.7630   -1.1250    1.2490 N   0  0  0  0  0  0  0  0  0  0  0  0
    8.8300   -2.5120    1.7440 S   0  0  0  0  0  0  0  0  0  0  0  0
    8.6050   -2.5610    3.2360 O   0  0  0  0  0  0  0  0  0  0  0  0
   -0.7490   -2.6930   -2.0600 C   0  0  0  0  0  0  0  0  0  0  0  0
   -1.6880   -3.5640   -1.2480 C   0  0  0  0  0  0  0  0  0  0  0  0
  1  2  1  0
  2  3  2  0
  2 16  1  0
  3  4  1  0
  4  5  1  0
  4 14  2  0
  5  6  1  0
  6  7  1  0
  7  8  2  0
  7  9  1  0
  9 10  1  0
  9 13  2  0
 10 11  2  0
 11 12  1  0
 12 13  1  0
 14 15  1  0
 15 16  2  0
 15 34  1  0
 16 17  1  0
 17 18  1  6
 17 33  1  0
 18 19  1  0
 19 20  1  0
 21 20  1  6
 21 22  2  0
 21 23  2  0
 21 24  1  0
 24 25  1  0
 25 26  1  0
 26 27  1  0
 27 28  2  0
 27 29  1  0
 29 30  1  0
 30 31  1  0
 31 32  2  0
 33 34  1  0
M  END
