
     RDKit          3D

 34 36  0  0  0  0  0  0  0  0999 V2000
   -7.5140    4.7520    0.8200 C   0  0  0  0  0  0  0  0  0  0  0  0
   -8.2820    3.2790    1.5410 S   0  0  0  0  0  0  0  0  0  0  0  0
   -7.4040    1.8140    1.0230 C   0  0  0  0  0  0  0  0  0  0  0  0
   -7.6730    1.1070   -0.0630 N   0  0  0  0  0  0  0  0  0  0  0  0
   -6.8170    0.1040   -0.1100 N   0  0  0  0  0  0  0  0  0  0  0  0
   -5.9730    0.1270    0.9330 C   0  0  0  0  0  0  0  0  0  0  0  0
   -4.8920   -0.7880    1.2720 C   0  0  0  0  0  0  0  0  0  0  0  0
   -3.6280   -0.4860    0.9570 O   0  0  0  0  0  0  0  0  0  0  0  0
   -3.1980   -0.3200   -0.3090 C   0  0  2  0  0  0  0  0  0  0  0  0
   -3.9460    0.8870   -0.9760 C   0  0  0  0  0  0  0  0  0  0  0  0
   -3.3900   -1.4230   -1.2750 C   0  0  0  0  0  0  0  0  0  0  0  0
   -2.8410   -2.6960   -1.0040 N   0  0  0  0  0  0  0  0  0  0  0  0
   -3.0710   -3.7020   -2.0270 C   0  0  0  0  0  0  0  0  0  0  0  0
   -2.5630   -5.0160   -1.8550 N   0  0  0  0  0  0  0  0  0  0  0  0
   -3.7130   -3.4540   -3.0780 O   0  0  0  0  0  0  0  0  0  0  0  0
   -1.7670    0.1480   -0.2960 C   0  0  0  0  0  0  0  0  0  0  0  0
   -0.8290   -0.6640    0.3800 N   0  0  0  0  0  0  0  0  0  0  0  0
    0.5690   -0.2800    0.3970 C   0  0  0  0  0  0  0  0  0  0  0  0
    0.8600    0.7640   -0.1980 O   0  0  0  0  0  0  0  0  0  0  0  0
    1.5390   -1.0470    1.0520 N   0  0  0  0  0  0  0  0  0  0  0  0
    2.9160   -0.7430    1.1150 C   0  0  0  0  0  0  0  0  0  0  0  0
    3.5510    0.3300    0.5660 C   0  0  0  0  0  0  0  0  0  0  0  0
    4.8930    0.5570    0.6700 N   0  0  0  0  0  0  0  0  0  0  0  0
    5.6570   -0.2980    1.3390 C   0  0  0  0  0  0  0  0  0  0  0  0
    7.4020   -0.0130    1.4650 S   0  0  0  0  0  0  0  0  0  0  0  0
    7.8770    1.4370    0.5100 C   0  0  2  0  0  0  0  0  0  0  0  0
    7.7270    1.1550   -0.9640 C   0  0  0  0  0  0  0  0  0  0  0  0
    9.0750    0.5960   -1.3490 C   0  0  0  0  0  0  0  0  0  0  0  0
    9.8630    0.7440   -0.0560 C   0  0  0  0  0  0  0  0  0  0  0  0
    9.2080    1.7210    0.6680 O   0  0  0  0  0  0  0  0  0  0  0  0
    5.0630   -1.3820    1.9030 N   0  0  0  0  0  0  0  0  0  0  0  0
    3.7480   -1.6280    1.8150 C   0  0  0  0  0  0  0  0  0  0  0  0
    3.2920   -2.6570    2.3700 O   0  0  0  0  0  0  0  0  0  0  0  0
   -6.3710    1.2300    1.6410 N   0  0  0  0  0  0  0  0  0  0  0  0
  1  2  1  0
  2  3  1  0
  3  4  2  0
  3 34  1  0
  4  5  1  0
  5  6  1  0
  6  7  1  0
  6 34  2  0
  7  8  1  0
  8  9  1  0
  9 10  1  6
  9 11  1  0
  9 16  1  0
 11 12  1  0
 12 13  1  0
 13 14  1  0
 13 15  2  0
 16 17  1  0
 17 18  1  0
 18 19  2  0
 18 20  1  0
 20 21  1  0
 21 22  2  0
 21 32  1  0
 22 23  1  0
 23 24  1  0
 24 25  1  0
 24 31  2  0
 26 25  1  1
 26 27  1  0
 26 30  1  0
 27 28  1  0
 28 29  1  0
 29 30  1  0
 31 32  1  0
 32 33  2  0
M  END
