
     RDKit          3D

 34 36  0  0  0  0  0  0  0  0999 V2000
   -7.0230    1.3370    1.5130 C   0  0  0  0  0  0  0  0  0  0  0  0
   -6.2740    0.7010    0.4270 N   0  0  0  0  0  0  0  0  0  0  0  0
   -6.0280    1.2530   -0.8470 C   0  0  0  0  0  0  0  0  0  0  0  0
   -6.4050    2.3610   -1.2530 O   0  0  0  0  0  0  0  0  0  0  0  0
   -5.2730    0.3140   -1.5790 N   0  0  0  0  0  0  0  0  0  0  0  0
   -5.2650   -0.9470   -0.9150 C   0  0  1  0  0  0  0  0  0  0  0  0
   -6.3550   -1.8460   -1.5030 C   0  0  0  0  0  0  0  0  0  0  0  0
   -3.9950   -1.7080   -0.9400 C   0  0  0  0  0  0  0  0  0  0  0  0
   -2.8050   -1.0580   -0.3160 C   0  0  0  0  0  0  0  0  0  0  0  0
   -2.3850    0.2400   -0.9050 C   0  0  0  0  0  0  0  0  0  0  0  0
   -1.2290    0.7530   -0.2210 N   0  0  0  0  0  0  0  0  0  0  0  0
   -0.0110    0.0370   -0.2360 C   0  0  0  0  0  0  0  0  0  0  0  0
    0.0730   -1.0410   -0.8500 O   0  0  0  0  0  0  0  0  0  0  0  0
    1.1540    0.5150    0.4420 N   0  0  0  0  0  0  0  0  0  0  0  0
    2.3360   -0.2530    0.3790 C   0  0  0  0  0  0  0  0  0  0  0  0
    2.6110   -1.2220    1.3260 C   0  0  0  0  0  0  0  0  0  0  0  0
    1.7000   -1.4410    2.3850 N   0  0  0  0  0  0  0  0  0  0  0  0
    3.7470   -1.9390    1.2150 N   0  0  0  0  0  0  0  0  0  0  0  0
    4.6500   -1.7760    0.2300 C   0  0  0  0  0  0  0  0  0  0  0  0
    5.8600   -2.5830    0.1600 C   0  0  0  0  0  0  0  0  0  0  0  0
    6.2810   -3.5430    0.9590 C   0  0  0  0  0  0  0  0  0  0  0  0
    7.5960   -4.0100    0.3870 C   0  0  0  0  0  0  0  0  0  0  0  0
    7.4970   -3.6100   -0.9410 O   0  0  0  0  0  0  0  0  0  0  0  0
    6.8420   -2.4440   -0.8540 N   0  0  0  0  0  0  0  0  0  0  0  0
    4.3630   -0.8280   -0.6810 N   0  0  0  0  0  0  0  0  0  0  0  0
    3.2510   -0.0780   -0.6310 C   0  0  0  0  0  0  0  0  0  0  0  0
    2.9280    1.1710   -1.8590 S   0  0  0  0  0  0  0  0  0  0  0  0
    3.6680    2.7230   -1.3320 C   0  0  0  0  0  0  0  0  0  0  0  0
    3.0270    3.2870   -0.0890 C   0  0  0  0  0  0  0  0  0  0  0  0
    3.6430    4.5380    0.3090 N   0  0  0  0  0  0  0  0  0  0  0  0
    2.9170    5.1890    1.7420 S   0  0  0  0  0  0  0  0  0  0  0  0
    1.8640    6.2440    1.4490 O   0  0  0  0  0  0  0  0  0  0  0  0
   -5.6640   -0.5890    0.4780 C   0  0  0  0  0  0  0  0  0  0  0  0
   -5.5160   -1.2580    1.5290 O   0  0  0  0  0  0  0  0  0  0  0  0
  1  2  1  0
  2  3  1  0
  2 33  1  0
  3  4  2  0
  3  5  1  0
  5  6  1  0
  6  7  1  6
  6  8  1  0
  6 33  1  0
  8  9  1  0
  9 10  1  0
 10 11  1  0
 11 12  1  0
 12 13  2  0
 12 14  1  0
 14 15  1  0
 15 16  2  0
 15 26  1  0
 16 17  1  0
 16 18  1  0
 18 19  2  0
 19 20  1  0
 19 25  1  0
 20 21  2  0
 20 24  1  0
 21 22  1  0
 22 23  1  0
 23 24  1  0
 25 26  2  0
 26 27  1  0
 27 28  1  0
 28 29  1  0
 29 30  1  0
 30 31  1  0
 31 32  2  0
 33 34  2  0
M  END
