
     RDKit          3D

 34 36  0  0  0  0  0  0  0  0999 V2000
   -7.4100   -1.5390   -2.2050 N   0  0  0  0  0  0  0  0  0  0  0  0
   -6.1780   -1.9050   -1.6360 C   0  0  0  0  0  0  0  0  0  0  0  0
   -5.8410   -3.1060   -1.5950 O   0  0  0  0  0  0  0  0  0  0  0  0
   -5.2860   -0.8740   -1.0890 C   0  0  2  0  0  0  0  0  0  0  0  0
   -5.8920   -0.0680    0.0240 C   0  0  0  0  0  0  0  0  0  0  0  0
   -6.2990   -0.8930    1.2000 C   0  0  0  0  0  0  0  0  0  0  0  0
   -7.0060    0.2480    2.4270 S   0  0  0  0  0  0  0  0  0  0  0  0
   -7.8480    1.2600    1.6780 O   0  0  0  0  0  0  0  0  0  0  0  0
   -4.8580    0.0160   -2.2360 C   0  0  0  0  0  0  0  0  0  0  0  0
   -3.3490    0.2120   -2.0990 C   0  0  0  0  0  0  0  0  0  0  0  0
   -3.1180   -0.2590   -0.7540 N   0  0  0  0  0  0  0  0  0  0  0  0
   -2.2570    0.3180    0.2160 C   0  0  0  0  0  0  0  0  0  0  0  0
   -2.2030   -0.2480    1.3240 O   0  0  0  0  0  0  0  0  0  0  0  0
   -1.4840    1.4990   -0.0610 C   0  0  0  0  0  0  0  0  0  0  0  0
   -0.6620    2.1540    0.6890 C   0  0  0  0  0  0  0  0  0  0  0  0
   -0.0120    3.3260    0.1420 N   0  0  0  0  0  0  0  0  0  0  0  0
   -0.3170    1.8240    2.0680 C   0  0  0  0  0  0  0  0  0  0  0  0
    1.1400    1.5880    2.0750 N   0  0  0  0  0  0  0  0  0  0  0  0
    1.6880    0.4570    1.4160 C   0  0  0  0  0  0  0  0  0  0  0  0
    1.0130   -0.6350    1.3130 N   0  0  0  0  0  0  0  0  0  0  0  0
    1.6000   -1.7430    0.6450 C   0  0  0  0  0  0  0  0  0  0  0  0
    2.8040   -1.6900    0.1300 N   0  0  0  0  0  0  0  0  0  0  0  0
    3.5810   -0.5350    0.2100 N   0  0  0  0  0  0  0  0  0  0  0  0
    4.8950   -0.5190   -0.3660 C   0  0  1  0  0  0  0  0  0  0  0  0
    5.5820    0.8200   -0.2040 C   0  0  0  0  0  0  0  0  0  0  0  0
    6.8230    0.7450   -1.0970 C   0  0  0  0  0  0  0  0  0  0  0  0
    7.2990   -0.6880   -1.2200 C   0  0  0  0  0  0  0  0  0  0  0  0
    7.0740   -1.4540   -0.0400 N   0  0  0  0  0  0  0  0  0  0  0  0
    8.1540   -1.1380    1.2400 S   0  0  2  0  0  0  0  0  0  0  0  0
    9.5710   -1.5100    0.9030 O   0  0  0  0  0  0  0  0  0  0  0  0
    7.7370   -2.0040    2.4080 O   0  0  0  0  0  0  0  0  0  0  0  0
    5.7270   -1.5250    0.4220 C   0  0  0  0  0  0  0  0  0  0  0  0
    3.0000    0.5650    0.8730 N   0  0  0  0  0  0  0  0  0  0  0  0
   -3.9530   -1.4320   -0.6260 C   0  0  0  0  0  0  0  0  0  0  0  0
  1  2  1  0
  2  3  2  0
  2  4  1  0
  4  5  1  1
  4  9  1  0
  4 34  1  0
  5  6  1  0
  6  7  1  0
  7  8  2  0
  9 10  1  0
 10 11  1  0
 11 12  1  0
 11 34  1  0
 12 13  2  0
 12 14  1  0
 14 15  2  3
 15 16  1  0
 15 17  1  0
 17 18  1  0
 18 19  1  0
 19 20  2  0
 19 33  1  0
 20 21  1  0
 21 22  2  0
 22 23  1  0
 24 23  1  1
 23 33  1  0
 24 25  1  0
 24 32  1  0
 25 26  1  0
 26 27  1  0
 27 28  1  0
 29 28  1  6
 28 32  1  0
 29 30  2  0
 29 31  2  0
M  END
