
     RDKit          3D

 34 36  0  0  0  0  0  0  0  0999 V2000
   -1.3970   -0.1090    3.8560 C   0  0  0  0  0  0  0  0  0  0  0  0
   -1.0630   -0.6540    2.4580 C   0  0  2  0  0  0  0  0  0  0  0  0
   -0.0610    0.2490    1.9350 N   0  0  0  0  0  0  0  0  0  0  0  0
    1.2720   -0.1670    1.7980 C   0  0  0  0  0  0  0  0  0  0  0  0
    1.6370   -1.3300    2.1590 O   0  0  0  0  0  0  0  0  0  0  0  0
    2.2950    0.6540    1.2540 N   0  0  0  0  0  0  0  0  0  0  0  0
    3.6730    0.2600    1.1300 C   0  0  0  0  0  0  0  0  0  0  0  0
    3.9060   -1.0060    0.3540 C   0  0  0  0  0  0  0  0  0  0  0  0
    5.3760   -1.1520    0.3120 N   0  0  0  0  0  0  0  0  0  0  0  0
    6.1790   -0.2470   -0.3980 C   0  0  0  0  0  0  0  0  0  0  0  0
    5.5730    0.6770   -1.0420 O   0  0  0  0  0  0  0  0  0  0  0  0
    7.6610   -0.2600   -0.4730 C   0  0  0  0  0  0  0  0  0  0  0  0
    8.0920    0.7890   -1.3810 N   0  0  0  0  0  0  0  0  0  0  0  0
    8.3760    2.1360   -1.1600 C   0  0  0  0  0  0  0  0  0  0  0  0
    8.2880    2.7200   -0.0470 O   0  0  0  0  0  0  0  0  0  0  0  0
    8.7830    2.7780   -2.3590 N   0  0  0  0  0  0  0  0  0  0  0  0
    8.7530    1.7810   -3.3940 C   0  0  0  0  0  0  0  0  0  0  0  0
    9.0410    1.9250   -4.6110 O   0  0  0  0  0  0  0  0  0  0  0  0
    8.3230    0.5450   -2.7800 C   0  0  0  0  0  0  0  0  0  0  0  0
    8.1680   -0.5750   -3.3570 O   0  0  0  0  0  0  0  0  0  0  0  0
   -2.3170   -0.5760    1.6010 C   0  0  0  0  0  0  0  0  0  0  0  0
   -2.1920   -0.3500    0.2530 C   0  0  0  0  0  0  0  0  0  0  0  0
   -3.9650   -0.3270   -0.2790 S   0  0  0  0  0  0  0  0  0  0  0  0
   -4.5530   -0.6300    1.4250 C   0  0  0  0  0  0  0  0  0  0  0  0
   -6.0180   -0.7480    1.6830 N   0  0  0  0  0  0  0  0  0  0  0  0
   -6.7290   -1.6440    0.8420 N   0  0  0  0  0  0  0  0  0  0  0  0
   -7.2660   -1.0510   -0.3390 C   0  0  0  0  0  0  0  0  0  0  0  0
   -8.3480   -0.3070   -0.1250 C   0  0  0  0  0  0  0  0  0  0  0  0
   -9.1580    0.4560   -1.1430 C   0  0  0  0  0  0  0  0  0  0  0  0
   -8.2870    1.5610   -1.5460 N   0  0  0  0  0  0  0  0  0  0  0  0
   -7.3860    1.0590   -2.9640 S   0  0  0  0  0  0  0  0  0  0  0  0
   -6.6210   -0.5310   -2.7210 C   0  0  0  0  0  0  0  0  0  0  0  0
   -6.6370   -1.2880   -1.6250 C   0  0  0  0  0  0  0  0  0  0  0  0
   -3.5480   -0.6920    2.0350 N   0  0  0  0  0  0  0  0  0  0  0  0
  2  1  1  1
  2  3  1  0
  2 21  1  0
  3  4  1  0
  4  5  2  0
  4  6  1  0
  6  7  1  0
  7  8  1  0
  8  9  1  0
  9 10  1  0
 10 11  2  0
 10 12  1  0
 12 13  1  0
 13 14  1  0
 13 19  1  0
 14 15  2  0
 14 16  1  0
 16 17  1  0
 17 18  2  0
 17 19  1  0
 19 20  2  0
 21 22  2  0
 21 34  1  0
 22 23  1  0
 23 24  1  0
 24 25  1  0
 24 34  2  0
 25 26  1  0
 26 27  1  0
 27 28  2  0
 27 33  1  0
 28 29  1  0
 29 30  1  0
 30 31  1  0
 31 32  1  0
 32 33  2  0
M  END
