
     RDKit          3D

 35 38  0  0  0  0  0  0  0  0999 V2000
   -5.2280   -6.5050   -0.2720 C   0  0  0  0  0  0  0  0  0  0  0  0
   -4.0440   -5.7000   -0.1310 N   0  0  0  0  0  0  0  0  0  0  0  0
   -4.3080   -4.2910   -0.1620 C   0  0  0  0  0  0  0  0  0  0  0  0
   -3.0260   -3.5390   -0.0940 C   0  0  0  0  0  0  0  0  0  0  0  0
   -1.8420   -4.2050   -0.0130 C   0  0  0  0  0  0  0  0  0  0  0  0
   -0.6850   -3.4380    0.0470 C   0  0  0  0  0  0  0  0  0  0  0  0
   -0.7090   -2.0600    0.0270 C   0  0  0  0  0  0  0  0  0  0  0  0
    0.4640   -1.2900    0.0220 N   0  0  0  0  0  0  0  0  0  0  0  0
    1.7930   -1.7400    0.2840 C   0  0  0  0  0  0  0  0  0  0  0  0
    1.9880   -2.9350    0.5570 O   0  0  0  0  0  0  0  0  0  0  0  0
    2.9290   -0.8050    0.2340 C   0  0  0  0  0  0  0  0  0  0  0  0
    4.2280   -1.1590    0.4720 C   0  0  0  0  0  0  0  0  0  0  0  0
    5.0240   -0.0240    0.3360 C   0  0  0  0  0  0  0  0  0  0  0  0
    6.3690    0.2290    0.4540 C   0  0  0  0  0  0  0  0  0  0  0  0
    6.9220    1.4770    0.2650 C   0  0  0  0  0  0  0  0  0  0  0  0
    8.2930    1.7230    0.3870 O   0  0  0  0  0  0  0  0  0  0  0  0
    6.0350    2.4930   -0.0590 C   0  0  0  0  0  0  0  0  0  0  0  0
    6.5450    3.7660   -0.2600 O   0  0  0  0  0  0  0  0  0  0  0  0
    5.6870    4.8380   -0.5920 C   0  0  0  0  0  0  0  0  0  0  0  0
    4.6840    2.2540   -0.1810 C   0  0  0  0  0  0  0  0  0  0  0  0
    4.1580    0.9970    0.0140 C   0  0  0  0  0  0  0  0  0  0  0  0
    2.9010    0.5010   -0.0420 N   0  0  0  0  0  0  0  0  0  0  0  0
   -1.9350   -1.3650   -0.0550 C   0  0  0  0  0  0  0  0  0  0  0  0
   -1.9480    0.0510   -0.0120 N   0  0  0  0  0  0  0  0  0  0  0  0
   -3.0410    0.9040   -0.2640 C   0  0  0  0  0  0  0  0  0  0  0  0
   -4.1420    0.3860   -0.5690 O   0  0  0  0  0  0  0  0  0  0  0  0
   -2.9240    2.3750   -0.1790 C   0  0  0  0  0  0  0  0  0  0  0  0
   -1.7380    3.0390   -0.0260 C   0  0  0  0  0  0  0  0  0  0  0  0
   -1.6620    4.4340    0.0550 C   0  0  0  0  0  0  0  0  0  0  0  0
   -0.4590    5.0850    0.2090 O   0  0  0  0  0  0  0  0  0  0  0  0
   -2.8450    5.1330   -0.0250 C   0  0  0  0  0  0  0  0  0  0  0  0
   -4.0610    4.5180   -0.1780 C   0  0  0  0  0  0  0  0  0  0  0  0
   -5.2580    5.2300   -0.2590 O   0  0  0  0  0  0  0  0  0  0  0  0
   -4.0780    3.1600   -0.2520 C   0  0  0  0  0  0  0  0  0  0  0  0
   -3.0670   -2.1370   -0.1140 C   0  0  0  0  0  0  0  0  0  0  0  0
  1  2  1  0
  2  3  1  0
  3  4  1  0
  4  5  2  0
  4 35  1  0
  5  6  1  0
  6  7  2  0
  7  8  1  0
  7 23  1  0
  8  9  1  0
  9 10  2  0
  9 11  1  0
 11 12  2  0
 11 22  1  0
 12 13  1  0
 13 14  2  0
 13 21  1  0
 14 15  1  0
 15 16  1  0
 15 17  2  0
 17 18  1  0
 17 20  1  0
 18 19  1  0
 20 21  2  0
 21 22  1  0
 23 24  1  0
 23 35  2  0
 24 25  1  0
 25 26  2  0
 25 27  1  0
 27 28  2  0
 27 34  1  0
 28 29  1  0
 29 30  1  0
 29 31  2  0
 31 32  1  0
 32 33  1  0
 32 34  2  0
M  CHG  1   2   1
M  END
