
     RDKit          3D

 35 38  0  0  0  0  0  0  0  0999 V2000
   -3.4670   -3.9050    0.5050 C   0  0  0  0  0  0  0  0  0  0  0  0
   -2.2860   -3.0440    0.5520 N   0  0  0  0  0  0  0  0  0  0  0  0
   -1.0450   -3.4560    0.7680 C   0  0  0  0  0  0  0  0  0  0  0  0
   -0.5370   -4.7080    1.0250 C   0  0  0  0  0  0  0  0  0  0  0  0
    0.8070   -4.8880    1.2560 C   0  0  0  0  0  0  0  0  0  0  0  0
    1.6420   -3.8280    1.2300 C   0  0  0  0  0  0  0  0  0  0  0  0
    1.1710   -2.5600    0.9760 C   0  0  0  0  0  0  0  0  0  0  0  0
    2.1400   -1.4770    0.8830 C   0  0  0  0  0  0  0  0  0  0  0  0
    2.3640   -0.7230    1.8820 O   0  0  0  0  0  0  0  0  0  0  0  0
    2.8990   -1.2050   -0.2930 N   0  0  0  0  0  0  0  0  0  0  0  0
    3.8660   -0.1810   -0.4180 C   0  0  0  0  0  0  0  0  0  0  0  0
    3.8170    1.0330    0.2000 C   0  0  0  0  0  0  0  0  0  0  0  0
    4.8440    1.9670    0.0910 C   0  0  0  0  0  0  0  0  0  0  0  0
    5.9550    1.6710   -0.6600 C   0  0  0  0  0  0  0  0  0  0  0  0
    7.0510    2.6430   -0.7750 C   0  0  0  0  0  0  0  0  0  0  0  0
    6.7590    3.8030   -0.0560 O   0  0  0  0  0  0  0  0  0  0  0  0
    6.0410    0.4510   -1.3010 C   0  0  0  0  0  0  0  0  0  0  0  0
    7.1660    0.1650   -2.0520 O   0  0  0  0  0  0  0  0  0  0  0  0
    5.0110   -0.4550   -1.1790 C   0  0  0  0  0  0  0  0  0  0  0  0
   -0.1590   -2.3730    0.7480 C   0  0  0  0  0  0  0  0  0  0  0  0
   -0.9530   -1.2690    0.5050 C   0  0  0  0  0  0  0  0  0  0  0  0
   -0.6850    0.0570    0.3960 C   0  0  0  0  0  0  0  0  0  0  0  0
   -1.7430    0.9540    0.1680 C   0  0  0  0  0  0  0  0  0  0  0  0
   -1.4180    2.3750    0.0700 C   0  0  0  0  0  0  0  0  0  0  0  0
    0.0100    2.6320    0.2040 N   0  0  0  0  0  0  0  0  0  0  0  0
   -3.0240    0.4940    0.0560 C   0  0  0  0  0  0  0  0  0  0  0  0
   -4.1490    1.4580   -0.1690 C   0  0  1  0  0  0  0  0  0  0  0  0
   -4.4630    2.2580    1.0470 C   0  0  0  0  0  0  0  0  0  0  0  0
   -3.9730    2.1860   -1.3300 O   0  0  0  0  0  0  0  0  0  0  0  0
   -5.3760    0.5620   -0.4550 C   0  0  0  0  0  0  0  0  0  0  0  0
   -6.5480    1.3890   -0.7180 C   0  0  0  0  0  0  0  0  0  0  0  0
   -7.3250    1.7380    0.1950 O   0  0  0  0  0  0  0  0  0  0  0  0
   -6.8540    1.8220   -1.9960 O   0  0  0  0  0  0  0  0  0  0  0  0
   -3.2460   -0.8380    0.1700 N   0  0  0  0  0  0  0  0  0  0  0  0
   -2.2580   -1.7100    0.3880 C   0  0  0  0  0  0  0  0  0  0  0  0
  1  2  1  0
  2  3  1  0
  2 35  1  0
  3  4  2  0
  3 20  1  0
  4  5  1  0
  5  6  2  0
  6  7  1  0
  7  8  1  0
  7 20  2  0
  8  9  2  0
  8 10  1  0
 10 11  1  0
 11 12  2  0
 11 19  1  0
 12 13  1  0
 13 14  2  0
 14 15  1  0
 14 17  1  0
 15 16  1  0
 17 18  1  0
 17 19  2  0
 20 21  1  0
 21 22  2  0
 21 35  1  0
 22 23  1  0
 23 24  1  0
 23 26  2  0
 24 25  1  0
 26 27  1  0
 26 34  1  0
 27 28  1  1
 27 29  1  0
 27 30  1  0
 30 31  1  0
 31 32  2  0
 31 33  1  0
 34 35  2  0
M  CHG  1  25   1
M  END
