
     RDKit          3D

 35 38  0  0  0  0  0  0  0  0999 V2000
   -3.5900    3.0600    3.2210 C   0  0  0  0  0  0  0  0  0  0  0  0
   -3.9180    2.4300    1.9990 O   0  0  0  0  0  0  0  0  0  0  0  0
   -4.4950    1.1600    2.0270 C   0  0  0  0  0  0  0  0  0  0  0  0
   -4.7580    0.4930    3.1890 C   0  0  0  0  0  0  0  0  0  0  0  0
   -5.3280   -0.7580    3.1730 C   0  0  0  0  0  0  0  0  0  0  0  0
   -5.6430   -1.3580    1.9710 C   0  0  0  0  0  0  0  0  0  0  0  0
   -6.2080   -2.5480    1.6550 N   0  0  0  0  0  0  0  0  0  0  0  0
   -6.3130   -2.6600    0.3340 C   0  0  0  0  0  0  0  0  0  0  0  0
   -5.8040   -1.5110   -0.2450 C   0  0  0  0  0  0  0  0  0  0  0  0
   -5.3770   -0.6830    0.7890 C   0  0  0  0  0  0  0  0  0  0  0  0
   -4.8060    0.5690    0.7990 C   0  0  0  0  0  0  0  0  0  0  0  0
   -4.5230    1.2780   -0.3620 O   0  0  0  0  0  0  0  0  0  0  0  0
   -3.2070    1.1630   -0.9110 C   0  0  0  0  0  0  0  0  0  0  0  0
   -2.9260   -0.2610   -1.2600 C   0  0  0  0  0  0  0  0  0  0  0  0
   -1.5240   -0.3750   -1.8430 C   0  0  1  0  0  0  0  0  0  0  0  0
   -0.5070    0.0880   -0.8450 C   0  0  0  0  0  0  0  0  0  0  0  0
    0.8970   -0.0400   -1.4270 C   0  0  0  0  0  0  0  0  0  0  0  0
    1.0460   -0.4710   -2.5860 O   0  0  0  0  0  0  0  0  0  0  0  0
    1.9900    0.3390   -0.6220 N   0  0  0  0  0  0  0  0  0  0  0  0
    3.3430    0.2770   -1.0320 C   0  0  0  0  0  0  0  0  0  0  0  0
    3.7980    0.0420   -2.2990 C   0  0  0  0  0  0  0  0  0  0  0  0
    5.1310   -0.0200   -2.6320 C   0  0  0  0  0  0  0  0  0  0  0  0
    6.0740    0.1670   -1.6360 C   0  0  0  0  0  0  0  0  0  0  0  0
    7.4380    0.0990   -2.0050 N   0  0  0  0  0  0  0  0  0  0  0  0
    5.6670    0.4090   -0.3360 C   0  0  0  0  0  0  0  0  0  0  0  0
    6.6390    0.5900    0.6280 O   0  0  0  0  0  0  0  0  0  0  0  0
    6.2190    0.8370    1.9560 C   0  0  0  0  0  0  0  0  0  0  0  0
    7.3640    1.0110    2.8800 C   0  0  0  0  0  0  0  0  0  0  0  0
    7.0980    1.2660    4.2520 N   0  0  0  0  0  0  0  0  0  0  0  0
    8.4940    0.9310    2.4430 O   0  0  0  0  0  0  0  0  0  0  0  0
    4.3350    0.4620   -0.0470 C   0  0  0  0  0  0  0  0  0  0  0  0
   -1.3490   -1.7810   -2.3010 C   0  0  0  0  0  0  0  0  0  0  0  0
   -1.5190   -1.7030   -3.7910 C   0  0  0  0  0  0  0  0  0  0  0  0
   -1.9690   -0.2870   -4.0120 C   0  0  0  0  0  0  0  0  0  0  0  0
   -1.4230    0.4290   -2.9810 O   0  0  0  0  0  0  0  0  0  0  0  0
  1  2  1  0
  2  3  1  0
  3  4  2  0
  3 11  1  0
  4  5  1  0
  5  6  2  0
  6  7  1  0
  6 10  1  0
  7  8  1  0
  8  9  2  0
  9 10  1  0
 10 11  2  0
 11 12  1  0
 12 13  1  0
 13 14  1  0
 15 14  1  1
 15 16  1  0
 15 32  1  0
 15 35  1  0
 16 17  1  0
 17 18  2  0
 17 19  1  0
 19 20  1  0
 20 21  2  0
 20 31  1  0
 21 22  1  0
 22 23  2  0
 23 24  1  0
 23 25  1  0
 25 26  1  0
 25 31  2  0
 26 27  1  0
 27 28  1  0
 28 29  1  0
 28 30  2  0
 32 33  1  0
 33 34  1  0
 34 35  1  0
M  CHG  1  29   1
M  END
