
     RDKit          3D

 34 37  0  0  0  0  0  0  0  0999 V2000
    8.8550    0.2640    0.3380 C   0  0  0  0  0  0  0  0  0  0  0  0
    7.5090    0.2230    0.0840 O   0  0  0  0  0  0  0  0  0  0  0  0
    6.8070   -0.7180    0.7980 C   0  0  2  0  0  0  0  0  0  0  0  0
    5.9690   -1.6170   -0.0990 C   0  0  0  0  0  0  0  0  0  0  0  0
    5.2810   -0.7130   -1.1000 C   0  0  0  0  0  0  0  0  0  0  0  0
    4.3820    0.1410   -0.3530 N   0  0  0  0  0  0  0  0  0  0  0  0
    2.9980    0.1740   -0.7190 C   0  0  0  0  0  0  0  0  0  0  0  0
    2.5580   -0.5870   -1.7430 N   0  0  0  0  0  0  0  0  0  0  0  0
    1.2720   -0.5820   -2.1180 C   0  0  0  0  0  0  0  0  0  0  0  0
    0.3420    0.2190   -1.4510 C   0  0  0  0  0  0  0  0  0  0  0  0
    0.7610    1.0000   -0.4050 C   0  0  0  0  0  0  0  0  0  0  0  0
   -0.0420    1.7980    0.4210 N   0  0  0  0  0  0  0  0  0  0  0  0
   -1.4280    1.8030    0.6030 C   0  0  0  0  0  0  0  0  0  0  0  0
   -2.2200    0.7740    0.1830 C   0  0  0  0  0  0  0  0  0  0  0  0
   -3.6060    0.8360    0.3050 C   0  0  0  0  0  0  0  0  0  0  0  0
   -4.1420    1.9750    0.8670 C   0  0  0  0  0  0  0  0  0  0  0  0
   -3.3160    2.9940    1.2820 C   0  0  0  0  0  0  0  0  0  0  0  0
   -1.9970    2.9350    1.1660 N   0  0  0  0  0  0  0  0  0  0  0  0
   -5.4690    1.8010    0.8760 N   0  0  0  0  0  0  0  0  0  0  0  0
   -5.7530    0.5920    0.3360 C   0  0  0  0  0  0  0  0  0  0  0  0
   -7.1420    0.1010    0.2060 C   0  0  1  0  0  0  0  0  0  0  0  0
   -7.7390   -0.2660    1.5480 C   0  0  0  0  0  0  0  0  0  0  0  0
   -7.8970    1.1720   -0.2890 O   0  0  0  0  0  0  0  0  0  0  0  0
   -4.6050   -0.0070   -0.0180 N   0  0  0  0  0  0  0  0  0  0  0  0
   -4.4740   -1.3090   -0.6290 C   0  0  1  0  0  0  0  0  0  0  0  0
   -3.5140   -1.3210   -1.7780 C   0  0  0  0  0  0  0  0  0  0  0  0
   -4.1970   -2.3780    0.4090 C   0  0  1  0  0  0  0  0  0  0  0  0
   -3.0430   -2.1650    1.1220 F   0  0  0  0  0  0  0  0  0  0  0  0
   -5.2510   -2.4220    1.3000 F   0  0  0  0  0  0  0  0  0  0  0  0
   -4.0660   -3.6240   -0.1850 F   0  0  0  0  0  0  0  0  0  0  0  0
    2.1080    0.9300   -0.0920 N   0  0  0  0  0  0  0  0  0  0  0  0
    4.9180    0.9220    0.7290 C   0  0  0  0  0  0  0  0  0  0  0  0
    5.7890    0.0550    1.6480 C   0  0  2  0  0  0  0  0  0  0  0  0
    6.4370    0.8420    2.5540 F   0  0  0  0  0  0  0  0  0  0  0  0
  1  2  1  0
  3  2  1  6
  3  4  1  0
  3 33  1  0
  4  5  1  0
  5  6  1  0
  6  7  1  0
  6 32  1  0
  7  8  2  0
  7 31  1  0
  8  9  1  0
  9 10  2  0
 10 11  1  0
 11 12  1  0
 11 31  2  0
 12 13  1  0
 13 14  2  0
 13 18  1  0
 14 15  1  0
 15 16  2  0
 15 24  1  0
 16 17  1  0
 16 19  1  0
 17 18  2  0
 19 20  2  0
 20 21  1  0
 20 24  1  0
 21 22  1  1
 21 23  1  0
 24 25  1  0
 25 26  1  6
 25 27  1  0
 27 28  1  1
 27 29  1  0
 27 30  1  0
 32 33  1  0
 33 34  1  1
M  END
