
     RDKit          3D

 35 38  0  0  0  0  0  0  0  0999 V2000
   -7.3480   -3.2160    0.6940 C   0  0  0  0  0  0  0  0  0  0  0  0
   -7.7220   -1.9830   -0.0370 C   0  0  0  0  0  0  0  0  0  0  0  0
   -6.8150   -1.1280   -0.4390 C   0  0  0  0  0  0  0  0  0  0  0  0
   -5.4550   -1.1920   -0.2850 O   0  0  0  0  0  0  0  0  0  0  0  0
   -4.7800   -0.1290   -0.8190 C   0  0  0  0  0  0  0  0  0  0  0  0
   -3.3830    0.1350   -0.8450 C   0  0  0  0  0  0  0  0  0  0  0  0
   -2.4080   -0.6900   -0.3850 C   0  0  0  0  0  0  0  0  0  0  0  0
   -1.0530   -0.2890   -0.4510 N   0  0  0  0  0  0  0  0  0  0  0  0
   -0.2540   -0.1790    0.7210 C   0  0  0  0  0  0  0  0  0  0  0  0
   -0.8130   -0.4070    1.8780 O   0  0  0  0  0  0  0  0  0  0  0  0
    1.1850    0.1750    0.7010 C   0  0  2  0  0  0  0  0  0  0  0  0
    1.3840    1.6150    1.0600 C   0  0  0  0  0  0  0  0  0  0  0  0
    2.7650    2.0580    0.8130 C   0  0  0  0  0  0  0  0  0  0  0  0
    3.0790    3.3190    1.0280 C   0  0  0  0  0  0  0  0  0  0  0  0
    4.4570    3.7900    0.7780 C   0  0  0  0  0  0  0  0  0  0  0  0
    5.2040    4.5520    1.6610 C   0  0  0  0  0  0  0  0  0  0  0  0
    6.4370    4.7820    1.0340 C   0  0  0  0  0  0  0  0  0  0  0  0
    6.3810    4.1650   -0.1740 C   0  0  0  0  0  0  0  0  0  0  0  0
    7.4600    4.1240   -1.2370 C   0  0  0  0  0  0  0  0  0  0  0  0
    7.3250    5.3600   -1.9290 O   0  0  0  0  0  0  0  0  0  0  0  0
    5.1910    3.5950   -0.2680 O   0  0  0  0  0  0  0  0  0  0  0  0
    3.8200    1.2530    0.3570 O   0  0  0  0  0  0  0  0  0  0  0  0
    3.9310   -0.1650    0.5200 C   0  0  0  0  0  0  0  0  0  0  0  0
    3.1440   -0.8300   -0.5610 C   0  0  0  0  0  0  0  0  0  0  0  0
    1.7680   -0.2080   -0.6160 C   0  0  2  0  0  0  0  0  0  0  0  0
    1.7780    0.9180   -1.5280 N   0  0  0  0  0  0  0  0  0  0  0  0
   -2.6680   -2.0490    0.0270 C   0  0  0  0  0  0  0  0  0  0  0  0
   -3.8110   -2.5280    0.0210 O   0  0  0  0  0  0  0  0  0  0  0  0
   -1.6250   -2.9200    0.4470 N   0  0  0  0  0  0  0  0  0  0  0  0
   -1.8980   -4.2950    0.8610 C   0  0  2  0  0  0  0  0  0  0  0  0
   -0.7700   -5.1470    1.2890 C   0  0  0  0  0  0  0  0  0  0  0  0
   -1.2880   -5.3460   -0.0890 C   0  0  0  0  0  0  0  0  0  0  0  0
   -5.6980    0.6860   -1.3520 C   0  0  0  0  0  0  0  0  0  0  0  0
   -7.0310    0.1310   -1.1610 C   0  0  0  0  0  0  0  0  0  0  0  0
   -8.1740    0.5880   -1.5350 N   0  0  0  0  0  0  0  0  0  0  0  0
  1  2  1  0
  2  3  2  3
  3  4  1  0
  3 34  1  0
  4  5  1  0
  5  6  1  0
  5 33  2  0
  6  7  2  3
  7  8  1  0
  7 27  1  0
  8  9  1  0
  9 10  2  0
 11  9  1  6
 11 12  1  0
 11 25  1  0
 12 13  1  0
 13 14  2  3
 13 22  1  0
 14 15  1  0
 15 16  2  0
 15 21  1  0
 16 17  1  0
 17 18  2  0
 18 19  1  0
 18 21  1  0
 19 20  1  0
 22 23  1  0
 23 24  1  0
 24 25  1  0
 25 26  1  6
 27 28  2  0
 27 29  1  0
 30 29  1  6
 30 31  1  0
 30 32  1  0
 31 32  1  0
 33 34  1  0
 34 35  2  0
M  CHG  1  26   1
M  END
