
     RDKit          3D

 35 38  0  0  0  0  0  0  0  0999 V2000
    3.2290    5.7000   -0.0330 N   0  0  0  0  0  0  0  0  0  0  0  0
    3.0710    4.2930    0.1800 C   0  0  0  0  0  0  0  0  0  0  0  0
    4.1520    3.4420    0.0770 C   0  0  0  0  0  0  0  0  0  0  0  0
    4.0460    2.0830    0.2730 C   0  0  0  0  0  0  0  0  0  0  0  0
    2.8060    1.5100    0.5910 C   0  0  0  0  0  0  0  0  0  0  0  0
    2.7390    0.0510    0.7860 C   0  0  2  0  0  0  0  0  0  0  0  0
    3.3950   -0.5940   -0.3250 O   0  0  0  0  0  0  0  0  0  0  0  0
    4.5880   -1.2680   -0.1610 C   0  0  0  0  0  0  0  0  0  0  0  0
    5.1090   -1.3130    0.9980 O   0  0  0  0  0  0  0  0  0  0  0  0
    5.2640   -1.9180   -1.2350 N   0  0  0  0  0  0  0  0  0  0  0  0
    6.5180   -2.5970   -0.9370 C   0  0  0  0  0  0  0  0  0  0  0  0
    7.1110   -3.2240   -2.1190 C   0  0  0  0  0  0  0  0  0  0  0  0
    8.3340   -3.9280   -2.0140 N   0  0  0  0  0  0  0  0  0  0  0  0
    6.5630   -3.1460   -3.1950 O   0  0  0  0  0  0  0  0  0  0  0  0
    1.4080   -0.5190    0.9910 C   0  0  0  0  0  0  0  0  0  0  0  0
    0.9660   -1.4130    0.1710 O   0  0  0  0  0  0  0  0  0  0  0  0
    0.4960   -0.2020    2.0290 N   0  0  0  0  0  0  0  0  0  0  0  0
   -0.7880   -0.7790    2.2050 C   0  0  0  0  0  0  0  0  0  0  0  0
   -1.8600   -0.3480    1.3160 C   0  0  0  0  0  0  0  0  0  0  0  0
   -1.7620    0.3430    0.1540 C   0  0  0  0  0  0  0  0  0  0  0  0
   -2.8920    0.6890   -0.5940 C   0  0  0  0  0  0  0  0  0  0  0  0
   -4.1490    0.3310   -0.1610 C   0  0  0  0  0  0  0  0  0  0  0  0
   -4.2810   -0.3680    1.0110 C   0  0  0  0  0  0  0  0  0  0  0  0
   -3.1600   -0.6900    1.7160 C   0  0  0  0  0  0  0  0  0  0  0  0
   -5.4700   -0.7920    1.5660 O   0  0  0  0  0  0  0  0  0  0  0  0
   -6.8280   -0.5240    1.3550 C   0  0  0  0  0  0  0  0  0  0  0  0
   -7.1900   -0.3530   -0.0740 C   0  0  0  0  0  0  0  0  0  0  0  0
   -8.4690   -0.8560   -0.3330 C   0  0  0  0  0  0  0  0  0  0  0  0
   -9.0170   -0.8040   -1.5980 C   0  0  0  0  0  0  0  0  0  0  0  0
   -8.2660   -0.2400   -2.6050 C   0  0  0  0  0  0  0  0  0  0  0  0
   -7.0060    0.2610   -2.3750 C   0  0  0  0  0  0  0  0  0  0  0  0
   -6.4580    0.2080   -1.1060 C   0  0  0  0  0  0  0  0  0  0  0  0
   -5.1660    0.7610   -1.0350 O   0  0  0  0  0  0  0  0  0  0  0  0
    1.7520    2.3450    0.6910 C   0  0  0  0  0  0  0  0  0  0  0  0
    1.8550    3.7320    0.4910 C   0  0  0  0  0  0  0  0  0  0  0  0
  1  2  1  0
  2  3  2  0
  2 35  1  0
  3  4  1  0
  4  5  2  0
  5  6  1  0
  5 34  1  0
  6  7  1  6
  6 15  1  0
  7  8  1  0
  8  9  2  0
  8 10  1  0
 10 11  1  0
 11 12  1  0
 12 13  1  0
 12 14  2  0
 15 16  2  0
 15 17  1  0
 17 18  1  0
 18 19  1  0
 19 20  2  0
 19 24  1  0
 20 21  1  0
 21 22  2  0
 22 23  1  0
 22 33  1  0
 23 24  2  0
 23 25  1  0
 25 26  1  0
 26 27  1  0
 27 28  2  0
 27 32  1  0
 28 29  1  0
 29 30  2  0
 30 31  1  0
 31 32  2  0
 32 33  1  0
 34 35  2  0
M  CHG  1  13   1
M  END
