
     RDKit          3D

 35 38  0  0  0  0  0  0  0  0999 V2000
   -3.7140   -5.3260   -0.3060 C   0  0  0  0  0  0  0  0  0  0  0  0
   -3.5580   -4.0830   -0.0870 O   0  0  0  0  0  0  0  0  0  0  0  0
   -3.5670   -2.7920   -0.0190 C   0  0  0  0  0  0  0  0  0  0  0  0
   -4.4060   -1.9500   -0.7590 C   0  0  0  0  0  0  0  0  0  0  0  0
   -4.3900   -0.5490   -0.6780 C   0  0  0  0  0  0  0  0  0  0  0  0
   -5.1820    0.1720   -1.4240 C   0  0  0  0  0  0  0  0  0  0  0  0
   -6.0420   -0.2450   -2.2390 O   0  0  0  0  0  0  0  0  0  0  0  0
   -5.1340    1.6210   -1.3620 N   0  0  0  0  0  0  0  0  0  0  0  0
   -4.2300    2.0510   -0.4770 C   0  0  0  0  0  0  0  0  0  0  0  0
   -4.1090    3.3900   -0.3700 N   0  0  0  0  0  0  0  0  0  0  0  0
   -4.7840    4.2670   -1.0570 N   0  0  0  0  0  0  0  0  0  0  0  0
   -5.4980    5.3990   -1.1900 C   0  0  0  0  0  0  0  0  0  0  0  0
   -6.0480    5.9640   -2.3670 N   0  0  0  0  0  0  0  0  0  0  0  0
   -5.6900    6.0070   -0.0480 O   0  0  0  0  0  0  0  0  0  0  0  0
   -3.4740    1.3300    0.2410 O   0  0  0  0  0  0  0  0  0  0  0  0
   -3.4840   -0.0030    0.2010 C   0  0  0  0  0  0  0  0  0  0  0  0
   -2.6440   -0.7580    0.9620 C   0  0  0  0  0  0  0  0  0  0  0  0
   -1.7890   -0.0420    1.9640 C   0  0  0  0  0  0  0  0  0  0  0  0
   -0.4510    0.0220    1.5740 N   0  0  0  0  0  0  0  0  0  0  0  0
    0.5430   -0.3730    2.5390 C   0  0  0  0  0  0  0  0  0  0  0  0
    1.6300   -0.9940    1.6420 C   0  0  0  0  0  0  0  0  0  0  0  0
    1.4710   -2.2970    1.2500 C   0  0  0  0  0  0  0  0  0  0  0  0
    2.3600   -2.8480    0.3070 C   0  0  0  0  0  0  0  0  0  0  0  0
    3.3540   -2.1130   -0.2000 C   0  0  0  0  0  0  0  0  0  0  0  0
    4.3810   -2.6610   -1.1620 C   0  0  0  0  0  0  0  0  0  0  0  0
    3.5120   -0.7590    0.2220 C   0  0  0  0  0  0  0  0  0  0  0  0
    4.4770    0.0650   -0.5370 C   0  0  1  0  0  0  0  0  0  0  0  0
    3.6980    1.2570   -0.8780 O   0  0  0  0  0  0  0  0  0  0  0  0
    5.6110    0.6680    0.1920 C   0  0  1  0  0  0  0  0  0  0  0  0
    6.4330    1.5300   -0.7990 C   0  0  0  0  0  0  0  0  0  0  0  0
    5.8480    2.1240    0.4740 C   0  0  2  0  0  0  0  0  0  0  0  0
    6.9560    2.4610    1.4980 C   0  0  0  0  0  0  0  0  0  0  0  0
    2.6310   -0.2460    1.1370 C   0  0  0  0  0  0  0  0  0  0  0  0
   -2.6710   -2.1020    0.8640 C   0  0  0  0  0  0  0  0  0  0  0  0
   -1.8360   -2.9730    1.6120 O   0  0  0  0  0  0  0  0  0  0  0  0
  1  2  1  0
  2  3  1  0
  3  4  2  0
  3 34  1  0
  4  5  1  0
  5  6  1  0
  5 16  2  0
  6  7  2  0
  6  8  1  0
  8  9  1  0
  9 10  2  3
  9 15  1  0
 10 11  1  0
 11 12  1  0
 12 13  1  0
 12 14  2  0
 15 16  1  0
 16 17  1  0
 17 18  1  0
 17 34  2  0
 18 19  1  0
 19 20  1  0
 20 21  1  0
 21 22  2  0
 21 33  1  0
 22 23  1  0
 23 24  2  0
 24 25  1  0
 24 26  1  0
 26 27  1  0
 26 33  2  0
 27 28  1  1
 27 29  1  0
 29 30  1  6
 29 31  1  0
 30 31  1  0
 31 32  1  1
 34 35  1  0
M  CHG  1  19   1
M  END
