
     RDKit          3D

 34 36  0  0  0  0  0  0  0  0999 V2000
   -3.3020   -2.2740   -0.7840 C   0  0  0  0  0  0  0  0  0  0  0  0
   -2.5880   -1.0290   -1.0250 N   0  0  0  0  0  0  0  0  0  0  0  0
   -1.1300   -0.9990   -0.7530 C   0  0  0  0  0  0  0  0  0  0  0  0
   -0.3150   -1.4600   -1.9070 C   0  0  1  0  0  0  0  0  0  0  0  0
   -0.4380   -0.6850   -3.1430 C   0  0  0  0  0  0  0  0  0  0  0  0
   -0.0050    0.6500   -3.3540 N   0  0  0  0  0  0  0  0  0  0  0  0
   -0.9860   -1.2310   -4.1590 O   0  0  0  0  0  0  0  0  0  0  0  0
    1.1490   -1.7150   -1.5000 C   0  0  1  0  0  0  0  0  0  0  0  0
    1.7130   -0.4700   -0.9790 C   0  0  0  0  0  0  0  0  0  0  0  0
    3.1200   -0.5020   -0.5270 C   0  0  0  0  0  0  0  0  0  0  0  0
    3.7410   -1.5790   -0.6360 O   0  0  0  0  0  0  0  0  0  0  0  0
    3.7590    0.6130    0.0050 N   0  0  0  0  0  0  0  0  0  0  0  0
    5.0680    0.7540    0.4730 C   0  0  0  0  0  0  0  0  0  0  0  0
    5.9510   -0.2910    0.4730 C   0  0  0  0  0  0  0  0  0  0  0  0
    7.2550   -0.0950    0.9570 C   0  0  0  0  0  0  0  0  0  0  0  0
    7.6880    1.1160    1.4370 C   0  0  0  0  0  0  0  0  0  0  0  0
    6.7970    2.1650    1.4350 C   0  0  0  0  0  0  0  0  0  0  0  0
    5.5280    1.9650    0.9620 C   0  0  0  0  0  0  0  0  0  0  0  0
    7.4250    3.3290    1.9690 N   0  0  0  0  0  0  0  0  0  0  0  0
    8.8690    3.1120    1.8770 C   0  0  0  0  0  0  0  0  0  0  0  0
    8.9740    1.6160    2.0000 C   0  0  0  0  0  0  0  0  0  0  0  0
    1.1900   -2.8740   -0.6640 N   0  0  1  0  0  0  0  0  0  0  0  0
    2.1100   -3.8810   -1.1570 C   0  0  0  0  0  0  0  0  0  0  0  0
    1.4020   -2.6420    0.7290 C   0  0  0  0  0  0  0  0  0  0  0  0
   -3.2590    0.0920   -1.5220 C   0  0  0  0  0  0  0  0  0  0  0  0
   -2.6070    1.1510   -1.6870 O   0  0  0  0  0  0  0  0  0  0  0  0
   -4.6680    0.0930   -1.8540 C   0  0  0  0  0  0  0  0  0  0  0  0
   -5.5880    0.7050   -0.8390 C   0  0  2  0  0  0  0  0  0  0  0  0
   -5.3120    2.1500   -0.5320 C   0  0  0  0  0  0  0  0  0  0  0  0
   -5.2830    2.1900    0.9700 C   0  0  0  0  0  0  0  0  0  0  0  0
   -6.1870    1.0260    1.3390 C   0  0  1  0  0  0  0  0  0  0  0  0
   -6.0230    0.6130    2.7790 C   0  0  0  0  0  0  0  0  0  0  0  0
   -7.6050    1.3960    1.0000 C   0  0  0  0  0  0  0  0  0  0  0  0
   -5.6870    0.0120    0.4060 N   0  0  0  0  0  0  0  0  0  0  0  0
  1  2  1  0
  2  3  1  0
  2 25  1  0
  4  3  1  1
  4  5  1  0
  4  8  1  0
  5  6  1  0
  5  7  2  0
  8  9  1  1
  8 22  1  0
  9 10  1  0
 10 11  2  0
 10 12  1  0
 12 13  1  0
 13 14  2  0
 13 18  1  0
 14 15  1  0
 15 16  2  0
 16 17  1  0
 16 21  1  0
 17 18  2  0
 17 19  1  0
 19 20  1  0
 20 21  1  0
 22 23  1  6
 22 24  1  0
 25 26  2  0
 25 27  1  0
 28 27  1  6
 28 29  1  0
 28 34  1  0
 29 30  1  0
 30 31  1  0
 31 32  1  1
 31 33  1  0
 31 34  1  0
M  CHG  2  22   1  34   1
M  END
