
     RDKit          3D

 25 24  0  0  0  0  0  0  0  0999 V2000
   -3.6180   -2.8830    1.6880 C   0  0  0  0  0  0  0  0  0  0  0  0
   -2.7460   -2.6070    0.7340 C   0  0  0  0  0  0  0  0  0  0  0  0
   -3.0680   -1.5710   -0.1810 N   0  0  0  0  0  0  0  0  0  0  0  0
   -4.2230   -1.6020   -0.8620 O   0  0  0  0  0  0  0  0  0  0  0  0
   -4.5030   -3.1330   -1.6340 P   0  0  0  0  0  0  0  0  0  0  0  0
   -2.1240   -0.5010   -0.3480 C   0  0  0  0  0  0  0  0  0  0  0  0
   -0.8630   -0.6520   -0.0550 C   0  0  0  0  0  0  0  0  0  0  0  0
    0.3540   -0.9720    0.1900 C   0  0  0  0  0  0  0  0  0  0  0  0
    1.6310   -1.2150    0.2520 C   0  0  0  0  0  0  0  0  0  0  0  0
    2.8860   -1.4690    0.0270 C   0  0  0  0  0  0  0  0  0  0  0  0
    3.3300   -2.7130   -0.6500 C   0  0  0  0  0  0  0  0  0  0  0  0
    3.8740   -0.5020    0.4540 C   0  0  0  0  0  0  0  0  0  0  0  0
    3.5960    0.7800    0.6140 C   0  0  0  0  0  0  0  0  0  0  0  0
    4.5760    1.7840    1.0460 C   0  0  0  0  0  0  0  0  0  0  0  0
    4.7080    2.7680    0.0680 O   0  0  0  0  0  0  0  0  0  0  0  0
    5.2060   -0.9220    0.7190 N   0  0  0  0  0  0  0  0  0  0  0  0
    6.0840   -1.0380   -0.2060 C   0  0  0  0  0  0  0  0  0  0  0  0
   -2.5950    0.7140   -0.8360 O   0  0  0  0  0  0  0  0  0  0  0  0
   -3.0610    1.7270    0.0030 C   0  0  0  0  0  0  0  0  0  0  0  0
   -3.0460    1.5140    1.2260 O   0  0  0  0  0  0  0  0  0  0  0  0
   -3.5320    2.9400   -0.4780 O   0  0  0  0  0  0  0  0  0  0  0  0
   -3.9970    3.9510    0.3650 C   0  0  0  0  0  0  0  0  0  0  0  0
   -3.9970    3.7720    1.6090 O   0  0  0  0  0  0  0  0  0  0  0  0
   -4.4890    5.2330   -0.2390 C   0  0  0  0  0  0  0  0  0  0  0  0
   -4.3910    5.1900   -1.6150 F   0  0  0  0  0  0  0  0  0  0  0  0
  1  2  2  0
  2  3  1  0
  3  4  1  0
  3  6  1  0
  4  5  1  0
  6  7  2  0
  6 18  1  0
  7  8  2  0
  8  9  2  0
  9 10  2  0
 10 11  1  0
 10 12  1  0
 12 13  2  3
 12 16  1  0
 13 14  1  0
 14 15  1  0
 16 17  2  0
 18 19  1  0
 19 20  2  0
 19 21  1  0
 21 22  1  0
 22 23  2  0
 22 24  1  0
 24 25  1  0
M  END
