
     RDKit          3D

 25 24  0  0  0  0  0  0  0  0999 V2000
    2.2030    2.2030    1.0060 C   0  0  0  0  0  0  0  0  0  0  0  0
    2.5020    1.2200    0.2270 C   0  0  0  0  0  0  0  0  0  0  0  0
    1.8130    0.4030   -0.6900 C   0  0  0  0  0  0  0  0  0  0  0  0
    2.6170   -0.5210   -1.2700 C   0  0  0  0  0  0  0  0  0  0  0  0
    3.3810   -1.4870   -1.7400 C   0  0  0  0  0  0  0  0  0  0  0  0
    3.3970   -2.6560   -0.9840 N   0  0  0  0  0  0  0  0  0  0  0  0
    4.5070   -3.0490   -0.4490 C   0  0  0  0  0  0  0  0  0  0  0  0
    5.7470   -3.1560   -0.0640 C   0  0  0  0  0  0  0  0  0  0  0  0
    6.2430   -2.4720    1.0210 O   0  0  0  0  0  0  0  0  0  0  0  0
    6.5240   -1.1660    0.9540 O   0  0  0  0  0  0  0  0  0  0  0  0
    7.1210   -0.8270   -0.1650 F   0  0  0  0  0  0  0  0  0  0  0  0
    0.4920    0.2830   -1.1800 C   0  0  0  0  0  0  0  0  0  0  0  0
   -0.5600    0.9490   -0.8990 C   0  0  0  0  0  0  0  0  0  0  0  0
   -1.7970    0.6170   -1.5500 O   0  0  0  0  0  0  0  0  0  0  0  0
   -2.3820   -0.5870   -1.0750 C   0  0  0  0  0  0  0  0  0  0  0  0
   -3.5900   -0.8260   -1.7750 O   0  0  0  0  0  0  0  0  0  0  0  0
   -4.2980   -1.9650   -1.4390 C   0  0  0  0  0  0  0  0  0  0  0  0
   -5.4040   -1.9050   -0.5850 O   0  0  0  0  0  0  0  0  0  0  0  0
   -3.9360   -3.1270   -1.9220 C   0  0  0  0  0  0  0  0  0  0  0  0
   -2.8430   -3.1890   -2.7650 O   0  0  0  0  0  0  0  0  0  0  0  0
   -0.6820    1.9780   -0.0290 O   0  0  0  0  0  0  0  0  0  0  0  0
   -1.8230    2.4380    0.5360 N   0  0  0  0  0  0  0  0  0  0  0  0
   -1.7960    3.0310    1.6690 C   0  0  0  0  0  0  0  0  0  0  0  0
   -3.0980    3.5160    2.2380 C   0  0  0  0  0  0  0  0  0  0  0  0
   -3.0210    3.2970    4.0760 P   0  0  0  0  0  0  0  0  0  0  0  0
  1  2  2  0
  2  3  1  0
  3  4  2  0
  3 12  1  0
  4  5  2  0
  5  6  1  0
  6  7  2  0
  7  8  2  0
  8  9  1  0
  9 10  1  0
 10 11  1  0
 12 13  2  3
 13 14  1  0
 13 21  1  0
 14 15  1  0
 15 16  1  0
 16 17  1  0
 17 18  1  0
 17 19  2  3
 19 20  1  0
 21 22  1  0
 22 23  2  3
 23 24  1  0
 24 25  1  0
M  END
