
     RDKit          3D

 25 25  0  0  0  0  0  0  0  0999 V2000
    2.8060   -2.2510   -2.1700 C   0  0  0  0  0  0  0  0  0  0  0  0
    2.0270   -1.6050   -1.3290 C   0  0  0  0  0  0  0  0  0  0  0  0
    2.5780   -0.5690   -0.5850 O   0  0  0  0  0  0  0  0  0  0  0  0
    2.0820    0.2560    0.4230 C   0  0  1  0  0  0  0  0  0  0  0  0
    2.2130   -0.4710    1.6170 F   0  0  0  0  0  0  0  0  0  0  0  0
    3.0050    1.4030    0.5710 C   0  0  0  0  0  0  0  0  0  0  0  0
    4.0900    1.5650   -0.1540 C   0  0  0  0  0  0  0  0  0  0  0  0
    2.7040    2.3810    1.5460 N   0  0  0  0  0  0  0  0  0  0  0  0
    3.5040    2.5060    2.5580 C   0  0  0  0  0  0  0  0  0  0  0  0
    4.6320    1.7490    2.7520 O   0  0  0  0  0  0  0  0  0  0  0  0
    0.8010    0.7370    0.2820 O   0  0  0  0  0  0  0  0  0  0  0  0
   -0.4760    0.2440    0.1840 C   0  0  0  0  0  0  0  0  0  0  0  0
   -1.5600    0.8990    0.6910 O   0  0  0  0  0  0  0  0  0  0  0  0
   -2.2400    1.9250    0.0670 C   0  0  0  0  0  0  0  0  0  0  0  0
   -3.4060    2.4990    0.7890 C   0  0  0  0  0  0  0  0  0  0  0  0
   -1.8360    2.3200   -1.0790 N   0  0  0  0  0  0  0  0  0  0  0  0
   -2.4900    3.3930   -1.8070 C   0  0  0  0  0  0  0  0  0  0  0  0
   -0.7410   -0.9100   -0.4140 C   0  0  0  0  0  0  0  0  0  0  0  0
   -2.0970   -1.2600   -0.4220 O   0  0  0  0  0  0  0  0  0  0  0  0
   -2.5930   -1.6850    0.7800 O   0  0  0  0  0  0  0  0  0  0  0  0
   -2.3500   -2.9780    1.2390 C   0  0  0  0  0  0  0  0  0  0  0  0
   -2.8850   -3.4490    2.5430 C   0  0  0  0  0  0  0  0  0  0  0  0
   -1.6610   -3.7300    0.5040 O   0  0  0  0  0  0  0  0  0  0  0  0
    0.3040   -2.1400   -1.2320 P   0  0  0  0  0  0  0  0  0  0  0  0
   -0.3680   -2.6970   -2.8560 C   0  0  0  0  0  0  0  0  0  0  0  0
  1  2  2  0
  2  3  1  0
  2 24  1  0
  3  4  1  0
  4  5  1  1
  4  6  1  0
  4 11  1  0
  6  7  2  0
  6  8  1  0
  8  9  2  3
  9 10  1  0
 11 12  1  0
 12 13  1  0
 12 18  2  0
 13 14  1  0
 14 15  1  0
 14 16  2  3
 16 17  1  0
 18 19  1  0
 18 24  1  0
 19 20  1  0
 20 21  1  0
 21 22  1  0
 21 23  2  0
 24 25  1  0
M  END
