
     RDKit          3D

 25 25  0  0  0  0  0  0  0  0999 V2000
   -1.1000   -3.8990    0.0560 C   0  0  0  0  0  0  0  0  0  0  0  0
   -1.3570   -3.5450    1.5250 C   0  0  0  0  0  0  0  0  0  0  0  0
   -1.3830   -2.1410    1.6560 O   0  0  0  0  0  0  0  0  0  0  0  0
   -0.2510   -1.3560    1.3060 C   0  0  0  0  0  0  0  0  0  0  0  0
   -0.2390   -0.7370    0.1570 C   0  0  0  0  0  0  0  0  0  0  0  0
   -1.2210   -0.7270   -0.8310 O   0  0  0  0  0  0  0  0  0  0  0  0
   -1.7180    0.4550   -1.4030 C   0  0  2  0  0  0  0  0  0  0  0  0
   -0.7260    1.2020   -2.0310 O   0  0  0  0  0  0  0  0  0  0  0  0
   -2.3940    1.2250   -0.3240 C   0  0  0  0  0  0  0  0  0  0  0  0
   -3.5130    1.8210   -0.5040 N   0  0  0  0  0  0  0  0  0  0  0  0
   -4.1930    2.5630    0.4870 C   0  0  1  0  0  0  0  0  0  0  0  0
   -3.8360    2.2180    1.7830 O   0  0  0  0  0  0  0  0  0  0  0  0
   -3.9430    3.9320    0.3540 F   0  0  0  0  0  0  0  0  0  0  0  0
   -2.7690    0.0620   -2.4210 C   0  0  0  0  0  0  0  0  0  0  0  0
   -3.3390    1.2300   -3.0650 N   0  0  0  0  0  0  0  0  0  0  0  0
    1.3900    0.1480    0.1000 P   0  0  0  0  0  0  0  0  0  0  0  0
    2.2930   -0.1960   -1.4600 C   0  0  0  0  0  0  0  0  0  0  0  0
    3.0590    1.0150   -1.9650 C   0  0  0  0  0  0  0  0  0  0  0  0
    4.0020    1.4380   -1.0340 O   0  0  0  0  0  0  0  0  0  0  0  0
    4.6800    2.4690   -1.4220 O   0  0  0  0  0  0  0  0  0  0  0  0
    5.6390    2.7700   -0.4740 C   0  0  0  0  0  0  0  0  0  0  0  0
    2.1590   -0.9520    1.4370 C   0  0  0  0  0  0  0  0  0  0  0  0
    0.8790   -1.2300    2.1930 C   0  0  1  0  0  0  0  0  0  0  0  0
    0.7260   -0.0880    3.1890 C   0  0  0  0  0  0  0  0  0  0  0  0
    1.0690   -2.4390    2.8630 O   0  0  0  0  0  0  0  0  0  0  0  0
  1  2  1  0
  2  3  1  0
  3  4  1  0
  4  5  2  0
  4 23  1  0
  5  6  1  0
  5 16  1  0
  6  7  1  0
  7  8  1  6
  7  9  1  0
  7 14  1  0
  9 10  2  3
 10 11  1  0
 11 12  1  1
 11 13  1  0
 14 15  1  0
 16 17  1  0
 16 22  1  0
 17 18  1  0
 18 19  1  0
 19 20  1  0
 20 21  1  0
 22 23  1  0
 23 24  1  1
 23 25  1  0
M  END
