
     RDKit          3D

 24 24  0  0  0  0  0  0  0  0999 V2000
   -4.2580   -2.4450    1.4550 C   0  0  0  0  0  0  0  0  0  0  0  0
   -3.9820   -1.3390    0.7700 C   0  0  0  0  0  0  0  0  0  0  0  0
   -4.7140   -1.0610   -0.4780 C   0  0  0  0  0  0  0  0  0  0  0  0
   -3.0270   -0.5020    1.2520 O   0  0  0  0  0  0  0  0  0  0  0  0
   -2.4580    0.6180    0.6540 C   0  0  1  0  0  0  0  0  0  0  0  0
   -3.4540    1.5700    0.3880 O   0  0  0  0  0  0  0  0  0  0  0  0
   -1.5390    1.2460    1.7000 C   0  0  0  0  0  0  0  0  0  0  0  0
   -1.2610    2.6760    1.2780 C   0  0  0  0  0  0  0  0  0  0  0  0
   -0.3290    2.7190    0.1220 C   0  0  0  0  0  0  0  0  0  0  0  0
    0.0040    3.8400   -0.1940 O   0  0  0  0  0  0  0  0  0  0  0  0
    0.2690    1.6530   -0.7170 C   0  0  0  0  0  0  0  0  0  0  0  0
   -0.2980    0.3770   -0.5340 N   0  0  0  0  0  0  0  0  0  0  0  0
    0.4560   -0.7740   -0.7640 C   0  0  1  0  0  0  0  0  0  0  0  0
    0.9450   -0.7910   -2.0790 F   0  0  0  0  0  0  0  0  0  0  0  0
    1.4220   -1.0390    0.1850 O   0  0  0  0  0  0  0  0  0  0  0  0
    2.4970   -0.2900    0.5710 C   0  0  0  0  0  0  0  0  0  0  0  0
    2.4350    0.3960    1.8910 C   0  0  0  0  0  0  0  0  0  0  0  0
    3.5800   -0.1480   -0.1670 C   0  0  0  0  0  0  0  0  0  0  0  0
    4.9590    0.8710    0.4370 P   0  0  0  0  0  0  0  0  0  0  0  0
    3.6150   -0.7950   -1.3900 O   0  0  0  0  0  0  0  0  0  0  0  0
    4.1010   -2.0850   -1.5440 C   0  0  0  0  0  0  0  0  0  0  0  0
    4.0820   -2.6600   -2.9130 C   0  0  0  0  0  0  0  0  0  0  0  0
    4.5270   -2.6960   -0.5400 O   0  0  0  0  0  0  0  0  0  0  0  0
   -1.7090    0.2770   -0.6080 C   0  0  0  0  0  0  0  0  0  0  0  0
  1  2  2  0
  2  3  1  0
  2  4  1  0
  4  5  1  0
  5  6  1  6
  5  7  1  0
  5 24  1  0
  7  8  1  0
  8  9  1  0
  9 10  2  0
  9 11  1  0
 11 12  1  0
 12 13  1  0
 12 24  1  0
 13 14  1  6
 13 15  1  0
 15 16  1  0
 16 17  1  0
 16 18  2  3
 18 19  1  0
 18 20  1  0
 20 21  1  0
 21 22  1  0
 21 23  2  0
M  END
