
     RDKit          3D

 25 25  0  0  0  0  0  0  0  0999 V2000
   -2.3310   -2.8720    0.1550 C   0  0  0  0  0  0  0  0  0  0  0  0
   -2.2590   -2.0090   -0.9450 O   0  0  0  0  0  0  0  0  0  0  0  0
   -1.8890   -0.6910   -0.8810 C   0  0  0  0  0  0  0  0  0  0  0  0
   -2.8980    0.1020   -0.7920 C   0  0  0  0  0  0  0  0  0  0  0  0
   -3.8580    0.9480   -0.6890 C   0  0  0  0  0  0  0  0  0  0  0  0
   -4.5160    1.5590   -1.7750 C   0  0  0  0  0  0  0  0  0  0  0  0
   -5.4260    2.3510   -1.2200 C   0  0  0  0  0  0  0  0  0  0  0  0
   -5.4730    2.3620    0.0990 C   0  0  0  0  0  0  0  0  0  0  0  0
   -4.4140    1.4110    0.5280 C   0  0  0  0  0  0  0  0  0  0  0  0
   -4.1390    1.1360    1.7630 N   0  0  0  0  0  0  0  0  0  0  0  0
   -0.6000   -0.1250   -0.9000 C   0  0  0  0  0  0  0  0  0  0  0  0
   -0.3740    1.3340   -0.8230 C   0  0  0  0  0  0  0  0  0  0  0  0
    0.4190   -0.9480   -0.9920 N   0  0  0  0  0  0  0  0  0  0  0  0
    1.7030   -0.5150   -1.0190 O   0  0  0  0  0  0  0  0  0  0  0  0
    2.6920   -0.8570   -0.1340 C   0  0  0  0  0  0  0  0  0  0  0  0
    3.4090    0.1900    0.5610 C   0  0  0  0  0  0  0  0  0  0  0  0
    4.3350   -0.0820    1.3910 O   0  0  0  0  0  0  0  0  0  0  0  0
    3.1480    1.5400    0.3790 O   0  0  0  0  0  0  0  0  0  0  0  0
    3.8890    2.5420    1.0930 C   0  0  0  0  0  0  0  0  0  0  0  0
    3.4550    3.8010    0.7500 O   0  0  0  0  0  0  0  0  0  0  0  0
    2.9910   -2.1100    0.0860 C   0  0  0  0  0  0  0  0  0  0  0  0
    4.3190   -2.6020    1.2730 P   0  0  0  0  0  0  0  0  0  0  0  0
    2.2760   -3.0910   -0.6030 O   0  0  0  0  0  0  0  0  0  0  0  0
    2.5770   -3.4450   -1.8600 O   0  0  0  0  0  0  0  0  0  0  0  0
    3.6850   -2.7960   -2.2150 F   0  0  0  0  0  0  0  0  0  0  0  0
  1  2  1  0
  2  3  1  0
  3  4  2  0
  3 11  1  0
  4  5  2  0
  5  6  1  0
  5  9  1  0
  6  7  2  0
  7  8  2  0
  8  9  1  0
  9 10  2  0
 11 12  1  0
 11 13  2  3
 13 14  1  0
 14 15  1  0
 15 16  1  0
 15 21  2  3
 16 17  2  0
 16 18  1  0
 18 19  1  0
 19 20  1  0
 21 22  1  0
 21 23  1  0
 23 24  1  0
 24 25  1  0
M  END
