
     RDKit          3D

 25 27  0  0  0  0  0  0  0  0999 V2000
    3.8370   -0.9500    0.9890 C   0  0  0  0  0  0  0  0  0  0  0  0
    3.4260    0.2510    1.2900 C   0  0  0  0  0  0  0  0  0  0  0  0
    2.8490    0.7380    2.4500 O   0  0  0  0  0  0  0  0  0  0  0  0
    2.4930    1.9970    2.1870 O   0  0  0  0  0  0  0  0  0  0  0  0
    3.3690    2.4470    1.3040 O   0  0  0  0  0  0  0  0  0  0  0  0
    3.4900    1.4000    0.4220 N   0  0  0  0  0  0  0  0  0  0  0  0
    3.6410    1.4390   -0.9810 C   0  0  0  0  0  0  0  0  0  0  0  0
    4.8350    1.5520   -1.4660 N   0  0  0  0  0  0  0  0  0  0  0  0
    2.4410    1.3520   -1.8510 C   0  0  0  0  0  0  0  0  0  0  0  0
    1.6630    0.1680   -1.5830 C   0  0  0  0  0  0  0  0  0  0  0  0
    2.3650   -1.0500   -1.9390 O   0  0  0  0  0  0  0  0  0  0  0  0
    0.4620   -0.0020   -1.0850 C   0  0  0  0  0  0  0  0  0  0  0  0
    0.0250   -1.3200   -0.9850 O   0  0  0  0  0  0  0  0  0  0  0  0
   -1.1490   -1.7970   -0.5590 C   0  0  0  0  0  0  0  0  0  0  0  0
   -1.3200   -3.1770   -0.5210 F   0  0  0  0  0  0  0  0  0  0  0  0
   -2.1930   -1.1140   -0.1600 C   0  0  0  0  0  0  0  0  0  0  0  0
   -3.3950   -1.7490    0.3010 C   0  0  0  0  0  0  0  0  0  0  0  0
   -4.5080   -1.1780    0.7240 C   0  0  0  0  0  0  0  0  0  0  0  0
   -5.4180   -2.1450    1.0750 O   0  0  0  0  0  0  0  0  0  0  0  0
   -4.7030   -3.3610    1.2610 C   0  0  0  0  0  0  0  0  0  0  0  0
   -3.6010   -3.1160    0.3840 O   0  0  0  0  0  0  0  0  0  0  0  0
   -2.1700    0.7060   -0.4830 P   0  0  0  0  0  0  0  0  0  0  0  0
   -2.9100    1.6520    0.9150 C   0  0  0  0  0  0  0  0  0  0  0  0
   -0.3700    1.0820   -0.6680 C   0  0  0  0  0  0  0  0  0  0  0  0
    0.0910    2.2320   -0.2860 C   0  0  0  0  0  0  0  0  0  0  0  0
  1  2  2  0
  2  3  1  0
  2  6  1  0
  3  4  1  0
  4  5  1  0
  5  6  1  0
  6  7  1  0
  7  8  2  0
  7  9  1  0
  9 10  1  0
 10 11  1  0
 10 12  2  3
 12 13  1  0
 12 24  1  0
 13 14  1  0
 14 15  1  0
 14 16  2  0
 16 17  1  0
 16 22  1  0
 17 18  2  0
 17 21  1  0
 18 19  1  0
 19 20  1  0
 20 21  1  0
 22 23  1  0
 22 24  1  0
 24 25  2  0
M  END
