
     RDKit          3D

 16 16  0  0  0  0  0  0  0  0999 V2000
   -0.3940    0.2050    1.8900 N   0  0  0  0  0  0  0  0  0  0  0  0
   -0.6460   -0.6540    0.7130 C   0  0  1  0  0  0  0  0  0  0  0  0
   -2.0040   -0.2100    0.2350 C   0  0  0  0  0  0  0  0  0  0  0  0
   -2.2140    1.1510    0.1720 C   0  0  0  0  0  0  0  0  0  0  0  0
   -3.4340    1.6770   -0.2560 C   0  0  0  0  0  0  0  0  0  0  0  0
   -4.4360    0.8010   -0.6180 C   0  0  0  0  0  0  0  0  0  0  0  0
   -4.2030   -0.5640   -0.5460 C   0  0  0  0  0  0  0  0  0  0  0  0
   -2.9880   -1.0760   -0.1200 C   0  0  0  0  0  0  0  0  0  0  0  0
    0.6730   -0.3320   -0.3620 P   0  0  0  0  0  0  0  0  0  0  0  0
    0.4360   -0.4110   -2.0610 O   0  0  0  0  0  0  0  0  0  0  0  0
    1.1450   -1.8000   -0.5700 O   0  0  0  0  0  0  0  0  0  0  0  0
    2.2160    0.2170    0.2180 C   0  0  0  0  0  0  0  0  0  0  0  0
    3.2020    0.1100   -0.9530 C   0  0  0  0  0  0  0  0  0  0  0  0
    4.5320    0.5670   -0.5030 C   0  0  0  0  0  0  0  0  0  0  0  0
    5.4690    0.5560   -1.3100 O   0  0  0  0  0  0  0  0  0  0  0  0
    4.7380    1.0030    0.7990 O   0  0  0  0  0  0  0  0  0  0  0  0
  2  1  1  1
  2  3  1  0
  2  9  1  0
  3  4  2  0
  3  8  1  0
  4  5  1  0
  5  6  2  0
  6  7  1  0
  7  8  2  0
  9 10  1  0
  9 11  1  0
  9 12  1  0
 12 13  1  0
 13 14  1  0
 14 15  2  0
 14 16  1  0
M  CHG  1   1   1
M  END
