
     RDKit          3D

 25 25  0  0  0  0  0  0  0  0999 V2000
   -6.0560   -4.1140   -0.4310 C   0  0  0  0  0  0  0  0  0  0  0  0
   -5.4170   -2.9960   -0.1640 C   0  0  0  0  0  0  0  0  0  0  0  0
   -4.7160   -1.9210    0.1370 C   0  0  0  0  0  0  0  0  0  0  0  0
   -3.5880   -2.1250    0.9290 N   0  0  0  0  0  0  0  0  0  0  0  0
   -2.5040   -1.4140    0.8620 C   0  0  0  0  0  0  0  0  0  0  0  0
   -1.2980   -1.6230    1.7010 C   0  0  0  0  0  0  0  0  0  0  0  0
   -0.7010   -0.3660    1.6890 O   0  0  0  0  0  0  0  0  0  0  0  0
   -0.9270    0.1510    0.4110 C   0  0  1  0  0  0  0  0  0  0  0  0
   -0.9860    1.6170    0.4530 C   0  0  0  0  0  0  0  0  0  0  0  0
   -0.8320    2.2060    1.5480 O   0  0  0  0  0  0  0  0  0  0  0  0
   -1.2070    2.3870   -0.6720 O   0  0  0  0  0  0  0  0  0  0  0  0
   -1.2550    3.7180   -0.5930 O   0  0  0  0  0  0  0  0  0  0  0  0
   -2.4380    4.1570    0.0060 C   0  0  0  0  0  0  0  0  0  0  0  0
   -2.5080    5.5250    0.0980 O   0  0  0  0  0  0  0  0  0  0  0  0
    0.3960   -0.5020   -0.6940 P   0  0  0  0  0  0  0  0  0  0  0  0
    0.0770   -0.2130   -2.4730 C   0  0  0  0  0  0  0  0  0  0  0  0
    2.0400    0.1170   -0.1300 C   0  0  2  0  0  0  0  0  0  0  0  0
    3.1150   -0.8540   -0.5490 C   0  0  0  0  0  0  0  0  0  0  0  0
    4.4260   -0.5000   -0.1800 N   0  0  0  0  0  0  0  0  0  0  0  0
    5.0130    0.6250   -0.8010 C   0  0  0  0  0  0  0  0  0  0  0  0
    4.8660   -0.8200    1.1280 C   0  0  0  0  0  0  0  0  0  0  0  0
    2.0220    0.1550    1.3620 C   0  0  0  0  0  0  0  0  0  0  0  0
    2.1910    1.1810    1.9980 O   0  0  0  0  0  0  0  0  0  0  0  0
    1.8130   -0.9810    2.0690 F   0  0  0  0  0  0  0  0  0  0  0  0
   -2.2040   -0.3380    0.0410 O   0  0  0  0  0  0  0  0  0  0  0  0
  1  2  2  0
  2  3  2  0
  3  4  1  0
  4  5  2  3
  5  6  1  0
  5 25  1  0
  6  7  1  0
  7  8  1  0
  8  9  1  0
  8 15  1  6
  8 25  1  0
  9 10  2  0
  9 11  1  0
 11 12  1  0
 12 13  1  0
 13 14  1  0
 15 16  1  0
 15 17  1  0
 17 18  1  1
 17 22  1  0
 18 19  1  0
 19 20  1  0
 19 21  1  0
 22 23  2  0
 22 24  1  0
M  END
