
     RDKit          3D

 25 26  0  0  0  0  0  0  0  0999 V2000
    4.4570    0.6240    2.4010 C   0  0  0  0  0  0  0  0  0  0  0  0
    3.9180    0.8420    1.2350 C   0  0  0  0  0  0  0  0  0  0  0  0
    4.6400    1.6650    0.2340 C   0  0  0  0  0  0  0  0  0  0  0  0
    2.6780    0.3000    0.9450 O   0  0  0  0  0  0  0  0  0  0  0  0
    2.5370   -0.4710   -0.2470 C   0  0  0  0  0  0  0  0  0  0  0  0
    1.1080   -0.9590   -0.3590 C   0  0  0  0  0  0  0  0  0  0  0  0
    1.0000   -2.2410   -0.3940 N   0  0  0  0  0  0  0  0  0  0  0  0
   -0.6110   -3.0100   -0.5240 P   0  0  0  0  0  0  0  0  0  0  0  0
   -0.9290   -3.8750    0.9280 O   0  0  0  0  0  0  0  0  0  0  0  0
   -0.2810   -5.0170    0.9910 O   0  0  0  0  0  0  0  0  0  0  0  0
   -1.7830   -1.5790   -0.5800 C   0  0  0  0  0  0  0  0  0  0  0  0
   -3.0070   -1.9650   -0.6780 C   0  0  0  0  0  0  0  0  0  0  0  0
   -3.1850   -3.4560   -0.7230 C   0  0  0  0  0  0  0  0  0  0  0  0
   -4.1760   -1.2010   -0.7480 O   0  0  0  0  0  0  0  0  0  0  0  0
   -4.2960    0.1730   -1.0370 C   0  0  0  0  0  0  0  0  0  0  0  0
   -5.3650    0.5640   -1.5710 O   0  0  0  0  0  0  0  0  0  0  0  0
   -3.2680    1.1640   -0.7580 C   0  0  0  0  0  0  0  0  0  0  0  0
   -3.7010    2.4480   -0.7200 F   0  0  0  0  0  0  0  0  0  0  0  0
   -1.9770    1.0040   -0.5370 C   0  0  0  0  0  0  0  0  0  0  0  0
   -1.1920    2.1970   -0.2850 C   0  0  0  0  0  0  0  0  0  0  0  0
    0.0390    2.0790   -0.0700 O   0  0  0  0  0  0  0  0  0  0  0  0
   -1.7700    3.4750   -0.2730 O   0  0  0  0  0  0  0  0  0  0  0  0
   -0.9270    4.5640   -0.0190 C   0  0  0  0  0  0  0  0  0  0  0  0
   -1.1880   -0.2500   -0.5080 C   0  0  0  0  0  0  0  0  0  0  0  0
    0.0510   -0.0250   -0.4140 N   0  0  0  0  0  0  0  0  0  0  0  0
  1  2  2  0
  2  3  1  0
  2  4  1  0
  4  5  1  0
  5  6  1  0
  6  7  2  0
  6 25  1  0
  7  8  1  0
  8  9  1  0
  8 11  1  0
  9 10  1  0
 11 12  2  0
 11 24  1  0
 12 13  1  0
 12 14  1  0
 14 15  1  0
 15 16  2  0
 15 17  1  0
 17 18  1  0
 17 19  2  0
 19 20  1  0
 19 24  1  0
 20 21  2  0
 20 22  1  0
 22 23  1  0
 24 25  2  0
M  END
