
     RDKit          3D

 17 17  0  0  0  0  0  0  0  0999 V2000
    2.7730   -1.1760    0.5590 C   0  0  0  0  0  0  0  0  0  0  0  0
    2.0680    0.0210    0.0640 C   0  0  0  0  0  0  0  0  0  0  0  0
    2.9780    1.0060   -0.3980 O   0  0  0  0  0  0  0  0  0  0  0  0
    0.7940    0.2940   -0.0070 C   0  0  0  0  0  0  0  0  0  0  0  0
   -0.1990   -0.6790    0.4590 C   0  0  0  0  0  0  0  0  0  0  0  0
    0.1400   -1.9880    1.0920 C   0  0  0  0  0  0  0  0  0  0  0  0
   -1.4960   -0.3690    0.3310 C   0  0  0  0  0  0  0  0  0  0  0  0
   -2.5110   -1.3620    0.8040 C   0  0  0  0  0  0  0  0  0  0  0  0
   -2.0090    0.8710   -0.2350 C   0  0  2  0  0  0  0  0  0  0  0  0
   -3.0120    1.6890    1.0090 Cl  0  0  0  0  0  0  0  0  0  0  0  0
   -2.8560    0.5810   -1.3030 O   0  0  0  0  0  0  0  0  0  0  0  0
   -2.1860   -0.0840   -2.2360 O   0  0  0  0  0  0  0  0  0  0  0  0
   -0.9790    1.7930   -0.6750 C   0  0  0  0  0  0  0  0  0  0  0  0
   -1.5160    3.3160   -1.3720 Cl  0  0  0  0  0  0  0  0  0  0  0  0
    0.3320    1.5790   -0.5950 C   0  0  0  0  0  0  0  0  0  0  0  0
    1.2500    2.5900   -1.0730 C   0  0  0  0  0  0  0  0  0  0  0  0
    0.6970    3.6670   -1.5620 O   0  0  0  0  0  0  0  0  0  0  0  0
  1  2  1  0
  2  3  1  0
  2  4  2  3
  4  5  1  0
  4 15  1  0
  5  6  1  0
  5  7  2  0
  7  8  1  0
  7  9  1  0
  9 10  1  1
  9 11  1  0
  9 13  1  0
 11 12  1  0
 13 14  1  0
 13 15  2  0
 15 16  1  0
 16 17  2  0
M  END
