
     RDKit          3D

 16 16  0  0  0  0  0  0  0  0999 V2000
    1.5600    0.9720   -1.4320 C   0  0  0  0  0  0  0  0  0  0  0  0
    0.8100    0.4140   -0.5220 C   0  0  0  0  0  0  0  0  0  0  0  0
    1.2090   -0.5080    0.5650 C   0  0  0  0  0  0  0  0  0  0  0  0
    2.5690   -0.6270    1.0750 C   0  0  0  0  0  0  0  0  0  0  0  0
    2.8000   -1.4340    1.9930 O   0  0  0  0  0  0  0  0  0  0  0  0
    3.5910    0.1330    0.5640 O   0  0  0  0  0  0  0  0  0  0  0  0
    4.8570    0.0520    1.0080 O   0  0  0  0  0  0  0  0  0  0  0  0
    0.1280   -1.1670    0.9530 C   0  0  0  0  0  0  0  0  0  0  0  0
    0.1460   -2.3650    2.2220 Cl  0  0  0  0  0  0  0  0  0  0  0  0
   -1.0680   -0.7510    0.1740 C   0  0  2  0  0  0  0  0  0  0  0  0
   -2.2260   -0.6990    1.1350 C   0  0  0  0  0  0  0  0  0  0  0  0
   -1.2750   -1.7950   -0.8960 C   0  0  0  0  0  0  0  0  0  0  0  0
   -2.6960   -1.4120   -1.9130 Cl  0  0  0  0  0  0  0  0  0  0  0  0
   -0.6580    0.5700   -0.3490 C   0  0  2  0  0  0  0  0  0  0  0  0
   -1.3030    1.0030   -1.6210 C   0  0  0  0  0  0  0  0  0  0  0  0
   -0.8710    1.6480    0.6840 C   0  0  0  0  0  0  0  0  0  0  0  0
  1  2  2  0
  2  3  1  0
  2 14  1  0
  3  4  1  0
  3  8  2  0
  4  5  2  0
  4  6  1  0
  6  7  1  0
  8  9  1  0
  8 10  1  0
 10 11  1  1
 10 12  1  0
 10 14  1  0
 12 13  1  0
 14 15  1  6
 14 16  1  0
M  END
