
     RDKit          3D

 17 17  0  0  0  0  0  0  0  0999 V2000
   -3.6980   -1.9550    0.4080 C   0  0  0  0  0  0  0  0  0  0  0  0
   -3.6580   -0.9270   -0.7060 C   0  0  0  0  0  0  0  0  0  0  0  0
   -3.0210    0.2510   -0.3880 O   0  0  0  0  0  0  0  0  0  0  0  0
   -1.7690    0.5430    0.0090 C   0  0  0  0  0  0  0  0  0  0  0  0
   -0.7230   -0.2540    0.0630 C   0  0  0  0  0  0  0  0  0  0  0  0
   -0.5860   -1.6810   -0.2830 C   0  0  0  0  0  0  0  0  0  0  0  0
    0.4370    0.5140    0.5670 C   0  0  0  0  0  0  0  0  0  0  0  0
    1.7230    0.0690    0.7690 O   0  0  0  0  0  0  0  0  0  0  0  0
    2.7640    0.6310    0.1590 O   0  0  0  0  0  0  0  0  0  0  0  0
    3.8410   -0.2600    0.1820 C   0  0  0  0  0  0  0  0  0  0  0  0
    4.9950    0.4420   -0.5300 C   0  0  0  0  0  0  0  0  0  0  0  0
    6.1000   -0.3820   -0.5460 O   0  0  0  0  0  0  0  0  0  0  0  0
   -0.0190    1.7070    0.7820 C   0  0  0  0  0  0  0  0  0  0  0  0
   -1.2890    1.8670    0.4850 C   0  0  0  0  0  0  0  0  0  0  0  0
   -2.0750    3.0930    0.5980 C   0  0  1  0  0  0  0  0  0  0  0  0
   -3.4580    2.9460    1.6910 Cl  0  0  0  0  0  0  0  0  0  0  0  0
   -1.0250    4.4180    1.1510 Cl  0  0  0  0  0  0  0  0  0  0  0  0
  1  2  1  0
  2  3  1  0
  3  4  1  0
  4  5  2  0
  4 14  1  0
  5  6  1  0
  5  7  1  0
  7  8  1  0
  7 13  2  0
  8  9  1  0
  9 10  1  0
 10 11  1  0
 11 12  1  0
 13 14  2  0
 14 15  1  0
 15 16  1  1
 15 17  1  0
M  END
