
     RDKit          3D

 15 16  0  0  0  0  0  0  0  0999 V2000
    3.5890   -0.9210    0.0310 C   0  0  0  0  0  0  0  0  0  0  0  0
    2.2390   -1.2910    0.1760 O   0  0  0  0  0  0  0  0  0  0  0  0
    1.4120   -0.3870   -0.4760 C   0  0  2  0  0  0  0  0  0  0  0  0
    1.7330   -0.3710   -1.8080 O   0  0  0  0  0  0  0  0  0  0  0  0
    1.5460    0.8480    0.1500 O   0  0  0  0  0  0  0  0  0  0  0  0
    0.3020    1.4140    0.2070 C   0  0  2  0  0  0  0  0  0  0  0  0
    0.1140    2.3010   -1.0290 C   0  0  0  0  0  0  0  0  0  0  0  0
    0.1980    2.2540    1.4600 C   0  0  0  0  0  0  0  0  0  0  0  0
   -0.6310    0.2820    0.1960 C   0  0  0  0  0  0  0  0  0  0  0  0
    0.0070   -0.7900   -0.2050 C   0  0  0  0  0  0  0  0  0  0  0  0
   -1.2070   -1.5830   -0.0690 C   0  0  0  0  0  0  0  0  0  0  0  0
   -1.5030   -3.0260   -0.3130 C   0  0  0  0  0  0  0  0  0  0  0  0
   -3.1820   -3.3950    0.0360 Cl  0  0  0  0  0  0  0  0  0  0  0  0
   -1.8710   -0.5150    0.3370 C   0  0  0  0  0  0  0  0  0  0  0  0
   -3.2510   -0.2140    0.7580 C   0  0  0  0  0  0  0  0  0  0  0  0
  1  2  1  0
  2  3  1  0
  3  4  1  6
  3  5  1  0
  3 10  1  0
  5  6  1  0
  6  7  1  6
  6  8  1  0
  6  9  1  0
  9 10  2  0
  9 14  1  0
 10 11  1  0
 11 12  1  0
 11 14  2  0
 12 13  1  0
 14 15  1  0
M  END
