
     RDKit          3D

 27 29  0  0  0  0  0  0  0  0999 V2000
    5.1660   -3.8590    0.6260 C   0  0  0  0  0  0  0  0  0  0  0  0
    4.4020   -2.7020    0.7930 O   0  0  0  0  0  0  0  0  0  0  0  0
    4.6880   -1.4870    0.2020 C   0  0  0  0  0  0  0  0  0  0  0  0
    5.7900   -1.3570   -0.6150 C   0  0  0  0  0  0  0  0  0  0  0  0
    6.0940   -0.1540   -1.2150 C   0  0  0  0  0  0  0  0  0  0  0  0
    5.2650    0.9210   -0.9750 C   0  0  0  0  0  0  0  0  0  0  0  0
    5.3050    2.1610   -1.4010 O   0  0  0  0  0  0  0  0  0  0  0  0
    4.3020    2.8590   -0.9180 C   0  0  0  0  0  0  0  0  0  0  0  0
    4.0050    4.2390   -1.1510 N   0  0  0  0  0  0  0  0  0  0  0  0
    3.5950    2.0080   -0.1480 N   0  0  0  0  0  0  0  0  0  0  0  0
    4.1620    0.7820   -0.1550 C   0  0  0  0  0  0  0  0  0  0  0  0
    3.8380   -0.4120    0.4560 C   0  0  0  0  0  0  0  0  0  0  0  0
    2.6980   -0.5380    1.2970 N   0  0  0  0  0  0  0  0  0  0  0  0
    1.4150   -0.9160    0.7650 C   0  0  0  0  0  0  0  0  0  0  0  0
    1.3310   -1.1310   -0.4630 O   0  0  0  0  0  0  0  0  0  0  0  0
    0.2850   -1.0410    1.6030 N   0  0  0  0  0  0  0  0  0  0  0  0
   -1.0480   -1.3930    1.2340 C   0  0  0  0  0  0  0  0  0  0  0  0
   -1.7900   -0.4900    0.3270 C   0  0  2  0  0  0  0  0  0  0  0  0
   -1.4170   -0.4620   -1.1140 C   0  0  0  0  0  0  0  0  0  0  0  0
   -1.8270    0.7860    0.9260 O   0  0  0  0  0  0  0  0  0  0  0  0
   -3.2650   -0.9830    0.3460 C   0  0  0  0  0  0  0  0  0  0  0  0
   -4.1190   -0.0840   -0.4000 N   0  0  0  0  0  0  0  0  0  0  0  0
   -5.4530   -0.6740   -0.3560 C   0  0  0  0  0  0  0  0  0  0  0  0
   -6.3150    0.4930   -0.7020 C   0  0  0  0  0  0  0  0  0  0  0  0
   -5.6740    1.6480    0.0190 C   0  0  2  0  0  0  0  0  0  0  0  0
   -5.7420    2.8660   -0.7700 N   0  0  0  0  0  0  0  0  0  0  0  0
   -4.2740    1.1990    0.2720 C   0  0  0  0  0  0  0  0  0  0  0  0
  1  2  1  0
  2  3  1  0
  3  4  2  0
  3 12  1  0
  4  5  1  0
  5  6  2  0
  6  7  1  0
  6 11  1  0
  7  8  1  0
  8  9  1  0
  8 10  2  0
 10 11  1  0
 11 12  2  0
 12 13  1  0
 13 14  1  0
 14 15  2  0
 14 16  1  0
 16 17  1  0
 17 18  1  0
 18 19  1  6
 18 20  1  0
 18 21  1  0
 21 22  1  0
 22 23  1  0
 22 27  1  0
 23 24  1  0
 24 25  1  0
 25 26  1  6
 25 27  1  0
M  CHG  1  10   1
M  END
