
     RDKit          3D

 28 31  0  0  0  0  0  0  0  0999 V2000
   -2.3450   -2.6150   -2.6280 N   0  0  0  0  0  0  0  0  0  0  0  0
   -2.0440   -2.9310   -1.2960 C   0  0  0  0  0  0  0  0  0  0  0  0
   -2.3970   -4.1820   -0.7910 C   0  0  0  0  0  0  0  0  0  0  0  0
   -2.1110   -4.5120    0.5160 C   0  0  0  0  0  0  0  0  0  0  0  0
   -1.4730   -3.5850    1.3100 C   0  0  0  0  0  0  0  0  0  0  0  0
   -1.1260   -2.3330    0.7870 C   0  0  0  0  0  0  0  0  0  0  0  0
   -1.4060   -1.9970   -0.5120 C   0  0  0  0  0  0  0  0  0  0  0  0
   -1.0720   -0.7910   -1.0220 O   0  0  0  0  0  0  0  0  0  0  0  0
   -0.4200    0.2540   -0.3630 C   0  0  0  0  0  0  0  0  0  0  0  0
    0.8350    0.0090   -0.0020 C   0  0  0  0  0  0  0  0  0  0  0  0
    1.4090   -1.2410   -0.2910 O   0  0  0  0  0  0  0  0  0  0  0  0
    2.6850   -1.6310    0.0760 C   0  0  1  0  0  0  0  0  0  0  0  0
    3.6520   -1.4440   -1.0040 N   0  0  0  0  0  0  0  0  0  0  0  0
    4.9220   -1.6990   -0.3290 C   0  0  0  0  0  0  0  0  0  0  0  0
    4.7790   -1.1140    1.0450 C   0  0  0  0  0  0  0  0  0  0  0  0
    3.2970   -0.8380    1.1970 C   0  0  1  0  0  0  0  0  0  0  0  0
    3.0210    0.5620    1.0170 N   0  0  0  0  0  0  0  0  0  0  0  0
    1.6840    0.9550    0.6840 C   0  0  0  0  0  0  0  0  0  0  0  0
    1.2870    2.1140    0.9960 O   0  0  0  0  0  0  0  0  0  0  0  0
   -1.0840    1.5100   -0.0930 C   0  0  0  0  0  0  0  0  0  0  0  0
   -1.1740    2.1740    1.0680 N   0  0  0  0  0  0  0  0  0  0  0  0
   -1.8750    3.3070    0.9010 C   0  0  0  0  0  0  0  0  0  0  0  0
   -2.1530    4.2340    1.9220 N   0  0  0  0  0  0  0  0  0  0  0  0
   -2.2260    3.3360   -0.4160 C   0  0  0  0  0  0  0  0  0  0  0  0
   -3.0060    4.3790   -1.1040 C   0  0  0  0  0  0  0  0  0  0  0  0
   -3.4440    5.4100   -0.4890 N   0  0  0  0  0  0  0  0  0  0  0  0
   -3.2860    4.2520   -2.4740 O   0  0  0  0  0  0  0  0  0  0  0  0
   -1.7320    2.2450   -0.9630 O   0  0  0  0  0  0  0  0  0  0  0  0
  1  2  1  0
  2  3  2  0
  2  7  1  0
  3  4  1  0
  4  5  2  0
  5  6  1  0
  6  7  2  0
  7  8  1  0
  8  9  1  0
  9 10  2  3
  9 20  1  0
 10 11  1  0
 10 18  1  0
 11 12  1  0
 12 13  1  6
 12 16  1  0
 13 14  1  0
 14 15  1  0
 16 15  1  6
 16 17  1  0
 17 18  1  0
 18 19  2  0
 20 21  2  0
 20 28  1  0
 21 22  1  0
 22 23  1  0
 22 24  2  0
 24 25  1  0
 24 28  1  0
 25 26  2  0
 25 27  1  0
M  CHG  1  26   1
M  END
