
     RDKit          3D

 28 30  0  0  0  0  0  0  0  0999 V2000
   -3.3120   -1.0710   -3.1810 N   0  0  0  0  0  0  0  0  0  0  0  0
   -2.4130   -0.1160   -2.7120 C   0  0  0  0  0  0  0  0  0  0  0  0
   -1.4760    0.1940   -3.5330 O   0  0  0  0  0  0  0  0  0  0  0  0
   -2.3730    0.5830   -1.4400 C   0  0  2  0  0  0  0  0  0  0  0  0
   -0.9390    0.4830   -0.8700 C   0  0  0  0  0  0  0  0  0  0  0  0
   -0.7520    1.6970   -0.0340 C   0  0  2  0  0  0  0  0  0  0  0  0
   -0.2710    2.7110   -0.8880 O   0  0  0  0  0  0  0  0  0  0  0  0
    0.1410    1.4880    1.1230 C   0  0  0  0  0  0  0  0  0  0  0  0
    1.5480    1.1010    0.8990 C   0  0  2  0  0  0  0  0  0  0  0  0
    2.2510    2.0420    0.1270 O   0  0  0  0  0  0  0  0  0  0  0  0
    1.8190   -0.3130    0.5120 C   0  0  0  0  0  0  0  0  0  0  0  0
    3.3110   -0.4740    0.3650 C   0  0  0  0  0  0  0  0  0  0  0  0
    4.0120   -1.2820    1.0570 N   0  0  0  0  0  0  0  0  0  0  0  0
    5.3890   -1.1950    0.6770 C   0  0  0  0  0  0  0  0  0  0  0  0
    6.4010   -1.8700    1.1640 C   0  0  0  0  0  0  0  0  0  0  0  0
    7.7330   -1.7080    0.7160 N   0  0  0  0  0  0  0  0  0  0  0  0
    5.4380   -0.1840   -0.3840 C   0  0  0  0  0  0  0  0  0  0  0  0
    6.4300    0.2180   -1.0110 O   0  0  0  0  0  0  0  0  0  0  0  0
    4.0800    0.2640   -0.5640 N   0  0  0  0  0  0  0  0  0  0  0  0
   -2.1080    2.1740    0.5110 C   0  0  0  0  0  0  0  0  0  0  0  0
   -2.9700    0.9800    0.7840 C   0  0  0  0  0  0  0  0  0  0  0  0
   -3.3220    0.2690   -0.4540 N   0  0  0  0  0  0  0  0  0  0  0  0
   -3.5360   -1.1210   -0.1550 C   0  0  0  0  0  0  0  0  0  0  0  0
   -4.6720   -1.2100    0.8070 C   0  0  0  0  0  0  0  0  0  0  0  0
   -4.8440   -2.2150    1.7620 C   0  0  0  0  0  0  0  0  0  0  0  0
   -5.9770   -1.9190    2.3960 N   0  0  0  0  0  0  0  0  0  0  0  0
   -6.5040   -0.8470    1.9260 O   0  0  0  0  0  0  0  0  0  0  0  0
   -5.7570   -0.3730    0.9590 C   0  0  0  0  0  0  0  0  0  0  0  0
  1  2  1  0
  2  3  2  0
  4  2  1  6
  4  5  1  0
  4 22  1  0
  5  6  1  0
  6  7  1  6
  6  8  1  0
  6 20  1  0
  8  9  1  0
  9 10  1  6
  9 11  1  0
 11 12  1  0
 12 13  2  0
 12 19  1  0
 13 14  1  0
 14 15  2  3
 14 17  1  0
 15 16  1  0
 17 18  2  0
 17 19  1  0
 20 21  1  0
 21 22  1  0
 22 23  1  0
 23 24  1  0
 24 25  1  0
 24 28  2  0
 25 26  2  0
 26 27  1  0
 27 28  1  0
M  CHG  1  16   1
M  END
