
     RDKit          3D

 28 30  0  0  0  0  0  0  0  0999 V2000
    7.3390   -0.3800    1.2020 C   0  0  0  0  0  0  0  0  0  0  0  0
    7.1470   -0.5280   -0.2770 C   0  0  0  0  0  0  0  0  0  0  0  0
    6.1300   -1.6030   -0.5580 C   0  0  1  0  0  0  0  0  0  0  0  0
    6.5150   -2.8400   -0.0540 O   0  0  0  0  0  0  0  0  0  0  0  0
    4.8310   -1.1960    0.0220 C   0  0  0  0  0  0  0  0  0  0  0  0
    4.2220   -1.9400    0.8560 O   0  0  0  0  0  0  0  0  0  0  0  0
    4.2350    0.0310   -0.3370 N   0  0  0  0  0  0  0  0  0  0  0  0
    2.9650    0.4650    0.2080 C   0  0  0  0  0  0  0  0  0  0  0  0
    1.9490   -0.5750   -0.1820 C   0  0  0  0  0  0  0  0  0  0  0  0
    2.1560   -1.6660   -0.8770 O   0  0  0  0  0  0  0  0  0  0  0  0
    1.0760   -2.3680   -1.0510 C   0  0  0  0  0  0  0  0  0  0  0  0
    0.0510   -1.6680   -0.4030 C   0  0  0  0  0  0  0  0  0  0  0  0
    0.6060   -0.5410    0.1420 C   0  0  0  0  0  0  0  0  0  0  0  0
   -0.0410    0.4930    0.9020 C   0  0  0  0  0  0  0  0  0  0  0  0
    0.6950    1.4030    1.4180 O   0  0  0  0  0  0  0  0  0  0  0  0
   -1.4210    0.6300    1.1540 N   0  0  0  0  0  0  0  0  0  0  0  0
   -2.6010   -0.0420    0.7020 C   0  0  1  0  0  0  0  0  0  0  0  0
   -3.3000    0.8600   -0.2470 C   0  0  0  0  0  0  0  0  0  0  0  0
   -2.7710    1.5790   -1.2480 N   0  0  0  0  0  0  0  0  0  0  0  0
   -3.6970    2.2480   -1.8610 N   0  0  0  0  0  0  0  0  0  0  0  0
   -4.9180    2.0160   -1.3030 C   0  0  0  0  0  0  0  0  0  0  0  0
   -6.2060    2.5970   -1.7270 C   0  0  0  0  0  0  0  0  0  0  0  0
   -4.6850    1.1400   -0.2810 C   0  0  0  0  0  0  0  0  0  0  0  0
   -5.5900    0.5220    0.6780 C   0  0  0  0  0  0  0  0  0  0  0  0
   -6.9760    0.8880    0.5420 N   0  0  0  0  0  0  0  0  0  0  0  0
   -2.4220   -1.3550    0.1950 N   0  0  0  0  0  0  0  0  0  0  0  0
   -1.3290   -2.0910   -0.3440 C   0  0  0  0  0  0  0  0  0  0  0  0
   -1.5410   -3.2270   -0.8260 O   0  0  0  0  0  0  0  0  0  0  0  0
  1  2  1  0
  2  3  1  0
  3  4  1  1
  3  5  1  0
  5  6  2  0
  5  7  1  0
  7  8  1  0
  8  9  1  0
  9 10  1  0
  9 13  2  0
 10 11  1  0
 11 12  2  0
 12 13  1  0
 12 27  1  0
 13 14  1  0
 14 15  2  0
 14 16  1  0
 16 17  1  0
 17 18  1  6
 17 26  1  0
 18 19  2  0
 18 23  1  0
 19 20  1  0
 20 21  1  0
 21 22  1  0
 21 23  2  0
 23 24  1  0
 24 25  1  0
 26 27  1  0
 27 28  2  0
M  CHG  1  25   1
M  END
