
     RDKit          3D

 28 30  0  0  0  0  0  0  0  0999 V2000
    6.8480   -0.4850   -2.4480 N   0  0  0  0  0  0  0  0  0  0  0  0
    7.5080   -0.4110   -1.1890 C   0  0  0  0  0  0  0  0  0  0  0  0
    8.7630   -0.3640   -0.9710 N   0  0  0  0  0  0  0  0  0  0  0  0
    9.0810   -0.2970    0.3690 N   0  0  0  0  0  0  0  0  0  0  0  0
    7.8350   -0.0490    1.0850 C   0  0  0  0  0  0  0  0  0  0  0  0
    6.7500   -0.3770    0.0990 C   0  0  1  0  0  0  0  0  0  0  0  0
    5.7690    0.6320    0.0030 O   0  0  0  0  0  0  0  0  0  0  0  0
    4.4350    0.3360    0.1530 C   0  0  0  0  0  0  0  0  0  0  0  0
    3.4620    1.3010    0.0640 C   0  0  0  0  0  0  0  0  0  0  0  0
    2.1070    0.9730    0.2210 C   0  0  0  0  0  0  0  0  0  0  0  0
    1.7470   -0.3340    0.4670 C   0  0  0  0  0  0  0  0  0  0  0  0
    0.4370   -0.7960    0.6330 N   0  0  0  0  0  0  0  0  0  0  0  0
   -0.7340   -0.0130    0.4370 C   0  0  0  0  0  0  0  0  0  0  0  0
   -0.7020    1.1790    0.0880 O   0  0  0  0  0  0  0  0  0  0  0  0
   -2.0410   -0.5700    0.6360 N   0  0  0  0  0  0  0  0  0  0  0  0
   -3.2290    0.2150    0.4400 C   0  0  0  0  0  0  0  0  0  0  0  0
   -3.3860    0.7550   -0.9430 C   0  0  0  0  0  0  0  0  0  0  0  0
   -4.6710    1.5540   -0.9980 C   0  0  2  0  0  0  0  0  0  0  0  0
   -4.6270    2.6210   -0.0750 O   0  0  0  0  0  0  0  0  0  0  0  0
   -5.8770    0.7270   -0.7570 C   0  0  0  0  0  0  0  0  0  0  0  0
   -6.7230    0.2530   -1.7240 C   0  0  0  0  0  0  0  0  0  0  0  0
   -7.6950   -0.4550   -1.0800 C   0  0  0  0  0  0  0  0  0  0  0  0
   -7.3950   -0.3790    0.2560 C   0  0  0  0  0  0  0  0  0  0  0  0
   -8.1800   -1.0070    1.3830 C   0  0  0  0  0  0  0  0  0  0  0  0
   -7.5870   -0.7250    2.6040 O   0  0  0  0  0  0  0  0  0  0  0  0
   -6.3200    0.3250    0.3930 O   0  0  0  0  0  0  0  0  0  0  0  0
    2.7760   -1.2870    0.5500 C   0  0  0  0  0  0  0  0  0  0  0  0
    4.0510   -0.9180    0.3930 N   0  0  0  0  0  0  0  0  0  0  0  0
  1  2  1  0
  2  3  2  0
  2  6  1  0
  3  4  1  0
  4  5  1  0
  5  6  1  0
  6  7  1  6
  7  8  1  0
  8  9  2  0
  8 28  1  0
  9 10  1  0
 10 11  2  0
 11 12  1  0
 11 27  1  0
 12 13  1  0
 13 14  2  0
 13 15  1  0
 15 16  1  0
 16 17  1  0
 17 18  1  0
 18 19  1  1
 18 20  1  0
 20 21  2  0
 20 26  1  0
 21 22  1  0
 22 23  2  0
 23 24  1  0
 23 26  1  0
 24 25  1  0
 27 28  2  0
M  CHG  1   4   1
M  END
