
     RDKit          3D

 28 30  0  0  0  0  0  0  0  0999 V2000
   -5.7240   -0.2210    0.4830 C   0  0  0  0  0  0  0  0  0  0  0  0
   -5.6630    1.2550    0.1880 C   0  0  0  0  0  0  0  0  0  0  0  0
   -4.2320    1.7880    0.3130 C   0  0  2  0  0  0  0  0  0  0  0  0
   -4.3330    3.2790   -0.0120 C   0  0  0  0  0  0  0  0  0  0  0  0
   -3.3360    1.1200   -0.4550 O   0  0  0  0  0  0  0  0  0  0  0  0
   -2.2110    0.4030   -0.2900 C   0  0  0  0  0  0  0  0  0  0  0  0
   -1.6200   -0.1110   -1.4630 C   0  0  0  0  0  0  0  0  0  0  0  0
   -0.4780   -0.8500   -1.4170 C   0  0  0  0  0  0  0  0  0  0  0  0
    0.1020   -1.0950   -0.1930 C   0  0  0  0  0  0  0  0  0  0  0  0
   -0.4730   -0.5940    0.9560 C   0  0  0  0  0  0  0  0  0  0  0  0
   -1.6470    0.1700    0.9410 C   0  0  0  0  0  0  0  0  0  0  0  0
   -2.1770    0.6500    2.1700 N   0  0  0  0  0  0  0  0  0  0  0  0
    1.3420   -1.9040   -0.2000 C   0  0  2  0  0  0  0  0  0  0  0  0
    2.4730   -1.0350   -0.3850 N   0  0  0  0  0  0  0  0  0  0  0  0
    3.4660   -0.7960    0.5710 C   0  0  0  0  0  0  0  0  0  0  0  0
    3.2850   -1.4300    1.6560 O   0  0  0  0  0  0  0  0  0  0  0  0
    4.6020    0.0360    0.4740 N   0  0  0  0  0  0  0  0  0  0  0  0
    4.9330    0.7660   -0.5930 C   0  0  0  0  0  0  0  0  0  0  0  0
    4.1990    0.7350   -1.6100 O   0  0  0  0  0  0  0  0  0  0  0  0
    6.0580    1.5520   -0.6090 N   0  0  0  0  0  0  0  0  0  0  0  0
    6.8560    1.6000    0.4660 C   0  0  0  0  0  0  0  0  0  0  0  0
    7.8890    2.3200    0.4540 O   0  0  0  0  0  0  0  0  0  0  0  0
    6.5350    0.8700    1.5480 N   0  0  0  0  0  0  0  0  0  0  0  0
    5.4420    0.1070    1.5600 C   0  0  0  0  0  0  0  0  0  0  0  0
    5.1660   -0.5690    2.5940 O   0  0  0  0  0  0  0  0  0  0  0  0
    1.1830   -3.0230   -1.1410 C   0  0  0  0  0  0  0  0  0  0  0  0
    0.5560   -2.7540   -2.3960 N   0  0  0  0  0  0  0  0  0  0  0  0
    0.1690   -1.4090   -2.6510 C   0  0  0  0  0  0  0  0  0  0  0  0
  1  2  1  0
  2  3  1  0
  3  4  1  6
  3  5  1  0
  5  6  1  0
  6  7  2  0
  6 11  1  0
  7  8  1  0
  8  9  2  0
  8 28  1  0
  9 10  1  0
  9 13  1  0
 10 11  2  0
 11 12  1  0
 13 14  1  6
 13 26  1  0
 14 15  1  0
 15 16  2  0
 15 17  1  0
 17 18  1  0
 17 24  1  0
 18 19  2  0
 18 20  1  0
 20 21  1  0
 21 22  2  0
 21 23  1  0
 23 24  1  0
 24 25  2  0
 26 27  1  0
 27 28  1  0
M  CHG  1  27   1
M  END
