
     RDKit          3D

 19 20  0  0  0  0  0  0  0  0999 V2000
   -3.9890   -0.1860    0.1560 N   0  0  0  0  0  0  0  0  0  0  0  0
   -3.2430   -0.7950   -0.9250 C   0  0  2  0  0  0  0  0  0  0  0  0
   -2.2480   -1.8200   -0.4720 C   0  0  0  0  0  0  0  0  0  0  0  0
   -1.2200   -1.2800    0.4460 C   0  0  0  0  0  0  0  0  0  0  0  0
   -1.4700   -1.3220    1.8030 C   0  0  0  0  0  0  0  0  0  0  0  0
   -0.5120   -0.8180    2.6580 C   0  0  0  0  0  0  0  0  0  0  0  0
    0.6610   -0.2890    2.1630 C   0  0  0  0  0  0  0  0  0  0  0  0
    0.9360   -0.2360    0.8080 C   0  0  0  0  0  0  0  0  0  0  0  0
    2.1910    0.3310    0.3200 C   0  0  0  0  0  0  0  0  0  0  0  0
    3.3520    0.2270    1.0680 C   0  0  0  0  0  0  0  0  0  0  0  0
    4.5550    0.7270    0.6830 C   0  0  0  0  0  0  0  0  0  0  0  0
    4.6570    1.3840   -0.5220 C   0  0  0  0  0  0  0  0  0  0  0  0
    3.5230    1.5150   -1.3060 C   0  0  0  0  0  0  0  0  0  0  0  0
    3.5910    2.1730   -2.5290 O   0  0  0  0  0  0  0  0  0  0  0  0
    2.3000    0.9910   -0.8870 C   0  0  0  0  0  0  0  0  0  0  0  0
   -0.0240   -0.7400   -0.0440 C   0  0  0  0  0  0  0  0  0  0  0  0
   -2.6600    0.2300   -1.8150 C   0  0  0  0  0  0  0  0  0  0  0  0
   -1.9830   -0.1360   -2.7980 O   0  0  0  0  0  0  0  0  0  0  0  0
   -2.8790    1.5620   -1.5360 O   0  0  0  0  0  0  0  0  0  0  0  0
  2  1  1  1
  2  3  1  0
  2 17  1  0
  3  4  1  0
  4  5  2  0
  4 16  1  0
  5  6  1  0
  6  7  2  0
  7  8  1  0
  8  9  1  0
  8 16  2  0
  9 10  2  0
  9 15  1  0
 10 11  1  0
 11 12  2  0
 12 13  1  0
 13 14  1  0
 13 15  2  0
 17 18  2  0
 17 19  1  0
M  CHG  1   1   1
M  END
