
     RDKit          3D

 15 16  0  0  0  0  0  0  0  0999 V2000
    2.8210   -1.2850    0.3270 C   0  0  0  0  0  0  0  0  0  0  0  0
    1.3930   -1.1550    0.0200 C   0  0  0  0  0  0  0  0  0  0  0  0
    0.5840   -2.1660   -0.3080 N   0  0  0  0  0  0  0  0  0  0  0  0
   -0.7270   -1.9840   -0.5800 C   0  0  0  0  0  0  0  0  0  0  0  0
   -1.4070   -2.9930   -0.8800 O   0  0  0  0  0  0  0  0  0  0  0  0
   -1.2920   -0.7580   -0.5340 C   0  0  0  0  0  0  0  0  0  0  0  0
   -0.4660    0.3260   -0.1900 C   0  0  0  0  0  0  0  0  0  0  0  0
    0.8490    0.1500    0.0830 C   0  0  0  0  0  0  0  0  0  0  0  0
    1.6950    1.2610    0.4350 C   0  0  0  0  0  0  0  0  0  0  0  0
    1.3120    2.4940    0.5250 C   0  0  0  0  0  0  0  0  0  0  0  0
    2.5340    3.7280    0.9790 Cl  0  0  0  0  0  0  0  0  0  0  0  0
   -1.1480    1.5340   -0.1730 O   0  0  0  0  0  0  0  0  0  0  0  0
   -2.4550    1.5180    0.3630 C   0  0  0  0  0  0  0  0  0  0  0  0
   -3.2660    0.5140   -0.0560 O   0  0  0  0  0  0  0  0  0  0  0  0
   -2.7170   -0.4710   -0.8210 C   0  0  0  0  0  0  0  0  0  0  0  0
  1  2  1  0
  2  3  1  0
  2  8  2  0
  3  4  1  0
  4  5  2  0
  4  6  1  0
  6  7  2  0
  6 15  1  0
  7  8  1  0
  7 12  1  0
  8  9  1  0
  9 10  2  3
 10 11  1  0
 12 13  1  0
 13 14  1  0
 14 15  1  0
M  END
