
     RDKit          3D

 15 16  0  0  0  0  0  0  0  0999 V2000
    4.3590    0.8150   -0.0530 C   0  0  0  0  0  0  0  0  0  0  0  0
    2.9610    0.8170   -0.2840 O   0  0  0  0  0  0  0  0  0  0  0  0
    2.0890   -0.0410    0.3690 C   0  0  0  0  0  0  0  0  0  0  0  0
    2.5720   -0.8430    1.1930 O   0  0  0  0  0  0  0  0  0  0  0  0
    0.6450   -0.0130    0.1060 C   0  0  0  0  0  0  0  0  0  0  0  0
   -0.2460   -0.7990    0.6890 C   0  0  0  0  0  0  0  0  0  0  0  0
    0.0100   -1.7980    1.6590 N   0  0  0  0  0  0  0  0  0  0  0  0
   -1.6070   -0.4890    0.1780 C   0  0  0  0  0  0  0  0  0  0  0  0
   -2.8820   -0.7990    0.2560 C   0  0  0  0  0  0  0  0  0  0  0  0
   -3.6580    0.0570   -0.6660 C   0  0  0  0  0  0  0  0  0  0  0  0
   -2.6470    0.9230   -1.3050 C   0  0  0  0  0  0  0  0  0  0  0  0
   -3.0280    2.1420   -2.5000 Cl  0  0  0  0  0  0  0  0  0  0  0  0
   -1.4700    0.5830   -0.7950 C   0  0  0  0  0  0  0  0  0  0  0  0
   -0.0350    0.8730   -0.8290 C   0  0  0  0  0  0  0  0  0  0  0  0
    0.4650    1.7540   -1.5650 O   0  0  0  0  0  0  0  0  0  0  0  0
  1  2  1  0
  2  3  1  0
  3  4  2  0
  3  5  1  0
  5  6  2  0
  5 14  1  0
  6  7  1  0
  6  8  1  0
  8  9  2  0
  8 13  1  0
  9 10  1  0
 10 11  1  0
 11 12  1  0
 11 13  2  0
 13 14  1  0
 14 15  2  0
M  END
