
     RDKit          3D

 15 16  0  0  0  0  0  0  0  0999 V2000
    2.5720   -1.4980   -3.3650 N   0  0  0  0  0  0  0  0  0  0  0  0
    2.4780   -0.4870   -2.7050 C   0  0  0  0  0  0  0  0  0  0  0  0
    2.3570    0.7380   -1.9350 C   0  0  0  0  0  0  0  0  0  0  0  0
    1.3250    0.5200   -0.9000 C   0  0  0  0  0  0  0  0  0  0  0  0
    0.4660   -0.5520   -0.9450 C   0  0  0  0  0  0  0  0  0  0  0  0
   -0.5110   -0.7290   -0.0020 C   0  0  0  0  0  0  0  0  0  0  0  0
   -0.6230    0.1930    1.0060 C   0  0  0  0  0  0  0  0  0  0  0  0
    0.2210    1.2590    1.0680 C   0  0  0  0  0  0  0  0  0  0  0  0
    0.0150    2.1410    2.1490 O   0  0  0  0  0  0  0  0  0  0  0  0
    1.2060    1.4670    0.1470 C   0  0  0  0  0  0  0  0  0  0  0  0
    2.2830    2.8410    0.2580 Cl  0  0  0  0  0  0  0  0  0  0  0  0
   -1.6540   -0.0640    1.9270 O   0  0  0  0  0  0  0  0  0  0  0  0
   -2.8500   -0.6910    1.4930 C   0  0  0  0  0  0  0  0  0  0  0  0
   -2.7260   -1.3160    0.2590 O   0  0  0  0  0  0  0  0  0  0  0  0
   -1.4760   -1.8610    0.0360 C   0  0  0  0  0  0  0  0  0  0  0  0
  1  2  3  0
  2  3  1  0
  3  4  1  0
  4  5  2  0
  4 10  1  0
  5  6  1  0
  6  7  2  0
  6 15  1  0
  7  8  1  0
  7 12  1  0
  8  9  1  0
  8 10  2  0
 10 11  1  0
 12 13  1  0
 13 14  1  0
 14 15  1  0
M  END
