
     RDKit          3D

 15 16  0  0  0  0  0  0  0  0999 V2000
   -4.0990    0.1410   -0.0950 C   0  0  0  0  0  0  0  0  0  0  0  0
   -2.7450    0.0480   -0.6850 C   0  0  0  0  0  0  0  0  0  0  0  0
   -2.6270   -0.0750   -2.4260 Cl  0  0  0  0  0  0  0  0  0  0  0  0
   -1.6730    0.0580    0.0850 C   0  0  0  0  0  0  0  0  0  0  0  0
   -1.7240    0.1570    1.5130 N   0  0  0  0  0  0  0  0  0  0  0  0
   -0.3700    0.1330    1.9500 C   0  0  0  0  0  0  0  0  0  0  0  0
    0.0520    0.1970    3.1380 O   0  0  0  0  0  0  0  0  0  0  0  0
    0.5200    0.0200    0.7870 C   0  0  0  0  0  0  0  0  0  0  0  0
   -0.2680   -0.0230   -0.3020 C   0  0  0  0  0  0  0  0  0  0  0  0
    0.3130   -0.1380   -1.6600 C   0  0  0  0  0  0  0  0  0  0  0  0
    1.7060   -0.1940   -1.6800 O   0  0  0  0  0  0  0  0  0  0  0  0
    2.5150   -0.1500   -0.5580 C   0  0  0  0  0  0  0  0  0  0  0  0
    4.0170   -0.2190   -0.7040 C   0  0  0  0  0  0  0  0  0  0  0  0
    1.9680   -0.0470    0.6380 C   0  0  0  0  0  0  0  0  0  0  0  0
    2.7910   -0.0050    1.7460 O   0  0  0  0  0  0  0  0  0  0  0  0
  1  2  1  0
  2  3  1  0
  2  4  2  3
  4  5  1  0
  4  9  1  0
  5  6  1  0
  6  7  2  0
  6  8  1  0
  8  9  2  0
  8 14  1  0
  9 10  1  0
 10 11  1  0
 11 12  1  0
 12 13  1  0
 12 14  2  0
 14 15  1  0
M  END
