
     RDKit          3D

  9  8  0  0  0  0  0  0  0  0999 V2000
   -2.7690   -0.4780    0.7710 O   0  0  0  0  0  0  0  0  0  0  0  0
   -2.3020    0.7500    0.3180 C   0  0  0  0  0  0  0  0  0  0  0  0
   -1.0530    0.5920   -0.5470 C   0  0  2  0  0  0  0  0  0  0  0  0
   -1.3250   -0.1920   -1.6540 O   0  0  0  0  0  0  0  0  0  0  0  0
    0.0860    0.0150    0.2610 C   0  0  0  0  0  0  0  0  0  0  0  0
    1.1980   -0.0390   -0.5430 O   0  0  0  0  0  0  0  0  0  0  0  0
    2.3210   -0.5480    0.0620 C   0  0  2  0  0  0  0  0  0  0  0  0
    3.3000    0.4710    0.0300 O   0  0  0  0  0  0  0  0  0  0  0  0
    2.8040   -1.5900   -0.7250 O   0  0  0  0  0  0  0  0  0  0  0  0
  1  2  1  0
  2  3  1  0
  3  4  1  6
  3  5  1  0
  5  6  1  0
  6  7  1  0
  7  8  1  6
  7  9  1  0
M  END
