
     RDKit          3D

  9  8  0  0  0  0  0  0  0  0999 V2000
    2.8290    0.7740    1.2560 O   0  0  0  0  0  0  0  0  0  0  0  0
    2.0330    0.3490    0.1950 C   0  0  0  0  0  0  0  0  0  0  0  0
    1.0160   -0.4740    0.6700 O   0  0  0  0  0  0  0  0  0  0  0  0
    0.2520   -0.8740   -0.3990 C   0  0  1  0  0  0  0  0  0  0  0  0
    0.3220   -2.2780   -0.4610 O   0  0  0  0  0  0  0  0  0  0  0  0
   -1.1970   -0.4630   -0.2780 C   0  0  2  0  0  0  0  0  0  0  0  0
   -1.8570   -0.9260   -1.4160 O   0  0  0  0  0  0  0  0  0  0  0  0
   -1.2800    1.0490   -0.2330 C   0  0  0  0  0  0  0  0  0  0  0  0
   -2.6040    1.4650   -0.1900 O   0  0  0  0  0  0  0  0  0  0  0  0
  1  2  1  0
  2  3  1  0
  3  4  1  0
  4  5  1  1
  4  6  1  0
  6  7  1  6
  6  8  1  0
  8  9  1  0
M  END
