
     RDKit          3D

 10  9  0  0  0  0  0  0  0  0999 V2000
    1.7810   -0.1700    1.7620 O   0  0  0  0  0  0  0  0  0  0  0  0
    1.4410   -0.3600    0.5680 C   0  0  0  0  0  0  0  0  0  0  0  0
    1.6840   -1.6050    0.0270 O   0  0  0  0  0  0  0  0  0  0  0  0
    0.8160    0.7540   -0.1550 C   0  0  2  0  0  0  0  0  0  0  0  0
    0.7020    1.8740    0.6410 O   0  0  0  0  0  0  0  0  0  0  0  0
   -0.5060    0.3910   -0.7820 C   0  0  1  0  0  0  0  0  0  0  0  0
   -0.3260   -0.7410   -1.5680 O   0  0  0  0  0  0  0  0  0  0  0  0
   -1.5810    0.2050    0.1960 C   0  0  0  0  0  0  0  0  0  0  0  0
   -1.8860    1.1240    0.9940 O   0  0  0  0  0  0  0  0  0  0  0  0
   -2.2990   -0.9770    0.2850 O   0  0  0  0  0  0  0  0  0  0  0  0
  1  2  2  0
  2  3  1  0
  2  4  1  0
  4  5  1  1
  4  6  1  0
  6  7  1  1
  6  8  1  0
  8  9  2  0
  8 10  1  0
M  END
