
     RDKit          3D

  9  8  0  0  0  0  0  0  0  0999 V2000
   -2.6660    1.0030   -0.9080 O   0  0  0  0  0  0  0  0  0  0  0  0
   -2.7540    0.1230    0.1580 C   0  0  0  0  0  0  0  0  0  0  0  0
   -2.1170   -1.0680   -0.0430 O   0  0  0  0  0  0  0  0  0  0  0  0
   -0.7750   -0.9920   -0.2790 C   0  0  0  0  0  0  0  0  0  0  0  0
   -0.0520   -0.4060    0.7540 O   0  0  0  0  0  0  0  0  0  0  0  0
    1.3000   -0.3630    0.4460 C   0  0  2  0  0  0  0  0  0  0  0  0
    2.0270   -1.0500    1.4150 O   0  0  0  0  0  0  0  0  0  0  0  0
    1.8280    1.0560    0.4080 C   0  0  0  0  0  0  0  0  0  0  0  0
    3.1850    1.0300    0.0940 O   0  0  0  0  0  0  0  0  0  0  0  0
  1  2  1  0
  2  3  1  0
  3  4  1  0
  4  5  1  0
  5  6  1  0
  6  7  1  1
  6  8  1  0
  8  9  1  0
M  END
