
     RDKit          3D

  9  8  0  0  0  0  0  0  0  0999 V2000
   -3.3560    0.4800    0.0910 O   0  0  0  0  0  0  0  0  0  0  0  0
   -2.2710   -0.4090   -0.0230 C   0  0  0  0  0  0  0  0  0  0  0  0
   -1.0050    0.3310   -0.3840 C   0  0  2  0  0  0  0  0  0  0  0  0
   -1.1510    0.9870   -1.5890 O   0  0  0  0  0  0  0  0  0  0  0  0
    0.0140   -0.5990   -0.4740 O   0  0  0  0  0  0  0  0  0  0  0  0
    1.0210   -0.3500    0.4590 C   0  0  1  0  0  0  0  0  0  0  0  0
    1.1240   -1.5090    1.2430 O   0  0  0  0  0  0  0  0  0  0  0  0
    2.3190   -0.1220   -0.2760 C   0  0  0  0  0  0  0  0  0  0  0  0
    3.3580    0.1310    0.6070 O   0  0  0  0  0  0  0  0  0  0  0  0
  1  2  1  0
  2  3  1  0
  3  4  1  6
  3  5  1  0
  5  6  1  0
  6  7  1  1
  6  8  1  0
  8  9  1  0
M  END
