
     RDKit          3D

  9  8  0  0  0  0  0  0  0  0999 V2000
   -1.2720   -1.4710    0.8580 O   0  0  0  0  0  0  0  0  0  0  0  0
   -1.0840   -0.8830   -0.3990 C   0  0  0  0  0  0  0  0  0  0  0  0
   -0.1430    0.3020   -0.3100 C   0  0  1  0  0  0  0  0  0  0  0  0
   -0.0190    0.8170   -1.6010 O   0  0  0  0  0  0  0  0  0  0  0  0
   -0.6090    1.3420    0.6520 C   0  0  0  0  0  0  0  0  0  0  0  0
   -1.8400    1.8840    0.3370 O   0  0  0  0  0  0  0  0  0  0  0  0
    1.2320   -0.1750    0.1560 C   0  0  0  0  0  0  0  0  0  0  0  0
    1.7090   -1.1780   -0.7160 O   0  0  0  0  0  0  0  0  0  0  0  0
    2.8970   -1.5240   -0.2320 O   0  0  0  0  0  0  0  0  0  0  0  0
  1  2  1  0
  2  3  1  0
  3  4  1  6
  3  5  1  0
  3  7  1  0
  5  6  1  0
  7  8  1  0
  8  9  1  0
M  END
