
     RDKit          3D

 27 28  0  0  0  0  0  0  0  0999 V2000
    9.8080    0.2880   -0.0340 C   0  0  0  0  0  0  0  0  0  0  0  0
    8.6640   -0.5090   -0.0340 O   0  0  0  0  0  0  0  0  0  0  0  0
    7.3890   -0.0350    0.1260 C   0  0  0  0  0  0  0  0  0  0  0  0
    7.2330    1.2040    0.3020 O   0  0  0  0  0  0  0  0  0  0  0  0
    6.3100   -0.9930    0.0640 C   0  0  0  0  0  0  0  0  0  0  0  0
    5.0550   -0.6190    0.1860 C   0  0  0  0  0  0  0  0  0  0  0  0
    3.9640   -1.7070    0.1200 C   0  0  0  0  0  0  0  0  0  0  0  0
    4.6440    0.6810    0.3770 O   0  0  0  0  0  0  0  0  0  0  0  0
    3.4110    1.0350   -0.2290 C   0  0  0  0  0  0  0  0  0  0  0  0
    3.1840    1.9900   -1.1630 C   0  0  0  0  0  0  0  0  0  0  0  0
    1.8080    1.9370   -1.4350 C   0  0  0  0  0  0  0  0  0  0  0  0
    1.2750    0.9780   -0.6690 C   0  0  0  0  0  0  0  0  0  0  0  0
   -0.1270    0.4870   -0.4830 C   0  0  0  0  0  0  0  0  0  0  0  0
   -1.0730    1.1350   -0.9320 O   0  0  0  0  0  0  0  0  0  0  0  0
   -0.3460   -0.6580    0.2070 O   0  0  0  0  0  0  0  0  0  0  0  0
   -1.5060   -1.1840    0.6800 C   0  0  0  0  0  0  0  0  0  0  0  0
   -2.7850   -0.8820   -0.0140 C   0  0  0  0  0  0  0  0  0  0  0  0
   -3.3890   -1.4350   -1.0820 C   0  0  0  0  0  0  0  0  0  0  0  0
   -4.6850   -1.2080   -1.4030 C   0  0  0  0  0  0  0  0  0  0  0  0
   -5.3260   -1.8730   -2.5540 C   0  0  0  0  0  0  0  0  0  0  0  0
   -5.4820   -0.3610   -0.6260 C   0  0  0  0  0  0  0  0  0  0  0  0
   -4.8790    0.2320    0.4910 C   0  0  0  0  0  0  0  0  0  0  0  0
   -5.5990    1.1980    1.3390 C   0  0  0  0  0  0  0  0  0  0  0  0
   -6.9720    1.4540    1.0820 N   0  0  0  0  0  0  0  0  0  0  0  0
   -3.5730   -0.0250    0.7690 C   0  0  0  0  0  0  0  0  0  0  0  0
   -2.8940    0.8010    1.8370 C   0  0  0  0  0  0  0  0  0  0  0  0
    2.2610    0.4390    0.0550 O   0  0  0  0  0  0  0  0  0  0  0  0
  1  2  1  0
  2  3  1  0
  3  4  2  0
  3  5  1  0
  5  6  2  3
  6  7  1  0
  6  8  1  0
  8  9  1  0
  9 10  2  0
  9 27  1  0
 10 11  1  0
 11 12  2  0
 12 13  1  0
 12 27  1  0
 13 14  2  0
 13 15  1  0
 15 16  1  0
 16 17  1  0
 17 18  2  0
 17 25  1  0
 18 19  1  0
 19 20  1  0
 19 21  2  0
 21 22  1  0
 22 23  1  0
 22 25  2  0
 23 24  1  0
 25 26  1  0
M  CHG  1  24   1
M  END
