
     RDKit          3D

 22 24  0  0  0  0  0  0  0  0999 V2000
   -2.5490    1.7580    2.8870 C   0  0  0  0  0  0  0  0  0  0  0  0
   -1.6960    1.1940    1.9310 O   0  0  0  0  0  0  0  0  0  0  0  0
   -2.2030    0.6540    0.7440 C   0  0  0  0  0  0  0  0  0  0  0  0
   -3.5640    0.7030    0.5670 C   0  0  0  0  0  0  0  0  0  0  0  0
   -4.0850    0.1750   -0.5970 C   0  0  0  0  0  0  0  0  0  0  0  0
   -3.2730   -0.3830   -1.5500 C   0  0  0  0  0  0  0  0  0  0  0  0
   -1.9060   -0.4070   -1.3210 C   0  0  0  0  0  0  0  0  0  0  0  0
   -1.3200    0.0980   -0.1900 C   0  0  0  0  0  0  0  0  0  0  0  0
    0.0630    0.1050    0.1060 N   0  0  0  0  0  0  0  0  0  0  0  0
    1.1110   -0.3900   -0.6770 C   0  0  0  0  0  0  0  0  0  0  0  0
    0.8470   -0.9120   -1.7800 O   0  0  0  0  0  0  0  0  0  0  0  0
    2.4790   -0.2890   -0.1930 C   0  0  0  0  0  0  0  0  0  0  0  0
    2.6320    0.2580    0.9410 N   0  0  0  0  0  0  0  0  0  0  0  0
    4.0610    0.6010    1.9250 S   0  0  0  0  0  0  0  0  0  0  0  0
    5.3090   -0.7080    1.7320 C   0  0  0  0  0  0  0  0  0  0  0  0
    5.8830   -0.7170    0.0520 S   0  0  0  0  0  0  0  0  0  0  0  0
    7.1550    0.0870   -0.0560 O   0  0  0  0  0  0  0  0  0  0  0  0
    4.7050   -0.0820   -1.0630 N   0  0  0  0  0  0  0  0  0  0  0  0
    3.4990   -0.8450   -1.1040 C   0  0  0  0  0  0  0  0  0  0  0  0
   -4.0570   -0.8240   -2.5940 O   0  0  0  0  0  0  0  0  0  0  0  0
   -5.4140   -0.5340   -2.3340 C   0  0  0  0  0  0  0  0  0  0  0  0
   -5.3780    0.0730   -1.0650 O   0  0  0  0  0  0  0  0  0  0  0  0
  1  2  1  0
  2  3  1  0
  3  4  2  0
  3  8  1  0
  4  5  1  0
  5  6  2  0
  5 22  1  0
  6  7  1  0
  6 20  1  0
  7  8  2  0
  8  9  1  0
  9 10  1  0
 10 11  2  0
 10 12  1  0
 12 13  2  0
 12 19  1  0
 13 14  1  0
 14 15  1  0
 16 15  1  1
 16 17  2  0
 16 18  1  0
 18 19  1  0
 20 21  1  0
 21 22  1  0
M  END
