
     RDKit          3D

 22 24  0  0  0  0  0  0  0  0999 V2000
   -2.7010    0.9010   -2.6750 C   0  0  0  0  0  0  0  0  0  0  0  0
   -1.9510    0.4430   -1.5540 O   0  0  0  0  0  0  0  0  0  0  0  0
   -2.5980    0.1850   -0.3500 C   0  0  0  0  0  0  0  0  0  0  0  0
   -3.9440    0.3700   -0.2420 C   0  0  0  0  0  0  0  0  0  0  0  0
   -4.6290    0.1200    0.9590 C   0  0  0  0  0  0  0  0  0  0  0  0
   -3.9270   -0.3100    2.0110 C   0  0  0  0  0  0  0  0  0  0  0  0
   -2.5300   -0.4990    1.8890 C   0  0  0  0  0  0  0  0  0  0  0  0
   -1.8410   -0.2610    0.7280 C   0  0  0  0  0  0  0  0  0  0  0  0
   -0.4470   -0.4390    0.5690 N   0  0  0  0  0  0  0  0  0  0  0  0
    0.4960   -0.8740    1.5080 C   0  0  0  0  0  0  0  0  0  0  0  0
    0.1440   -1.1650    2.6650 O   0  0  0  0  0  0  0  0  0  0  0  0
    1.9500   -1.0160    1.2010 C   0  0  0  0  0  0  0  0  0  0  0  0
    2.2600   -0.6600   -0.1510 N   0  0  0  0  0  0  0  0  0  0  0  0
    3.5080   -0.4630   -0.4440 C   0  0  0  0  0  0  0  0  0  0  0  0
    4.0890   -0.1060   -1.6840 N   0  0  0  0  0  0  0  0  0  0  0  0
    5.3340    0.5080   -1.5920 C   0  0  0  0  0  0  0  0  0  0  0  0
    5.7530    1.4680   -2.3250 O   0  0  0  0  0  0  0  0  0  0  0  0
    6.2050   -0.0520   -0.5260 C   0  0  0  0  0  0  0  0  0  0  0  0
    4.9250   -0.5900    0.6760 S   0  0  0  0  0  0  0  0  0  0  0  0
   -4.6390   -0.5460    3.1760 O   0  0  0  0  0  0  0  0  0  0  0  0
   -6.2250    0.1080    2.8560 S   0  0  0  0  0  0  0  0  0  0  0  0
   -5.9900    0.2860    1.1370 O   0  0  0  0  0  0  0  0  0  0  0  0
  1  2  1  0
  2  3  1  0
  3  4  2  0
  3  8  1  0
  4  5  1  0
  5  6  2  0
  5 22  1  0
  6  7  1  0
  6 20  1  0
  7  8  2  0
  8  9  1  0
  9 10  1  0
 10 11  2  0
 10 12  1  0
 12 13  1  0
 13 14  2  3
 14 15  1  0
 14 19  1  0
 15 16  1  0
 16 17  2  0
 16 18  1  0
 18 19  1  0
 20 21  1  0
 21 22  1  0
M  END
