
     RDKit          3D

 23 24  0  0  0  0  0  0  0  0999 V2000
   -5.7290    1.6620    0.4310 C   0  0  0  0  0  0  0  0  0  0  0  0
   -4.4560    2.3470    0.2270 C   0  0  0  0  0  0  0  0  0  0  0  0
   -3.2870    1.7080    0.1740 C   0  0  0  0  0  0  0  0  0  0  0  0
   -2.1850    2.4790   -0.0220 O   0  0  0  0  0  0  0  0  0  0  0  0
   -3.2150    0.2660    0.3190 C   0  0  0  0  0  0  0  0  0  0  0  0
   -2.0660   -0.3850    0.2690 C   0  0  0  0  0  0  0  0  0  0  0  0
   -0.8160    0.2290    0.0740 N   0  0  0  0  0  0  0  0  0  0  0  0
    0.4440   -0.4070    0.0110 C   0  0  0  0  0  0  0  0  0  0  0  0
    0.5450   -1.6300    0.1300 O   0  0  0  0  0  0  0  0  0  0  0  0
    1.7110    0.3740   -0.2030 C   0  0  0  0  0  0  0  0  0  0  0  0
    2.8650   -0.5640   -0.2230 C   0  0  0  0  0  0  0  0  0  0  0  0
    4.1270    0.1940   -0.4350 C   0  0  0  0  0  0  0  0  0  0  0  0
    4.2790    1.5330   -0.5930 N   0  0  0  0  0  0  0  0  0  0  0  0
    5.5540    1.8080   -0.7540 N   0  0  0  0  0  0  0  0  0  0  0  0
    6.2370    0.6420   -0.7010 C   0  0  0  0  0  0  0  0  0  0  0  0
    7.8520    0.5540   -0.8590 S   0  0  0  0  0  0  0  0  0  0  0  0
    5.3420   -0.3290   -0.5050 N   0  0  0  0  0  0  0  0  0  0  0  0
    5.6550   -1.7350   -0.3880 C   0  0  0  0  0  0  0  0  0  0  0  0
   -2.1850   -1.8370    0.4350 C   0  0  0  0  0  0  0  0  0  0  0  0
   -3.3240   -2.4750    0.6210 C   0  0  0  0  0  0  0  0  0  0  0  0
   -3.3080   -4.2330    0.8050 Cl  0  0  0  0  0  0  0  0  0  0  0  0
   -4.6120   -1.7860    0.6810 C   0  0  0  0  0  0  0  0  0  0  0  0
   -4.4250   -0.4330    0.5190 O   0  0  0  0  0  0  0  0  0  0  0  0
  1  2  1  0
  2  3  2  3
  3  4  1  0
  3  5  1  0
  5  6  2  0
  5 23  1  0
  6  7  1  0
  6 19  1  0
  7  8  1  0
  8  9  2  0
  8 10  1  0
 10 11  1  0
 11 12  1  0
 12 13  2  0
 12 17  1  0
 13 14  1  0
 14 15  1  0
 15 16  2  0
 15 17  1  0
 17 18  1  0
 19 20  2  0
 20 21  1  0
 20 22  1  0
 22 23  1  0
M  END
