
     RDKit          3D

 22 24  0  0  0  0  0  0  0  0999 V2000
   -5.5180    1.2590   -0.2230 C   0  0  0  0  0  0  0  0  0  0  0  0
   -4.2050    0.9630   -0.4970 O   0  0  0  0  0  0  0  0  0  0  0  0
   -3.5620    0.4590    0.6090 C   0  0  1  0  0  0  0  0  0  0  0  0
   -3.1240   -0.9950    0.3470 C   0  0  0  0  0  0  0  0  0  0  0  0
   -1.6960   -0.8530    0.0010 N   0  0  0  0  0  0  0  0  0  0  0  0
   -0.8140   -1.7850    0.5240 C   0  0  0  0  0  0  0  0  0  0  0  0
   -1.3120   -2.7470    1.2630 O   0  0  0  0  0  0  0  0  0  0  0  0
    0.6280   -1.8640    0.3760 C   0  0  0  0  0  0  0  0  0  0  0  0
    1.3890   -2.7830    0.8960 C   0  0  0  0  0  0  0  0  0  0  0  0
    3.1140   -2.6310    0.5500 S   0  0  0  0  0  0  0  0  0  0  0  0
    3.2380   -0.9670   -0.0810 C   0  0  0  0  0  0  0  0  0  0  0  0
    4.2730   -0.1690   -0.1840 C   0  0  0  0  0  0  0  0  0  0  0  0
    4.2000    1.1480   -0.7180 N   0  0  0  0  0  0  0  0  0  0  0  0
    5.4860    1.7350   -0.6860 C   0  0  0  0  0  0  0  0  0  0  0  0
    5.7730    2.8910   -1.0830 O   0  0  0  0  0  0  0  0  0  0  0  0
    6.3970    0.8050   -0.1330 N   0  0  0  0  0  0  0  0  0  0  0  0
    5.6580   -0.3650    0.1780 C   0  0  0  0  0  0  0  0  0  0  0  0
    6.1260   -1.4090    0.6850 O   0  0  0  0  0  0  0  0  0  0  0  0
    1.5420   -0.6460   -0.5550 S   0  0  0  0  0  0  0  0  0  0  0  0
   -1.3980    0.2380   -0.8400 C   0  0  0  0  0  0  0  0  0  0  0  0
   -1.5410    1.4900    0.0640 C   0  0  0  0  0  0  0  0  0  0  0  0
   -2.4960    1.2380    1.0460 O   0  0  0  0  0  0  0  0  0  0  0  0
  1  2  1  0
  3  2  1  6
  3  4  1  0
  3 22  1  0
  4  5  1  0
  5  6  1  0
  5 20  1  0
  6  7  2  0
  6  8  1  0
  8  9  2  0
  8 19  1  0
  9 10  1  0
 10 11  1  0
 11 12  2  3
 11 19  1  0
 12 13  1  0
 12 17  1  0
 13 14  1  0
 14 15  2  0
 14 16  1  0
 16 17  1  0
 17 18  2  0
 20 21  1  0
 21 22  1  0
M  END
