
     RDKit          3D

 11 10  0  0  0  0  0  0  0  0999 V2000
    3.6810    0.8470    0.6600 C   0  0  0  0  0  0  0  0  0  0  0  0
    3.4050    0.2050   -0.6790 C   0  0  0  0  0  0  0  0  0  0  0  0
    2.4860   -0.8430   -0.6090 O   0  0  0  0  0  0  0  0  0  0  0  0
    1.2040   -0.6110   -0.1460 C   0  0  0  0  0  0  0  0  0  0  0  0
    0.9060    0.5430    0.2010 O   0  0  0  0  0  0  0  0  0  0  0  0
    0.2370   -1.5930   -0.0470 O   0  0  0  0  0  0  0  0  0  0  0  0
   -1.0650   -1.4000    0.4150 C   0  0  0  0  0  0  0  0  0  0  0  0
   -1.8400   -0.4320   -0.3730 C   0  0  0  0  0  0  0  0  0  0  0  0
   -1.4050    0.1800   -1.3700 O   0  0  0  0  0  0  0  0  0  0  0  0
   -3.1810   -0.1670    0.0200 N   0  0  0  0  0  0  0  0  0  0  0  0
   -4.0390    0.7670   -0.6790 C   0  0  0  0  0  0  0  0  0  0  0  0
  1  2  1  0
  2  3  1  0
  3  4  1  0
  4  5  2  0
  4  6  1  0
  6  7  1  0
  7  8  1  0
  8  9  2  0
  8 10  1  0
 10 11  1  0
M  END
