
     RDKit          3D

 11 10  0  0  0  0  0  0  0  0999 V2000
    3.8480    0.1990    0.1440 C   0  0  0  0  0  0  0  0  0  0  0  0
    2.4000    0.0790   -0.3020 C   0  0  0  0  0  0  0  0  0  0  0  0
    1.7180   -0.5440    0.7130 O   0  0  0  0  0  0  0  0  0  0  0  0
    0.4050   -0.7400    0.4910 N   0  0  0  0  0  0  0  0  0  0  0  0
   -0.4730    0.3690    0.4490 C   0  0  0  0  0  0  0  0  0  0  0  0
    0.0920    1.4970    0.6360 O   0  0  0  0  0  0  0  0  0  0  0  0
   -1.9070    0.3240    0.2230 C   0  0  0  0  0  0  0  0  0  0  0  0
   -2.4840    1.5590    0.2230 C   0  0  0  0  0  0  0  0  0  0  0  0
   -1.7570    2.6880    0.4170 O   0  0  0  0  0  0  0  0  0  0  0  0
   -2.6480   -0.7610    0.0320 O   0  0  0  0  0  0  0  0  0  0  0  0
   -2.6040   -1.9520   -0.5920 C   0  0  0  0  0  0  0  0  0  0  0  0
  1  2  1  0
  2  3  1  0
  3  4  1  0
  4  5  1  0
  5  6  2  0
  5  7  1  0
  7  8  2  3
  7 10  1  0
  8  9  1  0
 10 11  1  0
M  END
