
     RDKit          3D

 10  9  0  0  0  0  0  0  0  0999 V2000
    4.0220   -0.4140   -0.1160 C   0  0  0  0  0  0  0  0  0  0  0  0
    2.9150   -0.8890    0.4070 C   0  0  0  0  0  0  0  0  0  0  0  0
    1.8170    0.0180    0.8740 C   0  0  0  0  0  0  0  0  0  0  0  0
    0.6150   -0.2620    0.1510 N   0  0  0  0  0  0  0  0  0  0  0  0
   -0.5940    0.4450    0.3820 C   0  0  0  0  0  0  0  0  0  0  0  0
   -0.6460    1.3560    1.2460 O   0  0  0  0  0  0  0  0  0  0  0  0
   -1.8100    0.1340   -0.3760 C   0  0  0  0  0  0  0  0  0  0  0  0
   -1.8290   -0.7660   -1.2550 O   0  0  0  0  0  0  0  0  0  0  0  0
   -2.9870    0.8190   -0.1540 O   0  0  0  0  0  0  0  0  0  0  0  0
   -4.1740    0.5540   -0.8560 C   0  0  0  0  0  0  0  0  0  0  0  0
  1  2  2  0
  2  3  1  0
  3  4  1  0
  4  5  1  0
  5  6  2  0
  5  7  1  0
  7  8  2  0
  7  9  1  0
  9 10  1  0
M  END
