
     RDKit          3D

 10  9  0  0  0  0  0  0  0  0999 V2000
   -3.7500    0.3800   -0.1150 C   0  0  0  0  0  0  0  0  0  0  0  0
   -2.3950   -0.1210    0.2760 C   0  0  0  0  0  0  0  0  0  0  0  0
   -1.9290   -1.0800   -0.6350 O   0  0  0  0  0  0  0  0  0  0  0  0
   -0.6700   -1.4980   -0.2100 C   0  0  0  0  0  0  0  0  0  0  0  0
    0.1980   -0.4150   -0.1720 O   0  0  0  0  0  0  0  0  0  0  0  0
    1.4660   -0.7420    0.2380 C   0  0  0  0  0  0  0  0  0  0  0  0
    2.2800    0.5080    0.2300 C   0  0  0  0  0  0  0  0  0  0  0  0
    1.8390    1.5380    1.0530 O   0  0  0  0  0  0  0  0  0  0  0  0
    3.3540    0.6420   -0.5090 C   0  0  0  0  0  0  0  0  0  0  0  0
    4.0690    1.8120   -0.4810 O   0  0  0  0  0  0  0  0  0  0  0  0
  1  2  1  0
  2  3  1  0
  3  4  1  0
  4  5  1  0
  5  6  1  0
  6  7  1  0
  7  8  1  0
  7  9  2  3
  9 10  1  0
M  END
