
     RDKit          3D

 11 11  0  0  0  0  0  0  0  0999 V2000
    2.7720   -1.8800    0.3270 O   0  0  0  0  0  0  0  0  0  0  0  0
    2.6110   -0.6560    0.0480 N   0  0  0  0  0  0  0  0  0  0  0  0
    3.6410    0.1900   -0.1910 O   0  0  0  0  0  0  0  0  0  0  0  0
    1.2710   -0.1880   -0.0070 C   0  0  0  0  0  0  0  0  0  0  0  0
    1.0090    1.1310   -0.3040 C   0  0  0  0  0  0  0  0  0  0  0  0
   -0.2890    1.6100   -0.3640 C   0  0  0  0  0  0  0  0  0  0  0  0
   -1.3770    0.7680   -0.1240 C   0  0  0  0  0  0  0  0  0  0  0  0
   -2.6680    1.2840   -0.1920 O   0  0  0  0  0  0  0  0  0  0  0  0
   -1.1220   -0.5560    0.1750 C   0  0  0  0  0  0  0  0  0  0  0  0
   -2.2150   -1.3700    0.4090 O   0  0  0  0  0  0  0  0  0  0  0  0
    0.1810   -1.0010    0.2260 C   0  0  0  0  0  0  0  0  0  0  0  0
  1  2  2  0
  2  3  1  0
  2  4  1  0
  4  5  2  0
  4 11  1  0
  5  6  1  0
  6  7  2  0
  7  8  1  0
  7  9  1  0
  9 10  1  0
  9 11  2  0
M  CHG  2   2   1   3  -1
M  END
