
     RDKit          3D

 25 27  0  0  0  0  0  0  0  0999 V2000
   -5.2230    0.2640    1.6370 N   0  0  0  0  0  0  0  0  0  0  0  0
   -4.7720   -0.3830    0.4120 C   0  0  0  0  0  0  0  0  0  0  0  0
   -5.4280   -1.4030    0.0660 O   0  0  0  0  0  0  0  0  0  0  0  0
   -3.6390    0.2210   -0.2920 C   0  0  1  0  0  0  0  0  0  0  0  0
   -4.1160    1.5250   -0.8640 N   0  0  0  0  0  0  0  0  0  0  0  0
   -4.0540    2.3630    0.2870 C   0  0  0  0  0  0  0  0  0  0  0  0
   -4.7690    3.3740    0.4870 O   0  0  0  0  0  0  0  0  0  0  0  0
   -3.0160    1.8100    1.1350 N   0  0  0  0  0  0  0  0  0  0  0  0
   -2.5150    0.6830    0.4550 N   0  0  0  0  0  0  0  0  0  0  0  0
   -1.3990   -0.1640    0.1070 C   0  0  0  0  0  0  0  0  0  0  0  0
   -0.1260   -0.0770    0.8080 C   0  0  0  0  0  0  0  0  0  0  0  0
   -0.1710    0.3950    2.0250 O   0  0  0  0  0  0  0  0  0  0  0  0
    1.1360   -0.4440    0.3120 N   0  0  0  0  0  0  0  0  0  0  0  0
    2.3000   -0.4190    1.1820 C   0  0  0  0  0  0  0  0  0  0  0  0
    3.5690   -0.5110    0.5000 C   0  0  0  0  0  0  0  0  0  0  0  0
    4.3740   -1.5440    0.4610 C   0  0  0  0  0  0  0  0  0  0  0  0
    5.6700   -1.5320   -0.2990 C   0  0  0  0  0  0  0  0  0  0  0  0
    6.1740   -0.2370   -0.5150 O   0  0  0  0  0  0  0  0  0  0  0  0
    5.3630    0.8630   -0.4970 C   0  0  0  0  0  0  0  0  0  0  0  0
    4.1420    0.7420   -0.0220 C   0  0  0  0  0  0  0  0  0  0  0  0
    3.3380    1.8960    0.0740 N   0  0  0  0  0  0  0  0  0  0  0  0
   -1.7280   -0.8200   -1.0250 C   0  0  0  0  0  0  0  0  0  0  0  0
   -0.8690   -1.8150   -1.7680 C   0  0  0  0  0  0  0  0  0  0  0  0
   -0.6650   -1.2570   -3.0190 O   0  0  0  0  0  0  0  0  0  0  0  0
   -3.0750   -0.5410   -1.3760 N   0  0  0  0  0  0  0  0  0  0  0  0
  1  2  1  0
  2  3  2  0
  4  2  1  1
  4  5  1  0
  4  9  1  0
  4 25  1  0
  5  6  1  0
  6  7  2  0
  6  8  1  0
  8  9  1  0
  9 10  1  0
 10 11  1  0
 10 22  2  0
 11 12  2  0
 11 13  1  0
 13 14  1  0
 14 15  1  0
 15 16  2  0
 15 20  1  0
 16 17  1  0
 17 18  1  0
 18 19  1  0
 19 20  2  0
 20 21  1  0
 22 23  1  0
 22 25  1  0
 23 24  1  0
M  END
