
     RDKit          3D

 24 26  0  0  0  0  0  0  0  0999 V2000
    4.1540    3.4410   -0.3360 O   0  0  0  0  0  0  0  0  0  0  0  0
    3.3220    2.6780    0.2210 C   0  0  0  0  0  0  0  0  0  0  0  0
    2.4970    1.6010   -0.3880 C   0  0  0  0  0  0  0  0  0  0  0  0
    2.0480    0.8100    0.7880 C   0  0  2  0  0  0  0  0  0  0  0  0
    2.0290    1.7870    1.9000 C   0  0  0  0  0  0  0  0  0  0  0  0
    1.3010    1.8260    2.9230 O   0  0  0  0  0  0  0  0  0  0  0  0
    3.0360    2.7500    1.6140 N   0  0  0  0  0  0  0  0  0  0  0  0
    2.7730   -0.4610    1.0870 C   0  0  1  0  0  0  0  0  0  0  0  0
    2.9100   -0.6370    2.4640 O   0  0  0  0  0  0  0  0  0  0  0  0
    1.5820   -1.2380    0.5490 C   0  0  2  0  0  0  0  0  0  0  0  0
    1.8470   -1.7960   -0.8140 C   0  0  0  0  0  0  0  0  0  0  0  0
    3.0060   -2.6930   -0.6870 N   0  0  0  0  0  0  0  0  0  0  0  0
    3.3260   -3.2480   -1.8650 O   0  0  0  0  0  0  0  0  0  0  0  0
    0.7740    0.0200    0.6200 C   0  0  2  0  0  0  0  0  0  0  0  0
   -0.0200    0.3420   -0.5210 N   0  0  0  0  0  0  0  0  0  0  0  0
   -1.3870    0.6570   -0.3950 C   0  0  0  0  0  0  0  0  0  0  0  0
   -1.8950    0.6440    0.7690 O   0  0  0  0  0  0  0  0  0  0  0  0
   -2.2310    0.9850   -1.4830 N   0  0  0  0  0  0  0  0  0  0  0  0
   -3.6380    1.3090   -1.3650 C   0  0  0  0  0  0  0  0  0  0  0  0
   -4.4330    0.1890   -0.7720 C   0  0  0  0  0  0  0  0  0  0  0  0
   -4.9370   -0.8730   -1.4370 N   0  0  0  0  0  0  0  0  0  0  0  0
   -5.5910   -1.6610   -0.5700 C   0  0  0  0  0  0  0  0  0  0  0  0
   -5.5080   -1.0980    0.6810 C   0  0  0  0  0  0  0  0  0  0  0  0
   -4.7950    0.0270    0.5120 N   0  0  0  0  0  0  0  0  0  0  0  0
  1  2  2  0
  2  3  1  0
  2  7  1  0
  4  3  1  6
  4  5  1  0
  4  8  1  0
  4 14  1  0
  5  6  2  0
  5  7  1  0
  8  9  1  1
  8 10  1  0
 10 11  1  6
 10 14  1  0
 11 12  1  0
 12 13  1  0
 14 15  1  6
 15 16  1  0
 16 17  2  0
 16 18  1  0
 18 19  1  0
 19 20  1  0
 20 21  2  0
 20 24  1  0
 21 22  1  0
 22 23  2  0
 23 24  1  0
M  END
