
     RDKit          3D

 20 19  0  0  0  0  0  0  0  0999 V2000
   -0.4210    1.0190    0.7890 O   0  0  0  0  0  0  0  0  0  0  0  0
   -0.8040    0.0870    0.0150 C   0  0  0  0  0  0  0  0  0  0  0  0
    0.1300   -0.8700   -0.3080 O   0  0  0  0  0  0  0  0  0  0  0  0
    1.4530   -0.9480    0.0850 C   0  0  0  0  0  0  0  0  0  0  0  0
    2.3960    0.0400   -0.4190 C   0  0  0  0  0  0  0  0  0  0  0  0
    2.1250    1.0160   -1.2430 C   0  0  0  0  0  0  0  0  0  0  0  0
    3.1110    1.8840   -1.6380 F   0  0  0  0  0  0  0  0  0  0  0  0
    0.9100    1.1960   -1.7660 F   0  0  0  0  0  0  0  0  0  0  0  0
    3.8330   -0.1150    0.0900 C   0  0  2  0  0  0  0  0  0  0  0  0
    3.7800    0.0020    1.4640 F   0  0  0  0  0  0  0  0  0  0  0  0
    4.6230    0.8130   -0.5140 F   0  0  0  0  0  0  0  0  0  0  0  0
    4.1800   -1.4160   -0.2710 F   0  0  0  0  0  0  0  0  0  0  0  0
   -2.2010    0.0660   -0.4940 C   0  0  2  0  0  0  0  0  0  0  0  0
   -2.2280    0.1220   -1.8820 F   0  0  0  0  0  0  0  0  0  0  0  0
   -2.9070    1.2810    0.0180 C   0  0  0  0  0  0  0  0  0  0  0  0
   -4.2050    1.3780   -0.3830 F   0  0  0  0  0  0  0  0  0  0  0  0
   -2.8770   -1.2220   -0.0650 C   0  0  2  0  0  0  0  0  0  0  0  0
   -2.1530   -2.2680   -0.5990 F   0  0  0  0  0  0  0  0  0  0  0  0
   -4.1990   -1.2510   -0.3690 F   0  0  0  0  0  0  0  0  0  0  0  0
   -2.7340   -1.3340    1.3250 F   0  0  0  0  0  0  0  0  0  0  0  0
  1  2  2  0
  2  3  1  0
  2 13  1  0
  3  4  1  0
  4  5  1  0
  5  6  2  3
  5  9  1  0
  6  7  1  0
  6  8  1  0
  9 10  1  1
  9 11  1  0
  9 12  1  0
 13 14  1  6
 13 15  1  0
 13 17  1  0
 15 16  1  0
 17 18  1  6
 17 19  1  0
 17 20  1  0
M  END
