
     RDKit          3D

 22 21  0  0  0  0  0  0  0  0999 V2000
   -0.9890   -1.6830    0.5590 C   0  0  0  0  0  0  0  0  0  0  0  0
   -0.7020   -0.3640   -0.1220 C   0  0  2  0  0  0  0  0  0  0  0  0
   -0.7810   -0.6260   -1.4960 O   0  0  0  0  0  0  0  0  0  0  0  0
    0.4540    0.2140    0.2350 O   0  0  0  0  0  0  0  0  0  0  0  0
    1.6600   -0.3280    0.0670 C   0  0  1  0  0  0  0  0  0  0  0  0
    1.8350   -1.5550    0.7100 F   0  0  0  0  0  0  0  0  0  0  0  0
    2.2550   -0.4300   -1.2890 C   0  0  1  0  0  0  0  0  0  0  0  0
    1.5440   -1.1810   -2.1920 F   0  0  0  0  0  0  0  0  0  0  0  0
    2.5720    0.8220   -1.8230 F   0  0  0  0  0  0  0  0  0  0  0  0
    3.5030   -1.0720   -1.1950 F   0  0  0  0  0  0  0  0  0  0  0  0
    2.6410    0.5970    0.8510 C   0  0  1  0  0  0  0  0  0  0  0  0
    3.9060    0.0990    0.7220 F   0  0  0  0  0  0  0  0  0  0  0  0
    2.5780    1.8160    0.2170 F   0  0  0  0  0  0  0  0  0  0  0  0
    2.2270    0.6840    2.1680 F   0  0  0  0  0  0  0  0  0  0  0  0
   -1.8030    0.5850    0.2540 C   0  0  0  0  0  0  0  0  0  0  0  0
   -2.8060    0.3310    1.0390 C   0  0  0  0  0  0  0  0  0  0  0  0
   -3.0420   -0.8410    1.6650 F   0  0  0  0  0  0  0  0  0  0  0  0
   -3.7300    1.3090    1.2820 F   0  0  0  0  0  0  0  0  0  0  0  0
   -1.6820    1.9570   -0.3640 C   0  0  1  0  0  0  0  0  0  0  0  0
   -0.5070    2.5180    0.0400 F   0  0  0  0  0  0  0  0  0  0  0  0
   -1.7180    1.7550   -1.7320 F   0  0  0  0  0  0  0  0  0  0  0  0
   -2.7600    2.7500    0.0360 F   0  0  0  0  0  0  0  0  0  0  0  0
  2  1  1  1
  2  3  1  0
  2  4  1  0
  2 15  1  0
  4  5  1  0
  5  6  1  1
  5  7  1  0
  5 11  1  0
  7  8  1  6
  7  9  1  0
  7 10  1  0
 11 12  1  1
 11 13  1  0
 11 14  1  0
 15 16  2  3
 15 19  1  0
 16 17  1  0
 16 18  1  0
 19 20  1  6
 19 21  1  0
 19 22  1  0
M  END
