
     RDKit          3D

 22 21  0  0  0  0  0  0  0  0999 V2000
   -3.2280    1.9550   -1.5010 F   0  0  0  0  0  0  0  0  0  0  0  0
   -1.9770    2.0630   -0.9330 C   0  0  1  0  0  0  0  0  0  0  0  0
   -1.2470    3.0340   -1.6250 F   0  0  0  0  0  0  0  0  0  0  0  0
   -2.0270    2.5550    0.3760 F   0  0  0  0  0  0  0  0  0  0  0  0
   -1.2030    0.8140   -0.9340 C   0  0  0  0  0  0  0  0  0  0  0  0
   -1.5250   -0.3140   -0.3470 C   0  0  0  0  0  0  0  0  0  0  0  0
   -0.6790   -1.4070   -0.4450 O   0  0  0  0  0  0  0  0  0  0  0  0
    0.5970   -1.4390    0.1750 C   0  0  2  0  0  0  0  0  0  0  0  0
    1.3690   -0.3960   -0.3310 O   0  0  0  0  0  0  0  0  0  0  0  0
    1.7540    0.4220    0.7220 C   0  0  0  0  0  0  0  0  0  0  0  0
    2.5940    1.5810    0.2880 C   0  0  1  0  0  0  0  0  0  0  0  0
    2.9090    2.3130    1.4270 F   0  0  0  0  0  0  0  0  0  0  0  0
    3.7570    1.1830   -0.3420 F   0  0  0  0  0  0  0  0  0  0  0  0
    1.8720    2.3830   -0.5750 F   0  0  0  0  0  0  0  0  0  0  0  0
    1.2880   -2.7750   -0.0960 C   0  0  2  0  0  0  0  0  0  0  0  0
    1.4670   -2.9890   -1.4450 F   0  0  0  0  0  0  0  0  0  0  0  0
    0.5360   -3.8200    0.4000 F   0  0  0  0  0  0  0  0  0  0  0  0
    2.4950   -2.7940    0.5630 F   0  0  0  0  0  0  0  0  0  0  0  0
   -2.7580   -0.5200    0.4370 C   0  0  1  0  0  0  0  0  0  0  0  0
   -3.5160   -1.5380   -0.1350 F   0  0  0  0  0  0  0  0  0  0  0  0
   -2.3320   -0.9970    1.6860 F   0  0  0  0  0  0  0  0  0  0  0  0
   -3.5600    0.5610    0.5770 F   0  0  0  0  0  0  0  0  0  0  0  0
  2  1  1  6
  2  3  1  0
  2  4  1  0
  2  5  1  0
  5  6  2  3
  6  7  1  0
  6 19  1  0
  8  7  1  6
  8  9  1  0
  8 15  1  0
  9 10  1  0
 10 11  1  0
 11 12  1  1
 11 13  1  0
 11 14  1  0
 15 16  1  6
 15 17  1  0
 15 18  1  0
 19 20  1  6
 19 21  1  0
 19 22  1  0
M  END
