
     RDKit          3D

 22 21  0  0  0  0  0  0  0  0999 V2000
    0.2230    1.3830    0.8030 O   0  0  0  0  0  0  0  0  0  0  0  0
   -0.2640    0.1270    0.2010 C   0  0  2  0  0  0  0  0  0  0  0  0
   -1.1550   -0.2850    1.2950 C   0  0  0  0  0  0  0  0  0  0  0  0
   -1.9650   -1.4820    1.3450 C   0  0  2  0  0  0  0  0  0  0  0  0
   -1.3820   -2.7040    1.3120 F   0  0  0  0  0  0  0  0  0  0  0  0
   -3.0960   -1.4350    0.4970 F   0  0  0  0  0  0  0  0  0  0  0  0
   -2.5970   -1.4540    2.6160 F   0  0  0  0  0  0  0  0  0  0  0  0
    1.0460   -0.5770    0.0320 C   0  0  2  0  0  0  0  0  0  0  0  0
    1.9140    0.3730   -0.6430 O   0  0  0  0  0  0  0  0  0  0  0  0
    2.9830    0.7130    0.1400 C   0  0  0  0  0  0  0  0  0  0  0  0
    3.7160   -0.4150    0.4260 F   0  0  0  0  0  0  0  0  0  0  0  0
    1.1340   -1.7060   -0.9220 C   0  0  1  0  0  0  0  0  0  0  0  0
    2.4660   -2.1650   -0.8660 F   0  0  0  0  0  0  0  0  0  0  0  0
    0.3620   -2.7700   -0.8590 F   0  0  0  0  0  0  0  0  0  0  0  0
    1.0560   -1.2290   -2.2550 F   0  0  0  0  0  0  0  0  0  0  0  0
   -0.8650    0.6140   -1.0590 C   0  0  2  0  0  0  0  0  0  0  0  0
   -1.4200   -0.3690   -1.8480 F   0  0  0  0  0  0  0  0  0  0  0  0
    0.2010    1.1580   -1.8070 F   0  0  0  0  0  0  0  0  0  0  0  0
   -1.8740    1.7190   -0.9460 C   0  0  1  0  0  0  0  0  0  0  0  0
   -2.9800    1.4470   -0.2110 F   0  0  0  0  0  0  0  0  0  0  0  0
   -1.3330    2.8970   -0.4050 F   0  0  0  0  0  0  0  0  0  0  0  0
   -2.3010    2.1300   -2.2220 F   0  0  0  0  0  0  0  0  0  0  0  0
  2  1  1  1
  2  3  1  0
  2  8  1  0
  2 16  1  0
  3  4  1  0
  4  5  1  1
  4  6  1  0
  4  7  1  0
  8  9  1  6
  8 12  1  0
  9 10  1  0
 10 11  1  0
 12 13  1  6
 12 14  1  0
 12 15  1  0
 16 17  1  6
 16 18  1  0
 16 19  1  0
 19 20  1  1
 19 21  1  0
 19 22  1  0
M  END
