
     RDKit          3D

 21 20  0  0  0  0  0  0  0  0999 V2000
    1.7380    1.7190   -0.5250 O   0  0  0  0  0  0  0  0  0  0  0  0
    2.0000    0.3720   -0.7500 C   0  0  0  0  0  0  0  0  0  0  0  0
    1.6450   -0.4360    0.4680 C   0  0  2  0  0  0  0  0  0  0  0  0
    0.3140   -0.3690    0.8580 O   0  0  0  0  0  0  0  0  0  0  0  0
   -0.7800   -0.7660    0.0590 C   0  0  0  0  0  0  0  0  0  0  0  0
   -1.7300    0.1220   -0.0720 C   0  0  0  0  0  0  0  0  0  0  0  0
   -2.9810   -0.0090   -0.8370 C   0  0  2  0  0  0  0  0  0  0  0  0
   -2.9620    0.7910   -1.9670 F   0  0  0  0  0  0  0  0  0  0  0  0
   -4.0350    0.5480   -0.0530 F   0  0  0  0  0  0  0  0  0  0  0  0
   -1.6030    1.4830    0.5950 C   0  0  1  0  0  0  0  0  0  0  0  0
   -1.5660    2.4530   -0.3830 F   0  0  0  0  0  0  0  0  0  0  0  0
   -2.8150    1.6600    1.2560 F   0  0  0  0  0  0  0  0  0  0  0  0
   -0.5520    1.5500    1.4470 F   0  0  0  0  0  0  0  0  0  0  0  0
   -0.7470   -2.1130   -0.5380 C   0  0  1  0  0  0  0  0  0  0  0  0
   -1.7180   -2.3860   -1.4300 F   0  0  0  0  0  0  0  0  0  0  0  0
    0.4650   -2.3860   -1.1510 F   0  0  0  0  0  0  0  0  0  0  0  0
   -0.8710   -3.0160    0.5150 F   0  0  0  0  0  0  0  0  0  0  0  0
    2.5660    0.0700    1.5880 C   0  0  1  0  0  0  0  0  0  0  0  0
    3.8610   -0.1680    1.1280 F   0  0  0  0  0  0  0  0  0  0  0  0
    2.4380    1.4400    1.7230 F   0  0  0  0  0  0  0  0  0  0  0  0
    2.3670   -0.5980    2.7580 F   0  0  0  0  0  0  0  0  0  0  0  0
  1  2  1  0
  3  2  1  6
  3  4  1  0
  3 18  1  0
  4  5  1  0
  5  6  2  3
  5 14  1  0
  6  7  1  0
  6 10  1  0
  7  8  1  6
  7  9  1  0
 10 11  1  6
 10 12  1  0
 10 13  1  0
 14 15  1  6
 14 16  1  0
 14 17  1  0
 18 19  1  6
 18 20  1  0
 18 21  1  0
M  END
