
     RDKit          3D

 18 19  0  0  0  0  0  0  0  0999 V2000
    1.7290   -2.2460    0.8210 C   0  0  0  0  0  0  0  0  0  0  0  0
    2.1920   -1.0430    0.0810 C   0  0  0  0  0  0  0  0  0  0  0  0
    1.2040   -0.1940   -0.4460 C   0  0  0  0  0  0  0  0  0  0  0  0
   -0.1680   -0.4950   -0.2740 N   0  0  0  0  0  0  0  0  0  0  0  0
   -1.1760    0.3800   -0.7740 C   0  0  2  0  0  0  0  0  0  0  0  0
   -1.1500    1.7240   -0.1320 C   0  0  0  0  0  0  0  0  0  0  0  0
   -2.4130    1.9110    0.6670 C   0  0  0  0  0  0  0  0  0  0  0  0
   -2.9380    0.5180    0.8500 C   0  0  0  0  0  0  0  0  0  0  0  0
   -2.5780   -0.1090   -0.4840 C   0  0  2  0  0  0  0  0  0  0  0  0
   -2.7050   -1.5870   -0.3890 C   0  0  0  0  0  0  0  0  0  0  0  0
   -3.4520    0.3680   -1.4500 O   0  0  0  0  0  0  0  0  0  0  0  0
    1.6200    0.9230   -1.1330 C   0  0  0  0  0  0  0  0  0  0  0  0
    2.9810    1.2060   -1.3010 C   0  0  0  0  0  0  0  0  0  0  0  0
    3.9330    0.3510   -0.7710 C   0  0  0  0  0  0  0  0  0  0  0  0
    5.3300    0.6790   -0.9670 C   0  0  0  0  0  0  0  0  0  0  0  0
    6.4500    0.9370   -1.1090 N   0  0  0  0  0  0  0  0  0  0  0  0
    3.5330   -0.7730   -0.0800 C   0  0  0  0  0  0  0  0  0  0  0  0
    4.7590   -1.8360    0.5810 Cl  0  0  0  0  0  0  0  0  0  0  0  0
  1  2  1  0
  2  3  2  0
  2 17  1  0
  3  4  1  0
  3 12  1  0
  5  4  1  1
  5  6  1  0
  5  9  1  0
  6  7  1  0
  7  8  1  0
  8  9  1  0
  9 10  1  1
  9 11  1  0
 12 13  2  0
 13 14  1  0
 14 15  1  0
 14 17  2  0
 15 16  3  0
 17 18  1  0
M  END
