
     RDKit          3D

 25 27  0  0  0  0  0  0  0  0999 V2000
   -3.3110   -1.4570   -2.7090 C   0  0  0  0  0  0  0  0  0  0  0  0
   -3.6210   -0.7390   -1.4410 C   0  0  0  0  0  0  0  0  0  0  0  0
   -4.9100   -0.7810   -0.9310 C   0  0  0  0  0  0  0  0  0  0  0  0
   -5.2310   -0.1270    0.2400 C   0  0  0  0  0  0  0  0  0  0  0  0
   -6.5530   -0.1640    0.7720 N   0  0  0  0  0  0  0  0  0  0  0  0
   -4.2200    0.5650    0.8740 C   0  0  0  0  0  0  0  0  0  0  0  0
   -2.9310    0.6080    0.3670 C   0  0  0  0  0  0  0  0  0  0  0  0
   -2.6130   -0.0470   -0.8050 C   0  0  0  0  0  0  0  0  0  0  0  0
   -1.2330   -0.0140   -1.3700 C   0  0  0  0  0  0  0  0  0  0  0  0
   -0.3420    0.7810   -0.5200 C   0  0  0  0  0  0  0  0  0  0  0  0
   -0.1820    2.1360   -0.7240 C   0  0  0  0  0  0  0  0  0  0  0  0
    0.6570    2.8760    0.0790 C   0  0  0  0  0  0  0  0  0  0  0  0
    1.3670    2.2980    1.1110 C   0  0  0  0  0  0  0  0  0  0  0  0
    1.2150    0.9410    1.3240 C   0  0  0  0  0  0  0  0  0  0  0  0
    1.9440    0.3420    2.3830 N   0  0  0  0  0  0  0  0  0  0  0  0
    2.7570   -1.1580    2.0840 S   0  0  2  0  0  0  0  0  0  0  0  0
    1.8110   -2.2430    1.6770 O   0  0  0  0  0  0  0  0  0  0  0  0
    3.5460   -1.5730    3.3200 O   0  0  0  0  0  0  0  0  0  0  0  0
    3.9470   -0.8820    0.8300 C   0  0  0  0  0  0  0  0  0  0  0  0
    5.1760   -0.5160    1.1280 C   0  0  0  0  0  0  0  0  0  0  0  0
    6.2450   -0.2620    0.1400 C   0  0  0  0  0  0  0  0  0  0  0  0
    5.8070   -0.4550   -1.1810 O   0  0  0  0  0  0  0  0  0  0  0  0
    4.5360   -0.8350   -1.5190 C   0  0  0  0  0  0  0  0  0  0  0  0
    3.6280   -1.0460   -0.5810 C   0  0  0  0  0  0  0  0  0  0  0  0
    0.3730    0.2060    0.5170 C   0  0  0  0  0  0  0  0  0  0  0  0
  1  2  1  0
  2  3  2  0
  2  8  1  0
  3  4  1  0
  4  5  1  0
  4  6  2  0
  6  7  1  0
  7  8  2  0
  8  9  1  0
  9 10  1  0
 10 11  2  0
 10 25  1  0
 11 12  1  0
 12 13  2  0
 13 14  1  0
 14 15  1  0
 14 25  2  0
 16 15  1  1
 16 17  2  0
 16 18  2  0
 16 19  1  0
 19 20  2  0
 19 24  1  0
 20 21  1  0
 21 22  1  0
 22 23  1  0
 23 24  2  0
M  END
