
     RDKit          3D

 25 27  0  0  0  0  0  0  0  0999 V2000
    6.8490    1.4370   -1.9560 C   0  0  0  0  0  0  0  0  0  0  0  0
    7.4080    0.8220   -0.7350 C   0  0  0  0  0  0  0  0  0  0  0  0
    6.5910    0.3280    0.1740 C   0  0  0  0  0  0  0  0  0  0  0  0
    5.1660    0.3240    0.1000 C   0  0  0  0  0  0  0  0  0  0  0  0
    4.5280   -0.5970    0.7780 C   0  0  0  0  0  0  0  0  0  0  0  0
    3.0580   -0.8250    0.8730 C   0  0  0  0  0  0  0  0  0  0  0  0
    2.6630   -1.7710    1.5830 O   0  0  0  0  0  0  0  0  0  0  0  0
    2.1520   -0.0000    0.1850 N   0  0  0  0  0  0  0  0  0  0  0  0
    0.7410   -0.1400    0.2070 C   0  0  0  0  0  0  0  0  0  0  0  0
    0.0910   -1.2490    0.6770 C   0  0  0  0  0  0  0  0  0  0  0  0
   -1.2830   -1.3650    0.7080 C   0  0  0  0  0  0  0  0  0  0  0  0
   -2.0480   -0.2850    0.2310 C   0  0  0  0  0  0  0  0  0  0  0  0
   -3.4530   -0.4160    0.2890 N   0  0  0  0  0  0  0  0  0  0  0  0
   -4.3860    0.3620   -0.3880 C   0  0  0  0  0  0  0  0  0  0  0  0
   -3.9740    1.2960   -1.1560 O   0  0  0  0  0  0  0  0  0  0  0  0
   -5.8170    0.1360   -0.2420 C   0  0  0  0  0  0  0  0  0  0  0  0
   -6.2980   -0.7980    0.5230 C   0  0  0  0  0  0  0  0  0  0  0  0
   -7.7910   -1.0040    0.6510 C   0  0  0  0  0  0  0  0  0  0  0  0
   -8.5370   -0.1100   -0.1170 O   0  0  0  0  0  0  0  0  0  0  0  0
   -8.0340    0.8810   -0.9300 C   0  0  0  0  0  0  0  0  0  0  0  0
   -6.7250    1.0220   -1.0080 C   0  0  0  0  0  0  0  0  0  0  0  0
   -1.4120    0.8190   -0.2360 C   0  0  0  0  0  0  0  0  0  0  0  0
   -0.0350    0.9340   -0.2670 C   0  0  0  0  0  0  0  0  0  0  0  0
    5.7820   -1.5660    1.6140 S   0  0  0  0  0  0  0  0  0  0  0  0
    7.1220   -0.3090    1.4370 C   0  0  0  0  0  0  0  0  0  0  0  0
  1  2  1  0
  2  3  2  3
  3  4  1  0
  3 25  1  0
  4  5  2  0
  5  6  1  0
  5 24  1  0
  6  7  2  0
  6  8  1  0
  8  9  1  0
  9 10  2  0
  9 23  1  0
 10 11  1  0
 11 12  2  0
 12 13  1  0
 12 22  1  0
 13 14  1  0
 14 15  2  0
 14 16  1  0
 16 17  2  0
 16 21  1  0
 17 18  1  0
 18 19  1  0
 19 20  1  0
 20 21  2  0
 22 23  2  0
 24 25  1  0
M  END
