
     RDKit          3D

 25 27  0  0  0  0  0  0  0  0999 V2000
    7.5230   -1.1090    0.1830 C   0  0  0  0  0  0  0  0  0  0  0  0
    7.5250   -0.1970    1.2160 O   0  0  0  0  0  0  0  0  0  0  0  0
    6.9720    1.0350    0.9150 C   0  0  0  0  0  0  0  0  0  0  0  0
    5.5250    0.8960    0.5410 C   0  0  0  0  0  0  0  0  0  0  0  0
    4.7470   -0.1160    1.0520 C   0  0  0  0  0  0  0  0  0  0  0  0
    3.4140   -0.2540    0.7050 C   0  0  0  0  0  0  0  0  0  0  0  0
    2.8040    0.6180   -0.1700 C   0  0  0  0  0  0  0  0  0  0  0  0
    1.3810    0.4690   -0.5430 C   0  0  0  0  0  0  0  0  0  0  0  0
    0.8700    1.2940   -1.3320 O   0  0  0  0  0  0  0  0  0  0  0  0
    0.6320   -0.5920   -0.0120 N   0  0  0  0  0  0  0  0  0  0  0  0
   -0.7030   -0.7820   -0.3370 N   0  0  0  0  0  0  0  0  0  0  0  0
   -1.7100    0.1160    0.1160 C   0  0  0  0  0  0  0  0  0  0  0  0
   -1.4880    1.1420    0.8020 O   0  0  0  0  0  0  0  0  0  0  0  0
   -3.1260   -0.1570   -0.2220 C   0  0  0  0  0  0  0  0  0  0  0  0
   -3.4940   -0.7740   -1.3990 C   0  0  0  0  0  0  0  0  0  0  0  0
   -4.7930   -1.0960   -1.6900 C   0  0  0  0  0  0  0  0  0  0  0  0
   -5.8150   -0.8030   -0.7780 C   0  0  0  0  0  0  0  0  0  0  0  0
   -5.4680   -0.1900    0.3920 C   0  0  0  0  0  0  0  0  0  0  0  0
   -4.1290    0.1340    0.6730 C   0  0  0  0  0  0  0  0  0  0  0  0
   -6.7030    0.0250    1.2150 C   0  0  0  0  0  0  0  0  0  0  0  0
   -7.6690   -0.9770    0.6270 C   0  0  0  0  0  0  0  0  0  0  0  0
   -7.2820   -1.0690   -0.8440 C   0  0  0  0  0  0  0  0  0  0  0  0
    3.5650    1.6380   -0.6910 C   0  0  0  0  0  0  0  0  0  0  0  0
    2.9880    2.5870   -1.6130 N   0  0  0  0  0  0  0  0  0  0  0  0
    4.8940    1.7580   -0.3320 C   0  0  0  0  0  0  0  0  0  0  0  0
  1  2  1  0
  2  3  1  0
  3  4  1  0
  4  5  2  0
  4 25  1  0
  5  6  1  0
  6  7  2  0
  7  8  1  0
  7 23  1  0
  8  9  2  0
  8 10  1  0
 10 11  1  0
 11 12  1  0
 12 13  2  0
 12 14  1  0
 14 15  2  0
 14 19  1  0
 15 16  1  0
 16 17  2  0
 17 18  1  0
 17 22  1  0
 18 19  2  0
 18 20  1  0
 20 21  1  0
 21 22  1  0
 23 24  1  0
 23 25  2  0
M  END
