
     RDKit          3D

 25 27  0  0  0  0  0  0  0  0999 V2000
   -7.6310   -1.1090   -0.6120 N   0  0  0  0  0  0  0  0  0  0  0  0
   -6.4240   -0.4130   -0.2690 C   0  0  0  0  0  0  0  0  0  0  0  0
   -5.2480   -0.6040   -0.9430 C   0  0  0  0  0  0  0  0  0  0  0  0
   -4.0660    0.0620   -0.6270 C   0  0  0  0  0  0  0  0  0  0  0  0
   -4.0710    0.9580    0.4150 C   0  0  0  0  0  0  0  0  0  0  0  0
   -2.8860    1.6550    0.8060 C   0  0  0  0  0  0  0  0  0  0  0  0
   -3.0790    2.7860    1.3970 O   0  0  0  0  0  0  0  0  0  0  0  0
   -1.5100    1.2350    0.6140 C   0  0  0  0  0  0  0  0  0  0  0  0
   -1.1400   -0.0780    0.4790 C   0  0  0  0  0  0  0  0  0  0  0  0
    0.1550   -0.4860    0.2820 C   0  0  0  0  0  0  0  0  0  0  0  0
    1.1660    0.4430    0.2120 C   0  0  0  0  0  0  0  0  0  0  0  0
    2.5670    0.0260    0.0070 C   0  0  0  0  0  0  0  0  0  0  0  0
    3.4850    0.8010   -0.6670 C   0  0  0  0  0  0  0  0  0  0  0  0
    4.8040    0.3590   -0.8290 C   0  0  0  0  0  0  0  0  0  0  0  0
    5.2260   -0.8400   -0.3310 C   0  0  0  0  0  0  0  0  0  0  0  0
    6.8860   -1.3640   -0.5460 S   0  0  1  0  0  0  0  0  0  0  0  0
    7.8900   -0.8510    0.7570 N   0  0  0  0  0  0  0  0  0  0  0  0
    6.8680   -2.8670   -0.5340 O   0  0  0  0  0  0  0  0  0  0  0  0
    7.4660   -0.8150   -1.8070 O   0  0  0  0  0  0  0  0  0  0  0  0
    4.3010   -1.6180    0.3470 C   0  0  0  0  0  0  0  0  0  0  0  0
    3.0020   -1.1820    0.5050 C   0  0  0  0  0  0  0  0  0  0  0  0
    0.8280    1.7710    0.3440 C   0  0  0  0  0  0  0  0  0  0  0  0
   -0.4800    2.1630    0.5410 C   0  0  0  0  0  0  0  0  0  0  0  0
   -5.2470    1.1620    1.1040 C   0  0  0  0  0  0  0  0  0  0  0  0
   -6.4090    0.4980    0.7810 C   0  0  0  0  0  0  0  0  0  0  0  0
  1  2  1  0
  2  3  2  0
  2 25  1  0
  3  4  1  0
  4  5  2  0
  5  6  1  0
  5 24  1  0
  6  7  2  0
  6  8  1  0
  8  9  2  0
  8 23  1  0
  9 10  1  0
 10 11  2  0
 11 12  1  0
 11 22  1  0
 12 13  2  0
 12 21  1  0
 13 14  1  0
 14 15  2  0
 15 16  1  0
 15 20  1  0
 16 17  1  1
 16 18  2  0
 16 19  2  0
 20 21  2  0
 22 23  2  0
 24 25  2  0
M  END
