
     RDKit          3D

 16 15  0  0  0  0  0  0  0  0999 V2000
   -0.7670    0.7090    0.7020 O   0  0  0  0  0  0  0  0  0  0  0  0
   -1.2110   -0.2630    0.1230 C   0  0  0  0  0  0  0  0  0  0  0  0
   -0.4250   -1.5310   -0.0290 C   0  0  0  0  0  0  0  0  0  0  0  0
    0.8390   -1.4390    0.5650 O   0  0  0  0  0  0  0  0  0  0  0  0
    1.8100   -0.5260    0.2170 C   0  0  0  0  0  0  0  0  0  0  0  0
    1.5690    0.2880   -0.6900 O   0  0  0  0  0  0  0  0  0  0  0  0
    3.1160   -0.5620    0.9560 C   0  0  0  0  0  0  0  0  0  0  0  0
    4.0020    0.4740    0.4460 N   0  0  0  0  0  0  0  0  0  0  0  0
    4.4050    0.4970   -0.9080 C   0  0  0  0  0  0  0  0  0  0  0  0
    3.9970   -0.3880   -1.6900 O   0  0  0  0  0  0  0  0  0  0  0  0
    5.2460    1.4810   -1.3860 O   0  0  0  0  0  0  0  0  0  0  0  0
   -2.5780   -0.1720   -0.4440 C   0  0  0  0  0  0  0  0  0  0  0  0
   -3.1280    1.0620   -0.2010 O   0  0  0  0  0  0  0  0  0  0  0  0
   -4.7190    1.1920   -0.8520 P   0  0  0  0  0  0  0  0  0  0  0  0
   -5.6300   -0.2190   -0.3860 O   0  0  0  0  0  0  0  0  0  0  0  0
   -5.5620    2.5730   -0.2770 O   0  0  0  0  0  0  0  0  0  0  0  0
  1  2  2  0
  2  3  1  0
  2 12  1  0
  3  4  1  0
  4  5  1  0
  5  6  2  0
  5  7  1  0
  7  8  1  0
  8  9  1  0
  9 10  2  0
  9 11  1  0
 12 13  1  0
 13 14  1  0
 14 15  1  0
 14 16  1  0
M  END
