
     RDKit          3D

 15 14  0  0  0  0  0  0  0  0999 V2000
   -0.8590   -0.7820    0.6880 O   0  0  0  0  0  0  0  0  0  0  0  0
   -0.5660    0.2650    0.0550 C   0  0  0  0  0  0  0  0  0  0  0  0
   -1.5140    1.3040   -0.1240 N   0  0  0  0  0  0  0  0  0  0  0  0
   -2.8510    1.2410    0.3910 C   0  0  0  0  0  0  0  0  0  0  0  0
   -3.5870    0.0730   -0.1870 C   0  0  0  0  0  0  0  0  0  0  0  0
   -5.3110    0.1030    0.5560 P   0  0  0  0  0  0  0  0  0  0  0  0
   -6.1200   -1.3640    0.0410 O   0  0  0  0  0  0  0  0  0  0  0  0
   -6.1670    1.4450   -0.1030 O   0  0  0  0  0  0  0  0  0  0  0  0
    0.7000    0.4190   -0.4820 O   0  0  0  0  0  0  0  0  0  0  0  0
    1.6300   -0.5270   -0.3440 O   0  0  0  0  0  0  0  0  0  0  0  0
    2.7430   -0.0890    0.3410 C   0  0  0  0  0  0  0  0  0  0  0  0
    3.7110   -1.2680    0.4210 C   0  0  1  0  0  0  0  0  0  0  0  0
    4.0700   -1.6950   -0.8560 O   0  0  0  0  0  0  0  0  0  0  0  0
    4.9990   -0.8310    1.1060 C   0  0  0  0  0  0  0  0  0  0  0  0
    5.5420    0.1990    0.3470 O   0  0  0  0  0  0  0  0  0  0  0  0
  1  2  2  0
  2  3  1  0
  2  9  1  0
  3  4  1  0
  4  5  1  0
  5  6  1  0
  6  7  1  0
  6  8  1  0
  9 10  1  0
 10 11  1  0
 11 12  1  0
 12 13  1  6
 12 14  1  0
 14 15  1  0
M  END
