
     RDKit          3D

 19 18  0  0  0  0  0  0  0  0999 V2000
    5.0740    0.3130   -1.2960 O   0  0  0  0  0  0  0  0  0  0  0  0
    4.3520    0.3440   -0.3750 C   0  0  0  0  0  0  0  0  0  0  0  0
    4.5130    1.5290    0.4610 O   0  0  0  0  0  0  0  0  0  0  0  0
    3.3590   -0.6510    0.0170 C   0  0  0  0  0  0  0  0  0  0  0  0
    2.3280   -0.6750    1.1130 C   0  0  0  0  0  0  0  0  0  0  0  0
    1.3010    0.5230    0.9490 C   0  0  1  0  0  0  0  0  0  0  0  0
    2.2410    1.6210    0.9690 O   0  0  0  0  0  0  0  0  0  0  0  0
    0.6500    0.5880   -0.3870 C   0  0  2  0  0  0  0  0  0  0  0  0
    0.3520    1.9830   -0.5910 O   0  0  0  0  0  0  0  0  0  0  0  0
   -0.6830   -0.1170   -0.4260 C   0  0  2  0  0  0  0  0  0  0  0  0
   -1.1300    0.1620   -1.7370 O   0  0  0  0  0  0  0  0  0  0  0  0
   -1.6040    0.6180    0.6000 C   0  0  0  0  0  0  0  0  0  0  0  0
   -2.8600    0.3390    0.1460 O   0  0  0  0  0  0  0  0  0  0  0  0
   -4.0170   -0.4540    0.7850 P   0  0  0  0  0  0  0  0  0  0  0  0
   -4.5490   -0.5890   -0.8300 O   0  0  0  0  0  0  0  0  0  0  0  0
   -4.7180    0.6260    1.6920 O   0  0  0  0  0  0  0  0  0  0  0  0
   -4.9680   -1.6630    1.0860 O   0  0  0  0  0  0  0  0  0  0  0  0
    3.3530   -1.6840   -0.7600 N   0  0  0  0  0  0  0  0  0  0  0  0
    2.5410   -2.7960   -0.6740 O   0  0  0  0  0  0  0  0  0  0  0  0
  1  2  2  0
  2  3  1  0
  2  4  1  0
  4  5  1  0
  4 18  2  3
  5  6  1  0
  6  7  1  6
  6  8  1  0
  8  9  1  1
  8 10  1  0
 10 11  1  6
 10 12  1  0
 12 13  1  0
 13 14  1  0
 14 15  1  0
 14 16  1  0
 14 17  1  0
 18 19  1  0
M  END
