
     RDKit          3D

 16 15  0  0  0  0  0  0  0  0999 V2000
   -3.8640   -1.5610    2.2410 O   0  0  0  0  0  0  0  0  0  0  0  0
   -4.5330   -0.6190    1.7190 C   0  0  0  0  0  0  0  0  0  0  0  0
   -5.7680   -0.3370    2.3010 O   0  0  0  0  0  0  0  0  0  0  0  0
   -4.0170    0.0860    0.6060 N   0  0  0  0  0  0  0  0  0  0  0  0
   -2.7260   -0.2870    0.0800 C   0  0  0  0  0  0  0  0  0  0  0  0
   -2.1210   -1.2230    0.6410 O   0  0  0  0  0  0  0  0  0  0  0  0
   -2.2360    0.4690   -1.0690 C   0  0  0  0  0  0  0  0  0  0  0  0
   -1.0130    0.1360   -1.5620 O   0  0  0  0  0  0  0  0  0  0  0  0
    0.0550    0.2670   -0.7210 C   0  0  0  0  0  0  0  0  0  0  0  0
    1.3460   -0.1250   -1.3850 C   0  0  0  0  0  0  0  0  0  0  0  0
    1.3530   -0.5180   -2.5800 O   0  0  0  0  0  0  0  0  0  0  0  0
    2.5480   -0.0750   -0.7350 O   0  0  0  0  0  0  0  0  0  0  0  0
    3.7860   -0.4180   -1.2710 C   0  0  0  0  0  0  0  0  0  0  0  0
    5.0630   -0.1460    0.0830 P   0  0  0  0  0  0  0  0  0  0  0  0
    4.3080   -0.5070    1.6200 O   0  0  0  0  0  0  0  0  0  0  0  0
    5.5160    1.5430    0.1080 O   0  0  0  0  0  0  0  0  0  0  0  0
  1  2  2  0
  2  3  1  0
  2  4  1  0
  4  5  1  0
  5  6  2  0
  5  7  1  0
  7  8  1  0
  8  9  1  0
  9 10  1  0
 10 11  2  0
 10 12  1  0
 12 13  1  0
 13 14  1  0
 14 15  1  0
 14 16  1  0
M  END
