
     RDKit          3D

 16 15  0  0  0  0  0  0  0  0999 V2000
    3.5830    0.5550   -0.3550 O   0  0  0  0  0  0  0  0  0  0  0  0
    3.8330    0.6140    0.8720 C   0  0  0  0  0  0  0  0  0  0  0  0
    5.1610    0.5180    1.3290 O   0  0  0  0  0  0  0  0  0  0  0  0
    2.7910    0.7740    1.7660 O   0  0  0  0  0  0  0  0  0  0  0  0
    1.4340    0.8780    1.4070 C   0  0  0  0  0  0  0  0  0  0  0  0
    1.0060   -0.3340    0.7110 C   0  0  0  0  0  0  0  0  0  0  0  0
    1.9020   -1.2300    0.5740 O   0  0  0  0  0  0  0  0  0  0  0  0
   -0.3030   -0.5500    0.2020 N   0  0  0  0  0  0  0  0  0  0  0  0
   -1.3660    0.4060    0.3150 C   0  0  0  0  0  0  0  0  0  0  0  0
   -1.4750    1.5870   -1.0760 P   0  0  0  0  0  0  0  0  0  0  0  0
   -1.4950    3.2010   -0.4930 O   0  0  0  0  0  0  0  0  0  0  0  0
   -2.7980    1.2730   -2.1450 O   0  0  0  0  0  0  0  0  0  0  0  0
   -0.5790   -1.7760   -0.4530 C   0  0  0  0  0  0  0  0  0  0  0  0
    0.3390   -2.6470   -0.5720 O   0  0  0  0  0  0  0  0  0  0  0  0
   -1.9000   -2.1130   -1.0210 C   0  0  0  0  0  0  0  0  0  0  0  0
   -1.8670   -3.3710   -1.5940 O   0  0  0  0  0  0  0  0  0  0  0  0
  1  2  2  0
  2  3  1  0
  2  4  1  0
  4  5  1  0
  5  6  1  0
  6  7  2  0
  6  8  1  0
  8  9  1  0
  8 13  1  0
  9 10  1  0
 10 11  1  0
 10 12  1  0
 13 14  2  0
 13 15  1  0
 15 16  1  0
M  END
