
     RDKit          3D

 15 14  0  0  0  0  0  0  0  0999 V2000
   -0.6970    3.8960    0.1020 C   0  0  0  0  0  0  0  0  0  0  0  0
   -0.7170    2.5710    0.6270 O   0  0  0  0  0  0  0  0  0  0  0  0
   -0.1720    1.5320   -0.1880 C   0  0  0  0  0  0  0  0  0  0  0  0
    0.2630    1.8220   -1.2490 O   0  0  0  0  0  0  0  0  0  0  0  0
   -0.2090    0.1780    0.3150 C   0  0  1  0  0  0  0  0  0  0  0  0
   -1.1880   -0.6400   -0.5820 C   0  0  0  0  0  0  0  0  0  0  0  0
   -1.5440   -1.6990    0.2530 O   0  0  0  0  0  0  0  0  0  0  0  0
   -3.2410   -1.8220    0.3000 P   0  0  0  0  0  0  0  0  0  0  0  0
   -4.0740   -0.5420   -0.4630 O   0  0  0  0  0  0  0  0  0  0  0  0
   -3.9910   -3.2970    0.4340 O   0  0  0  0  0  0  0  0  0  0  0  0
    0.9260   -0.5680    0.5280 N   0  0  0  0  0  0  0  0  0  0  0  0
    2.0150   -0.2950   -0.3410 C   0  0  0  0  0  0  0  0  0  0  0  0
    2.8280   -1.5690   -0.5150 C   0  0  0  0  0  0  0  0  0  0  0  0
    4.0070   -1.2190   -1.1900 O   0  0  0  0  0  0  0  0  0  0  0  0
    4.6660   -0.5190   -0.2420 O   0  0  0  0  0  0  0  0  0  0  0  0
  1  2  1  0
  2  3  1  0
  3  4  2  0
  3  5  1  0
  5  6  1  6
  5 11  1  0
  6  7  1  0
  7  8  1  0
  8  9  1  0
  8 10  1  0
 11 12  1  0
 12 13  1  0
 13 14  1  0
 14 15  1  0
M  END
