
     RDKit          3D

 26 28  0  0  0  0  0  0  0  0999 V2000
   -4.7510   -1.3000   -3.0280 C   0  0  0  0  0  0  0  0  0  0  0  0
   -4.7870   -0.9030   -1.5760 C   0  0  0  0  0  0  0  0  0  0  0  0
   -5.8720   -0.6560   -0.8620 C   0  0  0  0  0  0  0  0  0  0  0  0
   -5.5410   -0.2980    0.5120 C   0  0  0  0  0  0  0  0  0  0  0  0
   -6.3520    0.0120    1.5070 C   0  0  0  0  0  0  0  0  0  0  0  0
   -7.8140    0.0230    1.2840 C   0  0  0  0  0  0  0  0  0  0  0  0
   -5.7170    0.4090    3.0810 Cl  0  0  0  0  0  0  0  0  0  0  0  0
   -4.0640   -0.3540    0.5710 C   0  0  0  0  0  0  0  0  0  0  0  0
   -3.3630   -0.1030    1.6210 N   0  0  0  0  0  0  0  0  0  0  0  0
   -1.9530   -0.1880    1.5610 C   0  0  0  0  0  0  0  0  0  0  0  0
   -1.2810    0.8700    1.8740 N   0  0  0  0  0  0  0  0  0  0  0  0
    0.1310    0.8790    1.8430 C   0  0  0  0  0  0  0  0  0  0  0  0
    0.9350    0.5310    0.7790 C   0  0  0  0  0  0  0  0  0  0  0  0
    2.2320    0.6720    1.1450 C   0  0  0  0  0  0  0  0  0  0  0  0
    3.4150    0.4000    0.2950 C   0  0  0  0  0  0  0  0  0  0  0  0
    3.2190    0.0050   -0.8700 O   0  0  0  0  0  0  0  0  0  0  0  0
    4.7140    0.5790    0.7710 N   0  0  0  0  0  0  0  0  0  0  0  0
    5.9050    0.3530    0.0630 C   0  0  0  0  0  0  0  0  0  0  0  0
    6.0120   -0.1970   -1.1760 C   0  0  0  0  0  0  0  0  0  0  0  0
    7.2800   -0.3430   -1.7460 C   0  0  0  0  0  0  0  0  0  0  0  0
    8.4000    0.0310   -1.1320 N   0  0  0  0  0  0  0  0  0  0  0  0
    8.3360    0.5790    0.0960 C   0  0  0  0  0  0  0  0  0  0  0  0
    7.1080    0.7360    0.6820 C   0  0  0  0  0  0  0  0  0  0  0  0
    2.2330    1.1010    2.4160 N   0  0  0  0  0  0  0  0  0  0  0  0
    0.9790    1.2270    2.8400 N   0  0  0  0  0  0  0  0  0  0  0  0
   -3.6610   -0.7300   -0.7370 N   0  0  0  0  0  0  0  0  0  0  0  0
  1  2  1  0
  2  3  2  0
  2 26  1  0
  3  4  1  0
  4  5  2  3
  4  8  1  0
  5  6  1  0
  5  7  1  0
  8  9  2  3
  8 26  1  0
  9 10  1  0
 10 11  2  3
 11 12  1  0
 12 13  2  0
 12 25  1  0
 13 14  1  0
 14 15  1  0
 14 24  2  0
 15 16  2  0
 15 17  1  0
 17 18  1  0
 18 19  2  0
 18 23  1  0
 19 20  1  0
 20 21  2  0
 21 22  1  0
 22 23  2  0
 24 25  1  0
M  CHG  1  21   1
M  END
