
     RDKit          3D

 26 29  0  0  0  0  0  0  0  0999 V2000
    5.5870   -0.3670   -1.5600 C   0  0  0  0  0  0  0  0  0  0  0  0
    5.2300   -0.2850   -0.0930 C   0  0  0  0  0  0  0  0  0  0  0  0
    3.9190    0.2490    0.1300 N   0  0  0  0  0  0  0  0  0  0  0  0
    3.5330    1.6240    0.3160 C   0  0  0  0  0  0  0  0  0  0  0  0
    4.2960    2.6130    0.3150 O   0  0  0  0  0  0  0  0  0  0  0  0
    2.0780    1.6190    0.5040 C   0  0  0  0  0  0  0  0  0  0  0  0
    1.1340    2.5940    0.7280 C   0  0  0  0  0  0  0  0  0  0  0  0
   -0.2050    2.2110    0.8700 C   0  0  0  0  0  0  0  0  0  0  0  0
   -0.6070    0.9070    0.7920 C   0  0  0  0  0  0  0  0  0  0  0  0
    0.3510   -0.0730    0.5650 C   0  0  0  0  0  0  0  0  0  0  0  0
    0.0440   -1.4030    0.4760 C   0  0  0  0  0  0  0  0  0  0  0  0
   -1.5920   -1.9440    0.5910 S   0  0  2  0  0  0  0  0  0  0  0  0
   -2.1460   -1.4550    1.9060 O   0  0  0  0  0  0  0  0  0  0  0  0
   -1.6630   -3.4630    0.6780 O   0  0  0  0  0  0  0  0  0  0  0  0
   -2.5580   -1.4020   -0.7150 N   0  0  0  0  0  0  0  0  0  0  0  0
   -3.6660   -0.5110   -0.6110 C   0  0  0  0  0  0  0  0  0  0  0  0
   -3.8450    0.5450   -1.4810 C   0  0  0  0  0  0  0  0  0  0  0  0
   -4.8970    1.4220   -1.4140 C   0  0  0  0  0  0  0  0  0  0  0  0
   -5.8470    1.2480   -0.4130 C   0  0  0  0  0  0  0  0  0  0  0  0
   -6.8860    2.1070   -0.3380 F   0  0  0  0  0  0  0  0  0  0  0  0
   -5.6830    0.1900    0.4730 C   0  0  0  0  0  0  0  0  0  0  0  0
   -4.6180   -0.6730    0.3800 C   0  0  0  0  0  0  0  0  0  0  0  0
    1.1020   -2.2990    0.2510 C   0  0  0  0  0  0  0  0  0  0  0  0
    2.4090   -1.8810    0.1200 C   0  0  0  0  0  0  0  0  0  0  0  0
    2.7260   -0.5300    0.2070 C   0  0  0  0  0  0  0  0  0  0  0  0
    1.6870    0.3200    0.4260 C   0  0  0  0  0  0  0  0  0  0  0  0
  1  2  1  0
  2  3  1  0
  3  4  1  0
  3 25  1  0
  4  5  2  0
  4  6  1  0
  6  7  2  0
  6 26  1  0
  7  8  1  0
  8  9  2  0
  9 10  1  0
 10 11  2  0
 10 26  1  0
 11 12  1  0
 11 23  1  0
 12 13  2  0
 12 14  2  0
 12 15  1  6
 15 16  1  0
 16 17  2  0
 16 22  1  0
 17 18  1  0
 18 19  2  0
 19 20  1  0
 19 21  1  0
 21 22  2  0
 23 24  2  0
 24 25  1  0
 25 26  2  0
M  END
