
     RDKit          3D

 26 29  0  0  0  0  0  0  0  0999 V2000
   -4.2000    1.5200   -1.7490 C   0  0  0  0  0  0  0  0  0  0  0  0
   -3.6760    0.7590   -0.5850 C   0  0  0  0  0  0  0  0  0  0  0  0
   -4.5430    0.0070    0.1260 N   0  0  0  0  0  0  0  0  0  0  0  0
   -4.1260   -0.7070    1.1950 C   0  0  0  0  0  0  0  0  0  0  0  0
   -4.9820   -1.4860    1.9440 C   0  0  0  0  0  0  0  0  0  0  0  0
   -4.5250   -2.2140    3.0440 C   0  0  0  0  0  0  0  0  0  0  0  0
   -3.1970   -2.1700    3.4110 C   0  0  0  0  0  0  0  0  0  0  0  0
   -2.6190   -3.0890    4.7990 Cl  0  0  0  0  0  0  0  0  0  0  0  0
   -2.3490   -1.3890    2.6570 C   0  0  0  0  0  0  0  0  0  0  0  0
   -2.7990   -0.6660    1.5640 C   0  0  0  0  0  0  0  0  0  0  0  0
   -1.9610    0.1000    0.8270 N   0  0  0  0  0  0  0  0  0  0  0  0
   -2.3450    0.8190   -0.2390 C   0  0  0  0  0  0  0  0  0  0  0  0
   -1.4260    1.6160   -0.9910 N   0  0  0  0  0  0  0  0  0  0  0  0
   -0.0560    1.6870   -0.6470 C   0  0  0  0  0  0  0  0  0  0  0  0
    0.3710    1.0240    0.3590 O   0  0  0  0  0  0  0  0  0  0  0  0
    0.8300    2.5370   -1.4790 C   0  0  0  0  0  0  0  0  0  0  0  0
    2.2550    2.5290   -1.0360 C   0  0  0  0  0  0  0  0  0  0  0  0
    2.8660    1.2050   -1.0710 N   0  0  0  0  0  0  0  0  0  0  0  0
    2.8970    0.3190   -0.0970 N   0  0  0  0  0  0  0  0  0  0  0  0
    3.5540   -0.7820   -0.5050 C   0  0  0  0  0  0  0  0  0  0  0  0
    3.8180   -2.0250    0.2820 C   0  0  2  0  0  0  0  0  0  0  0  0
    2.7190   -2.5350    1.1380 C   0  0  0  0  0  0  0  0  0  0  0  0
    3.9330   -1.9000    1.7570 C   0  0  0  0  0  0  0  0  0  0  0  0
    3.9350   -0.5700   -1.7550 N   0  0  0  0  0  0  0  0  0  0  0  0
    3.5220    0.6500   -2.1260 C   0  0  0  0  0  0  0  0  0  0  0  0
    3.7350    1.2530   -3.4010 N   0  0  0  0  0  0  0  0  0  0  0  0
  1  2  1  0
  2  3  2  0
  2 12  1  0
  3  4  1  0
  4  5  2  0
  4 10  1  0
  5  6  1  0
  6  7  2  0
  7  8  1  0
  7  9  1  0
  9 10  2  0
 10 11  1  0
 11 12  2  0
 12 13  1  0
 13 14  1  0
 14 15  2  0
 14 16  1  0
 16 17  1  0
 17 18  1  0
 18 19  1  0
 18 25  1  0
 19 20  2  0
 21 20  1  6
 20 24  1  0
 21 22  1  0
 21 23  1  0
 22 23  1  0
 24 25  2  0
 25 26  1  0
M  CHG  1  24   1
M  END
