
     RDKit          3D

 26 29  0  0  0  0  0  0  0  0999 V2000
    4.5160    2.1530    0.5280 C   0  0  0  0  0  0  0  0  0  0  0  0
    4.3820    0.7210    0.9520 C   0  0  0  0  0  0  0  0  0  0  0  0
    3.8030   -0.1000   -0.1140 N   0  0  0  0  0  0  0  0  0  0  0  0
    4.4960   -0.7290   -1.0460 N   0  0  0  0  0  0  0  0  0  0  0  0
    3.6790   -1.3980   -1.8820 C   0  0  0  0  0  0  0  0  0  0  0  0
    2.4030   -1.1670   -1.4370 C   0  0  0  0  0  0  0  0  0  0  0  0
    2.5040   -0.3570   -0.3360 C   0  0  0  0  0  0  0  0  0  0  0  0
    1.3210    0.1150    0.4310 C   0  0  0  0  0  0  0  0  0  0  0  0
    0.1850   -0.7460    0.1060 N   0  0  0  0  0  0  0  0  0  0  0  0
   -1.0050   -0.2890    0.7980 C   0  0  1  0  0  0  0  0  0  0  0  0
   -1.4130    1.0630    0.3430 C   0  0  0  0  0  0  0  0  0  0  0  0
   -1.5170    1.4660   -0.9280 N   0  0  0  0  0  0  0  0  0  0  0  0
   -1.9110    2.7490   -0.9570 N   0  0  0  0  0  0  0  0  0  0  0  0
   -2.0540    3.1500    0.3130 C   0  0  0  0  0  0  0  0  0  0  0  0
   -2.4600    4.4480    0.7250 N   0  0  0  0  0  0  0  0  0  0  0  0
   -1.7500    2.1200    1.0920 N   0  0  0  0  0  0  0  0  0  0  0  0
   -2.0850   -1.2730    0.6930 C   0  0  0  0  0  0  0  0  0  0  0  0
   -3.4050   -0.7990    0.7160 C   0  0  0  0  0  0  0  0  0  0  0  0
   -4.4580   -1.6790    0.6020 C   0  0  0  0  0  0  0  0  0  0  0  0
   -6.1060   -1.0880    0.6310 Cl  0  0  0  0  0  0  0  0  0  0  0  0
   -4.2400   -3.0380    0.4650 C   0  0  0  0  0  0  0  0  0  0  0  0
   -2.9400   -3.4970    0.4430 C   0  0  0  0  0  0  0  0  0  0  0  0
   -1.8630   -2.6190    0.5570 C   0  0  0  0  0  0  0  0  0  0  0  0
   -0.5580   -3.0760    0.5390 O   0  0  0  0  0  0  0  0  0  0  0  0
    0.0490   -0.6870   -1.3330 C   0  0  0  0  0  0  0  0  0  0  0  0
    1.0810   -1.6210   -1.9260 C   0  0  0  0  0  0  0  0  0  0  0  0
  1  2  1  0
  2  3  1  0
  3  4  1  0
  3  7  1  0
  4  5  2  0
  5  6  1  0
  6  7  2  0
  6 26  1  0
  7  8  1  0
  8  9  1  0
 10  9  1  6
  9 25  1  0
 10 11  1  0
 10 17  1  0
 11 12  2  0
 11 16  1  0
 12 13  1  0
 13 14  1  0
 14 15  1  0
 14 16  2  0
 17 18  2  0
 17 23  1  0
 18 19  1  0
 19 20  1  0
 19 21  2  0
 21 22  1  0
 22 23  2  0
 23 24  1  0
 25 26  1  0
M  CHG  1  16   1
M  END
