
     RDKit          3D

 26 29  0  0  0  0  0  0  0  0999 V2000
    4.1150   -1.4990   -2.2450 C   0  0  0  0  0  0  0  0  0  0  0  0
    3.8290   -0.1370   -1.9550 O   0  0  0  0  0  0  0  0  0  0  0  0
    3.2280    0.2650   -0.7870 C   0  0  0  0  0  0  0  0  0  0  0  0
    1.8760    0.3930   -0.5830 C   0  0  0  0  0  0  0  0  0  0  0  0
    0.8250    0.1290   -1.6280 C   0  0  0  0  0  0  0  0  0  0  0  0
   -0.5160    0.1790   -1.0540 C   0  0  0  0  0  0  0  0  0  0  0  0
   -1.3650    1.2170   -1.1320 N   0  0  0  0  0  0  0  0  0  0  0  0
   -2.4890    0.9240   -0.4830 N   0  0  0  0  0  0  0  0  0  0  0  0
   -3.6250    1.7780   -0.3320 C   0  0  0  0  0  0  0  0  0  0  0  0
   -4.8760    1.4150   -0.7640 C   0  0  0  0  0  0  0  0  0  0  0  0
   -5.8930    2.2720   -0.5780 N   0  0  0  0  0  0  0  0  0  0  0  0
   -5.7320    3.4720    0.0140 C   0  0  0  0  0  0  0  0  0  0  0  0
   -4.4640    3.8200    0.4420 C   0  0  0  0  0  0  0  0  0  0  0  0
   -3.4580    2.9660    0.2560 N   0  0  0  0  0  0  0  0  0  0  0  0
   -2.3730   -0.3160    0.0220 C   0  0  0  0  0  0  0  0  0  0  0  0
   -1.1240   -0.7970   -0.3350 C   0  0  0  0  0  0  0  0  0  0  0  0
   -0.7960   -2.1760    0.1280 C   0  0  0  0  0  0  0  0  0  0  0  0
   -1.9400   -3.0800   -0.2890 C   0  0  1  0  0  0  0  0  0  0  0  0
   -1.6230   -4.6980    0.3740 Cl  0  0  0  0  0  0  0  0  0  0  0  0
   -3.2680   -2.6080    0.2190 C   0  0  0  0  0  0  0  0  0  0  0  0
   -3.2270   -1.2180    0.8150 C   0  0  0  0  0  0  0  0  0  0  0  0
    1.7270    0.8020    0.6770 N   0  0  0  0  0  0  0  0  0  0  0  0
    2.9290    0.9310    1.2580 N   0  0  0  0  0  0  0  0  0  0  0  0
    3.9030    0.6090    0.3890 C   0  0  0  0  0  0  0  0  0  0  0  0
    5.3800    0.6070    0.5990 C   0  0  0  0  0  0  0  0  0  0  0  0
    5.6200    1.0430    1.9660 N   0  0  0  0  0  0  0  0  0  0  0  0
  1  2  1  0
  2  3  1  0
  3  4  1  0
  3 24  2  0
  4  5  1  0
  4 22  2  0
  5  6  1  0
  6  7  2  0
  6 16  1  0
  7  8  1  0
  8  9  1  0
  8 15  1  0
  9 10  2  0
  9 14  1  0
 10 11  1  0
 11 12  2  0
 12 13  1  0
 13 14  2  0
 15 16  2  0
 15 21  1  0
 16 17  1  0
 17 18  1  0
 18 19  1  1
 18 20  1  0
 20 21  1  0
 22 23  1  0
 23 24  1  0
 24 25  1  0
 25 26  1  0
M  CHG  1  26   1
M  END
