
     RDKit          3D

 21 23  0  0  0  0  0  0  0  0999 V2000
    4.8800    0.3080   -1.8920 C   0  0  0  0  0  0  0  0  0  0  0  0
    4.6770    0.3680   -0.4370 C   0  0  0  0  0  0  0  0  0  0  0  0
    5.7440    0.9710    0.4210 C   0  0  0  0  0  0  0  0  0  0  0  0
    3.6370   -0.0670    0.1590 N   0  0  0  0  0  0  0  0  0  0  0  0
    2.5300   -0.6610   -0.4220 N   0  0  0  0  0  0  0  0  0  0  0  0
    1.1810   -0.2620   -0.1770 C   0  0  0  0  0  0  0  0  0  0  0  0
    0.5540    0.6510   -0.9170 N   0  0  0  0  0  0  0  0  0  0  0  0
   -0.7350    1.0570   -0.7050 C   0  0  0  0  0  0  0  0  0  0  0  0
   -1.3280    2.0770   -1.5840 C   0  0  0  0  0  0  0  0  0  0  0  0
   -1.4810    0.5290    0.3160 C   0  0  0  0  0  0  0  0  0  0  0  0
   -2.8560    0.9150    0.5910 C   0  0  0  0  0  0  0  0  0  0  0  0
   -3.9010    0.3590   -0.2490 C   0  0  0  0  0  0  0  0  0  0  0  0
   -4.5790   -0.8420   -0.1140 C   0  0  0  0  0  0  0  0  0  0  0  0
   -5.4830   -0.9620   -1.1080 N   0  0  0  0  0  0  0  0  0  0  0  0
   -5.3900    0.1250   -1.8580 N   0  0  0  0  0  0  0  0  0  0  0  0
   -4.4430    0.9450   -1.3670 C   0  0  0  0  0  0  0  0  0  0  0  0
   -0.8430   -0.4250    1.0980 C   0  0  0  0  0  0  0  0  0  0  0  0
    0.4570   -0.8270    0.8750 C   0  0  0  0  0  0  0  0  0  0  0  0
    0.8350   -1.8540    1.8830 C   0  0  0  0  0  0  0  0  0  0  0  0
   -0.5160   -2.4500    2.2190 C   0  0  0  0  0  0  0  0  0  0  0  0
   -1.3760   -1.1930    2.2790 C   0  0  0  0  0  0  0  0  0  0  0  0
  1  2  1  0
  2  3  1  0
  2  4  2  3
  4  5  1  0
  5  6  1  0
  6  7  2  0
  6 18  1  0
  7  8  1  0
  8  9  1  0
  8 10  2  0
 10 11  1  0
 10 17  1  0
 11 12  1  0
 12 13  1  0
 12 16  2  0
 13 14  2  0
 14 15  1  0
 15 16  1  0
 17 18  2  0
 17 21  1  0
 18 19  1  0
 19 20  1  0
 20 21  1  0
M  END
