
     RDKit          3D

 22 24  0  0  0  0  0  0  0  0999 V2000
    5.4180    0.1400   -1.0250 C   0  0  0  0  0  0  0  0  0  0  0  0
    4.9360   -0.2610    0.3300 C   0  0  1  0  0  0  0  0  0  0  0  0
    5.5140   -1.6110    0.6980 C   0  0  0  0  0  0  0  0  0  0  0  0
    5.4680    0.7360    1.3370 C   0  0  0  0  0  0  0  0  0  0  0  0
    3.4350   -0.3680    0.3820 C   0  0  0  0  0  0  0  0  0  0  0  0
    2.7650    0.9450    0.0460 C   0  0  0  0  0  0  0  0  0  0  0  0
    1.2790    0.7880    0.1120 C   0  0  0  0  0  0  0  0  0  0  0  0
    0.7800   -0.2000   -0.8050 N   0  0  0  0  0  0  0  0  0  0  0  0
   -0.6100   -0.4620   -0.8570 C   0  0  0  0  0  0  0  0  0  0  0  0
   -1.1150   -1.4090   -1.7320 C   0  0  0  0  0  0  0  0  0  0  0  0
   -2.4180   -1.6930   -1.8190 N   0  0  0  0  0  0  0  0  0  0  0  0
   -3.3110   -1.0410   -1.0270 C   0  0  0  0  0  0  0  0  0  0  0  0
   -2.8180   -0.1040   -0.1640 C   0  0  0  0  0  0  0  0  0  0  0  0
   -1.5040    0.1720   -0.0850 N   0  0  0  0  0  0  0  0  0  0  0  0
   -3.7210    0.6460    0.6510 N   0  0  0  0  0  0  0  0  0  0  0  0
   -3.4640    1.5790    1.6010 C   0  0  0  0  0  0  0  0  0  0  0  0
   -4.6510    1.9890    2.1480 C   0  0  0  0  0  0  0  0  0  0  0  0
   -5.6370    1.2870    1.5120 C   0  0  0  0  0  0  0  0  0  0  0  0
   -5.0320    0.4460    0.5700 C   0  0  0  0  0  0  0  0  0  0  0  0
   -5.6380   -0.4660   -0.3830 C   0  0  1  0  0  0  0  0  0  0  0  0
   -6.4520    0.3140   -1.3390 N   0  0  0  0  0  0  0  0  0  0  0  0
   -4.7390   -1.3800   -1.0810 C   0  0  0  0  0  0  0  0  0  0  0  0
  2  1  1  6
  2  3  1  0
  2  4  1  0
  2  5  1  0
  5  6  1  0
  6  7  1  0
  7  8  1  0
  8  9  1  0
  9 10  2  0
  9 14  1  0
 10 11  1  0
 11 12  2  0
 12 13  1  0
 12 22  1  0
 13 14  2  0
 13 15  1  0
 15 16  1  0
 15 19  1  0
 16 17  2  0
 17 18  1  0
 18 19  2  0
 19 20  1  0
 20 21  1  6
 20 22  1  0
M  END
