
     RDKit          3D

 10 10  0  0  0  0  0  0  0  0999 V2000
   -3.1210   -0.9080    0.0150 O   0  0  0  0  0  0  0  0  0  0  0  0
   -2.7280    0.2600    0.2800 C   0  0  0  0  0  0  0  0  0  0  0  0
   -3.6670    1.1820    0.6470 O   0  0  0  0  0  0  0  0  0  0  0  0
   -1.2680    0.5500    0.1740 C   0  0  0  0  0  0  0  0  0  0  0  0
   -0.5050   -0.6800   -0.2540 C   0  0  0  0  0  0  0  0  0  0  0  0
    0.9380   -0.3770   -0.3550 C   0  0  0  0  0  0  0  0  0  0  0  0
    1.8590   -0.5000    0.6600 C   0  0  0  0  0  0  0  0  0  0  0  0
    3.0750   -0.1120    0.1240 C   0  0  0  0  0  0  0  0  0  0  0  0
    2.8160    0.2220   -1.1830 C   0  0  0  0  0  0  0  0  0  0  0  0
    1.5370    0.0520   -1.4310 O   0  0  0  0  0  0  0  0  0  0  0  0
  1  2  2  0
  2  3  1  0
  2  4  1  0
  4  5  1  0
  5  6  1  0
  6  7  2  0
  6 10  1  0
  7  8  1  0
  8  9  2  0
  9 10  1  0
M  END
