
     RDKit          3D

 22 24  0  0  0  0  0  0  0  0999 V2000
   -5.0770   -0.0050    2.6010 C   0  0  0  0  0  0  0  0  0  0  0  0
   -4.6500    0.2650    1.3790 C   0  0  0  0  0  0  0  0  0  0  0  0
   -5.6580    0.6190    0.3420 C   0  0  0  0  0  0  0  0  0  0  0  0
   -3.1800    0.2170    1.0410 C   0  0  0  0  0  0  0  0  0  0  0  0
   -2.9590   -0.7640    0.0010 N   0  0  0  0  0  0  0  0  0  0  0  0
   -1.6640   -1.0340   -0.5270 C   0  0  0  0  0  0  0  0  0  0  0  0
   -0.5480   -0.3380   -0.0400 C   0  0  0  0  0  0  0  0  0  0  0  0
    0.7070   -0.5770   -0.5300 C   0  0  0  0  0  0  0  0  0  0  0  0
    1.9250    0.1100   -0.0710 C   0  0  0  0  0  0  0  0  0  0  0  0
    1.8940    1.0720    0.9110 C   0  0  0  0  0  0  0  0  0  0  0  0
    3.0220    1.7000    1.3260 N   0  0  0  0  0  0  0  0  0  0  0  0
    4.2110    1.4080    0.7960 C   0  0  0  0  0  0  0  0  0  0  0  0
    5.3700    2.0540    1.2240 C   0  0  0  0  0  0  0  0  0  0  0  0
    6.5760    1.7230    0.6500 C   0  0  0  0  0  0  0  0  0  0  0  0
    6.5960    0.7570   -0.3340 C   0  0  0  0  0  0  0  0  0  0  0  0
    5.4580    0.1160   -0.7610 C   0  0  0  0  0  0  0  0  0  0  0  0
    4.2240    0.4410   -0.1880 C   0  0  0  0  0  0  0  0  0  0  0  0
    3.1210   -0.1930   -0.6150 N   0  0  0  0  0  0  0  0  0  0  0  0
    0.8250   -1.5320   -1.5230 C   0  0  0  0  0  0  0  0  0  0  0  0
   -0.2520   -2.1940   -1.9830 N   0  0  0  0  0  0  0  0  0  0  0  0
   -1.5060   -1.9790   -1.5180 C   0  0  0  0  0  0  0  0  0  0  0  0
   -2.6210   -2.6920   -2.0230 N   0  0  0  0  0  0  0  0  0  0  0  0
  1  2  2  0
  2  3  1  0
  2  4  1  0
  4  5  1  0
  5  6  1  0
  6  7  2  0
  6 21  1  0
  7  8  1  0
  8  9  1  0
  8 19  2  0
  9 10  2  0
  9 18  1  0
 10 11  1  0
 11 12  2  0
 12 13  1  0
 12 17  1  0
 13 14  2  0
 14 15  1  0
 15 16  2  0
 16 17  1  0
 17 18  2  0
 19 20  1  0
 20 21  2  0
 21 22  1  0
M  END
