
     RDKit          3D

 22 24  0  0  0  0  0  0  0  0999 V2000
   -5.5560    0.7950    1.1500 C   0  0  0  0  0  0  0  0  0  0  0  0
   -4.7600   -0.2210    0.4060 C   0  0  0  0  0  0  0  0  0  0  0  0
   -5.4500   -1.2000   -0.1530 C   0  0  0  0  0  0  0  0  0  0  0  0
   -6.9480   -1.2560   -0.0270 C   0  0  0  0  0  0  0  0  0  0  0  0
   -4.7600   -2.2590   -0.9140 C   0  0  0  0  0  0  0  0  0  0  0  0
   -3.3320   -2.1010   -0.9680 N   0  0  0  0  0  0  0  0  0  0  0  0
   -2.6080   -1.0390   -0.3600 C   0  0  0  0  0  0  0  0  0  0  0  0
   -1.1730   -0.9450   -0.4570 N   0  0  0  0  0  0  0  0  0  0  0  0
   -0.6010    0.3230   -0.6850 N   0  0  0  0  0  0  0  0  0  0  0  0
    0.3560    0.8590    0.2130 C   0  0  0  0  0  0  0  0  0  0  0  0
   -0.0670    1.5640    1.2770 N   0  0  0  0  0  0  0  0  0  0  0  0
    0.7980    2.1110    2.1790 C   0  0  0  0  0  0  0  0  0  0  0  0
    2.1450    1.9000    1.9380 C   0  0  0  0  0  0  0  0  0  0  0  0
    2.5960    1.1840    0.8580 C   0  0  0  0  0  0  0  0  0  0  0  0
    4.0090    0.9720    0.6160 C   0  0  2  0  0  0  0  0  0  0  0  0
    4.4180    1.5870   -0.7200 C   0  0  0  0  0  0  0  0  0  0  0  0
    5.7890    1.0370   -1.0670 C   0  0  0  0  0  0  0  0  0  0  0  0
    5.7050   -0.4190   -1.4760 C   0  0  0  0  0  0  0  0  0  0  0  0
    4.4420   -0.9900   -0.8320 C   0  0  0  0  0  0  0  0  0  0  0  0
    4.4370   -0.4680    0.5940 C   0  0  0  0  0  0  0  0  0  0  0  0
    1.6860    0.6750    0.0110 N   0  0  0  0  0  0  0  0  0  0  0  0
   -3.3100   -0.1360    0.3020 C   0  0  0  0  0  0  0  0  0  0  0  0
  1  2  1  0
  2  3  2  0
  2 22  1  0
  3  4  1  0
  3  5  1  0
  5  6  1  0
  6  7  1  0
  7  8  1  0
  7 22  2  0
  8  9  1  0
  9 10  1  0
 10 11  2  0
 10 21  1  0
 11 12  1  0
 12 13  2  0
 13 14  1  0
 15 14  1  6
 14 21  2  0
 15 16  1  0
 15 20  1  0
 16 17  1  0
 17 18  1  0
 18 19  1  0
 19 20  1  0
M  END
