
     RDKit          3D

 22 24  0  0  0  0  0  0  0  0999 V2000
    4.5340   -1.6680   -0.9370 C   0  0  0  0  0  0  0  0  0  0  0  0
    4.5620   -0.4610   -0.3990 C   0  0  0  0  0  0  0  0  0  0  0  0
    5.6900    0.2300    0.2800 C   0  0  0  0  0  0  0  0  0  0  0  0
    5.2640    1.6300    0.1450 N   0  0  0  0  0  0  0  0  0  0  0  0
    3.8550    1.6670   -0.0610 C   0  0  0  0  0  0  0  0  0  0  0  0
    3.4070    0.4630   -0.3810 C   0  0  0  0  0  0  0  0  0  0  0  0
    2.0760    0.0520   -0.6690 N   0  0  0  0  0  0  0  0  0  0  0  0
    1.0650    0.3700    0.0540 C   0  0  0  0  0  0  0  0  0  0  0  0
    1.2750    1.1600    1.1850 N   0  0  0  0  0  0  0  0  0  0  0  0
   -0.2340   -0.1080   -0.3470 C   0  0  0  0  0  0  0  0  0  0  0  0
   -0.3590   -0.8930   -1.5100 C   0  0  0  0  0  0  0  0  0  0  0  0
   -1.5570   -1.3720   -1.9470 C   0  0  0  0  0  0  0  0  0  0  0  0
   -1.5710   -2.1940   -3.1920 C   0  0  0  0  0  0  0  0  0  0  0  0
   -2.6600   -1.0930   -1.2520 N   0  0  0  0  0  0  0  0  0  0  0  0
   -2.6460   -0.3520   -0.1290 C   0  0  0  0  0  0  0  0  0  0  0  0
   -3.8120   -0.0480    0.6170 N   0  0  0  0  0  0  0  0  0  0  0  0
   -4.4640    1.1270    0.5290 C   0  0  0  0  0  0  0  0  0  0  0  0
   -5.5590    1.1310    1.3710 C   0  0  0  0  0  0  0  0  0  0  0  0
   -5.5620   -0.0980    1.9930 C   0  0  0  0  0  0  0  0  0  0  0  0
   -4.4770   -0.8000    1.5100 C   0  0  0  0  0  0  0  0  0  0  0  0
   -1.4230    0.1340    0.3110 C   0  0  0  0  0  0  0  0  0  0  0  0
   -1.4400    0.9390    1.5470 C   0  0  0  0  0  0  0  0  0  0  0  0
  1  2  2  0
  2  3  1  0
  2  6  1  0
  3  4  1  0
  4  5  1  0
  5  6  2  0
  6  7  1  0
  7  8  2  3
  8  9  1  0
  8 10  1  0
 10 11  2  0
 10 21  1  0
 11 12  1  0
 12 13  1  0
 12 14  2  0
 14 15  1  0
 15 16  1  0
 15 21  2  0
 16 17  1  0
 16 20  1  0
 17 18  2  0
 18 19  1  0
 19 20  2  0
 21 22  1  0
M  END
