
     RDKit          3D

 22 24  0  0  0  0  0  0  0  0999 V2000
    5.4320    0.2390   -1.2070 C   0  0  0  0  0  0  0  0  0  0  0  0
    4.1040    0.0730   -1.1030 C   0  0  0  0  0  0  0  0  0  0  0  0
    3.3850   -0.9520   -1.6110 N   0  0  0  0  0  0  0  0  0  0  0  0
    2.0770   -0.8220   -1.3320 C   0  0  0  0  0  0  0  0  0  0  0  0
    0.9700   -1.7650   -1.7340 C   0  0  0  0  0  0  0  0  0  0  0  0
   -0.2460   -1.2830   -1.1620 N   0  0  0  0  0  0  0  0  0  0  0  0
   -0.4800   -1.1650    0.2340 C   0  0  0  0  0  0  0  0  0  0  0  0
    0.4450   -1.5390    1.1830 C   0  0  0  0  0  0  0  0  0  0  0  0
    0.1650   -1.4050    2.5360 C   0  0  0  0  0  0  0  0  0  0  0  0
   -1.0480   -0.8940    2.9680 C   0  0  0  0  0  0  0  0  0  0  0  0
   -1.9920   -0.5130    2.0210 C   0  0  0  0  0  0  0  0  0  0  0  0
   -3.1930   -0.0070    2.4810 C   0  0  0  0  0  0  0  0  0  0  0  0
   -4.1150    0.3660    1.5270 C   0  0  0  0  0  0  0  0  0  0  0  0
   -3.8240    0.2280    0.1880 C   0  0  0  0  0  0  0  0  0  0  0  0
   -4.7890    0.6170   -0.7900 N   0  0  0  0  0  0  0  0  0  0  0  0
   -4.5450    0.4980   -2.2100 C   0  0  0  0  0  0  0  0  0  0  0  0
   -2.6290   -0.2750   -0.2130 N   0  0  0  0  0  0  0  0  0  0  0  0
   -1.7030   -0.6500    0.6850 C   0  0  0  0  0  0  0  0  0  0  0  0
    1.9590    0.3170   -0.6260 N   0  0  0  0  0  0  0  0  0  0  0  0
    3.1890    0.8840   -0.4740 C   0  0  0  0  0  0  0  0  0  0  0  0
    3.4690    2.0000    0.1560 C   0  0  0  0  0  0  0  0  0  0  0  0
    2.3760    2.7870    0.7990 C   0  0  0  0  0  0  0  0  0  0  0  0
  1  2  2  0
  2  3  1  0
  2 20  1  0
  3  4  1  0
  4  5  1  0
  4 19  2  0
  5  6  1  0
  6  7  1  0
  7  8  2  0
  7 18  1  0
  8  9  1  0
  9 10  2  0
 10 11  1  0
 11 12  2  0
 11 18  1  0
 12 13  1  0
 13 14  2  0
 14 15  1  0
 14 17  1  0
 15 16  1  0
 17 18  2  0
 19 20  1  0
 20 21  2  3
 21 22  1  0
M  END
