
     RDKit          3D

 19 20  0  0  0  0  0  0  0  0999 V2000
   -2.9100   -2.5830   -0.4850 N   0  0  0  0  0  0  0  0  0  0  0  0
   -1.6440   -2.0360   -0.1900 C   0  0  0  0  0  0  0  0  0  0  0  0
   -0.6580   -2.7830   -0.0450 O   0  0  0  0  0  0  0  0  0  0  0  0
   -1.4490   -0.5740   -0.0450 C   0  0  2  0  0  0  0  0  0  0  0  0
   -0.0770   -0.2540    0.2550 N   0  0  0  0  0  0  0  0  0  0  0  0
    0.9800   -0.5920   -0.6090 C   0  0  0  0  0  0  0  0  0  0  0  0
    0.7200   -1.1950   -1.6810 O   0  0  0  0  0  0  0  0  0  0  0  0
    2.3770   -0.2840   -0.3350 C   0  0  0  0  0  0  0  0  0  0  0  0
    3.2950   -0.6130   -1.1510 N   0  0  0  0  0  0  0  0  0  0  0  0
    4.6520   -0.3570   -0.9670 N   0  0  0  0  0  0  0  0  0  0  0  0
    5.0590    0.3210    0.2150 C   0  0  0  0  0  0  0  0  0  0  0  0
    6.2870    0.5820    0.4370 O   0  0  0  0  0  0  0  0  0  0  0  0
    4.0590    0.6990    1.1400 N   0  0  0  0  0  0  0  0  0  0  0  0
    2.6670    0.4290    0.9380 C   0  0  0  0  0  0  0  0  0  0  0  0
   -2.3650   -0.0840    1.0570 C   0  0  0  0  0  0  0  0  0  0  0  0
   -2.3500    1.4280    1.1400 C   0  0  0  0  0  0  0  0  0  0  0  0
   -2.3420    2.0860   -0.1910 C   0  0  0  0  0  0  0  0  0  0  0  0
   -1.5610    1.4850   -1.1430 O   0  0  0  0  0  0  0  0  0  0  0  0
   -1.9270    0.1580   -1.3020 C   0  0  0  0  0  0  0  0  0  0  0  0
  1  2  1  0
  2  3  2  0
  2  4  1  0
  4  5  1  1
  4 15  1  0
  4 19  1  0
  5  6  1  0
  6  7  2  0
  6  8  1  0
  8  9  2  0
  8 14  1  0
  9 10  1  0
 10 11  1  0
 11 12  2  0
 11 13  1  0
 13 14  1  0
 15 16  1  0
 16 17  1  0
 17 18  1  0
 18 19  1  0
M  END
