
     RDKit          3D

 19 20  0  0  0  0  0  0  0  0999 V2000
    4.4060   -0.4220    0.2670 C   0  0  0  0  0  0  0  0  0  0  0  0
    3.0620   -0.1080    0.7180 N   0  0  0  0  0  0  0  0  0  0  0  0
    2.6780    0.9850    1.5430 C   0  0  0  0  0  0  0  0  0  0  0  0
    1.5700    0.7310    2.1470 N   0  0  0  0  0  0  0  0  0  0  0  0
    1.1150   -0.5840    1.7610 C   0  0  0  0  0  0  0  0  0  0  0  0
    0.3350   -1.3360    2.3670 O   0  0  0  0  0  0  0  0  0  0  0  0
    1.8230   -0.8080    0.4450 C   0  0  1  0  0  0  0  0  0  0  0  0
    1.0630    0.0560   -0.5490 C   0  0  0  0  0  0  0  0  0  0  0  0
   -0.2060   -0.4890   -0.9380 C   0  0  0  0  0  0  0  0  0  0  0  0
   -0.1880   -1.6680   -1.4380 O   0  0  0  0  0  0  0  0  0  0  0  0
   -1.4960    0.1500   -0.8230 C   0  0  0  0  0  0  0  0  0  0  0  0
   -2.6520   -0.5200   -1.2740 C   0  0  0  0  0  0  0  0  0  0  0  0
   -2.4450   -1.8060   -1.8470 N   0  0  0  0  0  0  0  0  0  0  0  0
   -3.8870    0.0020   -1.1870 N   0  0  0  0  0  0  0  0  0  0  0  0
   -4.0590    1.2060   -0.6540 C   0  0  0  0  0  0  0  0  0  0  0  0
   -5.2150    1.7090   -0.5650 O   0  0  0  0  0  0  0  0  0  0  0  0
   -2.9930    1.8820   -0.2120 N   0  0  0  0  0  0  0  0  0  0  0  0
   -1.7200    1.3960   -0.2780 C   0  0  0  0  0  0  0  0  0  0  0  0
   -0.7810    2.0950    0.1600 O   0  0  0  0  0  0  0  0  0  0  0  0
  1  2  1  0
  2  3  1  0
  2  7  1  0
  3  4  2  0
  4  5  1  0
  5  6  2  0
  5  7  1  0
  7  8  1  6
  8  9  1  0
  9 10  2  0
  9 11  1  0
 11 12  2  0
 11 18  1  0
 12 13  1  0
 12 14  1  0
 14 15  1  0
 15 16  2  0
 15 17  1  0
 17 18  1  0
 18 19  2  0
M  END
