
     RDKit          3D

 26 26  0  0  0  0  0  0  0  0999 V2000
   -4.5750    0.4010   -0.8690 C   0  0  0  0  0  0  0  0  0  0  0  0
   -3.2530   -0.3410   -0.5260 C   0  0  1  0  0  0  0  0  0  0  0  0
   -3.7100   -1.5380    0.2310 C   0  0  0  0  0  0  0  0  0  0  0  0
   -4.9240   -1.6560    0.6280 O   0  0  0  0  0  0  0  0  0  0  0  0
   -2.8140   -2.5590    0.5210 O   0  0  0  0  0  0  0  0  0  0  0  0
   -2.6340   -0.7340   -1.8140 C   0  0  0  0  0  0  0  0  0  0  0  0
   -1.4140   -1.1180   -2.0580 C   0  0  0  0  0  0  0  0  0  0  0  0
   -1.0880   -1.4390   -3.4080 O   0  0  0  0  0  0  0  0  0  0  0  0
   -0.2790   -1.2790   -1.1290 C   0  0  0  0  0  0  0  0  0  0  0  0
    0.6770   -0.3280   -1.4320 O   0  0  0  0  0  0  0  0  0  0  0  0
    1.6120   -0.1110   -0.4610 C   0  0  2  0  0  0  0  0  0  0  0  0
    2.5170   -1.2430   -0.1470 C   0  0  1  0  0  0  0  0  0  0  0  0
    3.2810   -1.6880   -1.1980 O   0  0  0  0  0  0  0  0  0  0  0  0
    3.4720   -0.7890    0.9410 C   0  0  0  0  0  0  0  0  0  0  0  0
    4.3230    0.2890    0.4320 N   0  0  0  0  0  0  0  0  0  0  0  0
    5.3080    0.8910    1.2610 C   0  0  0  0  0  0  0  0  0  0  0  0
    5.4220    0.4580    2.4570 O   0  0  0  0  0  0  0  0  0  0  0  0
    6.1410    1.9200    0.8190 O   0  0  0  0  0  0  0  0  0  0  0  0
    0.9310    0.2250    0.7320 O   0  0  0  0  0  0  0  0  0  0  0  0
    0.7250    1.5780    0.8360 C   0  0  0  0  0  0  0  0  0  0  0  0
   -0.3120    1.9190    1.8340 C   0  0  0  0  0  0  0  0  0  0  0  0
   -0.3600    3.1270    2.2110 O   0  0  0  0  0  0  0  0  0  0  0  0
   -1.1470    0.9630    2.2980 O   0  0  0  0  0  0  0  0  0  0  0  0
   -2.1570    0.2260    1.6820 C   0  0  0  0  0  0  0  0  0  0  0  0
   -2.4240    0.6030    0.2700 C   0  0  2  0  0  0  0  0  0  0  0  0
   -3.1090    1.8500    0.3170 O   0  0  0  0  0  0  0  0  0  0  0  0
  2  1  1  6
  2  3  1  0
  2  6  1  0
  2 25  1  0
  3  4  2  0
  3  5  1  0
  6  7  2  0
  7  8  1  0
  7  9  1  0
  9 10  1  0
 11 10  1  6
 11 12  1  0
 11 19  1  0
 12 13  1  6
 12 14  1  0
 14 15  1  0
 15 16  1  0
 16 17  2  0
 16 18  1  0
 19 20  1  0
 20 21  1  0
 21 22  2  0
 21 23  1  0
 23 24  1  0
 24 25  1  0
 25 26  1  1
M  CHG  1   5  -1
M  END
