
     RDKit          3D

 25 26  0  0  0  0  0  0  0  0999 V2000
    1.0090   -2.1900   -1.5270 C   0  0  0  0  0  0  0  0  0  0  0  0
    0.8420   -0.9880   -0.6330 C   0  0  2  0  0  0  0  0  0  0  0  0
    0.7810    0.2110   -1.2890 O   0  0  0  0  0  0  0  0  0  0  0  0
    1.8710    0.5150   -2.0490 C   0  0  0  0  0  0  0  0  0  0  0  0
    3.0820    0.1130   -1.5720 O   0  0  0  0  0  0  0  0  0  0  0  0
    3.1230   -0.0560   -0.1900 C   0  0  1  0  0  0  0  0  0  0  0  0
    3.2940    1.2740    0.4760 C   0  0  0  0  0  0  0  0  0  0  0  0
    4.5360    1.8320    0.0090 O   0  0  0  0  0  0  0  0  0  0  0  0
    4.9530    3.0900    0.4760 C   0  0  0  0  0  0  0  0  0  0  0  0
    4.1840    3.6540    1.2960 O   0  0  0  0  0  0  0  0  0  0  0  0
    6.1260    3.6860    0.0760 O   0  0  0  0  0  0  0  0  0  0  0  0
    2.0470   -0.9230    0.3210 C   0  0  2  0  0  0  0  0  0  0  0  0
    2.5110   -2.3330    0.7220 C   0  0  0  0  0  0  0  0  0  0  0  0
    1.0910   -0.4230    1.3480 C   0  0  1  0  0  0  0  0  0  0  0  0
    0.8350    0.9740    1.4010 N   0  0  0  0  0  0  0  0  0  0  0  0
    0.0090   -1.1840    0.5890 C   0  0  1  0  0  0  0  0  0  0  0  0
   -1.2690   -0.4930    0.6950 C   0  0  0  0  0  0  0  0  0  0  0  0
   -1.4590    0.2600    1.6850 O   0  0  0  0  0  0  0  0  0  0  0  0
   -2.2990   -0.6300   -0.2570 O   0  0  0  0  0  0  0  0  0  0  0  0
   -3.4750    0.0900   -0.0290 C   0  0  0  0  0  0  0  0  0  0  0  0
   -4.5230   -0.0960   -1.0670 C   0  0  2  0  0  0  0  0  0  0  0  0
   -4.9340   -1.4190   -1.1920 O   0  0  0  0  0  0  0  0  0  0  0  0
   -4.1490    0.4620   -2.2880 O   0  0  0  0  0  0  0  0  0  0  0  0
   -5.7600    0.6860   -0.6090 C   0  0  0  0  0  0  0  0  0  0  0  0
   -5.4740    2.0320   -0.4480 O   0  0  0  0  0  0  0  0  0  0  0  0
  2  1  1  6
  2  3  1  0
  2 12  1  0
  2 16  1  0
  3  4  1  0
  4  5  1  0
  5  6  1  0
  6  7  1  1
  6 12  1  0
  7  8  1  0
  8  9  1  0
  9 10  2  0
  9 11  1  0
 12 13  1  1
 12 14  1  0
 14 15  1  6
 14 16  1  0
 16 17  1  6
 17 18  2  0
 17 19  1  0
 19 20  1  0
 20 21  1  0
 21 22  1  6
 21 23  1  0
 21 24  1  0
 24 25  1  0
M  CHG  1  11  -1
M  END
