
     RDKit          3D

 19 20  0  0  0  0  0  0  0  0999 V2000
   -1.8410    0.7900   -1.0290 C   0  0  0  0  0  0  0  0  0  0  0  0
   -1.3240   -0.1610   -0.0070 C   0  0  1  0  0  0  0  0  0  0  0  0
    0.1850   -0.1380   -0.0220 C   0  0  0  0  0  0  0  0  0  0  0  0
    0.7530    1.1830    0.2760 C   0  0  0  0  0  0  0  0  0  0  0  0
    0.0090    2.1990    0.5040 O   0  0  0  0  0  0  0  0  0  0  0  0
    2.1150    1.4340    0.3320 N   0  0  0  0  0  0  0  0  0  0  0  0
    3.1490    0.7980    0.0870 C   0  0  0  0  0  0  0  0  0  0  0  0
    4.4020    1.3340    0.2460 N   0  0  0  0  0  0  0  0  0  0  0  0
    5.2850    0.4430   -0.0860 N   0  0  0  0  0  0  0  0  0  0  0  0
    4.6810   -0.6920   -0.4680 C   0  0  0  0  0  0  0  0  0  0  0  0
    5.1700   -1.7740   -0.8570 O   0  0  0  0  0  0  0  0  0  0  0  0
    3.3390   -0.4430   -0.3510 N   0  0  0  0  0  0  0  0  0  0  0  0
   -1.9240    0.1190    1.3280 C   0  0  0  0  0  0  0  0  0  0  0  0
   -3.4280    0.2330    1.1430 C   0  0  0  0  0  0  0  0  0  0  0  0
   -3.9670   -0.8750    0.3850 N   0  0  0  0  0  0  0  0  0  0  0  0
   -3.1620   -1.8520   -0.2440 C   0  0  0  0  0  0  0  0  0  0  0  0
   -3.6020   -2.9330   -0.6600 O   0  0  0  0  0  0  0  0  0  0  0  0
   -1.7300   -1.5470   -0.4000 C   0  0  0  0  0  0  0  0  0  0  0  0
   -0.9430   -2.4030   -0.8320 O   0  0  0  0  0  0  0  0  0  0  0  0
  2  1  1  6
  2  3  1  0
  2 13  1  0
  2 18  1  0
  3  4  1  0
  4  5  2  0
  4  6  1  0
  6  7  2  3
  7  8  1  0
  7 12  1  0
  8  9  1  0
  9 10  1  0
 10 11  2  0
 10 12  1  0
 13 14  1  0
 14 15  1  0
 15 16  1  0
 16 17  2  0
 16 18  1  0
 18 19  2  0
M  END
