
     RDKit          3D

 25 26  0  0  0  0  0  0  0  0999 V2000
   -4.2080    2.0570    0.9120 N   0  0  0  0  0  0  0  0  0  0  0  0
   -5.1630    1.0220    0.7690 C   0  0  0  0  0  0  0  0  0  0  0  0
   -6.3790    1.3300    0.7850 O   0  0  0  0  0  0  0  0  0  0  0  0
   -4.6890   -0.3730    0.6070 C   0  0  1  0  0  0  0  0  0  0  0  0
   -5.3680   -0.9640   -0.5800 C   0  0  0  0  0  0  0  0  0  0  0  0
   -4.7100   -0.7910   -1.7720 O   0  0  0  0  0  0  0  0  0  0  0  0
   -3.3920   -1.2640   -1.5840 C   0  0  0  0  0  0  0  0  0  0  0  0
   -2.7350   -0.2810   -0.6340 C   0  0  2  0  0  0  0  0  0  0  0  0
   -1.2540   -0.5260   -0.5180 C   0  0  0  0  0  0  0  0  0  0  0  0
   -0.5860    0.4430    0.4260 C   0  0  1  0  0  0  0  0  0  0  0  0
    0.8740    0.2380    0.6140 C   0  0  0  0  0  0  0  0  0  0  0  0
    1.7400    0.3440   -0.5810 C   0  0  2  0  0  0  0  0  0  0  0  0
    1.4670   -0.5630   -1.5980 O   0  0  0  0  0  0  0  0  0  0  0  0
    3.2080    0.2160   -0.2850 C   0  0  1  0  0  0  0  0  0  0  0  0
    3.9950    0.5020   -1.3970 O   0  0  0  0  0  0  0  0  0  0  0  0
    3.7050    1.0660    0.8400 C   0  0  0  0  0  0  0  0  0  0  0  0
    4.9800    0.4750    1.0350 O   0  0  0  0  0  0  0  0  0  0  0  0
    4.7900   -0.8800    0.7800 C   0  0  2  0  0  0  0  0  0  0  0  0
    5.9460   -1.3990   -0.0820 C   0  0  0  0  0  0  0  0  0  0  0  0
    7.1590   -1.2250    0.5780 O   0  0  0  0  0  0  0  0  0  0  0  0
    3.5840   -1.0540    0.1490 O   0  0  0  0  0  0  0  0  0  0  0  0
   -0.9100    1.8680    0.1250 C   0  0  0  0  0  0  0  0  0  0  0  0
   -1.2760    2.3080   -0.9820 O   0  0  0  0  0  0  0  0  0  0  0  0
   -0.8000    2.8070    1.1620 O   0  0  0  0  0  0  0  0  0  0  0  0
   -3.3250   -0.4850    0.6170 O   0  0  0  0  0  0  0  0  0  0  0  0
  1  2  1  0
  2  3  2  0
  4  2  1  6
  4  5  1  0
  4 25  1  0
  5  6  1  0
  6  7  1  0
  7  8  1  0
  8  9  1  1
  8 25  1  0
 10  9  1  6
 10 11  1  0
 10 22  1  0
 11 12  1  0
 12 13  1  6
 12 14  1  0
 14 15  1  6
 14 16  1  0
 14 21  1  0
 16 17  1  0
 17 18  1  0
 18 19  1  6
 18 21  1  0
 19 20  1  0
 22 23  2  0
 22 24  1  0
M  CHG  1  24  -1
M  END
