
     RDKit          3D

 24 27  0  0  0  0  0  0  0  0999 V2000
    0.2830   -4.9800    1.3170 Cl  0  0  0  0  0  0  0  0  0  0  0  0
    0.7760   -3.3470    0.9690 C   0  0  0  0  0  0  0  0  0  0  0  0
   -0.1840   -2.3590    0.8900 C   0  0  0  0  0  0  0  0  0  0  0  0
    0.2000   -1.0650    0.6140 C   0  0  0  0  0  0  0  0  0  0  0  0
   -0.7360   -0.0650    0.5470 C   0  0  0  0  0  0  0  0  0  0  0  0
   -2.1260   -0.2740    0.7320 N   0  0  0  0  0  0  0  0  0  0  0  0
   -3.0700    0.8390    0.6480 C   0  0  1  0  0  0  0  0  0  0  0  0
   -3.0020    1.4850   -0.7160 C   0  0  0  0  0  0  0  0  0  0  0  0
   -4.1810    0.9910   -1.5040 C   0  0  0  0  0  0  0  0  0  0  0  0
   -5.0570    0.2210   -0.5760 C   0  0  0  0  0  0  0  0  0  0  0  0
   -4.4610    0.2870    0.7920 C   0  0  0  0  0  0  0  0  0  0  0  0
   -0.2750    1.1940    0.2860 N   0  0  0  0  0  0  0  0  0  0  0  0
    0.9950    1.4450    0.1060 N   0  0  0  0  0  0  0  0  0  0  0  0
    1.9600    0.4930    0.1600 C   0  0  0  0  0  0  0  0  0  0  0  0
    3.3530    0.8480   -0.0440 C   0  0  0  0  0  0  0  0  0  0  0  0
    3.9010    1.8460    0.7250 C   0  0  0  0  0  0  0  0  0  0  0  0
    5.2120    2.2640    0.5520 C   0  0  0  0  0  0  0  0  0  0  0  0
    5.9800    1.6760   -0.4010 N   0  0  0  0  0  0  0  0  0  0  0  0
    5.4780    0.7030   -1.1670 C   0  0  0  0  0  0  0  0  0  0  0  0
    4.1550    0.2760   -0.9980 C   0  0  0  0  0  0  0  0  0  0  0  0
    1.5710   -0.7970    0.4210 C   0  0  0  0  0  0  0  0  0  0  0  0
    2.5290   -1.7850    0.5020 C   0  0  0  0  0  0  0  0  0  0  0  0
    2.1040   -3.0730    0.7800 C   0  0  0  0  0  0  0  0  0  0  0  0
    3.3390   -4.3180    0.8770 Cl  0  0  0  0  0  0  0  0  0  0  0  0
  1  2  1  0
  2  3  2  0
  2 23  1  0
  3  4  1  0
  4  5  2  0
  4 21  1  0
  5  6  1  0
  5 12  1  0
  7  6  1  6
  7  8  1  0
  7 11  1  0
  8  9  1  0
  9 10  1  0
 10 11  1  0
 12 13  2  0
 13 14  1  0
 14 15  1  0
 14 21  2  0
 15 16  2  0
 15 20  1  0
 16 17  1  0
 17 18  2  0
 18 19  1  0
 19 20  2  0
 21 22  1  0
 22 23  2  0
 23 24  1  0
M  END
