
     RDKit          3D

 19 20  0  0  0  0  0  0  0  0999 V2000
   -0.2840    2.3620   -2.2810 N   0  0  0  0  0  0  0  0  0  0  0  0
   -0.2840    1.5800   -1.0290 C   0  0  0  0  0  0  0  0  0  0  0  0
    0.7480    1.8480   -0.3560 N   0  0  0  0  0  0  0  0  0  0  0  0
    1.3670    1.5300    0.8170 C   0  0  0  0  0  0  0  0  0  0  0  0
    1.1910    1.9610    1.9980 O   0  0  0  0  0  0  0  0  0  0  0  0
    2.3760    0.5700    0.7650 O   0  0  0  0  0  0  0  0  0  0  0  0
    3.1410    0.2190   -0.3390 C   0  0  0  0  0  0  0  0  0  0  0  0
    2.2600   -0.0350   -1.5100 C   0  0  0  0  0  0  0  0  0  0  0  0
    2.4300    0.7590   -2.5080 O   0  0  0  0  0  0  0  0  0  0  0  0
    1.2850   -1.0640   -1.5780 N   0  0  0  0  0  0  0  0  0  0  0  0
    0.9180   -1.9560   -0.5730 N   0  0  0  0  0  0  0  0  0  0  0  0
    0.3330   -1.6960    0.6720 C   0  0  0  0  0  0  0  0  0  0  0  0
    1.0710   -2.0180    1.6840 O   0  0  0  0  0  0  0  0  0  0  0  0
   -0.9860   -1.1220    1.0490 C   0  0  0  0  0  0  0  0  0  0  0  0
   -1.7110   -1.5580    2.1190 C   0  0  0  0  0  0  0  0  0  0  0  0
   -2.9610   -0.8100    2.2360 C   0  0  0  0  0  0  0  0  0  0  0  0
   -2.8590    0.0980    1.0960 C   0  0  0  0  0  0  0  0  0  0  0  0
   -1.7030   -0.0790    0.4000 C   0  0  0  0  0  0  0  0  0  0  0  0
   -1.3440    0.6980   -0.7710 N   0  0  0  0  0  0  0  0  0  0  0  0
  1  2  1  0
  2  3  2  0
  2 19  1  0
  3  4  1  0
  4  5  2  0
  4  6  1  0
  6  7  1  0
  7  8  1  0
  8  9  2  0
  8 10  1  0
 10 11  1  0
 11 12  1  0
 12 13  2  0
 12 14  1  0
 14 15  2  0
 14 18  1  0
 15 16  1  0
 16 17  1  0
 17 18  2  0
 18 19  1  0
M  END
