
     RDKit          3D

 25 28  0  0  0  0  0  0  0  0999 V2000
    5.9320   -1.8110   -0.1010 C   0  0  0  0  0  0  0  0  0  0  0  0
    4.8100   -0.9120    0.3120 C   0  0  0  0  0  0  0  0  0  0  0  0
    4.7220   -0.5290    1.6350 C   0  0  0  0  0  0  0  0  0  0  0  0
    3.6740    0.3100    2.0210 C   0  0  0  0  0  0  0  0  0  0  0  0
    3.2920    0.8650    3.1850 N   0  0  0  0  0  0  0  0  0  0  0  0
    2.1840    1.6110    3.0060 C   0  0  0  0  0  0  0  0  0  0  0  0
    1.8320    1.5430    1.6890 C   0  0  0  0  0  0  0  0  0  0  0  0
    0.6970    2.1860    1.0030 C   0  0  0  0  0  0  0  0  0  0  0  0
   -0.4360    1.2630    0.6870 C   0  0  0  0  0  0  0  0  0  0  0  0
   -1.6870    2.2580   -0.1360 S   0  0  1  0  0  0  0  0  0  0  0  0
   -2.1100    3.4110    0.7070 O   0  0  0  0  0  0  0  0  0  0  0  0
   -1.0520    2.7510   -1.4190 O   0  0  0  0  0  0  0  0  0  0  0  0
   -3.0200    1.1890   -0.5090 C   0  0  0  0  0  0  0  0  0  0  0  0
   -4.0120    0.8580    0.2950 C   0  0  0  0  0  0  0  0  0  0  0  0
   -4.9610   -0.0380   -0.3170 C   0  0  2  0  0  0  0  0  0  0  0  0
   -5.1160   -1.4080    0.2760 C   0  0  0  0  0  0  0  0  0  0  0  0
   -5.3440   -2.3380   -0.9130 C   0  0  0  0  0  0  0  0  0  0  0  0
   -5.1850   -1.4760   -2.1540 C   0  0  0  0  0  0  0  0  0  0  0  0
   -4.3340   -0.3970   -1.6060 N   0  0  0  0  0  0  0  0  0  0  0  0
   -3.1980    0.4150   -1.7290 C   0  0  0  0  0  0  0  0  0  0  0  0
   -2.4380    0.4720   -2.7440 O   0  0  0  0  0  0  0  0  0  0  0  0
    2.7760    0.7200    1.0720 C   0  0  0  0  0  0  0  0  0  0  0  0
    2.8690    0.3340   -0.2510 C   0  0  0  0  0  0  0  0  0  0  0  0
    3.9090   -0.4980   -0.6260 C   0  0  0  0  0  0  0  0  0  0  0  0
    4.0590   -0.9510   -2.0530 C   0  0  0  0  0  0  0  0  0  0  0  0
  1  2  1  0
  2  3  2  0
  2 24  1  0
  3  4  1  0
  4  5  1  0
  4 22  2  0
  5  6  1  0
  6  7  2  0
  7  8  1  0
  7 22  1  0
  8  9  1  0
 10  9  1  1
 10 11  2  0
 10 12  2  0
 10 13  1  0
 13 14  2  0
 13 20  1  0
 14 15  1  0
 15 16  1  1
 15 19  1  0
 16 17  1  0
 17 18  1  0
 18 19  1  0
 19 20  1  0
 20 21  2  0
 22 23  1  0
 23 24  2  0
 24 25  1  0
M  END
