
     RDKit          3D

 25 28  0  0  0  0  0  0  0  0999 V2000
    4.6140    2.6640    1.1940 C   0  0  0  0  0  0  0  0  0  0  0  0
    3.7830    1.8570    0.2170 C   0  0  0  0  0  0  0  0  0  0  0  0
    3.3180    0.6090    0.9290 C   0  0  0  0  0  0  0  0  0  0  0  0
    2.4670   -0.2630    0.0080 C   0  0  1  0  0  0  0  0  0  0  0  0
    3.3500   -0.6270   -1.1680 C   0  0  0  0  0  0  0  0  0  0  0  0
    3.5060    0.1290   -2.1480 O   0  0  0  0  0  0  0  0  0  0  0  0
    3.9950   -1.8890   -1.0900 N   0  0  0  0  0  0  0  0  0  0  0  0
    4.3120   -2.4300    0.1940 C   0  0  0  0  0  0  0  0  0  0  0  0
    3.1700   -2.3460    1.1430 C   0  0  0  0  0  0  0  0  0  0  0  0
    2.0750   -1.4760    0.6450 N   0  0  0  0  0  0  0  0  0  0  0  0
    0.7930   -1.9200    0.8430 C   0  0  0  0  0  0  0  0  0  0  0  0
    0.6580   -3.0500    1.4400 O   0  0  0  0  0  0  0  0  0  0  0  0
   -0.4460   -1.2290    0.4390 C   0  0  0  0  0  0  0  0  0  0  0  0
   -1.7580   -1.6180    0.6040 C   0  0  0  0  0  0  0  0  0  0  0  0
   -2.7080   -0.7950    0.1420 C   0  0  0  0  0  0  0  0  0  0  0  0
   -2.3720    0.3620   -0.4590 C   0  0  0  0  0  0  0  0  0  0  0  0
   -0.6250    0.3340   -0.3910 S   0  0  0  0  0  0  0  0  0  0  0  0
   -3.0220    1.5040   -1.0840 C   0  0  0  0  0  0  0  0  0  0  0  0
   -4.4520    1.6120   -0.8590 C   0  0  0  0  0  0  0  0  0  0  0  0
   -5.2990    2.4880   -1.5650 C   0  0  0  0  0  0  0  0  0  0  0  0
   -6.5000    2.3240   -1.1070 O   0  0  0  0  0  0  0  0  0  0  0  0
   -6.5530    1.4340   -0.1720 C   0  0  0  0  0  0  0  0  0  0  0  0
   -5.2610    0.9450    0.0250 C   0  0  0  0  0  0  0  0  0  0  0  0
   -4.9190   -0.0860    1.0080 C   0  0  0  0  0  0  0  0  0  0  0  0
   -4.1680   -1.2020    0.3150 C   0  0  0  0  0  0  0  0  0  0  0  0
  1  2  1  0
  2  3  1  0
  4  3  1  1
  4  5  1  0
  4 10  1  0
  5  6  2  0
  5  7  1  0
  7  8  1  0
  8  9  1  0
  9 10  1  0
 10 11  1  0
 11 12  2  0
 11 13  1  0
 13 14  2  0
 13 17  1  0
 14 15  1  0
 15 16  2  0
 15 25  1  0
 16 17  1  0
 16 18  1  0
 18 19  1  0
 19 20  2  0
 19 23  1  0
 20 21  1  0
 21 22  1  0
 22 23  2  0
 23 24  1  0
 24 25  1  0
M  END
