
     RDKit          3D

 25 28  0  0  0  0  0  0  0  0999 V2000
   -4.0720    2.9850    0.8430 C   0  0  0  0  0  0  0  0  0  0  0  0
   -4.1570    1.5540    0.4700 C   0  0  0  0  0  0  0  0  0  0  0  0
   -5.4050    0.9830    0.3440 C   0  0  0  0  0  0  0  0  0  0  0  0
   -5.5830   -0.3540   -0.0040 C   0  0  0  0  0  0  0  0  0  0  0  0
   -4.4470   -1.0990   -0.2200 C   0  0  0  0  0  0  0  0  0  0  0  0
   -3.1840   -0.5060   -0.0870 C   0  0  0  0  0  0  0  0  0  0  0  0
   -3.0170    0.8100    0.2540 C   0  0  0  0  0  0  0  0  0  0  0  0
   -1.6870    1.4610    0.4040 C   0  0  0  0  0  0  0  0  0  0  0  0
   -0.6370    0.5530    0.1450 O   0  0  0  0  0  0  0  0  0  0  0  0
    0.6940    0.8900    0.2100 C   0  0  0  0  0  0  0  0  0  0  0  0
    0.9620    2.0690    0.5170 O   0  0  0  0  0  0  0  0  0  0  0  0
    1.7550   -0.1140   -0.0750 C   0  0  0  0  0  0  0  0  0  0  0  0
    1.4810   -1.3680   -0.3960 C   0  0  0  0  0  0  0  0  0  0  0  0
    3.1350   -2.0910   -0.6260 S   0  0  0  0  0  0  0  0  0  0  0  0
    3.9650   -0.4780   -0.2240 C   0  0  0  0  0  0  0  0  0  0  0  0
    5.4030   -0.3960   -0.2400 N   0  0  0  0  0  0  0  0  0  0  0  0
    6.3590   -1.3600   -0.6890 C   0  0  0  0  0  0  0  0  0  0  0  0
    7.6160   -0.5160   -0.9400 C   0  0  0  0  0  0  0  0  0  0  0  0
    7.4990    0.5800    0.0660 C   0  0  0  0  0  0  0  0  0  0  0  0
    6.0550    0.7720    0.2390 C   0  0  0  0  0  0  0  0  0  0  0  0
    5.5320    1.8160    0.7330 O   0  0  0  0  0  0  0  0  0  0  0  0
    3.0350    0.2050   -0.0230 N   0  0  0  0  0  0  0  0  0  0  0  0
   -4.7590   -2.3470   -0.5410 C   0  0  0  0  0  0  0  0  0  0  0  0
   -6.2400   -2.4700   -0.5460 C   0  0  0  0  0  0  0  0  0  0  0  0
   -6.6640   -1.0960   -0.1780 C   0  0  0  0  0  0  0  0  0  0  0  0
  1  2  1  0
  2  3  2  0
  2  7  1  0
  3  4  1  0
  4  5  1  0
  4 25  2  0
  5  6  1  0
  5 23  2  0
  6  7  2  0
  7  8  1  0
  8  9  1  0
  9 10  1  0
 10 11  2  0
 10 12  1  0
 12 13  2  0
 12 22  1  0
 13 14  1  0
 14 15  1  0
 15 16  1  0
 15 22  2  0
 16 17  1  0
 16 20  1  0
 17 18  1  0
 18 19  1  0
 19 20  1  0
 20 21  2  0
 23 24  1  0
 24 25  1  0
M  END
