
     RDKit          3D

 25 28  0  0  0  0  0  0  0  0999 V2000
   -1.7210   -3.4170   -1.1150 C   0  0  0  0  0  0  0  0  0  0  0  0
   -1.9530   -1.9480   -1.0760 C   0  0  0  0  0  0  0  0  0  0  0  0
   -1.9220   -1.3200   -2.1510 O   0  0  0  0  0  0  0  0  0  0  0  0
   -2.2040   -1.2680    0.1440 N   0  0  0  0  0  0  0  0  0  0  0  0
   -2.4290    0.1370    0.2080 C   0  0  0  0  0  0  0  0  0  0  0  0
   -3.7240    0.6790    0.1010 C   0  0  0  0  0  0  0  0  0  0  0  0
   -3.9240    2.0120    0.1640 C   0  0  0  0  0  0  0  0  0  0  0  0
   -2.8260    2.7950    0.3330 N   0  0  0  0  0  0  0  0  0  0  0  0
   -1.5730    2.3610    0.4420 C   0  0  0  0  0  0  0  0  0  0  0  0
   -0.4960    3.2220    0.6150 C   0  0  0  0  0  0  0  0  0  0  0  0
    0.7580    2.6930    0.7180 C   0  0  0  0  0  0  0  0  0  0  0  0
    0.9460    1.3290    0.6520 C   0  0  0  0  0  0  0  0  0  0  0  0
    2.2210    0.8440    0.7610 O   0  0  0  0  0  0  0  0  0  0  0  0
    2.5490   -0.5330    0.7100 C   0  0  0  0  0  0  0  0  0  0  0  0
    4.0260   -0.6630    0.8630 C   0  0  2  0  0  0  0  0  0  0  0  0
    4.6720   -0.0910   -0.4040 C   0  0  0  0  0  0  0  0  0  0  0  0
    6.0880   -0.6550   -0.2570 C   0  0  0  0  0  0  0  0  0  0  0  0
    5.8690   -1.7820    0.7210 C   0  0  0  0  0  0  0  0  0  0  0  0
    4.4910   -1.9610    0.8310 O   0  0  0  0  0  0  0  0  0  0  0  0
   -0.0990    0.4520    0.4830 C   0  0  0  0  0  0  0  0  0  0  0  0
   -1.3700    0.9990    0.3780 C   0  0  0  0  0  0  0  0  0  0  0  0
   -5.1890    2.7710    0.0730 C   0  0  0  0  0  0  0  0  0  0  0  0
   -6.5880    1.7080   -0.1470 S   0  0  0  0  0  0  0  0  0  0  0  0
   -6.0470    0.0170   -0.1950 C   0  0  0  0  0  0  0  0  0  0  0  0
   -4.7790   -0.3040   -0.0760 C   0  0  0  0  0  0  0  0  0  0  0  0
  1  2  1  0
  2  3  2  0
  2  4  1  0
  4  5  1  0
  5  6  2  0
  5 21  1  0
  6  7  1  0
  6 25  1  0
  7  8  2  0
  7 22  1  0
  8  9  1  0
  9 10  2  0
  9 21  1  0
 10 11  1  0
 11 12  2  0
 12 13  1  0
 12 20  1  0
 13 14  1  0
 15 14  1  6
 15 16  1  0
 15 19  1  0
 16 17  1  0
 17 18  1  0
 18 19  1  0
 20 21  2  0
 22 23  1  0
 23 24  1  0
 24 25  2  0
M  END
