
     RDKit          3D

 25 28  0  0  0  0  0  0  0  0999 V2000
   -4.4980   -0.1520    1.2450 C   0  0  0  0  0  0  0  0  0  0  0  0
   -5.0070   -0.2010   -0.2010 C   0  0  2  0  0  0  0  0  0  0  0  0
   -6.4970   -0.4280   -0.2490 C   0  0  0  0  0  0  0  0  0  0  0  0
   -4.2430   -1.3560   -0.8530 C   0  0  0  0  0  0  0  0  0  0  0  0
   -2.9390   -1.4280   -0.3090 O   0  0  0  0  0  0  0  0  0  0  0  0
   -1.9360   -0.4600   -0.4070 C   0  0  0  0  0  0  0  0  0  0  0  0
   -0.6880   -0.9780   -0.1310 C   0  0  0  0  0  0  0  0  0  0  0  0
    0.4440   -0.1820   -0.1730 C   0  0  0  0  0  0  0  0  0  0  0  0
    1.7030   -0.7010    0.1040 C   0  0  0  0  0  0  0  0  0  0  0  0
    2.8290    0.0930    0.0620 C   0  0  0  0  0  0  0  0  0  0  0  0
    4.0910   -0.4390    0.3420 O   0  0  0  0  0  0  0  0  0  0  0  0
    5.2580    0.3240    0.3120 C   0  0  0  0  0  0  0  0  0  0  0  0
    6.4010   -0.4540    0.6350 C   0  0  0  0  0  0  0  0  0  0  0  0
    7.0560   -0.7870    1.8420 C   0  0  0  0  0  0  0  0  0  0  0  0
    8.0850   -1.5230    1.7820 N   0  0  0  0  0  0  0  0  0  0  0  0
    8.6350   -2.0210    0.8080 C   0  0  0  0  0  0  0  0  0  0  0  0
    7.5070   -1.3650   -0.5280 S   0  0  0  0  0  0  0  0  0  0  0  0
    2.6520    1.4200   -0.2670 C   0  0  0  0  0  0  0  0  0  0  0  0
    1.4020    1.9350   -0.5420 C   0  0  0  0  0  0  0  0  0  0  0  0
    0.2700    1.1470   -0.5020 C   0  0  0  0  0  0  0  0  0  0  0  0
   -0.9710    1.6930   -0.7830 C   0  0  0  0  0  0  0  0  0  0  0  0
   -2.0740    0.8860   -0.7350 C   0  0  0  0  0  0  0  0  0  0  0  0
   -3.3380    1.5490   -1.0450 C   0  0  0  0  0  0  0  0  0  0  0  0
   -3.2140    2.7050   -1.5160 O   0  0  0  0  0  0  0  0  0  0  0  0
   -4.6610    1.0420   -0.8780 N   0  0  0  0  0  0  0  0  0  0  0  0
  2  1  1  1
  2  3  1  0
  2  4  1  0
  2 25  1  0
  4  5  1  0
  5  6  1  0
  6  7  2  0
  6 22  1  0
  7  8  1  0
  8  9  2  0
  8 20  1  0
  9 10  1  0
 10 11  1  0
 10 18  2  0
 11 12  1  0
 12 13  1  0
 13 14  2  0
 13 17  1  0
 14 15  1  0
 15 16  2  0
 16 17  1  0
 18 19  1  0
 19 20  2  0
 20 21  1  0
 21 22  2  0
 22 23  1  0
 23 24  2  0
 23 25  1  0
M  END
