
     RDKit          3D

 15 16  0  0  0  0  0  0  0  0999 V2000
    3.6110   -0.7580   -0.6300 N   0  0  0  0  0  0  0  0  0  0  0  0
    2.1770   -0.7300   -0.7160 C   0  0  0  0  0  0  0  0  0  0  0  0
    1.6170   -0.0200    0.4940 C   0  0  1  0  0  0  0  0  0  0  0  0
    2.1030    1.3970    0.6060 C   0  0  0  0  0  0  0  0  0  0  0  0
    1.2510    2.0940    1.5290 O   0  0  0  0  0  0  0  0  0  0  0  0
   -0.0570    2.2440    1.1070 C   0  0  0  0  0  0  0  0  0  0  0  0
   -0.7950    3.1760    1.4780 O   0  0  0  0  0  0  0  0  0  0  0  0
   -0.5490    1.2290    0.1760 C   0  0  2  0  0  0  0  0  0  0  0  0
   -1.9690    0.8180    0.3680 C   0  0  0  0  0  0  0  0  0  0  0  0
   -1.9830   -0.5520   -0.2910 C   0  0  2  0  0  0  0  0  0  0  0  0
   -2.4820   -0.4030   -1.5760 O   0  0  0  0  0  0  0  0  0  0  0  0
   -2.8870   -1.5120    0.4470 C   0  0  0  0  0  0  0  0  0  0  0  0
   -4.1660   -1.0010    0.4880 O   0  0  0  0  0  0  0  0  0  0  0  0
   -0.5490   -1.0470   -0.2850 C   0  0  0  0  0  0  0  0  0  0  0  0
    0.1480   -0.0770    0.5950 C   0  0  1  0  0  0  0  0  0  0  0  0
  1  2  1  0
  3  2  1  6
  3  4  1  0
  3 15  1  0
  4  5  1  0
  5  6  1  0
  6  7  2  0
  6  8  1  0
  8  9  1  1
  8 15  1  0
  9 10  1  0
 10 11  1  6
 10 12  1  0
 10 14  1  0
 12 13  1  0
 15 14  1  6
M  CHG  1   1   1
M  END
