
     RDKit          3D

 15 16  0  0  0  0  0  0  0  0999 V2000
   -2.6260    1.0320   -0.8390 C   0  0  0  0  0  0  0  0  0  0  0  0
   -2.4570    0.1110    0.3320 C   0  0  0  0  0  0  0  0  0  0  0  0
   -1.0090   -0.2390    0.6060 C   0  0  1  0  0  0  0  0  0  0  0  0
   -1.0690   -1.1740    1.8230 C   0  0  0  0  0  0  0  0  0  0  0  0
   -1.7170   -2.3490    1.4460 O   0  0  0  0  0  0  0  0  0  0  0  0
   -0.3400   -0.9330   -0.5070 C   0  0  0  0  0  0  0  0  0  0  0  0
    0.8540   -0.2890   -1.1170 C   0  0  2  0  0  0  0  0  0  0  0  0
    0.5130    0.4610   -2.2380 O   0  0  0  0  0  0  0  0  0  0  0  0
    1.8520   -1.3310   -1.5810 C   0  0  0  0  0  0  0  0  0  0  0  0
    3.1060   -0.8370   -1.2570 O   0  0  0  0  0  0  0  0  0  0  0  0
    2.9040   -0.3270    0.0330 C   0  0  0  0  0  0  0  0  0  0  0  0
    1.6780    0.5340   -0.1850 C   0  0  1  0  0  0  0  0  0  0  0  0
    2.1030    1.7390   -0.7330 O   0  0  0  0  0  0  0  0  0  0  0  0
    1.0280    0.7640    1.1500 C   0  0  0  0  0  0  0  0  0  0  0  0
   -0.3540    1.0040    0.9270 N   0  0  0  0  0  0  0  0  0  0  0  0
  1  2  1  0
  3  2  1  6
  3  4  1  0
  3  6  1  0
  3 15  1  0
  4  5  1  0
  6  7  1  0
  7  8  1  6
  7  9  1  0
  7 12  1  0
  9 10  1  0
 10 11  1  0
 11 12  1  0
 12 13  1  6
 12 14  1  0
 14 15  1  0
M  CHG  1  15   1
M  END
