
     RDKit          3D

 15 16  0  0  0  0  0  0  0  0999 V2000
    0.1240   -2.0650   -0.6280 C   0  0  0  0  0  0  0  0  0  0  0  0
   -0.3780   -0.7080   -0.2520 C   0  0  1  0  0  0  0  0  0  0  0  0
    0.6980    0.3090   -0.2380 C   0  0  0  0  0  0  0  0  0  0  0  0
    1.8010    0.1540    0.6930 C   0  0  1  0  0  0  0  0  0  0  0  0
    2.6850   -1.0260    0.6050 C   0  0  0  0  0  0  0  0  0  0  0  0
    3.3420   -0.3580   -0.4730 O   0  0  0  0  0  0  0  0  0  0  0  0
    3.1230    0.8000    0.2870 C   0  0  1  0  0  0  0  0  0  0  0  0
    3.0510    2.0310   -0.4110 N   0  0  0  0  0  0  0  0  0  0  0  0
   -1.3910   -0.3010   -1.3260 C   0  0  0  0  0  0  0  0  0  0  0  0
   -2.7880   -0.3240   -0.7280 C   0  0  1  0  0  0  0  0  0  0  0  0
   -3.0010   -1.5880   -0.2200 O   0  0  0  0  0  0  0  0  0  0  0  0
   -2.7400    0.7120    0.4030 C   0  0  1  0  0  0  0  0  0  0  0  0
   -3.9980    0.8580    0.9810 O   0  0  0  0  0  0  0  0  0  0  0  0
   -1.7340    0.2170    1.3970 C   0  0  0  0  0  0  0  0  0  0  0  0
   -1.0030   -0.8650    0.9800 O   0  0  0  0  0  0  0  0  0  0  0  0
  2  1  1  6
  2  3  1  0
  2  9  1  0
  2 15  1  0
  4  3  1  6
  4  5  1  0
  4  7  1  0
  5  6  1  0
  6  7  1  0
  7  8  1  6
  9 10  1  0
 10 11  1  1
 10 12  1  0
 12 13  1  1
 12 14  1  0
 14 15  1  0
M  CHG  1   8   1
M  END
