
     RDKit          3D

 25 27  0  0  0  0  0  0  0  0999 V2000
    6.3590    0.9090    1.0800 N   0  0  0  0  0  0  0  0  0  0  0  0
    5.0850    0.5650    0.4690 C   0  0  0  0  0  0  0  0  0  0  0  0
    3.9920    0.9240    1.4240 C   0  0  0  0  0  0  0  0  0  0  0  0
    2.6210    0.6180    0.9100 C   0  0  0  0  0  0  0  0  0  0  0  0
    2.4910   -0.8510    0.6280 C   0  0  0  0  0  0  0  0  0  0  0  0
    1.1800   -1.1930    0.1280 N   0  0  0  0  0  0  0  0  0  0  0  0
    0.7920   -1.2210   -1.1430 C   0  0  0  0  0  0  0  0  0  0  0  0
   -0.5360   -1.5960   -1.2170 C   0  0  0  0  0  0  0  0  0  0  0  0
   -1.2860   -1.7290   -2.4670 C   0  0  0  0  0  0  0  0  0  0  0  0
   -1.9280   -0.3740   -2.7810 C   0  0  0  0  0  0  0  0  0  0  0  0
   -2.8100   -0.0480   -1.6670 N   0  0  0  0  0  0  0  0  0  0  0  0
   -2.5000    0.6210   -0.5700 N   0  0  0  0  0  0  0  0  0  0  0  0
   -3.5950    0.7050    0.2030 C   0  0  0  0  0  0  0  0  0  0  0  0
   -3.8570    1.2790    1.4420 C   0  0  0  0  0  0  0  0  0  0  0  0
   -2.4660    2.1790    2.3750 Br  0  0  0  0  0  0  0  0  0  0  0  0
   -5.1170    1.2010    1.9980 C   0  0  0  0  0  0  0  0  0  0  0  0
   -5.5210    1.9730    3.6910 Br  0  0  0  0  0  0  0  0  0  0  0  0
   -6.1400    0.5450    1.3210 C   0  0  0  0  0  0  0  0  0  0  0  0
   -7.8990    0.3940    2.0180 Br  0  0  0  0  0  0  0  0  0  0  0  0
   -5.8630   -0.0190    0.0950 C   0  0  0  0  0  0  0  0  0  0  0  0
   -7.2220   -0.9320   -0.8810 Br  0  0  0  0  0  0  0  0  0  0  0  0
   -4.6000    0.0540   -0.4730 C   0  0  0  0  0  0  0  0  0  0  0  0
   -4.0660   -0.3940   -1.6230 N   0  0  0  0  0  0  0  0  0  0  0  0
   -0.9130   -1.7880    0.0590 N   0  0  0  0  0  0  0  0  0  0  0  0
    0.1120   -1.5470    0.8450 N   0  0  0  0  0  0  0  0  0  0  0  0
  1  2  1  0
  2  3  1  0
  3  4  1  0
  4  5  1  0
  5  6  1  0
  6  7  1  0
  6 25  1  0
  7  8  2  0
  8  9  1  0
  8 24  1  0
  9 10  1  0
 10 11  1  0
 11 12  1  0
 11 23  1  0
 12 13  2  0
 13 14  1  0
 13 22  1  0
 14 15  1  0
 14 16  2  0
 16 17  1  0
 16 18  1  0
 18 19  1  0
 18 20  2  0
 20 21  1  0
 20 22  1  0
 22 23  2  0
 24 25  2  0
M  CHG  1   1   1
M  END
