
     RDKit          3D

 15 16  0  0  0  0  0  0  0  0999 V2000
   -1.6860   -1.3570   -0.3790 N   0  0  0  0  0  0  0  0  0  0  0  0
   -1.3620   -0.0650   -0.9130 C   0  0  1  0  0  0  0  0  0  0  0  0
   -2.6500    0.6730   -1.3170 C   0  0  0  0  0  0  0  0  0  0  0  0
   -3.5700    0.8660   -0.1600 C   0  0  0  0  0  0  0  0  0  0  0  0
   -2.8180    0.8090    1.0090 O   0  0  0  0  0  0  0  0  0  0  0  0
   -1.6370    1.5240    0.9120 C   0  0  0  0  0  0  0  0  0  0  0  0
   -0.6250    0.8420   -0.0020 C   0  0  1  0  0  0  0  0  0  0  0  0
    0.4940    0.2670    0.7820 C   0  0  1  0  0  0  0  0  0  0  0  0
    0.1820   -0.7630    1.6350 O   0  0  0  0  0  0  0  0  0  0  0  0
    1.7300   -0.0540   -0.0050 C   0  0  1  0  0  0  0  0  0  0  0  0
    2.0900    0.9350   -0.8900 O   0  0  0  0  0  0  0  0  0  0  0  0
    2.9420   -0.2300    0.9280 C   0  0  0  0  0  0  0  0  0  0  0  0
    3.8610   -0.9540   -0.0340 C   0  0  0  0  0  0  0  0  0  0  0  0
    3.1000   -1.5380   -1.0020 O   0  0  0  0  0  0  0  0  0  0  0  0
    1.7500   -1.3980   -0.6560 C   0  0  0  0  0  0  0  0  0  0  0  0
  2  1  1  1
  2  3  1  0
  2  7  1  0
  3  4  1  0
  4  5  1  0
  5  6  1  0
  7  6  1  1
  7  8  1  0
  8  9  1  6
  8 10  1  0
 10 11  1  6
 10 12  1  0
 10 15  1  0
 12 13  1  0
 13 14  1  0
 14 15  1  0
M  CHG  1   1   1
M  END
