
     RDKit          3D

 15 16  0  0  0  0  0  0  0  0999 V2000
    1.4160    2.5160    0.3960 O   0  0  0  0  0  0  0  0  0  0  0  0
    0.6560    1.4120   -0.0670 C   0  0  1  0  0  0  0  0  0  0  0  0
    1.6370    0.2820   -0.1880 C   0  0  0  0  0  0  0  0  0  0  0  0
    1.8100   -0.7020    0.6650 C   0  0  0  0  0  0  0  0  0  0  0  0
    2.8830   -1.5690    0.1280 C   0  0  0  0  0  0  0  0  0  0  0  0
    3.2590   -0.8900   -1.1260 C   0  0  0  0  0  0  0  0  0  0  0  0
    2.5310    0.1460   -1.2660 N   0  0  0  0  0  0  0  0  0  0  0  0
   -0.4960    1.0930    0.8590 C   0  0  1  0  0  0  0  0  0  0  0  0
   -1.2320    2.3260    1.0000 O   0  0  0  0  0  0  0  0  0  0  0  0
   -1.4630    0.2320    0.0920 C   0  0  1  0  0  0  0  0  0  0  0  0
   -1.6990    0.8490   -1.1290 O   0  0  0  0  0  0  0  0  0  0  0  0
   -1.1550   -1.2060   -0.0430 C   0  0  0  0  0  0  0  0  0  0  0  0
   -2.5580   -1.7420   -0.4040 C   0  0  0  0  0  0  0  0  0  0  0  0
   -3.4580   -0.7690   -0.0510 O   0  0  0  0  0  0  0  0  0  0  0  0
   -2.8180    0.1480    0.7830 C   0  0  0  0  0  0  0  0  0  0  0  0
  2  1  1  1
  2  3  1  0
  2  8  1  0
  3  4  2  0
  3  7  1  0
  4  5  1  0
  5  6  1  0
  6  7  2  0
  8  9  1  6
  8 10  1  0
 10 11  1  6
 10 12  1  0
 10 15  1  0
 12 13  1  0
 13 14  1  0
 14 15  1  0
M  CHG  1   7   1
M  END
