
     RDKit          3D

 15 16  0  0  0  0  0  0  0  0999 V2000
   -1.6960    2.3640    0.5060 N   0  0  0  0  0  0  0  0  0  0  0  0
   -1.2600    1.2290    1.2970 C   0  0  0  0  0  0  0  0  0  0  0  0
   -0.6920    0.1200    0.4750 C   0  0  2  0  0  0  0  0  0  0  0  0
   -1.6890   -0.4070   -0.5030 C   0  0  1  0  0  0  0  0  0  0  0  0
   -1.1050   -1.4390   -1.2420 O   0  0  0  0  0  0  0  0  0  0  0  0
   -2.9410   -0.8620    0.1710 C   0  0  0  0  0  0  0  0  0  0  0  0
   -3.8850   -1.3060   -0.7590 O   0  0  0  0  0  0  0  0  0  0  0  0
   -0.1560   -0.9370    1.4080 C   0  0  0  0  0  0  0  0  0  0  0  0
    0.8800   -1.5170    0.6650 O   0  0  0  0  0  0  0  0  0  0  0  0
    1.5970   -0.4150    0.2450 C   0  0  2  0  0  0  0  0  0  0  0  0
    2.5080   -0.7070   -0.9150 C   0  0  0  0  0  0  0  0  0  0  0  0
    3.8870   -0.4010   -0.4090 C   0  0  0  0  0  0  0  0  0  0  0  0
    3.8130   -0.3730    0.9740 O   0  0  0  0  0  0  0  0  0  0  0  0
    2.5310    0.1030    1.2940 C   0  0  0  0  0  0  0  0  0  0  0  0
    0.5810    0.5970   -0.2020 C   0  0  0  0  0  0  0  0  0  0  0  0
  1  2  1  0
  3  2  1  1
  3  4  1  0
  3  8  1  0
  3 15  1  0
  4  5  1  1
  4  6  1  0
  6  7  1  0
  8  9  1  0
  9 10  1  0
 10 11  1  6
 10 14  1  0
 10 15  1  0
 11 12  1  0
 12 13  1  0
 13 14  1  0
M  CHG  1   1   1
M  END
