
     RDKit          3D

 16 16  0  0  0  0  0  0  0  0999 V2000
    3.6410    1.3370    0.5050 N   0  0  0  0  0  0  0  0  0  0  0  0
    3.0050    0.2360    1.1610 C   0  0  0  0  0  0  0  0  0  0  0  0
    2.1560   -0.6010    0.1410 C   0  0  2  0  0  0  0  0  0  0  0  0
    3.0940   -1.1240   -0.8930 C   0  0  0  0  0  0  0  0  0  0  0  0
    2.4590   -1.8530   -1.8650 O   0  0  0  0  0  0  0  0  0  0  0  0
    1.2110    0.2230   -0.3940 O   0  0  0  0  0  0  0  0  0  0  0  0
   -0.0730    0.1050    0.0080 C   0  0  1  0  0  0  0  0  0  0  0  0
   -0.2380    0.3450    1.7840 Cl  0  0  0  0  0  0  0  0  0  0  0  0
   -0.8170    1.3200   -0.6180 C   0  0  0  0  0  0  0  0  0  0  0  0
   -2.1570    1.3650    0.0830 C   0  0  0  0  0  0  0  0  0  0  0  0
   -3.1160    0.6630   -0.7350 N   0  0  0  0  0  0  0  0  0  0  0  0
   -3.9710   -0.2190    0.0270 C   0  0  0  0  0  0  0  0  0  0  0  0
   -3.1190   -1.1290    0.8610 C   0  0  0  0  0  0  0  0  0  0  0  0
   -2.0000   -1.6240    0.1520 O   0  0  0  0  0  0  0  0  0  0  0  0
   -0.8230   -1.0710   -0.3850 C   0  0  0  0  0  0  0  0  0  0  0  0
   -0.4320   -1.7450   -1.3320 O   0  0  0  0  0  0  0  0  0  0  0  0
  1  2  1  0
  3  2  1  1
  3  4  1  0
  3  6  1  0
  4  5  1  0
  6  7  1  0
  7  8  1  1
  7  9  1  0
  7 15  1  0
  9 10  1  0
 10 11  1  0
 11 12  1  0
 12 13  1  0
 13 14  1  0
 14 15  1  0
 15 16  2  0
M  CHG  2   1   1  11   1
M  END
