
     RDKit          3D

 16 16  0  0  0  0  0  0  0  0999 V2000
    3.9650   -0.3270   -1.1320 C   0  0  0  0  0  0  0  0  0  0  0  0
    3.2200    0.4970   -0.2710 O   0  0  0  0  0  0  0  0  0  0  0  0
    2.7380   -0.2730    0.8060 C   0  0  0  0  0  0  0  0  0  0  0  0
    1.9510    0.6590    1.6910 C   0  0  0  0  0  0  0  0  0  0  0  0
    0.9220    1.2110    1.0220 O   0  0  0  0  0  0  0  0  0  0  0  0
   -0.0560    0.4320    0.5020 C   0  0  1  0  0  0  0  0  0  0  0  0
   -1.4390    0.7080    1.0330 C   0  0  0  0  0  0  0  0  0  0  0  0
   -2.2800   -0.4400    0.7210 N   0  0  2  0  0  0  0  0  0  0  0  0
   -2.0620   -1.5050    1.7130 C   0  0  0  0  0  0  0  0  0  0  0  0
   -3.2380   -2.2030    1.8530 O   0  0  0  0  0  0  0  0  0  0  0  0
   -1.9750   -1.0170   -0.5630 C   0  0  0  0  0  0  0  0  0  0  0  0
   -1.4310   -0.0070   -1.5230 C   0  0  1  0  0  0  0  0  0  0  0  0
   -2.2800    1.0820   -1.6220 O   0  0  0  0  0  0  0  0  0  0  0  0
   -2.8130    1.3220   -3.2210 Cl  0  0  0  0  0  0  0  0  0  0  0  0
   -0.0900    0.4800   -1.0340 C   0  0  1  0  0  0  0  0  0  0  0  0
    0.1080    1.8240   -1.5140 N   0  0  0  0  0  0  0  0  0  0  0  0
  1  2  1  0
  2  3  1  0
  3  4  1  0
  4  5  1  0
  6  5  1  1
  6  7  1  0
  6 15  1  0
  7  8  1  0
  8  9  1  1
  8 11  1  0
  9 10  1  0
 11 12  1  0
 12 13  1  1
 12 15  1  0
 13 14  1  0
 15 16  1  1
M  CHG  2   8   1  16   1
M  END
