
     RDKit          3D

 16 16  0  0  0  0  0  0  0  0999 V2000
   -1.7360   -2.5390    0.0470 N   0  0  0  0  0  0  0  0  0  0  0  0
   -0.8150   -1.6800    0.7250 C   0  0  0  0  0  0  0  0  0  0  0  0
   -0.2040   -0.6260   -0.1480 C   0  0  2  0  0  0  0  0  0  0  0  0
   -1.2430    0.1920   -0.7200 N   0  0  2  0  0  0  0  0  0  0  0  0
   -0.5250    1.4730   -1.7000 Cl  0  0  0  0  0  0  0  0  0  0  0  0
   -2.2950    0.6300    0.1080 C   0  0  0  0  0  0  0  0  0  0  0  0
   -2.3330    2.1040    0.1790 C   0  0  0  0  0  0  0  0  0  0  0  0
   -1.2450    2.7750    0.0140 O   0  0  0  0  0  0  0  0  0  0  0  0
   -3.4730    2.8140    0.4100 O   0  0  0  0  0  0  0  0  0  0  0  0
    0.5500   -1.2250   -1.3220 C   0  0  0  0  0  0  0  0  0  0  0  0
    2.0300   -0.9290   -1.2890 C   0  0  0  0  0  0  0  0  0  0  0  0
    2.2480    0.4320   -1.1450 O   0  0  0  0  0  0  0  0  0  0  0  0
    1.7730    0.9520    0.0290 C   0  0  2  0  0  0  0  0  0  0  0  0
    2.9590    1.0920    0.9900 C   0  0  0  0  0  0  0  0  0  0  0  0
    3.8660    1.9510    0.4120 O   0  0  0  0  0  0  0  0  0  0  0  0
    0.7420    0.1690    0.7370 C   0  0  0  0  0  0  0  0  0  0  0  0
  1  2  1  0
  3  2  1  1
  3  4  1  0
  3 10  1  0
  3 16  1  0
  4  5  1  1
  4  6  1  0
  6  7  1  0
  7  8  2  0
  7  9  1  0
 10 11  1  0
 11 12  1  0
 12 13  1  0
 13 14  1  1
 13 16  1  0
 14 15  1  0
M  CHG  2   1   1   4   1
M  END
