
     RDKit          3D

 16 16  0  0  0  0  0  0  0  0999 V2000
    0.6620    2.1270   -0.0590 C   0  0  0  0  0  0  0  0  0  0  0  0
    0.2340    0.7310   -0.4560 C   0  0  1  0  0  0  0  0  0  0  0  0
    1.3370   -0.0500   -1.1000 C   0  0  0  0  0  0  0  0  0  0  0  0
    2.5440   -0.2530   -0.2680 C   0  0  1  0  0  0  0  0  0  0  0  0
    3.3210    1.2630    0.2330 Cl  0  0  0  0  0  0  0  0  0  0  0  0
    2.4190   -1.2430    0.8450 C   0  0  0  0  0  0  0  0  0  0  0  0
    3.8020   -1.5670    1.0650 O   0  0  0  0  0  0  0  0  0  0  0  0
    4.3970   -1.5280   -0.2100 C   0  0  0  0  0  0  0  0  0  0  0  0
    5.5490   -1.9910   -0.4220 O   0  0  0  0  0  0  0  0  0  0  0  0
    3.5130   -0.9250   -1.0950 O   0  0  0  0  0  0  0  0  0  0  0  0
   -0.4080    0.0520    0.6090 N   0  0  0  0  0  0  0  0  0  0  0  0
   -1.8260    0.0620    0.6150 C   0  0  1  0  0  0  0  0  0  0  0  0
   -2.4800    1.3630    0.3240 C   0  0  0  0  0  0  0  0  0  0  0  0
   -2.4270   -0.9870   -0.2710 C   0  0  0  0  0  0  0  0  0  0  0  0
   -3.8500   -1.0650   -0.3400 N   0  0  0  0  0  0  0  0  0  0  0  0
   -1.7530   -1.7630   -0.9250 O   0  0  0  0  0  0  0  0  0  0  0  0
  2  1  1  1
  2  3  1  0
  2 11  1  0
  3  4  1  0
  4  5  1  1
  4  6  1  0
  4 10  1  0
  6  7  1  0
  7  8  1  0
  8  9  2  0
  8 10  1  0
 11 12  1  0
 12 13  1  6
 12 14  1  0
 14 15  1  0
 14 16  2  0
M  CHG  2  11   1  15   1
M  END
