
     RDKit          3D

 16 15  0  0  0  0  0  0  0  0999 V2000
   -4.0640   -2.2870   -0.4430 C   0  0  0  0  0  0  0  0  0  0  0  0
   -3.6810   -0.9030   -0.4510 O   0  0  0  0  0  0  0  0  0  0  0  0
   -2.3440   -0.5310   -0.5020 C   0  0  0  0  0  0  0  0  0  0  0  0
   -1.5040   -1.4500   -0.5390 O   0  0  0  0  0  0  0  0  0  0  0  0
   -1.8990    0.8720   -0.5130 C   0  0  1  0  0  0  0  0  0  0  0  0
   -2.5060    1.5570   -1.7590 C   0  0  0  0  0  0  0  0  0  0  0  0
   -2.6730    1.7760    0.8520 Cl  0  0  0  0  0  0  0  0  0  0  0  0
   -0.5780    1.1210   -0.5720 O   0  0  0  0  0  0  0  0  0  0  0  0
    0.2630    0.6640    0.3900 C   0  0  2  0  0  0  0  0  0  0  0  0
    0.9080    1.8290    1.1690 C   0  0  0  0  0  0  0  0  0  0  0  0
    1.6670    2.6830    0.3010 N   0  0  0  0  0  0  0  0  0  0  0  0
    1.4270   -0.0220   -0.2720 C   0  0  0  0  0  0  0  0  0  0  0  0
    2.3770   -0.5480    0.6900 N   0  0  0  0  0  0  0  0  0  0  0  0
    3.2120   -1.4960    0.0190 C   0  0  0  0  0  0  0  0  0  0  0  0
    2.5820   -2.7950   -0.2190 C   0  0  0  0  0  0  0  0  0  0  0  0
    1.4450   -3.0420    0.1270 O   0  0  0  0  0  0  0  0  0  0  0  0
  1  2  1  0
  2  3  1  0
  3  4  2  0
  3  5  1  0
  5  6  1  6
  5  7  1  0
  5  8  1  0
  8  9  1  0
  9 10  1  6
  9 12  1  0
 10 11  1  0
 12 13  1  0
 13 14  1  0
 14 15  1  0
 15 16  2  0
M  CHG  2  11   1  13   1
M  END
