
     RDKit          3D

 16 16  0  0  0  0  0  0  0  0999 V2000
    5.3520   -1.0280    0.7510 N   0  0  0  0  0  0  0  0  0  0  0  0
    4.4390   -0.4240   -0.1560 C   0  0  0  0  0  0  0  0  0  0  0  0
    4.4910   -0.6680   -1.3310 O   0  0  0  0  0  0  0  0  0  0  0  0
    3.4210    0.5140    0.3700 C   0  0  0  0  0  0  0  0  0  0  0  0
    2.5430    1.0500   -0.7670 C   0  0  0  0  0  0  0  0  0  0  0  0
    1.5910    1.9200   -0.3110 O   0  0  0  0  0  0  0  0  0  0  0  0
    0.7100    1.4120    0.6000 C   0  0  0  0  0  0  0  0  0  0  0  0
   -0.0810    0.2490    0.0700 C   0  0  2  0  0  0  0  0  0  0  0  0
   -0.8400    0.6130   -1.0640 O   0  0  0  0  0  0  0  0  0  0  0  0
   -1.5010   -0.6180   -1.2850 C   0  0  0  0  0  0  0  0  0  0  0  0
   -1.7840   -1.0530    0.1460 C   0  0  2  0  0  0  0  0  0  0  0  0
   -3.2710   -1.0320    0.4200 C   0  0  0  0  0  0  0  0  0  0  0  0
   -3.8340    0.2740    0.1510 N   0  0  0  0  0  0  0  0  0  0  0  0
   -5.1590    0.3760    0.7180 C   0  0  0  0  0  0  0  0  0  0  0  0
   -5.8660    1.9500    0.2560 Cl  0  0  0  0  0  0  0  0  0  0  0  0
   -1.1000   -0.1330    0.9380 O   0  0  0  0  0  0  0  0  0  0  0  0
  1  2  1  0
  2  3  2  0
  2  4  1  0
  4  5  1  0
  5  6  1  0
  6  7  1  0
  8  7  1  1
  8  9  1  0
  8 16  1  0
  9 10  1  0
 10 11  1  0
 11 12  1  1
 11 16  1  0
 12 13  1  0
 13 14  1  0
 14 15  1  0
M  CHG  2   1   1  13   1
M  END
