
     RDKit          3D

 22 22  0  0  0  0  0  0  0  0999 V2000
   -4.9920   -0.7680   -0.2680 O   0  0  0  0  0  0  0  0  0  0  0  0
   -4.3280   -0.0190   -1.0090 C   0  0  0  0  0  0  0  0  0  0  0  0
   -5.0800    1.0230   -1.5980 O   0  0  0  0  0  0  0  0  0  0  0  0
   -2.9170   -0.2030   -1.2410 C   0  0  0  0  0  0  0  0  0  0  0  0
   -1.9760   -0.2900   -0.1060 C   0  0  1  0  0  0  0  0  0  0  0  0
   -2.2100   -1.4120    0.8470 C   0  0  0  0  0  0  0  0  0  0  0  0
   -3.4030   -1.4380    1.5050 O   0  0  0  0  0  0  0  0  0  0  0  0
   -0.5750   -0.4720   -0.7120 C   0  0  2  0  0  0  0  0  0  0  0  0
   -0.2710   -1.7980   -0.9460 O   0  0  0  0  0  0  0  0  0  0  0  0
    0.4710    0.1850    0.1190 C   0  0  2  0  0  0  0  0  0  0  0  0
    1.6790   -0.4880   -0.0550 O   0  0  0  0  0  0  0  0  0  0  0  0
    2.6450    0.4000   -0.5800 C   0  0  2  0  0  0  0  0  0  0  0  0
    3.2390   -0.1130   -1.8470 C   0  0  0  0  0  0  0  0  0  0  0  0
    2.2690   -0.3150   -2.8450 O   0  0  0  0  0  0  0  0  0  0  0  0
    3.7080    0.5430    0.4730 C   0  0  0  0  0  0  0  0  0  0  0  0
    4.3540   -0.7740    0.8050 C   0  0  0  0  0  0  0  0  0  0  0  0
    5.3230   -0.5760    1.8150 O   0  0  0  0  0  0  0  0  0  0  0  0
    0.1960    0.2060    1.4670 O   0  0  0  0  0  0  0  0  0  0  0  0
   -0.9610    0.8260    1.8230 C   0  0  1  0  0  0  0  0  0  0  0  0
   -0.5980    2.1510    2.1880 O   0  0  0  0  0  0  0  0  0  0  0  0
   -1.9810    0.9930    0.7300 C   0  0  2  0  0  0  0  0  0  0  0  0
   -3.2210    1.1680    1.3430 O   0  0  0  0  0  0  0  0  0  0  0  0
  1  2  2  0
  2  3  1  0
  2  4  1  0
  5  4  1  6
  5  6  1  0
  5  8  1  0
  5 21  1  0
  6  7  1  0
  8  9  1  1
  8 10  1  0
 10 11  1  1
 10 18  1  0
 11 12  1  0
 12 13  1  6
 12 15  1  0
 13 14  1  0
 15 16  1  0
 16 17  1  0
 18 19  1  0
 19 20  1  6
 19 21  1  0
 21 22  1  1
M  END
