
     RDKit          3D

 22 22  0  0  0  0  0  0  0  0999 V2000
   -3.1670    2.0150    2.0450 C   0  0  0  0  0  0  0  0  0  0  0  0
   -2.0820    1.2230    2.2710 O   0  0  0  0  0  0  0  0  0  0  0  0
   -1.4370    0.7430    1.1540 C   0  0  0  0  0  0  0  0  0  0  0  0
   -2.2400   -0.1090    0.2380 C   0  0  1  0  0  0  0  0  0  0  0  0
   -3.3200    0.5890   -0.3010 O   0  0  0  0  0  0  0  0  0  0  0  0
   -1.4510   -0.8290   -0.8300 C   0  0  2  0  0  0  0  0  0  0  0  0
   -0.9070   -0.0980   -1.7990 O   0  0  0  0  0  0  0  0  0  0  0  0
    0.3420   -0.1270   -2.2210 C   0  0  0  0  0  0  0  0  0  0  0  0
    1.3760    0.2260   -1.2110 C   0  0  1  0  0  0  0  0  0  0  0  0
    1.2890    1.4790   -0.6520 O   0  0  0  0  0  0  0  0  0  0  0  0
    2.0230    1.4150    0.5520 C   0  0  2  0  0  0  0  0  0  0  0  0
    3.1530    2.4260    0.5240 C   0  0  2  0  0  0  0  0  0  0  0  0
    3.9980    2.1420   -0.5460 O   0  0  0  0  0  0  0  0  0  0  0  0
    3.7980    2.4760    1.7390 O   0  0  0  0  0  0  0  0  0  0  0  0
    2.5420   -0.0010    0.5440 C   0  0  1  0  0  0  0  0  0  0  0  0
    2.8330   -0.5680    1.8880 C   0  0  0  0  0  0  0  0  0  0  0  0
    1.7790   -0.5070    2.7590 O   0  0  0  0  0  0  0  0  0  0  0  0
    1.4770   -0.6600   -0.1240 O   0  0  0  0  0  0  0  0  0  0  0  0
   -2.3840   -1.9400   -1.3830 C   0  0  2  0  0  0  0  0  0  0  0  0
   -2.8550   -2.5930   -0.2440 O   0  0  0  0  0  0  0  0  0  0  0  0
   -1.5810   -2.9510   -2.1700 C   0  0  0  0  0  0  0  0  0  0  0  0
   -2.4240   -4.0110   -2.4980 O   0  0  0  0  0  0  0  0  0  0  0  0
  1  2  1  0
  2  3  1  0
  3  4  1  0
  4  5  1  6
  4  6  1  0
  6  7  1  6
  6 19  1  0
  7  8  1  0
  9  8  1  1
  9 10  1  0
  9 18  1  0
 11 10  1  6
 11 12  1  0
 11 15  1  0
 12 13  1  6
 12 14  1  0
 15 16  1  1
 15 18  1  0
 16 17  1  0
 19 20  1  1
 19 21  1  0
 21 22  1  0
M  END
