
     RDKit          3D

 22 22  0  0  0  0  0  0  0  0999 V2000
    3.7970    1.1800   -2.1040 O   0  0  0  0  0  0  0  0  0  0  0  0
    3.7300   -0.0780   -2.2530 C   0  0  0  0  0  0  0  0  0  0  0  0
    4.4620   -0.6340   -3.3130 O   0  0  0  0  0  0  0  0  0  0  0  0
    2.9700   -0.8670   -1.4110 O   0  0  0  0  0  0  0  0  0  0  0  0
    2.2370   -0.1790   -0.3270 C   0  0  2  0  0  0  0  0  0  0  0  0
    2.9790   -0.6790    0.8940 C   0  0  0  0  0  0  0  0  0  0  0  0
    2.6120   -0.1890    2.0940 O   0  0  0  0  0  0  0  0  0  0  0  0
    0.8130   -0.6040   -0.4350 C   0  0  0  0  0  0  0  0  0  0  0  0
   -0.2070   -0.0760    0.4880 C   0  0  1  0  0  0  0  0  0  0  0  0
    0.1410   -0.3970    1.7920 O   0  0  0  0  0  0  0  0  0  0  0  0
   -0.6160    1.3290    0.3740 C   0  0  2  0  0  0  0  0  0  0  0  0
    0.4050    2.3720    0.1160 C   0  0  0  0  0  0  0  0  0  0  0  0
   -0.3160    3.6030    0.0900 O   0  0  0  0  0  0  0  0  0  0  0  0
   -1.5100    1.7280    1.5270 C   0  0  0  0  0  0  0  0  0  0  0  0
   -2.6220    0.7070    1.5850 C   0  0  2  0  0  0  0  0  0  0  0  0
   -2.6980    0.0150    2.7780 O   0  0  0  0  0  0  0  0  0  0  0  0
   -2.6440   -0.0900    0.4530 O   0  0  0  0  0  0  0  0  0  0  0  0
   -1.5500   -0.8640    0.2260 C   0  0  2  0  0  0  0  0  0  0  0  0
   -1.5870   -1.9790    1.0380 O   0  0  0  0  0  0  0  0  0  0  0  0
   -1.5820   -1.2640   -1.2350 C   0  0  0  0  0  0  0  0  0  0  0  0
   -2.8980   -2.0180   -1.4210 C   0  0  0  0  0  0  0  0  0  0  0  0
   -3.0500   -2.4430   -2.7330 O   0  0  0  0  0  0  0  0  0  0  0  0
  1  2  2  0
  2  3  1  0
  2  4  1  0
  4  5  1  0
  5  6  1  1
  5  8  1  0
  6  7  1  0
  8  9  1  0
  9 10  1  1
  9 11  1  0
  9 18  1  0
 11 12  1  1
 11 14  1  0
 12 13  1  0
 14 15  1  0
 15 16  1  1
 15 17  1  0
 17 18  1  0
 18 19  1  1
 18 20  1  0
 20 21  1  0
 21 22  1  0
M  END
