
     RDKit          3D

 22 22  0  0  0  0  0  0  0  0999 V2000
   -5.6140    0.6300   -0.1040 C   0  0  0  0  0  0  0  0  0  0  0  0
   -4.6500   -0.3010    0.2190 O   0  0  0  0  0  0  0  0  0  0  0  0
   -3.8240   -0.7090   -0.7780 C   0  0  2  0  0  0  0  0  0  0  0  0
   -3.8560   -2.1010   -0.9630 O   0  0  0  0  0  0  0  0  0  0  0  0
   -2.3650   -0.3770   -0.3970 C   0  0  1  0  0  0  0  0  0  0  0  0
   -1.5750   -0.8850   -1.4580 O   0  0  0  0  0  0  0  0  0  0  0  0
   -2.2690    1.1130   -0.4600 C   0  0  0  0  0  0  0  0  0  0  0  0
   -2.8160    1.4700   -1.7260 O   0  0  0  0  0  0  0  0  0  0  0  0
   -2.0240   -1.0570    0.8600 C   0  0  0  0  0  0  0  0  0  0  0  0
   -0.7800   -1.0060    1.3460 O   0  0  0  0  0  0  0  0  0  0  0  0
   -0.2840    0.1850    1.7710 C   0  0  1  0  0  0  0  0  0  0  0  0
    0.0300    0.0780    3.1640 O   0  0  0  0  0  0  0  0  0  0  0  0
    1.0520    0.4730    1.0680 C   0  0  1  0  0  0  0  0  0  0  0  0
    1.4470    1.7250    1.5740 O   0  0  0  0  0  0  0  0  0  0  0  0
    2.0250   -0.6000    1.4680 C   0  0  0  0  0  0  0  0  0  0  0  0
    3.2800   -0.3300    0.9800 O   0  0  0  0  0  0  0  0  0  0  0  0
    3.2760   -0.3220   -0.3970 C   0  0  2  0  0  0  0  0  0  0  0  0
    4.2810   -1.3870   -0.8280 C   0  0  0  0  0  0  0  0  0  0  0  0
    4.9750   -0.7950   -1.9080 O   0  0  0  0  0  0  0  0  0  0  0  0
    5.2680    0.4560   -1.3690 C   0  0  0  0  0  0  0  0  0  0  0  0
    3.8960    0.9370   -0.9540 C   0  0  2  0  0  0  0  0  0  0  0  0
    4.0700    1.9400   -0.0130 O   0  0  0  0  0  0  0  0  0  0  0  0
  1  2  1  0
  2  3  1  0
  3  4  1  1
  3  5  1  0
  5  6  1  6
  5  7  1  0
  5  9  1  0
  7  8  1  0
  9 10  1  0
 10 11  1  0
 11 12  1  1
 11 13  1  0
 13 14  1  1
 13 15  1  0
 15 16  1  0
 17 16  1  1
 17 18  1  0
 17 21  1  0
 18 19  1  0
 19 20  1  0
 20 21  1  0
 21 22  1  1
M  END
