
     RDKit          3D

 22 22  0  0  0  0  0  0  0  0999 V2000
    5.4840    0.2940   -1.4400 C   0  0  0  0  0  0  0  0  0  0  0  0
    4.8580    0.1720   -0.2290 O   0  0  0  0  0  0  0  0  0  0  0  0
    3.4870   -0.1820   -0.3560 C   0  0  1  0  0  0  0  0  0  0  0  0
    3.3190   -1.3910    0.3210 O   0  0  0  0  0  0  0  0  0  0  0  0
    2.7370    0.9030    0.3280 C   0  0  2  0  0  0  0  0  0  0  0  0
    3.1520    0.9050    1.6820 O   0  0  0  0  0  0  0  0  0  0  0  0
    1.2760    0.9720    0.1580 C   0  0  0  0  0  0  0  0  0  0  0  0
    0.4690   -0.1770    0.5930 C   0  0  2  0  0  0  0  0  0  0  0  0
    0.7580   -1.3780   -0.0510 O   0  0  0  0  0  0  0  0  0  0  0  0
   -0.1500   -2.2850    0.4950 C   0  0  0  0  0  0  0  0  0  0  0  0
   -1.4360   -1.5010    0.6570 C   0  0  0  0  0  0  0  0  0  0  0  0
   -1.0000   -0.0610    0.3920 C   0  0  1  0  0  0  0  0  0  0  0  0
   -1.7020    0.7640    1.4390 C   0  0  1  0  0  0  0  0  0  0  0  0
   -1.5350    0.2300    2.7150 O   0  0  0  0  0  0  0  0  0  0  0  0
   -1.3290    2.0860    1.4560 O   0  0  0  0  0  0  0  0  0  0  0  0
   -1.4000    0.2720   -1.0000 C   0  0  1  0  0  0  0  0  0  0  0  0
   -0.9420   -0.7390   -1.8480 O   0  0  0  0  0  0  0  0  0  0  0  0
   -2.8400    0.5450   -1.2250 C   0  0  0  0  0  0  0  0  0  0  0  0
   -3.7280   -0.5030   -1.0270 O   0  0  0  0  0  0  0  0  0  0  0  0
   -5.0790   -0.2610   -1.2340 C   0  0  0  0  0  0  0  0  0  0  0  0
   -5.5000    0.8810   -1.5950 O   0  0  0  0  0  0  0  0  0  0  0  0
   -5.9890   -1.3010   -1.0400 O   0  0  0  0  0  0  0  0  0  0  0  0
  1  2  1  0
  2  3  1  0
  3  4  1  1
  3  5  1  0
  5  6  1  1
  5  7  1  0
  8  7  1  6
  8  9  1  0
  8 12  1  0
  9 10  1  0
 10 11  1  0
 12 11  1  1
 12 13  1  0
 12 16  1  0
 13 14  1  1
 13 15  1  0
 16 17  1  6
 16 18  1  0
 18 19  1  0
 19 20  1  0
 20 21  2  0
 20 22  1  0
M  END
