
     RDKit          3D

 22 22  0  0  0  0  0  0  0  0999 V2000
    3.1350   -1.4320    0.2980 O   0  0  0  0  0  0  0  0  0  0  0  0
    3.1040   -0.1910    0.3110 C   0  0  0  0  0  0  0  0  0  0  0  0
    4.2900    0.5070    0.3890 O   0  0  0  0  0  0  0  0  0  0  0  0
    5.5550   -0.1250    0.4570 C   0  0  0  0  0  0  0  0  0  0  0  0
    6.6280    0.9410    0.5330 C   0  0  0  0  0  0  0  0  0  0  0  0
    7.8620    0.2850    0.5990 O   0  0  0  0  0  0  0  0  0  0  0  0
    1.8550    0.4310    0.2430 O   0  0  0  0  0  0  0  0  0  0  0  0
    0.6530   -0.3270    0.1630 C   0  0  1  0  0  0  0  0  0  0  0  0
   -0.1350   -0.0040    1.4390 C   0  0  0  0  0  0  0  0  0  0  0  0
   -1.0650    1.1050    1.0670 C   0  0  1  0  0  0  0  0  0  0  0  0
   -0.3550    1.9940    0.2420 O   0  0  0  0  0  0  0  0  0  0  0  0
   -2.1460    0.4980    0.1280 C   0  0  2  0  0  0  0  0  0  0  0  0
   -2.8150    1.7630   -0.4420 C   0  0  0  0  0  0  0  0  0  0  0  0
   -3.8260    1.4760   -1.3200 O   0  0  0  0  0  0  0  0  0  0  0  0
   -3.0960   -0.1880    1.0220 C   0  0  0  0  0  0  0  0  0  0  0  0
   -4.2880   -0.8450    0.4530 C   0  0  0  0  0  0  0  0  0  0  0  0
   -5.0200   -1.4120    1.5370 O   0  0  0  0  0  0  0  0  0  0  0  0
   -1.3990   -0.2430   -0.8900 C   0  0  2  0  0  0  0  0  0  0  0  0
   -1.8650    0.1450   -2.1800 O   0  0  0  0  0  0  0  0  0  0  0  0
   -1.3710   -1.7190   -0.8980 C   0  0  0  0  0  0  0  0  0  0  0  0
   -0.4110   -2.0620   -1.9130 O   0  0  0  0  0  0  0  0  0  0  0  0
   -0.0300    0.1610   -0.9510 O   0  0  0  0  0  0  0  0  0  0  0  0
  1  2  2  0
  2  3  1  0
  2  7  1  0
  3  4  1  0
  4  5  1  0
  5  6  1  0
  8  7  1  1
  8  9  1  0
  8 22  1  0
  9 10  1  0
 10 11  1  6
 10 12  1  0
 12 13  1  6
 12 15  1  0
 12 18  1  0
 13 14  1  0
 15 16  1  0
 16 17  1  0
 18 19  1  6
 18 20  1  0
 18 22  1  0
 20 21  1  0
M  END
