
     RDKit          3D

 23 23  0  0  0  0  0  0  0  0999 V2000
   -3.3730   -0.2330   -0.4010 O   0  0  0  0  0  0  0  0  0  0  0  0
   -3.0520    0.2590    0.7100 C   0  0  0  0  0  0  0  0  0  0  0  0
   -1.7880   -0.1730    1.4050 C   0  0  0  0  0  0  0  0  0  0  0  0
   -1.1100   -1.1990    0.5470 C   0  0  1  0  0  0  0  0  0  0  0  0
   -1.9860   -2.2720    0.3940 O   0  0  0  0  0  0  0  0  0  0  0  0
   -0.6920   -0.6200   -0.7840 C   0  0  0  0  0  0  0  0  0  0  0  0
    0.8240   -0.4970   -0.5780 C   0  0  2  0  0  0  0  0  0  0  0  0
    1.0490    0.4840    0.3710 O   0  0  0  0  0  0  0  0  0  0  0  0
    1.5390   -0.2890   -1.8580 C   0  0  0  0  0  0  0  0  0  0  0  0
    2.9130   -0.2420   -1.8430 O   0  0  0  0  0  0  0  0  0  0  0  0
    3.7510    0.6440   -1.2030 C   0  0  0  0  0  0  0  0  0  0  0  0
    3.2090    1.5570   -0.5300 O   0  0  0  0  0  0  0  0  0  0  0  0
    5.2480    0.5400   -1.2950 C   0  0  2  0  0  0  0  0  0  0  0  0
    5.5220   -0.5610   -2.1040 O   0  0  0  0  0  0  0  0  0  0  0  0
    5.8230    0.3750    0.0740 C   0  0  0  0  0  0  0  0  0  0  0  0
    5.5070    1.5180    0.8210 O   0  0  0  0  0  0  0  0  0  0  0  0
    1.0940   -1.7220    0.0270 O   0  0  0  0  0  0  0  0  0  0  0  0
    0.1850   -1.6800    1.1090 C   0  0  1  0  0  0  0  0  0  0  0  0
    0.6760   -0.8400    2.1170 O   0  0  0  0  0  0  0  0  0  0  0  0
   -3.8880    1.2010    1.2660 O   0  0  0  0  0  0  0  0  0  0  0  0
   -5.0740    1.6900    0.7540 C   0  0  0  0  0  0  0  0  0  0  0  0
   -6.1880    0.7200    0.5670 C   0  0  0  0  0  0  0  0  0  0  0  0
   -5.9240   -0.3280   -0.2940 O   0  0  0  0  0  0  0  0  0  0  0  0
  1  2  2  0
  2  3  1  0
  2 20  1  0
  3  4  1  0
  4  5  1  6
  4  6  1  0
  4 18  1  0
  6  7  1  0
  7  8  1  1
  7  9  1  0
  7 17  1  0
  9 10  1  0
 10 11  1  0
 11 12  2  0
 11 13  1  0
 13 14  1  6
 13 15  1  0
 15 16  1  0
 17 18  1  0
 18 19  1  1
 20 21  1  0
 21 22  1  0
 22 23  1  0
M  END
