
     RDKit          3D

 22 22  0  0  0  0  0  0  0  0999 V2000
   -0.3290   -1.3960    0.9810 O   0  0  0  0  0  0  0  0  0  0  0  0
   -0.8010   -0.3610    0.4670 C   0  0  0  0  0  0  0  0  0  0  0  0
   -2.1260   -0.3800    0.0870 O   0  0  0  0  0  0  0  0  0  0  0  0
   -2.9280   -1.5100    0.2630 C   0  0  1  0  0  0  0  0  0  0  0  0
   -4.1790   -1.2330    1.0620 C   0  0  0  0  0  0  0  0  0  0  0  0
   -4.8770   -2.4380    1.1590 O   0  0  0  0  0  0  0  0  0  0  0  0
   -3.3830   -1.9530   -1.1210 C   0  0  0  0  0  0  0  0  0  0  0  0
   -4.1020   -0.8560   -1.6490 O   0  0  0  0  0  0  0  0  0  0  0  0
   -0.0090    0.8660    0.2530 C   0  0  2  0  0  0  0  0  0  0  0  0
    1.4070    0.7360    0.7140 C   0  0  1  0  0  0  0  0  0  0  0  0
    2.1800   -0.0430   -0.3400 C   0  0  0  0  0  0  0  0  0  0  0  0
    3.5070   -0.2010    0.0250 O   0  0  0  0  0  0  0  0  0  0  0  0
    4.1860   -0.8870   -0.9410 C   0  0  0  0  0  0  0  0  0  0  0  0
    3.6710   -2.2560   -1.2200 C   0  0  0  0  0  0  0  0  0  0  0  0
    3.7050   -3.0900   -0.1070 O   0  0  0  0  0  0  0  0  0  0  0  0
    1.9650    2.1420    0.8800 C   0  0  1  0  0  0  0  0  0  0  0  0
    3.3410    2.1690    0.7350 O   0  0  0  0  0  0  0  0  0  0  0  0
    1.3660    3.0190   -0.0210 O   0  0  0  0  0  0  0  0  0  0  0  0
    0.0800    3.2910    0.4210 C   0  0  1  0  0  0  0  0  0  0  0  0
   -0.6530    3.8500   -0.6490 O   0  0  0  0  0  0  0  0  0  0  0  0
   -0.6410    2.0700    0.9190 C   0  0  1  0  0  0  0  0  0  0  0  0
   -1.9980    2.1130    0.5960 O   0  0  0  0  0  0  0  0  0  0  0  0
  1  2  2  0
  2  3  1  0
  9  2  1  1
  3  4  1  0
  4  5  1  1
  4  7  1  0
  5  6  1  0
  7  8  1  0
  9 10  1  0
  9 21  1  0
 10 11  1  6
 10 16  1  0
 11 12  1  0
 12 13  1  0
 13 14  1  0
 14 15  1  0
 16 17  1  6
 16 18  1  0
 18 19  1  0
 19 20  1  6
 19 21  1  0
 21 22  1  6
M  END
