
     RDKit          3D

 17 18  0  0  0  0  0  0  0  0999 V2000
    5.2760   -0.6850    0.2830 N   0  0  0  0  0  0  0  0  0  0  0  0
    4.0000   -0.4440    0.2330 C   0  0  0  0  0  0  0  0  0  0  0  0
    3.1030   -1.3920    0.6790 C   0  0  0  0  0  0  0  0  0  0  0  0
    1.7290   -1.1350    0.6260 C   0  0  0  0  0  0  0  0  0  0  0  0
    1.2560    0.0300    0.1440 N   0  0  0  0  0  0  0  0  0  0  0  0
   -0.1360    0.3220    0.0760 C   0  0  2  0  0  0  0  0  0  0  0  0
   -0.9040   -0.4180    0.9890 O   0  0  0  0  0  0  0  0  0  0  0  0
   -2.1710    0.0590    0.6550 C   0  0  2  0  0  0  0  0  0  0  0  0
   -3.2600   -0.5890    1.4580 C   0  0  0  0  0  0  0  0  0  0  0  0
   -4.5150   -0.1330    1.1450 O   0  0  0  0  0  0  0  0  0  0  0  0
   -2.2400   -0.2180   -0.8080 C   0  0  1  0  0  0  0  0  0  0  0  0
   -3.0750    0.6670   -1.4910 O   0  0  0  0  0  0  0  0  0  0  0  0
   -0.7820    0.0060   -1.2330 C   0  0  1  0  0  0  0  0  0  0  0  0
   -0.7210    1.1340   -2.0500 O   0  0  0  0  0  0  0  0  0  0  0  0
    2.1620    0.9300   -0.2820 C   0  0  0  0  0  0  0  0  0  0  0  0
    1.7290    2.0210   -0.7340 O   0  0  0  0  0  0  0  0  0  0  0  0
    3.4900    0.7080   -0.2420 N   0  0  0  0  0  0  0  0  0  0  0  0
  1  2  2  0
  2  3  1  0
  2 17  1  0
  3  4  2  0
  4  5  1  0
  6  5  1  6
  5 15  1  0
  6  7  1  0
  6 13  1  0
  7  8  1  0
  8  9  1  1
  8 11  1  0
  9 10  1  0
 11 12  1  6
 11 13  1  0
 13 14  1  6
 15 16  2  0
 15 17  1  0
M  END
