
     RDKit          3D

 19 21  0  0  0  0  0  0  0  0999 V2000
   -0.3320    2.0020    1.3500 N   0  0  0  0  0  0  0  0  0  0  0  0
    0.7070    1.5670    0.4280 C   0  0  1  0  0  0  0  0  0  0  0  0
    1.6200    0.6500    1.1690 C   0  0  0  0  0  0  0  0  0  0  0  0
    2.7310    0.1280    0.3480 C   0  0  0  0  0  0  0  0  0  0  0  0
    2.9080   -1.1650    0.1330 C   0  0  0  0  0  0  0  0  0  0  0  0
    4.0090   -1.7230   -0.6840 C   0  0  0  0  0  0  0  0  0  0  0  0
    4.8610   -0.7570   -1.2180 O   0  0  0  0  0  0  0  0  0  0  0  0
    4.6880    0.6050   -1.0010 C   0  0  0  0  0  0  0  0  0  0  0  0
    3.6840    1.0470   -0.2610 C   0  0  0  0  0  0  0  0  0  0  0  0
    0.0360    0.9450   -0.7520 C   0  0  0  0  0  0  0  0  0  0  0  0
   -0.8000   -0.2140   -0.4390 C   0  0  0  0  0  0  0  0  0  0  0  0
   -0.3730   -1.4890   -0.4180 N   0  0  0  0  0  0  0  0  0  0  0  0
   -1.3780   -2.2880   -0.0990 N   0  0  0  0  0  0  0  0  0  0  0  0
   -2.4740   -1.5490    0.0930 C   0  0  0  0  0  0  0  0  0  0  0  0
   -2.1040   -0.2620   -0.1200 N   0  0  0  0  0  0  0  0  0  0  0  0
   -3.1270    0.7500    0.0280 C   0  0  0  0  0  0  0  0  0  0  0  0
   -4.4440    0.0840   -0.3890 C   0  0  0  0  0  0  0  0  0  0  0  0
   -4.7140   -0.8850    0.5610 O   0  0  0  0  0  0  0  0  0  0  0  0
   -3.8420   -1.9460    0.4610 C   0  0  0  0  0  0  0  0  0  0  0  0
  2  1  1  1
  2  3  1  0
  2 10  1  0
  3  4  1  0
  4  5  2  0
  4  9  1  0
  5  6  1  0
  6  7  1  0
  7  8  1  0
  8  9  2  0
 10 11  1  0
 11 12  2  0
 11 15  1  0
 12 13  1  0
 13 14  2  0
 14 15  1  0
 14 19  1  0
 15 16  1  0
 16 17  1  0
 17 18  1  0
 18 19  1  0
M  END
