
     RDKit          3D

 19 21  0  0  0  0  0  0  0  0999 V2000
    2.3140    2.7900   -1.2130 C   0  0  0  0  0  0  0  0  0  0  0  0
    2.2030    1.3580   -0.8130 C   0  0  0  0  0  0  0  0  0  0  0  0
    3.3460    0.7670   -0.3090 C   0  0  0  0  0  0  0  0  0  0  0  0
    3.2680   -0.5560    0.0670 C   0  0  0  0  0  0  0  0  0  0  0  0
    2.0760   -1.2300   -0.0700 C   0  0  0  0  0  0  0  0  0  0  0  0
    1.9770   -2.5490    0.2980 O   0  0  0  0  0  0  0  0  0  0  0  0
    0.9400   -0.6140   -0.5800 C   0  0  0  0  0  0  0  0  0  0  0  0
   -0.2930   -1.3790   -0.7020 C   0  0  0  0  0  0  0  0  0  0  0  0
   -0.3130   -2.6090   -1.4060 C   0  0  0  0  0  0  0  0  0  0  0  0
   -1.5580   -3.0940   -1.3970 N   0  0  0  0  0  0  0  0  0  0  0  0
   -2.3040   -2.2050   -0.7100 C   0  0  0  0  0  0  0  0  0  0  0  0
   -1.5260   -1.1640   -0.2880 N   0  0  0  0  0  0  0  0  0  0  0  0
   -2.0170   -0.1230    0.5540 C   0  0  0  0  0  0  0  0  0  0  0  0
   -1.2570    0.6720    1.2750 C   0  0  0  0  0  0  0  0  0  0  0  0
   -1.8730    1.6810    2.0730 N   0  0  0  0  0  0  0  0  0  0  0  0
   -3.2310    1.8560    2.1180 O   0  0  0  0  0  0  0  0  0  0  0  0
   -4.0320    1.0180    1.3570 C   0  0  0  0  0  0  0  0  0  0  0  0
   -3.4700    0.0900    0.6230 C   0  0  0  0  0  0  0  0  0  0  0  0
    1.0520    0.6750   -0.9360 N   0  0  0  0  0  0  0  0  0  0  0  0
  1  2  1  0
  2  3  2  0
  2 19  1  0
  3  4  1  0
  4  5  2  0
  5  6  1  0
  5  7  1  0
  7  8  1  0
  7 19  2  0
  8  9  2  0
  8 12  1  0
  9 10  1  0
 10 11  2  0
 11 12  1  0
 12 13  1  0
 13 14  2  0
 13 18  1  0
 14 15  1  0
 15 16  1  0
 16 17  1  0
 17 18  2  0
M  END
