
     RDKit          3D

 19 21  0  0  0  0  0  0  0  0999 V2000
    0.7000   -0.9030    1.4300 C   0  0  0  0  0  0  0  0  0  0  0  0
    1.3890   -0.2390    0.2670 C   0  0  0  0  0  0  0  0  0  0  0  0
    0.8150    0.0000   -0.9270 C   0  0  0  0  0  0  0  0  0  0  0  0
   -0.5960   -0.2170   -1.2010 C   0  0  0  0  0  0  0  0  0  0  0  0
   -0.9310   -0.5930   -2.3700 O   0  0  0  0  0  0  0  0  0  0  0  0
   -1.5820   -0.0160   -0.2240 N   0  0  0  0  0  0  0  0  0  0  0  0
   -2.9720   -0.2080   -0.3630 C   0  0  0  0  0  0  0  0  0  0  0  0
   -3.5530   -0.6130   -1.4620 C   0  0  0  0  0  0  0  0  0  0  0  0
   -5.0360   -0.8150   -1.6010 C   0  0  0  0  0  0  0  0  0  0  0  0
   -5.7530   -0.5350   -0.4510 O   0  0  0  0  0  0  0  0  0  0  0  0
   -5.1590   -0.1060    0.7190 C   0  0  0  0  0  0  0  0  0  0  0  0
   -3.8520    0.0550    0.7860 C   0  0  0  0  0  0  0  0  0  0  0  0
    1.5750    0.5450   -1.9320 N   0  0  0  0  0  0  0  0  0  0  0  0
    2.8460    0.8430   -1.7680 N   0  0  0  0  0  0  0  0  0  0  0  0
    3.4590    0.6240   -0.5910 C   0  0  0  0  0  0  0  0  0  0  0  0
    2.7530    0.0830    0.4460 C   0  0  0  0  0  0  0  0  0  0  0  0
    3.6190   -0.0520    1.5720 N   0  0  0  0  0  0  0  0  0  0  0  0
    4.9750   -0.1020    1.0230 C   0  0  0  0  0  0  0  0  0  0  0  0
    4.8770    0.8700   -0.1300 C   0  0  0  0  0  0  0  0  0  0  0  0
  1  2  1  0
  2  3  2  0
  2 16  1  0
  3  4  1  0
  3 13  1  0
  4  5  2  0
  4  6  1  0
  6  7  1  0
  7  8  2  0
  7 12  1  0
  8  9  1  0
  9 10  1  0
 10 11  1  0
 11 12  2  0
 13 14  2  0
 14 15  1  0
 15 16  2  0
 15 19  1  0
 16 17  1  0
 17 18  1  0
 18 19  1  0
M  END
