
     RDKit          3D

 19 20  0  0  0  0  0  0  0  0999 V2000
    3.1710    1.9670    0.5570 C   0  0  0  0  0  0  0  0  0  0  0  0
    3.9450    0.9170    0.3450 C   0  0  0  0  0  0  0  0  0  0  0  0
    5.2900    0.7070    0.9980 C   0  0  0  0  0  0  0  0  0  0  0  0
    5.8950   -0.3910    0.1740 C   0  0  0  0  0  0  0  0  0  0  0  0
    5.0450   -0.4580   -1.0700 C   0  0  0  0  0  0  0  0  0  0  0  0
    3.7240   -0.2080   -0.5080 N   0  0  0  0  0  0  0  0  0  0  0  0
    2.5130   -0.8640   -0.7270 C   0  0  0  0  0  0  0  0  0  0  0  0
    2.5440   -1.8070   -1.6010 O   0  0  0  0  0  0  0  0  0  0  0  0
    1.2970   -0.5670   -0.0680 N   0  0  0  0  0  0  0  0  0  0  0  0
    0.1060   -1.2870   -0.3770 C   0  0  0  0  0  0  0  0  0  0  0  0
    0.2120   -2.1820   -1.2580 O   0  0  0  0  0  0  0  0  0  0  0  0
   -1.1440   -1.0500    0.2370 N   0  0  0  0  0  0  0  0  0  0  0  0
   -2.2870   -1.8450   -0.1610 C   0  0  0  0  0  0  0  0  0  0  0  0
   -3.5690   -1.1130    0.2390 C   0  0  0  0  0  0  0  0  0  0  0  0
   -3.4640    0.3580    0.0140 C   0  0  1  0  0  0  0  0  0  0  0  0
   -4.6900    0.9740    0.4550 N   0  0  0  0  0  0  0  0  0  0  0  0
   -5.7390    0.8040   -0.5360 C   0  0  0  0  0  0  0  0  0  0  0  0
   -2.2610    1.0140    0.6010 C   0  0  0  0  0  0  0  0  0  0  0  0
   -1.3680   -0.0500    1.2560 C   0  0  0  0  0  0  0  0  0  0  0  0
  1  2  2  0
  2  3  1  0
  2  6  1  0
  3  4  1  0
  4  5  1  0
  5  6  1  0
  6  7  1  0
  7  8  2  0
  7  9  1  0
  9 10  1  0
 10 11  2  0
 10 12  1  0
 12 13  1  0
 12 19  1  0
 13 14  1  0
 14 15  1  0
 15 16  1  1
 15 18  1  0
 16 17  1  0
 18 19  1  0
M  CHG  1  16   1
M  END
