
     RDKit          3D

 19 20  0  0  0  0  0  0  0  0999 V2000
   -4.9630    0.2610   -0.7700 C   0  0  0  0  0  0  0  0  0  0  0  0
   -4.0350    0.3810    0.3750 C   0  0  0  0  0  0  0  0  0  0  0  0
   -4.3680    0.8440    1.5880 N   0  0  0  0  0  0  0  0  0  0  0  0
   -3.5050    0.9480    2.6110 C   0  0  0  0  0  0  0  0  0  0  0  0
   -3.8510    1.3870    3.7340 O   0  0  0  0  0  0  0  0  0  0  0  0
   -2.2020    0.5840    2.4830 N   0  0  0  0  0  0  0  0  0  0  0  0
   -1.8170    0.1060    1.2610 C   0  0  0  0  0  0  0  0  0  0  0  0
   -2.7060   -0.0020    0.2120 C   0  0  0  0  0  0  0  0  0  0  0  0
   -2.4760   -0.4940   -1.1430 C   0  0  0  0  0  0  0  0  0  0  0  0
   -1.1420   -1.0660   -1.4300 C   0  0  0  0  0  0  0  0  0  0  0  0
    0.0440   -0.1600   -1.2670 C   0  0  0  0  0  0  0  0  0  0  0  0
    0.4650    0.0230    0.1520 C   0  0  0  0  0  0  0  0  0  0  0  0
    1.6480    0.4230    0.4760 C   0  0  0  0  0  0  0  0  0  0  0  0
    2.6970    0.7410   -0.5080 C   0  0  0  0  0  0  0  0  0  0  0  0
    3.8170   -0.1630   -0.2220 N   0  0  0  0  0  0  0  0  0  0  0  0
    3.5990   -1.5690   -0.5020 C   0  0  0  0  0  0  0  0  0  0  0  0
    5.0190    0.3440    0.2940 C   0  0  0  0  0  0  0  0  0  0  0  0
    5.0130    0.8470    1.4770 N   0  0  0  0  0  0  0  0  0  0  0  0
   -0.4640   -0.2490    1.1990 O   0  0  0  0  0  0  0  0  0  0  0  0
  1  2  1  0
  2  3  2  0
  2  8  1  0
  3  4  1  0
  4  5  2  0
  4  6  1  0
  6  7  1  0
  7  8  2  0
  7 19  1  0
  8  9  1  0
  9 10  1  0
 10 11  1  0
 11 12  1  0
 12 13  2  3
 12 19  1  0
 13 14  1  0
 14 15  1  0
 15 16  1  0
 15 17  1  0
 17 18  2  0
M  CHG  1  18   1
M  END
