
     RDKit          3D

 19 21  0  0  0  0  0  0  0  0999 V2000
   -5.2060    0.9190    0.3820 C   0  0  0  0  0  0  0  0  0  0  0  0
   -4.0480    0.0430    0.5850 N   0  0  0  0  0  0  0  0  0  0  0  0
   -3.0900   -0.0930   -0.4610 C   0  0  0  0  0  0  0  0  0  0  0  0
   -3.3310    0.5750   -1.5390 O   0  0  0  0  0  0  0  0  0  0  0  0
   -1.9020   -0.9270   -0.3690 C   0  0  0  0  0  0  0  0  0  0  0  0
   -1.9310   -2.3030   -0.3630 C   0  0  0  0  0  0  0  0  0  0  0  0
   -0.7840   -3.0690   -0.2750 C   0  0  0  0  0  0  0  0  0  0  0  0
    0.4150   -2.3810   -0.1920 C   0  0  0  0  0  0  0  0  0  0  0  0
    0.4640   -0.9980   -0.1950 C   0  0  0  0  0  0  0  0  0  0  0  0
   -0.6930   -0.2510   -0.2850 C   0  0  0  0  0  0  0  0  0  0  0  0
   -0.3270    1.0460   -0.2800 N   0  0  0  0  0  0  0  0  0  0  0  0
    1.0160    1.1590   -0.1910 C   0  0  0  0  0  0  0  0  0  0  0  0
    1.8500    2.2310   -0.1650 N   0  0  0  0  0  0  0  0  0  0  0  0
    3.1710    2.0750   -0.0910 C   0  0  0  0  0  0  0  0  0  0  0  0
    3.9750    3.0620   -0.0690 O   0  0  0  0  0  0  0  0  0  0  0  0
    3.6680    0.7820   -0.0380 C   0  0  0  0  0  0  0  0  0  0  0  0
    5.1340    0.5300    0.0390 C   0  0  0  0  0  0  0  0  0  0  0  0
    2.8050   -0.2910   -0.0640 C   0  0  0  0  0  0  0  0  0  0  0  0
    1.4780   -0.1040   -0.1410 N   0  0  0  0  0  0  0  0  0  0  0  0
  1  2  1  0
  2  3  1  0
  3  4  2  0
  3  5  1  0
  5  6  2  0
  5 10  1  0
  6  7  1  0
  7  8  2  0
  8  9  1  0
  9 10  2  0
  9 19  1  0
 10 11  1  0
 11 12  2  0
 12 13  1  0
 12 19  1  0
 13 14  1  0
 14 15  2  0
 14 16  1  0
 16 17  1  0
 16 18  2  0
 18 19  1  0
M  CHG  1  11   1
M  END
