
     RDKit          3D

 11 11  0  0  0  0  0  0  0  0999 V2000
   -2.4360   -1.4380   -0.0070 C   0  0  0  0  0  0  0  0  0  0  0  0
   -1.2990   -0.4900    0.1630 C   0  0  0  0  0  0  0  0  0  0  0  0
   -1.4300    0.6370    0.9480 C   0  0  0  0  0  0  0  0  0  0  0  0
   -0.3800    1.5370    1.1210 C   0  0  0  0  0  0  0  0  0  0  0  0
    0.8070    1.2410    0.4610 C   0  0  0  0  0  0  0  0  0  0  0  0
    1.9030    2.1050    0.5920 O   0  0  0  0  0  0  0  0  0  0  0  0
    0.9620    0.1230   -0.3280 C   0  0  0  0  0  0  0  0  0  0  0  0
    2.2270   -0.1470   -1.0010 C   0  0  0  0  0  0  0  0  0  0  0  0
    3.1730    0.6660   -0.8440 O   0  0  0  0  0  0  0  0  0  0  0  0
    2.4450   -1.2390   -1.7980 O   0  0  0  0  0  0  0  0  0  0  0  0
   -0.1050   -0.7480   -0.4750 C   0  0  0  0  0  0  0  0  0  0  0  0
  1  2  1  0
  2  3  2  0
  2 11  1  0
  3  4  1  0
  4  5  2  0
  5  6  1  0
  5  7  1  0
  7  8  1  0
  7 11  2  0
  8  9  2  0
  8 10  1  0
M  END
