
     RDKit          3D

  9  9  0  0  0  0  0  0  0  0999 V2000
    2.1140    1.3470   -0.1190 C   0  0  0  0  0  0  0  0  0  0  0  0
    0.8040    1.0480   -0.7320 C   0  0  0  0  0  0  0  0  0  0  0  0
    0.0600   -0.1100   -0.1630 C   0  0  2  0  0  0  0  0  0  0  0  0
    0.9050   -1.3560   -0.3260 C   0  0  0  0  0  0  0  0  0  0  0  0
    2.1310   -1.2500    0.3300 O   0  0  0  0  0  0  0  0  0  0  0  0
   -1.1930   -0.3160   -0.9970 C   0  0  0  0  0  0  0  0  0  0  0  0
   -2.3570   -0.2930   -0.0630 C   0  0  0  0  0  0  0  0  0  0  0  0
   -1.8710    0.2030    1.2720 C   0  0  0  0  0  0  0  0  0  0  0  0
   -0.3680    0.0140    1.2460 C   0  0  0  0  0  0  0  0  0  0  0  0
  1  2  1  0
  3  2  1  6
  3  4  1  0
  3  6  1  0
  3  9  1  0
  4  5  1  0
  6  7  1  0
  7  8  1  0
  8  9  1  0
M  END
