
     RDKit          3D

  9  9  0  0  0  0  0  0  0  0999 V2000
   -3.1370    0.9830   -0.2040 C   0  0  0  0  0  0  0  0  0  0  0  0
   -1.6930    0.6810   -0.5770 C   0  0  0  0  0  0  0  0  0  0  0  0
   -1.0710   -0.0610    0.5450 C   0  0  0  0  0  0  0  0  0  0  0  0
    0.3480   -0.4550    0.3810 C   0  0  2  0  0  0  0  0  0  0  0  0
    0.7960   -1.1430    1.5090 O   0  0  0  0  0  0  0  0  0  0  0  0
    1.2540    0.7750    0.2650 C   0  0  0  0  0  0  0  0  0  0  0  0
    2.3690    0.3750   -0.6660 C   0  0  0  0  0  0  0  0  0  0  0  0
    2.2240   -1.1310   -0.8210 C   0  0  0  0  0  0  0  0  0  0  0  0
    0.6900   -1.2430   -0.8200 C   0  0  0  0  0  0  0  0  0  0  0  0
  1  2  1  0
  2  3  1  0
  3  4  1  0
  4  5  1  1
  4  6  1  0
  4  9  1  0
  6  7  1  0
  7  8  1  0
  8  9  1  0
M  END
