
     RDKit          3D

  9  9  0  0  0  0  0  0  0  0999 V2000
    1.6310   -1.3350   -0.2570 C   0  0  0  0  0  0  0  0  0  0  0  0
    1.3850   -0.0510    0.4800 C   0  0  1  0  0  0  0  0  0  0  0  0
    2.1900    1.0680   -0.1900 C   0  0  0  0  0  0  0  0  0  0  0  0
   -0.0510    0.3810    0.4730 C   0  0  1  0  0  0  0  0  0  0  0  0
   -0.1240    1.5830    1.1920 O   0  0  0  0  0  0  0  0  0  0  0  0
   -0.5560    0.6760   -0.9160 C   0  0  0  0  0  0  0  0  0  0  0  0
   -1.8590   -0.0350   -1.0820 C   0  0  0  0  0  0  0  0  0  0  0  0
   -2.2470   -0.5790    0.2680 C   0  0  0  0  0  0  0  0  0  0  0  0
   -0.9860   -0.5950    1.1020 C   0  0  0  0  0  0  0  0  0  0  0  0
  2  1  1  6
  2  3  1  0
  2  4  1  0
  4  5  1  1
  4  6  1  0
  4  9  1  0
  6  7  1  0
  7  8  1  0
  8  9  1  0
M  END
