
     RDKit          3D

 14 13  0  0  0  0  0  0  0  0999 V2000
    3.1940    0.3410    1.9360 C   0  0  0  0  0  0  0  0  0  0  0  0
    2.4480   -0.3770    0.8280 C   0  0  0  0  0  0  0  0  0  0  0  0
    1.0660    0.2300    0.7100 C   0  0  0  0  0  0  0  0  0  0  0  0
    0.2470   -0.4110   -0.3600 C   0  0  2  0  0  0  0  0  0  0  0  0
    0.7850   -0.3380   -1.6890 N   0  0  0  0  0  0  0  0  0  0  0  0
   -0.4290   -0.2460   -2.9320 Cl  0  0  0  0  0  0  0  0  0  0  0  0
   -1.1720   -0.0150   -0.3990 C   0  0  0  0  0  0  0  0  0  0  0  0
   -1.7430    1.2550   -0.7170 C   0  0  0  0  0  0  0  0  0  0  0  0
   -3.1600    1.3750   -0.6170 O   0  0  0  0  0  0  0  0  0  0  0  0
   -1.1320    2.3180   -1.0870 C   0  0  0  0  0  0  0  0  0  0  0  0
    0.1990    2.5540   -1.2850 O   0  0  0  0  0  0  0  0  0  0  0  0
   -2.0550   -0.9870   -0.0460 C   0  0  0  0  0  0  0  0  0  0  0  0
   -1.6460   -2.3470    0.3510 C   0  0  0  0  0  0  0  0  0  0  0  0
   -3.3990   -0.6570   -0.0690 O   0  0  0  0  0  0  0  0  0  0  0  0
  1  2  1  0
  2  3  1  0
  4  3  1  1
  4  5  1  0
  4  7  1  0
  5  6  1  0
  7  8  1  0
  7 12  2  3
  8  9  1  0
  8 10  2  3
 10 11  1  0
 12 13  1  0
 12 14  1  0
M  CHG  1   5   1
M  END
