
     RDKit          3D

 14 14  0  0  0  0  0  0  0  0999 V2000
    4.6990    1.1390    1.0870 O   0  0  0  0  0  0  0  0  0  0  0  0
    4.7210   -0.1260    0.2740 S   0  0  1  0  0  0  0  0  0  0  0  0
    4.2230    0.3170   -1.4440 O   0  0  0  0  0  0  0  0  0  0  0  0
    5.7880   -1.0650    0.1720 O   0  0  0  0  0  0  0  0  0  0  0  0
    3.1010   -0.9630    0.6460 C   0  0  0  0  0  0  0  0  0  0  0  0
    2.1090    0.0670    0.1880 C   0  0  0  0  0  0  0  0  0  0  0  0
    0.6850   -0.3960    0.3940 C   0  0  0  0  0  0  0  0  0  0  0  0
   -0.1790    0.6690   -0.0800 N   0  0  0  0  0  0  0  0  0  0  0  0
   -1.5010    0.2180   -0.3880 C   0  0  2  0  0  0  0  0  0  0  0  0
   -2.4400    1.3940   -0.2160 C   0  0  0  0  0  0  0  0  0  0  0  0
   -3.8170    1.0460   -0.6960 C   0  0  0  0  0  0  0  0  0  0  0  0
   -4.3170   -0.1450    0.0630 C   0  0  0  0  0  0  0  0  0  0  0  0
   -3.3490   -1.3060    0.0490 C   0  0  0  0  0  0  0  0  0  0  0  0
   -1.9730   -0.8930    0.5190 C   0  0  0  0  0  0  0  0  0  0  0  0
  2  1  1  1
  2  3  1  0
  2  4  1  0
  2  5  1  0
  5  6  1  0
  6  7  1  0
  7  8  1  0
  9  8  1  1
  9 10  1  0
  9 14  1  0
 10 11  1  0
 11 12  1  0
 12 13  1  0
 13 14  1  0
M  CHG  1   8   1
M  END
