
     RDKit          3D

 13 12  0  0  0  0  0  0  0  0999 V2000
    3.6240    1.8700    0.2600 C   0  0  0  0  0  0  0  0  0  0  0  0
    2.7420    0.9300    0.5260 C   0  0  0  0  0  0  0  0  0  0  0  0
    3.0890   -0.1550    1.3220 O   0  0  0  0  0  0  0  0  0  0  0  0
    3.6110   -1.3350    0.7350 C   0  0  0  0  0  0  0  0  0  0  0  0
    1.3840    0.9840    0.0060 C   0  0  0  0  0  0  0  0  0  0  0  0
    0.9980    2.0280   -0.7780 O   0  0  0  0  0  0  0  0  0  0  0  0
    0.4910    0.0300    0.2770 C   0  0  0  0  0  0  0  0  0  0  0  0
   -0.8580    0.0660   -0.2290 C   0  0  0  0  0  0  0  0  0  0  0  0
   -1.8110   -0.7920   -0.0390 C   0  0  0  0  0  0  0  0  0  0  0  0
   -3.1680   -0.5970   -0.6460 C   0  0  0  0  0  0  0  0  0  0  0  0
   -3.2300    0.6230   -1.4220 N   0  0  0  0  0  0  0  0  0  0  0  0
   -1.5970   -2.0000    0.7790 C   0  0  0  0  0  0  0  0  0  0  0  0
   -2.4620   -2.0410    1.8780 O   0  0  0  0  0  0  0  0  0  0  0  0
  1  2  2  0
  2  3  1  0
  2  5  1  0
  3  4  1  0
  5  6  1  0
  5  7  2  3
  7  8  1  0
  8  9  2  3
  9 10  1  0
  9 12  1  0
 10 11  1  0
 12 13  1  0
M  CHG  1  11   1
M  END
