
     RDKit          3D

 14 13  0  0  0  0  0  0  0  0999 V2000
   -3.3930    1.4900    0.7980 C   0  0  0  0  0  0  0  0  0  0  0  0
   -2.7190    0.2830    0.1370 C   0  0  2  0  0  0  0  0  0  0  0  0
   -1.5000   -0.0250    0.9960 C   0  0  0  0  0  0  0  0  0  0  0  0
   -0.7440   -1.1620    0.4920 C   0  0  0  0  0  0  0  0  0  0  0  0
    0.4990   -1.0990    0.1110 C   0  0  0  0  0  0  0  0  0  0  0  0
    1.3070    0.0910    0.1300 C   0  0  0  0  0  0  0  0  0  0  0  0
    2.5600    0.1530   -0.2530 C   0  0  0  0  0  0  0  0  0  0  0  0
    3.2540   -0.9430   -0.7280 O   0  0  0  0  0  0  0  0  0  0  0  0
    3.2850    1.4390   -0.1860 C   0  0  0  0  0  0  0  0  0  0  0  0
    4.4020    1.3760    0.6410 O   0  0  0  0  0  0  0  0  0  0  0  0
    1.1500   -2.3470   -0.3850 C   0  0  0  0  0  0  0  0  0  0  0  0
    0.2390   -3.3820   -0.3350 O   0  0  0  0  0  0  0  0  0  0  0  0
   -2.2960    0.5700   -1.2030 N   0  0  0  0  0  0  0  0  0  0  0  0
   -2.4540    2.2630   -1.6050 Cl  0  0  0  0  0  0  0  0  0  0  0  0
  2  1  1  1
  2  3  1  0
  2 13  1  0
  3  4  1  0
  4  5  2  3
  5  6  1  0
  5 11  1  0
  6  7  2  3
  7  8  1  0
  7  9  1  0
  9 10  1  0
 11 12  1  0
 13 14  1  0
M  CHG  1  13   1
M  END
