
     RDKit          3D

 14 14  0  0  0  0  0  0  0  0999 V2000
   -3.7460    0.7500    0.8140 O   0  0  0  0  0  0  0  0  0  0  0  0
   -3.8540    0.4400   -0.5450 C   0  0  0  0  0  0  0  0  0  0  0  0
   -2.4970   -0.0760   -0.9900 C   0  0  0  0  0  0  0  0  0  0  0  0
   -1.4710    0.8910   -0.8040 N   0  0  0  0  0  0  0  0  0  0  0  0
   -0.2990    0.5060   -0.1440 C   0  0  1  0  0  0  0  0  0  0  0  0
   -0.3010   -0.8010    0.5780 C   0  0  0  0  0  0  0  0  0  0  0  0
    0.9960   -0.8980    1.3040 C   0  0  0  0  0  0  0  0  0  0  0  0
    2.0940   -0.3460    0.7810 C   0  0  0  0  0  0  0  0  0  0  0  0
    3.3650   -0.4320    1.4770 C   0  0  0  0  0  0  0  0  0  0  0  0
    4.4390    0.1160    0.9510 C   0  0  0  0  0  0  0  0  0  0  0  0
    4.4270    0.7880   -0.2590 O   0  0  0  0  0  0  0  0  0  0  0  0
    5.9880    0.0190    1.7850 Cl  0  0  0  0  0  0  0  0  0  0  0  0
    2.0430    0.3160   -0.4290 O   0  0  0  0  0  0  0  0  0  0  0  0
    0.8400    0.4230   -1.1630 C   0  0  0  0  0  0  0  0  0  0  0  0
  1  2  1  0
  2  3  1  0
  3  4  1  0
  5  4  1  6
  5  6  1  0
  5 14  1  0
  6  7  1  0
  7  8  2  0
  8  9  1  0
  8 13  1  0
  9 10  2  3
 10 11  1  0
 10 12  1  0
 13 14  1  0
M  CHG  1   4   1
M  END
