
     RDKit          3D

 14 13  0  0  0  0  0  0  0  0999 V2000
   -1.3840   -1.5030    0.1110 C   0  0  0  0  0  0  0  0  0  0  0  0
   -1.6700   -0.0720    0.3990 C   0  0  2  0  0  0  0  0  0  0  0  0
   -3.0780    0.3170    0.0350 C   0  0  0  0  0  0  0  0  0  0  0  0
   -3.9560   -0.5410    0.7020 O   0  0  0  0  0  0  0  0  0  0  0  0
   -0.7570    0.8400   -0.3100 N   0  0  0  0  0  0  0  0  0  0  0  0
    0.3780    1.1610    0.5290 C   0  0  0  0  0  0  0  0  0  0  0  0
    1.5260    0.3570    0.0830 C   0  0  0  0  0  0  0  0  0  0  0  0
    2.2020    0.5820   -1.1810 C   0  0  0  0  0  0  0  0  0  0  0  0
    2.0140    1.4490   -2.1140 C   0  0  0  0  0  0  0  0  0  0  0  0
    2.8820    1.3750   -3.2500 O   0  0  0  0  0  0  0  0  0  0  0  0
    0.8410    2.7050   -2.1610 Cl  0  0  0  0  0  0  0  0  0  0  0  0
    2.0420   -0.6300    0.8310 C   0  0  0  0  0  0  0  0  0  0  0  0
    1.5130   -0.9890    2.1400 C   0  0  0  0  0  0  0  0  0  0  0  0
    1.0930   -2.3340    2.0930 O   0  0  0  0  0  0  0  0  0  0  0  0
  2  1  1  6
  2  3  1  0
  2  5  1  0
  3  4  1  0
  5  6  1  0
  6  7  1  0
  7  8  1  0
  7 12  2  3
  8  9  2  3
  9 10  1  0
  9 11  1  0
 12 13  1  0
 13 14  1  0
M  CHG  1   5   1
M  END
