
     RDKit          3D

 33 36  0  0  0  0  0  0  0  0999 V2000
   -4.6760    2.2570    1.6790 C   0  0  0  0  0  0  0  0  0  0  0  0
   -3.4680    2.0390    0.7830 C   0  0  1  0  0  0  0  0  0  0  0  0
   -2.2750    1.8330    1.6210 C   0  0  0  0  0  0  0  0  0  0  0  0
   -1.0080    1.4630    0.8080 C   0  0  2  0  0  0  0  0  0  0  0  0
   -0.5990    2.7520    0.1230 C   0  0  0  0  0  0  0  0  0  0  0  0
    0.6050    3.4080    0.7690 C   0  0  0  0  0  0  0  0  0  0  0  0
    1.5540    3.8620   -0.3170 C   0  0  1  0  0  0  0  0  0  0  0  0
    2.0060    5.2650    0.0480 C   0  0  0  0  0  0  0  0  0  0  0  0
    2.7650    3.0050   -0.4700 C   0  0  0  0  0  0  0  0  0  0  0  0
    2.6690    1.9800   -1.5360 C   0  0  0  0  0  0  0  0  0  0  0  0
    2.7820    2.3980   -2.7230 O   0  0  0  0  0  0  0  0  0  0  0  0
    2.4710    0.6420   -1.3650 O   0  0  0  0  0  0  0  0  0  0  0  0
    2.3400   -0.0230   -0.1210 C   0  0  2  0  0  0  0  0  0  0  0  0
    3.7380   -0.1850    0.4070 C   0  0  1  0  0  0  0  0  0  0  0  0
    3.8520    0.1030    1.8790 C   0  0  0  0  0  0  0  0  0  0  0  0
    4.4690   -1.3950   -0.0430 C   0  0  0  0  0  0  0  0  0  0  0  0
    3.6200   -2.3960   -0.7940 C   0  0  0  0  0  0  0  0  0  0  0  0
    2.2450   -2.5460   -0.1800 C   0  0  1  0  0  0  0  0  0  0  0  0
    2.4290   -3.0770    1.1970 C   0  0  0  0  0  0  0  0  0  0  0  0
    1.3620   -2.5620    2.1510 C   0  0  0  0  0  0  0  0  0  0  0  0
    0.1040   -2.5040    1.2230 C   0  0  0  0  0  0  0  0  0  0  0  0
    0.2000   -1.2090    0.5360 C   0  0  2  0  0  0  0  0  0  0  0  0
   -0.9640   -0.8070   -0.3290 C   0  0  0  0  0  0  0  0  0  0  0  0
   -1.4830   -1.7260   -1.3540 C   0  0  0  0  0  0  0  0  0  0  0  0
   -2.5080   -2.7440   -1.0940 C   0  0  1  0  0  0  0  0  0  0  0  0
   -2.3530   -3.8760   -0.1770 C   0  0  0  0  0  0  0  0  0  0  0  0
   -3.8500   -2.0900   -0.6240 C   0  0  0  0  0  0  0  0  0  0  0  0
   -2.9920   -3.3500   -2.4580 C   0  0  0  0  0  0  0  0  0  0  0  0
   -1.4990    0.4290   -0.1940 C   0  0  0  0  0  0  0  0  0  0  0  0
   -2.5850    1.0100   -0.9870 C   0  0  1  0  0  0  0  0  0  0  0  0
   -2.7400    0.8160   -2.4270 C   0  0  0  0  0  0  0  0  0  0  0  0
   -3.7370    1.1040   -0.2080 O   0  0  0  0  0  0  0  0  0  0  0  0
    1.5100   -1.2460   -0.2850 C   0  0  1  0  0  0  0  0  0  0  0  0
  2  1  1  1
  2  3  1  0
  2 32  1  0
  4  3  1  1
  4  5  1  0
  4 29  1  0
  5  6  1  0
  6  7  1  0
  7  8  1  1
  7  9  1  0
  9 10  1  0
 10 11  2  0
 10 12  1  0
 13 12  1  6
 13 14  1  0
 13 33  1  0
 14 15  1  1
 14 16  1  0
 16 17  1  0
 18 17  1  1
 18 19  1  0
 33 18  1  1
 19 20  1  0
 20 21  1  0
 22 21  1  6
 22 23  1  0
 22 33  1  0
 23 24  1  0
 23 29  2  0
 24 25  1  0
 25 26  1  1
 25 27  1  0
 25 28  1  0
 29 30  1  0
 30 31  1  6
 30 32  1  0
M  END
