
     RDKit          3D

 34 38  0  0  0  0  0  0  0  0999 V2000
    3.3900   -4.4070   -0.3830 C   0  0  0  0  0  0  0  0  0  0  0  0
    3.0520   -3.1620   -1.1500 C   0  0  2  0  0  0  0  0  0  0  0  0
    3.7880   -1.9370   -0.6230 C   0  0  0  0  0  0  0  0  0  0  0  0
    2.7080   -0.8860   -0.7470 C   0  0  2  0  0  0  0  0  0  0  0  0
    3.0590    0.3490   -0.3190 O   0  0  0  0  0  0  0  0  0  0  0  0
    3.9620    0.4550    0.6670 C   0  0  0  0  0  0  0  0  0  0  0  0
    4.6720    1.7850    0.5660 C   0  0  0  0  0  0  0  0  0  0  0  0
    6.0460    1.7820    0.5010 C   0  0  0  0  0  0  0  0  0  0  0  0
    6.7800    2.9420    0.4690 C   0  0  0  0  0  0  0  0  0  0  0  0
    6.1440    4.1550    0.5030 C   0  0  0  0  0  0  0  0  0  0  0  0
    4.7710    4.1530    0.5670 C   0  0  0  0  0  0  0  0  0  0  0  0
    3.9830    3.0000    0.6000 C   0  0  0  0  0  0  0  0  0  0  0  0
    2.5950    3.0230    0.6620 O   0  0  0  0  0  0  0  0  0  0  0  0
    1.6180    2.8420   -0.3110 C   0  0  0  0  0  0  0  0  0  0  0  0
    0.3640    2.1600    0.0690 C   0  0  0  0  0  0  0  0  0  0  0  0
    0.4080    1.1730    1.1800 C   0  0  0  0  0  0  0  0  0  0  0  0
   -0.2890   -0.1100    0.8100 C   0  0  1  0  0  0  0  0  0  0  0  0
   -1.7400    0.3480    0.6350 C   0  0  0  0  0  0  0  0  0  0  0  0
   -2.6200   -0.8150    0.4080 C   0  0  1  0  0  0  0  0  0  0  0  0
   -4.0830   -0.5530    0.4010 C   0  0  1  0  0  0  0  0  0  0  0  0
   -4.5470   -0.0100    1.7120 C   0  0  1  0  0  0  0  0  0  0  0  0
   -3.6420   -0.3390    2.7210 O   0  0  0  0  0  0  0  0  0  0  0  0
   -4.8230    1.4420    1.7770 C   0  0  0  0  0  0  0  0  0  0  0  0
   -5.7480    1.7980    0.6050 C   0  0  0  0  0  0  0  0  0  0  0  0
   -4.8760    1.6110   -0.6190 C   0  0  0  0  0  0  0  0  0  0  0  0
   -4.6020    0.1670   -0.8030 C   0  0  2  0  0  0  0  0  0  0  0  0
   -5.8870   -0.4760   -1.3460 C   0  0  0  0  0  0  0  0  0  0  0  0
   -6.2870    0.2630   -2.4580 O   0  0  0  0  0  0  0  0  0  0  0  0
   -2.1890   -1.3920   -0.9350 C   0  0  0  0  0  0  0  0  0  0  0  0
   -0.8060   -1.9920   -0.6190 C   0  0  0  0  0  0  0  0  0  0  0  0
    0.2020   -0.8570   -0.3600 C   0  0  2  0  0  0  0  0  0  0  0  0
    1.5160   -1.5510   -0.1780 C   0  0  2  0  0  0  0  0  0  0  0  0
    1.6590   -2.0780    1.2140 C   0  0  0  0  0  0  0  0  0  0  0  0
    1.5760   -2.8120   -1.0760 C   0  0  0  0  0  0  0  0  0  0  0  0
  2  1  1  1
  2  3  1  0
  2 34  1  0
  4  3  1  1
  4  5  1  0
  4 32  1  0
  5  6  1  0
  6  7  1  0
  7  8  2  0
  7 12  1  0
  8  9  1  0
  9 10  2  0
 10 11  1  0
 11 12  2  0
 12 13  1  0
 13 14  1  0
 14 15  1  0
 15 16  1  0
 17 16  1  6
 17 18  1  0
 17 31  1  0
 19 18  1  6
 20 19  1  1
 19 29  1  0
 20 21  1  0
 20 26  1  0
 21 22  1  1
 21 23  1  0
 23 24  1  0
 24 25  1  0
 25 26  1  0
 26 27  1  1
 27 28  1  0
 29 30  1  0
 31 30  1  1
 31 32  1  0
 32 33  1  1
 32 34  1  0
M  END
