
     RDKit          3D

 34 38  0  0  0  0  0  0  0  0999 V2000
    6.1670    2.0350    0.9500 C   0  0  0  0  0  0  0  0  0  0  0  0
    5.6590    1.6860   -0.4580 C   0  0  2  0  0  0  0  0  0  0  0  0
    4.2690    1.2120   -0.3920 C   0  0  0  0  0  0  0  0  0  0  0  0
    3.9570   -0.1930   -0.6870 C   0  0  1  0  0  0  0  0  0  0  0  0
    2.7040   -0.3520   -1.5160 C   0  0  0  0  0  0  0  0  0  0  0  0
    2.4360    0.2610   -2.7210 C   0  0  0  0  0  0  0  0  0  0  0  0
    1.1910   -0.1590   -3.1290 C   0  0  0  0  0  0  0  0  0  0  0  0
    0.7330   -1.0200   -2.1570 C   0  0  0  0  0  0  0  0  0  0  0  0
   -0.5950   -1.7450   -2.1540 C   0  0  0  0  0  0  0  0  0  0  0  0
   -1.4220   -1.0460   -1.3110 O   0  0  0  0  0  0  0  0  0  0  0  0
   -2.6900   -1.5750   -1.1930 C   0  0  2  0  0  0  0  0  0  0  0  0
   -3.6830   -0.4900   -1.5450 C   0  0  0  0  0  0  0  0  0  0  0  0
   -3.9020    0.3830   -0.3590 C   0  0  1  0  0  0  0  0  0  0  0  0
   -2.7460    0.3370    0.6410 C   0  0  1  0  0  0  0  0  0  0  0  0
   -3.2000    1.3870    1.6220 C   0  0  0  0  0  0  0  0  0  0  0  0
   -3.6460    2.5050    0.7030 C   0  0  1  0  0  0  0  0  0  0  0  0
   -4.9050    3.1600    1.2780 C   0  0  0  0  0  0  0  0  0  0  0  0
   -2.6250    3.4330    0.5880 O   0  0  0  0  0  0  0  0  0  0  0  0
   -3.9700    1.8480   -0.6450 C   0  0  2  0  0  0  0  0  0  0  0  0
   -5.3050    2.3110   -1.1590 C   0  0  0  0  0  0  0  0  0  0  0  0
   -2.9210    2.3250   -1.6190 C   0  0  0  0  0  0  0  0  0  0  0  0
   -2.5630   -1.0140    1.2500 C   0  0  2  0  0  0  0  0  0  0  0  0
   -3.3460   -1.1680    2.5410 C   0  0  0  0  0  0  0  0  0  0  0  0
   -3.0390   -2.4670    3.2130 C   0  0  0  0  0  0  0  0  0  0  0  0
   -2.0070   -3.1820    2.6600 O   0  0  0  0  0  0  0  0  0  0  0  0
   -0.8640   -2.4590    2.4070 C   0  0  1  0  0  0  0  0  0  0  0  0
    0.1200   -3.3320    1.6460 C   0  0  0  0  0  0  0  0  0  0  0  0
   -1.0890   -1.1950    1.6350 C   0  0  0  0  0  0  0  0  0  0  0  0
   -2.9880   -2.0420    0.2230 C   0  0  0  0  0  0  0  0  0  0  0  0
    1.6630   -1.0890   -1.2450 O   0  0  0  0  0  0  0  0  0  0  0  0
    5.0510   -0.9710   -1.3710 C   0  0  0  0  0  0  0  0  0  0  0  0
    6.3440   -0.6410   -0.6540 C   0  0  1  0  0  0  0  0  0  0  0  0
    7.4350   -1.6200   -0.9360 C   0  0  0  0  0  0  0  0  0  0  0  0
    6.6760    0.7800   -1.0600 C   0  0  0  0  0  0  0  0  0  0  0  0
  2  1  1  1
  2  3  1  0
  2 34  1  0
  3  4  1  0
  4  5  1  6
  4 31  1  0
  5  6  2  0
  5 30  1  0
  6  7  1  0
  7  8  2  0
  8  9  1  0
  8 30  1  0
  9 10  1  0
 11 10  1  1
 11 12  1  0
 11 29  1  0
 13 12  1  6
 13 14  1  0
 13 19  1  0
 14 15  1  1
 14 22  1  0
 15 16  1  0
 16 17  1  1
 16 18  1  0
 16 19  1  0
 19 20  1  6
 19 21  1  0
 22 23  1  1
 22 28  1  0
 22 29  1  0
 23 24  1  0
 24 25  1  0
 25 26  1  0
 26 27  1  6
 26 28  1  0
 31 32  1  0
 32 33  1  6
 32 34  1  0
M  END
