
     RDKit          3D

 34 38  0  0  0  0  0  0  0  0999 V2000
   -3.5710   -3.6710    1.5460 C   0  0  0  0  0  0  0  0  0  0  0  0
   -2.6820   -3.0290    0.4780 C   0  0  1  0  0  0  0  0  0  0  0  0
   -3.5720   -2.6580   -0.6520 C   0  0  0  0  0  0  0  0  0  0  0  0
   -2.9740   -1.3940   -1.2000 C   0  0  0  0  0  0  0  0  0  0  0  0
   -2.3280   -0.6790   -0.0460 C   0  0  1  0  0  0  0  0  0  0  0  0
   -2.0650   -1.7480    0.9750 C   0  0  0  0  0  0  0  0  0  0  0  0
   -1.1830    0.1920   -0.3530 C   0  0  1  0  0  0  0  0  0  0  0  0
    0.1740   -0.3630   -0.5210 C   0  0  1  0  0  0  0  0  0  0  0  0
    0.4150   -1.2760   -1.6890 C   0  0  0  0  0  0  0  0  0  0  0  0
    0.4120   -2.7400   -1.3550 C   0  0  0  0  0  0  0  0  0  0  0  0
    1.4680   -3.4920   -2.1020 C   0  0  0  0  0  0  0  0  0  0  0  0
    2.7210   -3.5630   -1.7070 C   0  0  0  0  0  0  0  0  0  0  0  0
    3.2510   -2.9120   -0.4770 C   0  0  0  0  0  0  0  0  0  0  0  0
    4.4760   -2.3720   -0.7870 O   0  0  0  0  0  0  0  0  0  0  0  0
    4.4790   -1.0050   -0.9520 C   0  0  0  0  0  0  0  0  0  0  0  0
    4.2740   -0.2890    0.3660 C   0  0  0  0  0  0  0  0  0  0  0  0
    4.3860    1.1690    0.1270 C   0  0  2  0  0  0  0  0  0  0  0  0
    5.0230    1.8000    1.3730 C   0  0  0  0  0  0  0  0  0  0  0  0
    5.7270    3.0610    0.8840 C   0  0  0  0  0  0  0  0  0  0  0  0
    4.7420    3.8320    0.0460 C   0  0  0  0  0  0  0  0  0  0  0  0
    3.3300    3.3820    0.2380 C   0  0  0  0  0  0  0  0  0  0  0  0
    3.1650    1.9200   -0.2080 C   0  0  2  0  0  0  0  0  0  0  0  0
    1.8780    1.4380    0.3410 C   0  0  0  0  0  0  0  0  0  0  0  0
    1.0780    0.8360   -0.7540 C   0  0  0  0  0  0  0  0  0  0  0  0
    1.0850    1.2490   -1.9000 O   0  0  0  0  0  0  0  0  0  0  0  0
   -1.4790    0.8960   -1.5280 O   0  0  0  0  0  0  0  0  0  0  0  0
   -2.6170    1.6440   -1.4890 C   0  0  0  0  0  0  0  0  0  0  0  0
   -3.2590    1.6350   -0.1490 C   0  0  1  0  0  0  0  0  0  0  0  0
   -4.5900    2.3570   -0.1110 C   0  0  0  0  0  0  0  0  0  0  0  0
   -5.1010    2.1810    1.3040 C   0  0  0  0  0  0  0  0  0  0  0  0
   -4.0040    1.8310    2.2820 C   0  0  0  0  0  0  0  0  0  0  0  0
   -3.3630    0.4750    1.9650 C   0  0  0  0  0  0  0  0  0  0  0  0
   -3.4340    0.2820    0.4670 C   0  0  2  0  0  0  0  0  0  0  0  0
   -4.6660   -0.3020    0.2160 O   0  0  0  0  0  0  0  0  0  0  0  0
  2  1  1  1
  2  3  1  0
  2  6  1  0
  3  4  1  0
  5  4  1  6
  5  6  1  0
  5  7  1  0
  5 33  1  0
  7  8  1  0
  7 26  1  6
  8  9  1  6
  8 24  1  0
  9 10  1  0
 10 11  1  0
 11 12  2  0
 12 13  1  0
 13 14  1  0
 14 15  1  0
 15 16  1  0
 17 16  1  1
 17 18  1  0
 17 22  1  0
 18 19  1  0
 19 20  1  0
 20 21  1  0
 22 21  1  1
 22 23  1  0
 23 24  1  0
 24 25  2  0
 26 27  1  0
 28 27  1  6
 28 29  1  0
 28 33  1  0
 29 30  1  0
 30 31  1  0
 31 32  1  0
 32 33  1  0
 33 34  1  1
M  END
