
     RDKit          3D

 34 38  0  0  0  0  0  0  0  0999 V2000
    4.6940    2.2260    2.8480 C   0  0  0  0  0  0  0  0  0  0  0  0
    4.4630    1.0250    2.0010 C   0  0  0  0  0  0  0  0  0  0  0  0
    4.1350   -0.1830    2.5500 C   0  0  0  0  0  0  0  0  0  0  0  0
    3.9390   -1.2470    1.6780 C   0  0  0  0  0  0  0  0  0  0  0  0
    4.0690   -1.0930    0.3170 C   0  0  0  0  0  0  0  0  0  0  0  0
    4.4000    0.1270   -0.2290 C   0  0  0  0  0  0  0  0  0  0  0  0
    4.5970    1.1890    0.6220 C   0  0  0  0  0  0  0  0  0  0  0  0
    4.4850    0.0400   -1.7210 C   0  0  0  0  0  0  0  0  0  0  0  0
    4.6810   -1.4510   -1.9180 C   0  0  0  0  0  0  0  0  0  0  0  0
    3.9120   -2.0650   -0.7640 C   0  0  2  0  0  0  0  0  0  0  0  0
    2.4830   -2.3600   -1.1380 C   0  0  2  0  0  0  0  0  0  0  0  0
    2.4160   -3.3820   -2.2620 C   0  0  0  0  0  0  0  0  0  0  0  0
    1.7490   -1.2230   -1.4460 O   0  0  0  0  0  0  0  0  0  0  0  0
    0.6470   -1.0490   -0.6120 C   0  0  2  0  0  0  0  0  0  0  0  0
   -0.6080   -1.2370   -1.3990 C   0  0  0  0  0  0  0  0  0  0  0  0
   -1.3390    0.1090   -1.5410 C   0  0  2  0  0  0  0  0  0  0  0  0
   -0.6570    0.8950   -2.5060 C   0  0  0  0  0  0  0  0  0  0  0  0
   -1.7590    0.6430   -0.1560 C   0  0  2  0  0  0  0  0  0  0  0  0
   -2.7390   -0.3270    0.3980 C   0  0  1  0  0  0  0  0  0  0  0  0
   -2.3160   -1.3930    1.3310 C   0  0  0  0  0  0  0  0  0  0  0  0
   -3.3900   -2.5080    1.2420 C   0  0  0  0  0  0  0  0  0  0  0  0
   -4.6460   -2.0690    1.5270 O   0  0  0  0  0  0  0  0  0  0  0  0
   -5.0760   -0.9710    0.8140 C   0  0  0  0  0  0  0  0  0  0  0  0
   -4.0060    0.1230    1.0570 C   0  0  1  0  0  0  0  0  0  0  0  0
   -3.9460    0.0580    2.4800 O   0  0  0  0  0  0  0  0  0  0  0  0
   -4.6040    1.3960    0.7010 C   0  0  0  0  0  0  0  0  0  0  0  0
   -3.4770    2.3860    0.5540 C   0  0  0  0  0  0  0  0  0  0  0  0
   -2.5970    1.8660   -0.5410 C   0  0  2  0  0  0  0  0  0  0  0  0
   -3.5520    1.4820   -1.6870 C   0  0  0  0  0  0  0  0  0  0  0  0
   -1.9230    2.9520   -0.9940 O   0  0  0  0  0  0  0  0  0  0  0  0
   -0.5040    0.9320    0.5500 C   0  0  2  0  0  0  0  0  0  0  0  0
   -0.5560    0.7710    2.0800 C   0  0  0  0  0  0  0  0  0  0  0  0
   -0.0770    2.4190    0.4520 C   0  0  0  0  0  0  0  0  0  0  0  0
    0.7490    0.2140    0.1390 C   0  0  0  0  0  0  0  0  0  0  0  0
  1  2  1  0
  2  3  2  0
  2  7  1  0
  3  4  1  0
  4  5  2  0
  5  6  1  0
  5 10  1  0
  6  7  2  0
  6  8  1  0
  8  9  1  0
 10  9  1  6
 10 11  1  0
 11 12  1  6
 11 13  1  0
 14 13  1  6
 14 15  1  0
 14 34  1  0
 15 16  1  0
 16 17  1  1
 18 16  1  6
 18 19  1  0
 18 28  1  0
 18 31  1  0
 19 20  1  1
 19 24  1  0
 20 21  1  0
 21 22  1  0
 22 23  1  0
 23 24  1  0
 24 25  1  1
 24 26  1  0
 26 27  1  0
 27 28  1  0
 28 29  1  6
 28 30  1  0
 31 32  1  1
 31 33  1  0
 31 34  1  0
M  END
