
     RDKit          3D

 34 38  0  0  0  0  0  0  0  0999 V2000
    6.9630   -0.1430   -0.8490 C   0  0  0  0  0  0  0  0  0  0  0  0
    5.5910   -0.5080   -0.3260 C   0  0  1  0  0  0  0  0  0  0  0  0
    5.2130   -1.8480   -0.8550 C   0  0  0  0  0  0  0  0  0  0  0  0
    5.5910   -0.5700    1.1540 C   0  0  0  0  0  0  0  0  0  0  0  0
    6.5500   -0.9890    1.8540 O   0  0  0  0  0  0  0  0  0  0  0  0
    4.2960   -0.0620    1.5950 C   0  0  0  0  0  0  0  0  0  0  0  0
    3.9910    0.0030    2.8040 O   0  0  0  0  0  0  0  0  0  0  0  0
    3.5220    0.3160    0.3880 C   0  0  0  0  0  0  0  0  0  0  0  0
    2.2060    0.3610    0.3730 C   0  0  0  0  0  0  0  0  0  0  0  0
    1.3900    0.7260   -0.7810 C   0  0  0  0  0  0  0  0  0  0  0  0
    0.0320    1.2390   -0.2260 C   0  0  2  0  0  0  0  0  0  0  0  0
    0.3560    2.1990    0.6800 O   0  0  0  0  0  0  0  0  0  0  0  0
   -0.7420    0.0740    0.1650 C   0  0  2  0  0  0  0  0  0  0  0  0
   -2.1330    0.1940    0.6710 C   0  0  1  0  0  0  0  0  0  0  0  0
   -2.0820    0.9460    1.9850 C   0  0  0  0  0  0  0  0  0  0  0  0
   -3.2440    1.8850    2.0510 C   0  0  0  0  0  0  0  0  0  0  0  0
   -4.0780    1.5730    0.8730 C   0  0  0  0  0  0  0  0  0  0  0  0
   -3.1830    0.8200   -0.1320 C   0  0  1  0  0  0  0  0  0  0  0  0
   -2.7840    1.9290   -1.1000 C   0  0  0  0  0  0  0  0  0  0  0  0
   -4.1230   -0.0430   -0.9160 C   0  0  1  0  0  0  0  0  0  0  0  0
   -5.5020    0.5640   -1.1020 C   0  0  0  0  0  0  0  0  0  0  0  0
   -3.5810   -0.2080   -2.3540 C   0  0  0  0  0  0  0  0  0  0  0  0
   -4.3290   -1.4270   -0.4510 C   0  0  2  0  0  0  0  0  0  0  0  0
   -4.9470   -1.6550    0.8630 C   0  0  0  0  0  0  0  0  0  0  0  0
   -3.8240   -1.3090    1.8160 C   0  0  0  0  0  0  0  0  0  0  0  0
   -2.5660   -1.2210    1.0020 C   0  0  1  0  0  0  0  0  0  0  0  0
   -2.9410   -2.0240   -0.2270 C   0  0  0  0  0  0  0  0  0  0  0  0
    0.0830   -0.6980    1.1870 C   0  0  1  0  0  0  0  0  0  0  0  0
    0.5800   -2.0310    0.6680 C   0  0  0  0  0  0  0  0  0  0  0  0
    1.3170   -2.7010    1.6680 O   0  0  0  0  0  0  0  0  0  0  0  0
    1.3880    0.0340    1.5630 C   0  0  0  0  0  0  0  0  0  0  0  0
    4.5660    0.5670   -0.6040 C   0  0  2  0  0  0  0  0  0  0  0  0
    4.1600    0.6450   -2.0230 C   0  0  0  0  0  0  0  0  0  0  0  0
    5.2640    1.8880   -0.2400 C   0  0  0  0  0  0  0  0  0  0  0  0
  2  1  1  6
  2  3  1  0
  2  4  1  0
  2 32  1  0
  4  5  2  0
  4  6  1  0
  6  7  2  0
  6  8  1  0
  8  9  2  3
  8 32  1  0
  9 10  1  0
  9 31  1  0
 10 11  1  0
 11 12  1  1
 13 11  1  1
 13 14  1  0
 13 28  1  0
 14 15  1  1
 14 18  1  0
 14 26  1  0
 15 16  1  0
 16 17  1  0
 17 18  1  0
 18 19  1  6
 18 20  1  0
 20 21  1  6
 20 22  1  0
 20 23  1  0
 23 24  1  1
 23 27  1  0
 24 25  1  0
 26 25  1  1
 26 27  1  0
 28 29  1  6
 28 31  1  0
 29 30  1  0
 32 33  1  6
 32 34  1  0
M  END
