
     RDKit          3D

 34 35  0  0  0  0  0  0  0  0999 V2000
   -3.9140    0.6840    4.2430 C   0  0  0  0  0  0  0  0  0  0  0  0
   -4.5860   -0.4300    3.5160 C   0  0  0  0  0  0  0  0  0  0  0  0
   -3.8870   -0.8690    2.3050 C   0  0  0  0  0  0  0  0  0  0  0  0
   -3.1940   -2.0620    2.3710 C   0  0  0  0  0  0  0  0  0  0  0  0
   -2.5350   -2.5040    1.2560 C   0  0  0  0  0  0  0  0  0  0  0  0
   -1.8290   -3.6870    1.2690 O   0  0  0  0  0  0  0  0  0  0  0  0
   -2.5640   -1.7600    0.0700 C   0  0  0  0  0  0  0  0  0  0  0  0
   -1.8840   -2.2640   -0.9900 O   0  0  0  0  0  0  0  0  0  0  0  0
   -1.6690   -1.8060   -2.2750 C   0  0  0  0  0  0  0  0  0  0  0  0
   -0.8970   -0.5190   -2.4020 C   0  0  0  0  0  0  0  0  0  0  0  0
    0.3670   -0.7480   -1.8050 O   0  0  0  0  0  0  0  0  0  0  0  0
    1.3560    0.1930   -1.7210 C   0  0  0  0  0  0  0  0  0  0  0  0
    1.2550    1.4730   -2.2010 C   0  0  0  0  0  0  0  0  0  0  0  0
    2.2960    2.3710   -2.0820 C   0  0  0  0  0  0  0  0  0  0  0  0
    3.4880    2.0410   -1.4790 C   0  0  0  0  0  0  0  0  0  0  0  0
    4.5960    2.9790   -1.3460 C   0  0  0  0  0  0  0  0  0  0  0  0
    5.6510    2.5930   -0.7860 O   0  0  0  0  0  0  0  0  0  0  0  0
    4.5520    4.3130   -1.8130 N   0  0  0  0  0  0  0  0  0  0  0  0
    5.6520    5.2110   -1.6670 C   0  0  0  0  0  0  0  0  0  0  0  0
    6.7030    4.8060   -1.1010 O   0  0  0  0  0  0  0  0  0  0  0  0
    3.5960    0.7380   -0.9890 C   0  0  0  0  0  0  0  0  0  0  0  0
    2.5620   -0.1640   -1.1040 C   0  0  0  0  0  0  0  0  0  0  0  0
    2.6680   -1.4410   -0.6240 O   0  0  0  0  0  0  0  0  0  0  0  0
    3.7440   -2.0340    0.0220 C   0  0  2  0  0  0  0  0  0  0  0  0
    4.2820   -3.2190   -0.7930 C   0  0  0  0  0  0  0  0  0  0  0  0
    3.3110   -2.5400    1.3610 C   0  0  0  0  0  0  0  0  0  0  0  0
    4.2830   -3.1770    2.1710 N   0  0  0  0  0  0  0  0  0  0  0  0
    2.1290   -2.3920    1.7260 O   0  0  0  0  0  0  0  0  0  0  0  0
   -3.2820   -0.5600    0.0590 C   0  0  0  0  0  0  0  0  0  0  0  0
   -3.9520   -0.0890    1.1580 C   0  0  0  0  0  0  0  0  0  0  0  0
   -4.6820    1.1050    1.2300 N   0  0  0  0  0  0  0  0  0  0  0  0
   -4.8820    2.0120    0.1790 C   0  0  0  0  0  0  0  0  0  0  0  0
   -5.6470    3.2060    0.3590 N   0  0  0  0  0  0  0  0  0  0  0  0
   -4.4070    1.8230   -0.9540 O   0  0  0  0  0  0  0  0  0  0  0  0
  1  2  1  0
  2  3  1  0
  3  4  2  0
  3 30  1  0
  4  5  1  0
  5  6  1  0
  5  7  2  0
  7  8  1  0
  7 29  1  0
  8  9  1  0
  9 10  1  0
 10 11  1  0
 11 12  1  0
 12 13  2  0
 12 22  1  0
 13 14  1  0
 14 15  2  0
 15 16  1  0
 15 21  1  0
 16 17  2  0
 16 18  1  0
 18 19  1  0
 19 20  2  0
 21 22  2  0
 22 23  1  0
 23 24  1  0
 24 25  1  6
 24 26  1  0
 26 27  1  0
 26 28  2  0
 29 30  2  0
 30 31  1  0
 31 32  1  0
 32 33  1  0
 32 34  2  0
M  END
