
     RDKit          3D

 26 29  0  0  0  0  0  0  0  0999 V2000
   -3.5680   -4.2850    0.1530 C   0  0  0  0  0  0  0  0  0  0  0  0
   -3.0730   -2.8720   -0.0080 C   0  0  0  0  0  0  0  0  0  0  0  0
   -1.7220   -2.6930   -0.1330 C   0  0  0  0  0  0  0  0  0  0  0  0
   -1.1820   -1.4220   -0.2870 C   0  0  0  0  0  0  0  0  0  0  0  0
    0.2250   -1.1670   -0.3020 N   0  0  0  0  0  0  0  0  0  0  0  0
    1.2210   -2.0840   -0.6310 C   0  0  0  0  0  0  0  0  0  0  0  0
    0.8200   -3.2670   -0.9460 O   0  0  0  0  0  0  0  0  0  0  0  0
    2.6610   -1.8610   -0.6560 C   0  0  0  0  0  0  0  0  0  0  0  0
    3.5950   -2.8750   -0.6480 N   0  0  0  0  0  0  0  0  0  0  0  0
    4.7960   -2.3660   -0.7030 N   0  0  0  0  0  0  0  0  0  0  0  0
    4.7610   -1.0340   -0.7500 C   0  0  0  0  0  0  0  0  0  0  0  0
    3.3740   -0.7120   -0.7210 C   0  0  0  0  0  0  0  0  0  0  0  0
    3.1110    0.7340   -0.7980 C   0  0  0  0  0  0  0  0  0  0  0  0
    3.8800    1.3650    0.3810 C   0  0  0  0  0  0  0  0  0  0  0  0
    5.3490    1.1720    0.2050 C   0  0  0  0  0  0  0  0  0  0  0  0
    5.7040    0.1100   -0.8130 C   0  0  0  0  0  0  0  0  0  0  0  0
   -2.0990   -0.3940   -0.3050 C   0  0  0  0  0  0  0  0  0  0  0  0
   -3.4440   -0.6380   -0.1710 C   0  0  0  0  0  0  0  0  0  0  0  0
   -3.9470   -1.8670   -0.0230 N   0  0  0  0  0  0  0  0  0  0  0  0
   -4.6020    0.2940   -0.1180 C   0  0  0  0  0  0  0  0  0  0  0  0
   -4.7760    1.5170    0.3310 C   0  0  0  0  0  0  0  0  0  0  0  0
   -3.9150    2.5170    0.9820 C   0  0  0  0  0  0  0  0  0  0  0  0
   -2.6850    2.8140    0.3080 N   0  0  0  0  0  0  0  0  0  0  0  0
   -2.4580    4.2430    0.2010 C   0  0  0  0  0  0  0  0  0  0  0  0
   -1.6300    2.0960   -0.2830 C   0  0  0  0  0  0  0  0  0  0  0  0
   -1.3220    0.8360   -0.5620 C   0  0  0  0  0  0  0  0  0  0  0  0
  1  2  1  0
  2  3  2  0
  2 19  1  0
  3  4  1  0
  4  5  1  0
  4 17  2  0
  5  6  1  0
  6  7  2  0
  6  8  1  0
  8  9  1  0
  8 12  2  0
  9 10  1  0
 10 11  2  0
 11 12  1  0
 11 16  1  0
 12 13  1  0
 13 14  1  0
 14 15  1  0
 15 16  1  0
 17 18  1  0
 17 26  1  0
 18 19  2  0
 18 20  1  0
 20 21  2  0
 21 22  1  0
 22 23  1  0
 23 24  1  0
 23 25  1  0
 25 26  2  0
M  END
