
     RDKit          3D

  9  9  0  0  0  0  0  0  0  0999 V2000
    2.5340    0.7520    0.2140 C   0  0  0  0  0  0  0  0  0  0  0  0
    1.4970    0.1700    0.9440 O   0  0  0  0  0  0  0  0  0  0  0  0
    0.5060   -0.1910    0.0610 C   0  0  2  0  0  0  0  0  0  0  0  0
   -0.8610    0.3210    0.4420 C   0  0  1  0  0  0  0  0  0  0  0  0
   -1.1430    1.6300   -0.0710 N   0  0  0  0  0  0  0  0  0  0  0  0
   -1.7560   -0.7470   -0.1620 C   0  0  0  0  0  0  0  0  0  0  0  0
   -0.9450   -1.7500   -0.6310 O   0  0  0  0  0  0  0  0  0  0  0  0
    0.2320   -1.6990    0.1270 C   0  0  2  0  0  0  0  0  0  0  0  0
   -0.0050   -2.0940    1.4360 O   0  0  0  0  0  0  0  0  0  0  0  0
  1  2  1  0
  3  2  1  1
  3  4  1  0
  3  8  1  0
  4  5  1  6
  4  6  1  0
  6  7  1  0
  7  8  1  0
  8  9  1  1
M  CHG  1   5   1
M  END
