
     RDKit          3D

  9  9  0  0  0  0  0  0  0  0999 V2000
    2.7200    0.2740   -0.1880 N   0  0  0  0  0  0  0  0  0  0  0  0
    1.3360    0.7350   -0.0910 C   0  0  0  0  0  0  0  0  0  0  0  0
    0.5180   -0.4090    0.4460 C   0  0  2  0  0  0  0  0  0  0  0  0
    0.5440   -1.5190   -0.3390 O   0  0  0  0  0  0  0  0  0  0  0  0
   -0.6310   -1.9090   -0.6460 O   0  0  0  0  0  0  0  0  0  0  0  0
   -1.5450   -1.4020    0.2590 C   0  0  0  0  0  0  0  0  0  0  0  0
   -0.9460   -0.0370    0.5350 C   0  0  2  0  0  0  0  0  0  0  0  0
   -1.3120    0.8920   -0.5810 C   0  0  0  0  0  0  0  0  0  0  0  0
   -2.6630    1.2300   -0.4940 O   0  0  0  0  0  0  0  0  0  0  0  0
  1  2  1  0
  3  2  1  6
  3  4  1  0
  3  7  1  0
  4  5  1  0
  5  6  1  0
  6  7  1  0
  7  8  1  6
  8  9  1  0
M  CHG  1   1   1
M  END
