
     RDKit          3D

 26 29  0  0  0  0  0  0  0  0999 V2000
   -3.9410    0.7820    2.3400 C   0  0  0  0  0  0  0  0  0  0  0  0
   -3.7250   -0.2990    1.2710 C   0  0  0  0  0  0  0  0  0  0  0  0
   -3.7280    0.4140   -0.0530 C   0  0  1  0  0  0  0  0  0  0  0  0
   -2.6600    1.3800   -0.0560 N   0  0  0  0  0  0  0  0  0  0  0  0
   -1.3130    0.8980   -0.0330 C   0  0  0  0  0  0  0  0  0  0  0  0
   -0.2420    1.7670   -0.0090 C   0  0  0  0  0  0  0  0  0  0  0  0
    1.0420    1.2910   -0.0010 C   0  0  0  0  0  0  0  0  0  0  0  0
    1.3020   -0.0720   -0.0180 C   0  0  0  0  0  0  0  0  0  0  0  0
    2.6670   -0.5760   -0.0090 C   0  0  0  0  0  0  0  0  0  0  0  0
    2.9970   -1.8810   -0.0240 N   0  0  0  0  0  0  0  0  0  0  0  0
    4.2860   -2.0220   -0.0120 O   0  0  0  0  0  0  0  0  0  0  0  0
    4.8140   -0.8230    0.0110 C   0  0  0  0  0  0  0  0  0  0  0  0
    6.2550   -0.5760    0.0310 C   0  0  0  0  0  0  0  0  0  0  0  0
    7.1670   -1.6030    0.0270 C   0  0  0  0  0  0  0  0  0  0  0  0
    8.5180   -1.3300    0.0460 C   0  0  0  0  0  0  0  0  0  0  0  0
    9.0060   -0.0390    0.0700 C   0  0  0  0  0  0  0  0  0  0  0  0
    8.0960    1.0050    0.0750 C   0  0  0  0  0  0  0  0  0  0  0  0
    6.7520    0.7110    0.0550 C   0  0  0  0  0  0  0  0  0  0  0  0
    3.8240    0.0820    0.0130 N   0  0  0  0  0  0  0  0  0  0  0  0
    0.2190   -0.9240   -0.0420 C   0  0  0  0  0  0  0  0  0  0  0  0
   -1.0230   -0.4140   -0.0490 N   0  0  0  0  0  0  0  0  0  0  0  0
   -3.5070   -0.5500   -1.2000 C   0  0  0  0  0  0  0  0  0  0  0  0
   -4.8130   -0.8940   -1.9030 C   0  0  0  0  0  0  0  0  0  0  0  0
   -5.8880   -1.1210   -0.9730 N   0  0  0  0  0  0  0  0  0  0  0  0
   -6.1460    0.0220   -0.1320 C   0  0  0  0  0  0  0  0  0  0  0  0
   -5.0740    1.0720   -0.2350 C   0  0  0  0  0  0  0  0  0  0  0  0
  1  2  1  0
  3  2  1  1
  3  4  1  0
  3 22  1  0
  3 26  1  0
  4  5  1  0
  5  6  2  0
  5 21  1  0
  6  7  1  0
  7  8  2  0
  8  9  1  0
  8 20  1  0
  9 10  2  0
  9 19  1  0
 10 11  1  0
 11 12  1  0
 12 13  1  0
 12 19  2  0
 13 14  2  0
 13 18  1  0
 14 15  1  0
 15 16  2  0
 16 17  1  0
 17 18  2  0
 20 21  2  0
 22 23  1  0
 23 24  1  0
 24 25  1  0
 25 26  1  0
M  END
