
     RDKit          3D

  9  9  0  0  0  0  0  0  0  0999 V2000
    2.3190    0.2450   -0.3080 N   0  0  0  0  0  0  0  0  0  0  0  0
    1.3210    0.2410    0.7470 C   0  0  0  0  0  0  0  0  0  0  0  0
    0.0180   -0.1760    0.1440 C   0  0  1  0  0  0  0  0  0  0  0  0
    0.1790   -1.4480   -0.3940 O   0  0  0  0  0  0  0  0  0  0  0  0
   -1.1100   -0.2470    1.1520 C   0  0  0  0  0  0  0  0  0  0  0  0
   -2.2750   -0.1720    0.1840 C   0  0  0  0  0  0  0  0  0  0  0  0
   -1.8980    0.9490   -0.5810 O   0  0  0  0  0  0  0  0  0  0  0  0
   -0.5480    0.8170   -0.8260 C   0  0  2  0  0  0  0  0  0  0  0  0
   -0.2800    0.3970   -2.1230 O   0  0  0  0  0  0  0  0  0  0  0  0
  1  2  1  0
  2  3  1  0
  3  4  1  6
  3  5  1  0
  3  8  1  0
  5  6  1  0
  6  7  1  0
  7  8  1  0
  8  9  1  6
M  CHG  1   1   1
M  END
