
     RDKit          3D

 20 20  0  0  0  0  0  0  0  0999 V2000
   -2.5500   -0.2440    3.5540 C   0  0  0  0  0  0  0  0  0  0  0  0
   -1.7160   -0.6460    2.4020 C   0  0  0  0  0  0  0  0  0  0  0  0
   -0.8540   -1.7190    2.5810 O   0  0  0  0  0  0  0  0  0  0  0  0
   -1.7530   -0.0480    1.2460 C   0  0  0  0  0  0  0  0  0  0  0  0
   -2.6470    1.0930    1.0010 C   0  0  0  0  0  0  0  0  0  0  0  0
   -3.5250    0.7710   -0.0420 O   0  0  0  0  0  0  0  0  0  0  0  0
   -0.9110   -0.4900    0.1560 N   0  0  0  0  0  0  0  0  0  0  0  0
    0.0620    0.1920   -0.2640 C   0  0  0  0  0  0  0  0  0  0  0  0
    0.2560    1.4540    0.4450 N   0  0  0  0  0  0  0  0  0  0  0  0
    1.0190    1.4750    1.4940 C   0  0  0  0  0  0  0  0  0  0  0  0
    1.2390    2.6750    2.2170 N   0  0  0  0  0  0  0  0  0  0  0  0
    1.6570    0.2960    1.9510 N   0  0  0  0  0  0  0  0  0  0  0  0
    1.0040   -0.0950   -1.3330 C   0  0  0  0  0  0  0  0  0  0  0  0
    0.9770   -1.1780   -2.0610 C   0  0  0  0  0  0  0  0  0  0  0  0
   -0.0110   -2.2220   -1.8770 N   0  0  0  0  0  0  0  0  0  0  0  0
    1.9660   -1.4080   -3.1380 C   0  0  0  0  0  0  0  0  0  0  0  0
    1.8730   -2.5980   -3.8800 O   0  0  0  0  0  0  0  0  0  0  0  0
    2.8880   -0.5130   -3.3700 C   0  0  0  0  0  0  0  0  0  0  0  0
    2.9260    0.6320   -2.6080 O   0  0  0  0  0  0  0  0  0  0  0  0
    2.0720    0.9530   -1.5830 C   0  0  0  0  0  0  0  0  0  0  0  0
  1  2  1  0
  2  3  1  0
  2  4  2  3
  4  5  1  0
  4  7  1  0
  5  6  1  0
  7  8  2  3
  8  9  1  0
  8 13  1  0
  9 10  2  3
 10 11  1  0
 10 12  1  0
 13 14  2  0
 13 20  1  0
 14 15  1  0
 14 16  1  0
 16 17  1  0
 16 18  2  0
 18 19  1  0
 19 20  1  0
M  CHG  1   7   1
M  END
