
     RDKit          3D

 20 21  0  0  0  0  0  0  0  0999 V2000
   -2.9220   -0.6940    1.5210 C   0  0  0  0  0  0  0  0  0  0  0  0
   -2.7380   -0.9040    0.0240 C   0  0  1  0  0  0  0  0  0  0  0  0
   -4.0130   -1.0100   -0.6120 N   0  0  0  0  0  0  0  0  0  0  0  0
   -4.7030    0.2020   -0.4820 N   0  0  0  0  0  0  0  0  0  0  0  0
   -4.0280    1.3520   -0.9990 C   0  0  0  0  0  0  0  0  0  0  0  0
   -4.6850    2.3300   -1.4410 O   0  0  0  0  0  0  0  0  0  0  0  0
   -2.5710    1.3420   -0.9900 C   0  0  0  0  0  0  0  0  0  0  0  0
   -1.9760    0.2450   -0.4930 C   0  0  0  0  0  0  0  0  0  0  0  0
   -0.5620    0.1550   -0.4490 N   0  0  0  0  0  0  0  0  0  0  0  0
    0.1170   -0.7540   -1.3320 C   0  0  0  0  0  0  0  0  0  0  0  0
    1.5650   -0.2830   -1.4220 C   0  0  0  0  0  0  0  0  0  0  0  0
    2.1980   -0.3880   -0.0410 C   0  0  1  0  0  0  0  0  0  0  0  0
    2.3870   -1.7450    0.2020 O   0  0  0  0  0  0  0  0  0  0  0  0
    3.5590    0.2130   -0.1650 C   0  0  0  0  0  0  0  0  0  0  0  0
    4.5200   -0.3090   -1.0550 N   0  0  0  0  0  0  0  0  0  0  0  0
    3.8400    1.2300    0.5660 N   0  0  0  0  0  0  0  0  0  0  0  0
    5.0340    1.8790    0.5600 O   0  0  0  0  0  0  0  0  0  0  0  0
    1.3990    0.2950    1.0190 C   0  0  2  0  0  0  0  0  0  0  0  0
    1.0900   -0.5300    2.0960 O   0  0  0  0  0  0  0  0  0  0  0  0
    0.1520    0.9740    0.4760 C   0  0  0  0  0  0  0  0  0  0  0  0
  2  1  1  1
  2  3  1  0
  2  8  1  0
  3  4  1  0
  4  5  1  0
  5  6  2  0
  5  7  1  0
  7  8  2  0
  8  9  1  0
  9 10  1  0
  9 20  1  0
 10 11  1  0
 11 12  1  0
 12 13  1  1
 12 14  1  0
 12 18  1  0
 14 15  1  0
 14 16  2  3
 16 17  1  0
 18 19  1  1
 18 20  1  0
M  END
