
     RDKit          3D

 20 21  0  0  0  0  0  0  0  0999 V2000
   -4.5800   -0.2410    2.4420 N   0  0  0  0  0  0  0  0  0  0  0  0
   -4.2110   -0.0110    1.0870 C   0  0  0  0  0  0  0  0  0  0  0  0
   -5.1110    0.1920    0.0720 C   0  0  0  0  0  0  0  0  0  0  0  0
   -4.7150    0.4100   -1.2220 C   0  0  0  0  0  0  0  0  0  0  0  0
   -5.6540    0.6160   -2.2520 O   0  0  0  0  0  0  0  0  0  0  0  0
   -3.3610    0.4390   -1.5780 C   0  0  0  0  0  0  0  0  0  0  0  0
   -3.0430    0.6640   -2.8940 O   0  0  0  0  0  0  0  0  0  0  0  0
   -2.4390    0.2330   -0.5440 C   0  0  0  0  0  0  0  0  0  0  0  0
   -1.0770    0.2680   -0.9350 N   0  0  0  0  0  0  0  0  0  0  0  0
    0.0550    0.0940   -0.1140 C   0  0  0  0  0  0  0  0  0  0  0  0
   -0.0980   -0.1170    1.1040 O   0  0  0  0  0  0  0  0  0  0  0  0
    1.3930    0.1590   -0.6710 N   0  0  0  0  0  0  0  0  0  0  0  0
    2.4980   -0.0240    0.2070 C   0  0  1  0  0  0  0  0  0  0  0  0
    3.3540   -1.2330   -0.1970 C   0  0  0  0  0  0  0  0  0  0  0  0
    4.4420   -1.3370    0.8500 C   0  0  0  0  0  0  0  0  0  0  0  0
    5.2670   -0.1640    0.9200 N   0  0  0  0  0  0  0  0  0  0  0  0
    4.7980    0.9030    0.1700 N   0  0  0  0  0  0  0  0  0  0  0  0
    3.3960    1.1590    0.0760 C   0  0  0  0  0  0  0  0  0  0  0  0
    2.9620    2.3240   -0.1060 O   0  0  0  0  0  0  0  0  0  0  0  0
   -2.8550    0.0160    0.7410 C   0  0  0  0  0  0  0  0  0  0  0  0
  1  2  1  0
  2  3  2  0
  2 20  1  0
  3  4  1  0
  4  5  1  0
  4  6  2  0
  6  7  1  0
  6  8  1  0
  8  9  1  0
  8 20  2  0
  9 10  1  0
 10 11  2  0
 10 12  1  0
 13 12  1  6
 13 14  1  0
 13 18  1  0
 14 15  1  0
 15 16  1  0
 16 17  1  0
 17 18  1  0
 18 19  2  0
M  CHG  1  16   1
M  END
