
     RDKit          3D

 17 17  0  0  0  0  0  0  0  0999 V2000
   -2.8310    2.0960   -0.3940 C   0  0  0  0  0  0  0  0  0  0  0  0
   -3.1260    0.6760   -0.0790 C   0  0  0  0  0  0  0  0  0  0  0  0
   -2.2660   -0.3120   -0.3270 C   0  0  0  0  0  0  0  0  0  0  0  0
   -1.0530    0.0080   -0.9010 O   0  0  0  0  0  0  0  0  0  0  0  0
    0.1100   -0.1310   -0.1390 C   0  0  0  0  0  0  0  0  0  0  0  0
    0.0470   -0.5850    1.1740 C   0  0  0  0  0  0  0  0  0  0  0  0
    1.2170   -0.7050    1.8810 C   0  0  0  0  0  0  0  0  0  0  0  0
    2.3990   -0.3730    1.2630 C   0  0  0  0  0  0  0  0  0  0  0  0
    2.4820    0.0800   -0.0410 C   0  0  0  0  0  0  0  0  0  0  0  0
    3.7550    0.4200   -0.6560 C   0  0  0  0  0  0  0  0  0  0  0  0
    3.8440    0.8290   -1.8300 O   0  0  0  0  0  0  0  0  0  0  0  0
    4.9030    0.2820    0.0980 O   0  0  0  0  0  0  0  0  0  0  0  0
    1.2990    0.2000   -0.7520 C   0  0  0  0  0  0  0  0  0  0  0  0
    1.3640    0.6530   -2.0630 O   0  0  0  0  0  0  0  0  0  0  0  0
   -2.5960   -1.6910   -0.0010 C   0  0  0  0  0  0  0  0  0  0  0  0
   -3.7070   -1.9590    0.5210 O   0  0  0  0  0  0  0  0  0  0  0  0
   -1.6810   -2.6830   -0.2730 O   0  0  0  0  0  0  0  0  0  0  0  0
  1  2  1  0
  2  3  2  3
  3  4  1  0
  3 15  1  0
  4  5  1  0
  5  6  2  0
  5 13  1  0
  6  7  1  0
  7  8  2  0
  8  9  1  0
  9 10  1  0
  9 13  2  0
 10 11  2  0
 10 12  1  0
 13 14  1  0
 15 16  2  0
 15 17  1  0
M  END
