
     RDKit          3D

 19 20  0  0  0  0  0  0  0  0999 V2000
    2.9940    2.4950    1.1380 C   0  0  0  0  0  0  0  0  0  0  0  0
    2.9850    1.3020    0.2460 C   0  0  1  0  0  0  0  0  0  0  0  0
    4.2460    0.5670    0.6380 N   0  0  0  0  0  0  0  0  0  0  0  0
    3.9440   -0.7700    0.1710 C   0  0  0  0  0  0  0  0  0  0  0  0
    4.8700   -1.8200   -0.1000 N   0  0  0  0  0  0  0  0  0  0  0  0
    2.6760   -0.9490    0.1910 N   0  0  0  0  0  0  0  0  0  0  0  0
    2.0460    0.2220    0.7040 C   0  0  2  0  0  0  0  0  0  0  0  0
    0.6360    0.4370    0.3750 C   0  0  0  0  0  0  0  0  0  0  0  0
    0.1460    1.5240    0.0670 O   0  0  0  0  0  0  0  0  0  0  0  0
   -0.2480   -0.7040    0.4210 N   0  0  0  0  0  0  0  0  0  0  0  0
   -1.6160   -0.8090    0.2930 C   0  0  2  0  0  0  0  0  0  0  0  0
   -2.1610   -1.7350   -0.7280 C   0  0  0  0  0  0  0  0  0  0  0  0
   -3.6890   -1.8120   -0.5030 C   0  0  0  0  0  0  0  0  0  0  0  0
   -3.9780   -1.2310    0.8360 C   0  0  0  0  0  0  0  0  0  0  0  0
   -3.6390    0.1020    1.0220 O   0  0  0  0  0  0  0  0  0  0  0  0
   -2.4290    0.4220    0.4600 C   0  0  2  0  0  0  0  0  0  0  0  0
   -2.5520    1.4050   -0.5780 C   0  0  0  0  0  0  0  0  0  0  0  0
   -3.2900    2.6020   -0.4470 N   0  0  0  0  0  0  0  0  0  0  0  0
   -1.9620    1.2810   -1.7250 O   0  0  0  0  0  0  0  0  0  0  0  0
  2  1  1  1
  2  3  1  0
  2  7  1  0
  3  4  1  0
  4  5  1  0
  4  6  2  0
  6  7  1  0
  7  8  1  6
  8  9  2  0
  8 10  1  0
 11 10  1  6
 11 12  1  0
 11 16  1  0
 12 13  1  0
 13 14  1  0
 14 15  1  0
 15 16  1  0
 16 17  1  6
 17 18  1  0
 17 19  2  0
M  CHG  1   6   1
M  END
