
     RDKit          3D

 19 20  0  0  0  0  0  0  0  0999 V2000
    4.9810    1.3580    0.9280 N   0  0  0  0  0  0  0  0  0  0  0  0
    3.6520    1.0770    0.5560 C   0  0  0  0  0  0  0  0  0  0  0  0
    2.9270    1.9920    0.1160 O   0  0  0  0  0  0  0  0  0  0  0  0
    3.1310   -0.2860    0.6890 C   0  0  0  0  0  0  0  0  0  0  0  0
    1.7420   -0.4360    0.2780 N   0  0  0  0  0  0  0  0  0  0  0  0
    1.2960   -0.7440   -1.0570 C   0  0  0  0  0  0  0  0  0  0  0  0
    1.8890   -0.5100   -2.1320 O   0  0  0  0  0  0  0  0  0  0  0  0
   -0.0260   -1.3990   -0.8040 C   0  0  2  0  0  0  0  0  0  0  0  0
   -0.8080   -1.5690   -1.9640 N   0  0  0  0  0  0  0  0  0  0  0  0
   -0.5740   -0.5500    0.2790 C   0  0  2  0  0  0  0  0  0  0  0  0
   -1.7000   -1.2240    1.0440 C   0  0  0  0  0  0  0  0  0  0  0  0
   -2.9030   -1.2070    0.1340 C   0  0  0  0  0  0  0  0  0  0  0  0
   -3.3050    0.0900   -0.3110 N   0  0  0  0  0  0  0  0  0  0  0  0
   -2.2560    0.7970   -1.0490 C   0  0  0  0  0  0  0  0  0  0  0  0
   -1.0810    0.7610   -0.1610 C   0  0  0  0  0  0  0  0  0  0  0  0
   -0.5260    1.8700    0.2320 C   0  0  0  0  0  0  0  0  0  0  0  0
   -0.9840    3.1390   -0.1700 O   0  0  0  0  0  0  0  0  0  0  0  0
    0.6100   -0.3150    1.1280 C   0  0  0  0  0  0  0  0  0  0  0  0
    0.6510   -0.0550    2.3680 O   0  0  0  0  0  0  0  0  0  0  0  0
  1  2  1  0
  2  3  2  0
  2  4  1  0
  4  5  1  0
  5  6  1  0
  5 18  1  0
  6  7  2  0
  6  8  1  0
  8  9  1  6
  8 10  1  0
 10 11  1  1
 10 15  1  0
 10 18  1  0
 11 12  1  0
 12 13  1  0
 13 14  1  0
 14 15  1  0
 15 16  2  3
 16 17  1  0
 18 19  2  0
M  CHG  1  13   1
M  END
