
     RDKit          3D

 20 21  0  0  0  0  0  0  0  0999 V2000
   -3.7800   -0.7750    0.1430 N   0  0  0  0  0  0  0  0  0  0  0  0
   -2.5430   -1.3570    0.6200 C   0  0  2  0  0  0  0  0  0  0  0  0
   -1.7920   -0.3010    1.3820 C   0  0  0  0  0  0  0  0  0  0  0  0
   -0.9490    0.3910    0.3200 C   0  0  0  0  0  0  0  0  0  0  0  0
   -0.1720    1.4470    0.5510 C   0  0  0  0  0  0  0  0  0  0  0  0
    0.6730    2.1860   -0.3980 C   0  0  0  0  0  0  0  0  0  0  0  0
    1.9420    2.6510    0.2750 C   0  0  0  0  0  0  0  0  0  0  0  0
    1.7720    3.7050    0.9940 O   0  0  0  0  0  0  0  0  0  0  0  0
    3.2170    2.0640    0.1860 N   0  0  0  0  0  0  0  0  0  0  0  0
    3.6170    0.7860    0.5740 N   0  0  0  0  0  0  0  0  0  0  0  0
    2.9140   -0.2880    1.1550 C   0  0  0  0  0  0  0  0  0  0  0  0
    3.2060   -0.4490    2.4330 O   0  0  0  0  0  0  0  0  0  0  0  0
    1.9630   -1.2220    0.6270 C   0  0  0  0  0  0  0  0  0  0  0  0
    1.2140   -1.8250    1.5100 O   0  0  0  0  0  0  0  0  0  0  0  0
    1.6810   -1.6260   -0.6990 N   0  0  0  0  0  0  0  0  0  0  0  0
    1.1840   -0.9030   -1.7880 N   0  0  0  0  0  0  0  0  0  0  0  0
   -0.1130   -0.3460   -1.9330 C   0  0  0  0  0  0  0  0  0  0  0  0
   -0.4010    0.1830   -3.0430 O   0  0  0  0  0  0  0  0  0  0  0  0
   -1.1900   -0.3140   -0.9230 C   0  0  1  0  0  0  0  0  0  0  0  0
   -1.6190   -1.7080   -0.5290 C   0  0  0  0  0  0  0  0  0  0  0  0
  2  1  1  6
  2  3  1  0
  2 20  1  0
  3  4  1  0
  4  5  2  0
  4 19  1  0
  5  6  1  0
  6  7  1  0
  7  8  2  0
  7  9  1  0
  9 10  1  0
 10 11  1  0
 11 12  2  0
 11 13  1  0
 13 14  2  0
 13 15  1  0
 15 16  1  0
 16 17  1  0
 17 18  2  0
 17 19  1  0
 19 20  1  1
M  CHG  1   1   1
M  END
