
     RDKit          3D

 45 49  0  0  0  0  0  0  0  0999 V2000
   -6.3730   -4.2320   -2.5400 C   0  0  0  0  0  0  0  0  0  0  0  0
   -6.1060   -2.9250   -1.9300 N   0  0  0  0  0  0  0  0  0  0  0  0
   -4.7850   -2.5010   -1.7140 C   0  0  0  0  0  0  0  0  0  0  0  0
   -3.8510   -3.2500   -2.0500 O   0  0  0  0  0  0  0  0  0  0  0  0
   -4.5490   -1.1510   -1.0840 C   0  0  2  0  0  0  0  0  0  0  0  0
   -3.1580   -0.8530   -0.9990 N   0  0  0  0  0  0  0  0  0  0  0  0
   -2.8700    0.4880   -0.7170 C   0  0  2  0  0  0  0  0  0  0  0  0
   -3.3430    1.5120   -1.7230 C   0  0  0  0  0  0  0  0  0  0  0  0
   -3.6990    2.8260   -1.1470 C   0  0  0  0  0  0  0  0  0  0  0  0
   -2.9840    3.2840    0.0640 C   0  0  0  0  0  0  0  0  0  0  0  0
   -1.5750    3.1850    0.0260 O   0  0  0  0  0  0  0  0  0  0  0  0
   -0.8750    1.9860   -0.2370 C   0  0  0  0  0  0  0  0  0  0  0  0
    0.4950    2.1290   -0.1290 C   0  0  0  0  0  0  0  0  0  0  0  0
    1.3770    1.0950   -0.3450 C   0  0  0  0  0  0  0  0  0  0  0  0
    2.8180    1.1960   -0.3000 C   0  0  0  0  0  0  0  0  0  0  0  0
    3.5100    2.2720   -0.2870 C   0  0  0  0  0  0  0  0  0  0  0  0
    3.1850    3.6650   -0.3200 C   0  0  0  0  0  0  0  0  0  0  0  0
    3.4890    4.5800    0.6660 C   0  0  0  0  0  0  0  0  0  0  0  0
    3.2210    5.9230    0.5250 C   0  0  0  0  0  0  0  0  0  0  0  0
    3.5180    6.8300    1.4970 F   0  0  0  0  0  0  0  0  0  0  0  0
    2.6330    6.4190   -0.6230 C   0  0  0  0  0  0  0  0  0  0  0  0
    2.3220    5.5320   -1.6180 C   0  0  0  0  0  0  0  0  0  0  0  0
    1.7370    6.0130   -2.7650 F   0  0  0  0  0  0  0  0  0  0  0  0
    2.5870    4.1910   -1.4790 C   0  0  0  0  0  0  0  0  0  0  0  0
    3.5430   -0.0220   -0.2660 O   0  0  0  0  0  0  0  0  0  0  0  0
    4.5490   -0.2770    0.6010 N   0  0  0  0  0  0  0  0  0  0  0  0
    4.7210   -1.4890    1.3250 C   0  0  0  0  0  0  0  0  0  0  0  0
    3.8830   -2.4090    1.1600 O   0  0  0  0  0  0  0  0  0  0  0  0
    5.8570   -1.6580    2.2440 C   0  0  2  0  0  0  0  0  0  0  0  0
    7.1380   -1.5950    1.4460 C   0  0  0  0  0  0  0  0  0  0  0  0
    7.4560   -3.0400    1.2190 C   0  0  2  0  0  0  0  0  0  0  0  0
    7.1790   -3.4410   -0.2320 C   0  0  0  0  0  0  0  0  0  0  0  0
    6.5400   -3.7980    2.1130 C   0  0  0  0  0  0  0  0  0  0  0  0
    5.8320   -2.8850    2.8490 O   0  0  0  0  0  0  0  0  0  0  0  0
    0.8160   -0.1590   -0.6880 C   0  0  0  0  0  0  0  0  0  0  0  0
    1.6700   -1.2140   -0.9100 O   0  0  0  0  0  0  0  0  0  0  0  0
    1.3290   -2.5170   -1.2540 C   0  0  0  0  0  0  0  0  0  0  0  0
   -0.5580   -0.2830   -0.7900 C   0  0  0  0  0  0  0  0  0  0  0  0
   -1.3980    0.7630   -0.5710 C   0  0  0  0  0  0  0  0  0  0  0  0
   -5.3000   -1.0980    0.1970 C   0  0  0  0  0  0  0  0  0  0  0  0
   -6.0190   -2.0270    0.8450 C   0  0  0  0  0  0  0  0  0  0  0  0
   -6.6380   -1.6900    1.9870 C   0  0  0  0  0  0  0  0  0  0  0  0
   -6.5240   -0.4220    2.4620 C   0  0  0  0  0  0  0  0  0  0  0  0
   -7.0850    0.2410    3.6780 C   0  0  0  0  0  0  0  0  0  0  0  0
   -5.4750    0.3780    1.2320 S   0  0  0  0  0  0  0  0  0  0  0  0
  1  2  1  0
  2  3  1  0
  3  4  2  0
  3  5  1  0
  5  6  1  1
  5 40  1  0
  7  6  1  6
  7  8  1  0
  7 39  1  0
  8  9  1  0
  9 10  1  0
 10 11  1  0
 11 12  1  0
 12 13  2  0
 12 39  1  0
 13 14  1  0
 14 15  1  0
 14 35  2  0
 15 16  2  3
 15 25  1  0
 16 17  1  0
 17 18  2  0
 17 24  1  0
 18 19  1  0
 19 20  1  0
 19 21  2  0
 21 22  1  0
 22 23  1  0
 22 24  2  0
 25 26  1  0
 26 27  1  0
 27 28  2  0
 29 27  1  6
 29 30  1  0
 29 34  1  0
 30 31  1  0
 31 32  1  6
 31 33  1  0
 33 34  1  0
 35 36  1  0
 35 38  1  0
 36 37  1  0
 38 39  2  0
 40 41  2  0
 40 45  1  0
 41 42  1  0
 42 43  2  0
 43 44  1  0
 43 45  1  0
M  END
