
     RDKit          3D

 45 48  0  0  0  0  0  0  0  0999 V2000
    2.4020   -1.4930    0.6530 C   0  0  0  0  0  0  0  0  0  0  0  0
    1.8980   -2.3960   -0.4000 C   0  0  0  0  0  0  0  0  0  0  0  0
    0.5710   -2.5550   -0.4670 C   0  0  0  0  0  0  0  0  0  0  0  0
   -0.4300   -1.9210    0.4040 C   0  0  0  0  0  0  0  0  0  0  0  0
   -1.3640   -1.1290   -0.4910 C   0  0  0  0  0  0  0  0  0  0  0  0
   -1.1650   -1.1440   -1.6860 O   0  0  0  0  0  0  0  0  0  0  0  0
   -2.4330   -0.4020    0.0960 N   0  0  0  0  0  0  0  0  0  0  0  0
   -3.3830    0.3790   -0.5970 C   0  0  0  0  0  0  0  0  0  0  0  0
   -4.3700    1.0330    0.0600 C   0  0  0  0  0  0  0  0  0  0  0  0
   -4.4840    0.9680    1.5080 C   0  0  0  0  0  0  0  0  0  0  0  0
   -3.7490    0.1780    2.1640 O   0  0  0  0  0  0  0  0  0  0  0  0
   -5.3460    1.7190    2.3360 N   0  0  0  0  0  0  0  0  0  0  0  0
   -5.3940    1.5540    3.7860 C   0  0  1  0  0  0  0  0  0  0  0  0
   -5.0780    2.8060    4.5270 C   0  0  0  0  0  0  0  0  0  0  0  0
   -6.7520    0.9780    4.2010 C   0  0  0  0  0  0  0  0  0  0  0  0
   -6.7480    0.8430    5.5630 F   0  0  0  0  0  0  0  0  0  0  0  0
   -5.3750    1.7160   -0.8130 C   0  0  2  0  0  0  0  0  0  0  0  0
   -4.8690    3.0920   -1.1390 C   0  0  0  0  0  0  0  0  0  0  0  0
   -6.7420    1.8820   -0.1350 C   0  0  0  0  0  0  0  0  0  0  0  0
   -5.7410    0.9100   -2.0790 C   0  0  1  0  0  0  0  0  0  0  0  0
   -6.2800    1.8800   -3.0350 C   0  0  0  0  0  0  0  0  0  0  0  0
   -6.9580    2.8280   -2.8030 O   0  0  0  0  0  0  0  0  0  0  0  0
   -5.7320    1.3780   -4.6140 S   0  0  2  0  0  0  0  0  0  0  0  0
   -4.9970    2.4440   -5.3490 O   0  0  0  0  0  0  0  0  0  0  0  0
   -6.8560    0.7810   -5.4190 O   0  0  0  0  0  0  0  0  0  0  0  0
   -4.6390    0.0510   -4.0970 C   0  0  0  0  0  0  0  0  0  0  0  0
   -4.6300    0.1460   -2.6150 C   0  0  1  0  0  0  0  0  0  0  0  0
   -3.2910    0.6200   -2.0650 C   0  0  0  0  0  0  0  0  0  0  0  0
    2.7750   -3.1450   -1.2430 C   0  0  0  0  0  0  0  0  0  0  0  0
    2.1010   -4.2800   -2.0210 C   0  0  0  0  0  0  0  0  0  0  0  0
    4.0570   -3.0980   -1.3840 C   0  0  0  0  0  0  0  0  0  0  0  0
    4.6940   -4.0510   -2.3890 C   0  0  0  0  0  0  0  0  0  0  0  0
    4.9340   -2.2010   -0.7730 N   0  0  0  0  0  0  0  0  0  0  0  0
    6.3630   -2.2500   -0.9760 C   0  0  0  0  0  0  0  0  0  0  0  0
    6.8660   -3.1180   -1.7050 O   0  0  0  0  0  0  0  0  0  0  0  0
    7.2570   -1.2710   -0.3220 C   0  0  0  0  0  0  0  0  0  0  0  0
    8.6050   -1.6130   -0.2260 C   0  0  0  0  0  0  0  0  0  0  0  0
    9.4790   -0.7490    0.3600 C   0  0  0  0  0  0  0  0  0  0  0  0
   10.8160   -1.0310    0.4820 F   0  0  0  0  0  0  0  0  0  0  0  0
    9.0200    0.4670    0.8590 C   0  0  0  0  0  0  0  0  0  0  0  0
    7.6980    0.8000    0.7640 C   0  0  0  0  0  0  0  0  0  0  0  0
    6.7960   -0.0870    0.1610 C   0  0  0  0  0  0  0  0  0  0  0  0
    7.4400    2.1370    1.3650 C   0  0  0  0  0  0  0  0  0  0  0  0
    8.6370    2.2710    2.3100 C   0  0  0  0  0  0  0  0  0  0  0  0
    9.7130    1.5920    1.5310 C   0  0  0  0  0  0  0  0  0  0  0  0
  1  2  1  0
  2  3  2  3
  2 29  1  0
  3  4  1  0
  4  5  1  0
  5  6  2  0
  5  7  1  0
  7  8  1  0
  8  9  2  0
  8 28  1  0
  9 10  1  0
  9 17  1  0
 10 11  2  0
 10 12  1  0
 12 13  1  0
 13 14  1  1
 13 15  1  0
 15 16  1  0
 17 18  1  6
 17 19  1  0
 17 20  1  0
 20 21  1  6
 20 27  1  0
 21 22  2  0
 21 23  1  0
 23 24  2  0
 23 25  2  0
 23 26  1  1
 27 26  1  6
 27 28  1  0
 29 30  1  0
 29 31  2  3
 31 32  1  0
 31 33  1  0
 33 34  1  0
 34 35  2  0
 34 36  1  0
 36 37  2  0
 36 42  1  0
 37 38  1  0
 38 39  1  0
 38 40  2  0
 40 41  1  0
 40 45  1  0
 41 42  2  0
 41 43  1  0
 43 44  1  0
 44 45  1  0
M  END
