
     RDKit          3D

 44 48  0  0  0  0  0  0  0  0999 V2000
   -4.5810   -0.4760    2.8920 C   0  0  0  0  0  0  0  0  0  0  0  0
   -3.5270   -0.5990    1.8530 C   0  0  2  0  0  0  0  0  0  0  0  0
   -2.3000   -0.3320    2.3850 O   0  0  0  0  0  0  0  0  0  0  0  0
   -1.2270    0.4630    2.1110 C   0  0  0  0  0  0  0  0  0  0  0  0
   -0.1340    0.0870    2.5370 O   0  0  0  0  0  0  0  0  0  0  0  0
   -1.2640    1.7180    1.3560 C   0  0  2  0  0  0  0  0  0  0  0  0
   -0.2290    2.7340    1.6590 C   0  0  0  0  0  0  0  0  0  0  0  0
    1.1320    2.2310    1.4230 C   0  0  0  0  0  0  0  0  0  0  0  0
    2.0950    1.6790    2.1890 C   0  0  0  0  0  0  0  0  0  0  0  0
    3.2430    1.2800    1.6060 C   0  0  0  0  0  0  0  0  0  0  0  0
    3.3860    1.4450    0.2820 C   0  0  0  0  0  0  0  0  0  0  0  0
    4.4940    1.1010   -0.6110 C   0  0  0  0  0  0  0  0  0  0  0  0
    4.4080    1.3520   -1.9590 C   0  0  0  0  0  0  0  0  0  0  0  0
    5.4320    1.0240   -2.8280 C   0  0  0  0  0  0  0  0  0  0  0  0
    6.6020    0.4170   -2.3530 C   0  0  0  0  0  0  0  0  0  0  0  0
    6.6980    0.1610   -1.0150 C   0  0  0  0  0  0  0  0  0  0  0  0
    7.8360   -0.4620   -0.4550 N   0  0  0  0  0  0  0  0  0  0  0  0
    8.8870   -1.1040   -1.1200 C   0  0  0  0  0  0  0  0  0  0  0  0
    8.8800   -1.1780   -2.3480 O   0  0  0  0  0  0  0  0  0  0  0  0
   10.0190   -1.7040   -0.3790 C   0  0  0  0  0  0  0  0  0  0  0  0
   11.0220   -2.3160   -0.9740 C   0  0  0  0  0  0  0  0  0  0  0  0
   12.0090   -2.8170    0.0340 C   0  0  0  0  0  0  0  0  0  0  0  0
   11.5270   -2.1390    1.2970 C   0  0  0  0  0  0  0  0  0  0  0  0
   10.2040   -1.7230    0.9920 O   0  0  0  0  0  0  0  0  0  0  0  0
    5.6370    0.5090   -0.1580 C   0  0  0  0  0  0  0  0  0  0  0  0
    1.8650    2.1920   -0.2000 S   0  0  0  0  0  0  0  0  0  0  0  0
   -2.6860    2.2410    1.4350 C   0  0  0  0  0  0  0  0  0  0  0  0
   -3.5490    1.4860    0.3950 C   0  0  0  0  0  0  0  0  0  0  0  0
   -4.0080    2.2120   -0.7630 C   0  0  2  0  0  0  0  0  0  0  0  0
   -3.0080    2.5300   -1.8560 C   0  0  0  0  0  0  0  0  0  0  0  0
   -4.0960    3.6900   -0.1330 C   0  0  0  0  0  0  0  0  0  0  0  0
   -5.4090    2.1290   -1.2450 C   0  0  0  0  0  0  0  0  0  0  0  0
   -3.8950    0.2400    0.5980 C   0  0  0  0  0  0  0  0  0  0  0  0
   -4.5810   -0.4900   -0.4170 C   0  0  2  0  0  0  0  0  0  0  0  0
   -4.3280   -0.4890   -1.7920 N   0  0  0  0  0  0  0  0  0  0  0  0
   -5.4880   -1.0000   -2.4470 C   0  0  0  0  0  0  0  0  0  0  0  0
   -5.5920   -1.3830   -3.6520 O   0  0  0  0  0  0  0  0  0  0  0  0
   -6.6230   -1.0310   -1.4870 C   0  0  0  0  0  0  0  0  0  0  0  0
   -5.9400   -1.0680   -0.1330 C   0  0  1  0  0  0  0  0  0  0  0  0
   -5.9810   -2.4440    0.2920 N   0  0  0  0  0  0  0  0  0  0  0  0
   -5.1300   -3.3450   -0.4000 C   0  0  0  0  0  0  0  0  0  0  0  0
   -5.7920   -4.7120   -0.6440 C   0  0  1  0  0  0  0  0  0  0  0  0
   -4.8910   -5.5260   -1.3200 F   0  0  0  0  0  0  0  0  0  0  0  0
   -6.0960   -5.3400    0.5300 F   0  0  0  0  0  0  0  0  0  0  0  0
  2  1  1  1
  2  3  1  0
  2 33  1  0
  3  4  1  0
  4  5  2  0
  4  6  1  0
  6  7  1  1
  6 27  1  0
  7  8  1  0
  8  9  2  0
  8 26  1  0
  9 10  1  0
 10 11  2  0
 11 12  1  0
 11 26  1  0
 12 13  2  0
 12 25  1  0
 13 14  1  0
 14 15  2  0
 15 16  1  0
 16 17  1  0
 16 25  2  0
 17 18  1  0
 18 19  2  0
 18 20  1  0
 20 21  2  0
 20 24  1  0
 21 22  1  0
 22 23  1  0
 23 24  1  0
 27 28  1  0
 28 29  1  0
 28 33  2  0
 29 30  1  6
 29 31  1  0
 29 32  1  0
 34 33  1  6
 34 35  1  0
 34 39  1  0
 35 36  1  0
 36 37  2  0
 36 38  1  0
 38 39  1  0
 39 40  1  6
 40 41  1  0
 41 42  1  0
 42 43  1  6
 42 44  1  0
M  CHG  1  40   1
M  END
