
     RDKit          3D

 45 49  0  0  0  0  0  0  0  0999 V2000
   -6.6620   -4.2320    1.9960 C   0  0  0  0  0  0  0  0  0  0  0  0
   -5.6210   -3.4550    1.9100 C   0  0  0  0  0  0  0  0  0  0  0  0
   -4.9020   -3.2630    0.7150 N   0  0  0  0  0  0  0  0  0  0  0  0
   -3.7710   -2.4470    0.5200 C   0  0  0  0  0  0  0  0  0  0  0  0
   -3.2240   -2.3820   -0.6520 O   0  0  0  0  0  0  0  0  0  0  0  0
   -3.2040   -1.6760    1.6100 C   0  0  0  0  0  0  0  0  0  0  0  0
   -1.9870   -0.8420    1.2930 C   0  0  0  0  0  0  0  0  0  0  0  0
   -2.2610    0.1690    0.2910 N   0  0  2  0  0  0  0  0  0  0  0  0
   -1.0640    0.9920    0.1890 C   0  0  0  0  0  0  0  0  0  0  0  0
    0.2070    0.2150    0.4260 C   0  0  0  0  0  0  0  0  0  0  0  0
    1.4190    1.1150    0.3100 C   0  0  1  0  0  0  0  0  0  0  0  0
    1.3520    2.2350    1.3360 C   0  0  0  0  0  0  0  0  0  0  0  0
    2.6790    0.3710    0.4930 C   0  0  0  0  0  0  0  0  0  0  0  0
    2.8970   -0.4530    1.5930 C   0  0  0  0  0  0  0  0  0  0  0  0
    4.0760   -1.1400    1.7490 C   0  0  0  0  0  0  0  0  0  0  0  0
    5.1050   -1.0440    0.8180 C   0  0  0  0  0  0  0  0  0  0  0  0
    6.6250   -1.9640    1.0540 S   0  0  0  0  0  0  0  0  0  0  0  0
    7.7390   -1.6090   -0.2780 C   0  0  0  0  0  0  0  0  0  0  0  0
    7.7380   -2.3440   -1.4340 C   0  0  0  0  0  0  0  0  0  0  0  0
    8.6280   -2.0530   -2.4790 C   0  0  0  0  0  0  0  0  0  0  0  0
    8.6410   -2.7180   -3.5450 O   0  0  0  0  0  0  0  0  0  0  0  0
    9.5000   -1.0370   -2.3520 N   0  0  0  0  0  0  0  0  0  0  0  0
    9.5210   -0.2910   -1.2130 C   0  0  0  0  0  0  0  0  0  0  0  0
   10.4310    0.7370   -1.1310 C   0  0  0  0  0  0  0  0  0  0  0  0
   10.4710    1.5090    0.0180 C   0  0  0  0  0  0  0  0  0  0  0  0
    9.6100    1.2490    1.0640 C   0  0  0  0  0  0  0  0  0  0  0  0
    8.6960    0.2070    0.9660 C   0  0  0  0  0  0  0  0  0  0  0  0
    8.6370   -0.5760   -0.1690 C   0  0  0  0  0  0  0  0  0  0  0  0
    4.8860   -0.2260   -0.2720 C   0  0  0  0  0  0  0  0  0  0  0  0
    3.6870    0.4770   -0.4390 C   0  0  0  0  0  0  0  0  0  0  0  0
   -3.3550    1.0240    0.6750 C   0  0  0  0  0  0  0  0  0  0  0  0
   -4.3300    1.0770   -0.4450 C   0  0  0  0  0  0  0  0  0  0  0  0
   -4.1220    0.4370   -1.5100 O   0  0  0  0  0  0  0  0  0  0  0  0
   -5.5250    1.8360   -0.3790 N   0  0  0  0  0  0  0  0  0  0  0  0
   -6.4690    1.8880   -1.4490 C   0  0  1  0  0  0  0  0  0  0  0  0
   -5.9220    2.3920   -2.7140 C   0  0  0  0  0  0  0  0  0  0  0  0
   -4.7150    2.7520   -2.8400 O   0  0  0  0  0  0  0  0  0  0  0  0
   -6.7360    2.4930   -3.8460 O   0  0  0  0  0  0  0  0  0  0  0  0
   -7.1310    0.5230   -1.6910 C   0  0  0  0  0  0  0  0  0  0  0  0
   -8.1810    0.4200   -0.5990 C   0  0  0  0  0  0  0  0  0  0  0  0
   -8.6920    1.7970   -0.5720 N   0  0  0  0  0  0  0  0  0  0  0  0
   -7.6740    2.6750   -1.0230 C   0  0  0  0  0  0  0  0  0  0  0  0
   -7.7630    3.9180   -1.0610 O   0  0  0  0  0  0  0  0  0  0  0  0
   -3.6390   -1.6370    2.8450 C   0  0  0  0  0  0  0  0  0  0  0  0
   -5.0570   -2.5810    3.3590 S   0  0  0  0  0  0  0  0  0  0  0  0
  1  2  2  0
  2  3  1  0
  2 45  1  0
  3  4  1  0
  4  5  2  0
  4  6  1  0
  6  7  1  0
  6 44  2  0
  8  7  1  1
  8  9  1  0
  8 31  1  0
  9 10  1  0
 10 11  1  0
 11 12  1  1
 11 13  1  0
 13 14  2  0
 13 30  1  0
 14 15  1  0
 15 16  2  0
 16 17  1  0
 16 29  1  0
 17 18  1  0
 18 19  2  0
 18 28  1  0
 19 20  1  0
 20 21  2  0
 20 22  1  0
 22 23  1  0
 23 24  2  0
 23 28  1  0
 24 25  1  0
 25 26  2  0
 26 27  1  0
 27 28  2  0
 29 30  2  0
 31 32  1  0
 32 33  2  0
 32 34  1  0
 35 34  1  1
 35 36  1  0
 35 39  1  0
 35 42  1  0
 36 37  2  0
 36 38  1  0
 39 40  1  0
 40 41  1  0
 41 42  1  0
 42 43  2  0
 44 45  1  0
M  CHG  1   8   1
M  END
