
     RDKit          3D

 45 48  0  0  0  0  0  0  0  0999 V2000
   -5.7690    3.1540   -3.5540 C   0  0  0  0  0  0  0  0  0  0  0  0
   -4.9820    3.6700   -2.6320 C   0  0  0  0  0  0  0  0  0  0  0  0
   -3.9880    2.8480   -1.9130 C   0  0  0  0  0  0  0  0  0  0  0  0
   -3.3350    3.2520   -0.8470 C   0  0  0  0  0  0  0  0  0  0  0  0
   -2.3510    2.4770   -0.1080 C   0  0  0  0  0  0  0  0  0  0  0  0
   -1.8080    2.9600    0.9060 O   0  0  0  0  0  0  0  0  0  0  0  0
   -1.9460    1.1450   -0.4790 N   0  0  0  0  0  0  0  0  0  0  0  0
   -0.9890    0.3930    0.2680 C   0  0  2  0  0  0  0  0  0  0  0  0
    0.7230    0.7860   -0.0230 S   0  0  0  0  0  0  0  0  0  0  0  0
    1.6900   -0.6460    0.3160 C   0  0  0  0  0  0  0  0  0  0  0  0
    3.1520   -0.5670    0.3040 C   0  0  0  0  0  0  0  0  0  0  0  0
    3.8260   -1.5820    0.5640 O   0  0  0  0  0  0  0  0  0  0  0  0
    3.8110    0.6520    0.0020 N   0  0  0  0  0  0  0  0  0  0  0  0
    5.1870    0.8090   -0.0180 N   0  0  0  0  0  0  0  0  0  0  0  0
    5.9910    0.0670   -0.9100 C   0  0  0  0  0  0  0  0  0  0  0  0
    5.4270   -0.7400   -1.6900 O   0  0  0  0  0  0  0  0  0  0  0  0
    7.4510    0.2800   -0.8730 C   0  0  1  0  0  0  0  0  0  0  0  0
    7.8140    1.7430   -0.9400 C   0  0  0  0  0  0  0  0  0  0  0  0
    9.3090    1.9620   -0.9010 C   0  0  0  0  0  0  0  0  0  0  0  0
    8.1520   -0.4970    0.1770 C   0  0  0  0  0  0  0  0  0  0  0  0
    7.7390   -0.2470    1.5850 C   0  0  2  0  0  0  0  0  0  0  0  0
    8.5480   -1.0850    2.3770 F   0  0  0  0  0  0  0  0  0  0  0  0
    6.4480   -0.7060    1.8350 F   0  0  0  0  0  0  0  0  0  0  0  0
    1.0950   -1.7780    0.6040 C   0  0  0  0  0  0  0  0  0  0  0  0
   -0.3350   -1.9430    0.6890 C   0  0  0  0  0  0  0  0  0  0  0  0
   -1.2420   -1.0000    0.5250 C   0  0  0  0  0  0  0  0  0  0  0  0
   -2.6620   -1.5520    0.5190 C   0  0  1  0  0  0  0  0  0  0  0  0
   -2.9640   -2.3900   -0.6410 C   0  0  0  0  0  0  0  0  0  0  0  0
   -4.0110   -3.3170   -0.6290 C   0  0  0  0  0  0  0  0  0  0  0  0
   -4.3360   -4.0480   -1.7770 C   0  0  0  0  0  0  0  0  0  0  0  0
   -3.6620   -3.9020   -2.9590 C   0  0  0  0  0  0  0  0  0  0  0  0
   -2.6330   -2.9970   -2.9850 C   0  0  0  0  0  0  0  0  0  0  0  0
   -2.3080   -2.2710   -1.8410 C   0  0  0  0  0  0  0  0  0  0  0  0
   -1.2540   -1.4030   -1.9770 O   0  0  0  0  0  0  0  0  0  0  0  0
   -2.9660   -2.1670    1.8570 C   0  0  2  0  0  0  0  0  0  0  0  0
   -3.1920   -1.0980    2.8710 C   0  0  0  0  0  0  0  0  0  0  0  0
   -3.3240    0.0890    2.4870 O   0  0  0  0  0  0  0  0  0  0  0  0
   -3.2740   -1.3140    4.2300 O   0  0  0  0  0  0  0  0  0  0  0  0
   -3.4930   -0.2740    5.1690 C   0  0  0  0  0  0  0  0  0  0  0  0
   -1.7780   -3.0400    2.3000 C   0  0  1  0  0  0  0  0  0  0  0  0
   -2.3180   -4.3620    2.7650 C   0  0  0  0  0  0  0  0  0  0  0  0
   -0.8680   -3.3210    1.0980 C   0  0  0  0  0  0  0  0  0  0  0  0
   -3.6410    4.6450   -0.3890 C   0  0  0  0  0  0  0  0  0  0  0  0
   -3.8300    5.5230   -1.6110 C   0  0  0  0  0  0  0  0  0  0  0  0
   -5.1070    5.1180   -2.3140 C   0  0  0  0  0  0  0  0  0  0  0  0
  1  2  2  0
  2  3  1  0
  2 45  1  0
  3  4  2  0
  4  5  1  0
  4 43  1  0
  5  6  2  0
  5  7  1  0
  8  7  1  6
  8  9  1  0
  8 26  1  0
  9 10  1  0
 10 11  1  0
 10 24  2  0
 11 12  2  0
 11 13  1  0
 13 14  1  0
 14 15  1  0
 15 16  2  0
 15 17  1  0
 17 18  1  1
 17 20  1  0
 18 19  1  0
 20 21  1  0
 21 22  1  1
 21 23  1  0
 24 25  1  0
 25 26  2  0
 25 42  1  0
 26 27  1  0
 27 28  1  6
 27 35  1  0
 28 29  2  0
 28 33  1  0
 29 30  1  0
 30 31  2  0
 31 32  1  0
 32 33  2  0
 33 34  1  0
 35 36  1  1
 35 40  1  0
 36 37  2  0
 36 38  1  0
 38 39  1  0
 40 41  1  6
 40 42  1  0
 43 44  1  0
 44 45  1  0
M  END
