
     RDKit          3D

 44 48  0  0  0  0  0  0  0  0999 V2000
   -3.3750    2.2820   -0.0640 C   0  0  0  0  0  0  0  0  0  0  0  0
   -4.3730    1.4370    0.6390 C   0  0  0  0  0  0  0  0  0  0  0  0
   -4.6140    0.1720    0.1520 C   0  0  0  0  0  0  0  0  0  0  0  0
   -5.5290   -0.6560    0.7630 C   0  0  0  0  0  0  0  0  0  0  0  0
   -5.8350   -2.3140    0.1140 S   0  0  0  0  0  0  0  0  0  0  0  0
   -4.8050   -2.5700   -1.2950 C   0  0  0  0  0  0  0  0  0  0  0  0
   -3.5170   -3.1100   -1.2030 C   0  0  0  0  0  0  0  0  0  0  0  0
   -2.7620   -3.2870   -2.3400 C   0  0  0  0  0  0  0  0  0  0  0  0
   -1.4360   -3.8710   -2.2330 C   0  0  0  0  0  0  0  0  0  0  0  0
   -0.2540   -3.0390   -2.4480 C   0  0  0  0  0  0  0  0  0  0  0  0
   -0.1960   -1.8980   -1.4750 C   0  0  0  0  0  0  0  0  0  0  0  0
   -1.1120   -1.7560   -0.6480 O   0  0  0  0  0  0  0  0  0  0  0  0
    0.8790   -0.9870   -1.4860 N   0  0  0  0  0  0  0  0  0  0  0  0
    1.1140    0.1070   -0.6440 C   0  0  0  0  0  0  0  0  0  0  0  0
    1.4870   -0.0880    0.7910 C   0  0  1  0  0  0  0  0  0  0  0  0
    0.5810   -0.7970    1.7050 C   0  0  0  0  0  0  0  0  0  0  0  0
    1.0300   -2.2730    1.6910 C   0  0  0  0  0  0  0  0  0  0  0  0
    2.4400   -2.2140    1.2090 C   0  0  0  0  0  0  0  0  0  0  0  0
    3.4340   -3.1950    1.1260 C   0  0  0  0  0  0  0  0  0  0  0  0
    3.1960   -4.4880    1.4410 F   0  0  0  0  0  0  0  0  0  0  0  0
    4.7020   -2.7790    0.6980 C   0  0  0  0  0  0  0  0  0  0  0  0
    4.9490   -1.4590    0.3790 C   0  0  0  0  0  0  0  0  0  0  0  0
    3.9410   -0.4960    0.4720 C   0  0  0  0  0  0  0  0  0  0  0  0
    2.7450   -0.9280    0.8740 C   0  0  0  0  0  0  0  0  0  0  0  0
    4.2480    0.9680    0.3740 C   0  0  0  0  0  0  0  0  0  0  0  0
    5.3580    1.3150   -0.0240 N   0  0  0  0  0  0  0  0  0  0  0  0
    6.2690    2.2740   -0.3440 C   0  0  2  0  0  0  0  0  0  0  0  0
    7.6160    2.0990    0.3930 C   0  0  0  0  0  0  0  0  0  0  0  0
    5.8740    3.7330   -0.3130 C   0  0  2  0  0  0  0  0  0  0  0  0
    5.7000    4.2960    1.0610 C   0  0  0  0  0  0  0  0  0  0  0  0
    4.8350    3.9590   -1.1870 O   0  0  0  0  0  0  0  0  0  0  0  0
    3.1590    1.8020    0.7770 N   0  0  0  0  0  0  0  0  0  0  0  0
    1.9360    1.2740    1.2320 C   0  0  0  0  0  0  0  0  0  0  0  0
    1.1890    1.9120    2.0080 O   0  0  0  0  0  0  0  0  0  0  0  0
   -3.3350   -2.9090   -3.5460 C   0  0  0  0  0  0  0  0  0  0  0  0
   -2.6160   -3.0860   -4.5630 O   0  0  0  0  0  0  0  0  0  0  0  0
   -4.5380   -2.4080   -3.6040 O   0  0  0  0  0  0  0  0  0  0  0  0
   -5.2850   -2.2260   -2.5410 C   0  0  0  0  0  0  0  0  0  0  0  0
   -6.6560   -1.6480   -2.6590 C   0  0  0  0  0  0  0  0  0  0  0  0
   -6.2030   -0.2050    1.8680 C   0  0  0  0  0  0  0  0  0  0  0  0
   -5.9560    1.0620    2.3490 C   0  0  0  0  0  0  0  0  0  0  0  0
   -5.0410    1.8810    1.7330 C   0  0  0  0  0  0  0  0  0  0  0  0
   -4.7890    3.2450    2.2680 C   0  0  0  0  0  0  0  0  0  0  0  0
   -5.5780    3.4630    3.3710 O   0  0  0  0  0  0  0  0  0  0  0  0
  1  2  1  0
  2  3  2  0
  2 42  1  0
  3  4  1  0
  4  5  1  0
  4 40  2  0
  5  6  1  0
  6  7  1  0
  6 38  2  0
  7  8  2  0
  8  9  1  0
  8 35  1  0
  9 10  1  0
 10 11  1  0
 11 12  2  0
 11 13  1  0
 13 14  1  0
 15 14  1  6
 15 16  1  0
 15 24  1  0
 15 33  1  0
 16 17  1  0
 17 18  1  0
 18 19  2  0
 18 24  1  0
 19 20  1  0
 19 21  1  0
 21 22  2  0
 22 23  1  0
 23 24  2  0
 23 25  1  0
 25 26  2  3
 25 32  1  0
 26 27  1  0
 27 28  1  1
 27 29  1  0
 29 30  1  1
 29 31  1  0
 32 33  1  0
 33 34  2  0
 35 36  2  0
 35 37  1  0
 37 38  1  0
 38 39  1  0
 40 41  1  0
 41 42  2  0
 42 43  1  0
 43 44  1  0
M  END
