
     RDKit          3D

 23 25  0  0  0  0  0  0  0  0999 V2000
   -5.1320    1.2460    2.1190 C   0  0  0  0  0  0  0  0  0  0  0  0
   -4.8700    0.6960    0.7040 C   0  0  0  0  0  0  0  0  0  0  0  0
   -3.7220    1.4570    0.1370 C   0  0  0  0  0  0  0  0  0  0  0  0
   -3.3280    1.0730   -1.2490 C   0  0  0  0  0  0  0  0  0  0  0  0
   -2.8460   -0.6120   -1.3600 S   0  0  1  0  0  0  0  0  0  0  0  0
   -4.0610   -1.4660   -1.0430 O   0  0  0  0  0  0  0  0  0  0  0  0
   -2.5020   -0.9680   -2.8040 O   0  0  0  0  0  0  0  0  0  0  0  0
   -1.5550   -1.0750   -0.3660 N   0  0  0  0  0  0  0  0  0  0  0  0
   -0.2340   -0.6000   -0.3760 C   0  0  0  0  0  0  0  0  0  0  0  0
    0.1380    0.7340   -0.4980 C   0  0  0  0  0  0  0  0  0  0  0  0
    1.4640    1.1580   -0.4810 C   0  0  0  0  0  0  0  0  0  0  0  0
    2.4910    0.2250   -0.3370 C   0  0  0  0  0  0  0  0  0  0  0  0
    2.0890   -1.0770   -0.2200 C   0  0  0  0  0  0  0  0  0  0  0  0
    3.1370   -1.9420   -0.0830 C   0  0  0  0  0  0  0  0  0  0  0  0
    2.8820   -3.2990    0.0440 C   0  0  0  0  0  0  0  0  0  0  0  0
    1.5900   -3.7750    0.0330 C   0  0  0  0  0  0  0  0  0  0  0  0
    0.5300   -2.8700   -0.1080 C   0  0  0  0  0  0  0  0  0  0  0  0
    0.7900   -1.5230   -0.2340 C   0  0  0  0  0  0  0  0  0  0  0  0
    4.3280   -1.0740   -0.1190 C   0  0  0  0  0  0  0  0  0  0  0  0
    5.5060   -1.5050   -0.0210 O   0  0  0  0  0  0  0  0  0  0  0  0
    3.9180    0.2780   -0.2770 N   0  0  0  0  0  0  0  0  0  0  0  0
    4.7470    1.4420   -0.3600 C   0  0  0  0  0  0  0  0  0  0  0  0
    5.0210    2.0590    0.9980 C   0  0  0  0  0  0  0  0  0  0  0  0
  1  2  1  0
  2  3  1  0
  3  4  1  0
  5  4  1  6
  5  6  2  0
  5  7  2  0
  5  8  1  0
  8  9  1  0
  9 10  2  0
  9 18  1  0
 10 11  1  0
 11 12  2  0
 12 13  1  0
 12 21  1  0
 13 14  2  0
 13 18  1  0
 14 15  1  0
 14 19  1  0
 15 16  2  0
 16 17  1  0
 17 18  2  0
 19 20  2  0
 19 21  1  0
 21 22  1  0
 22 23  1  0
M  END
