
     RDKit          3D

 12 13  0  0  0  0  0  0  0  0999 V2000
   -1.9340    1.7780   -0.3100 N   0  0  0  0  0  0  0  0  0  0  0  0
   -0.8230    0.9140   -0.1050 C   0  0  2  0  0  0  0  0  0  0  0  0
    0.2340    1.0370   -1.2100 C   0  0  0  0  0  0  0  0  0  0  0  0
    1.3650    0.1590   -0.8700 C   0  0  1  0  0  0  0  0  0  0  0  0
    2.3090    0.9140   -0.1380 O   0  0  0  0  0  0  0  0  0  0  0  0
    3.1960   -0.0950    0.2350 C   0  0  0  0  0  0  0  0  0  0  0  0
    2.2400   -1.0900    0.9030 C   0  0  0  0  0  0  0  0  0  0  0  0
    1.0930   -1.0700   -0.1200 C   0  0  1  0  0  0  0  0  0  0  0  0
   -0.0790   -1.1770    0.5470 O   0  0  0  0  0  0  0  0  0  0  0  0
   -1.1510   -0.5420   -0.0540 C   0  0  1  0  0  0  0  0  0  0  0  0
   -2.4480   -0.8600    0.6020 C   0  0  0  0  0  0  0  0  0  0  0  0
   -2.5160   -0.5040    1.9230 O   0  0  0  0  0  0  0  0  0  0  0  0
  2  1  1  6
  2  3  1  0
  2 10  1  0
  4  3  1  1
  4  5  1  0
  4  8  1  0
  5  6  1  0
  6  7  1  0
  8  7  1  1
  8  9  1  0
  9 10  1  0
 10 11  1  1
 11 12  1  0
M  CHG  1   1   1
M  END
