
     RDKit          3D

 13 14  0  0  0  0  0  0  0  0999 V2000
   -0.7630    2.2260   -0.5280 N   0  0  0  0  0  0  0  0  0  0  0  0
   -0.3600    1.1090    0.2800 C   0  0  2  0  0  0  0  0  0  0  0  0
    1.0980    1.2170    0.6610 C   0  0  0  0  0  0  0  0  0  0  0  0
    1.7850    0.2700   -0.2600 C   0  0  1  0  0  0  0  0  0  0  0  0
    2.7630   -0.5940    0.4350 C   0  0  0  0  0  0  0  0  0  0  0  0
    3.6620   -0.0190    1.1190 O   0  0  0  0  0  0  0  0  0  0  0  0
    2.7070   -1.9680    0.3490 O   0  0  0  0  0  0  0  0  0  0  0  0
    0.8530   -0.4330   -0.9710 O   0  0  0  0  0  0  0  0  0  0  0  0
   -0.3940   -0.1980   -0.4720 C   0  0  1  0  0  0  0  0  0  0  0  0
   -0.8630   -1.3290    0.4530 C   0  0  0  0  0  0  0  0  0  0  0  0
   -2.1090   -1.8430   -0.2540 C   0  0  0  0  0  0  0  0  0  0  0  0
   -1.7820   -1.5820   -1.6020 O   0  0  0  0  0  0  0  0  0  0  0  0
   -1.4760   -0.2220   -1.5290 C   0  0  0  0  0  0  0  0  0  0  0  0
  2  1  1  6
  2  3  1  0
  2  9  1  0
  3  4  1  0
  4  5  1  1
  4  8  1  0
  5  6  2  0
  5  7  1  0
  8  9  1  0
  9 10  1  1
  9 13  1  0
 10 11  1  0
 11 12  1  0
 12 13  1  0
M  CHG  1   1   1
M  END
