
     RDKit          3D

 13 14  0  0  0  0  0  0  0  0999 V2000
   -2.5460    1.0630   -0.4650 N   0  0  0  0  0  0  0  0  0  0  0  0
   -1.9590    0.0740    0.4080 C   0  0  1  0  0  0  0  0  0  0  0  0
   -1.4800   -1.1410   -0.3350 C   0  0  0  0  0  0  0  0  0  0  0  0
    0.0070   -1.0900   -0.4010 C   0  0  2  0  0  0  0  0  0  0  0  0
    0.6770   -1.8140    0.7110 C   0  0  0  0  0  0  0  0  0  0  0  0
    0.5720   -3.0350    0.9750 O   0  0  0  0  0  0  0  0  0  0  0  0
    1.4640   -0.9410    1.4500 O   0  0  0  0  0  0  0  0  0  0  0  0
    1.6650    0.2150    0.6300 C   0  0  1  0  0  0  0  0  0  0  0  0
    2.7560   -0.1410   -0.3480 C   0  0  0  0  0  0  0  0  0  0  0  0
    3.0500    0.9100   -1.2120 O   0  0  0  0  0  0  0  0  0  0  0  0
    0.3240    0.3600   -0.0140 C   0  0  2  0  0  0  0  0  0  0  0  0
   -0.7070    0.5770    1.0630 C   0  0  1  0  0  0  0  0  0  0  0  0
   -0.7780    1.8640    1.5130 O   0  0  0  0  0  0  0  0  0  0  0  0
  2  1  1  6
  2  3  1  0
  2 12  1  0
  4  3  1  1
  4  5  1  0
  4 11  1  0
  5  6  2  0
  5  7  1  0
  7  8  1  0
  8  9  1  6
 11  8  1  1
  9 10  1  0
 11 12  1  0
 12 13  1  6
M  CHG  1   1   1
M  END
