
     RDKit          3D

 13 14  0  0  0  0  0  0  0  0999 V2000
    2.1090    0.5310   -1.8450 O   0  0  0  0  0  0  0  0  0  0  0  0
    2.1470   -0.3400   -0.7550 C   0  0  1  0  0  0  0  0  0  0  0  0
    2.6490    0.4210    0.4250 C   0  0  0  0  0  0  0  0  0  0  0  0
    1.6170    1.1240    1.0800 O   0  0  0  0  0  0  0  0  0  0  0  0
    0.7460    0.1370    1.5550 C   0  0  0  0  0  0  0  0  0  0  0  0
   -0.0790   -0.3270    0.3890 C   0  0  2  0  0  0  0  0  0  0  0  0
   -0.7030    0.7960   -0.3900 C   0  0  0  0  0  0  0  0  0  0  0  0
   -1.9800    0.3400   -0.9630 N   0  0  0  0  0  0  0  0  0  0  0  0
   -2.9500    0.2020    0.1310 C   0  0  0  0  0  0  0  0  0  0  0  0
   -2.1360   -0.3260    1.3180 C   0  0  0  0  0  0  0  0  0  0  0  0
   -1.0840   -1.1380    0.8620 O   0  0  0  0  0  0  0  0  0  0  0  0
    0.8790   -1.0830   -0.5360 C   0  0  1  0  0  0  0  0  0  0  0  0
    0.2940   -1.4380   -1.7240 O   0  0  0  0  0  0  0  0  0  0  0  0
  2  1  1  6
  2  3  1  0
  2 12  1  0
  3  4  1  0
  4  5  1  0
  6  5  1  1
  6  7  1  0
  6 11  1  0
  6 12  1  0
  7  8  1  0
  8  9  1  0
  9 10  1  0
 10 11  1  0
 12 13  1  6
M  CHG  1   8   1
M  END
