
     RDKit          3D

 13 13  0  0  0  0  0  0  0  0999 V2000
    1.5280    1.3460   -0.7840 N   0  0  0  0  0  0  0  0  0  0  0  0
    0.4930    0.4620   -0.2240 C   0  0  2  0  0  0  0  0  0  0  0  0
    1.1800   -0.4710    0.7150 C   0  0  0  0  0  0  0  0  0  0  0  0
    2.2120   -1.2670   -0.0420 C   0  0  0  0  0  0  0  0  0  0  0  0
    2.8840   -2.1640    0.8210 O   0  0  0  0  0  0  0  0  0  0  0  0
   -0.1810   -0.2360   -1.3620 C   0  0  0  0  0  0  0  0  0  0  0  0
   -1.2900   -1.1100   -0.8120 C   0  0  2  0  0  0  0  0  0  0  0  0
   -1.8540   -1.8970   -1.8210 O   0  0  0  0  0  0  0  0  0  0  0  0
   -2.3400   -0.2030   -0.2500 C   0  0  0  0  0  0  0  0  0  0  0  0
   -1.7910    0.6910    0.8070 C   0  0  1  0  0  0  0  0  0  0  0  0
   -1.6840   -0.0060    2.0170 O   0  0  0  0  0  0  0  0  0  0  0  0
   -0.5040    1.3650    0.4480 C   0  0  1  0  0  0  0  0  0  0  0  0
    0.0080    1.9590    1.6000 O   0  0  0  0  0  0  0  0  0  0  0  0
  2  1  1  6
  2  3  1  0
  2  6  1  0
  2 12  1  0
  3  4  1  0
  4  5  1  0
  6  7  1  0
  7  8  1  6
  7  9  1  0
  9 10  1  0
 10 11  1  1
 10 12  1  0
 12 13  1  1
M  CHG  1   1   1
M  END
