
     RDKit          3D

 13 14  0  0  0  0  0  0  0  0999 V2000
    2.3210    0.9240    0.7780 N   0  0  0  0  0  0  0  0  0  0  0  0
    1.9000   -0.0430   -0.2380 C   0  0  2  0  0  0  0  0  0  0  0  0
    1.0970    0.6830   -1.3300 C   0  0  0  0  0  0  0  0  0  0  0  0
   -0.1590    0.9280   -0.6340 C   0  0  1  0  0  0  0  0  0  0  0  0
   -1.2590    1.2980   -1.3340 O   0  0  0  0  0  0  0  0  0  0  0  0
   -2.2830    1.4910   -0.4030 C   0  0  0  0  0  0  0  0  0  0  0  0
   -1.9230    1.1720    0.8850 O   0  0  0  0  0  0  0  0  0  0  0  0
   -1.4690   -0.1140    1.0630 C   0  0  0  0  0  0  0  0  0  0  0  0
   -0.4830   -0.4330   -0.0050 C   0  0  1  0  0  0  0  0  0  0  0  0
   -1.1310   -1.3530   -1.0100 C   0  0  0  0  0  0  0  0  0  0  0  0
   -1.3860   -2.5560   -0.3520 O   0  0  0  0  0  0  0  0  0  0  0  0
    0.8400   -0.9090    0.4260 C   0  0  2  0  0  0  0  0  0  0  0  0
    1.0220   -1.0090    1.7890 O   0  0  0  0  0  0  0  0  0  0  0  0
  2  1  1  1
  2  3  1  0
  2 12  1  0
  4  3  1  6
  4  5  1  0
  4  9  1  0
  5  6  1  0
  6  7  1  0
  7  8  1  0
  8  9  1  0
  9 10  1  6
  9 12  1  0
 10 11  1  0
 12 13  1  1
M  CHG  1   1   1
M  END
