
     RDKit          3D

 31 34  0  0  0  0  0  0  0  0999 V2000
    3.8260   -3.8060    1.2380 C   0  0  0  0  0  0  0  0  0  0  0  0
    3.4630   -3.3250   -0.0440 O   0  0  0  0  0  0  0  0  0  0  0  0
    2.2500   -2.6410   -0.2490 C   0  0  0  0  0  0  0  0  0  0  0  0
    1.1770   -3.1800   -0.7530 C   0  0  0  0  0  0  0  0  0  0  0  0
    1.1930   -4.6230   -1.1520 C   0  0  0  0  0  0  0  0  0  0  0  0
   -0.0670   -2.4230   -0.9910 C   0  0  0  0  0  0  0  0  0  0  0  0
   -0.2190   -1.1750   -0.3320 N   0  0  0  0  0  0  0  0  0  0  0  0
   -1.2750   -0.2400   -0.4610 C   0  0  0  0  0  0  0  0  0  0  0  0
   -1.0670    0.8080    0.3130 O   0  0  0  0  0  0  0  0  0  0  0  0
   -2.4700   -0.2280   -1.2420 C   0  0  0  0  0  0  0  0  0  0  0  0
   -2.8040   -1.2180   -2.0690 N   0  0  0  0  0  0  0  0  0  0  0  0
   -3.9570   -1.1710   -2.8000 C   0  0  0  0  0  0  0  0  0  0  0  0
   -4.8040   -0.1020   -2.7030 C   0  0  0  0  0  0  0  0  0  0  0  0
   -4.4730    0.9270   -1.8530 C   0  0  0  0  0  0  0  0  0  0  0  0
   -5.2370    1.9230   -1.7470 O   0  0  0  0  0  0  0  0  0  0  0  0
   -3.3160    0.8850   -1.1170 C   0  0  0  0  0  0  0  0  0  0  0  0
   -2.9840    1.9600   -0.2280 C   0  0  0  0  0  0  0  0  0  0  0  0
   -2.2870    3.1170   -0.4210 C   0  0  0  0  0  0  0  0  0  0  0  0
   -2.2700    3.8170    0.7600 C   0  0  0  0  0  0  0  0  0  0  0  0
   -2.9500    3.0940    1.6610 N   0  0  0  0  0  0  0  0  0  0  0  0
   -3.4020    1.9600    1.1100 C   0  0  0  0  0  0  0  0  0  0  0  0
   -4.2060    0.8920    1.8040 C   0  0  0  0  0  0  0  0  0  0  0  0
    0.8530   -0.7770    0.6340 C   0  0  0  0  0  0  0  0  0  0  0  0
    2.1650   -1.2100    0.1310 C   0  0  0  0  0  0  0  0  0  0  0  0
    3.2390   -0.4440    0.0260 C   0  0  0  0  0  0  0  0  0  0  0  0
    3.3260    0.9590    0.3470 C   0  0  0  0  0  0  0  0  0  0  0  0
    2.4620    1.9470   -0.0240 C   0  0  0  0  0  0  0  0  0  0  0  0
    2.9380    3.1320    0.5100 C   0  0  0  0  0  0  0  0  0  0  0  0
    4.0840    2.8080    1.1900 C   0  0  0  0  0  0  0  0  0  0  0  0
    4.9770    3.7360    1.9450 C   0  0  0  0  0  0  0  0  0  0  0  0
    4.2670    1.5190    1.0630 O   0  0  0  0  0  0  0  0  0  0  0  0
  1  2  1  0
  2  3  1  0
  3  4  2  0
  3 24  1  0
  4  5  1  0
  4  6  1  0
  6  7  1  0
  7  8  1  0
  7 23  1  0
  8  9  2  0
  8 10  1  0
 10 11  1  0
 10 16  2  0
 11 12  1  0
 12 13  2  0
 13 14  1  0
 14 15  2  0
 14 16  1  0
 16 17  1  0
 17 18  1  0
 17 21  2  0
 18 19  2  0
 19 20  1  0
 20 21  1  0
 21 22  1  0
 23 24  1  0
 24 25  2  3
 25 26  1  0
 26 27  2  0
 26 31  1  0
 27 28  1  0
 28 29  2  0
 29 30  1  0
 29 31  1  0
M  END
