
     RDKit          3D

 31 34  0  0  0  0  0  0  0  0999 V2000
   -4.3400    1.0260   -1.7470 C   0  0  0  0  0  0  0  0  0  0  0  0
   -5.0040    0.9680   -0.3820 C   0  0  2  0  0  0  0  0  0  0  0  0
   -4.8670    2.2150    0.2680 O   0  0  0  0  0  0  0  0  0  0  0  0
   -4.2320   -0.0330    0.4430 C   0  0  1  0  0  0  0  0  0  0  0  0
   -2.7820    0.4470    0.5520 C   0  0  0  0  0  0  0  0  0  0  0  0
   -2.2760   -0.1320    1.8640 C   0  0  0  0  0  0  0  0  0  0  0  0
   -2.8630   -1.4310    1.9760 N   0  0  0  0  0  0  0  0  0  0  0  0
   -2.3620   -2.6500    1.6030 C   0  0  0  0  0  0  0  0  0  0  0  0
   -3.1390   -3.6680    1.9530 O   0  0  0  0  0  0  0  0  0  0  0  0
   -1.1730   -2.9890    0.9160 C   0  0  0  0  0  0  0  0  0  0  0  0
   -0.2390   -2.2380    0.4170 C   0  0  0  0  0  0  0  0  0  0  0  0
    0.9110   -2.9100   -0.2570 C   0  0  0  0  0  0  0  0  0  0  0  0
    1.9190   -2.2820   -0.8010 C   0  0  0  0  0  0  0  0  0  0  0  0
    2.1750   -0.8500   -0.8910 C   0  0  0  0  0  0  0  0  0  0  0  0
    1.4010    0.0310   -0.4180 O   0  0  0  0  0  0  0  0  0  0  0  0
    3.3630   -0.3470   -1.5450 N   0  0  0  0  0  0  0  0  0  0  0  0
    3.6580    1.0340   -1.6480 C   0  0  0  0  0  0  0  0  0  0  0  0
    3.6820    1.6070   -2.8370 C   0  0  0  0  0  0  0  0  0  0  0  0
    3.9790    3.0280   -3.0340 C   0  0  0  0  0  0  0  0  0  0  0  0
    4.2410    3.8080   -2.0040 C   0  0  0  0  0  0  0  0  0  0  0  0
    4.2280    3.2310   -0.7050 N   0  0  0  0  0  0  0  0  0  0  0  0
    4.5040    4.0910    0.4020 C   0  0  0  0  0  0  0  0  0  0  0  0
    4.4850    3.4050    1.6960 C   0  0  0  0  0  0  0  0  0  0  0  0
    4.2360    2.1350    1.8720 C   0  0  0  0  0  0  0  0  0  0  0  0
    3.9440    1.2850    0.7130 C   0  0  0  0  0  0  0  0  0  0  0  0
    3.9440    1.8520   -0.4780 C   0  0  0  0  0  0  0  0  0  0  0  0
    2.8100   -3.2430   -1.3380 O   0  0  0  0  0  0  0  0  0  0  0  0
    2.1690   -4.4960   -1.4250 C   0  0  0  0  0  0  0  0  0  0  0  0
    1.0780   -4.3850   -0.4060 C   0  0  0  0  0  0  0  0  0  0  0  0
   -4.2590   -1.3700    2.5370 C   0  0  0  0  0  0  0  0  0  0  0  0
   -4.8820   -0.1880    1.8060 C   0  0  0  0  0  0  0  0  0  0  0  0
  2  1  1  6
  2  3  1  0
  2  4  1  0
  4  5  1  1
  4 31  1  0
  5  6  1  0
  6  7  1  0
  7  8  1  0
  7 30  1  0
  8  9  2  0
  8 10  1  0
 10 11  2  3
 11 12  1  0
 12 13  2  0
 12 29  1  0
 13 14  1  0
 13 27  1  0
 14 15  2  0
 14 16  1  0
 16 17  1  0
 17 18  2  0
 17 26  1  0
 18 19  1  0
 19 20  2  0
 20 21  1  0
 21 22  1  0
 21 26  1  0
 22 23  1  0
 23 24  2  0
 24 25  1  0
 25 26  2  0
 27 28  1  0
 28 29  1  0
 30 31  1  0
M  END
