
     RDKit          3D

 31 34  0  0  0  0  0  0  0  0999 V2000
    5.2690    2.9720   -1.0710 C   0  0  0  0  0  0  0  0  0  0  0  0
    5.8850    1.6230   -1.2500 C   0  0  0  0  0  0  0  0  0  0  0  0
    5.1660    0.5790   -0.4750 C   0  0  0  0  0  0  0  0  0  0  0  0
    4.0700    0.7170    0.3490 C   0  0  0  0  0  0  0  0  0  0  0  0
    3.7470   -0.5310    0.8560 C   0  0  0  0  0  0  0  0  0  0  0  0
    2.6660   -0.9080    1.7490 C   0  0  0  0  0  0  0  0  0  0  0  0
    2.9360   -0.9780    3.0040 O   0  0  0  0  0  0  0  0  0  0  0  0
    1.3460   -1.2000    1.3570 N   0  0  0  0  0  0  0  0  0  0  0  0
    0.3750   -1.5670    2.3670 C   0  0  0  0  0  0  0  0  0  0  0  0
   -0.6690   -0.4550    2.3890 C   0  0  0  0  0  0  0  0  0  0  0  0
   -1.3270   -0.3770    1.0560 C   0  0  0  0  0  0  0  0  0  0  0  0
   -0.5490   -0.7500   -0.0900 C   0  0  0  0  0  0  0  0  0  0  0  0
   -1.0750   -0.5660   -1.2940 C   0  0  0  0  0  0  0  0  0  0  0  0
   -2.3480   -0.0010   -1.6200 C   0  0  0  0  0  0  0  0  0  0  0  0
   -3.3900    0.4470   -0.8410 N   0  0  0  0  0  0  0  0  0  0  0  0
   -4.2780   -0.3740   -0.1160 C   0  0  0  0  0  0  0  0  0  0  0  0
   -5.2680    0.0980    0.5900 C   0  0  0  0  0  0  0  0  0  0  0  0
   -6.2020   -0.8030    1.3560 C   0  0  0  0  0  0  0  0  0  0  0  0
   -5.5400    1.5340    0.6870 C   0  0  0  0  0  0  0  0  0  0  0  0
   -4.6100    2.3670   -0.0720 C   0  0  0  0  0  0  0  0  0  0  0  0
   -3.6130    1.8790   -0.7820 C   0  0  0  0  0  0  0  0  0  0  0  0
   -2.7190    2.7660   -1.5140 C   0  0  0  0  0  0  0  0  0  0  0  0
   -0.3510   -1.2510   -2.4340 C   0  0  0  0  0  0  0  0  0  0  0  0
   -0.8300   -1.0570   -3.5910 O   0  0  0  0  0  0  0  0  0  0  0  0
    0.7770   -2.0470   -2.2010 N   0  0  0  0  0  0  0  0  0  0  0  0
    1.2290   -2.2130   -0.8450 C   0  0  0  0  0  0  0  0  0  0  0  0
    1.8400   -3.2740   -0.5630 O   0  0  0  0  0  0  0  0  0  0  0  0
    0.9130   -1.1120    0.0360 C   0  0  2  0  0  0  0  0  0  0  0  0
    4.6710   -1.3840    0.3130 C   0  0  0  0  0  0  0  0  0  0  0  0
    4.8080   -2.8560    0.5110 C   0  0  0  0  0  0  0  0  0  0  0  0
    5.4890   -0.6770   -0.4690 O   0  0  0  0  0  0  0  0  0  0  0  0
  1  2  1  0
  2  3  1  0
  3  4  2  0
  3 31  1  0
  4  5  1  0
  5  6  1  0
  5 29  2  0
  6  7  2  0
  6  8  1  0
  8  9  1  0
 28  8  1  1
  9 10  1  0
 10 11  1  0
 11 12  1  0
 12 13  2  0
 12 28  1  0
 13 14  1  0
 13 23  1  0
 14 15  1  0
 15 16  1  0
 15 21  1  0
 16 17  2  0
 17 18  1  0
 17 19  1  0
 19 20  1  0
 20 21  2  0
 21 22  1  0
 23 24  2  0
 23 25  1  0
 25 26  1  0
 26 27  2  0
 26 28  1  0
 29 30  1  0
 29 31  1  0
M  END
