
     RDKit          3D

 31 34  0  0  0  0  0  0  0  0999 V2000
    9.0660    0.5670    1.1570 C   0  0  0  0  0  0  0  0  0  0  0  0
    7.9450    0.6030    0.1670 C   0  0  0  0  0  0  0  0  0  0  0  0
    7.2310   -0.4840   -0.0720 C   0  0  0  0  0  0  0  0  0  0  0  0
    6.1890   -0.4660   -0.9870 O   0  0  0  0  0  0  0  0  0  0  0  0
    4.8640   -0.5630   -0.5990 C   0  0  0  0  0  0  0  0  0  0  0  0
    4.5480   -0.6830    0.7390 C   0  0  0  0  0  0  0  0  0  0  0  0
    3.2470   -0.7810    1.1550 C   0  0  0  0  0  0  0  0  0  0  0  0
    2.1720   -0.7660    0.2600 C   0  0  0  0  0  0  0  0  0  0  0  0
    0.8280   -0.8580    0.7370 C   0  0  0  0  0  0  0  0  0  0  0  0
    0.7700   -0.8920    2.0620 O   0  0  0  0  0  0  0  0  0  0  0  0
   -0.4230   -0.9200    0.1150 N   0  0  0  0  0  0  0  0  0  0  0  0
   -1.5700   -0.9950    1.0910 C   0  0  0  0  0  0  0  0  0  0  0  0
   -2.7350   -0.2360    0.5850 C   0  0  0  0  0  0  0  0  0  0  0  0
   -3.0970   -0.4420   -0.6920 C   0  0  0  0  0  0  0  0  0  0  0  0
   -4.1150    0.0350   -1.6020 C   0  0  0  0  0  0  0  0  0  0  0  0
   -5.2660    0.6290   -1.4290 N   0  0  0  0  0  0  0  0  0  0  0  0
   -5.9480    1.0260   -0.2800 O   0  0  0  0  0  0  0  0  0  0  0  0
   -5.8170    0.7190    1.0790 C   0  0  0  0  0  0  0  0  0  0  0  0
   -6.9110    0.5500    1.8130 C   0  0  0  0  0  0  0  0  0  0  0  0
   -6.5680    0.2310    3.2220 C   0  0  0  0  0  0  0  0  0  0  0  0
   -5.0830    0.2410    3.1910 C   0  0  0  0  0  0  0  0  0  0  0  0
   -4.6620    0.5240    1.9470 C   0  0  0  0  0  0  0  0  0  0  0  0
   -3.1910    0.5830    1.7110 C   0  0  0  0  0  0  0  0  0  0  0  0
   -2.2320   -1.4260   -1.4330 C   0  0  0  0  0  0  0  0  0  0  0  0
   -0.7710   -0.9400   -1.2740 C   0  0  1  0  0  0  0  0  0  0  0  0
   -0.7920    0.4250   -1.8770 C   0  0  0  0  0  0  0  0  0  0  0  0
   -0.5210    1.4420   -1.1770 O   0  0  0  0  0  0  0  0  0  0  0  0
   -1.1170    0.5740   -3.2360 N   0  0  0  0  0  0  0  0  0  0  0  0
   -1.1510    1.8870   -3.8690 C   0  0  0  0  0  0  0  0  0  0  0  0
    2.4740   -0.6470   -1.0710 C   0  0  0  0  0  0  0  0  0  0  0  0
    3.8180   -0.5470   -1.4760 C   0  0  0  0  0  0  0  0  0  0  0  0
  1  2  1  0
  2  3  2  3
  3  4  1  0
  4  5  1  0
  5  6  2  0
  5 31  1  0
  6  7  1  0
  7  8  2  0
  8  9  1  0
  8 30  1  0
  9 10  2  0
  9 11  1  0
 11 12  1  0
 11 25  1  0
 12 13  1  0
 13 14  2  0
 13 23  1  0
 14 15  1  0
 14 24  1  0
 15 16  2  0
 16 17  1  0
 17 18  1  0
 18 19  2  0
 18 22  1  0
 19 20  1  0
 20 21  1  0
 21 22  2  0
 22 23  1  0
 24 25  1  0
 25 26  1  1
 26 27  2  0
 26 28  1  0
 28 29  1  0
 30 31  2  0
M  END
