
     RDKit          3D

 31 34  0  0  0  0  0  0  0  0999 V2000
   -6.9420   -0.2350    2.0700 C   0  0  0  0  0  0  0  0  0  0  0  0
   -6.2150    0.0680    0.7840 C   0  0  0  0  0  0  0  0  0  0  0  0
   -6.9760    0.7280   -0.0780 C   0  0  0  0  0  0  0  0  0  0  0  0
   -6.7800    1.2610   -1.4480 C   0  0  0  0  0  0  0  0  0  0  0  0
   -5.6770    2.2420   -1.5580 C   0  0  0  0  0  0  0  0  0  0  0  0
   -4.3970    2.2510   -1.2320 C   0  0  0  0  0  0  0  0  0  0  0  0
   -3.4930    1.2820   -0.6090 C   0  0  0  0  0  0  0  0  0  0  0  0
   -2.2210    1.6300   -0.9820 C   0  0  0  0  0  0  0  0  0  0  0  0
   -1.1590    0.8580   -0.5170 C   0  0  0  0  0  0  0  0  0  0  0  0
   -1.3530   -0.2300    0.2970 C   0  0  0  0  0  0  0  0  0  0  0  0
   -0.2990   -1.0260    0.7910 N   0  0  0  0  0  0  0  0  0  0  0  0
    1.0710   -0.7240    0.6030 C   0  0  0  0  0  0  0  0  0  0  0  0
    1.4220    0.5270    0.7440 N   0  0  0  0  0  0  0  0  0  0  0  0
    2.8150    0.8780    0.5590 C   0  0  0  0  0  0  0  0  0  0  0  0
    3.6240    0.1840    1.1890 O   0  0  0  0  0  0  0  0  0  0  0  0
    3.1630    1.9540   -0.3000 C   0  0  0  0  0  0  0  0  0  0  0  0
    4.3100    2.4600   -0.6310 C   0  0  0  0  0  0  0  0  0  0  0  0
    5.5860    1.9950   -0.1540 C   0  0  0  0  0  0  0  0  0  0  0  0
    6.8310    2.5540   -0.5210 C   0  0  0  0  0  0  0  0  0  0  0  0
    7.7920    1.8320    0.1430 C   0  0  0  0  0  0  0  0  0  0  0  0
    7.1290    0.8750    0.8810 C   0  0  0  0  0  0  0  0  0  0  0  0
    5.8620    1.0280    0.6610 O   0  0  0  0  0  0  0  0  0  0  0  0
    1.9890   -1.7470    0.2820 N   0  0  0  0  0  0  0  0  0  0  0  0
    2.5140   -1.8340   -1.0600 C   0  0  0  0  0  0  0  0  0  0  0  0
    3.0990   -3.2270   -1.2030 C   0  0  0  0  0  0  0  0  0  0  0  0
    2.3220   -4.1910   -0.6180 O   0  0  0  0  0  0  0  0  0  0  0  0
    2.1210   -4.0890    0.7290 C   0  0  0  0  0  0  0  0  0  0  0  0
    2.4190   -2.7110    1.2600 C   0  0  0  0  0  0  0  0  0  0  0  0
   -2.6620   -0.5320    0.6410 C   0  0  0  0  0  0  0  0  0  0  0  0
   -3.7410    0.2020    0.2050 C   0  0  0  0  0  0  0  0  0  0  0  0
   -4.8920   -0.4060    0.7580 O   0  0  0  0  0  0  0  0  0  0  0  0
  1  2  1  0
  2  3  2  0
  2 31  1  0
  3  4  1  0
  4  5  1  0
  5  6  2  0
  6  7  1  0
  7  8  2  0
  7 30  1  0
  8  9  1  0
  9 10  2  0
 10 11  1  0
 10 29  1  0
 11 12  1  0
 12 13  2  3
 12 23  1  0
 13 14  1  0
 14 15  2  0
 14 16  1  0
 16 17  2  3
 17 18  1  0
 18 19  2  0
 18 22  1  0
 19 20  1  0
 20 21  2  0
 21 22  1  0
 23 24  1  0
 23 28  1  0
 24 25  1  0
 25 26  1  0
 26 27  1  0
 27 28  1  0
 29 30  2  0
 30 31  1  0
M  END
