
     RDKit          3D

 19 20  0  0  0  0  0  0  0  0999 V2000
   -1.9150    1.6790   -1.3330 O   0  0  0  0  0  0  0  0  0  0  0  0
   -2.5490    0.7630   -0.4810 C   0  0  0  0  0  0  0  0  0  0  0  0
   -3.8580    0.9110   -0.2130 C   0  0  0  0  0  0  0  0  0  0  0  0
   -4.5400    0.0530    0.6410 C   0  0  0  0  0  0  0  0  0  0  0  0
   -3.8090   -0.9470    1.1890 C   0  0  0  0  0  0  0  0  0  0  0  0
   -4.6490   -1.9980    2.3570 Cl  0  0  0  0  0  0  0  0  0  0  0  0
   -2.4430   -1.1440    0.9390 C   0  0  0  0  0  0  0  0  0  0  0  0
   -1.7920   -0.2800    0.0870 C   0  0  0  0  0  0  0  0  0  0  0  0
   -0.4110   -0.4700   -0.4300 C   0  0  0  0  0  0  0  0  0  0  0  0
    0.4800   -0.0720    0.5040 O   0  0  0  0  0  0  0  0  0  0  0  0
    1.8640    0.1210    0.3530 C   0  0  0  0  0  0  0  0  0  0  0  0
    2.2200    1.3670    0.8520 C   0  0  0  0  0  0  0  0  0  0  0  0
    3.9220    1.7780    0.7850 S   0  0  0  0  0  0  0  0  0  0  0  0
    4.8280    0.5900   -0.1950 C   0  0  2  0  0  0  0  0  0  0  0  0
    4.9550    1.5020   -1.8460 Cl  0  0  0  0  0  0  0  0  0  0  0  0
    4.0290   -0.6100   -0.4800 C   0  0  0  0  0  0  0  0  0  0  0  0
    4.9230   -1.9930   -1.1270 Cl  0  0  0  0  0  0  0  0  0  0  0  0
    2.7490   -0.7570   -0.2400 C   0  0  0  0  0  0  0  0  0  0  0  0
    2.0940   -2.3620   -0.7130 Cl  0  0  0  0  0  0  0  0  0  0  0  0
  1  2  1  0
  2  3  2  0
  2  8  1  0
  3  4  1  0
  4  5  2  0
  5  6  1  0
  5  7  1  0
  7  8  2  0
  8  9  1  0
  9 10  1  0
 10 11  1  0
 11 12  2  0
 11 18  1  0
 12 13  1  0
 13 14  1  0
 14 15  1  6
 14 16  1  0
 16 17  1  0
 16 18  2  0
 18 19  1  0
M  END
