
     RDKit          3D

 18 19  0  0  0  0  0  0  0  0999 V2000
   -1.3200   -2.6450   -0.1030 C   0  0  0  0  0  0  0  0  0  0  0  0
   -1.4180   -1.2050    0.2910 C   0  0  0  0  0  0  0  0  0  0  0  0
   -2.6390   -0.6780    0.7430 C   0  0  0  0  0  0  0  0  0  0  0  0
   -3.8600   -1.8500    1.2190 Cl  0  0  0  0  0  0  0  0  0  0  0  0
   -2.8280    0.6960    0.8560 C   0  0  0  0  0  0  0  0  0  0  0  0
   -1.7450    1.5150    0.5050 C   0  0  0  0  0  0  0  0  0  0  0  0
   -1.9080    2.8870    0.5940 O   0  0  0  0  0  0  0  0  0  0  0  0
   -0.5300    1.0000    0.0630 C   0  0  0  0  0  0  0  0  0  0  0  0
    0.5160    1.8680   -0.2270 C   0  0  0  0  0  0  0  0  0  0  0  0
    0.3080    3.2700   -0.1390 O   0  0  0  0  0  0  0  0  0  0  0  0
    1.7800    1.3610   -0.6160 C   0  0  0  0  0  0  0  0  0  0  0  0
    3.0530    2.4980   -1.0070 Cl  0  0  0  0  0  0  0  0  0  0  0  0
    1.9260    0.0310   -0.6790 C   0  0  0  0  0  0  0  0  0  0  0  0
    3.3180   -0.4980   -0.8940 C   0  0  0  0  0  0  0  0  0  0  0  0
    3.6450   -1.5140    0.6750 S   0  0  0  0  0  0  0  0  0  0  0  0
    0.8850   -0.8700   -0.4050 C   0  0  0  0  0  0  0  0  0  0  0  0
    1.1470   -2.5710   -0.5600 Cl  0  0  0  0  0  0  0  0  0  0  0  0
   -0.3690   -0.3800   -0.0330 C   0  0  0  0  0  0  0  0  0  0  0  0
  1  2  1  0
  2  3  2  0
  2 18  1  0
  3  4  1  0
  3  5  1  0
  5  6  2  0
  6  7  1  0
  6  8  1  0
  8  9  2  0
  8 18  1  0
  9 10  1  0
  9 11  1  0
 11 12  1  0
 11 13  2  0
 13 14  1  0
 13 16  1  0
 14 15  1  0
 16 17  1  0
 16 18  2  0
M  END
