
     RDKit          3D

 19 20  0  0  0  0  0  0  0  0999 V2000
   -6.0980    0.5600    0.0930 C   0  0  0  0  0  0  0  0  0  0  0  0
   -4.6270    0.5340   -0.1660 C   0  0  0  0  0  0  0  0  0  0  0  0
   -3.4400   -0.4530    0.6640 S   0  0  0  0  0  0  0  0  0  0  0  0
   -2.0130    0.1220   -0.2320 C   0  0  0  0  0  0  0  0  0  0  0  0
   -0.6390   -0.3290   -0.0140 C   0  0  0  0  0  0  0  0  0  0  0  0
   -0.2780   -1.2700    0.9260 C   0  0  0  0  0  0  0  0  0  0  0  0
    1.0920   -1.4530    0.8560 C   0  0  0  0  0  0  0  0  0  0  0  0
    1.4940   -0.5840   -0.1560 C   0  0  0  0  0  0  0  0  0  0  0  0
    2.9230   -0.4640   -0.5620 C   0  0  2  0  0  0  0  0  0  0  0  0
    3.4820   -1.7250   -0.6800 O   0  0  0  0  0  0  0  0  0  0  0  0
    3.7150    0.3560    0.4570 C   0  0  0  0  0  0  0  0  0  0  0  0
    5.1470    0.3980   -0.0770 C   0  0  1  0  0  0  0  0  0  0  0  0
    5.8100   -1.2330   -0.2220 Cl  0  0  0  0  0  0  0  0  0  0  0  0
    5.1300    1.1550   -1.6860 Cl  0  0  0  0  0  0  0  0  0  0  0  0
    6.1810    1.3900    0.9750 Cl  0  0  0  0  0  0  0  0  0  0  0  0
    0.4470    0.0380   -0.6190 O   0  0  0  0  0  0  0  0  0  0  0  0
   -2.5420    1.0040   -1.0760 C   0  0  0  0  0  0  0  0  0  0  0  0
   -3.8670    1.2410   -1.0730 C   0  0  0  0  0  0  0  0  0  0  0  0
   -4.6870    2.4020   -2.1600 Cl  0  0  0  0  0  0  0  0  0  0  0  0
  1  2  1  0
  2  3  1  0
  2 18  2  0
  3  4  1  0
  4  5  1  0
  4 17  2  0
  5  6  2  0
  5 16  1  0
  6  7  1  0
  7  8  2  0
  8  9  1  0
  8 16  1  0
  9 10  1  1
  9 11  1  0
 11 12  1  0
 12 13  1  6
 12 14  1  0
 12 15  1  0
 17 18  1  0
 18 19  1  0
M  END
