
     RDKit          3D

 19 20  0  0  0  0  0  0  0  0999 V2000
    3.6700    1.0020    1.8130 C   0  0  0  0  0  0  0  0  0  0  0  0
    3.8610   -0.1200    0.4160 S   0  0  0  0  0  0  0  0  0  0  0  0
    2.3260   -0.5250   -0.3650 C   0  0  0  0  0  0  0  0  0  0  0  0
    2.4000   -1.3570   -1.4150 C   0  0  0  0  0  0  0  0  0  0  0  0
    1.2040   -1.7870   -2.1700 C   0  0  1  0  0  0  0  0  0  0  0  0
    1.3580   -1.3770   -3.8990 Cl  0  0  0  0  0  0  0  0  0  0  0  0
    1.0800   -3.5620   -1.9520 Cl  0  0  0  0  0  0  0  0  0  0  0  0
    0.0180   -1.2350   -1.6670 O   0  0  0  0  0  0  0  0  0  0  0  0
   -0.0950   -0.3840   -0.6040 C   0  0  0  0  0  0  0  0  0  0  0  0
   -1.3700    0.1510   -0.1500 C   0  0  0  0  0  0  0  0  0  0  0  0
   -1.5420    1.5020    0.1210 C   0  0  0  0  0  0  0  0  0  0  0  0
   -2.7220    2.0590    0.5700 C   0  0  0  0  0  0  0  0  0  0  0  0
   -2.8230    3.7930    0.8810 Cl  0  0  0  0  0  0  0  0  0  0  0  0
   -3.7980    1.2210    0.7620 C   0  0  0  0  0  0  0  0  0  0  0  0
   -3.6740   -0.1200    0.5060 C   0  0  0  0  0  0  0  0  0  0  0  0
   -2.4800   -0.6580    0.0570 C   0  0  0  0  0  0  0  0  0  0  0  0
   -2.3770   -2.0360   -0.1960 O   0  0  0  0  0  0  0  0  0  0  0  0
    1.0270   -0.0280    0.0460 C   0  0  0  0  0  0  0  0  0  0  0  0
    0.9540    1.0390    1.4370 Cl  0  0  0  0  0  0  0  0  0  0  0  0
  1  2  1  0
  2  3  1  0
  3  4  2  0
  3 18  1  0
  4  5  1  0
  5  6  1  6
  5  7  1  0
  5  8  1  0
  8  9  1  0
  9 10  1  0
  9 18  2  0
 10 11  2  0
 10 16  1  0
 11 12  1  0
 12 13  1  0
 12 14  2  0
 14 15  1  0
 15 16  2  0
 16 17  1  0
 18 19  1  0
M  END
