
     RDKit          3D

 26 28  0  0  0  0  0  0  0  0999 V2000
   -6.6980    0.4370    1.1450 C   0  0  0  0  0  0  0  0  0  0  0  0
   -6.1930    0.0800   -0.2190 C   0  0  2  0  0  0  0  0  0  0  0  0
   -6.7020   -1.2750   -0.6630 C   0  0  0  0  0  0  0  0  0  0  0  0
   -6.2970   -2.2480    0.1960 F   0  0  0  0  0  0  0  0  0  0  0  0
   -4.7080    0.0860   -0.2320 C   0  0  0  0  0  0  0  0  0  0  0  0
   -3.9620   -0.7370    0.5810 C   0  0  0  0  0  0  0  0  0  0  0  0
   -2.5910   -0.7500    0.5860 C   0  0  0  0  0  0  0  0  0  0  0  0
   -1.8550   -1.6140    1.4390 N   0  0  0  0  0  0  0  0  0  0  0  0
   -1.9180    0.1070   -0.2680 C   0  0  0  0  0  0  0  0  0  0  0  0
   -0.5890    0.1300   -0.2970 N   0  0  0  0  0  0  0  0  0  0  0  0
    0.1020    0.9430   -1.1070 C   0  0  0  0  0  0  0  0  0  0  0  0
    1.5200    0.9240   -1.0930 N   0  0  0  0  0  0  0  0  0  0  0  0
    2.2870    0.0810   -0.2360 C   0  0  2  0  0  0  0  0  0  0  0  0
    2.0760    0.4060    1.2050 C   0  0  0  0  0  0  0  0  0  0  0  0
    2.5860   -0.6440    2.1470 C   0  0  0  0  0  0  0  0  0  0  0  0
    3.1280   -1.8700    1.5010 C   0  0  0  0  0  0  0  0  0  0  0  0
    4.2600   -1.7220    0.7530 O   0  0  0  0  0  0  0  0  0  0  0  0
    4.6390   -0.4470    0.4330 C   0  0  1  0  0  0  0  0  0  0  0  0
    6.0720   -0.5100   -0.0530 C   0  0  0  0  0  0  0  0  0  0  0  0
    6.5740    0.8560   -0.4280 C   0  0  0  0  0  0  0  0  0  0  0  0
    6.4960    1.6700    0.7040 O   0  0  0  0  0  0  0  0  0  0  0  0
    3.7420    0.1290   -0.6430 C   0  0  0  0  0  0  0  0  0  0  0  0
   -0.5660    1.7980   -1.9520 C   0  0  0  0  0  0  0  0  0  0  0  0
   -1.9260    1.8100   -1.9570 C   0  0  0  0  0  0  0  0  0  0  0  0
   -2.6180    0.9670   -1.1170 C   0  0  0  0  0  0  0  0  0  0  0  0
   -3.9910    0.9310   -1.0740 C   0  0  0  0  0  0  0  0  0  0  0  0
  2  1  1  1
  2  3  1  0
  2  5  1  0
  3  4  1  0
  5  6  2  0
  5 26  1  0
  6  7  1  0
  7  8  1  0
  7  9  2  0
  9 10  1  0
  9 25  1  0
 10 11  2  0
 11 12  1  0
 11 23  1  0
 13 12  1  6
 13 14  1  0
 13 22  1  0
 14 15  1  0
 15 16  1  0
 16 17  1  0
 17 18  1  0
 18 19  1  6
 18 22  1  0
 19 20  1  0
 20 21  1  0
 23 24  2  0
 24 25  1  0
 25 26  2  0
M  END
