
     RDKit          3D

 28 30  0  0  0  0  0  0  0  0999 V2000
   -5.7050    1.0600    1.5870 C   0  0  0  0  0  0  0  0  0  0  0  0
   -6.0620    1.6910    0.2480 C   0  0  0  0  0  0  0  0  0  0  0  0
   -5.1130    1.2810   -0.8340 C   0  0  0  0  0  0  0  0  0  0  0  0
   -3.7010    1.6890   -0.5130 C   0  0  0  0  0  0  0  0  0  0  0  0
   -2.7530    0.8200   -0.2940 C   0  0  0  0  0  0  0  0  0  0  0  0
   -2.9100   -0.6310   -0.3240 C   0  0  0  0  0  0  0  0  0  0  0  0
   -2.0580   -1.1780   -1.3200 O   0  0  0  0  0  0  0  0  0  0  0  0
   -2.2790   -2.5570   -1.2710 C   0  0  0  0  0  0  0  0  0  0  0  0
   -1.4530   -3.3160   -2.2680 C   0  0  0  0  0  0  0  0  0  0  0  0
   -1.4250    1.3140    0.0000 N   0  0  0  0  0  0  0  0  0  0  0  0
   -1.1290    2.6860    0.0570 C   0  0  0  0  0  0  0  0  0  0  0  0
    0.0560    3.1400    0.3190 C   0  0  0  0  0  0  0  0  0  0  0  0
    1.2400    2.3550    0.5890 C   0  0  0  0  0  0  0  0  0  0  0  0
    2.3300    3.0070    0.8300 O   0  0  0  0  0  0  0  0  0  0  0  0
    1.3930    1.0060    0.6320 O   0  0  0  0  0  0  0  0  0  0  0  0
    2.5920    0.3570    0.9050 C   0  0  0  0  0  0  0  0  0  0  0  0
    2.9780    0.0010    2.1800 C   0  0  0  0  0  0  0  0  0  0  0  0
    4.1810   -0.6460    2.4270 C   0  0  0  0  0  0  0  0  0  0  0  0
    5.0440   -0.9610    1.4030 C   0  0  0  0  0  0  0  0  0  0  0  0
    4.6780   -0.6130    0.1200 C   0  0  0  0  0  0  0  0  0  0  0  0
    3.4610    0.0400   -0.1190 C   0  0  0  0  0  0  0  0  0  0  0  0
    5.5380   -0.9260   -0.9090 O   0  0  0  0  0  0  0  0  0  0  0  0
    6.4510   -2.0000   -0.8700 C   0  0  0  0  0  0  0  0  0  0  0  0
    6.5240   -2.6470    0.4900 C   0  0  0  0  0  0  0  0  0  0  0  0
    6.3360   -1.6490    1.6090 C   0  0  0  0  0  0  0  0  0  0  0  0
   -2.1760    3.6350   -0.1850 N   0  0  0  0  0  0  0  0  0  0  0  0
   -3.4680    3.1390   -0.4710 C   0  0  0  0  0  0  0  0  0  0  0  0
   -4.4230    3.9650   -0.6930 O   0  0  0  0  0  0  0  0  0  0  0  0
  1  2  1  0
  2  3  1  0
  3  4  1  0
  4  5  2  0
  4 27  1  0
  5  6  1  0
  5 10  1  0
  6  7  1  0
  7  8  1  0
  8  9  1  0
 10 11  1  0
 11 12  2  3
 11 26  1  0
 12 13  1  0
 13 14  2  0
 13 15  1  0
 15 16  1  0
 16 17  2  0
 16 21  1  0
 17 18  1  0
 18 19  2  0
 19 20  1  0
 19 25  1  0
 20 21  2  0
 20 22  1  0
 22 23  1  0
 23 24  1  0
 24 25  1  0
 26 27  1  0
 27 28  2  0
M  END
