
     RDKit          3D

 28 30  0  0  0  0  0  0  0  0999 V2000
   -7.5030    2.6180    0.1310 C   0  0  0  0  0  0  0  0  0  0  0  0
   -6.6260    1.4940   -0.2140 C   0  0  0  0  0  0  0  0  0  0  0  0
   -5.8990    1.5710   -1.2560 O   0  0  0  0  0  0  0  0  0  0  0  0
   -6.5950    0.3640    0.5890 O   0  0  0  0  0  0  0  0  0  0  0  0
   -5.7470   -0.7030    0.2400 C   0  0  1  0  0  0  0  0  0  0  0  0
   -5.8450   -1.8470    1.2280 C   0  0  0  0  0  0  0  0  0  0  0  0
   -6.0350   -1.1390   -1.1660 C   0  0  0  0  0  0  0  0  0  0  0  0
   -4.3330   -0.2140    0.3120 C   0  0  0  0  0  0  0  0  0  0  0  0
   -4.1810    0.9790    0.6500 O   0  0  0  0  0  0  0  0  0  0  0  0
   -3.2750   -1.1010    0.0030 N   0  0  0  0  0  0  0  0  0  0  0  0
   -1.9310   -0.7020    0.0450 C   0  0  0  0  0  0  0  0  0  0  0  0
   -0.9270   -1.6790    0.0680 C   0  0  0  0  0  0  0  0  0  0  0  0
    0.4260   -1.3680    0.0890 C   0  0  0  0  0  0  0  0  0  0  0  0
    0.8300   -0.0820    0.0850 C   0  0  0  0  0  0  0  0  0  0  0  0
    2.1680    0.3230    0.0880 N   0  0  0  0  0  0  0  0  0  0  0  0
    3.2580   -0.5370   -0.1740 C   0  0  0  0  0  0  0  0  0  0  0  0
    3.1030   -1.7430   -0.4380 O   0  0  0  0  0  0  0  0  0  0  0  0
    4.6410    0.0280   -0.1320 C   0  0  0  0  0  0  0  0  0  0  0  0
    5.6530   -0.7770   -0.3770 C   0  0  0  0  0  0  0  0  0  0  0  0
    7.0460   -0.3460   -0.3660 C   0  0  0  0  0  0  0  0  0  0  0  0
    8.2050   -0.9290   -0.5690 C   0  0  0  0  0  0  0  0  0  0  0  0
    9.2800    0.0680   -0.4100 C   0  0  0  0  0  0  0  0  0  0  0  0
    8.5890    1.3180   -0.0840 C   0  0  0  0  0  0  0  0  0  0  0  0
    7.2760    1.0570   -0.0620 C   0  0  0  0  0  0  0  0  0  0  0  0
    6.1820    1.8510    0.1860 O   0  0  0  0  0  0  0  0  0  0  0  0
    4.8530    1.4500    0.1760 C   0  0  0  0  0  0  0  0  0  0  0  0
   -0.1350    0.9150    0.0620 C   0  0  0  0  0  0  0  0  0  0  0  0
   -1.5030    0.5840    0.0420 C   0  0  0  0  0  0  0  0  0  0  0  0
  1  2  1  0
  2  3  2  0
  2  4  1  0
  4  5  1  0
  5  6  1  1
  5  7  1  0
  5  8  1  0
  8  9  2  0
  8 10  1  0
 10 11  1  0
 11 12  2  0
 11 28  1  0
 12 13  1  0
 13 14  2  0
 14 15  1  0
 14 27  1  0
 15 16  1  0
 16 17  2  0
 16 18  1  0
 18 19  2  0
 18 26  1  0
 19 20  1  0
 20 21  2  0
 20 24  1  0
 21 22  1  0
 22 23  1  0
 23 24  2  0
 24 25  1  0
 25 26  1  0
 27 28  2  0
M  END
