
     RDKit          3D

 27 29  0  0  0  0  0  0  0  0999 V2000
   -1.5170   -4.2130   -1.6090 C   0  0  0  0  0  0  0  0  0  0  0  0
   -2.0480   -3.1080   -0.9020 O   0  0  0  0  0  0  0  0  0  0  0  0
   -1.7170   -1.7750   -1.2630 C   0  0  0  0  0  0  0  0  0  0  0  0
   -0.9560   -1.6830   -2.2090 O   0  0  0  0  0  0  0  0  0  0  0  0
   -2.2800   -0.7070   -0.5140 C   0  0  0  0  0  0  0  0  0  0  0  0
   -3.1330   -1.1340    0.4720 C   0  0  0  0  0  0  0  0  0  0  0  0
   -3.9480   -0.4850    1.4850 C   0  0  0  0  0  0  0  0  0  0  0  0
   -4.1550   -1.3460    2.6650 C   0  0  0  0  0  0  0  0  0  0  0  0
   -4.5410    0.7240    1.5470 C   0  0  0  0  0  0  0  0  0  0  0  0
   -4.5940    1.8630    0.6130 C   0  0  0  0  0  0  0  0  0  0  0  0
   -5.7720    2.6180    0.7970 N   0  0  0  0  0  0  0  0  0  0  0  0
   -3.7500    2.2900   -0.3360 C   0  0  0  0  0  0  0  0  0  0  0  0
   -2.4540    1.8060   -0.8220 C   0  0  0  0  0  0  0  0  0  0  0  0
   -1.8630    0.6170   -0.8950 C   0  0  0  0  0  0  0  0  0  0  0  0
   -0.4830    0.4810   -1.3860 C   0  0  0  0  0  0  0  0  0  0  0  0
    0.2600    1.6950   -1.0030 N   0  0  0  0  0  0  0  0  0  0  0  0
    1.5820    1.5510   -0.5300 C   0  0  0  0  0  0  0  0  0  0  0  0
    2.2780    2.5720   -0.1870 O   0  0  0  0  0  0  0  0  0  0  0  0
    2.2600    0.2360   -0.3950 C   0  0  0  0  0  0  0  0  0  0  0  0
    3.5750    0.3870    0.0740 O   0  0  0  0  0  0  0  0  0  0  0  0
    4.1860   -0.8440    0.1920 C   0  0  1  0  0  0  0  0  0  0  0  0
    5.4330   -0.8460   -0.6430 C   0  0  0  0  0  0  0  0  0  0  0  0
    6.4890   -0.2120    0.2440 C   0  0  0  0  0  0  0  0  0  0  0  0
    6.1300   -0.7010    1.6160 C   0  0  0  0  0  0  0  0  0  0  0  0
    4.6850   -1.1130    1.5940 C   0  0  0  0  0  0  0  0  0  0  0  0
   -0.3020    3.0140   -1.0960 C   0  0  0  0  0  0  0  0  0  0  0  0
   -1.7870    3.0300   -1.2960 C   0  0  0  0  0  0  0  0  0  0  0  0
  1  2  1  0
  2  3  1  0
  3  4  2  0
  3  5  1  0
  5  6  2  0
  5 14  1  0
  6  7  1  0
  7  8  1  0
  7  9  2  0
  9 10  1  0
 10 11  1  0
 10 12  2  0
 12 13  1  0
 13 14  2  0
 13 27  1  0
 14 15  1  0
 15 16  1  0
 16 17  1  0
 16 26  1  0
 17 18  2  0
 17 19  1  0
 19 20  1  0
 21 20  1  1
 21 22  1  0
 21 25  1  0
 22 23  1  0
 23 24  1  0
 24 25  1  0
 26 27  1  0
M  END
