
     RDKit          3D

 17 16  0  0  0  0  0  0  0  0999 V2000
   -6.0640   -1.1250    1.8450 C   0  0  0  0  0  0  0  0  0  0  0  0
   -5.4430    0.1050    1.2260 C   0  0  0  0  0  0  0  0  0  0  0  0
   -4.0030   -0.1250    0.8110 C   0  0  0  0  0  0  0  0  0  0  0  0
   -3.9880   -1.2370   -0.1940 C   0  0  0  0  0  0  0  0  0  0  0  0
   -2.5860   -1.5210   -0.6480 C   0  0  0  0  0  0  0  0  0  0  0  0
   -1.9710   -0.2940   -1.2910 C   0  0  0  0  0  0  0  0  0  0  0  0
   -0.5540   -0.6180   -1.7410 C   0  0  0  0  0  0  0  0  0  0  0  0
    0.0970    0.5710   -2.3850 C   0  0  0  0  0  0  0  0  0  0  0  0
    0.1950    1.7530   -1.4800 C   0  0  0  0  0  0  0  0  0  0  0  0
    0.9860    1.4530   -0.2410 C   0  0  0  0  0  0  0  0  0  0  0  0
    2.3720    1.0480   -0.6050 C   0  0  0  0  0  0  0  0  0  0  0  0
    3.1420    0.7720    0.6410 C   0  0  0  0  0  0  0  0  0  0  0  0
    2.5930    0.8980    1.7550 O   0  0  0  0  0  0  0  0  0  0  0  0
    4.4590    0.3790    0.5070 O   0  0  0  0  0  0  0  0  0  0  0  0
    5.2580    0.0990    1.6180 C   0  0  1  0  0  0  0  0  0  0  0  0
    5.6490   -1.3700    1.5440 C   0  0  0  0  0  0  0  0  0  0  0  0
    6.4750    0.9970    1.5540 C   0  0  0  0  0  0  0  0  0  0  0  0
  1  2  1  0
  2  3  1  0
  3  4  1  0
  4  5  1  0
  5  6  1  0
  6  7  1  0
  7  8  1  0
  8  9  1  0
  9 10  1  0
 10 11  1  0
 11 12  1  0
 12 13  2  0
 12 14  1  0
 14 15  1  0
 15 16  1  6
 15 17  1  0
M  END
