
     RDKit          3D

 27 29  0  0  0  0  0  0  0  0999 V2000
   -2.4070    2.3440   -2.5500 C   0  0  0  0  0  0  0  0  0  0  0  0
   -3.7740    1.7130   -2.6460 C   0  0  0  0  0  0  0  0  0  0  0  0
   -4.1980    1.2850   -1.4140 O   0  0  0  0  0  0  0  0  0  0  0  0
   -3.7160    0.3830   -0.5270 C   0  0  0  0  0  0  0  0  0  0  0  0
   -4.4010    0.1810    0.6590 C   0  0  0  0  0  0  0  0  0  0  0  0
   -3.9720   -0.7220    1.6030 C   0  0  0  0  0  0  0  0  0  0  0  0
   -4.7240   -0.9310    2.8820 C   0  0  0  0  0  0  0  0  0  0  0  0
   -2.8370   -1.4380    1.3630 C   0  0  0  0  0  0  0  0  0  0  0  0
   -2.3610   -2.4210    2.3840 C   0  0  0  0  0  0  0  0  0  0  0  0
   -2.0970   -1.2810    0.1840 C   0  0  0  0  0  0  0  0  0  0  0  0
   -0.9930   -2.1080    0.0200 N   0  0  0  0  0  0  0  0  0  0  0  0
   -0.0120   -1.9630   -1.0060 C   0  0  0  0  0  0  0  0  0  0  0  0
    1.0620   -1.0380   -0.6760 N   0  0  0  0  0  0  0  0  0  0  0  0
    1.1540    0.3430   -0.9120 C   0  0  0  0  0  0  0  0  0  0  0  0
    0.3340    1.1110   -1.4680 O   0  0  0  0  0  0  0  0  0  0  0  0
    2.4550    0.7750   -0.3650 C   0  0  0  0  0  0  0  0  0  0  0  0
    3.0460    2.0250   -0.3300 C   0  0  0  0  0  0  0  0  0  0  0  0
    4.2980    2.1850    0.2480 C   0  0  0  0  0  0  0  0  0  0  0  0
    4.8750    3.4470    0.2730 O   0  0  0  0  0  0  0  0  0  0  0  0
    4.9780    1.1190    0.7960 C   0  0  0  0  0  0  0  0  0  0  0  0
    6.2420    1.2860    1.3790 O   0  0  0  0  0  0  0  0  0  0  0  0
    6.8940    0.1680    1.9240 C   0  0  0  0  0  0  0  0  0  0  0  0
    4.3860   -0.1190    0.7580 C   0  0  0  0  0  0  0  0  0  0  0  0
    3.1250   -0.2900    0.1780 C   0  0  0  0  0  0  0  0  0  0  0  0
    2.2730   -1.4530   -0.0010 C   0  0  0  0  0  0  0  0  0  0  0  0
    2.5520   -2.6290    0.3730 O   0  0  0  0  0  0  0  0  0  0  0  0
   -2.5750   -0.3490   -0.7460 C   0  0  0  0  0  0  0  0  0  0  0  0
  1  2  1  0
  2  3  1  0
  3  4  1  0
  4  5  2  0
  4 27  1  0
  5  6  1  0
  6  7  1  0
  6  8  2  0
  8  9  1  0
  8 10  1  0
 10 11  1  0
 10 27  2  0
 11 12  1  0
 12 13  1  0
 13 14  1  0
 13 25  1  0
 14 15  2  0
 14 16  1  0
 16 17  2  0
 16 24  1  0
 17 18  1  0
 18 19  1  0
 18 20  2  0
 20 21  1  0
 20 23  1  0
 21 22  1  0
 23 24  2  0
 24 25  1  0
 25 26  2  0
M  END
