
     RDKit          3D

 28 30  0  0  0  0  0  0  0  0999 V2000
    8.2130    1.4960    0.6620 C   0  0  0  0  0  0  0  0  0  0  0  0
    7.6740    0.1260    1.0010 C   0  0  0  0  0  0  0  0  0  0  0  0
    6.3330   -0.0480    0.4810 N   0  0  0  0  0  0  0  0  0  0  0  0
    6.0170    0.0380   -0.8980 C   0  0  0  0  0  0  0  0  0  0  0  0
    6.9180    0.2710   -1.7170 O   0  0  0  0  0  0  0  0  0  0  0  0
    4.6310   -0.1470   -1.3850 C   0  0  0  0  0  0  0  0  0  0  0  0
    4.2170   -0.0900   -2.6900 C   0  0  0  0  0  0  0  0  0  0  0  0
    2.8650   -0.3180   -2.6700 C   0  0  0  0  0  0  0  0  0  0  0  0
    2.5350   -0.5020   -1.3330 C   0  0  0  0  0  0  0  0  0  0  0  0
    1.1970   -0.7750   -0.8510 C   0  0  0  0  0  0  0  0  0  0  0  0
    0.7070   -0.2220    0.2130 C   0  0  0  0  0  0  0  0  0  0  0  0
    1.4700    0.7220    1.0030 C   0  0  0  0  0  0  0  0  0  0  0  0
    0.9850    1.2520    2.0380 O   0  0  0  0  0  0  0  0  0  0  0  0
   -0.6400   -0.5310    0.6690 N   0  0  0  0  0  0  0  0  0  0  0  0
   -0.9990   -1.8910    0.8130 C   0  0  0  0  0  0  0  0  0  0  0  0
   -2.4490   -2.2070    0.8450 C   0  0  0  0  0  0  0  0  0  0  0  0
   -3.3110   -1.0250    0.5740 C   0  0  0  0  0  0  0  0  0  0  0  0
   -4.6340   -1.3190    0.2670 C   0  0  0  0  0  0  0  0  0  0  0  0
   -5.5580   -0.3320   -0.0100 C   0  0  0  0  0  0  0  0  0  0  0  0
   -6.8870   -0.5860   -0.3200 O   0  0  0  0  0  0  0  0  0  0  0  0
   -7.3180   -1.9240   -0.3530 C   0  0  0  0  0  0  0  0  0  0  0  0
   -5.1240    0.9810    0.0260 C   0  0  0  0  0  0  0  0  0  0  0  0
   -6.0430    1.9830   -0.2520 O   0  0  0  0  0  0  0  0  0  0  0  0
   -5.6970    3.3510   -0.2390 C   0  0  0  0  0  0  0  0  0  0  0  0
   -3.8130    1.2600    0.3310 C   0  0  0  0  0  0  0  0  0  0  0  0
   -2.8810    0.2570    0.6110 C   0  0  0  0  0  0  0  0  0  0  0  0
   -1.4800    0.5880    0.9460 C   0  0  0  0  0  0  0  0  0  0  0  0
    3.6140   -0.3890   -0.6290 O   0  0  0  0  0  0  0  0  0  0  0  0
  1  2  1  0
  2  3  1  0
  3  4  1  0
  4  5  2  0
  4  6  1  0
  6  7  2  0
  6 28  1  0
  7  8  1  0
  8  9  2  0
  9 10  1  0
  9 28  1  0
 10 11  2  3
 11 12  1  0
 11 14  1  0
 12 13  2  0
 14 15  1  0
 14 27  1  0
 15 16  1  0
 16 17  1  0
 17 18  2  0
 17 26  1  0
 18 19  1  0
 19 20  1  0
 19 22  2  0
 20 21  1  0
 22 23  1  0
 22 25  1  0
 23 24  1  0
 25 26  2  0
 26 27  1  0
M  END
