
     RDKit          3D

 18 19  0  0  0  0  0  0  0  0999 V2000
   -3.6630   -1.1330    1.3750 O   0  0  0  0  0  0  0  0  0  0  0  0
   -3.4180   -0.1510    0.4410 C   0  0  1  0  0  0  0  0  0  0  0  0
   -2.4490    0.9330    0.9270 C   0  0  0  0  0  0  0  0  0  0  0  0
   -1.7740    0.8130   -0.4250 C   0  0  1  0  0  0  0  0  0  0  0  0
   -0.4180    0.9460   -0.4190 O   0  0  0  0  0  0  0  0  0  0  0  0
   -0.1360    2.3240   -0.4730 C   0  0  0  0  0  0  0  0  0  0  0  0
    0.9760    2.7080    0.4640 C   0  0  0  0  0  0  0  0  0  0  0  0
    2.2960    2.1420    0.0240 C   0  0  0  0  0  0  0  0  0  0  0  0
    2.4040    0.8620    0.5500 O   0  0  0  0  0  0  0  0  0  0  0  0
    2.9120   -0.0000   -0.4300 C   0  0  0  0  0  0  0  0  0  0  0  0
    3.1540   -1.3540    0.2100 C   0  0  1  0  0  0  0  0  0  0  0  0
    3.3780   -1.2660    1.5730 O   0  0  0  0  0  0  0  0  0  0  0  0
    1.9760   -2.2740   -0.0790 C   0  0  0  0  0  0  0  0  0  0  0  0
    0.8240   -1.5170    0.1880 O   0  0  0  0  0  0  0  0  0  0  0  0
   -0.2070   -1.8740   -0.6910 C   0  0  0  0  0  0  0  0  0  0  0  0
   -1.5270   -1.6620   -0.0320 C   0  0  0  0  0  0  0  0  0  0  0  0
   -2.3290   -0.5330   -0.5740 C   0  0  1  0  0  0  0  0  0  0  0  0
   -2.8230   -0.7950   -1.8400 O   0  0  0  0  0  0  0  0  0  0  0  0
  2  1  1  1
  2  3  1  0
  2 17  1  0
  4  3  1  1
  4  5  1  0
  4 17  1  0
  5  6  1  0
  6  7  1  0
  7  8  1  0
  8  9  1  0
  9 10  1  0
 10 11  1  0
 11 12  1  1
 11 13  1  0
 13 14  1  0
 14 15  1  0
 15 16  1  0
 16 17  1  0
 17 18  1  6
M  END
