
     RDKit          3D

 18 18  0  0  0  0  0  0  0  0999 V2000
    5.2230   -0.5610    0.4390 O   0  0  0  0  0  0  0  0  0  0  0  0
    3.9460   -1.1340    0.3200 C   0  0  0  0  0  0  0  0  0  0  0  0
    3.1520   -0.2110   -0.5810 C   0  0  0  0  0  0  0  0  0  0  0  0
    1.7530   -0.7590   -0.7620 C   0  0  2  0  0  0  0  0  0  0  0  0
    0.8950    0.0790   -1.6340 C   0  0  0  0  0  0  0  0  0  0  0  0
    0.6250    1.4610   -1.1540 C   0  0  2  0  0  0  0  0  0  0  0  0
    1.0340    1.7060    0.1540 O   0  0  0  0  0  0  0  0  0  0  0  0
   -0.7790    1.8820   -1.4090 C   0  0  0  0  0  0  0  0  0  0  0  0
   -1.7590    1.8150   -0.5490 C   0  0  0  0  0  0  0  0  0  0  0  0
   -3.0130    2.2560   -0.9630 O   0  0  0  0  0  0  0  0  0  0  0  0
   -1.6920    1.3170    0.8380 C   0  0  0  0  0  0  0  0  0  0  0  0
   -2.9290    0.5400    1.2380 C   0  0  1  0  0  0  0  0  0  0  0  0
   -4.0410    1.2750    0.8290 O   0  0  0  0  0  0  0  0  0  0  0  0
   -3.0140   -0.8110    0.6550 C   0  0  0  0  0  0  0  0  0  0  0  0
   -1.8550   -1.3340    0.1500 O   0  0  0  0  0  0  0  0  0  0  0  0
   -1.0300   -1.9690    1.0170 C   0  0  0  0  0  0  0  0  0  0  0  0
    0.3130   -2.1920    0.3200 C   0  0  0  0  0  0  0  0  0  0  0  0
    1.1580   -1.1070    0.4490 O   0  0  0  0  0  0  0  0  0  0  0  0
  1  2  1  0
  2  3  1  0
  4  3  1  1
  4  5  1  0
  4 18  1  0
  5  6  1  0
  6  7  1  1
  6  8  1  0
  8  9  2  0
  9 10  1  0
  9 11  1  0
 11 12  1  0
 12 13  1  6
 12 14  1  0
 14 15  1  0
 15 16  1  0
 16 17  1  0
 17 18  1  0
M  END
