
     RDKit          3D

 18 19  0  0  0  0  0  0  0  0999 V2000
   -2.9730   -0.7430    0.4520 C   0  0  0  0  0  0  0  0  0  0  0  0
   -2.1580   -0.0070   -0.5710 C   0  0  1  0  0  0  0  0  0  0  0  0
   -0.7340   -0.5810   -0.5910 C   0  0  0  0  0  0  0  0  0  0  0  0
   -0.1760   -0.3800    0.7980 C   0  0  2  0  0  0  0  0  0  0  0  0
   -0.1820    0.9780    1.0270 O   0  0  0  0  0  0  0  0  0  0  0  0
    1.0820   -1.1000    1.0950 C   0  0  1  0  0  0  0  0  0  0  0  0
    0.9710   -2.4490    0.8170 O   0  0  0  0  0  0  0  0  0  0  0  0
    2.3070   -0.5720    0.4620 C   0  0  0  0  0  0  0  0  0  0  0  0
    2.9340   -1.2720   -0.4840 C   0  0  0  0  0  0  0  0  0  0  0  0
    4.1610   -0.8230   -1.1690 C   0  0  0  0  0  0  0  0  0  0  0  0
    4.5400    0.4490   -0.7200 O   0  0  0  0  0  0  0  0  0  0  0  0
    3.9140    1.1730    0.2450 C   0  0  0  0  0  0  0  0  0  0  0  0
    2.8210    0.7300    0.8590 C   0  0  0  0  0  0  0  0  0  0  0  0
    2.2120    1.5220    1.8560 O   0  0  0  0  0  0  0  0  0  0  0  0
   -2.7470   -0.1250   -1.8270 O   0  0  0  0  0  0  0  0  0  0  0  0
   -3.7570    0.8100   -1.7920 C   0  0  0  0  0  0  0  0  0  0  0  0
   -3.2450    1.9070   -0.9200 C   0  0  0  0  0  0  0  0  0  0  0  0
   -2.1490    1.3520   -0.3100 O   0  0  0  0  0  0  0  0  0  0  0  0
  2  1  1  1
  2  3  1  0
  2 15  1  0
  2 18  1  0
  3  4  1  0
  4  5  1  6
  4  6  1  0
  6  7  1  6
  6  8  1  0
  8  9  2  0
  8 13  1  0
  9 10  1  0
 10 11  1  0
 11 12  1  0
 12 13  2  0
 13 14  1  0
 15 16  1  0
 16 17  1  0
 17 18  1  0
M  END
