
     RDKit          3D

 18 19  0  0  0  0  0  0  0  0999 V2000
    0.5960    0.8660    0.7740 O   0  0  0  0  0  0  0  0  0  0  0  0
    0.6650    0.1250   -0.2140 C   0  0  0  0  0  0  0  0  0  0  0  0
   -0.4450   -0.3320   -1.0550 C   0  0  0  0  0  0  0  0  0  0  0  0
   -1.7900    0.1530   -0.6480 C   0  0  1  0  0  0  0  0  0  0  0  0
   -1.9010    1.5420   -0.6540 O   0  0  0  0  0  0  0  0  0  0  0  0
   -2.7490   -0.3070   -1.7640 C   0  0  0  0  0  0  0  0  0  0  0  0
   -4.1220   -0.5380   -1.2130 C   0  0  0  0  0  0  0  0  0  0  0  0
   -4.3670    0.4150   -0.0890 C   0  0  0  0  0  0  0  0  0  0  0  0
   -3.5050    0.2230    0.9630 O   0  0  0  0  0  0  0  0  0  0  0  0
   -2.3370   -0.4440    0.6110 C   0  0  2  0  0  0  0  0  0  0  0  0
   -1.4910   -0.4250    1.6910 O   0  0  0  0  0  0  0  0  0  0  0  0
    1.9210   -0.2980   -0.5360 O   0  0  0  0  0  0  0  0  0  0  0  0
    3.1250   -0.0710    0.0120 C   0  0  0  0  0  0  0  0  0  0  0  0
    3.4510    0.6430    1.0420 C   0  0  0  0  0  0  0  0  0  0  0  0
    4.8210    0.8180    1.5520 C   0  0  0  0  0  0  0  0  0  0  0  0
    5.8050    0.1420    0.8350 O   0  0  0  0  0  0  0  0  0  0  0  0
    5.4970   -0.6250   -0.2620 C   0  0  0  0  0  0  0  0  0  0  0  0
    4.2550   -0.7490   -0.6770 C   0  0  0  0  0  0  0  0  0  0  0  0
  1  2  2  0
  2  3  1  0
  2 12  1  0
  3  4  1  0
  4  5  1  1
  4  6  1  0
  4 10  1  0
  6  7  1  0
  7  8  1  0
  8  9  1  0
  9 10  1  0
 10 11  1  1
 12 13  1  0
 13 14  2  0
 13 18  1  0
 14 15  1  0
 15 16  1  0
 16 17  1  0
 17 18  2  0
M  END
