
     RDKit          3D

 18 19  0  0  0  0  0  0  0  0999 V2000
   -1.5840    0.3580    2.0380 C   0  0  0  0  0  0  0  0  0  0  0  0
   -1.7290   -0.3040    0.6610 C   0  0  2  0  0  0  0  0  0  0  0  0
   -0.4110   -0.9200    0.2780 C   0  0  0  0  0  0  0  0  0  0  0  0
   -0.2850   -2.1550    0.0770 O   0  0  0  0  0  0  0  0  0  0  0  0
    0.7380   -0.1590    0.1250 O   0  0  0  0  0  0  0  0  0  0  0  0
    1.9870   -0.6990   -0.2320 C   0  0  1  0  0  0  0  0  0  0  0  0
    2.5640   -0.0890   -1.4820 C   0  0  0  0  0  0  0  0  0  0  0  0
    4.0540   -0.4010   -1.2910 C   0  0  0  0  0  0  0  0  0  0  0  0
    4.2630    0.0350    0.1560 C   0  0  1  0  0  0  0  0  0  0  0  0
    5.2710   -0.6910    0.7750 O   0  0  0  0  0  0  0  0  0  0  0  0
    4.5340    1.4010    0.2000 O   0  0  0  0  0  0  0  0  0  0  0  0
    2.9680   -0.2800    0.8460 C   0  0  0  0  0  0  0  0  0  0  0  0
   -2.0990    0.7190   -0.3850 C   0  0  0  0  0  0  0  0  0  0  0  0
   -3.4310    0.3170   -1.0200 C   0  0  2  0  0  0  0  0  0  0  0  0
   -3.8040    1.2830   -1.9430 O   0  0  0  0  0  0  0  0  0  0  0  0
   -4.4370    0.2670    0.1100 C   0  0  0  0  0  0  0  0  0  0  0  0
   -3.8870   -0.6780    1.1570 C   0  0  0  0  0  0  0  0  0  0  0  0
   -2.7060   -1.2910    0.7450 O   0  0  0  0  0  0  0  0  0  0  0  0
  2  1  1  1
  2  3  1  0
  2 13  1  0
  2 18  1  0
  3  4  2  0
  3  5  1  0
  6  5  1  1
  6  7  1  0
  6 12  1  0
  7  8  1  0
  8  9  1  0
  9 10  1  1
  9 11  1  0
  9 12  1  0
 13 14  1  0
 14 15  1  6
 14 16  1  0
 16 17  1  0
 17 18  1  0
M  END
