
     RDKit          3D

 17 18  0  0  0  0  0  0  0  0999 V2000
   -3.3730    2.9900    0.9020 O   0  0  0  0  0  0  0  0  0  0  0  0
   -3.8400    1.6750    0.8340 C   0  0  0  0  0  0  0  0  0  0  0  0
   -3.1770    1.0440   -0.3740 C   0  0  2  0  0  0  0  0  0  0  0  0
   -3.7490   -0.3280   -0.5580 C   0  0  0  0  0  0  0  0  0  0  0  0
   -3.1840   -1.2410    0.4880 C   0  0  0  0  0  0  0  0  0  0  0  0
   -1.6960   -1.2690    0.3270 C   0  0  0  0  0  0  0  0  0  0  0  0
   -1.1370   -0.0770   -0.3680 C   0  0  2  0  0  0  0  0  0  0  0  0
    0.2650    0.1570    0.1600 C   0  0  0  0  0  0  0  0  0  0  0  0
    1.1840   -0.9990   -0.0740 C   0  0  2  0  0  0  0  0  0  0  0  0
    0.7840   -2.1730    0.5090 O   0  0  0  0  0  0  0  0  0  0  0  0
    2.5500   -0.6170    0.4560 C   0  0  2  0  0  0  0  0  0  0  0  0
    3.0280    0.7090   -0.0850 C   0  0  0  0  0  0  0  0  0  0  0  0
    4.5280    0.5150   -0.2050 C   0  0  2  0  0  0  0  0  0  0  0  0
    4.9730    1.1290   -1.3570 O   0  0  0  0  0  0  0  0  0  0  0  0
    4.6370   -0.9720   -0.3050 C   0  0  0  0  0  0  0  0  0  0  0  0
    3.5080   -1.5560    0.1990 O   0  0  0  0  0  0  0  0  0  0  0  0
   -1.8280    1.0910   -0.1810 O   0  0  0  0  0  0  0  0  0  0  0  0
  1  2  1  0
  3  2  1  1
  3  4  1  0
  3 17  1  0
  4  5  1  0
  5  6  1  0
  6  7  1  0
  7  8  1  1
  7 17  1  0
  8  9  1  0
  9 10  1  1
  9 11  1  0
 11 12  1  6
 11 16  1  0
 12 13  1  0
 13 14  1  6
 13 15  1  0
 15 16  1  0
M  END
