
     RDKit          3D

 18 19  0  0  0  0  0  0  0  0999 V2000
   -2.3020    1.4820    2.6870 O   0  0  0  0  0  0  0  0  0  0  0  0
   -2.1490    0.2300    2.0630 C   0  0  0  0  0  0  0  0  0  0  0  0
   -2.2770    0.4740    0.5540 C   0  0  1  0  0  0  0  0  0  0  0  0
   -1.3140    1.3360    0.1400 O   0  0  0  0  0  0  0  0  0  0  0  0
   -0.3070    0.7890   -0.6330 C   0  0  1  0  0  0  0  0  0  0  0  0
    0.5220   -0.0840    0.0580 O   0  0  0  0  0  0  0  0  0  0  0  0
    1.8580    0.0130    0.2940 C   0  0  0  0  0  0  0  0  0  0  0  0
    2.4660   -1.0190    1.0290 C   0  0  0  0  0  0  0  0  0  0  0  0
    3.8140   -1.0090    1.3190 C   0  0  0  0  0  0  0  0  0  0  0  0
    4.6180    0.0240    0.8930 C   0  0  0  0  0  0  0  0  0  0  0  0
    4.0440    1.0590    0.1640 C   0  0  0  0  0  0  0  0  0  0  0  0
    2.6940    1.0240   -0.1120 C   0  0  0  0  0  0  0  0  0  0  0  0
   -0.8250    0.0870   -1.8650 C   0  0  2  0  0  0  0  0  0  0  0  0
   -0.8470    0.9800   -2.9620 O   0  0  0  0  0  0  0  0  0  0  0  0
   -2.1910   -0.4870   -1.6760 C   0  0  1  0  0  0  0  0  0  0  0  0
   -2.4500   -1.5780   -2.4970 O   0  0  0  0  0  0  0  0  0  0  0  0
   -2.3780   -0.8040   -0.2120 C   0  0  1  0  0  0  0  0  0  0  0  0
   -1.4920   -1.7750    0.2280 O   0  0  0  0  0  0  0  0  0  0  0  0
  1  2  1  0
  3  2  1  1
  3  4  1  0
  3 17  1  0
  4  5  1  0
  5  6  1  1
  5 13  1  0
  6  7  1  0
  7  8  2  0
  7 12  1  0
  8  9  1  0
  9 10  2  0
 10 11  1  0
 11 12  2  0
 13 14  1  6
 13 15  1  0
 15 16  1  6
 15 17  1  0
 17 18  1  1
M  END
