
     RDKit          3D

 17 17  0  0  0  0  0  0  0  0999 V2000
    5.8880    0.6800   -0.2330 C   0  0  0  0  0  0  0  0  0  0  0  0
    4.9600   -0.5230   -0.2600 C   0  0  0  0  0  0  0  0  0  0  0  0
    3.8110   -0.3930    0.6640 C   0  0  0  0  0  0  0  0  0  0  0  0
    2.5810   -0.3910    0.2250 C   0  0  0  0  0  0  0  0  0  0  0  0
    2.0740   -0.5060   -1.1880 C   0  0  0  0  0  0  0  0  0  0  0  0
    0.8580    0.3400   -1.2430 C   0  0  0  0  0  0  0  0  0  0  0  0
    0.7070    1.2820   -1.9690 O   0  0  0  0  0  0  0  0  0  0  0  0
   -0.1080   -0.1900   -0.2530 C   0  0  2  0  0  0  0  0  0  0  0  0
   -1.2160    0.7820    0.0140 C   0  0  0  0  0  0  0  0  0  0  0  0
   -2.1710    0.3090    0.9560 N   0  0  0  0  0  0  0  0  0  0  0  0
   -3.1830    1.2020    1.3290 C   0  0  0  0  0  0  0  0  0  0  0  0
   -4.2020    1.5930    0.3050 C   0  0  0  0  0  0  0  0  0  0  0  0
   -3.6320    2.2200   -0.8190 O   0  0  0  0  0  0  0  0  0  0  0  0
   -2.3950   -1.0680    1.0110 C   0  0  0  0  0  0  0  0  0  0  0  0
   -3.0780   -1.7470   -0.1160 C   0  0  0  0  0  0  0  0  0  0  0  0
   -3.1440   -3.1220    0.2310 O   0  0  0  0  0  0  0  0  0  0  0  0
    1.0480   -0.2570    1.1900 S   0  0  0  0  0  0  0  0  0  0  0  0
  1  2  1  0
  2  3  1  0
  3  4  2  3
  4  5  1  0
  4 17  1  0
  5  6  1  0
  6  7  2  0
  6  8  1  0
  8  9  1  1
  8 17  1  0
  9 10  1  0
 10 11  1  0
 10 14  1  0
 11 12  1  0
 12 13  1  0
 14 15  1  0
 15 16  1  0
M  END
