
     RDKit          3D

 28 31  0  0  0  0  0  0  0  0999 V2000
   -2.1890    1.2090    0.6310 O   0  0  0  0  0  0  0  0  0  0  0  0
   -2.3690   -0.0110    0.4450 C   0  0  0  0  0  0  0  0  0  0  0  0
   -3.5790   -0.4990   -0.0290 N   0  0  0  0  0  0  0  0  0  0  0  0
   -4.6990    0.2960   -0.3420 C   0  0  0  0  0  0  0  0  0  0  0  0
   -5.8560   -0.3570   -0.8280 C   0  0  0  0  0  0  0  0  0  0  0  0
   -6.9830    0.3400   -1.1540 C   0  0  0  0  0  0  0  0  0  0  0  0
   -8.1100   -0.2600   -1.6240 F   0  0  0  0  0  0  0  0  0  0  0  0
   -7.0380    1.7260   -1.0200 C   0  0  0  0  0  0  0  0  0  0  0  0
   -5.9340    2.3930   -0.5510 C   0  0  0  0  0  0  0  0  0  0  0  0
   -5.9750    3.8010   -0.4100 N   0  0  0  0  0  0  0  0  0  0  0  0
   -6.3910    4.3110    0.7690 O   0  0  0  0  0  0  0  0  0  0  0  0
   -4.8080    1.6530   -0.2310 C   0  0  0  0  0  0  0  0  0  0  0  0
   -1.2190   -0.8740    0.7630 C   0  0  0  0  0  0  0  0  0  0  0  0
   -1.2130   -2.1780    0.6350 C   0  0  0  0  0  0  0  0  0  0  0  0
    0.0230   -2.9440    0.9920 C   0  0  0  0  0  0  0  0  0  0  0  0
    1.1710   -2.1860    0.3670 C   0  0  0  0  0  0  0  0  0  0  0  0
    1.2300   -0.8040    0.7090 N   0  0  2  0  0  0  0  0  0  0  0  0
    2.3780   -0.5020    1.5760 C   0  0  0  0  0  0  0  0  0  0  0  0
    3.6030   -0.3580    0.7650 C   0  0  0  0  0  0  0  0  0  0  0  0
    4.5000   -1.3480    0.4230 C   0  0  0  0  0  0  0  0  0  0  0  0
    5.5040   -0.7740   -0.3480 C   0  0  0  0  0  0  0  0  0  0  0  0
    6.6340   -1.3090   -0.9420 C   0  0  0  0  0  0  0  0  0  0  0  0
    7.4460   -0.4550   -1.6550 C   0  0  0  0  0  0  0  0  0  0  0  0
    7.1750    0.8920   -1.7940 C   0  0  0  0  0  0  0  0  0  0  0  0
    6.0380    1.3780   -1.1840 C   0  0  0  0  0  0  0  0  0  0  0  0
    5.1920    0.5650   -0.4580 C   0  0  0  0  0  0  0  0  0  0  0  0
    4.0510    0.8060    0.2110 N   0  0  0  0  0  0  0  0  0  0  0  0
    0.0250   -0.2490    1.2640 C   0  0  0  0  0  0  0  0  0  0  0  0
  1  2  2  0
  2  3  1  0
  2 13  1  0
  3  4  1  0
  4  5  2  0
  4 12  1  0
  5  6  1  0
  6  7  1  0
  6  8  2  0
  8  9  1  0
  9 10  1  0
  9 12  2  0
 10 11  1  0
 13 14  2  0
 13 28  1  0
 14 15  1  0
 15 16  1  0
 16 17  1  0
 17 18  1  1
 17 28  1  0
 18 19  1  0
 19 20  2  0
 19 27  1  0
 20 21  1  0
 21 22  2  0
 21 26  1  0
 22 23  1  0
 23 24  2  0
 24 25  1  0
 25 26  2  0
 26 27  1  0
M  CHG  1  17   1
M  END
