
     RDKit          3D

 28 31  0  0  0  0  0  0  0  0999 V2000
    6.1080    2.7670    0.4360 C   0  0  0  0  0  0  0  0  0  0  0  0
    5.8670    1.3020    0.4470 C   0  0  0  0  0  0  0  0  0  0  0  0
    6.6710    0.3500    0.9710 C   0  0  0  0  0  0  0  0  0  0  0  0
    6.3350   -0.9820    0.9010 C   0  0  0  0  0  0  0  0  0  0  0  0
    5.1600   -1.4100    0.2880 C   0  0  0  0  0  0  0  0  0  0  0  0
    4.6130   -2.6070    0.0520 N   0  0  0  0  0  0  0  0  0  0  0  0
    3.4530   -2.3820   -0.6300 C   0  0  0  0  0  0  0  0  0  0  0  0
    2.7500   -3.3830   -0.9720 O   0  0  0  0  0  0  0  0  0  0  0  0
    3.2410   -1.0950   -0.8330 N   0  0  0  0  0  0  0  0  0  0  0  0
    2.2740   -0.2870   -1.4980 C   0  0  0  0  0  0  0  0  0  0  0  0
    1.0520    0.1680   -0.8270 C   0  0  0  0  0  0  0  0  0  0  0  0
    0.0040   -0.8840   -0.6990 C   0  0  0  0  0  0  0  0  0  0  0  0
    0.2500   -2.0600   -0.9610 O   0  0  0  0  0  0  0  0  0  0  0  0
   -1.2750   -0.4200   -0.2890 N   0  0  0  0  0  0  0  0  0  0  0  0
   -2.4110   -1.2540   -0.2180 C   0  0  0  0  0  0  0  0  0  0  0  0
   -2.4680   -2.5720   -0.5210 C   0  0  0  0  0  0  0  0  0  0  0  0
   -3.6710   -3.2850   -0.6880 C   0  0  0  0  0  0  0  0  0  0  0  0
   -3.6390   -4.6060   -1.0000 F   0  0  0  0  0  0  0  0  0  0  0  0
   -4.8290   -2.5830   -0.5270 C   0  0  0  0  0  0  0  0  0  0  0  0
   -4.8200   -1.2100   -0.2050 C   0  0  0  0  0  0  0  0  0  0  0  0
   -3.6370   -0.5550   -0.0490 C   0  0  0  0  0  0  0  0  0  0  0  0
   -3.5150    0.8040    0.5010 C   0  0  1  0  0  0  0  0  0  0  0  0
   -3.7970    1.9320   -0.4300 C   0  0  0  0  0  0  0  0  0  0  0  0
   -4.8650    2.8170    0.1660 C   0  0  0  0  0  0  0  0  0  0  0  0
   -5.7240    1.7740    0.7480 N   0  0  0  0  0  0  0  0  0  0  0  0
   -4.7820    0.9220    1.4420 C   0  0  0  0  0  0  0  0  0  0  0  0
    4.3390   -0.4530   -0.2450 C   0  0  0  0  0  0  0  0  0  0  0  0
    4.6850    0.8660   -0.1660 C   0  0  0  0  0  0  0  0  0  0  0  0
  1  2  1  0
  2  3  2  0
  2 28  1  0
  3  4  1  0
  4  5  2  0
  5  6  1  0
  5 27  1  0
  6  7  1  0
  7  8  2  0
  7  9  1  0
  9 10  1  0
  9 27  1  0
 10 11  1  0
 11 12  1  0
 12 13  2  0
 12 14  1  0
 14 15  1  0
 15 16  2  0
 15 21  1  0
 16 17  1  0
 17 18  1  0
 17 19  2  0
 19 20  1  0
 20 21  2  0
 22 21  1  6
 22 23  1  0
 22 26  1  0
 23 24  1  0
 24 25  1  0
 25 26  1  0
 27 28  2  0
M  CHG  1  25   1
M  END
