
     RDKit          3D

 28 31  0  0  0  0  0  0  0  0999 V2000
   -5.0620    3.2250   -0.0530 C   0  0  0  0  0  0  0  0  0  0  0  0
   -3.9380    2.3040    0.2190 C   0  0  0  0  0  0  0  0  0  0  0  0
   -3.9040    1.0620   -0.4220 C   0  0  0  0  0  0  0  0  0  0  0  0
   -2.8690    0.1900   -0.1840 C   0  0  0  0  0  0  0  0  0  0  0  0
   -2.7750   -1.0950   -0.8390 C   0  0  0  0  0  0  0  0  0  0  0  0
   -1.7410   -1.9790   -0.6930 N   0  0  0  0  0  0  0  0  0  0  0  0
   -1.9130   -3.0780   -1.3980 C   0  0  0  0  0  0  0  0  0  0  0  0
   -3.0630   -2.9670   -2.0370 N   0  0  0  0  0  0  0  0  0  0  0  0
   -3.6100   -1.7460   -1.7030 C   0  0  0  0  0  0  0  0  0  0  0  0
   -4.9090   -1.2970   -2.2390 C   0  0  0  0  0  0  0  0  0  0  0  0
   -1.8650    0.5720    0.7040 C   0  0  0  0  0  0  0  0  0  0  0  0
   -0.7520   -0.3540    0.9910 C   0  0  0  0  0  0  0  0  0  0  0  0
    0.2090    0.2220    1.9310 N   0  0  0  0  0  0  0  0  0  0  0  0
    1.0630    1.2070    1.3220 C   0  0  0  0  0  0  0  0  0  0  0  0
    2.3610    0.6170    0.8540 C   0  0  0  0  0  0  0  0  0  0  0  0
    2.5700    0.1610   -0.4260 C   0  0  0  0  0  0  0  0  0  0  0  0
    3.7950   -0.3830   -0.8160 C   0  0  0  0  0  0  0  0  0  0  0  0
    4.8120   -0.4580    0.1150 C   0  0  0  0  0  0  0  0  0  0  0  0
    4.6050   -0.0000    1.4030 C   0  0  0  0  0  0  0  0  0  0  0  0
    3.3880    0.5340    1.7710 C   0  0  0  0  0  0  0  0  0  0  0  0
    5.7250   -0.1940    2.0550 O   0  0  0  0  0  0  0  0  0  0  0  0
    6.6140   -0.7470    1.2460 C   0  0  0  0  0  0  0  0  0  0  0  0
    7.7790   -1.0440    1.6070 O   0  0  0  0  0  0  0  0  0  0  0  0
    6.0710   -0.9180    0.0420 N   0  0  0  0  0  0  0  0  0  0  0  0
    6.7440   -1.4970   -1.1070 C   0  0  0  0  0  0  0  0  0  0  0  0
   -1.9350    1.8150    1.3210 C   0  0  0  0  0  0  0  0  0  0  0  0
   -2.9650    2.6980    1.0920 C   0  0  0  0  0  0  0  0  0  0  0  0
   -2.9970    3.8960    1.7100 F   0  0  0  0  0  0  0  0  0  0  0  0
  1  2  1  0
  2  3  2  0
  2 27  1  0
  3  4  1  0
  4  5  1  0
  4 11  2  0
  5  6  1  0
  5  9  2  0
  6  7  2  0
  7  8  1  0
  8  9  1  0
  9 10  1  0
 11 12  1  0
 11 26  1  0
 12 13  1  0
 13 14  1  0
 14 15  1  0
 15 16  2  0
 15 20  1  0
 16 17  1  0
 17 18  2  0
 18 19  1  0
 18 24  1  0
 19 20  2  0
 19 21  1  0
 21 22  1  0
 22 23  2  0
 22 24  1  0
 24 25  1  0
 26 27  2  0
 27 28  1  0
M  CHG  1  13   1
M  END
