
     RDKit          3D

 28 31  0  0  0  0  0  0  0  0999 V2000
   -6.2010   -1.7640    0.2840 C   0  0  0  0  0  0  0  0  0  0  0  0
   -5.9600   -0.4320   -0.3760 C   0  0  0  0  0  0  0  0  0  0  0  0
   -6.9470    0.1870   -0.9720 C   0  0  0  0  0  0  0  0  0  0  0  0
   -8.1700   -0.4220   -0.9640 F   0  0  0  0  0  0  0  0  0  0  0  0
   -6.8620    1.4810   -1.6520 C   0  0  0  0  0  0  0  0  0  0  0  0
   -5.5250    2.1080   -1.6390 C   0  0  0  0  0  0  0  0  0  0  0  0
   -4.4610    1.3350   -0.9390 C   0  0  0  0  0  0  0  0  0  0  0  0
   -4.6150    0.1760   -0.3510 C   0  0  0  0  0  0  0  0  0  0  0  0
   -3.5360   -0.5640    0.3370 C   0  0  0  0  0  0  0  0  0  0  0  0
   -3.8160   -1.6620    0.8570 O   0  0  0  0  0  0  0  0  0  0  0  0
   -2.1950   -0.0910    0.4360 N   0  0  0  0  0  0  0  0  0  0  0  0
   -1.1210   -0.7370    1.0800 C   0  0  0  0  0  0  0  0  0  0  0  0
   -1.3140   -1.7530    2.0050 C   0  0  0  0  0  0  0  0  0  0  0  0
   -0.2520   -2.3320    2.6920 C   0  0  0  0  0  0  0  0  0  0  0  0
    1.0340   -1.9220    2.4840 C   0  0  0  0  0  0  0  0  0  0  0  0
    1.2420   -0.9140    1.5680 C   0  0  0  0  0  0  0  0  0  0  0  0
    2.4920   -0.4820    1.3140 N   0  0  0  0  0  0  0  0  0  0  0  0
    2.8190    0.4740    0.4410 C   0  0  0  0  0  0  0  0  0  0  0  0
    4.2190    0.9100    0.2050 C   0  0  0  0  0  0  0  0  0  0  0  0
    4.8530    0.1450   -0.8470 N   0  0  2  0  0  0  0  0  0  0  0  0
    5.6530   -0.8940   -0.2630 C   0  0  0  0  0  0  0  0  0  0  0  0
    7.0980   -0.4480   -0.3510 C   0  0  0  0  0  0  0  0  0  0  0  0
    7.0590    0.9720   -0.8590 C   0  0  0  0  0  0  0  0  0  0  0  0
    5.7310    1.0280   -1.5710 C   0  0  0  0  0  0  0  0  0  0  0  0
    1.8180    1.0470   -0.2350 N   0  0  0  0  0  0  0  0  0  0  0  0
    0.5080    0.6640   -0.0360 C   0  0  0  0  0  0  0  0  0  0  0  0
   -0.3670    1.2490   -0.7150 O   0  0  0  0  0  0  0  0  0  0  0  0
    0.1840   -0.3170    0.8640 C   0  0  0  0  0  0  0  0  0  0  0  0
  1  2  1  0
  2  3  2  0
  2  8  1  0
  3  4  1  0
  3  5  1  0
  5  6  1  0
  6  7  1  0
  7  8  2  0
  8  9  1  0
  9 10  2  0
  9 11  1  0
 11 12  1  0
 12 13  2  0
 12 28  1  0
 13 14  1  0
 14 15  2  0
 15 16  1  0
 16 17  1  0
 16 28  2  0
 17 18  2  0
 18 19  1  0
 18 25  1  0
 20 19  1  1
 20 21  1  0
 20 24  1  0
 21 22  1  0
 22 23  1  0
 23 24  1  0
 25 26  1  0
 26 27  2  0
 26 28  1  0
M  CHG  1  20   1
M  END
