
     RDKit          3D

 28 31  0  0  0  0  0  0  0  0999 V2000
    0.1030    1.3560   -0.3660 O   0  0  0  0  0  0  0  0  0  0  0  0
   -0.5820    0.2850   -0.2620 C   0  0  0  0  0  0  0  0  0  0  0  0
   -2.0440    0.4970   -0.2670 C   0  0  0  0  0  0  0  0  0  0  0  0
   -2.8460   -0.6820   -0.1520 N   0  0  0  0  0  0  0  0  0  0  0  0
   -4.2900   -0.6090   -0.1460 C   0  0  0  0  0  0  0  0  0  0  0  0
   -5.0340   -1.7590   -0.0340 C   0  0  0  0  0  0  0  0  0  0  0  0
   -6.4310   -1.6810   -0.0280 C   0  0  0  0  0  0  0  0  0  0  0  0
   -7.0820   -0.4760   -0.1320 C   0  0  0  0  0  0  0  0  0  0  0  0
   -8.4560   -0.3820   -0.1280 C   0  0  0  0  0  0  0  0  0  0  0  0
   -9.0760    0.8180   -0.2320 N   0  0  0  0  0  0  0  0  0  0  0  0
   -8.3870    1.9610   -0.3420 C   0  0  0  0  0  0  0  0  0  0  0  0
   -9.0760    3.1190   -0.4420 F   0  0  0  0  0  0  0  0  0  0  0  0
   -7.0140    1.8790   -0.3480 C   0  0  0  0  0  0  0  0  0  0  0  0
   -6.3430    0.6810   -0.2440 C   0  0  0  0  0  0  0  0  0  0  0  0
   -4.9570    0.5900   -0.2490 C   0  0  0  0  0  0  0  0  0  0  0  0
    0.1130   -0.9170   -0.1580 N   0  0  0  0  0  0  0  0  0  0  0  0
    1.5090   -1.1340   -0.1470 C   0  0  0  0  0  0  0  0  0  0  0  0
    1.9940   -2.4420   -0.2640 C   0  0  0  0  0  0  0  0  0  0  0  0
    3.3370   -2.7440   -0.2500 C   0  0  0  0  0  0  0  0  0  0  0  0
    4.2490   -1.7090   -0.1150 C   0  0  0  0  0  0  0  0  0  0  0  0
    3.8220   -0.4180    0.0020 C   0  0  0  0  0  0  0  0  0  0  0  0
    4.7060    0.6230    0.1370 O   0  0  0  0  0  0  0  0  0  0  0  0
    6.0680    0.5510    0.1750 C   0  0  1  0  0  0  0  0  0  0  0  0
    6.7530    1.4560   -0.8440 C   0  0  0  0  0  0  0  0  0  0  0  0
    8.1610    1.5490   -0.2730 C   0  0  0  0  0  0  0  0  0  0  0  0
    8.0750    0.9620    1.1050 C   0  0  0  0  0  0  0  0  0  0  0  0
    6.6480    1.0990    1.4040 N   0  0  0  0  0  0  0  0  0  0  0  0
    2.4290   -0.1400   -0.0150 C   0  0  0  0  0  0  0  0  0  0  0  0
  1  2  2  0
  2  3  1  0
  2 16  1  0
  3  4  1  0
  4  5  1  0
  5  6  2  0
  5 15  1  0
  6  7  1  0
  7  8  2  0
  8  9  1  0
  8 14  1  0
  9 10  2  0
 10 11  1  0
 11 12  1  0
 11 13  2  0
 13 14  1  0
 14 15  2  0
 16 17  1  0
 17 18  2  0
 17 28  1  0
 18 19  1  0
 19 20  2  0
 20 21  1  0
 21 22  1  0
 21 28  2  0
 23 22  1  1
 23 24  1  0
 23 27  1  0
 24 25  1  0
 25 26  1  0
 26 27  1  0
M  CHG  1  10   1
M  END
