
     RDKit          3D

 28 29  0  0  0  0  0  0  0  0999 V2000
    5.6730   -0.3030   -4.0280 C   0  0  0  0  0  0  0  0  0  0  0  0
    5.1460   -0.5090   -2.8630 C   0  0  0  0  0  0  0  0  0  0  0  0
    5.8540   -1.1240   -1.7330 C   0  0  0  0  0  0  0  0  0  0  0  0
    7.5520   -1.5060   -2.2640 S   0  0  0  0  0  0  0  0  0  0  0  0
    3.7660   -0.0120   -2.7600 N   0  0  0  0  0  0  0  0  0  0  0  0
    3.0840   -0.1840   -1.5470 C   0  0  0  0  0  0  0  0  0  0  0  0
    3.5930   -0.7750   -0.6060 O   0  0  0  0  0  0  0  0  0  0  0  0
    1.7010    0.3620   -1.4110 C   0  0  0  0  0  0  0  0  0  0  0  0
    1.3690    1.1680   -2.3450 O   0  0  0  0  0  0  0  0  0  0  0  0
    0.8170    0.0870   -0.4350 N   0  0  0  0  0  0  0  0  0  0  0  0
   -0.4610    0.6760   -0.3580 C   0  0  0  0  0  0  0  0  0  0  0  0
   -0.4850    2.0820   -0.5720 C   0  0  0  0  0  0  0  0  0  0  0  0
   -1.6170    2.7980   -0.3390 C   0  0  0  0  0  0  0  0  0  0  0  0
   -1.7260    4.1490   -0.5060 O   0  0  0  0  0  0  0  0  0  0  0  0
   -0.7990    5.0160   -1.0200 C   0  0  0  0  0  0  0  0  0  0  0  0
   -0.9970    6.4260   -0.7570 C   0  0  0  0  0  0  0  0  0  0  0  0
   -1.1570    7.5680   -0.5520 N   0  0  0  0  0  0  0  0  0  0  0  0
   -2.7910    2.1470    0.1100 C   0  0  0  0  0  0  0  0  0  0  0  0
   -2.7580    0.7760    0.3120 C   0  0  0  0  0  0  0  0  0  0  0  0
   -1.6150    0.0650    0.0800 C   0  0  0  0  0  0  0  0  0  0  0  0
   -1.5770   -1.3240    0.2590 O   0  0  0  0  0  0  0  0  0  0  0  0
   -2.6550   -2.0400    0.6700 C   0  0  0  0  0  0  0  0  0  0  0  0
   -3.1740   -2.1690    2.0100 C   0  0  0  0  0  0  0  0  0  0  0  0
   -3.7750   -1.3280    2.8910 C   0  0  0  0  0  0  0  0  0  0  0  0
   -4.0900   -2.0130    4.0790 C   0  0  0  0  0  0  0  0  0  0  0  0
   -3.6180   -3.3290    3.8240 C   0  0  0  0  0  0  0  0  0  0  0  0
   -3.7290   -4.4410    4.8160 C   0  0  0  0  0  0  0  0  0  0  0  0
   -3.1430   -3.3280    2.6980 O   0  0  0  0  0  0  0  0  0  0  0  0
  1  2  2  0
  2  3  1  0
  2  5  1  0
  3  4  1  0
  5  6  1  0
  6  7  2  0
  6  8  1  0
  8  9  2  0
  8 10  1  0
 10 11  1  0
 11 12  2  0
 11 20  1  0
 12 13  1  0
 13 14  1  0
 13 18  2  0
 14 15  1  0
 15 16  1  0
 16 17  3  0
 18 19  1  0
 19 20  2  0
 20 21  1  0
 21 22  1  0
 22 23  1  0
 23 24  2  0
 23 28  1  0
 24 25  1  0
 25 26  2  0
 26 27  1  0
 26 28  1  0
M  END
