
     RDKit          3D

 28 29  0  0  0  0  0  0  0  0999 V2000
   -5.7950    2.8280    1.0290 C   0  0  0  0  0  0  0  0  0  0  0  0
   -6.5740    1.8130    0.7870 C   0  0  0  0  0  0  0  0  0  0  0  0
   -7.9800    2.0700    0.9280 O   0  0  0  0  0  0  0  0  0  0  0  0
   -8.9310    1.1280    0.7150 C   0  0  0  0  0  0  0  0  0  0  0  0
   -8.5420   -0.0820    0.3610 C   0  0  0  0  0  0  0  0  0  0  0  0
   -7.1680   -0.4450    0.1930 C   0  0  0  0  0  0  0  0  0  0  0  0
   -6.8410   -1.8320   -0.2060 C   0  0  0  0  0  0  0  0  0  0  0  0
   -6.1810    0.4890    0.4020 C   0  0  0  0  0  0  0  0  0  0  0  0
   -4.9110   -0.0140    0.2000 N   0  0  0  0  0  0  0  0  0  0  0  0
   -3.6370    0.5390    0.2890 C   0  0  0  0  0  0  0  0  0  0  0  0
   -3.3910    1.6780    0.5920 O   0  0  0  0  0  0  0  0  0  0  0  0
   -2.4410   -0.3460   -0.0140 C   0  0  0  0  0  0  0  0  0  0  0  0
   -1.2390    0.4390    0.1430 N   0  0  0  0  0  0  0  0  0  0  0  0
    0.0530   -0.1340   -0.0800 C   0  0  0  0  0  0  0  0  0  0  0  0
    0.0800   -1.3210   -0.4080 O   0  0  0  0  0  0  0  0  0  0  0  0
    1.2420    0.5760    0.0580 N   0  0  0  0  0  0  0  0  0  0  0  0
    2.5680    0.1620   -0.1270 C   0  0  0  0  0  0  0  0  0  0  0  0
    2.8770   -1.0880   -0.5850 C   0  0  0  0  0  0  0  0  0  0  0  0
    4.1680   -1.5160   -0.7670 C   0  0  0  0  0  0  0  0  0  0  0  0
    5.2580   -0.6820   -0.4880 C   0  0  0  0  0  0  0  0  0  0  0  0
    6.5360   -1.1510   -0.6840 O   0  0  0  0  0  0  0  0  0  0  0  0
    7.6920   -0.4340   -0.4490 C   0  0  2  0  0  0  0  0  0  0  0  0
    8.4560   -0.3180   -1.7900 C   0  0  0  0  0  0  0  0  0  0  0  0
    8.6220   -1.1460    0.4900 C   0  0  0  0  0  0  0  0  0  0  0  0
    8.3180   -2.2110    0.9390 O   0  0  0  0  0  0  0  0  0  0  0  0
   10.1650   -0.3820    0.9170 S   0  0  0  0  0  0  0  0  0  0  0  0
    4.9300    0.5720   -0.0280 C   0  0  0  0  0  0  0  0  0  0  0  0
    3.6330    1.0030    0.1550 C   0  0  0  0  0  0  0  0  0  0  0  0
  1  2  2  0
  2  3  1  0
  2  8  1  0
  3  4  1  0
  4  5  2  0
  5  6  1  0
  6  7  1  0
  6  8  2  0
  8  9  1  0
  9 10  1  0
 10 11  2  0
 10 12  1  0
 12 13  1  0
 13 14  1  0
 14 15  2  0
 14 16  1  0
 16 17  1  0
 17 18  2  0
 17 28  1  0
 18 19  1  0
 19 20  2  0
 20 21  1  0
 20 27  1  0
 21 22  1  0
 22 23  1  6
 22 24  1  0
 24 25  2  0
 24 26  1  0
 27 28  2  0
M  END
