
     RDKit          3D

 28 29  0  0  0  0  0  0  0  0999 V2000
   -2.1260    3.9760   -1.6590 C   0  0  0  0  0  0  0  0  0  0  0  0
   -0.7020    4.2900   -1.3030 C   0  0  0  0  0  0  0  0  0  0  0  0
   -0.0890    3.2270   -0.5840 O   0  0  0  0  0  0  0  0  0  0  0  0
    1.1880    3.2090   -0.1170 C   0  0  0  0  0  0  0  0  0  0  0  0
    1.8800    4.2570   -0.3620 O   0  0  0  0  0  0  0  0  0  0  0  0
    1.8460    2.1470    0.6220 C   0  0  0  0  0  0  0  0  0  0  0  0
    3.1090    2.1620    1.0860 N   0  0  0  0  0  0  0  0  0  0  0  0
    3.3810    1.0240    1.7290 C   0  0  0  0  0  0  0  0  0  0  0  0
    4.9180    0.5870    2.4940 S   0  0  0  0  0  0  0  0  0  0  0  0
    6.0180   -0.1350    1.2610 C   0  0  0  0  0  0  0  0  0  0  0  0
    5.5090   -1.4140    0.7510 C   0  0  0  0  0  0  0  0  0  0  0  0
    4.4240   -1.8800    1.1330 O   0  0  0  0  0  0  0  0  0  0  0  0
    6.2480   -2.1300   -0.1770 O   0  0  0  0  0  0  0  0  0  0  0  0
    5.7560   -3.3530   -0.6590 C   0  0  0  0  0  0  0  0  0  0  0  0
    2.2830    0.2530    1.6890 N   0  0  0  0  0  0  0  0  0  0  0  0
    1.3210    0.9160    1.0130 C   0  0  0  0  0  0  0  0  0  0  0  0
    0.0060    0.5170    0.6710 N   0  0  0  0  0  0  0  0  0  0  0  0
   -0.4880   -0.7300    1.1420 C   0  0  0  0  0  0  0  0  0  0  0  0
    0.1460   -1.5100    1.8940 O   0  0  0  0  0  0  0  0  0  0  0  0
   -1.8520   -1.0930    0.6940 C   0  0  0  0  0  0  0  0  0  0  0  0
   -2.7770   -1.5040    1.6280 C   0  0  0  0  0  0  0  0  0  0  0  0
   -4.0840   -1.7640    1.2670 C   0  0  0  0  0  0  0  0  0  0  0  0
   -5.1130   -2.2000    2.2520 C   0  0  0  0  0  0  0  0  0  0  0  0
   -4.4260   -1.5950   -0.0690 C   0  0  0  0  0  0  0  0  0  0  0  0
   -3.5240   -1.1870   -1.0230 C   0  0  0  0  0  0  0  0  0  0  0  0
   -3.9050   -0.9990   -2.4330 C   0  0  0  0  0  0  0  0  0  0  0  0
   -2.2150   -0.9370   -0.6120 C   0  0  0  0  0  0  0  0  0  0  0  0
   -1.2420   -0.5800   -1.6440 C   0  0  0  0  0  0  0  0  0  0  0  0
  1  2  1  0
  2  3  1  0
  3  4  1  0
  4  5  2  0
  4  6  1  0
  6  7  1  0
  6 16  2  0
  7  8  2  0
  8  9  1  0
  8 15  1  0
  9 10  1  0
 10 11  1  0
 11 12  2  0
 11 13  1  0
 13 14  1  0
 15 16  1  0
 16 17  1  0
 17 18  1  0
 18 19  2  0
 18 20  1  0
 20 21  2  0
 20 27  1  0
 21 22  1  0
 22 23  1  0
 22 24  2  0
 24 25  1  0
 25 26  1  0
 25 27  2  0
 27 28  1  0
M  END
