
     RDKit          3D

 28 29  0  0  0  0  0  0  0  0999 V2000
    6.8040   -0.0520   -3.0390 C   0  0  0  0  0  0  0  0  0  0  0  0
    5.9050   -0.8330   -2.2340 O   0  0  0  0  0  0  0  0  0  0  0  0
    5.4090   -0.3440   -1.0380 C   0  0  0  0  0  0  0  0  0  0  0  0
    5.7870    0.8190   -0.6940 O   0  0  0  0  0  0  0  0  0  0  0  0
    4.4800   -1.1200   -0.1850 C   0  0  0  0  0  0  0  0  0  0  0  0
    4.1250   -0.3490    1.0150 C   0  0  0  0  0  0  0  0  0  0  0  0
    4.9580   -0.2560    2.1570 C   0  0  0  0  0  0  0  0  0  0  0  0
    6.2860   -0.9060    2.3000 C   0  0  0  0  0  0  0  0  0  0  0  0
    4.3400    0.4880    3.0200 O   0  0  0  0  0  0  0  0  0  0  0  0
    3.1830    0.8910    2.5520 C   0  0  0  0  0  0  0  0  0  0  0  0
    2.1860    1.7530    3.2360 C   0  0  0  0  0  0  0  0  0  0  0  0
    3.0050    0.3730    1.2550 C   0  0  0  0  0  0  0  0  0  0  0  0
    1.8670    0.6650    0.4270 C   0  0  0  0  0  0  0  0  0  0  0  0
    0.7930    1.1650    0.9660 O   0  0  0  0  0  0  0  0  0  0  0  0
    1.8000    0.4580   -0.9680 N   0  0  0  0  0  0  0  0  0  0  0  0
    0.5960    0.7840   -1.7190 C   0  0  0  0  0  0  0  0  0  0  0  0
   -0.5750    0.0350   -1.2350 C   0  0  0  0  0  0  0  0  0  0  0  0
   -0.5310   -0.7890   -0.2870 O   0  0  0  0  0  0  0  0  0  0  0  0
   -1.8290    0.2470   -1.8660 N   0  0  0  0  0  0  0  0  0  0  0  0
   -2.9530   -0.4770   -1.3850 N   0  0  0  0  0  0  0  0  0  0  0  0
   -3.9510    0.5600   -1.0760 C   0  0  0  0  0  0  0  0  0  0  0  0
   -5.1490   -0.0880   -0.5490 C   0  0  0  0  0  0  0  0  0  0  0  0
   -5.3750   -1.8540   -0.3030 S   0  0  0  0  0  0  0  0  0  0  0  0
   -7.0250   -1.7630    0.3430 C   0  0  0  0  0  0  0  0  0  0  0  0
   -7.8830   -2.8840    0.7830 C   0  0  0  0  0  0  0  0  0  0  0  0
   -7.2960   -0.3960    0.3280 C   0  0  0  0  0  0  0  0  0  0  0  0
   -6.3370    0.4120   -0.1230 C   0  0  0  0  0  0  0  0  0  0  0  0
   -6.5440    1.9300   -0.1770 C   0  0  0  0  0  0  0  0  0  0  0  0
  1  2  1  0
  2  3  1  0
  3  4  2  0
  3  5  1  0
  5  6  1  0
  6  7  2  0
  6 12  1  0
  7  8  1  0
  7  9  1  0
  9 10  1  0
 10 11  1  0
 10 12  2  0
 12 13  1  0
 13 14  2  0
 13 15  1  0
 15 16  1  0
 16 17  1  0
 17 18  2  0
 17 19  1  0
 19 20  1  0
 20 21  1  0
 21 22  1  0
 22 23  1  0
 22 27  2  0
 23 24  1  0
 24 25  1  0
 24 26  2  0
 26 27  1  0
 27 28  1  0
M  END
