
     RDKit          3D

 28 29  0  0  0  0  0  0  0  0999 V2000
    6.0570   -3.0090   -2.3230 C   0  0  0  0  0  0  0  0  0  0  0  0
    5.3390   -2.7830   -0.9910 C   0  0  0  0  0  0  0  0  0  0  0  0
    4.5220   -1.5350   -1.0720 C   0  0  0  0  0  0  0  0  0  0  0  0
    4.4820   -0.8260   -2.1190 O   0  0  0  0  0  0  0  0  0  0  0  0
    3.7710   -1.1020   -0.0010 O   0  0  0  0  0  0  0  0  0  0  0  0
    2.9830    0.0540   -0.0040 C   0  0  2  0  0  0  0  0  0  0  0  0
    3.3690    1.0510    1.0380 C   0  0  0  0  0  0  0  0  0  0  0  0
    1.5160   -0.2950    0.1150 C   0  0  0  0  0  0  0  0  0  0  0  0
    1.1620   -1.4910    0.2000 O   0  0  0  0  0  0  0  0  0  0  0  0
    0.5320    0.7100    0.1330 N   0  0  0  0  0  0  0  0  0  0  0  0
   -0.8600    0.5870    0.2360 C   0  0  0  0  0  0  0  0  0  0  0  0
   -1.4990   -0.6150    0.3340 C   0  0  0  0  0  0  0  0  0  0  0  0
   -2.8820   -0.6930    0.4330 C   0  0  0  0  0  0  0  0  0  0  0  0
   -3.5390   -1.9890    0.5400 C   0  0  0  0  0  0  0  0  0  0  0  0
   -4.9080   -2.0350    0.6100 C   0  0  0  0  0  0  0  0  0  0  0  0
   -5.5630   -3.2620    0.7080 C   0  0  0  0  0  0  0  0  0  0  0  0
   -6.8130   -3.3380    0.7730 O   0  0  0  0  0  0  0  0  0  0  0  0
   -4.8000   -4.3500    0.7300 N   0  0  0  0  0  0  0  0  0  0  0  0
   -3.4650   -4.3060    0.6620 C   0  0  0  0  0  0  0  0  0  0  0  0
   -2.5650   -5.6600    0.6910 S   0  0  0  0  0  0  0  0  0  0  0  0
   -2.8140   -3.1110    0.5660 N   0  0  0  0  0  0  0  0  0  0  0  0
   -3.6280    0.4480    0.4340 C   0  0  0  0  0  0  0  0  0  0  0  0
   -3.0190    1.6620    0.3370 C   0  0  0  0  0  0  0  0  0  0  0  0
   -1.6410    1.7660    0.2370 C   0  0  0  0  0  0  0  0  0  0  0  0
   -1.0460    2.9110    0.1450 O   0  0  0  0  0  0  0  0  0  0  0  0
   -0.4450    4.0580    0.0520 C   0  0  1  0  0  0  0  0  0  0  0  0
   -0.8920    4.8680   -1.1850 C   0  0  0  0  0  0  0  0  0  0  0  0
   -0.7160    4.9540    1.2670 C   0  0  0  0  0  0  0  0  0  0  0  0
  1  2  1  0
  2  3  1  0
  3  4  2  0
  3  5  1  0
  5  6  1  0
  6  7  1  1
  6  8  1  0
  8  9  2  0
  8 10  1  0
 10 11  1  0
 11 12  2  0
 11 24  1  0
 12 13  1  0
 13 14  1  0
 13 22  2  0
 14 15  2  0
 14 21  1  0
 15 16  1  0
 16 17  2  0
 16 18  1  0
 18 19  1  0
 19 20  2  0
 19 21  1  0
 22 23  1  0
 23 24  2  0
 24 25  1  0
 25 26  1  0
 26 27  1  6
 26 28  1  0
M  END
