
     RDKit          3D

 28 29  0  0  0  0  0  0  0  0999 V2000
   -6.2720    1.8510    0.0450 C   0  0  0  0  0  0  0  0  0  0  0  0
   -6.9350    1.1420    0.9130 C   0  0  0  0  0  0  0  0  0  0  0  0
   -8.3930    1.4250    1.1230 C   0  0  0  0  0  0  0  0  0  0  0  0
   -6.3440    0.0400    1.7150 C   0  0  0  0  0  0  0  0  0  0  0  0
   -4.9370   -0.2730    1.3370 C   0  0  0  0  0  0  0  0  0  0  0  0
   -4.8780   -0.7600   -0.1110 C   0  0  0  0  0  0  0  0  0  0  0  0
   -6.0310   -0.9440   -0.8540 C   0  0  0  0  0  0  0  0  0  0  0  0
   -5.3610   -1.5130   -2.4700 S   0  0  0  0  0  0  0  0  0  0  0  0
   -3.5960   -1.3900   -1.8150 C   0  0  0  0  0  0  0  0  0  0  0  0
   -2.5370   -1.7590   -2.7640 N   0  0  0  0  0  0  0  0  0  0  0  0
   -1.1900   -1.6960   -2.3540 C   0  0  0  0  0  0  0  0  0  0  0  0
   -0.9770   -1.3180   -1.1730 O   0  0  0  0  0  0  0  0  0  0  0  0
   -0.0450   -2.0380   -3.2080 C   0  0  0  0  0  0  0  0  0  0  0  0
    1.1840   -1.8920   -2.5680 O   0  0  0  0  0  0  0  0  0  0  0  0
    1.6810   -0.7330   -2.0390 C   0  0  0  0  0  0  0  0  0  0  0  0
    0.9850    0.3110   -2.1240 O   0  0  0  0  0  0  0  0  0  0  0  0
    3.0060   -0.7130   -1.3820 C   0  0  0  0  0  0  0  0  0  0  0  0
    3.6660   -1.7640   -1.3160 O   0  0  0  0  0  0  0  0  0  0  0  0
    3.5310    0.4760   -0.8320 N   0  0  0  0  0  0  0  0  0  0  0  0
    4.7470    0.6670   -0.1860 C   0  0  0  0  0  0  0  0  0  0  0  0
    5.6290   -0.2610    0.0190 C   0  0  0  0  0  0  0  0  0  0  0  0
    6.8910    0.0640    0.7190 C   0  0  0  0  0  0  0  0  0  0  0  0
    7.9230   -0.7660    1.0230 C   0  0  0  0  0  0  0  0  0  0  0  0
    8.8910   -0.0280    1.6800 C   0  0  0  0  0  0  0  0  0  0  0  0
    8.3710    1.2500    1.7390 C   0  0  0  0  0  0  0  0  0  0  0  0
    9.0770    2.4060    2.3710 C   0  0  0  0  0  0  0  0  0  0  0  0
    7.1940    1.2550    1.1610 O   0  0  0  0  0  0  0  0  0  0  0  0
   -3.7650   -1.0330   -0.7600 N   0  0  0  0  0  0  0  0  0  0  0  0
  1  2  2  0
  2  3  1  0
  2  4  1  0
  4  5  1  0
  5  6  1  0
  6  7  2  0
  6 28  1  0
  7  8  1  0
  8  9  1  0
  9 10  1  0
  9 28  2  0
 10 11  1  0
 11 12  2  0
 11 13  1  0
 13 14  1  0
 14 15  1  0
 15 16  2  0
 15 17  1  0
 17 18  2  0
 17 19  1  0
 19 20  1  0
 20 21  2  3
 21 22  1  0
 22 23  2  0
 22 27  1  0
 23 24  1  0
 24 25  2  0
 25 26  1  0
 25 27  1  0
M  END
