
     RDKit          3D

 28 29  0  0  0  0  0  0  0  0999 V2000
   -6.5890    2.0800   -1.8610 C   0  0  0  0  0  0  0  0  0  0  0  0
   -6.7530    1.7290   -0.4020 C   0  0  0  0  0  0  0  0  0  0  0  0
   -6.2150    0.3850   -0.0940 C   0  0  0  0  0  0  0  0  0  0  0  0
   -5.7080   -0.2720   -1.0480 O   0  0  0  0  0  0  0  0  0  0  0  0
   -6.2930   -0.0950    1.2370 N   0  0  0  0  0  0  0  0  0  0  0  0
   -5.7840   -1.3770    1.5980 C   0  0  0  0  0  0  0  0  0  0  0  0
   -4.3300   -1.5410    1.4350 C   0  0  0  0  0  0  0  0  0  0  0  0
   -3.8030   -2.6600    1.6740 O   0  0  0  0  0  0  0  0  0  0  0  0
   -3.5120   -0.4690    1.0200 N   0  0  0  0  0  0  0  0  0  0  0  0
   -2.1120   -0.4980    0.8190 C   0  0  0  0  0  0  0  0  0  0  0  0
   -1.2980   -1.5790    1.0010 C   0  0  0  0  0  0  0  0  0  0  0  0
    0.0680   -1.4810    0.7720 C   0  0  0  0  0  0  0  0  0  0  0  0
    0.6550   -0.3210    0.3610 C   0  0  0  0  0  0  0  0  0  0  0  0
    2.0340   -0.2260    0.1460 N   0  0  0  0  0  0  0  0  0  0  0  0
    3.0380   -1.1440    0.4830 C   0  0  0  0  0  0  0  0  0  0  0  0
    2.7700   -2.2070    1.0510 O   0  0  0  0  0  0  0  0  0  0  0  0
    4.4260   -0.8210    0.1470 C   0  0  0  0  0  0  0  0  0  0  0  0
    4.9710    0.2330   -0.4520 C   0  0  0  0  0  0  0  0  0  0  0  0
    6.3040    0.2980   -0.6510 C   0  0  0  0  0  0  0  0  0  0  0  0
    7.0460   -0.7600   -0.2110 C   0  0  0  0  0  0  0  0  0  0  0  0
    8.4950   -1.0250   -0.2580 C   0  0  0  0  0  0  0  0  0  0  0  0
    8.9020   -2.0970    0.2310 O   0  0  0  0  0  0  0  0  0  0  0  0
    9.3880   -0.1560   -0.8080 O   0  0  0  0  0  0  0  0  0  0  0  0
   10.7960   -0.4080   -0.8560 C   0  0  0  0  0  0  0  0  0  0  0  0
    5.8220   -1.8780    0.5050 S   0  0  0  0  0  0  0  0  0  0  0  0
   -0.1700    0.7770    0.1750 C   0  0  0  0  0  0  0  0  0  0  0  0
   -1.5130    0.6990    0.3960 C   0  0  0  0  0  0  0  0  0  0  0  0
   -2.3340    1.9280    0.1720 C   0  0  0  0  0  0  0  0  0  0  0  0
  1  2  1  0
  2  3  1  0
  3  4  2  0
  3  5  1  0
  5  6  1  0
  6  7  1  0
  7  8  2  0
  7  9  1  0
  9 10  1  0
 10 11  2  0
 10 27  1  0
 11 12  1  0
 12 13  2  0
 13 14  1  0
 13 26  1  0
 14 15  1  0
 15 16  2  0
 15 17  1  0
 17 18  2  0
 17 25  1  0
 18 19  1  0
 19 20  2  0
 20 21  1  0
 20 25  1  0
 21 22  2  0
 21 23  1  0
 23 24  1  0
 26 27  2  0
 27 28  1  0
M  END
