
     RDKit          3D

 28 29  0  0  0  0  0  0  0  0999 V2000
   -6.0550   -2.8300   -1.0290 C   0  0  0  0  0  0  0  0  0  0  0  0
   -4.6270   -2.7910   -1.0400 O   0  0  0  0  0  0  0  0  0  0  0  0
   -3.9070   -2.9770    0.1470 C   0  0  0  0  0  0  0  0  0  0  0  0
   -4.5430   -3.1790    1.2140 O   0  0  0  0  0  0  0  0  0  0  0  0
   -2.4460   -2.9450    0.1820 C   0  0  0  0  0  0  0  0  0  0  0  0
   -1.5460   -3.9630    0.0230 C   0  0  0  0  0  0  0  0  0  0  0  0
   -1.9440   -5.3790   -0.2300 C   0  0  0  0  0  0  0  0  0  0  0  0
   -0.2810   -3.4750    0.1330 N   0  0  0  0  0  0  0  0  0  0  0  0
   -0.3390   -2.1350    0.3650 C   0  0  0  0  0  0  0  0  0  0  0  0
    0.6190   -1.1660    0.5520 C   0  0  0  0  0  0  0  0  0  0  0  0
    1.9780   -1.5070    0.5270 N   0  0  0  0  0  0  0  0  0  0  0  0
    3.0660   -0.5840    0.6730 C   0  0  0  0  0  0  0  0  0  0  0  0
    3.1420    0.4220   -0.4190 C   0  0  0  0  0  0  0  0  0  0  0  0
    2.3590    0.4240   -1.3320 O   0  0  0  0  0  0  0  0  0  0  0  0
    4.2100    1.4530   -0.3850 C   0  0  2  0  0  0  0  0  0  0  0  0
    5.5470    0.7380   -0.4040 C   0  0  0  0  0  0  0  0  0  0  0  0
    4.0550    2.2040    0.9330 C   0  0  0  0  0  0  0  0  0  0  0  0
    4.1520    2.3920   -1.5430 C   0  0  0  0  0  0  0  0  0  0  0  0
    0.2380    0.1390    0.7710 C   0  0  0  0  0  0  0  0  0  0  0  0
   -1.1030    0.5090    0.8080 C   0  0  0  0  0  0  0  0  0  0  0  0
   -1.5390    1.8050    1.0240 O   0  0  0  0  0  0  0  0  0  0  0  0
   -1.7620    2.7270    0.0470 C   0  0  0  0  0  0  0  0  0  0  0  0
   -1.5690    2.4160   -1.1510 O   0  0  0  0  0  0  0  0  0  0  0  0
   -2.2100    4.0260    0.4070 N   0  0  0  0  0  0  0  0  0  0  0  0
   -2.4530    5.0200   -0.6060 C   0  0  0  0  0  0  0  0  0  0  0  0
   -3.0060    6.5410    0.1850 S   0  0  0  0  0  0  0  0  0  0  0  0
   -2.0460   -0.4760    0.6180 C   0  0  0  0  0  0  0  0  0  0  0  0
   -1.6870   -1.8070    0.3940 C   0  0  0  0  0  0  0  0  0  0  0  0
  1  2  1  0
  2  3  1  0
  3  4  2  0
  3  5  1  0
  5  6  2  0
  5 28  1  0
  6  7  1  0
  6  8  1  0
  8  9  1  0
  9 10  2  0
  9 28  1  0
 10 11  1  0
 10 19  1  0
 11 12  1  0
 12 13  1  0
 13 14  2  0
 13 15  1  0
 15 16  1  1
 15 17  1  0
 15 18  1  0
 19 20  2  0
 20 21  1  0
 20 27  1  0
 21 22  1  0
 22 23  2  0
 22 24  1  0
 24 25  1  0
 25 26  1  0
 27 28  2  0
M  END
