
     RDKit          3D

 31 33  0  0  0  0  0  0  0  0999 V2000
    7.6040    1.5050   -1.4490 C   0  0  0  0  0  0  0  0  0  0  0  0
    6.6190    0.8330   -0.8120 C   0  0  0  0  0  0  0  0  0  0  0  0
    5.2300    0.7330   -1.4900 C   0  0  0  0  0  0  0  0  0  0  0  0
    4.5370   -0.1860   -0.5940 C   0  0  2  0  0  0  0  0  0  0  0  0
    5.2100   -1.5070   -0.9260 C   0  0  0  0  0  0  0  0  0  0  0  0
    5.7950   -2.6360   -1.1900 N   0  0  0  0  0  0  0  0  0  0  0  0
    3.1090   -0.4510   -0.6740 C   0  0  1  0  0  0  0  0  0  0  0  0
    2.7810   -1.2820    0.5080 N   0  0  0  0  0  0  0  0  0  0  0  0
    2.1790    0.7480   -0.7680 C   0  0  0  0  0  0  0  0  0  0  0  0
    0.9660    0.4480   -0.7530 O   0  0  0  0  0  0  0  0  0  0  0  0
   -0.3130    0.4370   -0.8030 C   0  0  1  0  0  0  0  0  0  0  0  0
   -0.8100   -0.8230   -0.1170 C   0  0  0  0  0  0  0  0  0  0  0  0
   -2.0570   -1.0010    0.3640 O   0  0  0  0  0  0  0  0  0  0  0  0
   -2.3770   -0.3130    1.6460 C   0  0  0  0  0  0  0  0  0  0  0  0
   -1.5380    0.3930    2.2340 C   0  0  0  0  0  0  0  0  0  0  0  0
   -1.7990    1.0620    3.4370 C   0  0  0  0  0  0  0  0  0  0  0  0
   -3.1050    0.8830    3.9580 C   0  0  0  0  0  0  0  0  0  0  0  0
   -3.9320    0.1390    3.3070 C   0  0  0  0  0  0  0  0  0  0  0  0
   -3.7490   -0.5990    2.0480 C   0  0  0  0  0  0  0  0  0  0  0  0
   -4.4790   -1.3270    1.3750 O   0  0  0  0  0  0  0  0  0  0  0  0
   -5.4980   -2.0190    0.8810 C   0  0  0  0  0  0  0  0  0  0  0  0
   -6.6950   -1.2080    0.3920 C   0  0  0  0  0  0  0  0  0  0  0  0
   -7.7210   -2.0710   -0.1340 N   0  0  0  0  0  0  0  0  0  0  0  0
   -1.0530    1.6840   -0.6320 C   0  0  0  0  0  0  0  0  0  0  0  0
   -1.9160    2.1260   -1.8190 C   0  0  0  0  0  0  0  0  0  0  0  0
   -1.3220    2.1630   -3.0340 O   0  0  0  0  0  0  0  0  0  0  0  0
   -0.2670    1.2450   -3.1400 C   0  0  0  0  0  0  0  0  0  0  0  0
   -0.6620    0.0640   -2.3490 C   0  0  0  0  0  0  0  0  0  0  0  0
    5.0960    0.0450    0.7360 N   0  0  0  0  0  0  0  0  0  0  0  0
    6.5010    0.2000    0.4420 C   0  0  0  0  0  0  0  0  0  0  0  0
    7.5000   -0.2280    1.2050 N   0  0  0  0  0  0  0  0  0  0  0  0
  1  2  2  0
  2  3  1  0
  2 30  1  0
  3  4  1  0
  4  5  1  6
  4  7  1  0
  4 29  1  0
  5  6  3  0
  7  8  1  1
  7  9  1  0
  9 10  1  0
 10 11  1  0
 11 12  1  1
 11 24  1  0
 11 28  1  0
 12 13  1  0
 13 14  1  0
 14 15  2  0
 14 19  1  0
 15 16  1  0
 16 17  2  0
 17 18  1  0
 18 19  2  0
 19 20  1  0
 20 21  1  0
 21 22  1  0
 22 23  1  0
 24 25  1  0
 25 26  1  0
 26 27  1  0
 27 28  1  0
 29 30  1  0
 30 31  2  0
M  CHG  2   8   1  23   1
M  END
