
     RDKit          3D

 29 30  0  0  0  0  0  0  0  0999 V2000
   -3.9220    1.6370    1.8420 C   0  0  0  0  0  0  0  0  0  0  0  0
   -3.6790    0.1670    1.8210 C   0  0  0  0  0  0  0  0  0  0  0  0
   -3.7310   -0.3910    0.4500 C   0  0  0  0  0  0  0  0  0  0  0  0
   -2.7460   -0.4260   -0.5090 C   0  0  0  0  0  0  0  0  0  0  0  0
   -1.3710    0.0630   -0.4970 C   0  0  0  0  0  0  0  0  0  0  0  0
   -0.6350   -0.3610   -1.4550 O   0  0  0  0  0  0  0  0  0  0  0  0
   -0.7760    0.9160    0.4080 N   0  0  0  0  0  0  0  0  0  0  0  0
    0.5630    1.3510    0.3810 C   0  0  0  0  0  0  0  0  0  0  0  0
    1.5160    0.9720   -0.5070 C   0  0  0  0  0  0  0  0  0  0  0  0
    2.8470    1.4280   -0.4860 C   0  0  0  0  0  0  0  0  0  0  0  0
    3.9960    0.8620   -1.6820 S   0  0  1  0  0  0  0  0  0  0  0  0
    3.1910    0.4710   -2.9070 O   0  0  0  0  0  0  0  0  0  0  0  0
    4.9480    1.9150   -2.1030 O   0  0  0  0  0  0  0  0  0  0  0  0
    4.8190   -0.5500   -1.1640 N   0  0  0  0  0  0  0  0  0  0  0  0
    5.5970   -0.3470    0.0360 C   0  0  0  0  0  0  0  0  0  0  0  0
    7.0100    0.0640   -0.2070 C   0  0  0  0  0  0  0  0  0  0  0  0
    3.9260   -1.6710   -0.9920 C   0  0  0  0  0  0  0  0  0  0  0  0
    3.7890   -2.4690   -2.2740 C   0  0  0  0  0  0  0  0  0  0  0  0
    3.1660    2.3110    0.5110 C   0  0  0  0  0  0  0  0  0  0  0  0
    2.2410    2.7320    1.4410 C   0  0  0  0  0  0  0  0  0  0  0  0
    0.9720    2.2580    1.3710 C   0  0  0  0  0  0  0  0  0  0  0  0
    0.0620    2.7100    2.3350 O   0  0  0  0  0  0  0  0  0  0  0  0
   -3.2970   -1.0420   -1.6130 N   0  0  0  0  0  0  0  0  0  0  0  0
   -4.5500   -1.3740   -1.3660 C   0  0  0  0  0  0  0  0  0  0  0  0
   -5.4980   -2.0620   -2.3030 C   0  0  0  0  0  0  0  0  0  0  0  0
   -4.8810   -0.9890   -0.0820 C   0  0  0  0  0  0  0  0  0  0  0  0
   -6.1710   -1.1630    0.5460 C   0  0  0  0  0  0  0  0  0  0  0  0
   -6.5080   -0.6930    1.8210 N   0  0  0  0  0  0  0  0  0  0  0  0
   -7.0620   -1.7930   -0.1260 O   0  0  0  0  0  0  0  0  0  0  0  0
  1  2  1  0
  2  3  1  0
  3  4  2  0
  3 26  1  0
  4  5  1  0
  4 23  1  0
  5  6  2  0
  5  7  1  0
  7  8  1  0
  8  9  2  0
  8 21  1  0
  9 10  1  0
 10 11  1  0
 10 19  2  0
 11 12  2  0
 11 13  2  0
 11 14  1  1
 14 15  1  0
 14 17  1  0
 15 16  1  0
 17 18  1  0
 19 20  1  0
 20 21  2  0
 21 22  1  0
 23 24  1  0
 24 25  1  0
 24 26  2  0
 26 27  1  0
 27 28  1  0
 27 29  2  0
M  END
