
     RDKit          3D

 31 33  0  0  0  0  0  0  0  0999 V2000
   -7.1990   -0.5150   -2.1200 C   0  0  0  0  0  0  0  0  0  0  0  0
   -6.5290    0.1800   -0.9920 C   0  0  0  0  0  0  0  0  0  0  0  0
   -5.1860   -0.0580   -0.7020 C   0  0  0  0  0  0  0  0  0  0  0  0
   -4.5220    0.5540    0.3230 C   0  0  0  0  0  0  0  0  0  0  0  0
   -3.1500    0.3470    0.6640 N   0  0  0  0  0  0  0  0  0  0  0  0
   -2.2500   -0.5080    0.0190 C   0  0  0  0  0  0  0  0  0  0  0  0
   -2.5870   -1.1930   -0.9530 O   0  0  0  0  0  0  0  0  0  0  0  0
   -0.8690   -0.5950    0.5080 C   0  0  0  0  0  0  0  0  0  0  0  0
   -0.4950    0.1020    1.5100 O   0  0  0  0  0  0  0  0  0  0  0  0
    0.0580   -1.4510   -0.1270 N   0  0  0  0  0  0  0  0  0  0  0  0
    1.4290   -1.5460    0.3480 C   0  0  1  0  0  0  0  0  0  0  0  0
    1.6160   -2.9510    0.8350 C   0  0  0  0  0  0  0  0  0  0  0  0
    1.3720   -3.9540   -0.2470 C   0  0  0  0  0  0  0  0  0  0  0  0
    2.2300   -3.8340   -1.3230 O   0  0  0  0  0  0  0  0  0  0  0  0
    2.3250   -1.0910   -0.7400 C   0  0  0  0  0  0  0  0  0  0  0  0
    3.7820   -1.1150   -0.4610 C   0  0  0  0  0  0  0  0  0  0  0  0
    4.2220   -0.2610    0.6920 C   0  0  1  0  0  0  0  0  0  0  0  0
    5.7430   -0.4290    0.8060 C   0  0  0  0  0  0  0  0  0  0  0  0
    6.2050    0.7370   -0.0740 C   0  0  2  0  0  0  0  0  0  0  0  0
    7.6170    1.0840    0.2820 C   0  0  0  0  0  0  0  0  0  0  0  0
    8.0490    2.1950   -0.5610 N   0  0  0  0  0  0  0  0  0  0  0  0
    5.2260    1.8180    0.3910 C   0  0  0  0  0  0  0  0  0  0  0  0
    3.9800    1.1270    0.4490 N   0  0  0  0  0  0  0  0  0  0  0  0
   -5.2750    1.4530    1.0860 C   0  0  0  0  0  0  0  0  0  0  0  0
   -4.7230    2.0590    2.0550 O   0  0  0  0  0  0  0  0  0  0  0  0
   -6.5610    1.6790    0.8060 N   0  0  0  0  0  0  0  0  0  0  0  0
   -7.2290    2.5700    1.5950 C   0  0  0  0  0  0  0  0  0  0  0  0
   -8.5510    2.8390    1.3510 C   0  0  0  0  0  0  0  0  0  0  0  0
   -9.2220    2.2220    0.3180 C   0  0  0  0  0  0  0  0  0  0  0  0
   -8.5610    1.3240   -0.4840 C   0  0  0  0  0  0  0  0  0  0  0  0
   -7.2120    1.0750   -0.2040 C   0  0  0  0  0  0  0  0  0  0  0  0
  1  2  1  0
  2  3  1  0
  2 31  2  0
  3  4  2  0
  4  5  1  0
  4 24  1  0
  5  6  1  0
  6  7  2  0
  6  8  1  0
  8  9  2  0
  8 10  1  0
 10 11  1  0
 11 12  1  6
 11 15  1  0
 12 13  1  0
 13 14  1  0
 15 16  1  0
 17 16  1  6
 17 18  1  0
 17 23  1  0
 18 19  1  0
 19 20  1  1
 19 22  1  0
 20 21  1  0
 22 23  1  0
 24 25  2  0
 24 26  1  0
 26 27  1  0
 26 31  1  0
 27 28  2  0
 28 29  1  0
 29 30  2  0
 30 31  1  0
M  CHG  2  21   1  23   1
M  END
