
     RDKit          3D

 30 31  0  0  0  0  0  0  0  0999 V2000
    1.9860   -2.9810   -2.1360 C   0  0  0  0  0  0  0  0  0  0  0  0
    1.4480   -2.0010   -3.1870 C   0  0  1  0  0  0  0  0  0  0  0  0
    1.6290   -0.7060   -2.6470 O   0  0  0  0  0  0  0  0  0  0  0  0
    0.6060    0.1200   -2.2800 C   0  0  0  0  0  0  0  0  0  0  0  0
   -0.5870   -0.2380   -2.4040 O   0  0  0  0  0  0  0  0  0  0  0  0
    0.8970    1.4640   -1.7230 C   0  0  0  0  0  0  0  0  0  0  0  0
    0.9280    1.3960   -0.2270 C   0  0  2  0  0  0  0  0  0  0  0  0
   -0.3570    0.9340    0.3090 N   0  0  0  0  0  0  0  0  0  0  0  0
   -0.4990   -0.2840    1.0010 C   0  0  0  0  0  0  0  0  0  0  0  0
    0.4870   -1.0350    1.1900 O   0  0  0  0  0  0  0  0  0  0  0  0
   -1.8030   -0.7430    1.5400 C   0  0  2  0  0  0  0  0  0  0  0  0
   -1.7260   -2.0020    2.2070 N   0  0  0  0  0  0  0  0  0  0  0  0
   -1.9650   -2.1540    3.6190 C   0  0  0  0  0  0  0  0  0  0  0  0
   -2.2520   -1.1100    4.2590 O   0  0  0  0  0  0  0  0  0  0  0  0
   -1.8800   -3.4790    4.3000 C   0  0  0  0  0  0  0  0  0  0  0  0
   -1.5470   -4.4520    3.3590 O   0  0  0  0  0  0  0  0  0  0  0  0
   -2.8820   -0.6630    0.4950 C   0  0  2  0  0  0  0  0  0  0  0  0
   -4.2760   -1.0750    0.8140 C   0  0  0  0  0  0  0  0  0  0  0  0
   -3.4450   -1.9070   -0.1250 C   0  0  0  0  0  0  0  0  0  0  0  0
    1.3550    2.6720    0.4450 C   0  0  2  0  0  0  0  0  0  0  0  0
    1.4620    2.4690    1.8500 O   0  0  0  0  0  0  0  0  0  0  0  0
    0.1190    3.9810    0.2370 S   0  0  0  0  0  0  0  0  0  0  0  0
    1.0550    5.5310   -0.0650 C   0  0  0  0  0  0  0  0  0  0  0  0
    2.2380    5.4890    0.9120 C   0  0  0  0  0  0  0  0  0  0  0  0
    3.0720    4.4020    0.6060 O   0  0  0  0  0  0  0  0  0  0  0  0
    2.6570    3.1950    0.0500 C   0  0  0  0  0  0  0  0  0  0  0  0
    3.4780    2.6740   -0.7520 O   0  0  0  0  0  0  0  0  0  0  0  0
    2.2200   -2.2010   -4.4280 C   0  0  0  0  0  0  0  0  0  0  0  0
    2.1540   -3.3060   -5.0140 O   0  0  0  0  0  0  0  0  0  0  0  0
    3.0170   -1.2110   -4.9690 O   0  0  0  0  0  0  0  0  0  0  0  0
  2  1  1  1
  2  3  1  0
  2 28  1  0
  3  4  1  0
  4  5  2  0
  4  6  1  0
  7  6  1  6
  7  8  1  0
  7 20  1  0
  8  9  1  0
  9 10  2  0
  9 11  1  0
 11 12  1  6
 11 17  1  0
 12 13  1  0
 13 14  2  0
 13 15  1  0
 15 16  1  0
 17 18  1  1
 17 19  1  0
 18 19  1  0
 20 21  1  1
 20 22  1  0
 20 26  1  0
 22 23  1  0
 23 24  1  0
 24 25  1  0
 25 26  1  0
 26 27  2  0
 28 29  2  0
 28 30  1  0
M  END
