
     RDKit          3D

 31 33  0  0  0  0  0  0  0  0999 V2000
    1.3940    1.0910   -3.0490 N   0  0  0  0  0  0  0  0  0  0  0  0
    2.4110    0.6250   -2.1920 C   0  0  0  0  0  0  0  0  0  0  0  0
    3.6040    0.7430   -2.5310 O   0  0  0  0  0  0  0  0  0  0  0  0
    2.1080   -0.0360   -0.8440 C   0  0  1  0  0  0  0  0  0  0  0  0
    3.2650    0.1750    0.0250 C   0  0  0  0  0  0  0  0  0  0  0  0
    3.2190   -0.3830    1.3500 N   0  0  0  0  0  0  0  0  0  0  0  0
    2.8810   -1.7770    1.3840 C   0  0  0  0  0  0  0  0  0  0  0  0
    3.9330   -2.6980    0.9370 C   0  0  0  0  0  0  0  0  0  0  0  0
    4.4830   -3.6330    1.7390 C   0  0  0  0  0  0  0  0  0  0  0  0
    5.4800   -4.3450    0.9510 C   0  0  0  0  0  0  0  0  0  0  0  0
    5.6400   -3.5700   -0.1140 C   0  0  0  0  0  0  0  0  0  0  0  0
    4.5570   -2.8440   -0.3680 C   0  0  0  0  0  0  0  0  0  0  0  0
    0.8030    0.2790   -0.3770 N   0  0  0  0  0  0  0  0  0  0  0  0
    0.3360    1.3740    0.3970 C   0  0  0  0  0  0  0  0  0  0  0  0
   -0.2070    2.5930   -0.2590 C   0  0  2  0  0  0  0  0  0  0  0  0
    0.8840    3.5760   -0.7300 C   0  0  0  0  0  0  0  0  0  0  0  0
    0.2030    4.5600   -1.4510 O   0  0  0  0  0  0  0  0  0  0  0  0
   -0.4140    5.3630   -0.4790 C   0  0  0  0  0  0  0  0  0  0  0  0
   -1.3850    4.4880    0.2760 C   0  0  0  0  0  0  0  0  0  0  0  0
   -0.7600    3.3700    0.8290 O   0  0  0  0  0  0  0  0  0  0  0  0
   -0.2310   -0.7230   -0.6510 C   0  0  0  0  0  0  0  0  0  0  0  0
    0.1290   -1.7400   -1.2700 O   0  0  0  0  0  0  0  0  0  0  0  0
   -1.6320   -0.5480   -0.2200 C   0  0  0  0  0  0  0  0  0  0  0  0
   -2.5010   -1.7040   -0.6660 C   0  0  0  0  0  0  0  0  0  0  0  0
   -3.9030   -1.5430   -0.2450 C   0  0  0  0  0  0  0  0  0  0  0  0
   -4.9150   -1.1640   -1.1010 C   0  0  0  0  0  0  0  0  0  0  0  0
   -6.1850   -1.0270   -0.6820 N   0  0  0  0  0  0  0  0  0  0  0  0
   -6.5510   -1.2510    0.5980 C   0  0  0  0  0  0  0  0  0  0  0  0
   -5.5830   -1.6310    1.4920 C   0  0  0  0  0  0  0  0  0  0  0  0
   -4.2630   -1.7750    1.0650 C   0  0  0  0  0  0  0  0  0  0  0  0
   -3.3120   -2.1690    2.0320 N   0  0  0  0  0  0  0  0  0  0  0  0
  1  2  1  0
  2  3  2  0
  2  4  1  0
  4  5  1  1
  4 13  1  0
  5  6  1  0
  6  7  1  0
  7  8  1  0
  8  9  2  0
  8 12  1  0
  9 10  1  0
 10 11  2  0
 11 12  2  0
 13 14  1  0
 13 21  1  0
 15 14  1  1
 15 16  1  0
 15 20  1  0
 16 17  1  0
 17 18  1  0
 18 19  1  0
 19 20  1  0
 21 22  2  0
 21 23  1  0
 23 24  1  0
 24 25  1  0
 25 26  2  0
 25 30  1  0
 26 27  1  0
 27 28  2  0
 28 29  1  0
 29 30  2  0
 30 31  1  0
M  CHG  2   6   1  27   1
M  END
