
     RDKit          3D

 31 33  0  0  0  0  0  0  0  0999 V2000
   -2.9300    2.9640    2.1660 C   0  0  0  0  0  0  0  0  0  0  0  0
   -2.2810    1.7550    1.4100 C   0  0  0  0  0  0  0  0  0  0  0  0
   -3.4100    1.0610    0.7780 C   0  0  2  0  0  0  0  0  0  0  0  0
   -4.4120    0.5570    1.8640 C   0  0  0  0  0  0  0  0  0  0  0  0
   -5.1940   -0.5260    1.1550 C   0  0  1  0  0  0  0  0  0  0  0  0
   -6.6130   -0.3960    1.3280 N   0  0  0  0  0  0  0  0  0  0  0  0
   -4.7470   -0.3570   -0.2760 C   0  0  0  0  0  0  0  0  0  0  0  0
   -3.2890   -0.0620   -0.0340 N   0  0  0  0  0  0  0  0  0  0  0  0
   -2.3140   -0.8380   -0.6140 C   0  0  0  0  0  0  0  0  0  0  0  0
   -2.8080   -1.7970   -1.3810 O   0  0  0  0  0  0  0  0  0  0  0  0
   -0.8430   -0.8130   -0.5540 C   0  0  2  0  0  0  0  0  0  0  0  0
   -0.3720   -1.9010   -1.4570 N   0  0  0  0  0  0  0  0  0  0  0  0
   -0.7090   -3.2490   -1.2860 C   0  0  0  0  0  0  0  0  0  0  0  0
   -1.4340   -3.6400   -0.3590 O   0  0  0  0  0  0  0  0  0  0  0  0
   -0.1940   -4.2380   -2.2270 C   0  0  0  0  0  0  0  0  0  0  0  0
   -0.5030   -5.6200   -2.1030 N   0  0  0  0  0  0  0  0  0  0  0  0
    0.5530   -3.9180   -3.2000 O   0  0  0  0  0  0  0  0  0  0  0  0
   -0.3020   -1.1990    0.7820 C   0  0  0  0  0  0  0  0  0  0  0  0
    1.2000   -0.8440    0.8710 C   0  0  0  0  0  0  0  0  0  0  0  0
    1.2940    0.6650    0.8120 C   0  0  1  0  0  0  0  0  0  0  0  0
    2.4720    1.1340    1.3900 N   0  0  0  0  0  0  0  0  0  0  0  0
    3.7060    1.2370    0.7450 C   0  0  2  0  0  0  0  0  0  0  0  0
    3.9520    2.5230   -0.0310 C   0  0  0  0  0  0  0  0  0  0  0  0
    4.2260    0.0320    0.0080 C   0  0  0  0  0  0  0  0  0  0  0  0
    5.5480    0.2940   -0.6210 C   0  0  0  0  0  0  0  0  0  0  0  0
    5.7180    0.7860   -1.8890 C   0  0  0  0  0  0  0  0  0  0  0  0
    7.0570    0.9010   -2.1390 C   0  0  0  0  0  0  0  0  0  0  0  0
    7.6800    0.4580   -0.9720 C   0  0  0  0  0  0  0  0  0  0  0  0
    6.7450    0.1170   -0.1220 O   0  0  0  0  0  0  0  0  0  0  0  0
    0.8500    1.1290   -0.5040 C   0  0  0  0  0  0  0  0  0  0  0  0
   -0.2720    0.4440   -1.1430 C   0  0  0  0  0  0  0  0  0  0  0  0
  1  2  1  0
  3  2  1  1
  3  4  1  0
  3  8  1  0
  4  5  1  0
  5  6  1  6
  5  7  1  0
  7  8  1  0
  8  9  1  0
  9 10  2  0
  9 11  1  0
 11 12  1  6
 11 18  1  0
 11 31  1  0
 12 13  1  0
 13 14  2  0
 13 15  1  0
 15 16  1  0
 15 17  2  0
 18 19  1  0
 19 20  1  0
 20 21  1  6
 20 30  1  0
 21 22  1  0
 22 23  1  6
 22 24  1  0
 24 25  1  0
 25 26  2  0
 25 29  1  0
 26 27  1  0
 27 28  2  0
 28 29  1  0
 30 31  1  0
M  CHG  2   6   1  21   1
M  END
