
     RDKit          3D

 31 32  0  0  0  0  0  0  0  0999 V2000
    8.4580    1.1940   -0.6500 C   0  0  0  0  0  0  0  0  0  0  0  0
    7.2290    1.9210   -1.1620 C   0  0  0  0  0  0  0  0  0  0  0  0
    6.0300    1.2720   -0.6920 N   0  0  0  0  0  0  0  0  0  0  0  0
    5.5350    1.7860    0.5600 C   0  0  2  0  0  0  0  0  0  0  0  0
    5.7050    0.8290    1.6920 C   0  0  0  0  0  0  0  0  0  0  0  0
    4.7470   -0.3040    1.7340 C   0  0  0  0  0  0  0  0  0  0  0  0
    3.6240   -0.2670    0.7490 C   0  0  0  0  0  0  0  0  0  0  0  0
    3.2030    1.0280    0.3250 N   0  0  0  0  0  0  0  0  0  0  0  0
    1.9420    1.2040   -0.2870 C   0  0  0  0  0  0  0  0  0  0  0  0
    1.6450    2.4050   -0.6240 O   0  0  0  0  0  0  0  0  0  0  0  0
    0.9760    0.1580   -0.5610 C   0  0  0  0  0  0  0  0  0  0  0  0
    1.1160   -1.0560   -0.3030 O   0  0  0  0  0  0  0  0  0  0  0  0
   -0.2750    0.5040   -1.1860 N   0  0  0  0  0  0  0  0  0  0  0  0
   -1.2550   -0.4810   -1.4750 C   0  0  0  0  0  0  0  0  0  0  0  0
   -1.6700   -0.7080   -2.6930 C   0  0  0  0  0  0  0  0  0  0  0  0
   -2.6690   -1.7030   -3.0430 C   0  0  0  0  0  0  0  0  0  0  0  0
   -3.0240   -1.8690   -4.2290 O   0  0  0  0  0  0  0  0  0  0  0  0
   -3.2730   -2.5140   -2.0760 O   0  0  0  0  0  0  0  0  0  0  0  0
   -4.2400   -3.4660   -2.4700 C   0  0  1  0  0  0  0  0  0  0  0  0
   -3.7180   -4.8440   -2.1080 C   0  0  0  0  0  0  0  0  0  0  0  0
   -5.5190   -3.2430   -1.6810 C   0  0  0  0  0  0  0  0  0  0  0  0
   -1.7900   -1.2260   -0.4030 N   0  0  0  0  0  0  0  0  0  0  0  0
   -2.6400   -0.5880    0.5240 C   0  0  0  0  0  0  0  0  0  0  0  0
   -3.6070    0.2320    0.1330 C   0  0  0  0  0  0  0  0  0  0  0  0
   -4.4290    0.8370    1.2100 C   0  0  2  0  0  0  0  0  0  0  0  0
   -5.4350    1.8270    0.6930 C   0  0  0  0  0  0  0  0  0  0  0  0
   -6.1710    2.3470    1.8320 N   0  0  0  0  0  0  0  0  0  0  0  0
   -3.4520    1.5200    2.1490 C   0  0  0  0  0  0  0  0  0  0  0  0
   -2.6150    0.4580    2.7980 C   0  0  0  0  0  0  0  0  0  0  0  0
   -2.4970   -0.8020    1.9800 C   0  0  0  0  0  0  0  0  0  0  0  0
    4.0660    2.1650    0.5140 C   0  0  0  0  0  0  0  0  0  0  0  0
  1  2  1  0
  2  3  1  0
  4  3  1  6
  4  5  1  0
  4 31  1  0
  5  6  1  0
  6  7  1  0
  7  8  1  0
  8  9  1  0
  8 31  1  0
  9 10  2  0
  9 11  1  0
 11 12  2  0
 11 13  1  0
 13 14  1  0
 14 15  2  3
 14 22  1  0
 15 16  1  0
 16 17  2  0
 16 18  1  0
 18 19  1  0
 19 20  1  1
 19 21  1  0
 22 23  1  0
 23 24  2  0
 23 30  1  0
 24 25  1  0
 25 26  1  6
 25 28  1  0
 26 27  1  0
 28 29  1  0
 29 30  1  0
M  CHG  2   3   1  27   1
M  END
