
     RDKit          3D

 31 32  0  0  0  0  0  0  0  0999 V2000
    0.6000    0.0590    1.8200 C   0  0  0  0  0  0  0  0  0  0  0  0
    0.5450   -0.9220    0.6720 C   0  0  1  0  0  0  0  0  0  0  0  0
   -0.8910   -0.9380    0.2120 C   0  0  0  0  0  0  0  0  0  0  0  0
   -1.2380   -0.6710   -0.9440 O   0  0  0  0  0  0  0  0  0  0  0  0
   -1.8330   -1.2710    1.1540 O   0  0  0  0  0  0  0  0  0  0  0  0
   -3.2060   -1.3380    0.9150 C   0  0  0  0  0  0  0  0  0  0  0  0
   -3.7640   -0.0260    0.4570 C   0  0  0  0  0  0  0  0  0  0  0  0
   -3.0430    0.9940    0.3170 O   0  0  0  0  0  0  0  0  0  0  0  0
   -5.1500    0.0800    0.1690 N   0  0  0  0  0  0  0  0  0  0  0  0
   -5.6600    1.3630   -0.2730 C   0  0  1  0  0  0  0  0  0  0  0  0
   -6.3560    1.2860   -1.5930 C   0  0  0  0  0  0  0  0  0  0  0  0
   -7.6820    0.5660   -1.4740 C   0  0  0  0  0  0  0  0  0  0  0  0
   -8.6940    1.4660   -1.1560 O   0  0  0  0  0  0  0  0  0  0  0  0
   -8.1060    2.5510    0.0340 S   0  0  0  0  0  0  0  0  0  0  0  0
   -6.6380    1.8330    0.7930 C   0  0  0  0  0  0  0  0  0  0  0  0
    1.3410   -0.5710   -0.3880 O   0  0  0  0  0  0  0  0  0  0  0  0
    2.3590   -1.4850   -0.5230 C   0  0  1  0  0  0  0  0  0  0  0  0
    3.5460   -1.1160    0.3020 C   0  0  0  0  0  0  0  0  0  0  0  0
    4.5660   -1.8290    0.3050 O   0  0  0  0  0  0  0  0  0  0  0  0
    3.4700    0.0440    1.0590 O   0  0  0  0  0  0  0  0  0  0  0  0
    4.5620    0.4380    1.8540 C   0  0  0  0  0  0  0  0  0  0  0  0
    5.7560    0.6550    0.9940 C   0  0  0  0  0  0  0  0  0  0  0  0
    6.8670    1.0120    1.4650 O   0  0  0  0  0  0  0  0  0  0  0  0
    5.6660    0.4640   -0.3720 O   0  0  0  0  0  0  0  0  0  0  0  0
    6.7650    0.6560   -1.2350 C   0  0  0  0  0  0  0  0  0  0  0  0
    7.2590    2.0490   -1.1670 C   0  0  0  0  0  0  0  0  0  0  0  0
    8.3660    2.4270   -1.9630 N   0  0  0  0  0  0  0  0  0  0  0  0
    6.6760    2.8530   -0.4000 O   0  0  0  0  0  0  0  0  0  0  0  0
    1.8570   -2.8110    0.0120 C   0  0  0  0  0  0  0  0  0  0  0  0
    0.8760   -2.3260    1.0820 C   0  0  2  0  0  0  0  0  0  0  0  0
   -0.2210   -3.1840    1.0290 O   0  0  0  0  0  0  0  0  0  0  0  0
  2  1  1  1
  2  3  1  0
  2 16  1  0
  2 30  1  0
  3  4  2  0
  3  5  1  0
  5  6  1  0
  6  7  1  0
  7  8  2  0
  7  9  1  0
 10  9  1  1
 10 11  1  0
 10 15  1  0
 11 12  1  0
 12 13  1  0
 13 14  1  0
 14 15  1  0
 16 17  1  0
 17 18  1  1
 17 29  1  0
 18 19  2  0
 18 20  1  0
 20 21  1  0
 21 22  1  0
 22 23  2  0
 22 24  1  0
 24 25  1  0
 25 26  1  0
 26 27  1  0
 26 28  2  0
 29 30  1  0
 30 31  1  6
M  END
