
     RDKit          3D

 23 24  0  0  0  0  0  0  0  0999 V2000
    0.9860    2.1590    1.9310 N   0  0  0  0  0  0  0  0  0  0  0  0
    0.9600    1.5050    0.6070 C   0  0  0  0  0  0  0  0  0  0  0  0
    0.0370    1.9960   -0.1130 N   0  0  0  0  0  0  0  0  0  0  0  0
   -0.4530    1.8290   -1.3290 O   0  0  0  0  0  0  0  0  0  0  0  0
   -1.4200    2.6000   -1.8940 O   0  0  0  0  0  0  0  0  0  0  0  0
   -2.7210    2.2090   -1.4940 C   0  0  0  0  0  0  0  0  0  0  0  0
   -2.5320    1.1680   -0.5010 C   0  0  0  0  0  0  0  0  0  0  0  0
   -3.5750    0.2590   -0.1270 N   0  0  0  0  0  0  0  0  0  0  0  0
   -3.1550   -0.8660    0.6550 C   0  0  0  0  0  0  0  0  0  0  0  0
   -3.9820   -1.4860    1.3610 O   0  0  0  0  0  0  0  0  0  0  0  0
   -1.7710   -1.2710    0.6140 C   0  0  2  0  0  0  0  0  0  0  0  0
   -1.4090   -2.0920   -0.5960 C   0  0  0  0  0  0  0  0  0  0  0  0
    0.0310   -1.8200   -0.8680 C   0  0  0  0  0  0  0  0  0  0  0  0
    0.8490   -1.5770    0.3820 N   0  0  0  0  0  0  0  0  0  0  0  0
    0.2050   -2.2120    1.4820 C   0  0  0  0  0  0  0  0  0  0  0  0
    0.5600   -3.0100    2.4090 O   0  0  0  0  0  0  0  0  0  0  0  0
   -1.2090   -1.9600    1.6920 O   0  0  0  0  0  0  0  0  0  0  0  0
    1.9980   -0.7510    0.2690 C   0  0  0  0  0  0  0  0  0  0  0  0
    3.4110   -1.0940    0.0210 N   0  0  0  0  0  0  0  0  0  0  0  0
    4.6980    0.0840   -0.3430 P   0  0  0  0  0  0  0  0  0  0  0  0
    5.4430   -0.2630   -1.8420 O   0  0  0  0  0  0  0  0  0  0  0  0
    4.1840    1.7150   -0.1960 O   0  0  0  0  0  0  0  0  0  0  0  0
    1.8950    0.5440    0.3870 N   0  0  0  0  0  0  0  0  0  0  0  0
  1  2  1  0
  2  3  2  0
  2 23  1  0
  3  4  1  0
  4  5  1  0
  5  6  1  0
  6  7  1  0
  7  8  1  0
  8  9  1  0
  9 10  2  0
  9 11  1  0
 11 12  1  0
 11 17  1  1
 12 13  1  0
 13 14  1  0
 14 15  1  0
 14 18  1  0
 15 16  2  0
 15 17  1  0
 18 19  1  0
 18 23  2  0
 19 20  1  0
 20 21  1  0
 20 22  1  0
M  END
