
     RDKit          3D

 26 25  0  0  0  0  0  0  0  0999 V2000
   -6.5960    1.6830    2.0450 C   0  0  0  0  0  0  0  0  0  0  0  0
   -5.4900    0.8280    1.5340 C   0  0  0  0  0  0  0  0  0  0  0  0
   -4.6670    0.2720    2.3030 O   0  0  0  0  0  0  0  0  0  0  0  0
   -5.3550    0.6320    0.1530 N   0  0  0  0  0  0  0  0  0  0  0  0
   -4.2790   -0.2070   -0.4400 C   0  0  2  0  0  0  0  0  0  0  0  0
   -3.5200    0.7420   -1.3570 C   0  0  0  0  0  0  0  0  0  0  0  0
   -2.3450    0.0830   -2.0570 C   0  0  0  0  0  0  0  0  0  0  0  0
   -1.1660   -0.4970   -1.0610 P   0  0  0  0  0  0  0  0  0  0  0  0
   -0.2580   -0.9600   -2.3650 O   0  0  0  0  0  0  0  0  0  0  0  0
   -0.9360    1.0400   -0.4520 O   0  0  0  0  0  0  0  0  0  0  0  0
   -0.0060   -1.0820   -0.0570 C   0  0  0  0  0  0  0  0  0  0  0  0
    1.4020   -0.4640   -0.2920 C   0  0  2  0  0  0  0  0  0  0  0  0
    2.2720   -1.1110    0.6940 C   0  0  0  0  0  0  0  0  0  0  0  0
    3.7120   -0.7700    0.7150 C   0  0  0  0  0  0  0  0  0  0  0  0
    4.0760    0.6450    0.9620 C   0  0  0  0  0  0  0  0  0  0  0  0
    5.6150    0.7280    0.9560 C   0  0  1  0  0  0  0  0  0  0  0  0
    6.1410   -0.1240    1.9980 N   0  0  0  0  0  0  0  0  0  0  0  0
    6.1170    0.3710   -0.3890 C   0  0  0  0  0  0  0  0  0  0  0  0
    5.7250    1.0430   -1.3580 O   0  0  0  0  0  0  0  0  0  0  0  0
    6.9970   -0.6780   -0.5710 O   0  0  0  0  0  0  0  0  0  0  0  0
    1.3410    0.9870   -0.1090 C   0  0  0  0  0  0  0  0  0  0  0  0
    1.2210    1.4430    1.0780 O   0  0  0  0  0  0  0  0  0  0  0  0
    1.4110    1.8540   -1.2120 O   0  0  0  0  0  0  0  0  0  0  0  0
   -4.9660   -1.2810   -1.1830 C   0  0  0  0  0  0  0  0  0  0  0  0
   -6.2110   -1.3410   -1.2200 O   0  0  0  0  0  0  0  0  0  0  0  0
   -4.2310   -2.2320   -1.8460 O   0  0  0  0  0  0  0  0  0  0  0  0
  1  2  1  0
  2  3  2  0
  2  4  1  0
  4  5  1  0
  5  6  1  6
  5 24  1  0
  6  7  1  0
  7  8  1  0
  8  9  1  0
  8 10  1  0
  8 11  1  0
 12 11  1  1
 12 13  1  0
 12 21  1  0
 13 14  1  0
 14 15  1  0
 15 16  1  0
 16 17  1  1
 16 18  1  0
 18 19  2  0
 18 20  1  0
 21 22  2  0
 21 23  1  0
 24 25  2  0
 24 26  1  0
M  CHG  1  17   1
M  END
