
     RDKit          3D

 23 25  0  0  0  0  0  0  0  0999 V2000
   -4.8730    3.2360   -0.6590 N   0  0  0  0  0  0  0  0  0  0  0  0
   -4.6090    1.9750   -0.5690 C   0  0  0  0  0  0  0  0  0  0  0  0
   -5.6580    1.0890   -0.2130 N   0  0  0  0  0  0  0  0  0  0  0  0
   -5.3520   -0.2630   -0.1220 N   0  0  0  0  0  0  0  0  0  0  0  0
   -4.0200   -0.7460   -0.3780 C   0  0  0  0  0  0  0  0  0  0  0  0
   -3.7950   -1.9760   -0.2840 O   0  0  0  0  0  0  0  0  0  0  0  0
   -2.9360    0.1010   -0.7360 N   0  0  0  0  0  0  0  0  0  0  0  0
   -3.2400    1.5110   -0.8360 C   0  0  0  0  0  0  0  0  0  0  0  0
   -2.1670    2.1260   -1.1740 N   0  0  0  0  0  0  0  0  0  0  0  0
   -1.1220    1.2810   -1.3170 O   0  0  0  0  0  0  0  0  0  0  0  0
   -1.5540   -0.0310   -1.0270 C   0  0  1  0  0  0  0  0  0  0  0  0
   -0.6840   -0.6260    0.0420 C   0  0  1  0  0  0  0  0  0  0  0  0
   -0.8970   -2.0990    0.2830 C   0  0  0  0  0  0  0  0  0  0  0  0
    0.3980   -2.4870    0.6830 O   0  0  0  0  0  0  0  0  0  0  0  0
    1.2730   -1.7080   -0.0530 C   0  0  2  0  0  0  0  0  0  0  0  0
    2.4610   -1.2980    0.7190 C   0  0  0  0  0  0  0  0  0  0  0  0
    2.5980   -1.6510    1.9000 O   0  0  0  0  0  0  0  0  0  0  0  0
    3.4460   -0.5000    0.1050 N   0  0  0  0  0  0  0  0  0  0  0  0
    4.6250   -0.0810    0.8390 C   0  0  0  0  0  0  0  0  0  0  0  0
    5.7370    0.9520   -0.2160 P   0  0  0  0  0  0  0  0  0  0  0  0
    7.2580    0.1350   -0.3630 O   0  0  0  0  0  0  0  0  0  0  0  0
    6.0290    2.5160    0.4700 O   0  0  0  0  0  0  0  0  0  0  0  0
    0.6320   -0.5850   -0.5030 O   0  0  0  0  0  0  0  0  0  0  0  0
  1  2  2  0
  2  3  1  0
  2  8  1  0
  3  4  1  0
  4  5  1  0
  5  6  2  0
  5  7  1  0
  7  8  1  0
  7 11  1  0
  8  9  2  0
  9 10  1  0
 11 10  1  1
 11 12  1  0
 12 13  1  6
 12 23  1  0
 13 14  1  0
 14 15  1  0
 15 16  1  1
 15 23  1  0
 16 17  2  0
 16 18  1  0
 18 19  1  0
 19 20  1  0
 20 21  1  0
 20 22  1  0
M  END
