
     RDKit          3D

 23 25  0  0  0  0  0  0  0  0999 V2000
    2.4170    3.5880    0.3950 O   0  0  0  0  0  0  0  0  0  0  0  0
    1.6930    2.4960    0.5350 C   0  0  0  0  0  0  0  0  0  0  0  0
    1.9510    1.3650   -0.2790 N   0  0  0  0  0  0  0  0  0  0  0  0
    2.0980    0.0050   -0.0050 C   0  0  0  0  0  0  0  0  0  0  0  0
    3.4530   -0.4960   -0.2990 O   0  0  0  0  0  0  0  0  0  0  0  0
    4.2680   -1.5040    0.8270 P   0  0  0  0  0  0  0  0  0  0  0  0
    5.7660   -0.8610    1.3890 O   0  0  0  0  0  0  0  0  0  0  0  0
    4.3910   -3.1530    0.3370 O   0  0  0  0  0  0  0  0  0  0  0  0
    1.3260   -0.9410    0.4430 C   0  0  0  0  0  0  0  0  0  0  0  0
   -0.0540   -1.0050    0.8550 C   0  0  0  0  0  0  0  0  0  0  0  0
   -0.2830   -0.9720    2.1340 O   0  0  0  0  0  0  0  0  0  0  0  0
   -1.2440   -1.1030    0.1040 N   0  0  0  0  0  0  0  0  0  0  0  0
   -2.4430   -1.8460    0.5640 C   0  0  0  0  0  0  0  0  0  0  0  0
   -3.5130   -1.0220    0.7130 O   0  0  0  0  0  0  0  0  0  0  0  0
   -3.8580   -0.3980   -0.5000 C   0  0  0  0  0  0  0  0  0  0  0  0
   -2.6690    0.4450   -0.9660 C   0  0  2  0  0  0  0  0  0  0  0  0
   -1.4710   -0.5000   -1.2170 C   0  0  0  0  0  0  0  0  0  0  0  0
   -2.2330    1.3470    0.1510 C   0  0  0  0  0  0  0  0  0  0  0  0
   -0.9210    1.5280    0.2670 N   0  0  0  0  0  0  0  0  0  0  0  0
   -0.6920    2.3380    1.2950 C   0  0  0  0  0  0  0  0  0  0  0  0
   -1.8890    2.6540    1.8100 N   0  0  0  0  0  0  0  0  0  0  0  0
   -2.7900    2.0430    1.1000 O   0  0  0  0  0  0  0  0  0  0  0  0
    0.6940    2.6190    1.5420 N   0  0  0  0  0  0  0  0  0  0  0  0
  1  2  2  0
  2  3  1  0
  2 23  1  0
  3  4  1  0
  4  5  1  0
  4  9  2  0
  5  6  1  0
  6  7  1  0
  6  8  1  0
  9 10  1  0
 10 11  2  0
 10 12  1  0
 12 13  1  0
 12 17  1  0
 13 14  1  0
 14 15  1  0
 16 15  1  1
 16 17  1  0
 16 18  1  0
 18 19  2  0
 18 22  1  0
 19 20  1  0
 20 21  2  0
 20 23  1  0
 21 22  1  0
M  END
