
     RDKit          3D

 23 25  0  0  0  0  0  0  0  0999 V2000
   -3.4660    0.6060    3.3650 O   0  0  0  0  0  0  0  0  0  0  0  0
   -3.9610    0.5920    2.2200 C   0  0  0  0  0  0  0  0  0  0  0  0
   -3.1770    0.3920    1.1530 N   0  0  0  0  0  0  0  0  0  0  0  0
   -3.6580    0.3680   -0.1010 C   0  0  0  0  0  0  0  0  0  0  0  0
   -2.9020    0.1760   -1.1140 N   0  0  0  0  0  0  0  0  0  0  0  0
   -1.5070   -0.0210   -0.9480 C   0  0  0  0  0  0  0  0  0  0  0  0
   -0.5760    0.9280   -0.7730 N   0  0  0  0  0  0  0  0  0  0  0  0
    0.6380    0.3830   -0.6520 C   0  0  0  0  0  0  0  0  0  0  0  0
    1.8950    0.9110   -0.4600 C   0  0  0  0  0  0  0  0  0  0  0  0
    3.0160    0.0770   -0.3680 C   0  0  0  0  0  0  0  0  0  0  0  0
    4.2240    0.6740   -0.1790 O   0  0  0  0  0  0  0  0  0  0  0  0
    5.7570   -0.1100   -0.0310 P   0  0  0  0  0  0  0  0  0  0  0  0
    6.9790    1.1170    0.1900 O   0  0  0  0  0  0  0  0  0  0  0  0
    6.1300   -0.9020   -1.5470 O   0  0  0  0  0  0  0  0  0  0  0  0
    2.7950   -1.2790   -0.4770 C   0  0  0  0  0  0  0  0  0  0  0  0
    3.9160   -2.0960   -0.3840 O   0  0  0  0  0  0  0  0  0  0  0  0
    1.5530   -1.7930   -0.6660 N   0  0  0  0  0  0  0  0  0  0  0  0
    0.4700   -0.9890   -0.7550 C   0  0  0  0  0  0  0  0  0  0  0  0
   -0.8630   -1.1890   -0.9370 N   0  0  0  0  0  0  0  0  0  0  0  0
   -5.0090    0.5600   -0.2630 C   0  0  0  0  0  0  0  0  0  0  0  0
   -5.5870    0.5500   -1.5210 O   0  0  0  0  0  0  0  0  0  0  0  0
   -5.8020    0.7670    0.8770 C   0  0  0  0  0  0  0  0  0  0  0  0
   -5.2440    0.7740    2.0640 O   0  0  0  0  0  0  0  0  0  0  0  0
  1  2  2  0
  2  3  1  0
  2 23  1  0
  3  4  1  0
  4  5  2  3
  4 20  1  0
  5  6  1  0
  6  7  2  0
  6 19  1  0
  7  8  1  0
  8  9  2  0
  8 18  1  0
  9 10  1  0
 10 11  1  0
 10 15  2  0
 11 12  1  0
 12 13  1  0
 12 14  1  0
 15 16  1  0
 15 17  1  0
 17 18  2  0
 18 19  1  0
 20 21  1  0
 20 22  2  0
 22 23  1  0
M  END
