
     RDKit          3D

 22 24  0  0  0  0  0  0  0  0999 V2000
    0.0400    3.8590    2.1350 O   0  0  0  0  0  0  0  0  0  0  0  0
   -0.1310    3.1240    1.0970 C   0  0  0  0  0  0  0  0  0  0  0  0
   -1.3360    2.4210    1.0050 N   0  0  0  0  0  0  0  0  0  0  0  0
   -1.6880    1.4410   -0.0050 C   0  0  0  0  0  0  0  0  0  0  0  0
   -1.7710    0.0910    0.6100 C   0  0  0  0  0  0  0  0  0  0  0  0
   -1.6010    0.0510    1.8880 O   0  0  0  0  0  0  0  0  0  0  0  0
   -2.0160   -1.1130   -0.0880 N   0  0  0  0  0  0  0  0  0  0  0  0
   -2.8520   -2.3260   -0.0790 C   0  0  0  0  0  0  0  0  0  0  0  0
   -2.6200   -2.4460   -1.5720 C   0  0  0  0  0  0  0  0  0  0  0  0
   -1.3900   -1.6130   -1.2390 C   0  0  0  0  0  0  0  0  0  0  0  0
   -0.1880   -1.3680   -1.7050 C   0  0  0  0  0  0  0  0  0  0  0  0
    0.7580   -0.5330   -1.1420 O   0  0  0  0  0  0  0  0  0  0  0  0
    1.0010   -0.3600    0.1890 N   0  0  0  0  0  0  0  0  0  0  0  0
    1.9340    0.7440    0.3080 C   0  0  2  0  0  0  0  0  0  0  0  0
    1.4840    1.9390   -0.4330 C   0  0  0  0  0  0  0  0  0  0  0  0
    1.5910    1.9420   -1.7060 O   0  0  0  0  0  0  0  0  0  0  0  0
    0.9340    3.1090    0.1520 N   0  0  0  0  0  0  0  0  0  0  0  0
    3.2450    0.3010   -0.2670 C   0  0  0  0  0  0  0  0  0  0  0  0
    3.9280    0.9830   -1.1130 O   0  0  0  0  0  0  0  0  0  0  0  0
    3.6170   -0.9580    0.2470 N   0  0  0  0  0  0  0  0  0  0  0  0
    2.0650   -1.7150    0.7140 P   0  0  0  0  0  0  0  0  0  0  0  0
    2.0340   -1.8840    2.4290 O   0  0  0  0  0  0  0  0  0  0  0  0
  1  2  2  0
  2  3  1  0
  2 17  1  0
  3  4  1  0
  4  5  1  0
  5  6  2  0
  5  7  1  0
  7  8  1  0
  7 10  1  0
  8  9  1  0
  9 10  1  0
 10 11  2  0
 11 12  1  0
 12 13  1  0
 13 14  1  0
 13 21  1  0
 14 15  1  6
 14 18  1  0
 15 16  2  0
 15 17  1  0
 18 19  2  0
 18 20  1  0
 20 21  1  0
 21 22  1  0
M  END
