
     RDKit          3D

 23 24  0  0  0  0  0  0  0  0999 V2000
    2.5410   -3.4770    1.1910 O   0  0  0  0  0  0  0  0  0  0  0  0
    1.9210   -2.3730    1.2420 C   0  0  0  0  0  0  0  0  0  0  0  0
    2.7690   -1.1410    1.0770 C   0  0  0  0  0  0  0  0  0  0  0  0
    2.7200   -0.4610   -0.6410 P   0  0  0  0  0  0  0  0  0  0  0  0
    4.2980   -0.6420   -1.3410 O   0  0  0  0  0  0  0  0  0  0  0  0
    2.0680    1.2370   -0.7690 C   0  0  1  0  0  0  0  0  0  0  0  0
    1.1950    1.2430   -1.8940 O   0  0  0  0  0  0  0  0  0  0  0  0
    1.3500    1.7880    0.2860 N   0  0  0  0  0  0  0  0  0  0  0  0
    0.1020    2.0010    0.5350 C   0  0  0  0  0  0  0  0  0  0  0  0
   -0.1200    2.6070    1.7870 O   0  0  0  0  0  0  0  0  0  0  0  0
    0.6730    3.5210    2.3280 O   0  0  0  0  0  0  0  0  0  0  0  0
   -0.8040    1.6250   -0.4090 N   0  0  0  0  0  0  0  0  0  0  0  0
   -1.6500    0.7700   -0.7320 C   0  0  0  0  0  0  0  0  0  0  0  0
   -2.3140    1.0090   -1.9970 N   0  0  0  0  0  0  0  0  0  0  0  0
   -3.3070    0.1490   -2.5280 C   0  0  0  0  0  0  0  0  0  0  0  0
   -3.8770    0.3760   -3.6360 O   0  0  0  0  0  0  0  0  0  0  0  0
   -3.7030   -1.0170   -1.8210 N   0  0  0  0  0  0  0  0  0  0  0  0
   -3.0510   -1.2590   -0.5740 C   0  0  0  0  0  0  0  0  0  0  0  0
   -3.3940   -2.3070    0.0790 O   0  0  0  0  0  0  0  0  0  0  0  0
   -2.0570   -0.3910   -0.0490 N   0  0  0  0  0  0  0  0  0  0  0  0
   -1.5070   -0.8320    1.2520 C   0  0  0  0  0  0  0  0  0  0  0  0
   -0.0510   -1.0040    1.2020 C   0  0  0  0  0  0  0  0  0  0  0  0
    0.5060   -2.3140    1.4440 N   0  0  0  0  0  0  0  0  0  0  0  0
  1  2  2  0
  2  3  1  0
  2 23  1  0
  3  4  1  0
  4  5  1  0
  4  6  1  0
  6  7  1  6
  6  8  1  0
  8  9  2  0
  9 10  1  0
  9 12  1  0
 10 11  1  0
 12 13  2  0
 13 14  1  0
 13 20  1  0
 14 15  1  0
 15 16  2  0
 15 17  1  0
 17 18  1  0
 18 19  2  0
 18 20  1  0
 20 21  1  0
 21 22  1  0
 22 23  1  0
M  END
