
     RDKit          3D

 23 24  0  0  0  0  0  0  0  0999 V2000
   -2.5100    2.0230    2.5560 O   0  0  0  0  0  0  0  0  0  0  0  0
   -2.1060    1.5660    1.3830 C   0  0  0  0  0  0  0  0  0  0  0  0
   -0.6380    1.5020    1.3830 C   0  0  0  0  0  0  0  0  0  0  0  0
   -0.1470    0.1000    1.3600 C   0  0  0  0  0  0  0  0  0  0  0  0
    0.8770   -0.1360    0.4480 N   0  0  0  0  0  0  0  0  0  0  0  0
    1.7230   -0.2710   -0.1410 C   0  0  0  0  0  0  0  0  0  0  0  0
    2.8530   -0.4850   -1.0190 N   0  0  0  0  0  0  0  0  0  0  0  0
    4.0190   -0.0020   -0.1280 C   0  0  0  0  0  0  0  0  0  0  0  0
    3.6290    0.4010    0.9880 O   0  0  0  0  0  0  0  0  0  0  0  0
    5.3140   -0.0320   -0.5560 N   0  0  0  0  0  0  0  0  0  0  0  0
    6.6370    0.5820    0.5270 P   0  0  0  0  0  0  0  0  0  0  0  0
    7.2200    2.1160    0.0730 O   0  0  0  0  0  0  0  0  0  0  0  0
    0.6870   -0.6470   -1.5480 N   0  0  0  0  0  0  0  0  0  0  0  0
   -0.6370   -0.7270   -1.3520 C   0  0  0  0  0  0  0  0  0  0  0  0
   -1.3070   -1.9890   -0.9330 C   0  0  0  0  0  0  0  0  0  0  0  0
   -2.7710   -1.8970   -1.0120 C   0  0  0  0  0  0  0  0  0  0  0  0
   -3.6320   -1.0130   -0.6510 C   0  0  0  0  0  0  0  0  0  0  0  0
   -5.0760   -1.2590   -0.8950 O   0  0  0  0  0  0  0  0  0  0  0  0
   -5.5780   -0.0520   -1.2280 O   0  0  0  0  0  0  0  0  0  0  0  0
   -4.6010    0.8050   -1.1780 O   0  0  0  0  0  0  0  0  0  0  0  0
   -3.8540    0.2470   -0.0560 C   0  0  1  0  0  0  0  0  0  0  0  0
   -5.0340    0.0430    0.8090 O   0  0  0  0  0  0  0  0  0  0  0  0
   -3.1100    1.2730    0.4630 N   0  0  0  0  0  0  0  0  0  0  0  0
  1  2  2  0
  2  3  1  0
  2 23  1  0
  3  4  1  0
  4  5  1  0
  5  6  2  0
  6  7  1  0
  6 13  1  0
  7  8  1  0
  8  9  2  0
  8 10  1  0
 10 11  1  0
 11 12  1  0
 13 14  1  0
 14 15  1  0
 15 16  1  0
 16 17  2  0
 17 18  1  0
 17 21  1  0
 18 19  1  0
 19 20  1  0
 20 21  1  0
 21 22  1  1
 21 23  1  0
M  END
