
     RDKit          3D

 46 49  0  0  0  0  0  0  0  0999 V2000
   -4.7520   -1.6700   -4.6020 C   0  0  0  0  0  0  0  0  0  0  0  0
   -3.7730   -2.7580   -4.2180 C   0  0  0  0  0  0  0  0  0  0  0  0
   -2.6730   -2.0960   -3.3800 C   0  0  0  0  0  0  0  0  0  0  0  0
   -3.2140   -1.4970   -2.1990 N   0  0  0  0  0  0  0  0  0  0  0  0
   -2.2430   -0.8380   -1.3620 C   0  0  1  0  0  0  0  0  0  0  0  0
   -1.6040    0.3260   -2.1180 C   0  0  0  0  0  0  0  0  0  0  0  0
   -0.5910    0.9960   -1.3350 N   0  0  0  0  0  0  0  0  0  0  0  0
    0.0990    2.1240   -1.8520 C   0  0  0  0  0  0  0  0  0  0  0  0
   -0.2230    2.5050   -3.0060 O   0  0  0  0  0  0  0  0  0  0  0  0
    1.1620    2.8330   -1.0660 C   0  0  1  0  0  0  0  0  0  0  0  0
    0.4930    4.1110   -0.5430 C   0  0  0  0  0  0  0  0  0  0  0  0
    1.3370    4.6850    0.4040 O   0  0  0  0  0  0  0  0  0  0  0  0
    1.2350    3.9460    1.5770 C   0  0  1  0  0  0  0  0  0  0  0  0
    0.1900    4.6050    2.4480 C   0  0  0  0  0  0  0  0  0  0  0  0
    0.5700    6.0270    2.7910 C   0  0  0  0  0  0  0  0  0  0  0  0
    0.7300    6.9080    1.5750 C   0  0  0  0  0  0  0  0  0  0  0  0
    0.9300    2.4830    1.3440 C   0  0  0  0  0  0  0  0  0  0  0  0
    1.5340    2.0980    0.1040 N   0  0  0  0  0  0  0  0  0  0  0  0
    2.4690    1.0060    0.1020 C   0  0  0  0  0  0  0  0  0  0  0  0
    2.7390    0.4200    1.1530 O   0  0  0  0  0  0  0  0  0  0  0  0
    3.0950    0.5830   -1.1000 N   0  0  0  0  0  0  0  0  0  0  0  0
    4.0270   -0.4660   -1.2500 C   0  0  0  0  0  0  0  0  0  0  0  0
    4.4630   -0.6880   -2.5620 C   0  0  0  0  0  0  0  0  0  0  0  0
    5.3670   -1.6590   -2.8940 C   0  0  0  0  0  0  0  0  0  0  0  0
    5.8900   -2.4770   -1.8870 C   0  0  0  0  0  0  0  0  0  0  0  0
    6.8730   -3.5320   -2.2560 C   0  0  0  0  0  0  0  0  0  0  0  0
    5.4670   -2.2640   -0.5960 C   0  0  0  0  0  0  0  0  0  0  0  0
    6.0080   -3.1060    0.4600 C   0  0  0  0  0  0  0  0  0  0  0  0
    6.8530   -3.9850    0.2260 O   0  0  0  0  0  0  0  0  0  0  0  0
    5.6040   -2.9680    1.7850 O   0  0  0  0  0  0  0  0  0  0  0  0
    6.1370   -3.7940    2.8140 C   0  0  0  0  0  0  0  0  0  0  0  0
    5.5440   -3.4550    4.1510 C   0  0  0  0  0  0  0  0  0  0  0  0
    4.5380   -1.2610   -0.2820 C   0  0  0  0  0  0  0  0  0  0  0  0
   -2.9990   -0.3520   -0.1860 C   0  0  0  0  0  0  0  0  0  0  0  0
   -3.0830    1.0310    0.0340 C   0  0  0  0  0  0  0  0  0  0  0  0
   -3.8080    1.5450    1.0890 C   0  0  0  0  0  0  0  0  0  0  0  0
   -3.8470    3.0290    1.2500 C   0  0  0  0  0  0  0  0  0  0  0  0
   -4.4660    0.7000    1.9500 C   0  0  0  0  0  0  0  0  0  0  0  0
   -5.2340    1.2800    3.0700 C   0  0  0  0  0  0  0  0  0  0  0  0
   -4.3810   -0.6560    1.7310 C   0  0  0  0  0  0  0  0  0  0  0  0
   -3.6450   -1.2030    0.6580 C   0  0  0  0  0  0  0  0  0  0  0  0
   -3.6160   -2.6800    0.5990 C   0  0  0  0  0  0  0  0  0  0  0  0
   -4.4420   -3.4190    1.3050 C   0  0  0  0  0  0  0  0  0  0  0  0
   -4.2020   -4.8470    1.0690 C   0  0  0  0  0  0  0  0  0  0  0  0
   -3.0880   -4.8420    0.1230 C   0  0  0  0  0  0  0  0  0  0  0  0
   -2.7630   -3.5660   -0.1390 C   0  0  0  0  0  0  0  0  0  0  0  0
  1  2  1  0
  2  3  1  0
  3  4  1  0
  4  5  1  0
  5  6  1  6
  5 34  1  0
  6  7  1  0
  7  8  1  0
  8  9  2  0
 10  8  1  6
 10 11  1  0
 10 18  1  0
 11 12  1  0
 12 13  1  0
 13 14  1  1
 13 17  1  0
 14 15  1  0
 15 16  1  0
 17 18  1  0
 18 19  1  0
 19 20  2  0
 19 21  1  0
 21 22  1  0
 22 23  2  0
 22 33  1  0
 23 24  1  0
 24 25  2  0
 25 26  1  0
 25 27  1  0
 27 28  1  0
 27 33  2  0
 28 29  2  0
 28 30  1  0
 30 31  1  0
 31 32  1  0
 34 35  2  0
 34 41  1  0
 35 36  1  0
 36 37  1  0
 36 38  2  0
 38 39  1  0
 38 40  1  0
 40 41  2  0
 41 42  1  0
 42 43  2  0
 42 46  1  0
 43 44  1  0
 44 45  1  0
 45 46  2  0
M  END
