
     RDKit          3D

 38 41  0  0  0  0  0  0  0  0999 V2000
    8.2420    1.5320   -1.1980 C   0  0  0  0  0  0  0  0  0  0  0  0
    6.7480    1.6450   -1.0280 C   0  0  0  0  0  0  0  0  0  0  0  0
    6.3210    1.0980    0.2840 C   0  0  1  0  0  0  0  0  0  0  0  0
    4.8860    1.1970    0.5260 N   0  0  0  0  0  0  0  0  0  0  0  0
    4.3800    1.8350    1.6800 C   0  0  0  0  0  0  0  0  0  0  0  0
    5.1730    2.3500    2.5420 O   0  0  0  0  0  0  0  0  0  0  0  0
    2.9310    1.9450    1.9550 C   0  0  0  0  0  0  0  0  0  0  0  0
    2.1180    1.2690    1.0300 O   0  0  0  0  0  0  0  0  0  0  0  0
    2.2230   -0.1020    0.9200 C   0  0  0  0  0  0  0  0  0  0  0  0
    3.0420   -0.7000    1.6590 O   0  0  0  0  0  0  0  0  0  0  0  0
    1.4130   -0.9060   -0.0290 C   0  0  2  0  0  0  0  0  0  0  0  0
    1.5630   -0.4700   -1.4420 C   0  0  0  0  0  0  0  0  0  0  0  0
    0.8690    0.8350   -1.7620 C   0  0  0  0  0  0  0  0  0  0  0  0
   -0.4720    0.9330   -1.0690 C   0  0  0  0  0  0  0  0  0  0  0  0
   -0.8830   -0.4860   -0.7430 C   0  0  2  0  0  0  0  0  0  0  0  0
   -2.3420   -0.6090   -0.5370 C   0  0  0  0  0  0  0  0  0  0  0  0
   -2.9400   -1.4140   -1.2780 O   0  0  0  0  0  0  0  0  0  0  0  0
   -3.1520    0.1210    0.4460 C   0  0  2  0  0  0  0  0  0  0  0  0
   -2.8230   -0.3750    1.8370 C   0  0  0  0  0  0  0  0  0  0  0  0
   -4.5670   -0.2710    0.2370 N   0  0  0  0  0  0  0  0  0  0  0  0
   -5.5590    0.6720    0.0760 C   0  0  0  0  0  0  0  0  0  0  0  0
   -5.1130    1.9070    0.1310 O   0  0  0  0  0  0  0  0  0  0  0  0
   -6.9790    0.5380   -0.1380 C   0  0  0  0  0  0  0  0  0  0  0  0
   -7.9510    1.9860   -0.2690 S   0  0  0  0  0  0  0  0  0  0  0  0
   -9.5960    1.6800   -0.5180 C   0  0  0  0  0  0  0  0  0  0  0  0
  -10.4430    2.6300   -0.6340 O   0  0  0  0  0  0  0  0  0  0  0  0
   -9.9850    0.4020   -0.5890 N   0  0  0  0  0  0  0  0  0  0  0  0
   -9.1640   -0.6510   -0.4770 C   0  0  0  0  0  0  0  0  0  0  0  0
   -9.5410   -1.9810   -0.5560 C   0  0  0  0  0  0  0  0  0  0  0  0
   -8.4540   -2.7580   -0.4070 C   0  0  0  0  0  0  0  0  0  0  0  0
   -7.3390   -1.9310   -0.2260 C   0  0  0  0  0  0  0  0  0  0  0  0
   -7.7230   -0.6020   -0.2610 C   0  0  0  0  0  0  0  0  0  0  0  0
   -0.0310   -0.9850    0.3820 C   0  0  0  0  0  0  0  0  0  0  0  0
    6.6990   -0.3330    0.4950 C   0  0  0  0  0  0  0  0  0  0  0  0
    7.3850   -1.1950   -0.3240 C   0  0  0  0  0  0  0  0  0  0  0  0
    7.4430   -2.3960    0.3920 C   0  0  0  0  0  0  0  0  0  0  0  0
    6.7910   -2.1670    1.5810 C   0  0  0  0  0  0  0  0  0  0  0  0
    6.3570   -0.9370    1.6220 O   0  0  0  0  0  0  0  0  0  0  0  0
  1  2  1  0
  3  2  1  6
  3  4  1  0
  3 34  1  0
  4  5  1  0
  5  6  2  0
  5  7  1  0
  7  8  1  0
  8  9  1  0
  9 10  2  0
 11  9  1  1
 11 12  1  0
 11 33  1  0
 12 13  1  0
 13 14  1  0
 14 15  1  0
 15 16  1  1
 15 33  1  0
 16 17  2  0
 16 18  1  0
 18 19  1  1
 18 20  1  0
 20 21  1  0
 21 22  2  0
 21 23  1  0
 23 24  1  0
 23 32  2  0
 24 25  1  0
 25 26  2  0
 25 27  1  0
 27 28  1  0
 28 29  2  0
 28 32  1  0
 29 30  1  0
 30 31  2  0
 31 32  1  0
 34 35  2  0
 34 38  1  0
 35 36  1  0
 36 37  2  0
 37 38  1  0
M  END
