
     RDKit          3D

 38 41  0  0  0  0  0  0  0  0999 V2000
   -3.1680   -3.7690    0.7980 C   0  0  0  0  0  0  0  0  0  0  0  0
   -3.6700   -2.6000   -0.0750 C   0  0  2  0  0  0  0  0  0  0  0  0
   -5.0120   -2.2270    0.5410 C   0  0  0  0  0  0  0  0  0  0  0  0
   -3.8030   -3.0280   -1.4920 C   0  0  0  0  0  0  0  0  0  0  0  0
   -4.0090   -1.8050   -2.3770 C   0  0  0  0  0  0  0  0  0  0  0  0
   -2.6680   -1.1250   -2.3720 C   0  0  0  0  0  0  0  0  0  0  0  0
   -2.2870   -0.5700   -3.3500 O   0  0  0  0  0  0  0  0  0  0  0  0
   -1.8450   -1.1730   -1.1100 C   0  0  1  0  0  0  0  0  0  0  0  0
   -1.1560   -0.0100   -0.9630 O   0  0  0  0  0  0  0  0  0  0  0  0
   -0.3330    0.5220   -0.0240 C   0  0  0  0  0  0  0  0  0  0  0  0
   -0.7720    1.6050    0.5880 C   0  0  0  0  0  0  0  0  0  0  0  0
   -2.0660    2.1680    0.2390 C   0  0  0  0  0  0  0  0  0  0  0  0
   -2.8230    1.7030   -0.6410 O   0  0  0  0  0  0  0  0  0  0  0  0
   -2.5330    3.3300    0.9320 N   0  0  0  0  0  0  0  0  0  0  0  0
   -3.8250    3.9000    0.5930 C   0  0  1  0  0  0  0  0  0  0  0  0
   -4.6240    4.1670    1.8250 C   0  0  0  0  0  0  0  0  0  0  0  0
   -3.8150    5.2710    2.4860 C   0  0  0  0  0  0  0  0  0  0  0  0
   -3.1150    5.9970    1.3380 C   0  0  0  0  0  0  0  0  0  0  0  0
   -3.5850    5.3160    0.0730 C   0  0  0  0  0  0  0  0  0  0  0  0
    0.9820   -0.0050    0.3540 C   0  0  0  0  0  0  0  0  0  0  0  0
    1.4650   -1.0740   -0.2650 C   0  0  0  0  0  0  0  0  0  0  0  0
    2.7640   -1.6640    0.0530 C   0  0  0  0  0  0  0  0  0  0  0  0
    3.3630   -2.4480   -0.7930 C   0  0  0  0  0  0  0  0  0  0  0  0
    4.6230   -3.0140   -0.4710 N   0  0  0  0  0  0  0  0  0  0  0  0
    5.8140   -2.2270   -0.6210 C   0  0  0  0  0  0  0  0  0  0  0  0
    6.8780   -2.7580   -0.0380 C   0  0  0  0  0  0  0  0  0  0  0  0
    8.2460   -2.1890   -0.0150 C   0  0  0  0  0  0  0  0  0  0  0  0
    8.6700   -2.0430   -1.3330 O   0  0  0  0  0  0  0  0  0  0  0  0
    8.3660   -0.4080   -1.7510 S   0  0  0  0  0  0  0  0  0  0  0  0
    8.8070    0.4730   -0.5660 O   0  0  0  0  0  0  0  0  0  0  0  0
    6.5900   -0.2160   -1.8660 C   0  0  0  0  0  0  0  0  0  0  0  0
    6.1990    0.9180   -2.5660 O   0  0  0  0  0  0  0  0  0  0  0  0
    5.6350   -0.9980   -1.3810 C   0  0  0  0  0  0  0  0  0  0  0  0
    3.4000   -1.3580    1.3520 C   0  0  0  0  0  0  0  0  0  0  0  0
    3.0460    0.0470    1.7330 C   0  0  0  0  0  0  0  0  0  0  0  0
    3.8650    0.7310    2.3560 O   0  0  0  0  0  0  0  0  0  0  0  0
    1.7790    0.5780    1.3770 N   0  0  0  0  0  0  0  0  0  0  0  0
   -2.7030   -1.4820    0.0830 C   0  0  0  0  0  0  0  0  0  0  0  0
  2  1  1  1
  2  3  1  0
  2  4  1  0
  2 38  1  0
  4  5  1  0
  5  6  1  0
  6  7  2  0
  6  8  1  0
  8  9  1  1
  8 38  1  0
  9 10  1  0
 10 11  2  3
 10 20  1  0
 11 12  1  0
 12 13  2  0
 12 14  1  0
 15 14  1  1
 15 16  1  0
 15 19  1  0
 16 17  1  0
 17 18  1  0
 18 19  1  0
 20 21  2  0
 20 37  1  0
 21 22  1  0
 22 23  2  3
 22 34  1  0
 23 24  1  0
 24 25  1  0
 25 26  2  0
 25 33  1  0
 26 27  1  0
 27 28  1  0
 29 28  1  1
 29 30  2  0
 29 31  1  0
 31 32  1  0
 31 33  2  0
 34 35  1  0
 35 36  2  0
 35 37  1  0
M  END
