
     RDKit          3D

 34 37  0  0  0  0  0  0  0  0999 V2000
    6.5330   -0.5480    0.1860 C   0  0  0  0  0  0  0  0  0  0  0  0
    5.4260   -0.0050   -0.6400 C   0  0  0  0  0  0  0  0  0  0  0  0
    4.1190    0.2150   -0.2080 C   0  0  0  0  0  0  0  0  0  0  0  0
    3.6550   -0.0620    1.1500 C   0  0  0  0  0  0  0  0  0  0  0  0
    4.3920    0.3480    2.2390 C   0  0  0  0  0  0  0  0  0  0  0  0
    3.9230    0.0670    3.5030 C   0  0  0  0  0  0  0  0  0  0  0  0
    4.8550    0.5850    4.9160 Cl  0  0  0  0  0  0  0  0  0  0  0  0
    2.7400   -0.6110    3.6810 C   0  0  0  0  0  0  0  0  0  0  0  0
    2.2350   -0.9130    4.8880 F   0  0  0  0  0  0  0  0  0  0  0  0
    2.0110   -1.0160    2.5560 C   0  0  0  0  0  0  0  0  0  0  0  0
    2.4390   -0.7570    1.2770 C   0  0  0  0  0  0  0  0  0  0  0  0
    1.8140   -1.1050    0.1240 O   0  0  0  0  0  0  0  0  0  0  0  0
    0.6220   -1.7620   -0.0450 C   0  0  0  0  0  0  0  0  0  0  0  0
   -0.6220   -1.0820    0.4420 C   0  0  0  0  0  0  0  0  0  0  0  0
   -0.7750    0.1850   -0.2630 N   0  0  2  0  0  0  0  0  0  0  0  0
   -0.8200    1.3090    0.6180 C   0  0  0  0  0  0  0  0  0  0  0  0
   -1.7160    2.3270   -0.0440 C   0  0  0  0  0  0  0  0  0  0  0  0
   -2.0550    1.7030   -1.3950 C   0  0  0  0  0  0  0  0  0  0  0  0
   -2.0020    0.2080   -1.0380 C   0  0  2  0  0  0  0  0  0  0  0  0
   -3.1920   -0.0180   -0.1840 C   0  0  0  0  0  0  0  0  0  0  0  0
   -2.9900   -0.1850    1.0580 O   0  0  0  0  0  0  0  0  0  0  0  0
   -4.5090   -0.0580   -0.6540 N   0  0  0  0  0  0  0  0  0  0  0  0
   -5.6200   -0.2930    0.3040 C   0  0  0  0  0  0  0  0  0  0  0  0
   -5.3830   -0.5280    1.9850 S   0  0  0  0  0  0  0  0  0  0  0  0
   -7.1360   -0.7330    2.4110 C   0  0  0  0  0  0  0  0  0  0  0  0
   -7.7260   -0.5950    1.1860 C   0  0  0  0  0  0  0  0  0  0  0  0
   -6.9320   -0.3700    0.1160 C   0  0  0  0  0  0  0  0  0  0  0  0
   -7.5410   -0.2100   -1.2400 C   0  0  0  0  0  0  0  0  0  0  0  0
   -8.7860   -0.2810   -1.4290 O   0  0  0  0  0  0  0  0  0  0  0  0
   -6.7810    0.0230   -2.3610 O   0  0  0  0  0  0  0  0  0  0  0  0
    3.4300    0.7180   -1.2850 C   0  0  0  0  0  0  0  0  0  0  0  0
    4.2850    0.7970   -2.3190 N   0  0  0  0  0  0  0  0  0  0  0  0
    5.4770    0.3640   -1.9320 N   0  0  0  0  0  0  0  0  0  0  0  0
    6.6940    0.2830   -2.7510 C   0  0  0  0  0  0  0  0  0  0  0  0
  1  2  1  0
  2  3  2  0
  2 33  1  0
  3  4  1  0
  3 31  1  0
  4  5  2  0
  4 11  1  0
  5  6  1  0
  6  7  1  0
  6  8  2  0
  8  9  1  0
  8 10  1  0
 10 11  2  0
 11 12  1  0
 12 13  1  0
 13 14  1  0
 15 14  1  1
 15 16  1  0
 15 19  1  0
 16 17  1  0
 17 18  1  0
 18 19  1  0
 19 20  1  1
 20 21  2  0
 20 22  1  0
 22 23  1  0
 23 24  1  0
 23 27  2  0
 24 25  1  0
 25 26  2  0
 26 27  1  0
 27 28  1  0
 28 29  2  0
 28 30  1  0
 31 32  2  0
 32 33  1  0
 33 34  1  0
M  CHG  1  15   1
M  END
