
     RDKit          3D

 30 31  0  0  0  0  0  0  0  0999 V2000
   -3.3980   -2.0900   -0.6980 C   0  0  0  0  0  0  0  0  0  0  0  0
   -3.7700   -1.2650    0.5040 C   0  0  0  0  0  0  0  0  0  0  0  0
   -3.4960    0.1840    0.3460 C   0  0  0  0  0  0  0  0  0  0  0  0
   -2.3700    0.9330    0.4030 C   0  0  0  0  0  0  0  0  0  0  0  0
   -0.9990    0.4950    0.6660 C   0  0  0  0  0  0  0  0  0  0  0  0
   -0.1060    1.4170    0.6640 O   0  0  0  0  0  0  0  0  0  0  0  0
   -0.5480   -0.7950    0.9170 N   0  0  0  0  0  0  0  0  0  0  0  0
    0.7830   -1.1910    1.1680 C   0  0  0  0  0  0  0  0  0  0  0  0
    1.8660   -0.3570    1.2050 C   0  0  0  0  0  0  0  0  0  0  0  0
    3.1730   -0.7720    1.4550 C   0  0  0  0  0  0  0  0  0  0  0  0
    4.5120    0.3570    1.4860 S   0  0  1  0  0  0  0  0  0  0  0  0
    4.0420    1.6370    2.0750 O   0  0  0  0  0  0  0  0  0  0  0  0
    5.5610   -0.2560    2.4000 O   0  0  0  0  0  0  0  0  0  0  0  0
    5.2090    0.5260   -0.0590 N   0  0  0  0  0  0  0  0  0  0  0  0
    4.3560    1.0310   -1.0630 C   0  0  0  0  0  0  0  0  0  0  0  0
    4.4200    2.5310   -1.1340 C   0  0  0  0  0  0  0  0  0  0  0  0
    6.1190   -0.4840   -0.4350 C   0  0  0  0  0  0  0  0  0  0  0  0
    5.5440   -1.6610   -1.1400 C   0  0  0  0  0  0  0  0  0  0  0  0
    3.3880   -2.1140    1.6810 C   0  0  0  0  0  0  0  0  0  0  0  0
    2.3280   -2.9950    1.6540 C   0  0  0  0  0  0  0  0  0  0  0  0
    1.0500   -2.5460    1.4040 C   0  0  0  0  0  0  0  0  0  0  0  0
    0.0570   -3.4750    1.3940 O   0  0  0  0  0  0  0  0  0  0  0  0
   -2.7120    2.2310    0.1690 N   0  0  0  0  0  0  0  0  0  0  0  0
   -4.0200    2.3640   -0.0390 C   0  0  0  0  0  0  0  0  0  0  0  0
   -4.7780    3.6270   -0.3290 C   0  0  0  0  0  0  0  0  0  0  0  0
   -4.5380    1.0960    0.0650 C   0  0  0  0  0  0  0  0  0  0  0  0
   -5.9390    0.7590   -0.0920 C   0  0  0  0  0  0  0  0  0  0  0  0
   -6.6800    0.7690    0.9150 O   0  0  0  0  0  0  0  0  0  0  0  0
   -6.4850    0.4080   -1.4260 C   0  0  0  0  0  0  0  0  0  0  0  0
   -5.5040    0.4570   -2.4070 O   0  0  0  0  0  0  0  0  0  0  0  0
  1  2  1  0
  2  3  1  0
  3  4  2  0
  3 26  1  0
  4  5  1  0
  4 23  1  0
  5  6  2  0
  5  7  1  0
  7  8  1  0
  8  9  2  0
  8 21  1  0
  9 10  1  0
 10 11  1  0
 10 19  2  0
 11 12  2  0
 11 13  2  0
 11 14  1  6
 14 15  1  0
 14 17  1  0
 15 16  1  0
 17 18  1  0
 19 20  1  0
 20 21  2  0
 21 22  1  0
 23 24  1  0
 24 25  1  0
 24 26  2  0
 26 27  1  0
 27 28  2  0
 27 29  1  0
 29 30  1  0
M  END
