
     RDKit          3D

 33 37  0  0  0  0  0  0  0  0999 V2000
   -4.9810   -1.3800   -0.2120 O   0  0  0  0  0  0  0  0  0  0  0  0
   -3.7590   -1.1090   -0.1990 C   0  0  0  0  0  0  0  0  0  0  0  0
   -3.4420    0.3050   -0.1430 N   0  0  0  0  0  0  0  0  0  0  0  0
   -2.0830    0.6840   -0.1660 C   0  0  0  0  0  0  0  0  0  0  0  0
   -1.1100   -0.2320   -0.2700 C   0  0  0  0  0  0  0  0  0  0  0  0
   -1.3290   -1.6600   -0.3810 C   0  0  0  0  0  0  0  0  0  0  0  0
   -2.7410   -2.0650   -0.2460 N   0  0  0  0  0  0  0  0  0  0  0  0
   -2.9480   -3.4560   -0.2340 C   0  0  0  0  0  0  0  0  0  0  0  0
   -1.9000   -4.1920   -0.5570 O   0  0  0  0  0  0  0  0  0  0  0  0
   -4.1150   -4.2240    0.0790 C   0  0  0  0  0  0  0  0  0  0  0  0
   -5.2660   -3.9490    0.7670 C   0  0  0  0  0  0  0  0  0  0  0  0
   -6.1190   -5.0590    0.7050 C   0  0  0  0  0  0  0  0  0  0  0  0
   -5.5090   -5.9550    0.0180 O   0  0  0  0  0  0  0  0  0  0  0  0
   -4.3390   -5.5460   -0.3810 C   0  0  0  0  0  0  0  0  0  0  0  0
    0.2140    0.4870   -0.2650 C   0  0  2  0  0  0  0  0  0  0  0  0
    1.2430   -0.2400    0.4420 N   0  0  0  0  0  0  0  0  0  0  0  0
    2.4610    0.5370    0.3530 C   0  0  2  0  0  0  0  0  0  0  0  0
    2.7550    1.0280   -1.0350 C   0  0  0  0  0  0  0  0  0  0  0  0
    4.1840    1.5860   -1.0160 C   0  0  0  0  0  0  0  0  0  0  0  0
    5.1770    0.4320   -0.8420 C   0  0  0  0  0  0  0  0  0  0  0  0
    4.4840   -0.6280   -0.2090 N   0  0  0  0  0  0  0  0  0  0  0  0
    5.1010   -1.8990   -0.1790 C   0  0  0  0  0  0  0  0  0  0  0  0
    6.3330   -1.9860    0.6770 C   0  0  0  0  0  0  0  0  0  0  0  0
    6.9220   -3.6600    0.5560 Cl  0  0  0  0  0  0  0  0  0  0  0  0
    3.6130   -0.2940    0.8630 C   0  0  0  0  0  0  0  0  0  0  0  0
   -0.1240    1.7490    0.4990 C   0  0  0  0  0  0  0  0  0  0  0  0
   -1.4910    2.0480   -0.0250 C   0  0  2  0  0  0  0  0  0  0  0  0
   -2.3610    3.0580    1.1590 S   0  0  0  0  0  0  0  0  0  0  0  0
   -2.7600    4.6420    0.4650 C   0  0  0  0  0  0  0  0  0  0  0  0
   -3.8410    4.9530   -0.3040 C   0  0  0  0  0  0  0  0  0  0  0  0
   -3.6900    6.3180   -0.5900 C   0  0  0  0  0  0  0  0  0  0  0  0
   -2.5340    6.7340    0.0260 C   0  0  0  0  0  0  0  0  0  0  0  0
   -2.0020    5.7200    0.6430 O   0  0  0  0  0  0  0  0  0  0  0  0
  1  2  2  0
  2  3  1  0
  2  7  1  0
  3  4  1  0
  4  5  2  0
  4 27  1  0
  5  6  1  0
  5 15  1  0
  6  7  1  0
  7  8  1  0
  8  9  2  0
  8 10  1  0
 10 11  1  0
 10 14  2  0
 11 12  2  0
 12 13  1  0
 13 14  1  0
 15 16  1  1
 15 26  1  0
 17 16  1  6
 17 18  1  0
 17 25  1  0
 18 19  1  0
 19 20  1  0
 20 21  1  0
 21 22  1  0
 21 25  1  0
 22 23  1  0
 23 24  1  0
 26 27  1  0
 27 28  1  1
 28 29  1  0
 29 30  2  0
 29 33  1  0
 30 31  1  0
 31 32  2  0
 32 33  1  0
M  CHG  1  16   1
M  END
