
     RDKit          3D

 35 36  0  0  0  0  0  0  0  0999 V2000
   -6.9070    2.0660    2.5810 C   0  0  0  0  0  0  0  0  0  0  0  0
   -5.9110    1.7880    1.4910 C   0  0  0  0  0  0  0  0  0  0  0  0
   -6.5320    1.0000    0.3850 N   0  0  1  0  0  0  0  0  0  0  0  0
   -7.3630    1.8560   -0.3980 C   0  0  0  0  0  0  0  0  0  0  0  0
   -6.9520    3.3260   -0.2490 C   0  0  0  0  0  0  0  0  0  0  0  0
   -5.4440    0.3830   -0.3520 C   0  0  0  0  0  0  0  0  0  0  0  0
   -5.7530   -0.8540   -1.0470 C   0  0  0  0  0  0  0  0  0  0  0  0
   -4.7330   -1.5540   -1.6700 C   0  0  0  0  0  0  0  0  0  0  0  0
   -3.3020   -1.2960   -1.5580 C   0  0  0  0  0  0  0  0  0  0  0  0
   -2.4320   -2.4080   -1.6710 C   0  0  0  0  0  0  0  0  0  0  0  0
   -1.0670   -2.2920   -1.6490 C   0  0  0  0  0  0  0  0  0  0  0  0
   -0.4340   -1.0790   -1.5120 C   0  0  0  0  0  0  0  0  0  0  0  0
    1.0250   -0.9510   -1.4840 C   0  0  0  0  0  0  0  0  0  0  0  0
    1.5960   -1.0080   -0.1270 C   0  0  0  0  0  0  0  0  0  0  0  0
    0.9640   -1.1460    0.9270 O   0  0  0  0  0  0  0  0  0  0  0  0
    3.0340   -0.8880   -0.0320 N   0  0  0  0  0  0  0  0  0  0  0  0
    3.7010   -0.9270    1.2350 C   0  0  0  0  0  0  0  0  0  0  0  0
    5.2310   -0.7870    1.0620 C   0  0  1  0  0  0  0  0  0  0  0  0
    5.6080   -1.9770    0.2110 C   0  0  0  0  0  0  0  0  0  0  0  0
    5.2230   -3.2230    0.9100 N   0  0  0  0  0  0  0  0  0  0  0  0
    5.5450    0.5430    0.5260 C   0  0  0  0  0  0  0  0  0  0  0  0
    6.8930    1.0170    0.2740 C   0  0  2  0  0  0  0  0  0  0  0  0
    7.7910    0.3130   -0.6840 C   0  0  0  0  0  0  0  0  0  0  0  0
    7.2960    0.2270   -1.9840 O   0  0  0  0  0  0  0  0  0  0  0  0
    7.7310    1.2700    1.5190 C   0  0  0  0  0  0  0  0  0  0  0  0
    7.1350    2.3000    2.4310 C   0  0  0  0  0  0  0  0  0  0  0  0
    6.9890    3.5940    1.7620 N   0  0  0  0  0  0  0  0  0  0  0  0
   -1.2560    0.0090   -1.4010 C   0  0  0  0  0  0  0  0  0  0  0  0
   -2.6660   -0.1040   -1.4250 C   0  0  0  0  0  0  0  0  0  0  0  0
   -5.1010   -2.6950   -2.3570 N   0  0  0  0  0  0  0  0  0  0  0  0
   -6.3420   -3.1430   -2.4450 C   0  0  0  0  0  0  0  0  0  0  0  0
   -6.5600   -4.2070   -3.1060 O   0  0  0  0  0  0  0  0  0  0  0  0
   -7.3320   -2.4800   -1.8500 N   0  0  0  0  0  0  0  0  0  0  0  0
   -7.0240   -1.3370   -1.1540 C   0  0  0  0  0  0  0  0  0  0  0  0
   -8.0070   -0.7840   -0.6330 O   0  0  0  0  0  0  0  0  0  0  0  0
  1  2  1  0
  3  2  1  1
  3  4  1  0
  3  6  1  0
  4  5  1  0
  6  7  1  0
  7  8  2  0
  7 34  1  0
  8  9  1  0
  8 30  1  0
  9 10  2  0
  9 29  1  0
 10 11  1  0
 11 12  2  0
 12 13  1  0
 12 28  1  0
 13 14  1  0
 14 15  2  0
 14 16  1  0
 16 17  1  0
 18 17  1  6
 18 19  1  0
 18 21  1  0
 19 20  1  0
 22 21  1  1
 22 23  1  0
 22 25  1  0
 23 24  1  0
 25 26  1  0
 26 27  1  0
 28 29  2  0
 30 31  1  0
 31 32  2  0
 31 33  1  0
 33 34  1  0
 34 35  2  0
M  CHG  2   3   1  20   1
M  END
