
     RDKit          3D

 35 36  0  0  0  0  0  0  0  0999 V2000
   -4.5030    3.3730    0.0600 C   0  0  0  0  0  0  0  0  0  0  0  0
   -5.8980    3.1620   -0.3430 C   0  0  0  0  0  0  0  0  0  0  0  0
   -6.6520    4.3120   -0.2610 C   0  0  0  0  0  0  0  0  0  0  0  0
   -8.0000    4.2650   -0.6130 N   0  0  0  0  0  0  0  0  0  0  0  0
   -6.5100    1.9800   -0.7850 C   0  0  0  0  0  0  0  0  0  0  0  0
   -6.2200    0.7310   -1.0070 C   0  0  0  0  0  0  0  0  0  0  0  0
   -7.2700   -0.1900   -1.5020 N   0  0  0  0  0  0  0  0  0  0  0  0
   -6.6650   -1.4450   -1.6340 C   0  0  0  0  0  0  0  0  0  0  0  0
   -7.2890   -2.4800   -2.0430 O   0  0  0  0  0  0  0  0  0  0  0  0
   -5.2950   -1.3340   -1.2430 C   0  0  0  0  0  0  0  0  0  0  0  0
   -5.0420   -0.0950   -0.8860 C   0  0  0  0  0  0  0  0  0  0  0  0
   -3.7230    0.3500   -0.4110 C   0  0  0  0  0  0  0  0  0  0  0  0
   -2.7120   -0.6980   -0.3440 N   0  0  1  0  0  0  0  0  0  0  0  0
   -3.0470   -1.7690    0.5500 C   0  0  0  0  0  0  0  0  0  0  0  0
   -2.1220   -1.0910   -1.5650 C   0  0  1  0  0  0  0  0  0  0  0  0
   -2.7940   -0.6930   -2.8320 C   0  0  0  0  0  0  0  0  0  0  0  0
   -0.6660   -0.6440   -1.6930 C   0  0  0  0  0  0  0  0  0  0  0  0
    0.2500   -1.1880   -0.6510 C   0  0  0  0  0  0  0  0  0  0  0  0
    0.3310   -2.6870   -0.7030 C   0  0  0  0  0  0  0  0  0  0  0  0
    1.2310   -3.2240    0.3160 N   0  0  0  0  0  0  0  0  0  0  0  0
    2.6090   -2.8850    0.3690 C   0  0  0  0  0  0  0  0  0  0  0  0
    3.1200   -2.1100   -0.4530 O   0  0  0  0  0  0  0  0  0  0  0  0
    3.4350   -3.4850    1.4370 C   0  0  0  0  0  0  0  0  0  0  0  0
    4.8700   -3.1000    1.4090 C   0  0  0  0  0  0  0  0  0  0  0  0
    5.0170   -1.6800    1.5520 N   0  0  0  0  0  0  0  0  0  0  0  0
    6.3550   -1.1290    1.5500 C   0  0  0  0  0  0  0  0  0  0  0  0
    7.2700   -1.9510    1.4210 O   0  0  0  0  0  0  0  0  0  0  0  0
    6.5830    0.2440    1.6860 N   0  0  0  0  0  0  0  0  0  0  0  0
    7.8440    0.8940    1.6990 C   0  0  0  0  0  0  0  0  0  0  0  0
    9.0250    0.2210    1.5630 C   0  0  0  0  0  0  0  0  0  0  0  0
   10.2820    0.8610    1.5760 C   0  0  0  0  0  0  0  0  0  0  0  0
   10.2730    2.2190    1.7330 C   0  0  0  0  0  0  0  0  0  0  0  0
    9.0890    2.9080    1.8700 C   0  0  0  0  0  0  0  0  0  0  0  0
    7.8670    2.2790    1.8570 C   0  0  0  0  0  0  0  0  0  0  0  0
    6.6660    2.9980    1.9980 O   0  0  0  0  0  0  0  0  0  0  0  0
  1  2  1  0
  2  3  2  3
  2  5  1  0
  3  4  1  0
  5  6  2  3
  6  7  1  0
  6 11  1  0
  7  8  1  0
  8  9  2  0
  8 10  1  0
 10 11  2  0
 11 12  1  0
 12 13  1  0
 13 14  1  6
 13 15  1  0
 15 16  1  6
 15 17  1  0
 17 18  1  0
 18 19  1  0
 19 20  1  0
 20 21  1  0
 21 22  2  0
 21 23  1  0
 23 24  1  0
 24 25  1  0
 25 26  1  0
 26 27  2  0
 26 28  1  0
 28 29  1  0
 29 30  2  0
 29 34  1  0
 30 31  1  0
 31 32  2  0
 32 33  1  0
 33 34  2  0
 34 35  1  0
M  CHG  2   4   1  13   1
M  END
