
     RDKit          3D

 35 36  0  0  0  0  0  0  0  0999 V2000
   12.5050    0.7230   -0.6890 C   0  0  0  0  0  0  0  0  0  0  0  0
   11.1170    0.3460   -0.3250 C   0  0  0  0  0  0  0  0  0  0  0  0
   10.0440    0.0560   -0.0410 C   0  0  0  0  0  0  0  0  0  0  0  0
    8.7050   -0.2890    0.3250 C   0  0  0  0  0  0  0  0  0  0  0  0
    8.4980   -1.5340    0.8360 C   0  0  0  0  0  0  0  0  0  0  0  0
    7.1790   -1.9330    1.2280 C   0  0  0  0  0  0  0  0  0  0  0  0
    6.1790   -1.0560    1.0610 C   0  0  0  0  0  0  0  0  0  0  0  0
    4.7490   -1.5270    1.2580 C   0  0  0  0  0  0  0  0  0  0  0  0
    4.4830   -2.7050    1.4610 O   0  0  0  0  0  0  0  0  0  0  0  0
    3.8540   -0.5610    1.1390 N   0  0  0  0  0  0  0  0  0  0  0  0
    2.5280   -0.3750    1.0310 O   0  0  0  0  0  0  0  0  0  0  0  0
    2.7620   -0.2180   -0.4940 C   0  0  0  0  0  0  0  0  0  0  0  0
    1.9360    0.9040   -0.8810 C   0  0  0  0  0  0  0  0  0  0  0  0
    0.5770    0.7700   -0.7700 N   0  0  0  0  0  0  0  0  0  0  0  0
   -0.1090    0.4440    0.4280 C   0  0  0  0  0  0  0  0  0  0  0  0
    0.3700    0.2200    1.5150 O   0  0  0  0  0  0  0  0  0  0  0  0
   -1.5880    0.4140    0.2300 C   0  0  0  0  0  0  0  0  0  0  0  0
   -2.3680    1.4090    0.3990 O   0  0  0  0  0  0  0  0  0  0  0  0
   -3.6130    0.9870    0.0660 C   0  0  0  0  0  0  0  0  0  0  0  0
   -4.7060    2.0040    0.2620 C   0  0  0  0  0  0  0  0  0  0  0  0
   -4.9040    1.9280    1.8290 C   0  0  2  0  0  0  0  0  0  0  0  0
   -5.2800    0.5680    2.2620 C   0  0  0  0  0  0  0  0  0  0  0  0
   -5.6090    3.0250    2.3670 N   0  0  0  0  0  0  0  0  0  0  0  0
   -3.5540   -0.2640   -0.3060 C   0  0  0  0  0  0  0  0  0  0  0  0
   -4.5700   -0.9880   -1.0860 C   0  0  0  0  0  0  0  0  0  0  0  0
   -4.5090   -2.2110   -1.2380 O   0  0  0  0  0  0  0  0  0  0  0  0
   -5.6710   -0.2280   -1.7210 C   0  0  0  0  0  0  0  0  0  0  0  0
   -7.0340   -0.7700   -1.5580 C   0  0  1  0  0  0  0  0  0  0  0  0
   -7.4040   -0.9850   -0.1590 N   0  0  0  0  0  0  0  0  0  0  0  0
   -7.9340    0.4250   -1.8730 N   0  0  0  0  0  0  0  0  0  0  0  0
   -2.2430   -0.7240   -0.1990 C   0  0  0  0  0  0  0  0  0  0  0  0
   -1.7340   -2.0860   -0.2840 C   0  0  0  0  0  0  0  0  0  0  0  0
   -0.7290   -2.5280   -1.2600 C   0  0  0  0  0  0  0  0  0  0  0  0
    6.4070    0.1890    0.5440 C   0  0  0  0  0  0  0  0  0  0  0  0
    7.6860    0.5790    0.1670 C   0  0  0  0  0  0  0  0  0  0  0  0
  1  2  1  0
  2  3  3  0
  3  4  1  0
  4  5  2  0
  4 35  1  0
  5  6  1  0
  6  7  2  0
  7  8  1  0
  7 34  1  0
  8  9  2  0
  8 10  1  0
 10 11  1  0
 11 12  1  0
 12 13  1  0
 13 14  1  0
 14 15  1  0
 15 16  2  0
 15 17  1  0
 17 18  1  0
 17 31  2  0
 18 19  1  0
 19 20  1  0
 19 24  2  0
 20 21  1  0
 21 22  1  6
 21 23  1  0
 24 25  1  0
 24 31  1  0
 25 26  2  0
 25 27  1  0
 27 28  1  0
 28 29  1  1
 28 30  1  0
 31 32  1  0
 32 33  1  0
 34 35  2  0
M  CHG  2  23   1  30   1
M  END
