
     RDKit          3D

 35 36  0  0  0  0  0  0  0  0999 V2000
   -7.9310   -1.3900   -1.7500 C   0  0  0  0  0  0  0  0  0  0  0  0
   -6.6540   -0.5990   -1.7480 C   0  0  0  0  0  0  0  0  0  0  0  0
   -5.8540   -0.7360   -0.4850 C   0  0  2  0  0  0  0  0  0  0  0  0
   -5.5340   -2.2330   -0.3650 C   0  0  0  0  0  0  0  0  0  0  0  0
   -6.5010   -0.2060    0.7090 C   0  0  0  0  0  0  0  0  0  0  0  0
   -6.0440    0.8210    1.2720 O   0  0  0  0  0  0  0  0  0  0  0  0
   -7.6360   -0.8060    1.2910 N   0  0  0  0  0  0  0  0  0  0  0  0
   -8.2740   -0.2940    2.4850 C   0  0  0  0  0  0  0  0  0  0  0  0
   -8.8230    1.0910    2.1790 C   0  0  0  0  0  0  0  0  0  0  0  0
   -9.7390    0.9310    1.1420 O   0  0  0  0  0  0  0  0  0  0  0  0
   -4.5580   -0.1080   -0.7380 N   0  0  1  0  0  0  0  0  0  0  0  0
   -4.5650    1.2370   -1.1220 C   0  0  0  0  0  0  0  0  0  0  0  0
   -3.1010    1.6420   -0.8920 C   0  0  0  0  0  0  0  0  0  0  0  0
   -2.8400    0.9530    0.4560 C   0  0  2  0  0  0  0  0  0  0  0  0
   -1.4320    0.5750    0.6050 C   0  0  0  0  0  0  0  0  0  0  0  0
   -0.7530    0.2310   -0.3870 O   0  0  0  0  0  0  0  0  0  0  0  0
   -0.8100    0.5910    1.8880 N   0  0  0  0  0  0  0  0  0  0  0  0
    0.5830    0.1940    1.9860 C   0  0  0  0  0  0  0  0  0  0  0  0
    1.4590    1.0600    1.1650 C   0  0  0  0  0  0  0  0  0  0  0  0
    2.9000    0.6630    1.1280 C   0  0  0  0  0  0  0  0  0  0  0  0
    3.4090   -0.0230    2.0430 O   0  0  0  0  0  0  0  0  0  0  0  0
    3.7180    1.0460    0.0480 N   0  0  0  0  0  0  0  0  0  0  0  0
    5.0610    0.7670   -0.1860 C   0  0  0  0  0  0  0  0  0  0  0  0
    5.9420    0.1980    0.6880 C   0  0  0  0  0  0  0  0  0  0  0  0
    7.2810   -0.0530    0.3090 C   0  0  0  0  0  0  0  0  0  0  0  0
    7.7970    0.2360   -0.9160 C   0  0  0  0  0  0  0  0  0  0  0  0
    9.1150    0.0330   -1.3750 C   0  0  0  0  0  0  0  0  0  0  0  0
   10.1630   -0.5470   -0.8440 C   0  0  0  0  0  0  0  0  0  0  0  0
   10.3340   -1.1670    0.3500 C   0  0  0  0  0  0  0  0  0  0  0  0
   11.7200   -1.6590    0.7110 C   0  0  0  0  0  0  0  0  0  0  0  0
   12.4850   -1.3090   -0.3670 N   0  0  0  0  0  0  0  0  0  0  0  0
    6.8720    0.8230   -1.8100 C   0  0  0  0  0  0  0  0  0  0  0  0
    7.3000    1.1630   -3.1010 N   0  0  0  0  0  0  0  0  0  0  0  0
    5.5910    1.0660   -1.4500 C   0  0  0  0  0  0  0  0  0  0  0  0
   -3.6500   -0.3400    0.3380 C   0  0  0  0  0  0  0  0  0  0  0  0
  1  2  1  0
  2  3  1  0
  3  4  1  1
  3  5  1  0
  3 11  1  0
  5  6  2  0
  5  7  1  0
  7  8  1  0
  8  9  1  0
  9 10  1  0
 11 12  1  1
 11 35  1  0
 12 13  1  0
 13 14  1  0
 14 15  1  6
 14 35  1  0
 15 16  2  0
 15 17  1  0
 17 18  1  0
 18 19  1  0
 19 20  1  0
 20 21  2  0
 20 22  1  0
 22 23  1  0
 23 24  2  0
 23 34  1  0
 24 25  1  0
 25 26  2  0
 26 27  1  0
 26 32  1  0
 27 28  2  3
 28 29  1  0
 29 30  2  3
 30 31  1  0
 32 33  1  0
 32 34  2  0
M  CHG  2  11   1  31   1
M  END
