
     RDKit          3D

 35 36  0  0  0  0  0  0  0  0999 V2000
   -7.7940   -0.8020   -1.5780 C   0  0  0  0  0  0  0  0  0  0  0  0
   -7.8930   -0.7830   -0.2140 O   0  0  0  0  0  0  0  0  0  0  0  0
   -6.7100   -0.4210    0.4360 C   0  0  0  0  0  0  0  0  0  0  0  0
   -5.5550   -1.3280    0.1620 C   0  0  0  0  0  0  0  0  0  0  0  0
   -4.3060   -1.0640    0.7590 N   0  0  0  0  0  0  0  0  0  0  0  0
   -4.0060   -1.1500    2.1500 C   0  0  0  0  0  0  0  0  0  0  0  0
   -4.4780   -0.0440    2.9810 C   0  0  0  0  0  0  0  0  0  0  0  0
   -5.1370    1.1340    2.5690 N   0  0  0  0  0  0  0  0  0  0  0  0
   -4.2710   -0.1330    4.2420 O   0  0  0  0  0  0  0  0  0  0  0  0
   -3.2200   -0.6140   -0.0820 C   0  0  0  0  0  0  0  0  0  0  0  0
   -3.5360    0.2720   -1.0830 C   0  0  0  0  0  0  0  0  0  0  0  0
   -2.5470    0.7220   -1.9080 C   0  0  0  0  0  0  0  0  0  0  0  0
   -1.2380    0.2540   -1.6980 C   0  0  0  0  0  0  0  0  0  0  0  0
   -0.2360    0.7370   -2.6570 C   0  0  0  0  0  0  0  0  0  0  0  0
   -0.9340   -0.6220   -0.7050 C   0  0  0  0  0  0  0  0  0  0  0  0
    0.4460   -1.0710   -0.4180 C   0  0  0  0  0  0  0  0  0  0  0  0
    1.1840   -0.2340    0.5550 C   0  0  1  0  0  0  0  0  0  0  0  0
    2.5230   -0.5850    0.8570 N   0  0  0  0  0  0  0  0  0  0  0  0
    2.7580   -1.9670    1.1660 C   0  0  0  0  0  0  0  0  0  0  0  0
    4.1920   -2.1370    1.6040 C   0  0  2  0  0  0  0  0  0  0  0  0
    4.4600   -1.3580    2.7550 O   0  0  0  0  0  0  0  0  0  0  0  0
    5.2110   -1.7720    0.5860 C   0  0  1  0  0  0  0  0  0  0  0  0
    6.6320   -1.9720    1.0890 C   0  0  0  0  0  0  0  0  0  0  0  0
    5.0070   -2.4940   -0.7260 C   0  0  0  0  0  0  0  0  0  0  0  0
    5.0740   -3.9320   -0.5960 N   0  0  0  0  0  0  0  0  0  0  0  0
    1.0840    1.2040    0.2450 C   0  0  0  0  0  0  0  0  0  0  0  0
   -0.0160    1.9450    0.6950 C   0  0  0  0  0  0  0  0  0  0  0  0
   -0.1230    3.2830    0.4280 C   0  0  0  0  0  0  0  0  0  0  0  0
    0.8120    3.9850   -0.2820 C   0  0  0  0  0  0  0  0  0  0  0  0
    0.6810    5.3720   -0.5470 N   0  0  0  0  0  0  0  0  0  0  0  0
    1.9310    3.2670   -0.7490 C   0  0  0  0  0  0  0  0  0  0  0  0
    2.8300    3.9100   -1.4290 O   0  0  0  0  0  0  0  0  0  0  0  0
    3.7660    4.4850   -2.1120 C   0  0  0  0  0  0  0  0  0  0  0  0
    2.0270    1.8870   -0.4640 C   0  0  0  0  0  0  0  0  0  0  0  0
   -1.9690   -1.0460    0.1010 N   0  0  0  0  0  0  0  0  0  0  0  0
  1  2  1  0
  2  3  1  0
  3  4  1  0
  4  5  1  0
  5  6  1  0
  5 10  1  0
  6  7  1  0
  7  8  1  0
  7  9  2  0
 10 11  2  0
 10 35  1  0
 11 12  1  0
 12 13  2  0
 13 14  1  0
 13 15  1  0
 15 16  1  0
 15 35  2  0
 17 16  1  6
 17 18  1  0
 17 26  1  0
 18 19  1  0
 19 20  1  0
 20 21  1  1
 20 22  1  0
 22 23  1  1
 22 24  1  0
 24 25  1  0
 26 27  2  0
 26 34  1  0
 27 28  1  0
 28 29  2  0
 29 30  1  0
 29 31  1  0
 31 32  1  0
 31 34  2  0
 32 33  1  0
M  CHG  2  18   1  25   1
M  END
