
     RDKit          3D

 35 36  0  0  0  0  0  0  0  0999 V2000
   -5.8200   -3.8520   -1.9710 C   0  0  0  0  0  0  0  0  0  0  0  0
   -4.3480   -3.5140   -2.2230 C   0  0  0  0  0  0  0  0  0  0  0  0
   -4.0590   -2.2780   -1.5970 N   0  0  0  0  0  0  0  0  0  0  0  0
   -2.6730   -1.9140   -1.5120 C   0  0  0  0  0  0  0  0  0  0  0  0
   -2.3770   -0.4590   -1.3940 C   0  0  2  0  0  0  0  0  0  0  0  0
   -2.9780   -0.0140   -2.6670 O   0  0  0  0  0  0  0  0  0  0  0  0
   -1.0060   -0.1000   -1.6180 C   0  0  0  0  0  0  0  0  0  0  0  0
    0.1580   -0.1760   -0.8300 N   0  0  0  0  0  0  0  0  0  0  0  0
    0.8570   -1.3750   -0.9100 C   0  0  0  0  0  0  0  0  0  0  0  0
    0.2200   -2.2850   -1.6500 O   0  0  0  0  0  0  0  0  0  0  0  0
    2.0870   -1.9020   -0.4080 C   0  0  0  0  0  0  0  0  0  0  0  0
    3.0730   -1.2010    0.3080 N   0  0  0  0  0  0  0  0  0  0  0  0
    4.0090   -0.3500   -0.3980 C   0  0  0  0  0  0  0  0  0  0  0  0
    3.9230   -0.2100   -1.7700 C   0  0  0  0  0  0  0  0  0  0  0  0
    4.8380    0.6260   -2.4200 C   0  0  0  0  0  0  0  0  0  0  0  0
    5.7860    1.2770   -1.6860 C   0  0  0  0  0  0  0  0  0  0  0  0
    6.7120    2.1260   -2.3590 N   0  0  0  0  0  0  0  0  0  0  0  0
    5.8370    1.1090   -0.3160 C   0  0  0  0  0  0  0  0  0  0  0  0
    4.9540    0.2940    0.3600 C   0  0  0  0  0  0  0  0  0  0  0  0
    5.0130    0.1120    1.8100 C   0  0  2  0  0  0  0  0  0  0  0  0
    6.0900    1.0640    2.3510 C   0  0  0  0  0  0  0  0  0  0  0  0
    5.4460   -1.2150    2.2020 N   0  0  0  0  0  0  0  0  0  0  0  0
    0.7220    0.7940    0.0440 C   0  0  2  0  0  0  0  0  0  0  0  0
   -0.0140    1.5440    1.0170 C   0  0  0  0  0  0  0  0  0  0  0  0
    0.4410    3.0190    0.9240 C   0  0  0  0  0  0  0  0  0  0  0  0
    0.5960    3.1110   -0.5920 C   0  0  0  0  0  0  0  0  0  0  0  0
    1.3400    1.8430   -0.8620 C   0  0  0  0  0  0  0  0  0  0  0  0
   -3.1720    0.2690   -0.4340 C   0  0  0  0  0  0  0  0  0  0  0  0
   -3.8670    1.2490   -0.8030 O   0  0  0  0  0  0  0  0  0  0  0  0
   -3.2360   -0.0600    0.9560 N   0  0  0  0  0  0  0  0  0  0  0  0
   -4.0480    0.6630    1.9050 C   0  0  2  0  0  0  0  0  0  0  0  0
   -3.7180    2.1150    2.0250 C   0  0  0  0  0  0  0  0  0  0  0  0
   -3.8000   -0.0040    3.2650 C   0  0  0  0  0  0  0  0  0  0  0  0
   -5.5330    0.4650    1.6090 C   0  0  0  0  0  0  0  0  0  0  0  0
   -5.8710   -0.8700    1.6820 O   0  0  0  0  0  0  0  0  0  0  0  0
  1  2  1  0
  2  3  1  0
  3  4  1  0
  4  5  1  0
  5  6  1  6
  5  7  1  0
  5 28  1  0
  7  8  1  0
  8  9  1  0
 23  8  1  6
  9 10  2  0
  9 11  1  0
 11 12  1  0
 12 13  1  0
 13 14  2  0
 13 19  1  0
 14 15  1  0
 15 16  2  0
 16 17  1  0
 16 18  1  0
 18 19  2  0
 19 20  1  0
 20 21  1  1
 20 22  1  0
 23 24  1  0
 23 27  1  0
 24 25  1  0
 25 26  1  0
 26 27  1  0
 28 29  2  0
 28 30  1  0
 30 31  1  0
 31 32  1  1
 31 33  1  0
 31 34  1  0
 34 35  1  0
M  CHG  2   3   1  22   1
M  END
