
     RDKit          3D

 12 12  0  0  0  0  0  0  0  0999 V2000
    3.1690   -0.3160   -0.9740 O   0  0  0  0  0  0  0  0  0  0  0  0
    2.1380   -1.2190   -0.9080 C   0  0  0  0  0  0  0  0  0  0  0  0
    1.2140   -1.0760    0.2470 C   0  0  0  0  0  0  0  0  0  0  0  0
    0.4870    0.2230    0.3610 C   0  0  2  0  0  0  0  0  0  0  0  0
    1.4120    1.4130    0.4930 C   0  0  0  0  0  0  0  0  0  0  0  0
    0.5420    2.5300    0.5920 O   0  0  0  0  0  0  0  0  0  0  0  0
   -0.3630    0.2090    1.6050 C   0  0  0  0  0  0  0  0  0  0  0  0
   -1.6140   -0.4850    1.4420 N   0  0  0  0  0  0  0  0  0  0  0  0
   -2.3690   -0.0950    0.2930 C   0  0  0  0  0  0  0  0  0  0  0  0
   -1.5430   -0.4250   -0.9480 C   0  0  1  0  0  0  0  0  0  0  0  0
   -2.2560   -0.1220   -2.0890 O   0  0  0  0  0  0  0  0  0  0  0  0
   -0.3270    0.4390   -0.8920 C   0  0  0  0  0  0  0  0  0  0  0  0
  1  2  1  0
  2  3  1  0
  4  3  1  6
  4  5  1  0
  4  7  1  0
  4 12  1  0
  5  6  1  0
  7  8  1  0
  8  9  1  0
  9 10  1  0
 10 11  1  6
 10 12  1  0
M  CHG  1   8   1
M  END
