
     RDKit          3D

 12 12  0  0  0  0  0  0  0  0999 V2000
    1.1510    2.1300    0.4960 C   0  0  0  0  0  0  0  0  0  0  0  0
    0.2330    0.9760    0.4220 C   0  0  1  0  0  0  0  0  0  0  0  0
   -0.9810    1.2770   -0.2410 O   0  0  0  0  0  0  0  0  0  0  0  0
   -1.6400    0.0710   -0.2750 C   0  0  1  0  0  0  0  0  0  0  0  0
   -2.5010   -0.0320    0.9560 C   0  0  0  0  0  0  0  0  0  0  0  0
   -2.5540   -0.0680   -1.4760 C   0  0  0  0  0  0  0  0  0  0  0  0
   -0.6150   -1.0260   -0.3750 C   0  0  2  0  0  0  0  0  0  0  0  0
   -0.5770   -1.8130    0.7850 O   0  0  0  0  0  0  0  0  0  0  0  0
    0.6890   -0.2050   -0.3680 C   0  0  1  0  0  0  0  0  0  0  0  0
    1.0200    0.0510   -1.6770 O   0  0  0  0  0  0  0  0  0  0  0  0
    1.7600   -1.0270    0.2890 C   0  0  0  0  0  0  0  0  0  0  0  0
    3.0420   -0.3530    0.2780 N   0  0  0  0  0  0  0  0  0  0  0  0
  2  1  1  6
  2  3  1  0
  2  9  1  0
  3  4  1  0
  4  5  1  1
  4  6  1  0
  4  7  1  0
  7  8  1  1
  7  9  1  0
  9 10  1  6
  9 11  1  0
 11 12  1  0
M  CHG  1  12   1
M  END
