
     RDKit          3D

 24 25  0  0  0  0  0  0  0  0999 V2000
   -2.7110    0.1110    1.9690 C   0  0  0  0  0  0  0  0  0  0  0  0
   -3.1360    0.4900    0.5500 C   0  0  1  0  0  0  0  0  0  0  0  0
   -1.9220    0.6850   -0.2710 C   0  0  0  0  0  0  0  0  0  0  0  0
   -1.0100   -0.3980   -0.4060 N   0  0  0  0  0  0  0  0  0  0  0  0
   -1.1790   -1.6420   -1.0220 C   0  0  0  0  0  0  0  0  0  0  0  0
   -2.2980   -1.9000   -1.5700 O   0  0  0  0  0  0  0  0  0  0  0  0
   -0.1070   -2.6950   -1.0690 C   0  0  0  0  0  0  0  0  0  0  0  0
    1.1340   -2.2890   -0.4960 N   0  0  0  0  0  0  0  0  0  0  0  0
    1.8860   -1.2160   -1.0850 C   0  0  0  0  0  0  0  0  0  0  0  0
    1.3570   -0.7090   -2.1240 O   0  0  0  0  0  0  0  0  0  0  0  0
    3.1110   -0.7910   -0.5230 N   0  0  0  0  0  0  0  0  0  0  0  0
    3.5800   -1.3280    0.7190 C   0  0  0  0  0  0  0  0  0  0  0  0
    4.3980   -0.2750    1.4800 C   0  0  0  0  0  0  0  0  0  0  0  0
    3.7400    1.0610    1.4420 C   0  0  0  0  0  0  0  0  0  0  0  0
    4.2900    2.0030    0.4030 C   0  0  0  0  0  0  0  0  0  0  0  0
    4.3170    1.3680   -0.9210 C   0  0  0  0  0  0  0  0  0  0  0  0
    3.8120    0.1800   -1.2980 C   0  0  0  0  0  0  0  0  0  0  0  0
    4.0170   -0.0940   -2.7080 C   0  0  0  0  0  0  0  0  0  0  0  0
    3.7130   -1.1610   -3.2770 N   0  0  0  0  0  0  0  0  0  0  0  0
   -4.1710   -0.4490    0.0500 C   0  0  0  0  0  0  0  0  0  0  0  0
   -5.5180   -0.0480    0.7190 C   0  0  0  0  0  0  0  0  0  0  0  0
   -6.0050    1.0540    0.0260 O   0  0  0  0  0  0  0  0  0  0  0  0
   -4.9960    1.9940   -0.2020 C   0  0  0  0  0  0  0  0  0  0  0  0
   -3.8560    1.8450    0.7490 C   0  0  0  0  0  0  0  0  0  0  0  0
  2  1  1  1
  2  3  1  0
  2 20  1  0
  2 24  1  0
  3  4  1  0
  4  5  1  0
  5  6  2  0
  5  7  1  0
  7  8  1  0
  8  9  1  0
  9 10  2  0
  9 11  1  0
 11 12  1  0
 11 17  1  0
 12 13  1  0
 13 14  1  0
 14 15  1  0
 15 16  1  0
 16 17  2  0
 17 18  1  0
 18 19  2  0
 20 21  1  0
 21 22  1  0
 22 23  1  0
 23 24  1  0
M  END
