
     RDKit          3D

 12 12  0  0  0  0  0  0  0  0999 V2000
    2.1070    1.8420   -0.3620 O   0  0  0  0  0  0  0  0  0  0  0  0
    2.8420    0.6780   -0.1460 C   0  0  0  0  0  0  0  0  0  0  0  0
    2.2600   -0.4890   -0.8670 C   0  0  0  0  0  0  0  0  0  0  0  0
    0.8670   -0.8500   -0.4980 C   0  0  1  0  0  0  0  0  0  0  0  0
    0.7090   -1.2060    0.9740 C   0  0  0  0  0  0  0  0  0  0  0  0
   -0.6740   -1.7090    1.0630 N   0  0  0  0  0  0  0  0  0  0  0  0
   -1.5210   -0.5610    1.0480 C   0  0  0  0  0  0  0  0  0  0  0  0
   -1.2370    0.4470   -0.0020 C   0  0  2  0  0  0  0  0  0  0  0  0
   -0.8510    1.6820    0.5340 O   0  0  0  0  0  0  0  0  0  0  0  0
   -2.5740    0.7310   -0.7090 C   0  0  0  0  0  0  0  0  0  0  0  0
   -3.4550    1.2020    0.2770 O   0  0  0  0  0  0  0  0  0  0  0  0
   -0.2040    0.0460   -1.0130 C   0  0  0  0  0  0  0  0  0  0  0  0
  1  2  1  0
  2  3  1  0
  4  3  1  1
  4  5  1  0
  4 12  1  0
  5  6  1  0
  6  7  1  0
  7  8  1  0
  8  9  1  1
  8 10  1  0
  8 12  1  0
 10 11  1  0
M  CHG  1   6   1
M  END
