
     RDKit          3D

 24 24  0  0  0  0  0  0  0  0999 V2000
   -7.8320   -2.6640   -0.1810 C   0  0  0  0  0  0  0  0  0  0  0  0
   -7.5290   -1.4300   -0.5590 C   0  0  0  0  0  0  0  0  0  0  0  0
   -8.1320   -0.2850    0.1410 C   0  0  0  0  0  0  0  0  0  0  0  0
   -7.3690    0.9640    0.0190 C   0  0  0  0  0  0  0  0  0  0  0  0
   -6.2370    1.0270   -0.6280 C   0  0  0  0  0  0  0  0  0  0  0  0
   -5.6560   -0.1360   -1.2730 C   0  0  0  0  0  0  0  0  0  0  0  0
   -4.3710   -0.2420   -1.4980 C   0  0  0  0  0  0  0  0  0  0  0  0
   -3.3540    0.7310   -1.1590 C   0  0  0  0  0  0  0  0  0  0  0  0
   -2.0680    0.5440   -1.4430 C   0  0  0  0  0  0  0  0  0  0  0  0
   -1.1470    1.5490   -1.0710 N   0  0  0  0  0  0  0  0  0  0  0  0
   -0.0390    1.1300   -0.2430 C   0  0  0  0  0  0  0  0  0  0  0  0
    0.0520   -0.0610    0.0910 O   0  0  0  0  0  0  0  0  0  0  0  0
    0.9450    2.0440    0.1930 N   0  0  0  0  0  0  0  0  0  0  0  0
    2.0470    1.6460    0.9820 N   0  0  0  0  0  0  0  0  0  0  0  0
    3.2140    1.1020    0.4060 C   0  0  0  0  0  0  0  0  0  0  0  0
    3.2090    0.9980   -0.8600 O   0  0  0  0  0  0  0  0  0  0  0  0
    4.4090    0.6580    1.1690 C   0  0  0  0  0  0  0  0  0  0  0  0
    5.4610    0.1220    0.2050 C   0  0  0  0  0  0  0  0  0  0  0  0
    6.6410   -0.3060    0.9910 C   0  0  0  0  0  0  0  0  0  0  0  0
    6.6180   -0.2740    2.2400 O   0  0  0  0  0  0  0  0  0  0  0  0
    7.7880   -0.7510    0.3130 N   0  0  0  0  0  0  0  0  0  0  0  0
    8.9420   -1.2020    1.0530 C   0  0  0  0  0  0  0  0  0  0  0  0
    7.8100   -0.7330   -1.1560 C   0  0  0  0  0  0  0  0  0  0  0  0
   -6.5870   -1.2400   -1.6850 C   0  0  0  0  0  0  0  0  0  0  0  0
  1  2  2  0
  2  3  1  0
  2 24  1  0
  3  4  1  0
  4  5  2  0
  5  6  1  0
  6  7  2  3
  6 24  1  0
  7  8  1  0
  8  9  2  3
  9 10  1  0
 10 11  1  0
 11 12  2  0
 11 13  1  0
 13 14  1  0
 14 15  1  0
 15 16  2  0
 15 17  1  0
 17 18  1  0
 18 19  1  0
 19 20  2  0
 19 21  1  0
 21 22  1  0
 21 23  1  0
M  END
