
     RDKit          3D

 24 25  0  0  0  0  0  0  0  0999 V2000
   -5.6760   -2.2110    1.8290 C   0  0  0  0  0  0  0  0  0  0  0  0
   -6.0240   -1.0180    1.4270 C   0  0  0  0  0  0  0  0  0  0  0  0
   -5.0360   -0.1050    0.6980 C   0  0  0  0  0  0  0  0  0  0  0  0
   -5.5400    1.0280    0.3780 C   0  0  0  0  0  0  0  0  0  0  0  0
   -5.0220    2.2050   -0.3070 C   0  0  0  0  0  0  0  0  0  0  0  0
   -3.7540   -0.7150    0.5340 C   0  0  0  0  0  0  0  0  0  0  0  0
   -2.6260   -0.0960   -0.1030 C   0  0  0  0  0  0  0  0  0  0  0  0
   -2.5540    0.9730   -0.5960 O   0  0  0  0  0  0  0  0  0  0  0  0
   -1.3390   -0.9120   -0.1600 C   0  0  0  0  0  0  0  0  0  0  0  0
   -0.2740   -0.1640   -0.7890 N   0  0  0  0  0  0  0  0  0  0  0  0
    0.1710    0.9430   -0.0120 C   0  0  0  0  0  0  0  0  0  0  0  0
    1.6190    1.3100   -0.2110 C   0  0  0  0  0  0  0  0  0  0  0  0
    2.4590    0.1240    0.0270 N   0  0  0  0  0  0  0  0  0  0  0  0
    3.8580    0.2250    0.1660 C   0  0  0  0  0  0  0  0  0  0  0  0
    4.7310    0.1340   -0.9030 C   0  0  0  0  0  0  0  0  0  0  0  0
    4.2170   -0.0840   -2.2760 C   0  0  0  0  0  0  0  0  0  0  0  0
    6.0610    0.2420   -0.7030 N   0  0  0  0  0  0  0  0  0  0  0  0
    6.5870    0.4410    0.5350 C   0  0  0  0  0  0  0  0  0  0  0  0
    7.8080    0.5470    0.7660 O   0  0  0  0  0  0  0  0  0  0  0  0
    5.7350    0.5300    1.5830 N   0  0  0  0  0  0  0  0  0  0  0  0
    4.4090    0.4260    1.4110 C   0  0  0  0  0  0  0  0  0  0  0  0
    3.6650    0.5150    2.4120 O   0  0  0  0  0  0  0  0  0  0  0  0
    1.7180   -1.1300    0.1010 C   0  0  0  0  0  0  0  0  0  0  0  0
    0.7760   -1.1210   -1.0900 C   0  0  0  0  0  0  0  0  0  0  0  0
  1  2  2  0
  2  3  1  0
  3  4  2  3
  3  6  1  0
  4  5  1  0
  6  7  1  0
  7  8  2  0
  7  9  1  0
  9 10  1  0
 10 11  1  0
 10 24  1  0
 11 12  1  0
 12 13  1  0
 13 14  1  0
 13 23  1  0
 14 15  2  0
 14 21  1  0
 15 16  1  0
 15 17  1  0
 17 18  1  0
 18 19  2  0
 18 20  1  0
 20 21  1  0
 21 22  2  0
 23 24  1  0
M  END
