
     RDKit          3D

 12 12  0  0  0  0  0  0  0  0999 V2000
    3.4140   -0.4810   -0.5280 C   0  0  0  0  0  0  0  0  0  0  0  0
    2.0400   -0.6390   -0.3950 O   0  0  0  0  0  0  0  0  0  0  0  0
    1.5040    0.2530    0.5100 C   0  0  2  0  0  0  0  0  0  0  0  0
    0.8440   -0.4610    1.6480 C   0  0  0  0  0  0  0  0  0  0  0  0
   -0.6120   -0.7880    1.3560 C   0  0  0  0  0  0  0  0  0  0  0  0
   -0.8540   -0.8610   -0.1330 C   0  0  1  0  0  0  0  0  0  0  0  0
   -2.1390   -1.4450   -0.3870 N   0  0  0  0  0  0  0  0  0  0  0  0
   -0.6110    0.4340   -0.8340 C   0  0  1  0  0  0  0  0  0  0  0  0
   -1.8090    1.3640   -0.7710 C   0  0  0  0  0  0  0  0  0  0  0  0
   -2.9190    0.7710   -1.3660 O   0  0  0  0  0  0  0  0  0  0  0  0
    0.5550    1.1620   -0.2350 C   0  0  1  0  0  0  0  0  0  0  0  0
    0.0950    2.1660    0.6130 O   0  0  0  0  0  0  0  0  0  0  0  0
  1  2  1  0
  3  2  1  6
  3  4  1  0
  3 11  1  0
  4  5  1  0
  5  6  1  0
  6  7  1  1
  6  8  1  0
  8  9  1  1
  8 11  1  0
  9 10  1  0
 11 12  1  1
M  CHG  1   7   1
M  END
