
     RDKit          3D

 28 29  0  0  0  0  0  0  0  0999 V2000
   -4.0040   -0.8140    2.7140 C   0  0  0  0  0  0  0  0  0  0  0  0
   -4.0940   -1.3190    1.3100 C   0  0  0  0  0  0  0  0  0  0  0  0
   -3.9520   -0.3230    0.2600 C   0  0  0  0  0  0  0  0  0  0  0  0
   -2.8070    0.2330   -0.2340 C   0  0  0  0  0  0  0  0  0  0  0  0
   -1.4010    0.0610    0.0850 C   0  0  0  0  0  0  0  0  0  0  0  0
   -0.5690    0.6900   -0.6660 O   0  0  0  0  0  0  0  0  0  0  0  0
   -0.8210   -0.7010    1.1080 N   0  0  0  0  0  0  0  0  0  0  0  0
    0.5700   -0.8380    1.3880 C   0  0  0  0  0  0  0  0  0  0  0  0
    0.9240   -1.8860    2.2590 C   0  0  0  0  0  0  0  0  0  0  0  0
    2.2230   -2.1240    2.6260 C   0  0  0  0  0  0  0  0  0  0  0  0
    3.2390   -1.3360    2.1470 C   0  0  0  0  0  0  0  0  0  0  0  0
    2.9200   -0.3110    1.2990 C   0  0  0  0  0  0  0  0  0  0  0  0
    4.1630    0.7310    0.6540 S   0  0  1  0  0  0  0  0  0  0  0  0
    3.5090    2.0890    0.4210 O   0  0  0  0  0  0  0  0  0  0  0  0
    5.1700    0.9500    1.7480 O   0  0  0  0  0  0  0  0  0  0  0  0
    4.8150    0.2110   -0.7950 N   0  0  0  0  0  0  0  0  0  0  0  0
    5.4810   -1.0180   -0.8740 C   0  0  0  0  0  0  0  0  0  0  0  0
    6.9670   -0.9700   -0.6030 C   0  0  0  0  0  0  0  0  0  0  0  0
    4.8460    1.0940   -1.8890 C   0  0  0  0  0  0  0  0  0  0  0  0
    6.0610    1.9470   -2.0200 C   0  0  0  0  0  0  0  0  0  0  0  0
    1.5890   -0.0810    0.9350 C   0  0  0  0  0  0  0  0  0  0  0  0
   -3.2200    1.0990   -1.1920 N   0  0  0  0  0  0  0  0  0  0  0  0
   -4.5460    1.1210   -1.3290 C   0  0  0  0  0  0  0  0  0  0  0  0
   -5.2840    1.9870   -2.3220 C   0  0  0  0  0  0  0  0  0  0  0  0
   -5.0490    0.2250   -0.4170 C   0  0  0  0  0  0  0  0  0  0  0  0
   -6.4680   -0.0390   -0.2250 C   0  0  0  0  0  0  0  0  0  0  0  0
   -7.5500    0.6110   -1.0170 C   0  0  0  0  0  0  0  0  0  0  0  0
   -6.9050   -0.8630    0.6530 O   0  0  0  0  0  0  0  0  0  0  0  0
  1  2  1  0
  2  3  1  0
  3  4  2  0
  3 25  1  0
  4  5  1  0
  4 22  1  0
  5  6  2  0
  5  7  1  0
  7  8  1  0
  8  9  2  0
  8 21  1  0
  9 10  1  0
 10 11  2  0
 11 12  1  0
 12 13  1  0
 12 21  2  0
 13 14  2  0
 13 15  2  0
 13 16  1  6
 16 17  1  0
 16 19  1  0
 17 18  1  0
 19 20  1  0
 22 23  1  0
 23 24  1  0
 23 25  2  0
 25 26  1  0
 26 27  1  0
 26 28  2  0
M  END
