
     RDKit          3D

 29 32  0  0  0  0  0  0  0  0999 V2000
   -4.5780   -3.2810    0.8510 C   0  0  0  0  0  0  0  0  0  0  0  0
   -3.4280   -2.3760    0.5790 C   0  0  0  0  0  0  0  0  0  0  0  0
   -3.1670   -1.2910    1.3840 C   0  0  0  0  0  0  0  0  0  0  0  0
   -2.0790   -0.4540    1.1070 C   0  0  0  0  0  0  0  0  0  0  0  0
   -1.2780   -0.7030    0.0530 C   0  0  0  0  0  0  0  0  0  0  0  0
   -0.1420    0.1040   -0.2970 N   0  0  0  0  0  0  0  0  0  0  0  0
   -0.3710    1.3510   -0.9440 C   0  0  0  0  0  0  0  0  0  0  0  0
   -0.4010    2.5440   -0.0840 C   0  0  0  0  0  0  0  0  0  0  0  0
   -0.1820    2.5050    1.2010 C   0  0  0  0  0  0  0  0  0  0  0  0
   -0.2250    3.7220    2.0230 C   0  0  2  0  0  0  0  0  0  0  0  0
   -1.3030    3.5440    3.0090 N   0  0  0  0  0  0  0  0  0  0  0  0
   -0.4930    4.8840    1.3300 O   0  0  0  0  0  0  0  0  0  0  0  0
   -0.7260    4.9490   -0.0100 C   0  0  0  0  0  0  0  0  0  0  0  0
   -0.9980    6.1430   -0.6350 F   0  0  0  0  0  0  0  0  0  0  0  0
   -0.6860    3.8270   -0.7120 C   0  0  0  0  0  0  0  0  0  0  0  0
    1.1660   -0.4210   -0.0440 C   0  0  0  0  0  0  0  0  0  0  0  0
    1.2250   -1.5930    0.4500 O   0  0  0  0  0  0  0  0  0  0  0  0
    2.3880    0.3040   -0.3180 C   0  0  0  0  0  0  0  0  0  0  0  0
    2.3960    1.4640   -0.7850 O   0  0  0  0  0  0  0  0  0  0  0  0
    3.6790   -0.2740   -0.0650 N   0  0  0  0  0  0  0  0  0  0  0  0
    4.9210    0.4050   -0.3190 C   0  0  2  0  0  0  0  0  0  0  0  0
    6.1230   -0.3090   -0.7870 C   0  0  0  0  0  0  0  0  0  0  0  0
    6.0120    0.1140    0.6810 C   0  0  0  0  0  0  0  0  0  0  0  0
   -1.5550   -1.8090   -0.7560 C   0  0  0  0  0  0  0  0  0  0  0  0
   -0.7400   -2.0710   -1.8390 C   0  0  0  0  0  0  0  0  0  0  0  0
   -0.9890   -3.1680   -2.6670 C   0  0  0  0  0  0  0  0  0  0  0  0
   -2.0520   -4.0140   -2.4260 C   0  0  0  0  0  0  0  0  0  0  0  0
   -2.8640   -3.7350   -1.3290 C   0  0  0  0  0  0  0  0  0  0  0  0
   -2.6170   -2.6490   -0.5100 C   0  0  0  0  0  0  0  0  0  0  0  0
  1  2  1  0
  2  3  2  0
  2 29  1  0
  3  4  1  0
  4  5  2  0
  5  6  1  0
  5 24  1  0
  6  7  1  0
  6 16  1  0
  7  8  1  0
  8  9  2  0
  8 15  1  0
  9 10  1  0
 10 11  1  1
 10 12  1  0
 12 13  1  0
 13 14  1  0
 13 15  2  0
 16 17  2  0
 16 18  1  0
 18 19  2  0
 18 20  1  0
 21 20  1  1
 21 22  1  0
 21 23  1  0
 22 23  1  0
 24 25  2  0
 24 29  1  0
 25 26  1  0
 26 27  2  0
 27 28  1  0
 28 29  2  0
M  END
