
     RDKit          3D

 29 32  0  0  0  0  0  0  0  0999 V2000
   -5.8580    1.3150    0.4390 C   0  0  0  0  0  0  0  0  0  0  0  0
   -4.7290    0.6090    0.5830 C   0  0  0  0  0  0  0  0  0  0  0  0
   -4.5430   -0.4890   -0.1650 O   0  0  0  0  0  0  0  0  0  0  0  0
   -3.3660   -1.0480    0.1090 C   0  0  0  0  0  0  0  0  0  0  0  0
   -2.7750   -0.2860    1.0680 C   0  0  0  0  0  0  0  0  0  0  0  0
   -3.6540    0.7630    1.3620 C   0  0  0  0  0  0  0  0  0  0  0  0
   -3.3810    1.6580    2.3130 C   0  0  0  0  0  0  0  0  0  0  0  0
   -4.1800    2.7590    2.8050 C   0  0  0  0  0  0  0  0  0  0  0  0
   -3.6770    3.9850    2.3180 F   0  0  0  0  0  0  0  0  0  0  0  0
   -1.4210   -0.6040    1.5930 C   0  0  2  0  0  0  0  0  0  0  0  0
   -0.3790   -0.1240    0.6860 C   0  0  0  0  0  0  0  0  0  0  0  0
   -0.6000    0.5780   -0.3340 O   0  0  0  0  0  0  0  0  0  0  0  0
    0.9930   -0.4700    0.9430 N   0  0  0  0  0  0  0  0  0  0  0  0
    1.9760    0.0090    0.0420 C   0  0  0  0  0  0  0  0  0  0  0  0
    1.8460    1.2990   -0.4660 C   0  0  0  0  0  0  0  0  0  0  0  0
    2.7510    1.6830   -1.4120 C   0  0  0  0  0  0  0  0  0  0  0  0
    3.7590    0.8780   -1.8750 C   0  0  0  0  0  0  0  0  0  0  0  0
    4.6720    1.1980   -2.8250 C   0  0  0  0  0  0  0  0  0  0  0  0
    5.6750    0.3840   -3.3010 C   0  0  0  0  0  0  0  0  0  0  0  0
    6.5870    0.7990   -4.2800 C   0  0  0  0  0  0  0  0  0  0  0  0
    7.3870    1.1450   -5.1480 N   0  0  0  0  0  0  0  0  0  0  0  0
    5.7410   -0.9120   -2.7270 C   0  0  0  0  0  0  0  0  0  0  0  0
    6.7310   -1.7540   -3.1810 O   0  0  0  0  0  0  0  0  0  0  0  0
    4.8380   -1.2650   -1.7710 N   0  0  0  0  0  0  0  0  0  0  0  0
    3.8720   -0.4220   -1.3430 C   0  0  0  0  0  0  0  0  0  0  0  0
    2.9860   -0.8220   -0.4060 C   0  0  0  0  0  0  0  0  0  0  0  0
   -1.2980   -2.1560    1.5290 C   0  0  0  0  0  0  0  0  0  0  0  0
   -1.3570   -2.4620    0.0470 C   0  0  0  0  0  0  0  0  0  0  0  0
   -2.7340   -2.2570   -0.4650 C   0  0  0  0  0  0  0  0  0  0  0  0
  1  2  2  0
  2  3  1  0
  2  6  1  0
  3  4  1  0
  4  5  2  0
  4 29  1  0
  5  6  1  0
  5 10  1  0
  6  7  2  3
  7  8  1  0
  8  9  1  0
 10 11  1  6
 10 27  1  0
 11 12  2  0
 11 13  1  0
 13 14  1  0
 14 15  2  0
 14 26  1  0
 15 16  1  0
 16 17  2  0
 17 18  1  0
 17 25  1  0
 18 19  2  0
 19 20  1  0
 19 22  1  0
 20 21  3  0
 22 23  1  0
 22 24  2  0
 24 25  1  0
 25 26  2  0
 27 28  1  0
 28 29  1  0
M  END
