
     RDKit          3D

 29 32  0  0  0  0  0  0  0  0999 V2000
    6.1870   -0.1820    2.5330 C   0  0  0  0  0  0  0  0  0  0  0  0
    6.5100   -0.6710    1.2400 O   0  0  0  0  0  0  0  0  0  0  0  0
    5.4590   -0.8450    0.3260 C   0  0  0  0  0  0  0  0  0  0  0  0
    5.7670   -1.3190   -0.9290 C   0  0  0  0  0  0  0  0  0  0  0  0
    4.7260   -1.4830   -1.8090 C   0  0  0  0  0  0  0  0  0  0  0  0
    3.3930   -1.1890   -1.4740 C   0  0  0  0  0  0  0  0  0  0  0  0
    3.0850   -0.7190   -0.2320 C   0  0  0  0  0  0  0  0  0  0  0  0
    1.7850   -0.3610    0.2340 N   0  0  0  0  0  0  0  0  0  0  0  0
    0.7060   -0.0880   -0.5980 C   0  0  0  0  0  0  0  0  0  0  0  0
    0.9170   -0.1780   -1.8740 O   0  0  0  0  0  0  0  0  0  0  0  0
   -0.6470    0.2840   -0.2530 C   0  0  0  0  0  0  0  0  0  0  0  0
   -1.1280    0.5520    1.0420 C   0  0  0  0  0  0  0  0  0  0  0  0
   -2.4310    0.8940    1.2970 C   0  0  0  0  0  0  0  0  0  0  0  0
   -3.3230    0.9890    0.2330 C   0  0  0  0  0  0  0  0  0  0  0  0
   -2.8950    0.7400   -1.0410 C   0  0  0  0  0  0  0  0  0  0  0  0
   -1.5780    0.3930   -1.2770 C   0  0  0  0  0  0  0  0  0  0  0  0
   -1.1840    0.1380   -2.6130 N   0  0  0  0  0  0  0  0  0  0  0  0
   -1.2800   -1.1830   -3.1850 C   0  0  0  0  0  0  0  0  0  0  0  0
   -1.7300   -2.0910   -2.4400 O   0  0  0  0  0  0  0  0  0  0  0  0
   -0.8700   -1.4640   -4.5850 C   0  0  0  0  0  0  0  0  0  0  0  0
   -1.9500   -1.2900   -5.4460 F   0  0  0  0  0  0  0  0  0  0  0  0
   -4.0370    0.9080   -2.0040 C   0  0  0  0  0  0  0  0  0  0  0  0
   -5.0780    1.5880   -1.1480 C   0  0  0  0  0  0  0  0  0  0  0  0
   -4.6980    1.3220    0.2310 N   0  0  0  0  0  0  0  0  0  0  0  0
   -2.6320    1.0580    2.7550 C   0  0  1  0  0  0  0  0  0  0  0  0
   -3.1040   -0.2890    3.2960 C   0  0  0  0  0  0  0  0  0  0  0  0
   -1.2820    1.3410    3.2910 C   0  0  0  0  0  0  0  0  0  0  0  0
   -0.3630    0.6140    2.3180 C   0  0  0  0  0  0  0  0  0  0  0  0
    4.1690   -0.5580    0.6560 C   0  0  0  0  0  0  0  0  0  0  0  0
  1  2  1  0
  2  3  1  0
  3  4  2  0
  3 29  1  0
  4  5  1  0
  5  6  2  0
  6  7  1  0
  7  8  1  0
  7 29  2  0
  8  9  1  0
  9 10  2  0
  9 11  1  0
 11 12  2  0
 11 16  1  0
 12 13  1  0
 12 28  1  0
 13 14  2  0
 13 25  1  0
 14 15  1  0
 14 24  1  0
 15 16  2  0
 15 22  1  0
 16 17  1  0
 17 18  1  0
 18 19  2  0
 18 20  1  0
 20 21  1  0
 22 23  1  0
 23 24  1  0
 25 26  1  1
 25 27  1  0
 27 28  1  0
M  END
