
     RDKit          3D

 29 32  0  0  0  0  0  0  0  0999 V2000
    3.9840    5.1160    1.3950 C   0  0  0  0  0  0  0  0  0  0  0  0
    3.8730    3.7690    0.7850 C   0  0  0  0  0  0  0  0  0  0  0  0
    4.9390    3.2570    0.0230 C   0  0  0  0  0  0  0  0  0  0  0  0
    4.8100    2.0140   -0.5280 C   0  0  0  0  0  0  0  0  0  0  0  0
    3.6660    1.2670   -0.3490 C   0  0  0  0  0  0  0  0  0  0  0  0
    2.6260    1.7500    0.3860 N   0  0  0  0  0  0  0  0  0  0  0  0
    1.4830    0.9050    0.5180 C   0  0  0  0  0  0  0  0  0  0  0  0
    0.8600    0.3520   -0.5810 C   0  0  0  0  0  0  0  0  0  0  0  0
   -0.2200   -0.4650   -0.4750 C   0  0  0  0  0  0  0  0  0  0  0  0
   -0.7330   -0.7690    0.7690 C   0  0  0  0  0  0  0  0  0  0  0  0
   -1.9240   -1.6840    0.7920 C   0  0  1  0  0  0  0  0  0  0  0  0
   -3.0960   -0.8530    1.1090 C   0  0  0  0  0  0  0  0  0  0  0  0
   -3.1260   -0.1150    2.3700 C   0  0  0  0  0  0  0  0  0  0  0  0
   -3.1630    0.4730    3.3800 N   0  0  0  0  0  0  0  0  0  0  0  0
   -4.1290   -0.7940    0.3030 C   0  0  0  0  0  0  0  0  0  0  0  0
   -5.2380    0.0460    0.6760 N   0  0  0  0  0  0  0  0  0  0  0  0
   -4.1590   -1.5190   -0.8620 O   0  0  0  0  0  0  0  0  0  0  0  0
   -3.1130   -2.3530   -1.2610 C   0  0  0  0  0  0  0  0  0  0  0  0
   -3.1850   -3.0720   -2.4510 C   0  0  0  0  0  0  0  0  0  0  0  0
   -2.1550   -3.8970   -2.8460 C   0  0  0  0  0  0  0  0  0  0  0  0
   -2.1620   -4.6400   -4.0160 O   0  0  0  0  0  0  0  0  0  0  0  0
   -1.0500   -3.9930   -2.0290 C   0  0  0  0  0  0  0  0  0  0  0  0
   -0.9780   -3.2820   -0.8530 C   0  0  0  0  0  0  0  0  0  0  0  0
    0.1140   -3.4020   -0.0880 F   0  0  0  0  0  0  0  0  0  0  0  0
   -2.0180   -2.4480   -0.4550 C   0  0  0  0  0  0  0  0  0  0  0  0
   -0.1400   -0.2370    1.8780 C   0  0  0  0  0  0  0  0  0  0  0  0
    0.9620    0.5970    1.7690 C   0  0  0  0  0  0  0  0  0  0  0  0
    2.7630    2.9540    0.9140 C   0  0  0  0  0  0  0  0  0  0  0  0
    1.8180    3.4410    1.6060 O   0  0  0  0  0  0  0  0  0  0  0  0
  1  2  1  0
  2  3  2  0
  2 28  1  0
  3  4  1  0
  4  5  2  0
  5  6  1  0
  6  7  1  0
  6 28  1  0
  7  8  2  0
  7 27  1  0
  8  9  1  0
  9 10  2  0
 11 10  1  6
 10 26  1  0
 11 12  1  0
 11 25  1  0
 12 13  1  0
 12 15  2  0
 13 14  3  0
 15 16  1  0
 15 17  1  0
 17 18  1  0
 18 19  2  0
 18 25  1  0
 19 20  1  0
 20 21  1  0
 20 22  2  0
 22 23  1  0
 23 24  1  0
 23 25  2  0
 26 27  2  0
 28 29  2  0
M  END
