
     RDKit          3D

 29 32  0  0  0  0  0  0  0  0999 V2000
   -0.6520    0.9790   -1.7500 O   0  0  0  0  0  0  0  0  0  0  0  0
   -0.3090    0.3550   -0.7190 C   0  0  0  0  0  0  0  0  0  0  0  0
   -1.2450   -0.2900    0.1030 N   0  0  0  0  0  0  0  0  0  0  0  0
   -2.6490   -0.3400   -0.0930 C   0  0  0  0  0  0  0  0  0  0  0  0
   -3.3160    0.0890   -1.2110 C   0  0  0  0  0  0  0  0  0  0  0  0
   -4.7170    0.0190   -1.3250 C   0  0  0  0  0  0  0  0  0  0  0  0
   -5.4890   -0.4880   -0.3100 C   0  0  0  0  0  0  0  0  0  0  0  0
   -6.9540   -0.5680   -0.4120 C   0  0  0  0  0  0  0  0  0  0  0  0
   -7.7530   -1.0420    0.5210 C   0  0  0  0  0  0  0  0  0  0  0  0
   -9.1390   -0.9360    0.0060 C   0  0  2  0  0  0  0  0  0  0  0  0
   -9.7180   -2.1830   -0.1520 F   0  0  0  0  0  0  0  0  0  0  0  0
   -9.0040   -0.3570   -1.3010 N   0  0  0  0  0  0  0  0  0  0  0  0
   -7.7720   -0.1500   -1.5340 C   0  0  0  0  0  0  0  0  0  0  0  0
   -4.8280   -0.9210    0.8150 C   0  0  0  0  0  0  0  0  0  0  0  0
   -3.4590   -0.8540    0.9290 C   0  0  0  0  0  0  0  0  0  0  0  0
    1.1170    0.3100   -0.3780 C   0  0  0  0  0  0  0  0  0  0  0  0
    1.4460   -0.3140    0.6510 O   0  0  0  0  0  0  0  0  0  0  0  0
    2.0830    0.9480   -1.1830 N   0  0  0  0  0  0  0  0  0  0  0  0
    3.4800    0.9480   -0.9280 C   0  0  0  0  0  0  0  0  0  0  0  0
    4.2870    1.8280   -1.6760 C   0  0  0  0  0  0  0  0  0  0  0  0
    5.6340    1.8640   -1.4860 C   0  0  0  0  0  0  0  0  0  0  0  0
    6.2550    1.0460   -0.5630 C   0  0  0  0  0  0  0  0  0  0  0  0
    7.6300    1.0730   -0.3600 C   0  0  0  0  0  0  0  0  0  0  0  0
    8.2490    0.2510    0.5680 C   0  0  0  0  0  0  0  0  0  0  0  0
    7.4750   -0.6250    1.3170 C   0  0  0  0  0  0  0  0  0  0  0  0
    8.0290   -1.4700    2.2570 O   0  0  0  0  0  0  0  0  0  0  0  0
    6.1110   -0.6550    1.1190 C   0  0  0  0  0  0  0  0  0  0  0  0
    5.5090    0.1690    0.1930 C   0  0  0  0  0  0  0  0  0  0  0  0
    4.1310    0.1560   -0.0250 C   0  0  0  0  0  0  0  0  0  0  0  0
  1  2  2  0
  2  3  1  0
  2 16  1  0
  3  4  1  0
  4  5  2  0
  4 15  1  0
  5  6  1  0
  6  7  2  0
  7  8  1  0
  7 14  1  0
  8  9  2  0
  8 13  1  0
  9 10  1  0
 10 11  1  6
 10 12  1  0
 12 13  2  0
 14 15  2  0
 16 17  2  0
 16 18  1  0
 18 19  1  0
 19 20  2  0
 19 29  1  0
 20 21  1  0
 21 22  2  0
 22 23  1  0
 22 28  1  0
 23 24  2  0
 24 25  1  0
 25 26  1  0
 25 27  2  0
 27 28  1  0
 28 29  2  0
M  END
