
     RDKit          3D

 29 32  0  0  0  0  0  0  0  0999 V2000
    3.1750   -0.3250    0.3760 O   0  0  0  0  0  0  0  0  0  0  0  0
    3.0650    0.8760    0.0760 C   0  0  0  0  0  0  0  0  0  0  0  0
    2.0410    1.7090    0.7150 C   0  0  0  0  0  0  0  0  0  0  0  0
    1.1960    1.0070    1.7480 C   0  0  2  0  0  0  0  0  0  0  0  0
    1.9020    0.4470    2.9020 C   0  0  0  0  0  0  0  0  0  0  0  0
    1.6910   -1.0030    3.1470 C   0  0  0  0  0  0  0  0  0  0  0  0
    0.2610   -1.3590    2.9690 C   0  0  0  0  0  0  0  0  0  0  0  0
   -0.3990   -0.7850    1.9450 C   0  0  0  0  0  0  0  0  0  0  0  0
   -1.7970   -1.1190    1.7510 C   0  0  0  0  0  0  0  0  0  0  0  0
   -2.3780   -1.9320    2.5290 O   0  0  0  0  0  0  0  0  0  0  0  0
   -2.5490   -0.5500    0.6930 N   0  0  0  0  0  0  0  0  0  0  0  0
   -3.9070   -0.7780    0.3810 C   0  0  0  0  0  0  0  0  0  0  0  0
   -4.7640   -1.6070    1.0560 C   0  0  0  0  0  0  0  0  0  0  0  0
   -6.0990   -1.7830    0.6880 C   0  0  0  0  0  0  0  0  0  0  0  0
   -6.6120   -1.1110   -0.3960 C   0  0  0  0  0  0  0  0  0  0  0  0
   -5.7540   -0.2670   -1.0900 C   0  0  0  0  0  0  0  0  0  0  0  0
   -6.2360    0.4350   -2.1980 C   0  0  0  0  0  0  0  0  0  0  0  0
   -5.3590    1.2610   -2.8610 C   0  0  0  0  0  0  0  0  0  0  0  0
   -4.0440    1.4150   -2.4740 C   0  0  0  0  0  0  0  0  0  0  0  0
   -3.6110    0.7280   -1.4060 N   0  0  0  0  0  0  0  0  0  0  0  0
   -4.4400   -0.1010   -0.7180 C   0  0  0  0  0  0  0  0  0  0  0  0
    0.3070    0.0960    1.1400 O   0  0  0  0  0  0  0  0  0  0  0  0
    3.9390    1.4340   -0.8890 N   0  0  0  0  0  0  0  0  0  0  0  0
    4.9430    0.6620   -1.5310 C   0  0  0  0  0  0  0  0  0  0  0  0
    5.2770   -0.6070   -1.4090 C   0  0  0  0  0  0  0  0  0  0  0  0
    6.4220   -0.9640   -2.3130 C   0  0  0  0  0  0  0  0  0  0  0  0
    6.7010    0.3060   -2.9830 C   0  0  0  0  0  0  0  0  0  0  0  0
    5.8730    1.2140   -2.5440 C   0  0  0  0  0  0  0  0  0  0  0  0
    5.8620    2.5090   -2.9630 F   0  0  0  0  0  0  0  0  0  0  0  0
  1  2  2  0
  2  3  1  0
  2 23  1  0
  4  3  1  6
  4  5  1  0
  4 22  1  0
  5  6  1  0
  6  7  1  0
  7  8  2  0
  8  9  1  0
  8 22  1  0
  9 10  2  0
  9 11  1  0
 11 12  1  0
 12 13  2  0
 12 21  1  0
 13 14  1  0
 14 15  2  0
 15 16  1  0
 16 17  2  0
 16 21  1  0
 17 18  1  0
 18 19  2  0
 19 20  1  0
 20 21  2  0
 23 24  1  0
 24 25  2  0
 24 28  1  0
 25 26  1  0
 26 27  1  0
 27 28  2  0
 28 29  1  0
M  END
