
     RDKit          3D

 30 31  0  0  0  0  0  0  0  0999 V2000
   -3.1360   -1.5310   -2.3280 C   0  0  0  0  0  0  0  0  0  0  0  0
   -3.7950   -1.6300   -0.9730 C   0  0  0  0  0  0  0  0  0  0  0  0
   -4.0410   -0.3150   -0.3520 C   0  0  0  0  0  0  0  0  0  0  0  0
   -3.1470    0.5210    0.2750 C   0  0  0  0  0  0  0  0  0  0  0  0
   -1.6950    0.2510    0.4750 C   0  0  0  0  0  0  0  0  0  0  0  0
   -1.2130   -0.8200    0.0680 O   0  0  0  0  0  0  0  0  0  0  0  0
   -0.8770    1.2000    1.1190 N   0  0  0  0  0  0  0  0  0  0  0  0
    0.5200    1.0960    1.3890 C   0  0  0  0  0  0  0  0  0  0  0  0
    1.2960    0.0170    1.0690 C   0  0  0  0  0  0  0  0  0  0  0  0
    2.6680   -0.0880    1.3390 C   0  0  0  0  0  0  0  0  0  0  0  0
    3.5260   -1.5190    0.8760 S   0  0  1  0  0  0  0  0  0  0  0  0
    4.1060   -2.2410    2.0680 O   0  0  0  0  0  0  0  0  0  0  0  0
    2.5880   -2.4800    0.2020 O   0  0  0  0  0  0  0  0  0  0  0  0
    4.8090   -1.2080   -0.2130 N   0  0  0  0  0  0  0  0  0  0  0  0
    4.4300   -0.6420   -1.4580 C   0  0  0  0  0  0  0  0  0  0  0  0
    4.4090    0.8700   -1.4550 C   0  0  0  0  0  0  0  0  0  0  0  0
    5.7940   -2.2340   -0.2530 C   0  0  0  0  0  0  0  0  0  0  0  0
    5.4900   -3.2960   -1.2770 C   0  0  0  0  0  0  0  0  0  0  0  0
    3.2460    0.9820    1.9680 C   0  0  0  0  0  0  0  0  0  0  0  0
    4.6850    0.9540    2.2880 C   0  0  0  0  0  0  0  0  0  0  0  0
    2.4970    2.0730    2.2990 C   0  0  0  0  0  0  0  0  0  0  0  0
    1.1380    2.1690    2.0290 C   0  0  0  0  0  0  0  0  0  0  0  0
    0.4460    3.3060    2.3940 O   0  0  0  0  0  0  0  0  0  0  0  0
   -3.8230    1.6100    0.6750 N   0  0  0  0  0  0  0  0  0  0  0  0
   -5.1180    1.5070    0.3300 C   0  0  0  0  0  0  0  0  0  0  0  0
   -6.1420    2.5420    0.6240 C   0  0  0  0  0  0  0  0  0  0  0  0
   -5.2750    0.3150   -0.3110 C   0  0  0  0  0  0  0  0  0  0  0  0
   -6.5400   -0.1790   -0.8490 C   0  0  0  0  0  0  0  0  0  0  0  0
   -6.8610    0.1860   -2.2530 C   0  0  0  0  0  0  0  0  0  0  0  0
   -7.2990   -0.8680   -0.1540 O   0  0  0  0  0  0  0  0  0  0  0  0
  1  2  1  0
  2  3  1  0
  3  4  2  0
  3 27  1  0
  4  5  1  0
  4 24  1  0
  5  6  2  0
  5  7  1  0
  7  8  1  0
  8  9  2  0
  8 22  1  0
  9 10  1  0
 10 11  1  0
 10 19  2  0
 11 12  2  0
 11 13  2  0
 11 14  1  6
 14 15  1  0
 14 17  1  0
 15 16  1  0
 17 18  1  0
 19 20  1  0
 19 21  1  0
 21 22  2  0
 22 23  1  0
 24 25  1  0
 25 26  1  0
 25 27  2  0
 27 28  1  0
 28 29  1  0
 28 30  2  0
M  END
