
     RDKit          3D

 22 23  0  0  0  0  0  0  0  0999 V2000
   -5.0420   -0.0750   -2.5800 C   0  0  0  0  0  0  0  0  0  0  0  0
   -5.1460    1.1820   -1.7760 C   0  0  0  0  0  0  0  0  0  0  0  0
   -5.3640    0.9510   -0.4070 O   0  0  0  0  0  0  0  0  0  0  0  0
   -4.5360    0.2580    0.4310 C   0  0  0  0  0  0  0  0  0  0  0  0
   -4.9040    0.1240    1.7560 C   0  0  0  0  0  0  0  0  0  0  0  0
   -4.1160   -0.5630    2.6600 C   0  0  0  0  0  0  0  0  0  0  0  0
   -2.9320   -1.1380    2.2660 C   0  0  0  0  0  0  0  0  0  0  0  0
   -2.5570   -1.0090    0.9450 C   0  0  0  0  0  0  0  0  0  0  0  0
   -1.0140   -1.7620    0.4430 S   0  0  0  0  0  0  0  0  0  0  0  0
    0.3260   -0.5510    0.6580 C   0  0  0  0  0  0  0  0  0  0  0  0
    0.0590    0.5900    1.0980 O   0  0  0  0  0  0  0  0  0  0  0  0
    1.6430   -0.9250    0.3230 N   0  0  0  0  0  0  0  0  0  0  0  0
    2.7880   -0.1020    0.4330 C   0  0  0  0  0  0  0  0  0  0  0  0
    2.7870    1.1860    0.8830 C   0  0  0  0  0  0  0  0  0  0  0  0
    4.0090    1.8740    0.9340 C   0  0  0  0  0  0  0  0  0  0  0  0
    4.0580    3.0550    1.3380 O   0  0  0  0  0  0  0  0  0  0  0  0
    5.0860    1.2560    0.5510 O   0  0  0  0  0  0  0  0  0  0  0  0
    5.1130    0.0320    0.1200 C   0  0  0  0  0  0  0  0  0  0  0  0
    6.4140   -0.6000   -0.3030 C   0  0  0  0  0  0  0  0  0  0  0  0
    6.5720   -0.3050   -1.7820 C   0  0  0  0  0  0  0  0  0  0  0  0
    3.9760   -0.6600    0.0540 N   0  0  0  0  0  0  0  0  0  0  0  0
   -3.3500   -0.3170    0.0300 C   0  0  0  0  0  0  0  0  0  0  0  0
  1  2  1  0
  2  3  1  0
  3  4  1  0
  4  5  2  0
  4 22  1  0
  5  6  1  0
  6  7  2  0
  7  8  1  0
  8  9  1  0
  8 22  2  0
  9 10  1  0
 10 11  2  0
 10 12  1  0
 12 13  1  0
 13 14  2  0
 13 21  1  0
 14 15  1  0
 15 16  2  0
 15 17  1  0
 17 18  1  0
 18 19  1  0
 18 21  2  0
 19 20  1  0
M  END
