
     RDKit          3D

 22 23  0  0  0  0  0  0  0  0999 V2000
   -5.3970   -2.2980   -0.6140 C   0  0  0  0  0  0  0  0  0  0  0  0
   -5.8060   -1.0630   -0.7830 C   0  0  0  0  0  0  0  0  0  0  0  0
   -5.1080    0.1340   -0.4550 C   0  0  0  0  0  0  0  0  0  0  0  0
   -5.6770    1.3140   -0.7230 C   0  0  0  0  0  0  0  0  0  0  0  0
   -3.7940    0.1760    0.1470 C   0  0  0  0  0  0  0  0  0  0  0  0
   -3.3410   -0.6540    1.1410 C   0  0  0  0  0  0  0  0  0  0  0  0
   -2.0420   -0.2660    1.4090 C   0  0  0  0  0  0  0  0  0  0  0  0
   -1.7710    0.7850    0.5630 C   0  0  0  0  0  0  0  0  0  0  0  0
   -0.4980    1.5280    0.4900 C   0  0  0  0  0  0  0  0  0  0  0  0
    0.6160    0.9020    0.6250 C   0  0  0  0  0  0  0  0  0  0  0  0
    0.8400   -0.8520    0.9060 S   0  0  0  0  0  0  0  0  0  0  0  0
    2.4420   -0.6320    1.7520 C   0  0  0  0  0  0  0  0  0  0  0  0
    2.8920   -1.4200    2.6030 O   0  0  0  0  0  0  0  0  0  0  0  0
    2.9380    0.5760    1.1960 N   0  0  0  0  0  0  0  0  0  0  0  0
    4.3720    0.9280    1.2210 C   0  0  0  0  0  0  0  0  0  0  0  0
    5.1090    0.5460   -0.0140 C   0  0  0  0  0  0  0  0  0  0  0  0
    5.1470   -0.8630   -0.3690 C   0  0  0  0  0  0  0  0  0  0  0  0
    5.8050   -1.2350   -1.6050 N   0  0  0  0  0  0  0  0  0  0  0  0
    4.6770   -1.8100    0.2690 O   0  0  0  0  0  0  0  0  0  0  0  0
    1.9650    1.4030    0.5930 C   0  0  0  0  0  0  0  0  0  0  0  0
    2.2730    2.5330    0.0490 O   0  0  0  0  0  0  0  0  0  0  0  0
   -2.8170    1.0340   -0.1750 O   0  0  0  0  0  0  0  0  0  0  0  0
  1  2  2  0
  2  3  1  0
  3  4  2  0
  3  5  1  0
  5  6  2  0
  5 22  1  0
  6  7  1  0
  7  8  2  0
  8  9  1  0
  8 22  1  0
  9 10  2  3
 10 11  1  0
 10 20  1  0
 11 12  1  0
 12 13  2  0
 12 14  1  0
 14 15  1  0
 14 20  1  0
 15 16  1  0
 16 17  1  0
 17 18  1  0
 17 19  2  0
 20 21  2  0
M  END
