
     RDKit          3D

 10 10  0  0  0  0  0  0  0  0999 V2000
    4.2810    0.2200    0.6780 O   0  0  0  0  0  0  0  0  0  0  0  0
    2.9780    0.6210    0.9700 C   0  0  0  0  0  0  0  0  0  0  0  0
    1.9870   -0.0670    0.0400 C   0  0  0  0  0  0  0  0  0  0  0  0
    0.6880    0.3200    0.3160 O   0  0  0  0  0  0  0  0  0  0  0  0
   -0.2190   -0.3100   -0.5340 C   0  0  1  0  0  0  0  0  0  0  0  0
   -1.1690   -1.2070    0.2190 C   0  0  0  0  0  0  0  0  0  0  0  0
   -2.1890   -0.3570    0.9030 C   0  0  0  0  0  0  0  0  0  0  0  0
   -2.8680    0.4990   -0.1520 C   0  0  0  0  0  0  0  0  0  0  0  0
   -1.9750    1.3290   -0.7820 O   0  0  0  0  0  0  0  0  0  0  0  0
   -0.9260    0.7030   -1.3950 C   0  0  0  0  0  0  0  0  0  0  0  0
  1  2  1  0
  2  3  1  0
  3  4  1  0
  5  4  1  1
  5  6  1  0
  5 10  1  0
  6  7  1  0
  7  8  1  0
  8  9  1  0
  9 10  1  0
M  END
