
     RDKit          3D

 22 22  0  0  0  0  0  0  0  0999 V2000
    7.1050    1.9100    0.5560 C   0  0  0  0  0  0  0  0  0  0  0  0
    7.0710    0.5330   -0.0560 C   0  0  0  0  0  0  0  0  0  0  0  0
    5.8240    0.2120   -0.6150 O   0  0  0  0  0  0  0  0  0  0  0  0
    4.6440    0.1650    0.0940 C   0  0  0  0  0  0  0  0  0  0  0  0
    4.6860    0.4260    1.3200 O   0  0  0  0  0  0  0  0  0  0  0  0
    3.3590   -0.1780   -0.5410 C   0  0  0  0  0  0  0  0  0  0  0  0
    2.2580   -0.2120    0.1740 C   0  0  0  0  0  0  0  0  0  0  0  0
    0.9640   -0.5410   -0.3870 C   0  0  0  0  0  0  0  0  0  0  0  0
    0.7250   -0.8460   -1.6990 C   0  0  0  0  0  0  0  0  0  0  0  0
   -0.4830   -1.1350   -2.1200 O   0  0  0  0  0  0  0  0  0  0  0  0
   -1.5360   -1.1500   -1.3170 C   0  0  0  0  0  0  0  0  0  0  0  0
   -2.8750   -1.4780   -1.8190 C   0  0  0  0  0  0  0  0  0  0  0  0
   -1.3750   -0.8530    0.0170 C   0  0  0  0  0  0  0  0  0  0  0  0
   -2.5330   -0.8730    0.8940 C   0  0  0  0  0  0  0  0  0  0  0  0
   -3.7250   -1.1470    0.5350 N   0  0  0  0  0  0  0  0  0  0  0  0
   -4.7620   -1.1310    1.4910 C   0  0  0  0  0  0  0  0  0  0  0  0
   -5.1130   -2.2020    2.1110 N   0  0  0  0  0  0  0  0  0  0  0  0
   -5.6050    0.3870    1.8550 S   0  0  0  0  0  0  0  0  0  0  0  0
   -4.9450    1.7080    0.8400 C   0  0  0  0  0  0  0  0  0  0  0  0
   -5.3000    1.4170   -0.6030 C   0  0  0  0  0  0  0  0  0  0  0  0
   -0.1350   -0.5510    0.4790 C   0  0  0  0  0  0  0  0  0  0  0  0
    0.0450   -0.2720    1.7120 O   0  0  0  0  0  0  0  0  0  0  0  0
  1  2  1  0
  2  3  1  0
  3  4  1  0
  4  5  2  0
  4  6  1  0
  6  7  2  3
  7  8  1  0
  8  9  2  0
  8 21  1  0
  9 10  1  0
 10 11  1  0
 11 12  1  0
 11 13  2  0
 13 14  1  0
 13 21  1  0
 14 15  2  3
 15 16  1  0
 16 17  2  0
 16 18  1  0
 18 19  1  0
 19 20  1  0
 21 22  2  0
M  END
