
     RDKit          3D

 22 23  0  0  0  0  0  0  0  0999 V2000
   -6.1730    1.6250    0.6840 C   0  0  0  0  0  0  0  0  0  0  0  0
   -4.6700    1.6920    0.7010 C   0  0  0  0  0  0  0  0  0  0  0  0
   -4.1340    0.6200   -0.0890 O   0  0  0  0  0  0  0  0  0  0  0  0
   -2.7620    0.4880   -0.2150 C   0  0  0  0  0  0  0  0  0  0  0  0
   -2.0420    1.3290    0.3810 O   0  0  0  0  0  0  0  0  0  0  0  0
   -2.1940   -0.5940   -1.0140 C   0  0  2  0  0  0  0  0  0  0  0  0
   -2.4410   -1.9090   -0.2950 C   0  0  0  0  0  0  0  0  0  0  0  0
   -1.4330   -1.7980    0.8230 C   0  0  0  0  0  0  0  0  0  0  0  0
   -0.2150   -1.2630    0.1360 C   0  0  0  0  0  0  0  0  0  0  0  0
   -0.7120   -0.5140   -0.9870 N   0  0  0  0  0  0  0  0  0  0  0  0
    0.0350    0.1970   -1.9560 C   0  0  0  0  0  0  0  0  0  0  0  0
   -0.5610    0.8120   -2.8650 O   0  0  0  0  0  0  0  0  0  0  0  0
    1.4960    0.2270   -1.9170 C   0  0  0  0  0  0  0  0  0  0  0  0
    1.9490   -0.5430   -0.8330 O   0  0  0  0  0  0  0  0  0  0  0  0
    3.2550   -0.7470   -0.4850 C   0  0  0  0  0  0  0  0  0  0  0  0
    4.0040   -1.7500   -0.9050 C   0  0  0  0  0  0  0  0  0  0  0  0
    5.3040   -1.5920   -0.3060 C   0  0  0  0  0  0  0  0  0  0  0  0
    5.3660   -0.5350    0.4560 C   0  0  0  0  0  0  0  0  0  0  0  0
    4.0330    0.1030    0.4010 C   0  0  0  0  0  0  0  0  0  0  0  0
    3.6590    1.2070    1.0320 C   0  0  0  0  0  0  0  0  0  0  0  0
    2.3480    1.7250    0.9010 N   0  0  0  0  0  0  0  0  0  0  0  0
    4.8370    2.0550    2.0670 S   0  0  0  0  0  0  0  0  0  0  0  0
  1  2  1  0
  2  3  1  0
  3  4  1  0
  4  5  2  0
  6  4  1  1
  6  7  1  0
  6 10  1  0
  7  8  1  0
  8  9  1  0
  9 10  1  0
 10 11  1  0
 11 12  2  0
 11 13  1  0
 13 14  1  0
 14 15  1  0
 15 16  2  0
 15 19  1  0
 16 17  1  0
 17 18  2  0
 18 19  1  0
 19 20  2  3
 20 21  1  0
 20 22  1  0
M  END
