
     RDKit          3D

 20 21  0  0  0  0  0  0  0  0999 V2000
   -3.2350   -0.7260   -1.4050 C   0  0  0  0  0  0  0  0  0  0  0  0
   -2.0140   -0.3570   -0.5410 C   0  0  1  0  0  0  0  0  0  0  0  0
   -1.7700    1.1510   -0.7280 C   0  0  0  0  0  0  0  0  0  0  0  0
   -2.3060   -0.6380    0.8950 C   0  0  0  0  0  0  0  0  0  0  0  0
   -3.4710   -0.9290    1.3410 O   0  0  0  0  0  0  0  0  0  0  0  0
   -3.8750   -1.1640    2.3660 C   0  0  0  0  0  0  0  0  0  0  0  0
   -4.9500   -1.4730    3.0320 O   0  0  0  0  0  0  0  0  0  0  0  0
   -2.2930   -1.0170    3.3730 S   0  0  0  0  0  0  0  0  0  0  0  0
   -1.3080   -0.5950    1.8530 C   0  0  0  0  0  0  0  0  0  0  0  0
    0.0820   -0.3440    1.9250 C   0  0  0  0  0  0  0  0  0  0  0  0
    0.6100   -0.4110    3.1030 O   0  0  0  0  0  0  0  0  0  0  0  0
    0.9960   -0.0310    0.9150 N   0  0  0  0  0  0  0  0  0  0  0  0
    2.3790    0.1940    1.1780 C   0  0  0  0  0  0  0  0  0  0  0  0
    3.2690    0.4910    0.2540 C   0  0  0  0  0  0  0  0  0  0  0  0
    5.0430    0.7820    0.5610 S   0  0  0  0  0  0  0  0  0  0  0  0
    5.5380    0.5260   -1.1330 C   0  0  0  0  0  0  0  0  0  0  0  0
    7.0350    0.1830   -1.6260 S   0  0  0  0  0  0  0  0  0  0  0  0
    4.3690    0.6890   -1.8820 N   0  0  0  0  0  0  0  0  0  0  0  0
    3.1630    0.6760   -1.1830 C   0  0  0  0  0  0  0  0  0  0  0  0
    2.0000    0.8130   -1.7250 O   0  0  0  0  0  0  0  0  0  0  0  0
  2  1  1  6
  2  3  1  0
  2  4  1  0
  4  5  1  0
  4  9  2  0
  5  6  1  0
  6  7  2  0
  6  8  1  0
  8  9  1  0
  9 10  1  0
 10 11  2  0
 10 12  1  0
 12 13  1  0
 13 14  2  3
 14 15  1  0
 14 19  1  0
 15 16  1  0
 16 17  2  0
 16 18  1  0
 18 19  1  0
 19 20  2  0
M  END
