
     RDKit          3D

 21 22  0  0  0  0  0  0  0  0999 V2000
   -1.1690    0.3410    2.2260 O   0  0  0  0  0  0  0  0  0  0  0  0
   -1.4280    0.3460    0.9970 C   0  0  0  0  0  0  0  0  0  0  0  0
   -0.4890    0.0160    0.0220 N   0  0  0  0  0  0  0  0  0  0  0  0
    0.8420   -0.3610    0.3090 C   0  0  0  0  0  0  0  0  0  0  0  0
    1.3590   -0.6810    1.5300 C   0  0  0  0  0  0  0  0  0  0  0  0
    2.7080   -1.0320    1.7270 C   0  0  0  0  0  0  0  0  0  0  0  0
    3.5790   -1.0670    0.6710 C   0  0  0  0  0  0  0  0  0  0  0  0
    4.8350   -1.3970    0.8740 O   0  0  0  0  0  0  0  0  0  0  0  0
    5.6340   -1.4180   -0.1590 C   0  0  0  0  0  0  0  0  0  0  0  0
    7.2220   -1.8270    0.0450 S   0  0  0  0  0  0  0  0  0  0  0  0
    5.2440   -1.1230   -1.4120 N   0  0  0  0  0  0  0  0  0  0  0  0
    3.9630   -0.7840   -1.6350 C   0  0  0  0  0  0  0  0  0  0  0  0
    3.5600   -0.5020   -2.7890 O   0  0  0  0  0  0  0  0  0  0  0  0
    3.0860   -0.7490   -0.5720 C   0  0  0  0  0  0  0  0  0  0  0  0
    1.7740   -0.4090   -0.7510 C   0  0  0  0  0  0  0  0  0  0  0  0
   -2.8060    0.7280    0.6660 C   0  0  0  0  0  0  0  0  0  0  0  0
   -3.6440    1.0270    1.6220 C   0  0  0  0  0  0  0  0  0  0  0  0
   -4.9640    1.3990    1.4100 O   0  0  0  0  0  0  0  0  0  0  0  0
   -3.2520    0.7590   -1.0510 S   0  0  0  0  0  0  0  0  0  0  0  0
   -4.9810    1.2510   -1.2480 C   0  0  0  0  0  0  0  0  0  0  0  0
   -5.4380    1.2840   -2.9850 S   0  0  0  0  0  0  0  0  0  0  0  0
  1  2  2  0
  2  3  1  0
  2 16  1  0
  3  4  1  0
  4  5  2  0
  4 15  1  0
  5  6  1  0
  6  7  2  0
  7  8  1  0
  7 14  1  0
  8  9  1  0
  9 10  2  0
  9 11  1  0
 11 12  1  0
 12 13  2  0
 12 14  1  0
 14 15  2  0
 16 17  2  3
 16 19  1  0
 17 18  1  0
 19 20  1  0
 20 21  1  0
M  END
