
     RDKit          3D

 21 22  0  0  0  0  0  0  0  0999 V2000
    6.1260    0.9130    0.7610 C   0  0  0  0  0  0  0  0  0  0  0  0
    5.2120   -0.1000    0.3210 N   0  0  0  0  0  0  0  0  0  0  0  0
    3.8830    0.2540   -0.1100 C   0  0  0  0  0  0  0  0  0  0  0  0
    3.5990    1.4510   -0.0730 O   0  0  0  0  0  0  0  0  0  0  0  0
    2.9940   -0.8140   -0.5470 C   0  0  0  0  0  0  0  0  0  0  0  0
    1.5690   -0.4290   -0.8020 C   0  0  0  0  0  0  0  0  0  0  0  0
    0.7200    0.1330    0.6490 S   0  0  1  0  0  0  0  0  0  0  0  0
    0.9420   -0.8240    1.8050 O   0  0  0  0  0  0  0  0  0  0  0  0
    1.4170    1.4110    1.1090 O   0  0  0  0  0  0  0  0  0  0  0  0
   -0.9320    0.5360    0.3870 C   0  0  0  0  0  0  0  0  0  0  0  0
   -1.8410   -0.5650   -0.0290 C   0  0  0  0  0  0  0  0  0  0  0  0
   -1.2830   -1.7990   -0.0360 C   0  0  0  0  0  0  0  0  0  0  0  0
   -2.2260   -3.1560   -0.4440 S   0  0  0  0  0  0  0  0  0  0  0  0
   -3.8250   -2.6530   -0.7920 C   0  0  0  0  0  0  0  0  0  0  0  0
   -4.7640   -3.4240   -1.1270 O   0  0  0  0  0  0  0  0  0  0  0  0
   -4.0370   -1.3190   -0.6820 C   0  0  0  0  0  0  0  0  0  0  0  0
   -5.6410   -0.4590   -0.9870 S   0  0  0  0  0  0  0  0  0  0  0  0
   -5.0360    1.1290   -0.6380 C   0  0  0  0  0  0  0  0  0  0  0  0
   -5.7850    2.3680   -0.6780 N   0  0  0  0  0  0  0  0  0  0  0  0
   -3.7300    0.9540   -0.3260 C   0  0  0  0  0  0  0  0  0  0  0  0
   -3.2070   -0.3040   -0.3460 C   0  0  0  0  0  0  0  0  0  0  0  0
  1  2  1  0
  2  3  1  0
  3  4  2  0
  3  5  1  0
  5  6  1  0
  7  6  1  6
  7  8  2  0
  7  9  2  0
  7 10  1  0
 10 11  1  0
 11 12  2  0
 11 21  1  0
 12 13  1  0
 13 14  1  0
 14 15  2  0
 14 16  1  0
 16 17  1  0
 16 21  2  0
 17 18  1  0
 18 19  1  0
 18 20  2  0
 20 21  1  0
M  END
