
     RDKit          3D

 21 22  0  0  0  0  0  0  0  0999 V2000
   -3.3940   -1.8450   -1.1680 C   0  0  0  0  0  0  0  0  0  0  0  0
   -3.0210   -0.6380   -0.4290 C   0  0  0  0  0  0  0  0  0  0  0  0
   -1.8930   -0.2230    0.0340 C   0  0  0  0  0  0  0  0  0  0  0  0
   -1.7660    1.0830    0.7740 C   0  0  0  0  0  0  0  0  0  0  0  0
   -3.2770    1.9610    0.8970 S   0  0  1  0  0  0  0  0  0  0  0  0
   -3.9040    2.3570   -0.6610 N   0  0  0  0  0  0  0  0  0  0  0  0
   -4.3340    1.2720    1.6930 O   0  0  0  0  0  0  0  0  0  0  0  0
   -3.0320    3.2980    1.5880 O   0  0  0  0  0  0  0  0  0  0  0  0
   -0.6260   -0.9570   -0.0920 C   0  0  0  0  0  0  0  0  0  0  0  0
   -0.3690   -2.1830   -0.6490 C   0  0  0  0  0  0  0  0  0  0  0  0
    0.9770   -2.4410   -0.5260 C   0  0  0  0  0  0  0  0  0  0  0  0
    1.5220   -1.3480    0.1140 C   0  0  0  0  0  0  0  0  0  0  0  0
    2.9480   -1.2690    0.4200 C   0  0  0  0  0  0  0  0  0  0  0  0
    3.6890   -0.2130    0.2960 C   0  0  0  0  0  0  0  0  0  0  0  0
    3.1730    1.3970   -0.2690 S   0  0  0  0  0  0  0  0  0  0  0  0
    4.8470    2.0370   -0.5470 C   0  0  0  0  0  0  0  0  0  0  0  0
    5.2440    3.3740   -1.3950 S   0  0  0  0  0  0  0  0  0  0  0  0
    5.6820    1.1190    0.1280 N   0  0  0  0  0  0  0  0  0  0  0  0
    5.0990   -0.0540    0.5730 C   0  0  0  0  0  0  0  0  0  0  0  0
    5.7380   -0.9810    1.2020 O   0  0  0  0  0  0  0  0  0  0  0  0
    0.5570   -0.5190    0.3430 O   0  0  0  0  0  0  0  0  0  0  0  0
  1  2  1  0
  2  3  2  3
  3  4  1  0
  3  9  1  0
  4  5  1  0
  5  6  1  6
  5  7  2  0
  5  8  2  0
  9 10  2  0
  9 21  1  0
 10 11  1  0
 11 12  2  0
 12 13  1  0
 12 21  1  0
 13 14  2  3
 14 15  1  0
 14 19  1  0
 15 16  1  0
 16 17  2  0
 16 18  1  0
 18 19  1  0
 19 20  2  0
M  END
