
     RDKit          3D

 21 22  0  0  0  0  0  0  0  0999 V2000
    5.0450    0.2300   -1.6290 N   0  0  0  0  0  0  0  0  0  0  0  0
    4.3580   -0.0080   -0.3670 C   0  0  0  0  0  0  0  0  0  0  0  0
    3.0040    0.0950   -0.4690 C   0  0  0  0  0  0  0  0  0  0  0  0
    2.2380   -0.3150    0.6180 C   0  0  0  0  0  0  0  0  0  0  0  0
    0.6950    0.0840    0.6870 S   0  0  2  0  0  0  0  0  0  0  0  0
    0.3730    1.6330    0.6150 O   0  0  0  0  0  0  0  0  0  0  0  0
    0.1330   -0.1340    2.2070 O   0  0  0  0  0  0  0  0  0  0  0  0
   -0.6080   -0.7110   -0.1620 N   0  0  0  0  0  0  0  0  0  0  0  0
   -1.0760    0.5140   -0.8570 C   0  0  0  0  0  0  0  0  0  0  0  0
   -2.3650    0.8170   -0.0900 C   0  0  0  0  0  0  0  0  0  0  0  0
   -3.5990    0.3050   -0.1910 C   0  0  0  0  0  0  0  0  0  0  0  0
   -4.6250    1.2490   -0.2670 C   0  0  0  0  0  0  0  0  0  0  0  0
   -6.0540    0.2760   -0.4620 S   0  0  1  0  0  0  0  0  0  0  0  0
   -7.2240    0.4960    0.2800 O   0  0  0  0  0  0  0  0  0  0  0  0
   -6.3060    0.4020   -2.0360 O   0  0  0  0  0  0  0  0  0  0  0  0
   -5.2630   -1.3070   -0.2690 C   0  0  0  0  0  0  0  0  0  0  0  0
   -4.0740   -1.0000   -0.1510 C   0  0  0  0  0  0  0  0  0  0  0  0
    2.9020   -0.8400    1.7340 C   0  0  0  0  0  0  0  0  0  0  0  0
    4.2310   -0.9670    1.8310 C   0  0  0  0  0  0  0  0  0  0  0  0
    4.9670   -0.5030    0.7100 C   0  0  0  0  0  0  0  0  0  0  0  0
    6.7410   -0.3220    0.8540 S   0  0  0  0  0  0  0  0  0  0  0  0
  1  2  1  0
  2  3  2  0
  2 20  1  0
  3  4  1  0
  4  5  1  0
  4 18  2  0
  5  6  2  0
  5  7  2  0
  5  8  1  6
  8  9  1  0
  9 10  1  0
 10 11  1  0
 11 12  2  0
 11 17  1  0
 13 12  1  1
 13 14  2  0
 13 15  2  0
 13 16  1  0
 16 17  2  0
 18 19  1  0
 19 20  2  0
 20 21  1  0
M  END
