
     RDKit          3D

 21 22  0  0  0  0  0  0  0  0999 V2000
   -7.3480   -0.5160   -0.1860 N   0  0  0  0  0  0  0  0  0  0  0  0
   -5.9370   -0.8450   -0.2000 C   0  0  0  0  0  0  0  0  0  0  0  0
   -5.6760   -2.0410   -0.3430 O   0  0  0  0  0  0  0  0  0  0  0  0
   -4.9830    0.1820   -0.0560 N   0  0  0  0  0  0  0  0  0  0  0  0
   -3.5920   -0.0150   -0.0500 C   0  0  0  0  0  0  0  0  0  0  0  0
   -2.7790    1.1360   -0.1030 C   0  0  0  0  0  0  0  0  0  0  0  0
   -1.4090    1.0250   -0.0900 C   0  0  0  0  0  0  0  0  0  0  0  0
   -0.7740   -0.1980   -0.0270 C   0  0  0  0  0  0  0  0  0  0  0  0
    0.6020   -0.2430   -0.0190 O   0  0  0  0  0  0  0  0  0  0  0  0
    1.3290    0.9640   -0.0750 C   0  0  0  0  0  0  0  0  0  0  0  0
    2.7720    0.7760   -0.0590 C   0  0  0  0  0  0  0  0  0  0  0  0
    3.5910   -0.3120   -0.0010 C   0  0  0  0  0  0  0  0  0  0  0  0
    4.9150   -0.1300   -0.0040 C   0  0  0  0  0  0  0  0  0  0  0  0
    6.0410   -1.5290    0.0700 S   0  0  2  0  0  0  0  0  0  0  0  0
    6.5410   -1.6460    1.4720 O   0  0  0  0  0  0  0  0  0  0  0  0
    7.1900   -1.2760   -0.8670 O   0  0  0  0  0  0  0  0  0  0  0  0
    5.4400    1.1170   -0.0630 C   0  0  0  0  0  0  0  0  0  0  0  0
    7.0630    1.8020   -0.0890 S   0  0  0  0  0  0  0  0  0  0  0  0
    3.8830    2.1320   -0.1200 S   0  0  0  0  0  0  0  0  0  0  0  0
   -1.5830   -1.3100    0.0240 C   0  0  0  0  0  0  0  0  0  0  0  0
   -2.9860   -1.2350    0.0140 C   0  0  0  0  0  0  0  0  0  0  0  0
  1  2  1  0
  2  3  2  0
  2  4  1  0
  4  5  1  0
  5  6  2  0
  5 21  1  0
  6  7  1  0
  7  8  2  0
  8  9  1  0
  8 20  1  0
  9 10  1  0
 10 11  1  0
 11 12  2  0
 11 19  1  0
 12 13  1  0
 14 13  1  1
 13 17  2  0
 14 15  2  0
 14 16  2  0
 17 18  1  0
 17 19  1  0
 20 21  2  0
M  END
