
     RDKit          3D

 21 22  0  0  0  0  0  0  0  0999 V2000
   -6.1180    0.6630    0.6950 C   0  0  0  0  0  0  0  0  0  0  0  0
   -6.5350   -0.3350   -0.3600 C   0  0  0  0  0  0  0  0  0  0  0  0
   -5.8160   -1.4710   -0.4030 O   0  0  0  0  0  0  0  0  0  0  0  0
   -4.5100   -1.5010   -0.6590 C   0  0  0  0  0  0  0  0  0  0  0  0
   -3.5350   -0.8030    0.1970 C   0  0  0  0  0  0  0  0  0  0  0  0
   -2.2070   -1.0630   -0.3870 N   0  0  0  0  0  0  0  0  0  0  0  0
   -1.0110   -0.5140    0.2200 C   0  0  0  0  0  0  0  0  0  0  0  0
   -1.2150    0.1680    1.2360 O   0  0  0  0  0  0  0  0  0  0  0  0
    0.2500   -0.7720   -0.3500 N   0  0  0  0  0  0  0  0  0  0  0  0
    1.4490   -0.2710    0.2160 C   0  0  0  0  0  0  0  0  0  0  0  0
    1.4920    0.1540    1.5150 C   0  0  0  0  0  0  0  0  0  0  0  0
    2.6840    0.6610    2.0370 C   0  0  0  0  0  0  0  0  0  0  0  0
    3.7750    0.7160    1.2230 C   0  0  0  0  0  0  0  0  0  0  0  0
    3.7840    0.3040   -0.0810 C   0  0  0  0  0  0  0  0  0  0  0  0
    2.5810   -0.2010   -0.5880 C   0  0  0  0  0  0  0  0  0  0  0  0
    4.9910    0.4240   -0.7670 N   0  0  0  0  0  0  0  0  0  0  0  0
    5.8730    1.4570   -0.2710 C   0  0  2  0  0  0  0  0  0  0  0  0
    7.5430    0.9620   -0.4460 S   0  0  1  0  0  0  0  0  0  0  0  0
    7.8830    0.6880   -1.8930 O   0  0  0  0  0  0  0  0  0  0  0  0
    8.4150    2.0970    0.0650 O   0  0  0  0  0  0  0  0  0  0  0  0
    5.4580    1.3110    1.5220 S   0  0  0  0  0  0  0  0  0  0  0  0
  1  2  1  0
  2  3  1  0
  3  4  1  0
  4  5  1  0
  5  6  1  0
  6  7  1  0
  7  8  2  0
  7  9  1  0
  9 10  1  0
 10 11  2  0
 10 15  1  0
 11 12  1  0
 12 13  2  0
 13 14  1  0
 13 21  1  0
 14 15  2  0
 14 16  1  0
 17 16  1  6
 18 17  1  6
 17 21  1  0
 18 19  2  0
 18 20  2  0
M  END
