
     RDKit          3D

 21 22  0  0  0  0  0  0  0  0999 V2000
    5.6640   -0.5600   -1.4930 N   0  0  0  0  0  0  0  0  0  0  0  0
    6.3410    0.6330   -1.1200 C   0  0  0  0  0  0  0  0  0  0  0  0
    7.1060    1.2160   -1.9270 O   0  0  0  0  0  0  0  0  0  0  0  0
    6.1200    1.1640    0.2410 C   0  0  0  0  0  0  0  0  0  0  0  0
    4.9670    0.1290    1.1820 S   0  0  0  0  0  0  0  0  0  0  0  0
    3.3430    0.1730    0.4930 C   0  0  0  0  0  0  0  0  0  0  0  0
    3.0560    0.8640   -0.5380 O   0  0  0  0  0  0  0  0  0  0  0  0
    2.3130   -0.5900    1.1080 N   0  0  0  0  0  0  0  0  0  0  0  0
    0.9750   -0.5910    0.5780 C   0  0  0  0  0  0  0  0  0  0  0  0
    0.7920    0.1200   -0.4420 O   0  0  0  0  0  0  0  0  0  0  0  0
   -0.0730   -1.3920    1.2290 C   0  0  0  0  0  0  0  0  0  0  0  0
   -1.3200   -1.3180    0.6850 O   0  0  0  0  0  0  0  0  0  0  0  0
   -1.8610   -0.0670    0.7240 C   0  0  0  0  0  0  0  0  0  0  0  0
   -3.2380   -0.1290    0.0900 C   0  0  0  0  0  0  0  0  0  0  0  0
   -4.1150    0.8770   -0.1140 C   0  0  0  0  0  0  0  0  0  0  0  0
   -5.3110    0.5520   -0.7190 C   0  0  0  0  0  0  0  0  0  0  0  0
   -6.4180    1.5230   -1.0350 C   0  0  0  0  0  0  0  0  0  0  0  0
   -7.6680    0.4820   -1.8020 S   0  0  0  0  0  0  0  0  0  0  0  0
   -6.6820   -1.0540   -1.6510 C   0  0  0  0  0  0  0  0  0  0  0  0
   -5.6020   -0.5830   -1.0690 C   0  0  0  0  0  0  0  0  0  0  0  0
   -4.0050   -1.5170   -0.5250 S   0  0  0  0  0  0  0  0  0  0  0  0
  1  2  1  0
  2  3  2  0
  2  4  1  0
  4  5  1  0
  5  6  1  0
  6  7  2  0
  6  8  1  0
  8  9  1  0
  9 10  2  0
  9 11  1  0
 11 12  1  0
 12 13  1  0
 13 14  1  0
 14 15  2  0
 14 21  1  0
 15 16  1  0
 16 17  2  0
 16 20  1  0
 17 18  1  0
 18 19  1  0
 19 20  2  0
 20 21  1  0
M  END
