
     RDKit          3D

 24 25  0  0  0  0  0  0  0  0999 V2000
    6.1640   -0.7520   -0.9160 C   0  0  0  0  0  0  0  0  0  0  0  0
    5.3880    0.3960   -1.4890 C   0  0  0  0  0  0  0  0  0  0  0  0
    4.0490    0.4930   -0.8530 C   0  0  0  0  0  0  0  0  0  0  0  0
    2.9080    0.0840   -1.5050 C   0  0  0  0  0  0  0  0  0  0  0  0
    1.6550    0.1570   -0.9580 C   0  0  0  0  0  0  0  0  0  0  0  0
    0.5410   -0.2760   -1.6770 O   0  0  0  0  0  0  0  0  0  0  0  0
    1.4750    0.6700    0.3330 C   0  0  0  0  0  0  0  0  0  0  0  0
    0.1530    0.7170    0.8310 N   0  0  0  0  0  0  0  0  0  0  0  0
   -0.2780    1.1660    2.0960 C   0  0  0  0  0  0  0  0  0  0  0  0
    0.5830    1.5900    2.9040 O   0  0  0  0  0  0  0  0  0  0  0  0
   -1.6810    1.1880    2.5700 C   0  0  0  0  0  0  0  0  0  0  0  0
   -2.6470    0.6600    1.6630 N   0  0  0  0  0  0  0  0  0  0  0  0
   -2.6840   -0.6790    1.2100 C   0  0  0  0  0  0  0  0  0  0  0  0
   -1.7990   -1.4890    1.6410 O   0  0  0  0  0  0  0  0  0  0  0  0
   -3.6870   -1.2010    0.2630 C   0  0  0  0  0  0  0  0  0  0  0  0
   -3.4740   -2.4560   -0.3260 C   0  0  0  0  0  0  0  0  0  0  0  0
   -4.3930   -2.9250   -1.1810 N   0  0  0  0  0  0  0  0  0  0  0  0
   -5.5020   -2.2310   -1.4850 C   0  0  0  0  0  0  0  0  0  0  0  0
   -5.7510   -0.9960   -0.9300 C   0  0  0  0  0  0  0  0  0  0  0  0
   -6.9940   -0.2230   -1.2740 C   0  0  0  0  0  0  0  0  0  0  0  0
   -4.8200   -0.4920   -0.0470 C   0  0  0  0  0  0  0  0  0  0  0  0
    2.5980    1.0810    0.9920 C   0  0  0  0  0  0  0  0  0  0  0  0
    3.8610    0.9950    0.4130 C   0  0  0  0  0  0  0  0  0  0  0  0
    5.0780    1.4510    1.1520 C   0  0  0  0  0  0  0  0  0  0  0  0
  1  2  1  0
  2  3  1  0
  3  4  2  0
  3 23  1  0
  4  5  1  0
  5  6  1  0
  5  7  2  0
  7  8  1  0
  7 22  1  0
  8  9  1  0
  9 10  2  0
  9 11  1  0
 11 12  1  0
 12 13  1  0
 13 14  2  0
 13 15  1  0
 15 16  2  0
 15 21  1  0
 16 17  1  0
 17 18  2  0
 18 19  1  0
 19 20  1  0
 19 21  2  0
 22 23  2  0
 23 24  1  0
M  END
