
     RDKit          3D

 25 26  0  0  0  0  0  0  0  0999 V2000
    5.4430   -0.5120   -0.8950 C   0  0  0  0  0  0  0  0  0  0  0  0
    4.6770   -0.3770    0.1730 C   0  0  0  0  0  0  0  0  0  0  0  0
    5.1580   -0.8590    1.3620 O   0  0  0  0  0  0  0  0  0  0  0  0
    3.3710    0.2590    0.1020 C   0  0  0  0  0  0  0  0  0  0  0  0
    2.6050    0.3980    1.1510 C   0  0  0  0  0  0  0  0  0  0  0  0
    3.0170   -0.0840    2.4800 C   0  0  0  0  0  0  0  0  0  0  0  0
    2.9170    0.7440   -1.2410 C   0  0  0  0  0  0  0  0  0  0  0  0
    1.5890    1.3080   -1.2310 N   0  0  0  0  0  0  0  0  0  0  0  0
    0.4280    0.5270   -1.0080 C   0  0  0  0  0  0  0  0  0  0  0  0
    0.5370   -0.8270   -0.8210 N   0  0  0  0  0  0  0  0  0  0  0  0
   -0.5380   -1.6070   -0.6230 C   0  0  0  0  0  0  0  0  0  0  0  0
   -0.4410   -3.0720   -0.4190 C   0  0  0  0  0  0  0  0  0  0  0  0
    0.9070   -3.5510   -0.4570 N   0  0  0  0  0  0  0  0  0  0  0  0
   -1.8010   -1.0210   -0.6080 C   0  0  0  0  0  0  0  0  0  0  0  0
   -2.9550   -1.8350   -0.3990 C   0  0  0  0  0  0  0  0  0  0  0  0
   -3.5200   -2.3310   -1.4340 O   0  0  0  0  0  0  0  0  0  0  0  0
   -3.5210   -2.1350    0.8250 O   0  0  0  0  0  0  0  0  0  0  0  0
   -4.6710   -2.9580    0.8900 C   0  0  0  0  0  0  0  0  0  0  0  0
   -1.9440    0.3150   -0.7890 C   0  0  0  0  0  0  0  0  0  0  0  0
   -0.8080    1.1140   -0.9940 C   0  0  0  0  0  0  0  0  0  0  0  0
   -1.0590    2.5470   -1.1770 C   0  0  0  0  0  0  0  0  0  0  0  0
   -2.0390    3.0740   -0.1480 C   0  0  2  0  0  0  0  0  0  0  0  0
   -1.2340    3.4370    1.0880 C   0  0  0  0  0  0  0  0  0  0  0  0
   -3.1650    2.1310    0.1630 C   0  0  0  0  0  0  0  0  0  0  0  0
   -3.2540    0.9510   -0.7810 C   0  0  0  0  0  0  0  0  0  0  0  0
  1  2  2  0
  2  3  1  0
  2  4  1  0
  4  5  2  3
  4  7  1  0
  5  6  1  0
  7  8  1  0
  8  9  1  0
  9 10  2  0
  9 20  1  0
 10 11  1  0
 11 12  1  0
 11 14  2  0
 12 13  1  0
 14 15  1  0
 14 19  1  0
 15 16  2  0
 15 17  1  0
 17 18  1  0
 19 20  2  0
 19 25  1  0
 20 21  1  0
 21 22  1  0
 22 23  1  1
 22 24  1  0
 24 25  1  0
M  END
