
     RDKit          3D

 25 27  0  0  0  0  0  0  0  0999 V2000
    8.1380   -0.3860    1.0860 C   0  0  0  0  0  0  0  0  0  0  0  0
    7.0830    0.4330    0.4330 C   0  0  0  0  0  0  0  0  0  0  0  0
    7.1890    1.7700    0.1290 C   0  0  0  0  0  0  0  0  0  0  0  0
    5.9800    2.1130   -0.4640 C   0  0  0  0  0  0  0  0  0  0  0  0
    5.2080    0.9730   -0.4890 C   0  0  0  0  0  0  0  0  0  0  0  0
    3.8630    0.8440   -1.0160 C   0  0  0  0  0  0  0  0  0  0  0  0
    3.2010   -0.2890   -0.9970 C   0  0  0  0  0  0  0  0  0  0  0  0
    1.9030   -0.3660   -1.5180 N   0  0  0  0  0  0  0  0  0  0  0  0
    0.8400   -0.7700   -0.6070 C   0  0  0  0  0  0  0  0  0  0  0  0
    1.1370   -1.0250    0.5820 O   0  0  0  0  0  0  0  0  0  0  0  0
   -0.5160   -0.8700   -1.0540 C   0  0  0  0  0  0  0  0  0  0  0  0
   -1.5020   -1.2510   -0.2990 C   0  0  0  0  0  0  0  0  0  0  0  0
   -2.8360   -1.3100   -0.8410 N   0  0  0  0  0  0  0  0  0  0  0  0
   -3.7280   -0.2490   -0.6250 C   0  0  0  0  0  0  0  0  0  0  0  0
   -3.1810    0.9460   -0.4750 C   0  0  0  0  0  0  0  0  0  0  0  0
   -3.8000    2.2480   -0.2380 C   0  0  0  0  0  0  0  0  0  0  0  0
   -5.0980    2.1960    0.5190 C   0  0  0  0  0  0  0  0  0  0  0  0
   -6.2620    1.7690   -0.3460 C   0  0  0  0  0  0  0  0  0  0  0  0
   -6.2900    0.3180   -0.3060 N   0  0  0  0  0  0  0  0  0  0  0  0
   -5.1600   -0.5140   -0.5810 C   0  0  0  0  0  0  0  0  0  0  0  0
   -5.4440   -1.7160   -0.8360 O   0  0  0  0  0  0  0  0  0  0  0  0
   -1.4090   -1.7440    1.0950 C   0  0  2  0  0  0  0  0  0  0  0  0
   -0.5440   -2.9550    1.2830 C   0  0  0  0  0  0  0  0  0  0  0  0
   -2.0510   -3.1200    1.3690 C   0  0  0  0  0  0  0  0  0  0  0  0
    5.9040   -0.0020    0.0540 O   0  0  0  0  0  0  0  0  0  0  0  0
  1  2  1  0
  2  3  2  0
  2 25  1  0
  3  4  1  0
  4  5  2  0
  5  6  1  0
  5 25  1  0
  6  7  2  3
  7  8  1  0
  8  9  1  0
  9 10  2  0
  9 11  1  0
 11 12  2  3
 12 13  1  0
 22 12  1  6
 13 14  1  0
 14 15  2  0
 14 20  1  0
 15 16  1  0
 16 17  1  0
 17 18  1  0
 18 19  1  0
 19 20  1  0
 20 21  2  0
 22 23  1  0
 22 24  1  0
 23 24  1  0
M  END
