
     RDKit          3D

 25 26  0  0  0  0  0  0  0  0999 V2000
   -2.8950   -1.4710   -0.5100 C   0  0  0  0  0  0  0  0  0  0  0  0
   -3.2330   -0.2030   -0.2220 C   0  0  0  0  0  0  0  0  0  0  0  0
   -2.1590    0.7500   -0.3070 C   0  0  0  0  0  0  0  0  0  0  0  0
   -0.8360    0.1830   -0.1660 C   0  0  0  0  0  0  0  0  0  0  0  0
    0.2090    0.4000   -1.0850 N   0  0  0  0  0  0  0  0  0  0  0  0
    1.5920    0.4060   -0.7500 C   0  0  0  0  0  0  0  0  0  0  0  0
    2.3140    1.5640   -0.8390 C   0  0  0  0  0  0  0  0  0  0  0  0
    3.6900    1.5800   -0.6980 C   0  0  0  0  0  0  0  0  0  0  0  0
    4.3800    0.4280   -0.4620 C   0  0  0  0  0  0  0  0  0  0  0  0
    5.7320    0.3530   -0.3130 O   0  0  0  0  0  0  0  0  0  0  0  0
    6.6330    1.4460   -0.4230 C   0  0  0  0  0  0  0  0  0  0  0  0
    3.6500   -0.7720   -0.3730 C   0  0  0  0  0  0  0  0  0  0  0  0
    4.3700   -1.9510   -0.1450 O   0  0  0  0  0  0  0  0  0  0  0  0
    4.8030   -2.2110    1.2110 C   0  0  0  0  0  0  0  0  0  0  0  0
    2.2940   -0.7990   -0.5140 C   0  0  0  0  0  0  0  0  0  0  0  0
    1.5470   -2.0100   -0.6410 C   0  0  0  0  0  0  0  0  0  0  0  0
    1.7810   -3.2770   -0.0780 N   0  0  0  0  0  0  0  0  0  0  0  0
    0.4460   -2.0060   -1.3840 O   0  0  0  0  0  0  0  0  0  0  0  0
   -2.4510    2.0580   -0.1940 N   0  0  0  0  0  0  0  0  0  0  0  0
   -3.7310    2.4860    0.0020 C   0  0  0  0  0  0  0  0  0  0  0  0
   -4.0480    3.9590    0.2110 C   0  0  0  0  0  0  0  0  0  0  0  0
   -4.7450    1.5710    0.0810 C   0  0  0  0  0  0  0  0  0  0  0  0
   -4.5200    0.1810   -0.0260 C   0  0  0  0  0  0  0  0  0  0  0  0
   -5.5340   -0.6200    0.1320 C   0  0  0  0  0  0  0  0  0  0  0  0
   -5.6530   -2.0700    0.1620 C   0  0  0  0  0  0  0  0  0  0  0  0
  1  2  2  0
  2  3  1  0
  2 23  1  0
  3  4  1  0
  3 19  2  0
  4  5  1  0
  5  6  1  0
  6  7  2  0
  6 15  1  0
  7  8  1  0
  8  9  2  0
  9 10  1  0
  9 12  1  0
 10 11  1  0
 12 13  1  0
 12 15  2  0
 13 14  1  0
 15 16  1  0
 16 17  1  0
 16 18  2  0
 19 20  1  0
 20 21  1  0
 20 22  2  0
 22 23  1  0
 23 24  2  3
 24 25  1  0
M  END
