
     RDKit          3D

 24 25  0  0  0  0  0  0  0  0999 V2000
    5.1430   -3.1800    1.1890 C   0  0  0  0  0  0  0  0  0  0  0  0
    5.5500   -1.7680    1.0950 C   0  0  0  0  0  0  0  0  0  0  0  0
    6.8500   -1.3750    1.2850 C   0  0  0  0  0  0  0  0  0  0  0  0
    7.2210   -0.0770    1.1980 N   0  0  0  0  0  0  0  0  0  0  0  0
    6.3190    0.8790    0.9200 C   0  0  0  0  0  0  0  0  0  0  0  0
    4.9860    0.4980    0.7220 C   0  0  0  0  0  0  0  0  0  0  0  0
    4.5760   -0.8110    0.8030 C   0  0  0  0  0  0  0  0  0  0  0  0
    3.2460   -1.2330    0.6120 N   0  0  0  0  0  0  0  0  0  0  0  0
    2.1150   -0.4480    0.3110 C   0  0  0  0  0  0  0  0  0  0  0  0
    2.2510    0.7870    0.1860 O   0  0  0  0  0  0  0  0  0  0  0  0
    0.7560   -1.0710    0.1380 C   0  0  0  0  0  0  0  0  0  0  0  0
   -0.2690    0.0010   -0.1840 C   0  0  0  0  0  0  0  0  0  0  0  0
   -1.5450   -0.5170   -0.3540 O   0  0  0  0  0  0  0  0  0  0  0  0
   -2.6760    0.1940   -0.6510 C   0  0  0  0  0  0  0  0  0  0  0  0
   -3.0580    0.4210   -1.9570 C   0  0  0  0  0  0  0  0  0  0  0  0
   -2.2630   -0.0920   -3.0930 C   0  0  0  0  0  0  0  0  0  0  0  0
   -4.2060    1.1420   -2.2680 C   0  0  0  0  0  0  0  0  0  0  0  0
   -5.0080    1.6580   -1.2630 C   0  0  0  0  0  0  0  0  0  0  0  0
   -6.2100    2.4120   -1.6040 C   0  0  0  0  0  0  0  0  0  0  0  0
   -6.9010    2.8570   -0.6620 O   0  0  0  0  0  0  0  0  0  0  0  0
   -4.6330    1.4340    0.0380 C   0  0  0  0  0  0  0  0  0  0  0  0
   -5.4750    1.9750    1.0630 N   0  0  0  0  0  0  0  0  0  0  0  0
   -3.4930    0.7180    0.3350 C   0  0  0  0  0  0  0  0  0  0  0  0
   -3.1240    0.4990    1.7630 C   0  0  0  0  0  0  0  0  0  0  0  0
  1  2  1  0
  2  3  2  0
  2  7  1  0
  3  4  1  0
  4  5  2  0
  5  6  1  0
  6  7  2  0
  7  8  1  0
  8  9  1  0
  9 10  2  0
  9 11  1  0
 11 12  1  0
 12 13  1  0
 13 14  1  0
 14 15  2  0
 14 23  1  0
 15 16  1  0
 15 17  1  0
 17 18  2  0
 18 19  1  0
 18 21  1  0
 19 20  2  0
 21 22  1  0
 21 23  2  0
 23 24  1  0
M  END
