
     RDKit          3D

 25 26  0  0  0  0  0  0  0  0999 V2000
   -0.4090   -2.5470    1.0790 C   0  0  0  0  0  0  0  0  0  0  0  0
   -1.1790   -1.4880    0.4210 C   0  0  0  0  0  0  0  0  0  0  0  0
   -2.4670   -1.6570    0.3820 O   0  0  0  0  0  0  0  0  0  0  0  0
   -0.6470   -0.3090   -0.1710 C   0  0  0  0  0  0  0  0  0  0  0  0
   -1.5330    0.5650   -0.7400 C   0  0  0  0  0  0  0  0  0  0  0  0
   -2.9110    0.3640   -0.7690 N   0  0  0  0  0  0  0  0  0  0  0  0
   -3.7160    0.7350    0.3770 C   0  0  0  0  0  0  0  0  0  0  0  0
   -4.9570    0.3500    0.5200 C   0  0  0  0  0  0  0  0  0  0  0  0
   -5.8280    0.6520    1.5890 N   0  0  0  0  0  0  0  0  0  0  0  0
   -5.5550    1.4280    2.7270 C   0  0  0  0  0  0  0  0  0  0  0  0
   -4.4380    1.9480    2.8940 O   0  0  0  0  0  0  0  0  0  0  0  0
   -5.4940   -0.5230   -0.5900 C   0  0  0  0  0  0  0  0  0  0  0  0
   -5.0140    0.0040   -1.9140 C   0  0  0  0  0  0  0  0  0  0  0  0
   -3.5030   -0.1730   -1.9610 C   0  0  0  0  0  0  0  0  0  0  0  0
    0.7380    0.1250   -0.2680 C   0  0  0  0  0  0  0  0  0  0  0  0
    0.9610    1.2670   -0.8700 O   0  0  0  0  0  0  0  0  0  0  0  0
    1.8470   -0.5630    0.2210 N   0  0  0  0  0  0  0  0  0  0  0  0
    3.1990   -0.0800    0.1070 C   0  0  0  0  0  0  0  0  0  0  0  0
    4.2050   -1.0570    0.1940 C   0  0  0  0  0  0  0  0  0  0  0  0
    5.5240   -0.6910    0.1200 C   0  0  0  0  0  0  0  0  0  0  0  0
    6.5690   -1.7530    0.2160 C   0  0  0  0  0  0  0  0  0  0  0  0
    5.8900    0.6350   -0.0400 C   0  0  0  0  0  0  0  0  0  0  0  0
    4.9040    1.5890   -0.1250 C   0  0  0  0  0  0  0  0  0  0  0  0
    5.2810    3.0110   -0.2960 C   0  0  0  0  0  0  0  0  0  0  0  0
    3.5460    1.2280   -0.0500 C   0  0  0  0  0  0  0  0  0  0  0  0
  1  2  1  0
  2  3  2  0
  2  4  1  0
  4  5  2  3
  4 15  1  0
  5  6  1  0
  6  7  1  0
  6 14  1  0
  7  8  2  0
  8  9  1  0
  8 12  1  0
  9 10  1  0
 10 11  2  0
 12 13  1  0
 13 14  1  0
 15 16  2  0
 15 17  1  0
 17 18  1  0
 18 19  2  0
 18 25  1  0
 19 20  1  0
 20 21  1  0
 20 22  2  0
 22 23  1  0
 23 24  1  0
 23 25  2  0
M  END
