
     RDKit          3D

 25 26  0  0  0  0  0  0  0  0999 V2000
    5.4940   -2.3110    0.8120 C   0  0  0  0  0  0  0  0  0  0  0  0
    6.0490   -1.3510    1.5050 C   0  0  0  0  0  0  0  0  0  0  0  0
    5.2310   -0.3510    2.1690 C   0  0  0  0  0  0  0  0  0  0  0  0
    5.8500    0.5900    2.8620 C   0  0  0  0  0  0  0  0  0  0  0  0
    7.3230    0.6140    2.9500 C   0  0  0  0  0  0  0  0  0  0  0  0
    3.8190   -0.3530    2.0940 N   0  0  0  0  0  0  0  0  0  0  0  0
    3.0290   -0.2120    0.9420 C   0  0  0  0  0  0  0  0  0  0  0  0
    3.6110   -0.0600   -0.1570 O   0  0  0  0  0  0  0  0  0  0  0  0
    1.5590   -0.2340    0.9690 C   0  0  0  0  0  0  0  0  0  0  0  0
    1.0180   -0.3860    2.0770 O   0  0  0  0  0  0  0  0  0  0  0  0
    0.7560   -0.0970   -0.1600 N   0  0  0  0  0  0  0  0  0  0  0  0
   -0.6350   -0.0780   -0.3320 C   0  0  0  0  0  0  0  0  0  0  0  0
   -1.5090    0.9530    0.2230 C   0  0  2  0  0  0  0  0  0  0  0  0
   -1.5260    1.0850    1.7180 C   0  0  0  0  0  0  0  0  0  0  0  0
   -2.9240    0.6310   -0.1790 C   0  0  0  0  0  0  0  0  0  0  0  0
   -3.7620    0.3480    0.7380 O   0  0  0  0  0  0  0  0  0  0  0  0
   -3.3750    0.6250   -1.5500 C   0  0  0  0  0  0  0  0  0  0  0  0
   -2.7220    1.0770   -2.6760 C   0  0  0  0  0  0  0  0  0  0  0  0
   -3.5220    0.9000   -3.7630 N   0  0  0  0  0  0  0  0  0  0  0  0
   -4.6990    0.3380   -3.3810 C   0  0  0  0  0  0  0  0  0  0  0  0
   -5.8260   -0.0390   -4.0770 C   0  0  0  0  0  0  0  0  0  0  0  0
   -6.9100   -0.6000   -3.4430 C   0  0  0  0  0  0  0  0  0  0  0  0
   -6.8140   -0.7680   -2.0790 C   0  0  0  0  0  0  0  0  0  0  0  0
   -5.6830   -0.3910   -1.3720 C   0  0  0  0  0  0  0  0  0  0  0  0
   -4.5960    0.1740   -2.0170 C   0  0  0  0  0  0  0  0  0  0  0  0
  1  2  2  0
  2  3  1  0
  3  4  2  3
  3  6  1  0
  4  5  1  0
  6  7  1  0
  7  8  2  0
  7  9  1  0
  9 10  2  0
  9 11  1  0
 11 12  1  0
 12 13  1  0
 13 14  1  1
 13 15  1  0
 15 16  2  0
 15 17  1  0
 17 18  2  0
 17 25  1  0
 18 19  1  0
 19 20  1  0
 20 21  2  0
 20 25  1  0
 21 22  1  0
 22 23  2  0
 23 24  1  0
 24 25  2  0
M  END
