
     RDKit          3D

 25 26  0  0  0  0  0  0  0  0999 V2000
    5.6440    2.0400    1.4860 C   0  0  0  0  0  0  0  0  0  0  0  0
    5.9160    1.2300    0.5510 C   0  0  0  0  0  0  0  0  0  0  0  0
    5.1700    0.3170   -0.2350 C   0  0  0  0  0  0  0  0  0  0  0  0
    5.9050   -0.3680   -1.1530 C   0  0  0  0  0  0  0  0  0  0  0  0
    5.3230   -1.3480   -2.0540 C   0  0  0  0  0  0  0  0  0  0  0  0
    3.7660    0.0410   -0.1700 C   0  0  0  0  0  0  0  0  0  0  0  0
    3.3080   -0.8440   -1.0020 O   0  0  0  0  0  0  0  0  0  0  0  0
    2.8100    0.6060    0.6820 N   0  0  0  0  0  0  0  0  0  0  0  0
    1.4290    0.2790    0.6650 C   0  0  0  0  0  0  0  0  0  0  0  0
    0.8070   -0.1830   -0.4550 C   0  0  0  0  0  0  0  0  0  0  0  0
   -0.5440   -0.5100   -0.3930 C   0  0  0  0  0  0  0  0  0  0  0  0
   -1.3030   -0.3940    0.7430 C   0  0  0  0  0  0  0  0  0  0  0  0
   -2.7150   -0.7730    0.6970 C   0  0  2  0  0  0  0  0  0  0  0  0
   -2.8900   -2.1100    0.0200 C   0  0  0  0  0  0  0  0  0  0  0  0
   -4.3810   -2.4690    0.0040 C   0  0  0  0  0  0  0  0  0  0  0  0
   -3.5860    0.2360    0.0810 C   0  0  0  0  0  0  0  0  0  0  0  0
   -4.1970    1.1880    0.8680 C   0  0  0  0  0  0  0  0  0  0  0  0
   -5.0250    2.1650    0.3450 C   0  0  0  0  0  0  0  0  0  0  0  0
   -5.5900    3.0410    1.0510 O   0  0  0  0  0  0  0  0  0  0  0  0
   -5.2520    2.2030   -0.9800 N   0  0  0  0  0  0  0  0  0  0  0  0
   -4.6530    1.2720   -1.7440 C   0  0  0  0  0  0  0  0  0  0  0  0
   -4.8900    1.3380   -2.9900 O   0  0  0  0  0  0  0  0  0  0  0  0
   -3.8400    0.3100   -1.2410 N   0  0  0  0  0  0  0  0  0  0  0  0
   -0.6660    0.0750    1.8710 C   0  0  0  0  0  0  0  0  0  0  0  0
    0.6640    0.4020    1.8270 C   0  0  0  0  0  0  0  0  0  0  0  0
  1  2  2  0
  2  3  1  0
  3  4  2  3
  3  6  1  0
  4  5  1  0
  6  7  2  0
  6  8  1  0
  8  9  1  0
  9 10  2  0
  9 25  1  0
 10 11  1  0
 11 12  2  0
 12 13  1  0
 12 24  1  0
 13 14  1  6
 13 16  1  0
 14 15  1  0
 16 17  2  0
 16 23  1  0
 17 18  1  0
 18 19  2  0
 18 20  1  0
 20 21  1  0
 21 22  2  0
 21 23  1  0
 24 25  2  0
M  END
