
     RDKit          3D

 25 27  0  0  0  0  0  0  0  0999 V2000
   -1.2120    2.9350    2.7210 C   0  0  0  0  0  0  0  0  0  0  0  0
   -0.2980    1.9340    2.3290 C   0  0  0  0  0  0  0  0  0  0  0  0
    0.5570    1.4990    3.3890 C   0  0  0  0  0  0  0  0  0  0  0  0
    1.5040    0.7220    3.7020 C   0  0  0  0  0  0  0  0  0  0  0  0
    2.3040   -0.2610    3.0110 C   0  0  0  0  0  0  0  0  0  0  0  0
    3.3210   -1.0260    3.6270 C   0  0  0  0  0  0  0  0  0  0  0  0
    3.8460   -1.8350    2.6660 C   0  0  0  0  0  0  0  0  0  0  0  0
    3.1700   -1.5730    1.4960 C   0  0  0  0  0  0  0  0  0  0  0  0
    3.4310   -2.2430    0.1900 C   0  0  0  0  0  0  0  0  0  0  0  0
    2.3200   -0.6690    1.7970 O   0  0  0  0  0  0  0  0  0  0  0  0
   -0.4690    1.6140    0.9650 C   0  0  0  0  0  0  0  0  0  0  0  0
   -1.4180    2.3140    0.3560 O   0  0  0  0  0  0  0  0  0  0  0  0
    0.1890    0.6590    0.0660 C   0  0  0  0  0  0  0  0  0  0  0  0
   -0.2870    0.7810   -1.3040 N   0  0  0  0  0  0  0  0  0  0  0  0
    0.3810    1.6590   -2.1910 C   0  0  0  0  0  0  0  0  0  0  0  0
    1.1010    2.6060   -1.7780 O   0  0  0  0  0  0  0  0  0  0  0  0
    0.2110    1.4360   -3.6610 C   0  0  0  0  0  0  0  0  0  0  0  0
   -1.1630    1.0560   -3.9060 N   0  0  0  0  0  0  0  0  0  0  0  0
   -1.8510    0.1670   -3.0290 C   0  0  0  0  0  0  0  0  0  0  0  0
   -2.9440   -0.5590   -3.4350 C   0  0  0  0  0  0  0  0  0  0  0  0
   -3.5910   -1.4060   -2.5640 C   0  0  0  0  0  0  0  0  0  0  0  0
   -3.1510   -1.5400   -1.2670 C   0  0  0  0  0  0  0  0  0  0  0  0
   -3.8200   -2.4180   -0.3590 N   0  0  0  0  0  0  0  0  0  0  0  0
   -2.0360   -0.8100   -0.8240 C   0  0  0  0  0  0  0  0  0  0  0  0
   -1.4070    0.0270   -1.7080 C   0  0  0  0  0  0  0  0  0  0  0  0
  1  2  2  0
  2  3  1  0
  2 11  1  0
  3  4  2  3
  4  5  1  0
  5  6  2  0
  5 10  1  0
  6  7  1  0
  7  8  2  0
  8  9  1  0
  8 10  1  0
 11 12  2  0
 11 13  1  0
 13 14  1  0
 14 15  1  0
 14 25  1  0
 15 16  2  0
 15 17  1  0
 17 18  1  0
 18 19  1  0
 19 20  2  0
 19 25  1  0
 20 21  1  0
 21 22  2  0
 22 23  1  0
 22 24  1  0
 24 25  2  0
M  END
