
     RDKit          3D

 18 17  0  0  0  0  0  0  0  0999 V2000
   -3.0200    1.7870    1.0510 O   0  0  0  0  0  0  0  0  0  0  0  0
   -3.6850    1.6770   -0.0030 C   0  0  0  0  0  0  0  0  0  0  0  0
   -4.5950    2.6670   -0.3410 O   0  0  0  0  0  0  0  0  0  0  0  0
   -3.4770    0.5250   -0.8240 N   0  0  0  0  0  0  0  0  0  0  0  0
   -2.5160   -0.5070   -0.4550 C   0  0  0  0  0  0  0  0  0  0  0  0
   -1.1680    0.1090   -0.3640 C   0  0  0  0  0  0  0  0  0  0  0  0
   -1.0110    1.3370   -0.5920 O   0  0  0  0  0  0  0  0  0  0  0  0
   -0.0130   -0.6420   -0.0230 N   0  0  0  0  0  0  0  0  0  0  0  0
   -0.1860   -2.0600    0.2450 C   0  0  0  0  0  0  0  0  0  0  0  0
   -0.4630   -2.3320    1.6940 C   0  0  0  0  0  0  0  0  0  0  0  0
   -0.6100   -3.7290    1.8190 O   0  0  0  0  0  0  0  0  0  0  0  0
    1.2920   -0.0480    0.0620 C   0  0  0  0  0  0  0  0  0  0  0  0
    2.2170   -0.0840   -1.5240 P   0  0  0  0  0  0  0  0  0  0  0  0
    1.4210    0.6420   -2.8280 O   0  0  0  0  0  0  0  0  0  0  0  0
    3.8430    0.3890   -1.2990 O   0  0  0  0  0  0  0  0  0  0  0  0
    3.9170    1.3620    0.1310 P   0  0  0  0  0  0  0  0  0  0  0  0
    4.0000    3.0310   -0.3080 O   0  0  0  0  0  0  0  0  0  0  0  0
    5.1870    0.8910    1.1900 O   0  0  0  0  0  0  0  0  0  0  0  0
  1  2  2  0
  2  3  1  0
  2  4  1  0
  4  5  1  0
  5  6  1  0
  6  7  2  0
  6  8  1  0
  8  9  1  0
  8 12  1  0
  9 10  1  0
 10 11  1  0
 12 13  1  0
 13 14  1  0
 13 15  1  0
 15 16  1  0
 16 17  1  0
 16 18  1  0
M  END
