
     RDKit          3D

 18 17  0  0  0  0  0  0  0  0999 V2000
    1.5860    2.0090   -0.2590 C   0  0  0  0  0  0  0  0  0  0  0  0
    0.4060    1.0780   -0.2930 N   0  0  0  0  0  0  0  0  0  0  0  0
   -0.0870    1.2700    1.0910 C   0  0  0  0  0  0  0  0  0  0  0  0
   -1.4030    0.7350    1.3400 C   0  0  0  0  0  0  0  0  0  0  0  0
   -1.7930    0.8130    2.5650 O   0  0  0  0  0  0  0  0  0  0  0  0
   -2.3280    0.1740    0.3890 N   0  0  0  0  0  0  0  0  0  0  0  0
   -3.5790   -0.2270    0.9360 C   0  0  0  0  0  0  0  0  0  0  0  0
   -4.5610   -0.4100   -0.1430 C   0  0  0  0  0  0  0  0  0  0  0  0
   -5.0380   -1.6250   -0.3460 O   0  0  0  0  0  0  0  0  0  0  0  0
   -5.0440    0.5510   -0.9990 O   0  0  0  0  0  0  0  0  0  0  0  0
   -5.8980    0.4140   -1.9940 O   0  0  0  0  0  0  0  0  0  0  0  0
    1.0660   -0.2690   -0.1720 C   0  0  0  0  0  0  0  0  0  0  0  0
    2.7970   -0.1720   -0.8070 P   0  0  0  0  0  0  0  0  0  0  0  0
    3.8550    0.3620    0.4950 O   0  0  0  0  0  0  0  0  0  0  0  0
    3.3740   -1.6990   -1.4100 O   0  0  0  0  0  0  0  0  0  0  0  0
    4.0260   -2.6010   -0.0900 P   0  0  0  0  0  0  0  0  0  0  0  0
    5.3560   -1.8540    0.6830 O   0  0  0  0  0  0  0  0  0  0  0  0
    2.7580   -2.8310    1.0660 O   0  0  0  0  0  0  0  0  0  0  0  0
  1  2  1  0
  2  3  1  0
  2 12  1  0
  3  4  1  0
  4  5  2  0
  4  6  1  0
  6  7  1  0
  7  8  1  0
  8  9  2  0
  8 10  1  0
 10 11  1  0
 12 13  1  0
 13 14  1  0
 13 15  1  0
 15 16  1  0
 16 17  1  0
 16 18  1  0
M  END
