
     RDKit          3D

 17 16  0  0  0  0  0  0  0  0999 V2000
    3.6310   -0.1970    2.0970 O   0  0  0  0  0  0  0  0  0  0  0  0
    4.1550   -0.8440    1.1730 C   0  0  0  0  0  0  0  0  0  0  0  0
    5.5660   -0.9040    1.1880 O   0  0  0  0  0  0  0  0  0  0  0  0
    3.3890   -1.4690    0.1870 N   0  0  0  0  0  0  0  0  0  0  0  0
    1.9510   -1.4200    0.1470 C   0  0  0  0  0  0  0  0  0  0  0  0
    1.5090    0.0030    0.0100 C   0  0  0  0  0  0  0  0  0  0  0  0
    0.0900    0.1640   -0.0450 N   0  0  0  0  0  0  0  0  0  0  0  0
   -0.2580    1.5580   -0.1570 C   0  0  0  0  0  0  0  0  0  0  0  0
    0.1610    2.0810   -1.5010 C   0  0  0  0  0  0  0  0  0  0  0  0
   -0.4630    1.3850   -2.5420 O   0  0  0  0  0  0  0  0  0  0  0  0
   -0.6040   -0.4680    1.0560 C   0  0  0  0  0  0  0  0  0  0  0  0
   -2.4170   -0.1400    0.7900 P   0  0  0  0  0  0  0  0  0  0  0  0
   -3.2730   -1.4810    1.4840 O   0  0  0  0  0  0  0  0  0  0  0  0
   -2.6880   -0.1960   -0.9260 O   0  0  0  0  0  0  0  0  0  0  0  0
   -4.3400    0.1110   -1.3340 P   0  0  0  0  0  0  0  0  0  0  0  0
   -4.8520    1.5180   -0.4570 O   0  0  0  0  0  0  0  0  0  0  0  0
   -5.2700   -1.2790   -0.8720 O   0  0  0  0  0  0  0  0  0  0  0  0
  1  2  2  0
  2  3  1  0
  2  4  1  0
  4  5  1  0
  5  6  1  0
  6  7  1  0
  7  8  1  0
  7 11  1  0
  8  9  1  0
  9 10  1  0
 11 12  1  0
 12 13  1  0
 12 14  1  0
 14 15  1  0
 15 16  1  0
 15 17  1  0
M  END
