
     RDKit          3D

 14 14  0  0  0  0  0  0  0  0999 V2000
   -1.7950    0.3450   -2.2310 O   0  0  0  0  0  0  0  0  0  0  0  0
   -1.0330    0.9880   -1.4690 C   0  0  0  0  0  0  0  0  0  0  0  0
   -0.4390    2.1430   -1.9140 O   0  0  0  0  0  0  0  0  0  0  0  0
   -0.7550    0.5120   -0.0650 C   0  0  2  0  0  0  0  0  0  0  0  0
    0.1040    1.3460    0.5890 O   0  0  0  0  0  0  0  0  0  0  0  0
    1.4030    1.3770    0.1930 C   0  0  0  0  0  0  0  0  0  0  0  0
    2.1580    0.0760    0.2870 C   0  0  0  0  0  0  0  0  0  0  0  0
    3.4590    0.3640   -0.1670 O   0  0  0  0  0  0  0  0  0  0  0  0
    4.2330   -0.6790   -0.1410 O   0  0  0  0  0  0  0  0  0  0  0  0
   -0.4600   -0.8260   -0.0330 O   0  0  0  0  0  0  0  0  0  0  0  0
   -1.2220   -1.5520    0.8720 C   0  0  0  0  0  0  0  0  0  0  0  0
   -2.7110   -1.3900    0.6390 C   0  0  0  0  0  0  0  0  0  0  0  0
   -2.9050   -0.1380    0.0500 O   0  0  0  0  0  0  0  0  0  0  0  0
   -2.0110    0.6670    0.5850 O   0  0  0  0  0  0  0  0  0  0  0  0
  1  2  2  0
  2  3  1  0
  2  4  1  0
  4  5  1  1
  4 10  1  0
  4 14  1  0
  5  6  1  0
  6  7  1  0
  7  8  1  0
  8  9  1  0
 10 11  1  0
 11 12  1  0
 12 13  1  0
 13 14  1  0
M  END
