
     RDKit          3D

 17 16  0  0  0  0  0  0  0  0999 V2000
   -2.2240   -2.9100   -1.9370 O   0  0  0  0  0  0  0  0  0  0  0  0
   -2.6220   -2.6540   -0.7900 C   0  0  0  0  0  0  0  0  0  0  0  0
   -3.6850   -3.3840   -0.2700 O   0  0  0  0  0  0  0  0  0  0  0  0
   -1.9760   -1.6330   -0.0630 N   0  0  0  0  0  0  0  0  0  0  0  0
   -0.8780   -0.8780   -0.6120 C   0  0  0  0  0  0  0  0  0  0  0  0
   -0.3720    0.1480    0.4150 C   0  0  1  0  0  0  0  0  0  0  0  0
    0.7550    0.8520   -0.2540 C   0  0  0  0  0  0  0  0  0  0  0  0
    2.1570   -0.3070   -0.6830 P   0  0  0  0  0  0  0  0  0  0  0  0
    3.4800    0.6800   -1.2170 O   0  0  0  0  0  0  0  0  0  0  0  0
    2.7000   -1.2280    0.6770 O   0  0  0  0  0  0  0  0  0  0  0  0
    4.2250   -1.9350    0.1810 P   0  0  0  0  0  0  0  0  0  0  0  0
    4.4100   -3.5560    0.6950 O   0  0  0  0  0  0  0  0  0  0  0  0
    5.5060   -0.9600    0.8110 O   0  0  0  0  0  0  0  0  0  0  0  0
   -1.4470    0.9240    0.8390 N   0  0  0  0  0  0  0  0  0  0  0  0
   -2.1260    1.8280    0.0380 C   0  0  0  0  0  0  0  0  0  0  0  0
   -1.4900    3.1610   -0.2500 C   0  0  0  0  0  0  0  0  0  0  0  0
   -1.2910    3.8540    0.9810 O   0  0  0  0  0  0  0  0  0  0  0  0
  1  2  2  0
  2  3  1  0
  2  4  1  0
  4  5  1  0
  6  5  1  6
  6  7  1  0
  6 14  1  0
  7  8  1  0
  8  9  1  0
  8 10  1  0
 10 11  1  0
 11 12  1  0
 11 13  1  0
 14 15  1  0
 15 16  1  0
 16 17  1  0
M  END
