
     RDKit          3D

 14 13  0  0  0  0  0  0  0  0999 V2000
   -2.3580   -2.4170    1.6000 O   0  0  0  0  0  0  0  0  0  0  0  0
   -1.6520   -2.5550    0.5810 C   0  0  0  0  0  0  0  0  0  0  0  0
   -1.1130   -1.4470   -0.0340 O   0  0  0  0  0  0  0  0  0  0  0  0
   -1.3200   -0.1300    0.4330 C   0  0  0  0  0  0  0  0  0  0  0  0
   -0.5720    0.7950   -0.5020 C   0  0  1  0  0  0  0  0  0  0  0  0
   -0.7000    2.2180   -0.1330 C   0  0  0  0  0  0  0  0  0  0  0  0
    0.3430    2.8710    0.1420 O   0  0  0  0  0  0  0  0  0  0  0  0
   -1.9230    2.8770   -0.0750 O   0  0  0  0  0  0  0  0  0  0  0  0
    0.8390    0.4290   -0.6780 C   0  0  0  0  0  0  0  0  0  0  0  0
    1.7160    1.2680   -0.3420 O   0  0  0  0  0  0  0  0  0  0  0  0
    1.2280   -0.8200   -1.2060 O   0  0  0  0  0  0  0  0  0  0  0  0
    2.5700   -1.0190   -1.3120 O   0  0  0  0  0  0  0  0  0  0  0  0
    3.4240   -0.9770   -0.2170 C   0  0  0  0  0  0  0  0  0  0  0  0
    2.8870   -0.7420    0.8970 O   0  0  0  0  0  0  0  0  0  0  0  0
  1  2  2  0
  2  3  1  0
  3  4  1  0
  5  4  1  1
  5  6  1  0
  5  9  1  0
  6  7  2  0
  6  8  1  0
  9 10  2  0
  9 11  1  0
 11 12  1  0
 12 13  1  0
 13 14  2  0
M  END
