
     RDKit          3D

 30 33  0  0  0  0  0  0  0  0999 V2000
   -7.3240    2.1970    2.1510 O   0  0  0  0  0  0  0  0  0  0  0  0
   -6.6480    2.0390    1.1050 C   0  0  0  0  0  0  0  0  0  0  0  0
   -5.6480    0.9380    1.0910 C   0  0  0  0  0  0  0  0  0  0  0  0
   -4.8120    0.9080   -0.4940 S   0  0  0  0  0  0  0  0  0  0  0  0
   -3.5930   -0.3940   -0.5860 C   0  0  1  0  0  0  0  0  0  0  0  0
   -2.4170   -0.1780    0.3740 C   0  0  0  0  0  0  0  0  0  0  0  0
   -1.3120   -1.0810   -0.1280 C   0  0  1  0  0  0  0  0  0  0  0  0
   -0.0850   -0.9270    0.6080 N   0  0  0  0  0  0  0  0  0  0  0  0
    1.0970   -0.4960   -0.0170 C   0  0  0  0  0  0  0  0  0  0  0  0
    1.0810   -0.2390   -1.2460 O   0  0  0  0  0  0  0  0  0  0  0  0
    2.3080   -0.3280    0.6350 O   0  0  0  0  0  0  0  0  0  0  0  0
    3.4770    0.0940    0.0370 C   0  0  0  0  0  0  0  0  0  0  0  0
    4.5570    0.2070    0.7800 C   0  0  0  0  0  0  0  0  0  0  0  0
    5.8440    0.6480    0.2340 C   0  0  0  0  0  0  0  0  0  0  0  0
    5.9180    0.9370   -1.0340 C   0  0  0  0  0  0  0  0  0  0  0  0
    7.1520    1.3590   -1.5550 O   0  0  0  0  0  0  0  0  0  0  0  0
    8.1270    1.9560   -0.6950 C   0  0  0  0  0  0  0  0  0  0  0  0
    8.2240    1.1890    0.6080 C   0  0  0  0  0  0  0  0  0  0  0  0
    6.9470    0.7520    1.0460 O   0  0  0  0  0  0  0  0  0  0  0  0
    4.8030    0.8250   -1.8230 O   0  0  0  0  0  0  0  0  0  0  0  0
    3.5290    0.4140   -1.3970 C   0  0  0  0  0  0  0  0  0  0  0  0
   -1.8270   -2.4820   -0.0550 C   0  0  0  0  0  0  0  0  0  0  0  0
   -1.2120   -3.6320    0.0780 O   0  0  0  0  0  0  0  0  0  0  0  0
   -2.0400   -4.6200    0.0960 N   0  0  0  0  0  0  0  0  0  0  0  0
   -3.2970   -4.1510   -0.0300 C   0  0  0  0  0  0  0  0  0  0  0  0
   -4.3790   -4.7950   -0.0560 O   0  0  0  0  0  0  0  0  0  0  0  0
   -3.1890   -2.7740   -0.1290 C   0  0  0  0  0  0  0  0  0  0  0  0
   -4.1140   -1.7070   -0.2770 N   0  0  0  0  0  0  0  0  0  0  0  0
   -6.8750    2.9060    0.0140 N   0  0  0  0  0  0  0  0  0  0  0  0
   -7.8020    3.8800    0.1120 O   0  0  0  0  0  0  0  0  0  0  0  0
  1  2  2  0
  2  3  1  0
  2 29  1  0
  3  4  1  0
  5  4  1  1
  5  6  1  0
  5 28  1  0
  6  7  1  0
  7  8  1  1
  7 22  1  0
  8  9  1  0
  9 10  2  0
  9 11  1  0
 11 12  1  0
 12 13  2  0
 12 21  1  0
 13 14  1  0
 14 15  2  0
 14 19  1  0
 15 16  1  0
 15 20  1  0
 16 17  1  0
 17 18  1  0
 18 19  1  0
 20 21  1  0
 22 23  1  0
 22 27  2  0
 23 24  1  0
 24 25  1  0
 25 26  2  0
 25 27  1  0
 27 28  1  0
 29 30  1  0
M  END
