
     RDKit          3D

 30 32  0  0  0  0  0  0  0  0999 V2000
   -8.6570    1.1840   -0.4670 C   0  0  0  0  0  0  0  0  0  0  0  0
   -7.7260    0.3110    0.3030 C   0  0  1  0  0  0  0  0  0  0  0  0
   -7.6830   -1.0130   -0.1760 O   0  0  0  0  0  0  0  0  0  0  0  0
   -6.4840   -1.6670    0.0490 C   0  0  0  0  0  0  0  0  0  0  0  0
   -6.5340   -3.1490    0.2760 C   0  0  0  0  0  0  0  0  0  0  0  0
   -5.3620   -3.7800    0.4960 O   0  0  0  0  0  0  0  0  0  0  0  0
   -5.4010   -0.9490    0.0490 C   0  0  0  0  0  0  0  0  0  0  0  0
   -3.9910   -1.2210    0.2340 C   0  0  0  0  0  0  0  0  0  0  0  0
   -3.5320   -2.3360    0.4570 O   0  0  0  0  0  0  0  0  0  0  0  0
   -3.0260   -0.1580    0.1650 N   0  0  0  0  0  0  0  0  0  0  0  0
   -1.6550   -0.4280    0.3480 N   0  0  0  0  0  0  0  0  0  0  0  0
   -0.6810    0.5650    0.1100 C   0  0  0  0  0  0  0  0  0  0  0  0
   -1.0480    1.6970   -0.2720 O   0  0  0  0  0  0  0  0  0  0  0  0
    0.7410    0.2880    0.3070 C   0  0  0  0  0  0  0  0  0  0  0  0
    1.6180    1.4740   -0.0080 C   0  0  0  0  0  0  0  0  0  0  0  0
    3.0600    1.0640    0.2540 C   0  0  0  0  0  0  0  0  0  0  0  0
    3.2930   -0.0360    0.7550 O   0  0  0  0  0  0  0  0  0  0  0  0
    4.0610    1.9780   -0.0950 N   0  0  0  0  0  0  0  0  0  0  0  0
    5.4310    1.9120   -0.0100 N   0  0  0  0  0  0  0  0  0  0  0  0
    6.2210    3.0340   -0.1570 C   0  0  0  0  0  0  0  0  0  0  0  0
    5.8000    4.1990   -0.3550 O   0  0  0  0  0  0  0  0  0  0  0  0
    7.4650    2.7090   -0.0580 O   0  0  0  0  0  0  0  0  0  0  0  0
    7.5910    1.4280    0.1470 C   0  0  0  0  0  0  0  0  0  0  0  0
    6.3030    0.9110    0.1770 C   0  0  0  0  0  0  0  0  0  0  0  0
    6.1740   -0.3930    0.2750 C   0  0  0  0  0  0  0  0  0  0  0  0
    7.3050   -1.3320    0.4960 C   0  0  1  0  0  0  0  0  0  0  0  0
    7.2240   -2.3100   -0.5070 O   0  0  0  0  0  0  0  0  0  0  0  0
    8.5400   -0.6730    0.5110 O   0  0  0  0  0  0  0  0  0  0  0  0
    8.6780    0.6750    0.3070 C   0  0  0  0  0  0  0  0  0  0  0  0
   -6.0260    0.7680   -0.2510 S   0  0  0  0  0  0  0  0  0  0  0  0
  2  1  1  6
  2  3  1  0
  2 30  1  0
  3  4  1  0
  4  5  1  0
  4  7  2  0
  5  6  1  0
  7  8  1  0
  7 30  1  0
  8  9  2  0
  8 10  1  0
 10 11  1  0
 11 12  1  0
 12 13  2  0
 12 14  1  0
 14 15  1  0
 15 16  1  0
 16 17  2  0
 16 18  1  0
 18 19  1  0
 19 20  1  0
 19 24  1  0
 20 21  2  0
 20 22  1  0
 22 23  1  0
 23 24  1  0
 23 29  2  0
 24 25  2  0
 25 26  1  0
 26 27  1  6
 26 28  1  0
 28 29  1  0
M  END
