
     RDKit          3D

 30 33  0  0  0  0  0  0  0  0999 V2000
   -3.3670    0.8030   -1.9350 C   0  0  0  0  0  0  0  0  0  0  0  0
   -2.7480   -0.0630   -0.8580 C   0  0  2  0  0  0  0  0  0  0  0  0
   -1.4450   -0.5390   -1.4280 C   0  0  0  0  0  0  0  0  0  0  0  0
   -1.4940   -1.1280   -2.5160 O   0  0  0  0  0  0  0  0  0  0  0  0
   -0.2250   -0.3230   -0.7500 N   0  0  0  0  0  0  0  0  0  0  0  0
    1.0390   -0.7390   -1.2160 C   0  0  0  0  0  0  0  0  0  0  0  0
    1.2600   -1.4090   -2.3940 C   0  0  0  0  0  0  0  0  0  0  0  0
    2.5270   -1.8100   -2.8350 C   0  0  0  0  0  0  0  0  0  0  0  0
    3.5890   -1.5110   -2.0370 C   0  0  0  0  0  0  0  0  0  0  0  0
    3.4400   -0.8370   -0.8360 C   0  0  0  0  0  0  0  0  0  0  0  0
    4.5230   -0.5610   -0.0760 N   0  0  0  0  0  0  0  0  0  0  0  0
    4.4750    0.0810    1.0920 C   0  0  0  0  0  0  0  0  0  0  0  0
    5.7080    0.3620    1.8960 C   0  0  1  0  0  0  0  0  0  0  0  0
    5.7990    1.7090    2.5500 C   0  0  0  0  0  0  0  0  0  0  0  0
    5.6430    0.4300    3.3620 C   0  0  0  0  0  0  0  0  0  0  0  0
    3.2400    0.4770    1.5310 C   0  0  0  0  0  0  0  0  0  0  0  0
    2.0970    0.2050    0.7630 C   0  0  0  0  0  0  0  0  0  0  0  0
    2.1720   -0.4600   -0.4390 C   0  0  0  0  0  0  0  0  0  0  0  0
   -3.5890   -1.2760   -0.6410 C   0  0  0  0  0  0  0  0  0  0  0  0
   -4.7020   -1.4440   -1.2820 C   0  0  0  0  0  0  0  0  0  0  0  0
   -5.6440   -2.5840   -1.1800 C   0  0  0  0  0  0  0  0  0  0  0  0
   -5.0150   -3.7470   -0.0060 Cl  0  0  0  0  0  0  0  0  0  0  0  0
   -2.9810   -2.4530    0.5330 S   0  0  0  0  0  0  0  0  0  0  0  0
   -2.0420   -1.4820    1.7680 C   0  0  0  0  0  0  0  0  0  0  0  0
   -2.4020   -0.0670    1.5990 C   0  0  0  0  0  0  0  0  0  0  0  0
   -2.5790    0.6390    2.6410 O   0  0  0  0  0  0  0  0  0  0  0  0
   -2.5870    0.6470    0.3880 N   0  0  0  0  0  0  0  0  0  0  0  0
   -2.6760    2.0850    0.3650 C   0  0  0  0  0  0  0  0  0  0  0  0
   -1.4490    2.8760    0.2690 C   0  0  0  0  0  0  0  0  0  0  0  0
   -0.6480    2.7110   -0.8440 O   0  0  0  0  0  0  0  0  0  0  0  0
  2  1  1  6
  2  3  1  0
  2 19  1  0
  2 27  1  0
  3  4  2  0
  3  5  1  0
  5  6  1  0
  6  7  2  0
  6 18  1  0
  7  8  1  0
  8  9  2  0
  9 10  1  0
 10 11  2  0
 10 18  1  0
 11 12  1  0
 13 12  1  6
 12 16  2  0
 13 14  1  0
 13 15  1  0
 14 15  1  0
 16 17  1  0
 17 18  2  0
 19 20  2  3
 19 23  1  0
 20 21  1  0
 21 22  1  0
 23 24  1  0
 24 25  1  0
 25 26  2  0
 25 27  1  0
 27 28  1  0
 28 29  1  0
 29 30  1  0
M  END
