
     RDKit          3D

 30 31  0  0  0  0  0  0  0  0999 V2000
   -8.1110   -1.5540    1.6190 C   0  0  0  0  0  0  0  0  0  0  0  0
   -7.3770   -0.5360    0.9560 O   0  0  0  0  0  0  0  0  0  0  0  0
   -7.8980    0.7250    0.7310 C   0  0  0  0  0  0  0  0  0  0  0  0
   -9.0500    0.9970    1.1150 O   0  0  0  0  0  0  0  0  0  0  0  0
   -7.0990    1.7160    0.0500 C   0  0  0  0  0  0  0  0  0  0  0  0
   -5.8920    1.4890   -0.3710 C   0  0  0  0  0  0  0  0  0  0  0  0
   -5.0510    0.3140   -0.3060 C   0  0  0  0  0  0  0  0  0  0  0  0
   -4.0620    0.4060   -1.2140 C   0  0  0  0  0  0  0  0  0  0  0  0
   -3.0000   -0.6070   -1.4470 C   0  0  2  0  0  0  0  0  0  0  0  0
   -3.1420   -1.6610   -0.5620 O   0  0  0  0  0  0  0  0  0  0  0  0
   -1.6670    0.0480   -1.1850 C   0  0  0  0  0  0  0  0  0  0  0  0
   -0.5710   -0.8900   -1.3800 N   0  0  0  0  0  0  0  0  0  0  0  0
    0.7730   -0.5350   -1.2060 C   0  0  0  0  0  0  0  0  0  0  0  0
    1.0480    0.6650   -0.8610 O   0  0  0  0  0  0  0  0  0  0  0  0
    1.8460   -1.4660   -1.4000 N   0  0  0  0  0  0  0  0  0  0  0  0
    3.1860   -1.1150   -1.2300 N   0  0  0  0  0  0  0  0  0  0  0  0
    3.7690   -0.7120    0.0000 C   0  0  0  0  0  0  0  0  0  0  0  0
    3.0220   -0.6660    1.0090 O   0  0  0  0  0  0  0  0  0  0  0  0
    5.1910   -0.3600    0.0950 C   0  0  0  0  0  0  0  0  0  0  0  0
    5.8960   -0.4200   -0.9480 O   0  0  0  0  0  0  0  0  0  0  0  0
    5.7810    0.0380    1.3170 N   0  0  0  0  0  0  0  0  0  0  0  0
    7.1990    0.3800    1.3870 C   0  0  0  0  0  0  0  0  0  0  0  0
    7.5640    1.5860    1.7750 C   0  0  0  0  0  0  0  0  0  0  0  0
    9.3380    1.5700    1.7150 S   0  0  0  0  0  0  0  0  0  0  0  0
    9.8980    1.7620    3.1070 O   0  0  0  0  0  0  0  0  0  0  0  0
    9.4740   -0.1050    1.1560 C   0  0  0  0  0  0  0  0  0  0  0  0
   10.6670   -0.7530    0.9050 O   0  0  0  0  0  0  0  0  0  0  0  0
    8.2380   -0.5270    1.0550 C   0  0  0  0  0  0  0  0  0  0  0  0
   -4.2370    1.6130   -1.8700 O   0  0  0  0  0  0  0  0  0  0  0  0
   -5.0370    2.5000   -1.0920 C   0  0  0  0  0  0  0  0  0  0  0  0
  1  2  1  0
  2  3  1  0
  3  4  2  0
  3  5  1  0
  5  6  2  3
  6  7  1  0
  6 30  1  0
  7  8  2  0
  8  9  1  0
  8 29  1  0
  9 10  1  1
  9 11  1  0
 11 12  1  0
 12 13  1  0
 13 14  2  0
 13 15  1  0
 15 16  1  0
 16 17  1  0
 17 18  2  0
 17 19  1  0
 19 20  2  0
 19 21  1  0
 21 22  1  0
 22 23  2  0
 22 28  1  0
 24 23  1  1
 24 25  2  0
 24 26  1  0
 26 27  1  0
 26 28  2  0
 29 30  1  0
M  END
