
     RDKit          3D

 30 33  0  0  0  0  0  0  0  0999 V2000
   -4.4260   -4.6570    0.7110 C   0  0  0  0  0  0  0  0  0  0  0  0
   -3.9550   -3.3940    0.3300 O   0  0  0  0  0  0  0  0  0  0  0  0
   -4.7300   -2.2530    0.2090 C   0  0  0  0  0  0  0  0  0  0  0  0
   -5.9570   -2.3710    0.4560 O   0  0  0  0  0  0  0  0  0  0  0  0
   -4.1190   -0.9720   -0.1890 C   0  0  0  0  0  0  0  0  0  0  0  0
   -4.8740    0.1740   -0.2470 C   0  0  0  0  0  0  0  0  0  0  0  0
   -4.2500    1.3640   -0.5820 C   0  0  0  0  0  0  0  0  0  0  0  0
   -2.8990    1.4200   -0.8540 C   0  0  0  0  0  0  0  0  0  0  0  0
   -2.1850    2.6280   -1.2220 C   0  0  0  0  0  0  0  0  0  0  0  0
   -2.1990    3.7430   -0.5890 C   0  0  0  0  0  0  0  0  0  0  0  0
   -1.2130    5.0520   -1.3230 Cl  0  0  0  0  0  0  0  0  0  0  0  0
   -2.8590    4.0080    0.6690 C   0  0  0  0  0  0  0  0  0  0  0  0
   -2.7960    5.3540    1.2220 N   0  0  0  0  0  0  0  0  0  0  0  0
   -3.4670    3.1580    1.3040 O   0  0  0  0  0  0  0  0  0  0  0  0
   -2.1230    0.2540   -0.7980 C   0  0  0  0  0  0  0  0  0  0  0  0
   -0.6590    0.2770   -0.9960 C   0  0  0  0  0  0  0  0  0  0  0  0
    0.0260   -0.4610    0.1070 C   0  0  0  0  0  0  0  0  0  0  0  0
    1.4700   -0.4470    0.0350 N   0  0  0  0  0  0  0  0  0  0  0  0
    2.1400   -1.2900   -0.7810 C   0  0  0  0  0  0  0  0  0  0  0  0
    3.5060   -1.0950   -0.5740 C   0  0  0  0  0  0  0  0  0  0  0  0
    3.6230   -0.1270    0.3880 C   0  0  0  0  0  0  0  0  0  0  0  0
    2.3700    0.2350    0.7180 N   0  0  0  0  0  0  0  0  0  0  0  0
    4.9520    0.2380    0.9560 C   0  0  0  0  0  0  0  0  0  0  0  0
    5.1180    1.2590    1.8740 C   0  0  0  0  0  0  0  0  0  0  0  0
    6.8400    1.3250    2.1380 S   0  0  0  0  0  0  0  0  0  0  0  0
    7.2760   -0.0100    1.0170 C   0  0  0  0  0  0  0  0  0  0  0  0
    6.0200   -0.3930    0.5330 C   0  0  0  0  0  0  0  0  0  0  0  0
    5.8980   -1.5740   -0.3900 C   0  0  0  0  0  0  0  0  0  0  0  0
    4.7160   -1.6180   -1.2280 C   0  0  0  0  0  0  0  0  0  0  0  0
   -2.7590   -0.9170   -0.4660 C   0  0  0  0  0  0  0  0  0  0  0  0
  1  2  1  0
  2  3  1  0
  3  4  2  0
  3  5  1  0
  5  6  2  0
  5 30  1  0
  6  7  1  0
  7  8  2  0
  8  9  1  0
  8 15  1  0
  9 10  2  3
 10 11  1  0
 10 12  1  0
 12 13  1  0
 12 14  2  0
 15 16  1  0
 15 30  2  0
 16 17  1  0
 17 18  1  0
 18 19  1  0
 18 22  1  0
 19 20  2  0
 20 21  1  0
 20 29  1  0
 21 22  2  0
 21 23  1  0
 23 24  2  0
 23 27  1  0
 24 25  1  0
 25 26  1  0
 26 27  2  0
 27 28  1  0
 28 29  1  0
M  END
