
     RDKit          3D

 30 32  0  0  0  0  0  0  0  0999 V2000
    8.4130    0.5790    2.5560 O   0  0  0  0  0  0  0  0  0  0  0  0
    7.3500    0.8740    1.9940 C   0  0  0  0  0  0  0  0  0  0  0  0
    6.1590    0.0080    2.2230 C   0  0  0  0  0  0  0  0  0  0  0  0
    5.2790    0.0410    1.1440 O   0  0  0  0  0  0  0  0  0  0  0  0
    5.1330    1.1790    0.2820 C   0  0  0  0  0  0  0  0  0  0  0  0
    6.0460    2.1370    0.2600 C   0  0  0  0  0  0  0  0  0  0  0  0
    5.8850    3.2220   -0.5750 C   0  0  0  0  0  0  0  0  0  0  0  0
    4.3430    2.8610   -1.3810 S   0  0  0  0  0  0  0  0  0  0  0  0
    4.0380    1.3140   -0.5520 C   0  0  0  0  0  0  0  0  0  0  0  0
    2.8650    0.4560   -0.7740 C   0  0  0  0  0  0  0  0  0  0  0  0
    1.9700    0.7800   -1.5880 O   0  0  0  0  0  0  0  0  0  0  0  0
    2.7100   -0.7390   -0.0920 O   0  0  0  0  0  0  0  0  0  0  0  0
    1.5640   -1.5140   -0.3460 C   0  0  0  0  0  0  0  0  0  0  0  0
    0.3160   -0.7740   -0.0100 C   0  0  0  0  0  0  0  0  0  0  0  0
    0.3640    0.3850    0.4540 O   0  0  0  0  0  0  0  0  0  0  0  0
   -0.9810   -1.3260   -0.1930 N   0  0  0  0  0  0  0  0  0  0  0  0
   -2.2000   -0.6630    0.1140 C   0  0  2  0  0  0  0  0  0  0  0  0
   -3.0750   -1.3170    1.0770 C   0  0  0  0  0  0  0  0  0  0  0  0
   -2.8800   -2.5420    1.3630 O   0  0  0  0  0  0  0  0  0  0  0  0
   -4.1580   -0.6730    1.7390 N   0  0  0  0  0  0  0  0  0  0  0  0
   -4.9320    0.4730    1.3990 C   0  0  0  0  0  0  0  0  0  0  0  0
   -5.0240    0.8560   -0.0090 C   0  0  0  0  0  0  0  0  0  0  0  0
   -3.9430    0.8060   -0.9510 C   0  0  0  0  0  0  0  0  0  0  0  0
   -3.0370   -0.3370   -1.1170 C   0  0  1  0  0  0  0  0  0  0  0  0
   -2.0190    0.1110   -2.0300 O   0  0  0  0  0  0  0  0  0  0  0  0
   -3.5880   -1.5330   -1.7880 C   0  0  0  0  0  0  0  0  0  0  0  0
   -3.1080   -2.0190   -2.8790 O   0  0  0  0  0  0  0  0  0  0  0  0
   -4.6990   -2.2470   -1.2770 N   0  0  0  0  0  0  0  0  0  0  0  0
   -5.1900   -3.3550   -1.9180 O   0  0  0  0  0  0  0  0  0  0  0  0
    7.2000    1.9950    1.1400 N   0  0  0  0  0  0  0  0  0  0  0  0
  1  2  2  0
  2  3  1  0
  2 30  1  0
  3  4  1  0
  4  5  1  0
  5  6  1  0
  5  9  2  0
  6  7  2  0
  6 30  1  0
  7  8  1  0
  8  9  1  0
  9 10  1  0
 10 11  2  0
 10 12  1  0
 12 13  1  0
 13 14  1  0
 14 15  2  0
 14 16  1  0
 17 16  1  6
 17 18  1  0
 17 24  1  0
 18 19  2  0
 18 20  1  0
 20 21  1  0
 21 22  1  0
 22 23  1  0
 23 24  1  0
 24 25  1  6
 24 26  1  0
 26 27  2  0
 26 28  1  0
 28 29  1  0
M  END
