
     RDKit          3D

 30 31  0  0  0  0  0  0  0  0999 V2000
   -1.4890    3.4630   -1.2930 O   0  0  0  0  0  0  0  0  0  0  0  0
   -2.5650    3.9860   -0.8590 C   0  0  0  0  0  0  0  0  0  0  0  0
   -3.4230    3.1950   -0.0890 N   0  0  0  0  0  0  0  0  0  0  0  0
   -3.1140    1.8700    0.1970 N   0  0  0  0  0  0  0  0  0  0  0  0
   -1.9180    1.4470    0.8280 C   0  0  0  0  0  0  0  0  0  0  0  0
   -1.0800    2.3010    1.1470 O   0  0  0  0  0  0  0  0  0  0  0  0
   -1.6830    0.0040    1.1030 C   0  0  2  0  0  0  0  0  0  0  0  0
   -0.4190   -0.3000    1.7040 N   0  0  0  0  0  0  0  0  0  0  0  0
    0.6220    0.4220    2.2450 C   0  0  0  0  0  0  0  0  0  0  0  0
    0.7210    0.3630    3.5500 O   0  0  0  0  0  0  0  0  0  0  0  0
    1.6850    1.2700    1.6630 C   0  0  0  0  0  0  0  0  0  0  0  0
    3.2980    0.4620    1.6030 S   0  0  0  0  0  0  0  0  0  0  0  0
    4.5330    1.1360    0.5850 C   0  0  0  0  0  0  0  0  0  0  0  0
    4.5600    0.5190   -0.7910 C   0  0  1  0  0  0  0  0  0  0  0  0
    5.6190    1.1620   -1.5130 O   0  0  0  0  0  0  0  0  0  0  0  0
    4.8310   -0.9340   -0.8890 C   0  0  0  0  0  0  0  0  0  0  0  0
    3.9450   -1.6430   -1.7730 O   0  0  0  0  0  0  0  0  0  0  0  0
    2.6340   -1.9170   -1.4330 C   0  0  0  0  0  0  0  0  0  0  0  0
    2.2360   -3.1490   -1.5760 O   0  0  0  0  0  0  0  0  0  0  0  0
    1.6410   -1.0190   -0.9360 N   0  0  0  0  0  0  0  0  0  0  0  0
    0.8580   -0.0180   -1.5250 C   0  0  0  0  0  0  0  0  0  0  0  0
   -0.4730    0.0990   -1.6830 C   0  0  0  0  0  0  0  0  0  0  0  0
   -1.5330   -0.8020   -1.2630 C   0  0  0  0  0  0  0  0  0  0  0  0
   -2.0820   -0.8700   -0.0470 C   0  0  0  0  0  0  0  0  0  0  0  0
   -3.1230   -1.8980    0.1240 C   0  0  0  0  0  0  0  0  0  0  0  0
   -3.8340   -2.2160    1.1760 C   0  0  0  0  0  0  0  0  0  0  0  0
   -3.8210   -1.6860    2.4350 O   0  0  0  0  0  0  0  0  0  0  0  0
   -4.6980   -3.2680    0.8330 O   0  0  0  0  0  0  0  0  0  0  0  0
   -4.7240   -3.3750   -0.5660 C   0  0  0  0  0  0  0  0  0  0  0  0
   -3.5200   -2.7480   -0.9280 O   0  0  0  0  0  0  0  0  0  0  0  0
  1  2  2  0
  2  3  1  0
  3  4  1  0
  4  5  1  0
  5  6  2  0
  7  5  1  6
  7  8  1  0
  7 24  1  0
  8  9  1  0
  9 10  2  0
  9 11  1  0
 11 12  1  0
 12 13  1  0
 13 14  1  0
 14 15  1  6
 14 16  1  0
 16 17  1  0
 17 18  1  0
 18 19  2  0
 18 20  1  0
 20 21  1  0
 21 22  2  0
 22 23  1  0
 23 24  2  0
 24 25  1  0
 25 26  2  0
 25 30  1  0
 26 27  1  0
 26 28  1  0
 28 29  1  0
 29 30  1  0
M  END
