
     RDKit          3D

 30 31  0  0  0  0  0  0  0  0999 V2000
   -7.2050   -0.4920    0.9850 C   0  0  0  0  0  0  0  0  0  0  0  0
   -6.5460    0.1090   -0.2610 C   0  0  2  0  0  0  0  0  0  0  0  0
   -7.5230    0.2180   -1.3240 N   0  0  0  0  0  0  0  0  0  0  0  0
   -7.2690   -0.7570   -2.3350 C   0  0  0  0  0  0  0  0  0  0  0  0
   -7.7960   -0.8970   -3.4660 O   0  0  0  0  0  0  0  0  0  0  0  0
   -6.2030   -1.6760   -1.8390 C   0  0  0  0  0  0  0  0  0  0  0  0
   -5.5400   -0.9020   -0.7470 C   0  0  1  0  0  0  0  0  0  0  0  0
   -4.3100   -0.2300   -1.2120 N   0  0  0  0  0  0  0  0  0  0  0  0
   -3.0700   -0.4940   -0.6550 C   0  0  0  0  0  0  0  0  0  0  0  0
   -3.0660   -1.3660    0.2940 O   0  0  0  0  0  0  0  0  0  0  0  0
   -1.7430    0.1130   -1.0270 C   0  0  0  0  0  0  0  0  0  0  0  0
   -0.7780   -0.3500   -0.3100 C   0  0  0  0  0  0  0  0  0  0  0  0
    0.5450   -0.2890   -0.0850 N   0  0  0  0  0  0  0  0  0  0  0  0
    1.6320    0.4090   -0.6080 C   0  0  0  0  0  0  0  0  0  0  0  0
    1.5140    1.2180   -1.5130 O   0  0  0  0  0  0  0  0  0  0  0  0
    3.0560    0.2290   -0.1010 C   0  0  2  0  0  0  0  0  0  0  0  0
    3.0280   -0.7080    0.8950 O   0  0  0  0  0  0  0  0  0  0  0  0
    4.2900   -1.1490    1.2740 C   0  0  0  0  0  0  0  0  0  0  0  0
    4.8370   -0.2430    2.3280 C   0  0  0  0  0  0  0  0  0  0  0  0
    5.4620    1.0080    1.8130 C   0  0  1  0  0  0  0  0  0  0  0  0
    6.4570    0.7300    0.7110 C   0  0  0  0  0  0  0  0  0  0  0  0
    7.7400   -0.3360    1.3820 S   0  0  0  0  0  0  0  0  0  0  0  0
    8.5020    0.5020    2.7130 N   0  0  0  0  0  0  0  0  0  0  0  0
    8.7730   -0.6920    0.3190 O   0  0  0  0  0  0  0  0  0  0  0  0
    4.4920    1.9000    1.2880 O   0  0  0  0  0  0  0  0  0  0  0  0
    3.5290    1.5450    0.3270 C   0  0  0  0  0  0  0  0  0  0  0  0
    3.0210    2.5510   -0.2270 O   0  0  0  0  0  0  0  0  0  0  0  0
   -1.7100    1.0640   -2.0630 C   0  0  0  0  0  0  0  0  0  0  0  0
   -2.8300    1.3790   -2.6540 O   0  0  0  0  0  0  0  0  0  0  0  0
   -0.6880    1.7880   -2.6330 O   0  0  0  0  0  0  0  0  0  0  0  0
  2  1  1  1
  2  3  1  0
  2  7  1  0
  3  4  1  0
  4  5  2  0
  4  6  1  0
  6  7  1  0
  7  8  1  6
  8  9  1  0
  9 10  2  0
  9 11  1  0
 11 12  2  3
 11 28  1  0
 12 13  1  0
 13 14  1  0
 14 15  2  0
 16 14  1  1
 16 17  1  0
 16 26  1  0
 17 18  1  0
 18 19  1  0
 19 20  1  0
 20 21  1  6
 20 25  1  0
 21 22  1  0
 22 23  1  1
 22 24  2  0
 25 26  1  0
 26 27  2  0
 28 29  2  0
 28 30  1  0
M  END
