
     RDKit          3D

 29 31  0  0  0  0  0  0  0  0999 V2000
   -4.0230   -5.3300    1.0370 C   0  0  0  0  0  0  0  0  0  0  0  0
   -2.8260   -4.6750    0.8420 O   0  0  0  0  0  0  0  0  0  0  0  0
   -2.8310   -3.8040   -0.2450 C   0  0  0  0  0  0  0  0  0  0  0  0
   -3.8100   -2.7370   -0.1620 C   0  0  0  0  0  0  0  0  0  0  0  0
   -3.7260   -1.4620   -0.1420 C   0  0  0  0  0  0  0  0  0  0  0  0
   -2.6070   -0.5450   -0.1880 C   0  0  0  0  0  0  0  0  0  0  0  0
   -2.8170    0.7830   -0.1870 C   0  0  0  0  0  0  0  0  0  0  0  0
   -4.2200    1.2500   -0.1240 C   0  0  0  0  0  0  0  0  0  0  0  0
   -4.3480    2.7280   -0.1720 C   0  0  0  0  0  0  0  0  0  0  0  0
   -3.1290    3.4740    0.3680 C   0  0  0  0  0  0  0  0  0  0  0  0
   -1.9470    3.0460   -0.3650 N   0  0  0  0  0  0  0  0  0  0  0  0
   -1.6570    1.6510   -0.3630 C   0  0  0  0  0  0  0  0  0  0  0  0
   -0.4140    1.2760   -0.5340 C   0  0  0  0  0  0  0  0  0  0  0  0
    0.6860    2.1880   -0.6910 C   0  0  0  0  0  0  0  0  0  0  0  0
    1.8390    1.6310   -0.8610 O   0  0  0  0  0  0  0  0  0  0  0  0
    0.7120    3.5410   -0.6880 O   0  0  0  0  0  0  0  0  0  0  0  0
    1.9050    4.2600   -0.8540 C   0  0  0  0  0  0  0  0  0  0  0  0
    2.9440    4.0330    0.1870 C   0  0  0  0  0  0  0  0  0  0  0  0
    4.0590    4.8340   -0.1480 O   0  0  0  0  0  0  0  0  0  0  0  0
   -0.1560   -0.1950   -0.6340 C   0  0  1  0  0  0  0  0  0  0  0  0
    1.0720   -0.5720    0.0720 C   0  0  0  0  0  0  0  0  0  0  0  0
    1.4030   -0.6750    1.3610 C   0  0  0  0  0  0  0  0  0  0  0  0
    2.6270   -1.0720    1.7330 C   0  0  0  0  0  0  0  0  0  0  0  0
    3.5510   -1.3750    0.7710 C   0  0  0  0  0  0  0  0  0  0  0  0
    4.9420   -1.8270    0.7950 C   0  0  1  0  0  0  0  0  0  0  0  0
    5.1270   -3.1680    0.1010 C   0  0  0  0  0  0  0  0  0  0  0  0
    5.8910   -0.8500    0.1200 C   0  0  0  0  0  0  0  0  0  0  0  0
    2.5790   -1.0650   -0.7530 S   0  0  0  0  0  0  0  0  0  0  0  0
   -1.2660   -0.9400   -0.0850 N   0  0  0  0  0  0  0  0  0  0  0  0
  1  2  1  0
  2  3  1  0
  3  4  1  0
  4  5  2  3
  5  6  1  0
  6  7  2  0
  6 29  1  0
  7  8  1  0
  7 12  1  0
  8  9  1  0
  9 10  1  0
 10 11  1  0
 11 12  1  0
 12 13  2  0
 13 14  1  0
 13 20  1  0
 14 15  2  0
 14 16  1  0
 16 17  1  0
 17 18  1  0
 18 19  1  0
 20 21  1  1
 20 29  1  0
 21 22  2  0
 21 28  1  0
 22 23  1  0
 23 24  2  0
 24 25  1  0
 24 28  1  0
 25 26  1  6
 25 27  1  0
M  END
