
     RDKit          3D

 28 30  0  0  0  0  0  0  0  0999 V2000
    8.4780    1.4090   -0.3080 C   0  0  0  0  0  0  0  0  0  0  0  0
    7.1730    1.7870    0.3500 C   0  0  0  0  0  0  0  0  0  0  0  0
    6.0180    0.8990    0.0310 C   0  0  0  0  0  0  0  0  0  0  0  0
    6.1520   -0.5600    0.4220 C   0  0  0  0  0  0  0  0  0  0  0  0
    4.8630   -1.2690   -0.0540 C   0  0  2  0  0  0  0  0  0  0  0  0
    4.7570   -1.1400   -1.4350 O   0  0  0  0  0  0  0  0  0  0  0  0
    3.6930   -0.6420    0.6320 C   0  0  0  0  0  0  0  0  0  0  0  0
    3.7110   -0.0440    1.8360 N   0  0  0  0  0  0  0  0  0  0  0  0
    2.4680    0.3590    2.1070 C   0  0  0  0  0  0  0  0  0  0  0  0
    1.6470    0.0200    1.0700 C   0  0  0  0  0  0  0  0  0  0  0  0
    0.2930    0.2320    0.7780 C   0  0  0  0  0  0  0  0  0  0  0  0
   -0.2610   -0.1790   -0.4130 C   0  0  0  0  0  0  0  0  0  0  0  0
   -1.9180    0.1960   -0.8300 S   0  0  0  0  0  0  0  0  0  0  0  0
   -3.0620   -1.1430   -0.3230 C   0  0  0  0  0  0  0  0  0  0  0  0
   -4.4680   -0.6440   -0.6390 C   0  0  0  0  0  0  0  0  0  0  0  0
   -4.7450   -0.1890   -1.7510 O   0  0  0  0  0  0  0  0  0  0  0  0
   -5.4250   -0.7240    0.4050 N   0  0  0  0  0  0  0  0  0  0  0  0
   -6.7620   -0.2710    0.3140 C   0  0  0  0  0  0  0  0  0  0  0  0
   -7.2410    0.4450   -0.7620 C   0  0  0  0  0  0  0  0  0  0  0  0
   -8.5410    0.9430   -0.8450 C   0  0  0  0  0  0  0  0  0  0  0  0
   -8.9780    1.6620   -1.9440 O   0  0  0  0  0  0  0  0  0  0  0  0
   -9.4110    0.7170    0.1900 C   0  0  0  0  0  0  0  0  0  0  0  0
   -8.9480   -0.0050    1.2840 C   0  0  0  0  0  0  0  0  0  0  0  0
   -7.6700   -0.4920    1.3620 C   0  0  0  0  0  0  0  0  0  0  0  0
   -7.3310   -1.1910    2.4970 O   0  0  0  0  0  0  0  0  0  0  0  0
    0.5560   -0.8240   -1.3290 C   0  0  0  0  0  0  0  0  0  0  0  0
    1.8840   -1.0480   -1.0720 C   0  0  0  0  0  0  0  0  0  0  0  0
    2.4080   -0.6190    0.1270 C   0  0  0  0  0  0  0  0  0  0  0  0
  1  2  1  0
  2  3  1  0
  3  4  1  0
  4  5  1  0
  5  6  1  6
  5  7  1  0
  7  8  1  0
  7 28  2  0
  8  9  1  0
  9 10  2  0
 10 11  1  0
 10 28  1  0
 11 12  2  0
 12 13  1  0
 12 26  1  0
 13 14  1  0
 14 15  1  0
 15 16  2  0
 15 17  1  0
 17 18  1  0
 18 19  2  0
 18 24  1  0
 19 20  1  0
 20 21  1  0
 20 22  2  0
 22 23  1  0
 23 24  2  0
 24 25  1  0
 26 27  2  0
 27 28  1  0
M  END
