
     RDKit          3D

 29 31  0  0  0  0  0  0  0  0999 V2000
    5.7140   -2.4420    0.1480 C   0  0  0  0  0  0  0  0  0  0  0  0
    4.4080   -1.6950    0.3440 C   0  0  0  0  0  0  0  0  0  0  0  0
    3.4920   -1.8720   -0.8490 C   0  0  0  0  0  0  0  0  0  0  0  0
    2.2480   -1.1360   -0.5890 C   0  0  0  0  0  0  0  0  0  0  0  0
    1.0360   -1.7210   -0.4880 C   0  0  0  0  0  0  0  0  0  0  0  0
    0.8300   -3.1730   -0.6310 C   0  0  0  0  0  0  0  0  0  0  0  0
   -0.4640   -3.4340   -1.4110 C   0  0  1  0  0  0  0  0  0  0  0  0
   -0.7870   -4.8920   -1.3230 C   0  0  0  0  0  0  0  0  0  0  0  0
   -1.4940   -2.6860   -0.7110 N   0  0  0  0  0  0  0  0  0  0  0  0
   -1.2870   -1.3280   -0.3210 C   0  0  0  0  0  0  0  0  0  0  0  0
   -2.4500   -0.4700   -0.0410 C   0  0  0  0  0  0  0  0  0  0  0  0
   -2.1940    0.7600    0.3040 N   0  0  0  0  0  0  0  0  0  0  0  0
   -3.2410    1.6510    0.5900 N   0  0  0  0  0  0  0  0  0  0  0  0
   -3.1240    3.0810    0.5490 C   0  0  0  0  0  0  0  0  0  0  0  0
   -3.2300    3.7070    1.9260 C   0  0  0  0  0  0  0  0  0  0  0  0
   -4.5010    1.0340    0.9420 C   0  0  0  0  0  0  0  0  0  0  0  0
   -4.8090    0.0700   -0.1910 C   0  0  1  0  0  0  0  0  0  0  0  0
   -6.2370   -0.4230   -0.1240 C   0  0  0  0  0  0  0  0  0  0  0  0
   -4.6720    0.7730   -1.3860 F   0  0  0  0  0  0  0  0  0  0  0  0
   -3.8100   -1.0340   -0.1590 C   0  0  0  0  0  0  0  0  0  0  0  0
   -0.0890   -0.8990   -0.2240 N   0  0  0  0  0  0  0  0  0  0  0  0
    2.3290    0.3240   -0.4400 C   0  0  0  0  0  0  0  0  0  0  0  0
    1.3700    1.1230   -0.9690 N   0  0  0  0  0  0  0  0  0  0  0  0
    1.7120    2.3660   -0.6750 N   0  0  0  0  0  0  0  0  0  0  0  0
    2.8630    2.3640    0.0240 C   0  0  0  0  0  0  0  0  0  0  0  0
    3.5580    3.4980    0.5250 N   0  0  0  0  0  0  0  0  0  0  0  0
    3.0660    4.8390    0.3030 C   0  0  0  0  0  0  0  0  0  0  0  0
    4.7830    3.3120    1.2790 C   0  0  0  0  0  0  0  0  0  0  0  0
    3.1820    1.0990    0.1310 O   0  0  0  0  0  0  0  0  0  0  0  0
  1  2  1  0
  2  3  1  0
  3  4  1  0
  4  5  2  3
  4 22  1  0
  5  6  1  0
  5 21  1  0
  6  7  1  0
  7  8  1  1
  7  9  1  0
  9 10  1  0
 10 11  1  0
 10 21  2  0
 11 12  2  0
 11 20  1  0
 12 13  1  0
 13 14  1  0
 13 16  1  0
 14 15  1  0
 16 17  1  0
 17 18  1  1
 17 19  1  0
 17 20  1  0
 22 23  2  0
 22 29  1  0
 23 24  1  0
 24 25  2  0
 25 26  1  0
 25 29  1  0
 26 27  1  0
 26 28  1  0
M  END
