
     RDKit          3D

 29 32  0  0  0  0  0  0  0  0999 V2000
    9.2340    0.5190    0.4580 C   0  0  0  0  0  0  0  0  0  0  0  0
    7.8160    0.2740    0.0140 C   0  0  1  0  0  0  0  0  0  0  0  0
    7.1880   -0.7940    0.8600 C   0  0  0  0  0  0  0  0  0  0  0  0
    7.0560    1.5900    0.1150 C   0  0  0  0  0  0  0  0  0  0  0  0
    5.6670    1.3060   -0.3300 C   0  0  0  0  0  0  0  0  0  0  0  0
    5.1880    1.3840   -1.5640 N   0  0  0  0  0  0  0  0  0  0  0  0
    3.9310    1.0560   -1.5300 O   0  0  0  0  0  0  0  0  0  0  0  0
    3.5760    0.7660   -0.3080 C   0  0  0  0  0  0  0  0  0  0  0  0
    2.2750    0.3660    0.0990 N   0  0  0  0  0  0  0  0  0  0  0  0
    1.1720    0.2340   -0.8350 C   0  0  2  0  0  0  0  0  0  0  0  0
    0.9270    1.5470   -1.4820 C   0  0  0  0  0  0  0  0  0  0  0  0
   -0.4850    1.9980   -1.5600 C   0  0  0  0  0  0  0  0  0  0  0  0
   -1.3500    0.7910   -1.8820 C   0  0  0  0  0  0  0  0  0  0  0  0
   -1.2700   -0.0410   -0.6990 N   0  0  0  0  0  0  0  0  0  0  0  0
   -2.4870   -0.4680   -0.1190 C   0  0  0  0  0  0  0  0  0  0  0  0
   -2.4090   -1.2350    0.9800 N   0  0  0  0  0  0  0  0  0  0  0  0
   -3.4850   -1.6850    1.5970 C   0  0  0  0  0  0  0  0  0  0  0  0
   -3.3830   -2.5350    2.8160 C   0  0  0  0  0  0  0  0  0  0  0  0
   -3.6550   -3.8340    2.4250 F   0  0  0  0  0  0  0  0  0  0  0  0
   -4.7310   -1.3370    1.0670 C   0  0  0  0  0  0  0  0  0  0  0  0
   -4.8570   -0.5520   -0.0590 C   0  0  0  0  0  0  0  0  0  0  0  0
   -3.6910   -0.1400   -0.6210 N   0  0  0  0  0  0  0  0  0  0  0  0
   -6.2810   -0.3800   -0.3330 C   0  0  2  0  0  0  0  0  0  0  0  0
   -6.6210   -0.4400   -1.8030 C   0  0  0  0  0  0  0  0  0  0  0  0
   -6.7350    0.9400    0.2460 C   0  0  0  0  0  0  0  0  0  0  0  0
   -6.9420   -1.5020    0.4150 C   0  0  0  0  0  0  0  0  0  0  0  0
   -6.0310   -1.6850    1.5230 N   0  0  0  0  0  0  0  0  0  0  0  0
   -0.0000   -0.3970   -0.1650 C   0  0  0  0  0  0  0  0  0  0  0  0
    4.6510    0.9130    0.4800 N   0  0  0  0  0  0  0  0  0  0  0  0
  2  1  1  1
  2  3  1  0
  2  4  1  0
  4  5  1  0
  5  6  2  0
  5 29  1  0
  6  7  1  0
  7  8  1  0
  8  9  1  0
  8 29  2  0
 10  9  1  1
 10 11  1  0
 10 28  1  0
 11 12  1  0
 12 13  1  0
 13 14  1  0
 14 15  1  0
 14 28  1  0
 15 16  2  0
 15 22  1  0
 16 17  1  0
 17 18  1  0
 17 20  2  0
 18 19  1  0
 20 21  1  0
 20 27  1  0
 21 22  2  0
 21 23  1  0
 23 24  1  6
 23 25  1  0
 23 26  1  0
 26 27  1  0
M  END
