
     RDKit          3D

 28 31  0  0  0  0  0  0  0  0999 V2000
    8.5690    0.2810   -0.9900 C   0  0  0  0  0  0  0  0  0  0  0  0
    7.1100    0.0050   -1.2970 C   0  0  0  0  0  0  0  0  0  0  0  0
    6.2650    0.0100   -0.0870 C   0  0  0  0  0  0  0  0  0  0  0  0
    5.2410    0.8000    0.1640 C   0  0  0  0  0  0  0  0  0  0  0  0
    4.7010    0.4460    1.4910 C   0  0  1  0  0  0  0  0  0  0  0  0
    3.3330   -0.0770    1.2960 C   0  0  0  0  0  0  0  0  0  0  0  0
    3.1090   -1.2870    1.5080 O   0  0  0  0  0  0  0  0  0  0  0  0
    2.2440    0.7190    0.8760 N   0  0  0  0  0  0  0  0  0  0  0  0
    0.9560    0.1410    0.7100 C   0  0  2  0  0  0  0  0  0  0  0  0
    0.5800    0.2380   -0.7620 C   0  0  0  0  0  0  0  0  0  0  0  0
   -0.1090    0.7580    1.5800 C   0  0  0  0  0  0  0  0  0  0  0  0
   -1.3880    0.0360    1.2790 C   0  0  0  0  0  0  0  0  0  0  0  0
   -1.8840   -1.1030    1.9040 C   0  0  0  0  0  0  0  0  0  0  0  0
   -3.0620   -1.4560    1.3570 N   0  0  0  0  0  0  0  0  0  0  0  0
   -3.9130   -2.4660    1.6150 C   0  0  0  0  0  0  0  0  0  0  0  0
   -5.0840   -2.6190    0.9010 C   0  0  0  0  0  0  0  0  0  0  0  0
   -5.3960   -1.7140   -0.1060 C   0  0  0  0  0  0  0  0  0  0  0  0
   -4.4940   -0.6920   -0.3370 C   0  0  0  0  0  0  0  0  0  0  0  0
   -4.7730    0.2570   -1.3580 N   0  0  0  0  0  0  0  0  0  0  0  0
   -4.0950    0.4800   -2.5130 C   0  0  0  0  0  0  0  0  0  0  0  0
   -4.7490    1.4990   -3.1720 C   0  0  0  0  0  0  0  0  0  0  0  0
   -5.8080    1.8700   -2.4020 N   0  0  0  0  0  0  0  0  0  0  0  0
   -5.8160    1.1100   -1.3000 C   0  0  0  0  0  0  0  0  0  0  0  0
   -6.8330    1.2260   -0.2140 C   0  0  0  0  0  0  0  0  0  0  0  0
   -3.3260   -0.5480    0.3830 C   0  0  0  0  0  0  0  0  0  0  0  0
   -2.3130    0.3390    0.3490 N   0  0  0  0  0  0  0  0  0  0  0  0
    5.5600   -0.6280    1.9190 N   0  0  0  0  0  0  0  0  0  0  0  0
    6.4370   -0.8690    1.0300 N   0  0  0  0  0  0  0  0  0  0  0  0
  1  2  1  0
  2  3  1  0
  3  4  2  0
  3 28  1  0
  4  5  1  0
  5  6  1  6
  5 27  1  0
  6  7  2  0
  6  8  1  0
  8  9  1  0
  9 10  1  6
  9 11  1  0
 11 12  1  0
 12 13  2  0
 12 26  1  0
 13 14  1  0
 14 15  1  0
 14 25  1  0
 15 16  2  0
 16 17  1  0
 17 18  2  0
 18 19  1  0
 18 25  1  0
 19 20  1  0
 19 23  1  0
 20 21  2  0
 21 22  1  0
 22 23  2  0
 23 24  1  0
 25 26  2  0
 27 28  2  0
M  END
