
     RDKit          3D

 29 31  0  0  0  0  0  0  0  0999 V2000
   -6.3930    0.4900   -2.5680 C   0  0  0  0  0  0  0  0  0  0  0  0
   -5.1300    0.6180   -1.7670 C   0  0  0  0  0  0  0  0  0  0  0  0
   -5.1470   -0.1900   -0.4870 C   0  0  1  0  0  0  0  0  0  0  0  0
   -5.3280   -1.6460   -0.8580 C   0  0  0  0  0  0  0  0  0  0  0  0
   -6.5350   -1.7700   -1.5380 O   0  0  0  0  0  0  0  0  0  0  0  0
   -3.8910    0.0140    0.2610 C   0  0  0  0  0  0  0  0  0  0  0  0
   -2.8920    0.7810   -0.2910 C   0  0  0  0  0  0  0  0  0  0  0  0
   -1.6880    0.9880    0.3980 C   0  0  0  0  0  0  0  0  0  0  0  0
   -0.6620    1.8080   -0.2180 C   0  0  0  0  0  0  0  0  0  0  0  0
    0.6270    1.5220   -0.1350 C   0  0  0  0  0  0  0  0  0  0  0  0
    1.3650    0.1200    0.7190 S   0  0  0  0  0  0  0  0  0  0  0  0
    3.0600    0.5180    0.3290 C   0  0  0  0  0  0  0  0  0  0  0  0
    4.2050   -0.1480    0.6750 C   0  0  0  0  0  0  0  0  0  0  0  0
    5.4110    0.3240    0.2740 N   0  0  0  0  0  0  0  0  0  0  0  0
    6.5970   -0.3820    0.6110 C   0  0  0  0  0  0  0  0  0  0  0  0
    7.0140   -1.5010   -0.2480 C   0  0  0  0  0  0  0  0  0  0  0  0
    7.3260   -1.0860   -1.6380 C   0  0  0  0  0  0  0  0  0  0  0  0
    8.4090   -0.2110   -1.6250 O   0  0  0  0  0  0  0  0  0  0  0  0
    5.4320    1.4350   -0.4510 C   0  0  0  0  0  0  0  0  0  0  0  0
    6.5350    1.9370   -0.8590 O   0  0  0  0  0  0  0  0  0  0  0  0
    4.2960    2.1330   -0.8190 C   0  0  0  0  0  0  0  0  0  0  0  0
    3.0400    1.6610   -0.4140 C   0  0  0  0  0  0  0  0  0  0  0  0
    1.7640    2.2310   -0.6860 C   0  0  0  0  0  0  0  0  0  0  0  0
    1.5480    3.3040   -1.3690 O   0  0  0  0  0  0  0  0  0  0  0  0
   -1.5410    0.4110    1.6200 C   0  0  0  0  0  0  0  0  0  0  0  0
   -2.5290   -0.3650    2.1980 C   0  0  0  0  0  0  0  0  0  0  0  0
   -2.3100   -0.9710    3.5410 C   0  0  0  0  0  0  0  0  0  0  0  0
   -3.7060   -0.5540    1.4990 C   0  0  0  0  0  0  0  0  0  0  0  0
   -4.7340   -1.3330    2.0540 N   0  0  0  0  0  0  0  0  0  0  0  0
  1  2  1  0
  3  2  1  6
  3  4  1  0
  3  6  1  0
  4  5  1  0
  6  7  2  0
  6 28  1  0
  7  8  1  0
  8  9  1  0
  8 25  2  0
  9 10  2  3
 10 11  1  0
 10 23  1  0
 11 12  1  0
 12 13  2  0
 12 22  1  0
 13 14  1  0
 14 15  1  0
 14 19  1  0
 15 16  1  0
 16 17  1  0
 17 18  1  0
 19 20  2  0
 19 21  1  0
 21 22  2  0
 22 23  1  0
 23 24  2  0
 25 26  1  0
 26 27  1  0
 26 28  2  0
 28 29  1  0
M  END
