
     RDKit          3D

 35 39  0  0  0  0  0  0  0  0999 V2000
    9.1460    0.0430   -0.5980 C   0  0  0  0  0  0  0  0  0  0  0  0
    8.0520   -0.8600   -1.1660 C   0  0  1  0  0  0  0  0  0  0  0  0
    8.2210   -2.2140   -0.5110 C   0  0  0  0  0  0  0  0  0  0  0  0
    6.7130   -0.2940   -0.8370 C   0  0  0  0  0  0  0  0  0  0  0  0
    5.8500    0.0990   -1.8370 C   0  0  0  0  0  0  0  0  0  0  0  0
    4.6050    0.6270   -1.5450 C   0  0  0  0  0  0  0  0  0  0  0  0
    4.1660    0.7860   -0.2460 C   0  0  0  0  0  0  0  0  0  0  0  0
    2.8860    1.3290    0.0590 N   0  0  0  0  0  0  0  0  0  0  0  0
    1.6950    1.2750   -0.7530 C   0  0  0  0  0  0  0  0  0  0  0  0
    1.6210    0.7270   -1.8700 O   0  0  0  0  0  0  0  0  0  0  0  0
    0.5990    1.9660   -0.0500 C   0  0  0  0  0  0  0  0  0  0  0  0
    1.1010    2.4020    1.1010 C   0  0  0  0  0  0  0  0  0  0  0  0
    0.0270    3.3070    2.2360 S   0  0  0  0  0  0  0  0  0  0  0  0
   -1.6540    2.6450    1.9760 C   0  0  2  0  0  0  0  0  0  0  0  0
   -1.9690    1.6470    2.9840 N   0  0  0  0  0  0  0  0  0  0  0  0
   -2.7770    0.6550    2.3420 C   0  0  0  0  0  0  0  0  0  0  0  0
   -3.6380   -0.3270    2.7780 C   0  0  0  0  0  0  0  0  0  0  0  0
   -4.2750   -1.1360    1.8680 C   0  0  0  0  0  0  0  0  0  0  0  0
   -4.0890   -1.0090    0.4970 C   0  0  0  0  0  0  0  0  0  0  0  0
   -4.7950   -1.9170   -0.4280 C   0  0  2  0  0  0  0  0  0  0  0  0
   -3.9580   -2.3150   -1.4620 O   0  0  0  0  0  0  0  0  0  0  0  0
   -6.1440   -1.4500   -0.8610 C   0  0  1  0  0  0  0  0  0  0  0  0
   -6.8110   -2.4280   -1.8130 C   0  0  0  0  0  0  0  0  0  0  0  0
   -7.0980   -1.3770    0.3440 C   0  0  0  0  0  0  0  0  0  0  0  0
   -6.0620   -0.1130   -1.4880 C   0  0  0  0  0  0  0  0  0  0  0  0
   -5.6590    1.0510   -0.7860 N   0  0  0  0  0  0  0  0  0  0  0  0
   -6.3610    0.0130   -2.7030 O   0  0  0  0  0  0  0  0  0  0  0  0
   -3.2260   -0.0240    0.0680 C   0  0  0  0  0  0  0  0  0  0  0  0
   -2.5760    0.8000    0.9680 C   0  0  0  0  0  0  0  0  0  0  0  0
   -1.6530    1.8680    0.7520 N   0  0  0  0  0  0  0  0  0  0  0  0
   -0.8270    2.2380   -0.3700 C   0  0  0  0  0  0  0  0  0  0  0  0
    2.4880    2.0430    1.2220 C   0  0  0  0  0  0  0  0  0  0  0  0
    3.2480    2.3050    2.1860 O   0  0  0  0  0  0  0  0  0  0  0  0
    5.0360    0.3900    0.7510 C   0  0  0  0  0  0  0  0  0  0  0  0
    6.2790   -0.1370    0.4630 C   0  0  0  0  0  0  0  0  0  0  0  0
  2  1  1  1
  2  3  1  0
  2  4  1  0
  4  5  2  0
  4 35  1  0
  5  6  1  0
  6  7  2  0
  7  8  1  0
  7 34  1  0
  8  9  1  0
  8 32  1  0
  9 10  2  0
  9 11  1  0
 11 12  2  0
 11 31  1  0
 12 13  1  0
 12 32  1  0
 13 14  1  0
 14 15  1  1
 14 30  1  0
 15 16  1  0
 16 17  2  0
 16 29  1  0
 17 18  1  0
 18 19  2  0
 19 20  1  0
 19 28  1  0
 20 21  1  6
 20 22  1  0
 22 23  1  6
 22 24  1  0
 22 25  1  0
 25 26  1  0
 25 27  2  0
 28 29  2  0
 29 30  1  0
 30 31  1  0
 32 33  2  0
 34 35  2  0
M  END
