
     RDKit          3D

 35 39  0  0  0  0  0  0  0  0999 V2000
    1.0070   -1.1720    2.0660 C   0  0  0  0  0  0  0  0  0  0  0  0
    1.5710   -1.0440    0.8440 C   0  0  0  0  0  0  0  0  0  0  0  0
    0.8300   -1.5120   -0.3190 C   0  0  0  0  0  0  0  0  0  0  0  0
    0.0760   -0.4990   -1.1040 C   0  0  2  0  0  0  0  0  0  0  0  0
    0.7270    0.5400   -1.6590 O   0  0  0  0  0  0  0  0  0  0  0  0
    0.4170    1.7040   -0.9770 C   0  0  0  0  0  0  0  0  0  0  0  0
   -0.5950    1.3820    0.0910 C   0  0  0  0  0  0  0  0  0  0  0  0
   -1.1310    0.0480   -0.3680 C   0  0  1  0  0  0  0  0  0  0  0  0
   -2.2920    0.1890   -1.2690 C   0  0  0  0  0  0  0  0  0  0  0  0
   -2.1780   -0.1340   -2.4810 O   0  0  0  0  0  0  0  0  0  0  0  0
   -3.5290    0.6750   -0.8190 N   0  0  0  0  0  0  0  0  0  0  0  0
   -4.6890    0.8210   -1.6970 C   0  0  2  0  0  0  0  0  0  0  0  0
   -4.9310    2.3310   -1.8180 C   0  0  0  0  0  0  0  0  0  0  0  0
   -5.2870    2.8750   -0.1250 S   0  0  0  0  0  0  0  0  0  0  0  0
   -6.4080    1.6680    0.5630 C   0  0  0  0  0  0  0  0  0  0  0  0
   -7.2030    1.6860    1.6430 N   0  0  0  0  0  0  0  0  0  0  0  0
   -7.8640    0.5130    1.7380 C   0  0  0  0  0  0  0  0  0  0  0  0
   -8.7920    0.0180    2.6520 C   0  0  0  0  0  0  0  0  0  0  0  0
   -9.2750   -1.2410    2.4490 C   0  0  0  0  0  0  0  0  0  0  0  0
   -8.8930   -2.0470    1.3910 C   0  0  0  0  0  0  0  0  0  0  0  0
   -7.9830   -1.5440    0.5080 C   0  0  0  0  0  0  0  0  0  0  0  0
   -7.4760   -0.2820    0.6800 C   0  0  0  0  0  0  0  0  0  0  0  0
   -6.5760    0.4750   -0.0190 N   0  0  0  0  0  0  0  0  0  0  0  0
   -5.8740    0.1200   -1.2030 C   0  0  0  0  0  0  0  0  0  0  0  0
   -6.2990   -0.8750   -1.8860 O   0  0  0  0  0  0  0  0  0  0  0  0
    2.8670   -0.4750    0.8790 N   0  0  0  0  0  0  0  0  0  0  0  0
    3.7160   -0.2270   -0.2210 C   0  0  0  0  0  0  0  0  0  0  0  0
    3.3800   -0.5200   -1.3620 O   0  0  0  0  0  0  0  0  0  0  0  0
    5.0730    0.4070   -0.0460 C   0  0  1  0  0  0  0  0  0  0  0  0
    5.8620   -0.5340    0.8390 C   0  0  0  0  0  0  0  0  0  0  0  0
    7.2070    0.0380    1.2200 C   0  0  0  0  0  0  0  0  0  0  0  0
    7.9020    0.4980   -0.0210 C   0  0  1  0  0  0  0  0  0  0  0  0
    9.3050   -0.0800   -0.0250 C   0  0  0  0  0  0  0  0  0  0  0  0
    7.2170    0.0090   -1.2810 C   0  0  0  0  0  0  0  0  0  0  0  0
    5.7910    0.5080   -1.3660 C   0  0  0  0  0  0  0  0  0  0  0  0
  1  2  2  0
  2  3  1  0
  2 26  1  0
  4  3  1  1
  4  5  1  0
  4  8  1  0
  5  6  1  0
  6  7  1  0
  7  8  1  0
  8  9  1  6
  9 10  2  0
  9 11  1  0
 12 11  1  1
 12 13  1  0
 12 24  1  0
 13 14  1  0
 14 15  1  0
 15 16  2  0
 15 23  1  0
 16 17  1  0
 17 18  2  0
 17 22  1  0
 18 19  1  0
 19 20  2  0
 20 21  1  0
 21 22  2  0
 22 23  1  0
 23 24  1  0
 24 25  2  0
 26 27  1  0
 27 28  2  0
 29 27  1  6
 29 30  1  0
 29 35  1  0
 30 31  1  0
 31 32  1  0
 32 33  1  1
 32 34  1  0
 34 35  1  0
M  END
