
     RDKit          3D

 35 38  0  0  0  0  0  0  0  0999 V2000
   -5.5480   -0.7660    3.4320 C   0  0  0  0  0  0  0  0  0  0  0  0
   -5.4560   -0.8080    1.9440 C   0  0  1  0  0  0  0  0  0  0  0  0
   -4.0010   -0.6580    1.4700 C   0  0  0  0  0  0  0  0  0  0  0  0
   -4.1130   -0.4140    0.0800 N   0  0  0  0  0  0  0  0  0  0  0  0
   -3.2790    0.6210   -0.5190 C   0  0  0  0  0  0  0  0  0  0  0  0
   -2.1670    0.3120   -0.7660 N   0  0  0  0  0  0  0  0  0  0  0  0
   -0.9620    0.0470   -1.0580 C   0  0  0  0  0  0  0  0  0  0  0  0
   -0.7220   -1.1100   -1.8150 C   0  0  0  0  0  0  0  0  0  0  0  0
    0.5170   -1.3660   -2.2660 C   0  0  0  0  0  0  0  0  0  0  0  0
    1.6190   -0.5200   -2.0200 C   0  0  0  0  0  0  0  0  0  0  0  0
    3.1570   -0.9380   -2.7360 S   0  0  0  0  0  0  0  0  0  0  0  0
    4.4730    0.2280   -2.6170 C   0  0  0  0  0  0  0  0  0  0  0  0
    5.1970    0.2060   -1.3170 C   0  0  0  0  0  0  0  0  0  0  0  0
    4.9190    0.7810   -0.1110 C   0  0  0  0  0  0  0  0  0  0  0  0
    5.9470    0.4430    0.7570 C   0  0  0  0  0  0  0  0  0  0  0  0
    6.8300   -0.3370    0.0480 C   0  0  0  0  0  0  0  0  0  0  0  0
    8.0730   -0.9040    0.6020 C   0  0  0  0  0  0  0  0  0  0  0  0
    8.5120   -0.7190    1.8050 C   0  0  0  0  0  0  0  0  0  0  0  0
    9.7680   -1.2870    2.3640 C   0  0  0  0  0  0  0  0  0  0  0  0
   10.4490   -2.1280    1.3980 N   0  0  0  0  0  0  0  0  0  0  0  0
    9.9980   -2.3490    0.0720 C   0  0  0  0  0  0  0  0  0  0  0  0
    8.8610   -1.7640   -0.3100 C   0  0  0  0  0  0  0  0  0  0  0  0
    6.3570   -0.4450   -1.1300 O   0  0  0  0  0  0  0  0  0  0  0  0
    1.3970    0.6130   -1.2780 C   0  0  0  0  0  0  0  0  0  0  0  0
    0.1280    0.8780   -0.8110 C   0  0  0  0  0  0  0  0  0  0  0  0
   -3.6950    1.7700   -1.3060 N   0  0  0  0  0  0  0  0  0  0  0  0
   -4.3230    2.7690   -0.5220 C   0  0  0  0  0  0  0  0  0  0  0  0
   -4.1360    2.3830    0.7110 O   0  0  0  0  0  0  0  0  0  0  0  0
   -4.9960    3.9340   -0.9740 C   0  0  0  0  0  0  0  0  0  0  0  0
   -5.3090    4.8160    0.2360 C   0  0  0  0  0  0  0  0  0  0  0  0
   -6.1240    4.1750    1.1550 O   0  0  0  0  0  0  0  0  0  0  0  0
   -5.0080   -1.1880   -0.7240 C   0  0  0  0  0  0  0  0  0  0  0  0
   -5.6800   -2.2370    0.1020 C   0  0  2  0  0  0  0  0  0  0  0  0
   -7.0010   -2.5820   -0.6170 C   0  0  0  0  0  0  0  0  0  0  0  0
   -6.0190   -1.9080    1.3740 O   0  0  0  0  0  0  0  0  0  0  0  0
  2  1  1  1
  2  3  1  0
  2 35  1  0
  3  4  1  0
  4  5  1  0
  4 32  1  0
  5  6  2  3
  5 26  1  0
  6  7  1  0
  7  8  2  0
  7 25  1  0
  8  9  1  0
  9 10  2  0
 10 11  1  0
 10 24  1  0
 11 12  1  0
 12 13  1  0
 13 14  2  0
 13 23  1  0
 14 15  1  0
 15 16  2  0
 16 17  1  0
 16 23  1  0
 17 18  2  0
 17 22  1  0
 18 19  1  0
 19 20  1  0
 20 21  1  0
 21 22  2  0
 24 25  2  0
 26 27  1  0
 27 28  2  0
 27 29  1  0
 29 30  1  0
 30 31  1  0
 32 33  1  0
 33 34  1  6
 33 35  1  0
M  END
