
     RDKit          3D

 34 38  0  0  0  0  0  0  0  0999 V2000
    8.8870    1.5100    0.7380 C   0  0  0  0  0  0  0  0  0  0  0  0
    8.2860    0.1500    0.9770 C   0  0  2  0  0  0  0  0  0  0  0  0
    9.3550   -0.8970    0.6650 C   0  0  0  0  0  0  0  0  0  0  0  0
    7.0910   -0.0740    0.2150 N   0  0  1  0  0  0  0  0  0  0  0  0
    5.9660   -0.0310    1.1130 C   0  0  0  0  0  0  0  0  0  0  0  0
    4.6430   -0.0980    0.3790 C   0  0  0  0  0  0  0  0  0  0  0  0
    4.6050    0.8030   -0.6950 N   0  0  0  0  0  0  0  0  0  0  0  0
    3.8970    2.0040   -0.5890 C   0  0  0  0  0  0  0  0  0  0  0  0
    2.4000    1.8550   -0.5310 C   0  0  0  0  0  0  0  0  0  0  0  0
    1.7400    2.9140   -0.4240 O   0  0  0  0  0  0  0  0  0  0  0  0
    1.7630    0.6170   -0.5940 N   0  0  0  0  0  0  0  0  0  0  0  0
    0.3660    0.3730   -0.5490 C   0  0  0  0  0  0  0  0  0  0  0  0
   -0.6300    1.3100   -0.5330 C   0  0  0  0  0  0  0  0  0  0  0  0
   -1.9640    0.9930   -0.4850 N   0  0  0  0  0  0  0  0  0  0  0  0
   -2.3810   -0.2800   -0.4490 C   0  0  0  0  0  0  0  0  0  0  0  0
   -1.4090   -1.2490   -0.4630 C   0  0  0  0  0  0  0  0  0  0  0  0
   -0.0650   -0.9630   -0.5120 C   0  0  0  0  0  0  0  0  0  0  0  0
   -1.9040   -2.6200   -0.4260 C   0  0  0  0  0  0  0  0  0  0  0  0
   -3.1420   -2.9150   -0.3830 N   0  0  0  0  0  0  0  0  0  0  0  0
   -4.2030   -1.9280   -0.3660 C   0  0  0  0  0  0  0  0  0  0  0  0
   -5.4400   -2.3850   -0.3500 C   0  0  0  0  0  0  0  0  0  0  0  0
   -5.7620   -3.8080   -0.3540 N   0  0  0  0  0  0  0  0  0  0  0  0
   -7.0310   -3.9570   -0.3440 C   0  0  0  0  0  0  0  0  0  0  0  0
   -7.6570   -2.6910   -0.3300 N   0  0  0  0  0  0  0  0  0  0  0  0
   -6.7210   -1.7430   -0.3320 C   0  0  0  0  0  0  0  0  0  0  0  0
   -7.0160   -0.2980   -0.2610 C   0  0  2  0  0  0  0  0  0  0  0  0
   -6.6320    0.2270    1.0910 C   0  0  0  0  0  0  0  0  0  0  0  0
   -7.7960    0.4310    2.0260 C   0  0  0  0  0  0  0  0  0  0  0  0
   -8.6110    1.5790    1.4340 C   0  0  0  0  0  0  0  0  0  0  0  0
   -8.8860    1.2860   -0.0250 C   0  0  0  0  0  0  0  0  0  0  0  0
   -8.5330   -0.1350   -0.3990 C   0  0  0  0  0  0  0  0  0  0  0  0
   -3.7990   -0.5980   -0.4000 N   0  0  0  0  0  0  0  0  0  0  0  0
    5.6660    0.6730   -1.6020 C   0  0  0  0  0  0  0  0  0  0  0  0
    6.9780    0.8600   -0.8700 C   0  0  0  0  0  0  0  0  0  0  0  0
  2  1  1  6
  2  3  1  0
  2  4  1  0
  4  5  1  1
  4 34  1  0
  5  6  1  0
  6  7  1  0
  7  8  1  0
  7 33  1  0
  8  9  1  0
  9 10  2  0
  9 11  1  0
 11 12  1  0
 12 13  2  0
 12 17  1  0
 13 14  1  0
 14 15  2  0
 15 16  1  0
 15 32  1  0
 16 17  2  0
 16 18  1  0
 18 19  2  0
 19 20  1  0
 20 21  2  3
 20 32  1  0
 21 22  1  0
 21 25  1  0
 22 23  2  0
 23 24  1  0
 24 25  2  0
 26 25  1  1
 26 27  1  0
 26 31  1  0
 27 28  1  0
 28 29  1  0
 29 30  1  0
 30 31  1  0
 33 34  1  0
M  CHG  1   4   1
M  END
