
     RDKit          3D

 34 38  0  0  0  0  0  0  0  0999 V2000
   -1.4330   -2.8860    2.0320 C   0  0  0  0  0  0  0  0  0  0  0  0
   -0.9840   -3.1870    0.6490 C   0  0  0  0  0  0  0  0  0  0  0  0
   -0.6940   -4.3980    0.1100 N   0  0  0  0  0  0  0  0  0  0  0  0
   -0.3310   -4.2380   -1.1420 N   0  0  0  0  0  0  0  0  0  0  0  0
   -0.3790   -2.9070   -1.4420 C   0  0  0  0  0  0  0  0  0  0  0  0
   -0.0340   -2.3930   -2.7720 C   0  0  0  0  0  0  0  0  0  0  0  0
   -0.7890   -2.2080   -0.3310 C   0  0  0  0  0  0  0  0  0  0  0  0
   -0.9830   -0.7950   -0.1990 C   0  0  0  0  0  0  0  0  0  0  0  0
   -0.0940    0.2510   -0.1710 C   0  0  0  0  0  0  0  0  0  0  0  0
    1.3520    0.0930   -0.2760 C   0  0  0  0  0  0  0  0  0  0  0  0
    1.9310    0.0550   -1.5080 C   0  0  0  0  0  0  0  0  0  0  0  0
    3.2810   -0.0920   -1.6380 C   0  0  0  0  0  0  0  0  0  0  0  0
    4.0510   -0.2020   -0.4910 C   0  0  0  0  0  0  0  0  0  0  0  0
    3.5070   -0.1690    0.7720 C   0  0  0  0  0  0  0  0  0  0  0  0
    4.2640   -0.2740    1.8810 O   0  0  0  0  0  0  0  0  0  0  0  0
    5.6060   -0.3790    2.1400 C   0  0  2  0  0  0  0  0  0  0  0  0
    6.4880    0.5550    1.2920 C   0  0  0  0  0  0  0  0  0  0  0  0
    6.0610   -1.8080    1.9570 C   0  0  0  0  0  0  0  0  0  0  0  0
    2.1070   -0.0150    0.8520 C   0  0  0  0  0  0  0  0  0  0  0  0
   -0.7560    1.4350   -0.0290 N   0  0  0  0  0  0  0  0  0  0  0  0
   -0.1600    2.7450    0.0440 C   0  0  0  0  0  0  0  0  0  0  0  0
   -0.0000    3.4030   -1.3010 C   0  0  0  0  0  0  0  0  0  0  0  0
    0.6160    4.7450   -1.1830 C   0  0  0  0  0  0  0  0  0  0  0  0
    0.9170    5.1620   -0.0260 O   0  0  0  0  0  0  0  0  0  0  0  0
    0.8640    5.5370   -2.2890 O   0  0  0  0  0  0  0  0  0  0  0  0
   -2.0920    1.1790    0.0380 C   0  0  0  0  0  0  0  0  0  0  0  0
   -3.1590    2.0420    0.1810 C   0  0  0  0  0  0  0  0  0  0  0  0
   -4.4370    1.5190    0.2230 C   0  0  0  0  0  0  0  0  0  0  0  0
   -4.6000    0.1540    0.1210 C   0  0  0  0  0  0  0  0  0  0  0  0
   -5.9850   -0.3880    0.1700 C   0  0  1  0  0  0  0  0  0  0  0  0
   -6.9900    0.3300    1.0190 C   0  0  0  0  0  0  0  0  0  0  0  0
   -7.0990    0.3540   -0.4650 C   0  0  0  0  0  0  0  0  0  0  0  0
   -3.5190   -0.6890   -0.0220 C   0  0  0  0  0  0  0  0  0  0  0  0
   -2.2380   -0.1880   -0.0660 C   0  0  0  0  0  0  0  0  0  0  0  0
  1  2  1  0
  2  3  2  0
  2  7  1  0
  3  4  1  0
  4  5  1  0
  5  6  1  0
  5  7  2  0
  7  8  1  0
  8  9  2  0
  8 34  1  0
  9 10  1  0
  9 20  1  0
 10 11  2  0
 10 19  1  0
 11 12  1  0
 12 13  2  0
 13 14  1  0
 14 15  1  0
 14 19  2  0
 15 16  1  0
 16 17  1  6
 16 18  1  0
 20 21  1  0
 20 26  1  0
 21 22  1  0
 22 23  1  0
 23 24  2  0
 23 25  1  0
 26 27  2  0
 26 34  1  0
 27 28  1  0
 28 29  2  0
 30 29  1  6
 29 33  1  0
 30 31  1  0
 30 32  1  0
 31 32  1  0
 33 34  2  0
M  END
