
     RDKit          3D

 34 38  0  0  0  0  0  0  0  0999 V2000
    7.7700    1.5790    0.2320 C   0  0  0  0  0  0  0  0  0  0  0  0
    6.3570    2.0430    0.6470 C   0  0  0  0  0  0  0  0  0  0  0  0
    5.5020    1.5610   -0.5170 C   0  0  0  0  0  0  0  0  0  0  0  0
    5.6560    0.0860   -0.6070 C   0  0  0  0  0  0  0  0  0  0  0  0
    6.5140   -0.6340   -1.2920 N   0  0  0  0  0  0  0  0  0  0  0  0
    6.2180   -1.9370   -1.0760 N   0  0  0  0  0  0  0  0  0  0  0  0
    7.0610   -2.9820   -1.6620 C   0  0  0  0  0  0  0  0  0  0  0  0
    5.1820   -1.9950   -0.2680 N   0  0  0  0  0  0  0  0  0  0  0  0
    4.7770   -0.7860    0.0660 C   0  0  0  0  0  0  0  0  0  0  0  0
    3.8400   -0.2560    1.0480 C   0  0  0  0  0  0  0  0  0  0  0  0
    2.4940   -0.2430    0.8210 N   0  0  0  0  0  0  0  0  0  0  0  0
    1.7350    0.6260    1.6470 C   0  0  0  0  0  0  0  0  0  0  0  0
    0.2780    0.1620    1.6580 C   0  0  0  0  0  0  0  0  0  0  0  0
   -0.2580    0.1980    0.3040 N   0  0  0  0  0  0  0  0  0  0  0  0
   -1.5470    0.2420    0.0840 N   0  0  0  0  0  0  0  0  0  0  0  0
   -2.6470   -0.1750   -0.0830 C   0  0  0  0  0  0  0  0  0  0  0  0
   -2.8780   -1.6250   -0.0490 C   0  0  0  0  0  0  0  0  0  0  0  0
   -1.7680   -2.1920    0.0250 O   0  0  0  0  0  0  0  0  0  0  0  0
   -3.9970   -2.4780   -0.0780 N   0  0  0  0  0  0  0  0  0  0  0  0
   -5.4320   -2.2740    0.0430 C   0  0  0  0  0  0  0  0  0  0  0  0
   -5.9550   -3.4650    0.5680 C   0  0  0  0  0  0  0  0  0  0  0  0
   -7.2990   -3.5830    0.7820 C   0  0  0  0  0  0  0  0  0  0  0  0
   -8.0880   -2.4740    0.4630 C   0  0  0  0  0  0  0  0  0  0  0  0
   -7.5490   -1.3210   -0.0510 C   0  0  0  0  0  0  0  0  0  0  0  0
   -6.2010   -1.1930   -0.2750 C   0  0  0  0  0  0  0  0  0  0  0  0
   -5.9690    0.1180   -0.8070 N   0  0  0  0  0  0  0  0  0  0  0  0
   -4.9030    1.0540   -0.5970 C   0  0  0  0  0  0  0  0  0  0  0  0
   -3.6190    0.9400   -0.3230 C   0  0  0  0  0  0  0  0  0  0  0  0
   -2.6860    2.0930   -0.2010 C   0  0  0  0  0  0  0  0  0  0  0  0
   -3.3200    3.4230   -0.3350 C   0  0  0  0  0  0  0  0  0  0  0  0
   -4.6030    3.4280   -1.1250 C   0  0  0  0  0  0  0  0  0  0  0  0
   -5.5760    2.3810   -0.6740 C   0  0  0  0  0  0  0  0  0  0  0  0
    0.7180    0.1200   -0.8190 C   0  0  0  0  0  0  0  0  0  0  0  0
    1.8940   -0.6990   -0.3740 C   0  0  0  0  0  0  0  0  0  0  0  0
  1  2  1  0
  2  3  1  0
  3  4  1  0
  4  5  2  0
  4  9  1  0
  5  6  1  0
  6  7  1  0
  6  8  1  0
  8  9  2  0
  9 10  1  0
 10 11  1  0
 11 12  1  0
 11 34  1  0
 12 13  1  0
 13 14  1  0
 14 15  1  0
 14 33  1  0
 15 16  2  3
 16 17  1  0
 16 28  1  0
 17 18  2  0
 17 19  1  0
 19 20  1  0
 20 21  2  0
 20 25  1  0
 21 22  1  0
 22 23  2  0
 23 24  1  0
 24 25  2  0
 25 26  1  0
 26 27  1  0
 27 28  2  0
 27 32  1  0
 28 29  1  0
 29 30  1  0
 30 31  1  0
 31 32  1  0
 33 34  1  0
M  CHG  1   8   1
M  END
