
     RDKit          3D

 34 38  0  0  0  0  0  0  0  0999 V2000
    5.4220   -2.1650   -2.1620 C   0  0  0  0  0  0  0  0  0  0  0  0
    5.3230   -0.9300   -1.4430 N   0  0  0  0  0  0  0  0  0  0  0  0
    6.3500   -0.5250   -0.6110 N   0  0  0  0  0  0  0  0  0  0  0  0
    6.5850    0.6350   -0.1640 C   0  0  0  0  0  0  0  0  0  0  0  0
    7.7310    0.8300    0.7030 C   0  0  0  0  0  0  0  0  0  0  0  0
    8.5800   -0.1930    1.0640 C   0  0  0  0  0  0  0  0  0  0  0  0
    9.6630    0.0130    1.8880 C   0  0  0  0  0  0  0  0  0  0  0  0
    9.8840    1.2600    2.3460 N   0  0  0  0  0  0  0  0  0  0  0  0
    9.0840    2.2780    2.0180 C   0  0  0  0  0  0  0  0  0  0  0  0
    7.9950    2.0870    1.1930 C   0  0  0  0  0  0  0  0  0  0  0  0
    4.1730   -0.1220   -1.5800 C   0  0  0  0  0  0  0  0  0  0  0  0
    4.3070    1.1320   -2.0730 N   0  0  0  0  0  0  0  0  0  0  0  0
    3.1900    1.8540   -2.1870 C   0  0  0  0  0  0  0  0  0  0  0  0
    1.9980    1.3880   -1.8400 N   0  0  0  0  0  0  0  0  0  0  0  0
    1.7870    0.1310   -1.3350 C   0  0  0  0  0  0  0  0  0  0  0  0
    0.4860   -0.2930   -0.9670 N   0  0  0  0  0  0  0  0  0  0  0  0
   -0.6020    0.5800   -1.4250 C   0  0  0  0  0  0  0  0  0  0  0  0
   -1.5180    0.8120   -0.2670 C   0  0  0  0  0  0  0  0  0  0  0  0
   -2.1210   -0.5630    0.0540 C   0  0  2  0  0  0  0  0  0  0  0  0
   -1.0500   -1.4190    0.6310 C   0  0  0  0  0  0  0  0  0  0  0  0
    0.1800   -1.4540   -0.2060 C   0  0  0  0  0  0  0  0  0  0  0  0
   -2.6690   -1.1820   -1.1950 C   0  0  0  0  0  0  0  0  0  0  0  0
   -3.5620   -2.2050   -0.9880 O   0  0  0  0  0  0  0  0  0  0  0  0
   -4.5460   -1.9520   -0.0630 C   0  0  0  0  0  0  0  0  0  0  0  0
   -4.5250   -0.4750    0.3600 C   0  0  1  0  0  0  0  0  0  0  0  0
   -5.6780   -0.2410    1.1570 N   0  0  1  0  0  0  0  0  0  0  0  0
   -5.6450    0.9640    1.9430 C   0  0  0  0  0  0  0  0  0  0  0  0
   -5.7230    2.2230    1.1470 C   0  0  0  0  0  0  0  0  0  0  0  0
   -6.7080    2.1370    0.0140 C   0  0  0  0  0  0  0  0  0  0  0  0
   -7.6250    0.9560    0.2500 C   0  0  0  0  0  0  0  0  0  0  0  0
   -6.8590   -0.3410    0.3460 C   0  0  0  0  0  0  0  0  0  0  0  0
   -3.2200   -0.2880    1.0770 C   0  0  0  0  0  0  0  0  0  0  0  0
    2.9220   -0.6270   -1.2110 C   0  0  0  0  0  0  0  0  0  0  0  0
    2.9100   -1.9520   -0.7290 N   0  0  0  0  0  0  0  0  0  0  0  0
  1  2  1  0
  2  3  1  0
  2 11  1  0
  3  4  2  3
  4  5  1  0
  5  6  2  0
  5 10  1  0
  6  7  1  0
  7  8  2  0
  8  9  1  0
  9 10  2  0
 11 12  2  0
 11 33  1  0
 12 13  1  0
 13 14  2  0
 14 15  1  0
 15 16  1  0
 15 33  2  0
 16 17  1  0
 16 21  1  0
 17 18  1  0
 19 18  1  6
 19 20  1  0
 19 22  1  0
 19 32  1  0
 20 21  1  0
 22 23  1  0
 23 24  1  0
 25 24  1  1
 25 26  1  0
 25 32  1  0
 26 27  1  6
 26 31  1  0
 27 28  1  0
 28 29  1  0
 29 30  1  0
 30 31  1  0
 33 34  1  0
M  CHG  1  26   1
M  END
