
     RDKit          3D

 35 39  0  0  0  0  0  0  0  0999 V2000
   -0.9650   -4.9430    3.9630 C   0  0  0  0  0  0  0  0  0  0  0  0
   -0.4720   -4.3380    2.6880 C   0  0  0  0  0  0  0  0  0  0  0  0
    0.5780   -4.9620    2.0530 C   0  0  0  0  0  0  0  0  0  0  0  0
    1.0120   -4.3830    0.8810 C   0  0  0  0  0  0  0  0  0  0  0  0
    0.4410   -3.2490    0.3610 C   0  0  0  0  0  0  0  0  0  0  0  0
   -0.6000   -2.6480    1.0090 C   0  0  0  0  0  0  0  0  0  0  0  0
   -1.2330   -1.5070    0.5550 O   0  0  0  0  0  0  0  0  0  0  0  0
   -0.9840   -0.7940   -0.6070 C   0  0  1  0  0  0  0  0  0  0  0  0
    0.3720   -0.3160   -0.7200 N   0  0  0  0  0  0  0  0  0  0  0  0
    1.0590    0.2900    0.3660 C   0  0  0  0  0  0  0  0  0  0  0  0
    0.4990    0.4250    1.4940 O   0  0  0  0  0  0  0  0  0  0  0  0
    2.4570    0.7930    0.2330 C   0  0  2  0  0  0  0  0  0  0  0  0
    2.8310    1.5120   -1.0170 C   0  0  0  0  0  0  0  0  0  0  0  0
    3.3310    0.1070   -0.7510 C   0  0  1  0  0  0  0  0  0  0  0  0
    4.8130    0.0030   -0.5370 C   0  0  2  0  0  0  0  0  0  0  0  0
    5.4290   -0.7480   -1.7070 C   0  0  0  0  0  0  0  0  0  0  0  0
    5.1990   -0.7040    0.7200 C   0  0  0  0  0  0  0  0  0  0  0  0
   -1.4120   -1.5220   -1.8830 C   0  0  0  0  0  0  0  0  0  0  0  0
   -2.9230   -1.6180   -1.5400 C   0  0  0  0  0  0  0  0  0  0  0  0
   -3.1310   -0.1470   -1.2530 C   0  0  0  0  0  0  0  0  0  0  0  0
   -4.1850    0.7190   -1.4360 C   0  0  0  0  0  0  0  0  0  0  0  0
   -4.1220    2.0580   -1.1160 C   0  0  0  0  0  0  0  0  0  0  0  0
   -2.9600    2.5630   -0.5900 C   0  0  0  0  0  0  0  0  0  0  0  0
   -2.8070    3.9120   -0.2360 N   0  0  0  0  0  0  0  0  0  0  0  0
   -2.9750    4.8590   -1.1800 C   0  0  0  0  0  0  0  0  0  0  0  0
   -3.2660    4.5100   -2.3620 O   0  0  0  0  0  0  0  0  0  0  0  0
   -2.8220    6.1410   -0.8140 N   0  0  0  0  0  0  0  0  0  0  0  0
   -2.5090    6.4710    0.4670 C   0  0  0  0  0  0  0  0  0  0  0  0
   -2.3820    7.6800    0.7370 O   0  0  0  0  0  0  0  0  0  0  0  0
   -2.3490    5.4960    1.3840 N   0  0  0  0  0  0  0  0  0  0  0  0
   -2.4950    4.2050    1.0470 C   0  0  0  0  0  0  0  0  0  0  0  0
   -2.3020    2.9990    2.1610 S   0  0  0  0  0  0  0  0  0  0  0  0
   -1.8890    1.7010   -0.3990 C   0  0  0  0  0  0  0  0  0  0  0  0
   -1.9560    0.3700   -0.7170 C   0  0  0  0  0  0  0  0  0  0  0  0
   -1.0620   -3.2050    2.1930 C   0  0  0  0  0  0  0  0  0  0  0  0
  1  2  1  0
  2  3  2  0
  2 35  1  0
  3  4  1  0
  4  5  2  0
  5  6  1  0
  6  7  1  0
  6 35  2  0
  7  8  1  0
  8  9  1  6
  8 18  1  0
  8 34  1  0
  9 10  1  0
 10 11  2  0
 12 10  1  6
 12 13  1  0
 12 14  1  0
 14 13  1  6
 14 15  1  0
 15 16  1  6
 15 17  1  0
 18 19  1  0
 19 20  1  0
 20 21  2  0
 20 34  1  0
 21 22  1  0
 22 23  2  0
 23 24  1  0
 23 33  1  0
 24 25  1  0
 24 31  1  0
 25 26  2  0
 25 27  1  0
 27 28  1  0
 28 29  2  0
 28 30  1  0
 30 31  1  0
 31 32  2  0
 33 34  2  0
M  END
