
     RDKit          3D

  7  6  0  0  0  0  0  0  0  0999 V2000
   -2.0330   -0.0900    0.1790 N   0  0  0  0  0  0  0  0  0  0  0  0
   -0.8690   -0.4780   -0.6120 C   0  0  0  0  0  0  0  0  0  0  0  0
    0.3980   -0.0590    0.0300 C   0  0  0  0  0  0  0  0  0  0  0  0
    1.2720   -0.9710    0.3530 C   0  0  0  0  0  0  0  0  0  0  0  0
    1.0100   -2.3100    0.0960 O   0  0  0  0  0  0  0  0  0  0  0  0
    0.6270    1.3870    0.2830 C   0  0  0  0  0  0  0  0  0  0  0  0
    1.8460    1.6250    0.8840 O   0  0  0  0  0  0  0  0  0  0  0  0
  1  2  1  0
  2  3  1  0
  3  4  2  3
  3  6  1  0
  4  5  1  0
  6  7  1  0
M  CHG  1   1   1
M  END
