
     RDKit          3D

  7  7  0  0  0  0  0  0  0  0999 V2000
    2.0770   -0.2570   -0.4650 N   0  0  0  0  0  0  0  0  0  0  0  0
    1.4490   -0.1350    0.8560 C   0  0  0  0  0  0  0  0  0  0  0  0
   -0.0180    0.0660    0.6090 C   0  0  1  0  0  0  0  0  0  0  0  0
   -0.3080    1.1900   -0.1310 O   0  0  0  0  0  0  0  0  0  0  0  0
   -1.6410    0.9410   -0.5180 C   0  0  0  0  0  0  0  0  0  0  0  0
   -1.8250   -0.5700   -0.3420 C   0  0  0  0  0  0  0  0  0  0  0  0
   -0.4670   -0.9560   -0.2350 O   0  0  0  0  0  0  0  0  0  0  0  0
  1  2  1  0
  3  2  1  6
  3  4  1  0
  3  7  1  0
  4  5  1  0
  5  6  1  0
  6  7  1  0
M  CHG  1   1   1
M  END
