
     RDKit          3D

 22 24  0  0  0  0  0  0  0  0999 V2000
   -3.1000   -1.9690   -1.3800 C   0  0  0  0  0  0  0  0  0  0  0  0
   -2.7260   -1.7950    0.0930 C   0  0  2  0  0  0  0  0  0  0  0  0
   -3.9660   -1.6510    0.9330 C   0  0  0  0  0  0  0  0  0  0  0  0
   -4.7860   -0.4740    0.6280 C   0  0  0  0  0  0  0  0  0  0  0  0
   -6.0030   -0.6850    0.2810 O   0  0  0  0  0  0  0  0  0  0  0  0
   -4.3830    0.8910    0.6720 N   0  0  0  0  0  0  0  0  0  0  0  0
   -3.0810    1.3820    0.3690 C   0  0  0  0  0  0  0  0  0  0  0  0
   -3.0620    2.7630    0.2740 C   0  0  0  0  0  0  0  0  0  0  0  0
   -1.8580    3.3660   -0.0220 C   0  0  0  0  0  0  0  0  0  0  0  0
   -0.7020    2.6680   -0.2240 C   0  0  0  0  0  0  0  0  0  0  0  0
   -0.6970    1.2760   -0.1340 C   0  0  0  0  0  0  0  0  0  0  0  0
    0.5270    0.5260   -0.3720 C   0  0  0  0  0  0  0  0  0  0  0  0
    0.7530   -0.5450   -1.2050 C   0  0  0  0  0  0  0  0  0  0  0  0
    2.0330   -0.9370   -1.1230 N   0  0  0  0  0  0  0  0  0  0  0  0
    2.6410   -0.1520   -0.2610 N   0  0  0  0  0  0  0  0  0  0  0  0
    4.0490   -0.2740    0.0910 C   0  0  2  0  0  0  0  0  0  0  0  0
    4.6910    1.0880    0.2660 C   0  0  0  0  0  0  0  0  0  0  0  0
    4.7860   -1.0020   -1.0030 C   0  0  0  0  0  0  0  0  0  0  0  0
    4.2130   -1.0550    1.3780 C   0  0  0  0  0  0  0  0  0  0  0  0
    1.7720    0.7520    0.2220 C   0  0  0  0  0  0  0  0  0  0  0  0
   -1.9010    0.6860    0.1630 C   0  0  0  0  0  0  0  0  0  0  0  0
   -1.7870   -0.7320    0.2540 N   0  0  0  0  0  0  0  0  0  0  0  0
  2  1  1  6
  2  3  1  0
  2 22  1  0
  3  4  1  0
  4  5  2  0
  4  6  1  0
  6  7  1  0
  7  8  2  0
  7 21  1  0
  8  9  1  0
  9 10  2  0
 10 11  1  0
 11 12  1  0
 11 21  2  0
 12 13  1  0
 12 20  2  0
 13 14  2  0
 14 15  1  0
 15 16  1  0
 15 20  1  0
 16 17  1  1
 16 18  1  0
 16 19  1  0
 21 22  1  0
M  END
