
     RDKit          3D

  7  6  0  0  0  0  0  0  0  0999 V2000
   -1.3570    1.4130   -0.2250 N   0  0  0  0  0  0  0  0  0  0  0  0
   -0.2850    1.0670    0.6890 C   0  0  0  0  0  0  0  0  0  0  0  0
    0.3690   -0.2110    0.3420 C   0  0  0  0  0  0  0  0  0  0  0  0
    1.6380   -0.2160    0.0690 C   0  0  0  0  0  0  0  0  0  0  0  0
    2.3690    0.9490    0.0990 O   0  0  0  0  0  0  0  0  0  0  0  0
   -0.4130   -1.4620    0.3090 C   0  0  0  0  0  0  0  0  0  0  0  0
   -1.4660   -1.3940   -0.6310 O   0  0  0  0  0  0  0  0  0  0  0  0
  1  2  1  0
  2  3  1  0
  3  4  2  3
  3  6  1  0
  4  5  1  0
  6  7  1  0
M  END
