
     RDKit          3D

 20 22  0  0  0  0  0  0  0  0999 V2000
   -2.2940   -2.7530    1.2270 C   0  0  0  0  0  0  0  0  0  0  0  0
   -1.4470   -1.8980    0.5460 O   0  0  0  0  0  0  0  0  0  0  0  0
   -1.7100   -0.5590    0.2890 C   0  0  0  0  0  0  0  0  0  0  0  0
   -2.8690    0.0320    0.7340 C   0  0  0  0  0  0  0  0  0  0  0  0
   -3.0770    1.3670    0.4520 C   0  0  0  0  0  0  0  0  0  0  0  0
   -2.1470    2.0650   -0.2510 C   0  0  0  0  0  0  0  0  0  0  0  0
   -2.3660    3.4270   -0.5380 O   0  0  0  0  0  0  0  0  0  0  0  0
   -0.9900    1.4540   -0.6870 C   0  0  0  0  0  0  0  0  0  0  0  0
   -0.1130    2.2640   -1.3820 O   0  0  0  0  0  0  0  0  0  0  0  0
   -0.7170    0.1240   -0.4420 C   0  0  0  0  0  0  0  0  0  0  0  0
    0.5300   -0.5890   -0.8340 C   0  0  1  0  0  0  0  0  0  0  0  0
    1.0170   -0.1800   -2.1880 C   0  0  0  0  0  0  0  0  0  0  0  0
    2.3840   -0.7260   -2.4480 C   0  0  0  0  0  0  0  0  0  0  0  0
    2.6020   -1.3980   -3.4650 O   0  0  0  0  0  0  0  0  0  0  0  0
    3.3990   -0.4690   -1.5420 O   0  0  0  0  0  0  0  0  0  0  0  0
    2.9890   -0.2630   -0.2250 C   0  0  0  0  0  0  0  0  0  0  0  0
    3.7970    0.0040    0.8000 C   0  0  0  0  0  0  0  0  0  0  0  0
    2.9760    0.1500    2.0080 C   0  0  0  0  0  0  0  0  0  0  0  0
    1.5840   -0.0770    1.4890 C   0  0  0  0  0  0  0  0  0  0  0  0
    1.5940   -0.3100    0.1990 C   0  0  0  0  0  0  0  0  0  0  0  0
  1  2  1  0
  2  3  1  0
  3  4  2  0
  3 10  1  0
  4  5  1  0
  5  6  2  0
  6  7  1  0
  6  8  1  0
  8  9  1  0
  8 10  2  0
 11 10  1  1
 11 12  1  0
 11 20  1  0
 12 13  1  0
 13 14  2  0
 13 15  1  0
 15 16  1  0
 16 17  2  0
 16 20  1  0
 17 18  1  0
 18 19  1  0
 19 20  2  0
M  END
