
     RDKit          3D

 20 22  0  0  0  0  0  0  0  0999 V2000
    5.3540    0.0950    0.6980 C   0  0  0  0  0  0  0  0  0  0  0  0
    3.9660   -0.3440    0.4610 C   0  0  0  0  0  0  0  0  0  0  0  0
    3.3050   -1.1450    1.3680 C   0  0  0  0  0  0  0  0  0  0  0  0
    2.0150   -1.5390    1.1250 C   0  0  0  0  0  0  0  0  0  0  0  0
    1.3320   -1.1620   -0.0130 C   0  0  0  0  0  0  0  0  0  0  0  0
    0.0620   -1.5110   -0.3170 O   0  0  0  0  0  0  0  0  0  0  0  0
   -1.1030   -0.8200   -0.3830 C   0  0  0  0  0  0  0  0  0  0  0  0
   -1.7750   -0.7340   -1.6330 C   0  0  0  0  0  0  0  0  0  0  0  0
   -2.9490   -0.0600   -1.7920 C   0  0  0  0  0  0  0  0  0  0  0  0
   -3.6060    0.0250   -3.0080 O   0  0  0  0  0  0  0  0  0  0  0  0
   -3.5080    0.5600   -0.7040 C   0  0  0  0  0  0  0  0  0  0  0  0
   -2.8700    0.4850    0.5080 C   0  0  0  0  0  0  0  0  0  0  0  0
   -1.6630   -0.2000    0.7010 C   0  0  0  0  0  0  0  0  0  0  0  0
   -1.1480   -0.1880    1.9820 O   0  0  0  0  0  0  0  0  0  0  0  0
   -3.6960    1.2440    1.4750 C   0  0  0  0  0  0  0  0  0  0  0  0
   -4.9690    1.1630    0.9200 O   0  0  0  0  0  0  0  0  0  0  0  0
   -4.7500    1.3760   -0.4520 C   0  0  0  0  0  0  0  0  0  0  0  0
    1.9950   -0.3430   -0.9500 C   0  0  0  0  0  0  0  0  0  0  0  0
    3.2900    0.0420   -0.6880 C   0  0  0  0  0  0  0  0  0  0  0  0
    3.9830    0.8480   -1.5830 O   0  0  0  0  0  0  0  0  0  0  0  0
  1  2  1  0
  2  3  2  0
  2 19  1  0
  3  4  1  0
  4  5  2  0
  5  6  1  0
  5 18  1  0
  6  7  1  0
  7  8  2  0
  7 13  1  0
  8  9  1  0
  9 10  1  0
  9 11  2  0
 11 12  1  0
 11 17  1  0
 12 13  2  0
 12 15  1  0
 13 14  1  0
 15 16  1  0
 16 17  1  0
 18 19  2  0
 19 20  1  0
M  END
