
     RDKit          3D

 24 26  0  0  0  0  0  0  0  0999 V2000
    8.7800   -0.2690    0.1110 C   0  0  0  0  0  0  0  0  0  0  0  0
    7.7880   -1.2700   -0.0310 O   0  0  0  0  0  0  0  0  0  0  0  0
    6.4570   -0.9540    0.0170 C   0  0  0  0  0  0  0  0  0  0  0  0
    5.5370   -1.9660   -0.1270 C   0  0  0  0  0  0  0  0  0  0  0  0
    4.1960   -1.6810   -0.0840 C   0  0  0  0  0  0  0  0  0  0  0  0
    3.7550   -0.3900    0.1010 C   0  0  0  0  0  0  0  0  0  0  0  0
    4.6890    0.6120    0.2430 C   0  0  0  0  0  0  0  0  0  0  0  0
    6.0250    0.3450    0.2030 C   0  0  0  0  0  0  0  0  0  0  0  0
    3.9960    1.7710    0.4100 N   0  0  0  0  0  0  0  0  0  0  0  0
    2.6770    1.5070    0.3740 C   0  0  0  0  0  0  0  0  0  0  0  0
    1.5700    2.3140    0.4910 C   0  0  0  0  0  0  0  0  0  0  0  0
    0.3010    1.7540    0.4130 C   0  0  0  0  0  0  0  0  0  0  0  0
    0.0650    0.4280    0.2240 C   0  0  0  0  0  0  0  0  0  0  0  0
   -1.1820   -0.2240    0.1320 N   0  0  0  0  0  0  0  0  0  0  0  0
   -2.4580    0.3670    0.2140 C   0  0  0  0  0  0  0  0  0  0  0  0
   -2.5480    1.6050    0.3870 O   0  0  0  0  0  0  0  0  0  0  0  0
   -3.7020   -0.4840    0.0950 C   0  0  1  0  0  0  0  0  0  0  0  0
   -3.6420   -1.5060    1.1920 C   0  0  0  0  0  0  0  0  0  0  0  0
   -4.8880    0.3400    0.1850 N   0  0  0  0  0  0  0  0  0  0  0  0
   -5.8100   -0.0050   -0.8820 C   0  0  2  0  0  0  0  0  0  0  0  0
   -6.2760    1.2470   -1.5920 C   0  0  0  0  0  0  0  0  0  0  0  0
   -6.9710   -0.8230   -0.4150 C   0  0  0  0  0  0  0  0  0  0  0  0
    1.2050   -0.3660    0.1080 C   0  0  0  0  0  0  0  0  0  0  0  0
    2.4780    0.1590    0.1820 C   0  0  0  0  0  0  0  0  0  0  0  0
  1  2  1  0
  2  3  1  0
  3  4  2  0
  3  8  1  0
  4  5  1  0
  5  6  2  0
  6  7  1  0
  6 24  1  0
  7  8  2  0
  7  9  1  0
  9 10  1  0
 10 11  2  0
 10 24  1  0
 11 12  1  0
 12 13  2  0
 13 14  1  0
 13 23  1  0
 14 15  1  0
 15 16  2  0
 15 17  1  0
 17 18  1  1
 17 19  1  0
 19 20  1  0
 20 21  1  1
 20 22  1  0
 23 24  2  0
M  CHG  1  19   1
M  END
