
     RDKit          3D

 24 26  0  0  0  0  0  0  0  0999 V2000
   -3.7040   -3.1410   -0.5360 C   0  0  0  0  0  0  0  0  0  0  0  0
   -3.1390   -1.8660   -1.1110 C   0  0  0  0  0  0  0  0  0  0  0  0
   -3.2250   -0.7550   -0.1800 N   0  0  2  0  0  0  0  0  0  0  0  0
   -4.0600    0.2520   -0.8040 C   0  0  0  0  0  0  0  0  0  0  0  0
   -4.6560    1.2270    0.1660 C   0  0  0  0  0  0  0  0  0  0  0  0
   -3.7620    2.3350    0.5950 C   0  0  0  0  0  0  0  0  0  0  0  0
   -2.3160    2.1730    0.2300 C   0  0  0  0  0  0  0  0  0  0  0  0
   -1.7950    0.9380    0.8990 C   0  0  0  0  0  0  0  0  0  0  0  0
   -1.8810   -0.2990    0.0680 C   0  0  1  0  0  0  0  0  0  0  0  0
   -1.1860   -1.3870    0.8500 C   0  0  0  0  0  0  0  0  0  0  0  0
    0.2040   -1.0440    1.1790 N   0  0  0  0  0  0  0  0  0  0  0  0
    1.1890   -0.7840    0.2080 C   0  0  0  0  0  0  0  0  0  0  0  0
    0.7830   -0.8660   -1.0070 O   0  0  0  0  0  0  0  0  0  0  0  0
    2.5750   -0.4380    0.4000 C   0  0  0  0  0  0  0  0  0  0  0  0
    3.2610    0.1470   -0.6670 C   0  0  0  0  0  0  0  0  0  0  0  0
    4.5700    0.5050   -0.4770 C   0  0  0  0  0  0  0  0  0  0  0  0
    5.3000    1.0940   -1.4950 C   0  0  0  0  0  0  0  0  0  0  0  0
    6.6140    1.4580   -1.3000 C   0  0  0  0  0  0  0  0  0  0  0  0
    7.2160    1.2390   -0.0870 C   0  0  0  0  0  0  0  0  0  0  0  0
    6.4690    0.6460    0.9270 C   0  0  0  0  0  0  0  0  0  0  0  0
    5.1550    0.2750    0.7520 C   0  0  0  0  0  0  0  0  0  0  0  0
    4.5010   -0.2810    1.7630 N   0  0  0  0  0  0  0  0  0  0  0  0
    3.2050   -0.6410    1.5930 C   0  0  0  0  0  0  0  0  0  0  0  0
    2.6400   -1.1730    2.6100 O   0  0  0  0  0  0  0  0  0  0  0  0
  1  2  1  0
  3  2  1  6
  3  4  1  0
  3  9  1  0
  4  5  1  0
  5  6  1  0
  6  7  1  0
  7  8  1  0
  8  9  1  0
  9 10  1  1
 10 11  1  0
 11 12  1  0
 12 13  2  0
 12 14  1  0
 14 15  2  0
 14 23  1  0
 15 16  1  0
 16 17  2  0
 16 21  1  0
 17 18  1  0
 18 19  2  0
 19 20  1  0
 20 21  2  0
 21 22  1  0
 22 23  1  0
 23 24  2  0
M  CHG  1   3   1
M  END
