
     RDKit          3D

 20 22  0  0  0  0  0  0  0  0999 V2000
    0.7990   -4.0100   -0.6340 O   0  0  0  0  0  0  0  0  0  0  0  0
    1.5730   -3.1060   -0.1100 C   0  0  0  0  0  0  0  0  0  0  0  0
    2.7630   -3.5990    0.3640 O   0  0  0  0  0  0  0  0  0  0  0  0
    1.1100   -1.7410   -0.0850 C   0  0  0  0  0  0  0  0  0  0  0  0
   -0.2670   -1.4780   -0.1060 C   0  0  0  0  0  0  0  0  0  0  0  0
   -0.7670   -0.2260   -0.0900 C   0  0  0  0  0  0  0  0  0  0  0  0
   -2.1760    0.0970   -0.2880 C   0  0  1  0  0  0  0  0  0  0  0  0
   -3.1690   -0.4210    0.6850 C   0  0  0  0  0  0  0  0  0  0  0  0
   -4.3790    0.5020    0.3990 C   0  0  0  0  0  0  0  0  0  0  0  0
   -3.8940    1.2220   -0.8760 C   0  0  0  0  0  0  0  0  0  0  0  0
   -2.5130    1.3800   -0.6260 O   0  0  0  0  0  0  0  0  0  0  0  0
    0.1160    0.8900   -0.0490 C   0  0  0  0  0  0  0  0  0  0  0  0
   -0.4540    2.1310   -0.0390 O   0  0  0  0  0  0  0  0  0  0  0  0
    1.4570    0.6450   -0.0220 C   0  0  0  0  0  0  0  0  0  0  0  0
    2.2770    1.7590    0.0640 C   0  0  0  0  0  0  0  0  0  0  0  0
    3.6560    1.6150    0.1320 C   0  0  0  0  0  0  0  0  0  0  0  0
    4.4630    2.7180    0.2340 O   0  0  0  0  0  0  0  0  0  0  0  0
    4.1330    0.3320    0.1010 C   0  0  0  0  0  0  0  0  0  0  0  0
    3.3160   -0.7870    0.0170 C   0  0  0  0  0  0  0  0  0  0  0  0
    1.9490   -0.6350   -0.0430 C   0  0  0  0  0  0  0  0  0  0  0  0
  1  2  2  0
  2  3  1  0
  2  4  1  0
  4  5  2  0
  4 20  1  0
  5  6  1  0
  7  6  1  1
  6 12  2  0
  7  8  1  0
  7 11  1  0
  8  9  1  0
  9 10  1  0
 10 11  1  0
 12 13  1  0
 12 14  1  0
 14 15  2  0
 14 20  1  0
 15 16  1  0
 16 17  1  0
 16 18  2  0
 18 19  1  0
 19 20  2  0
M  END
