
     RDKit          3D

 33 36  0  0  0  0  0  0  0  0999 V2000
    4.2380   -3.1390   -1.2030 O   0  0  0  0  0  0  0  0  0  0  0  0
    3.8080   -2.4200   -0.2350 C   0  0  0  0  0  0  0  0  0  0  0  0
    4.7770   -2.0950    0.8270 C   0  0  0  0  0  0  0  0  0  0  0  0
    4.6120   -0.3950    1.4440 S   0  0  0  0  0  0  0  0  0  0  0  0
    5.1680    0.7770    0.2160 C   0  0  0  0  0  0  0  0  0  0  0  0
    4.3690    1.3240   -0.7470 C   0  0  0  0  0  0  0  0  0  0  0  0
    4.8440    2.2390   -1.6940 C   0  0  0  0  0  0  0  0  0  0  0  0
    6.1680    2.5940   -1.6400 C   0  0  0  0  0  0  0  0  0  0  0  0
    7.0190    2.0610   -0.6740 C   0  0  0  0  0  0  0  0  0  0  0  0
    6.5160    1.1650    0.2380 C   0  0  0  0  0  0  0  0  0  0  0  0
    7.5800    0.4900    1.4640 Cl  0  0  0  0  0  0  0  0  0  0  0  0
    2.4790   -2.0240   -0.2800 N   0  0  0  0  0  0  0  0  0  0  0  0
    1.9090   -1.2430    0.7870 C   0  0  0  0  0  0  0  0  0  0  0  0
    0.4440   -1.7010    1.0190 C   0  0  0  0  0  0  0  0  0  0  0  0
   -0.4670   -1.2040   -0.1580 C   0  0  2  0  0  0  0  0  0  0  0  0
   -0.7110    0.2170    0.3240 C   0  0  0  0  0  0  0  0  0  0  0  0
   -1.5070    1.2540   -0.2040 C   0  0  0  0  0  0  0  0  0  0  0  0
   -2.9400    1.2750   -0.2100 N   0  0  1  0  0  0  0  0  0  0  0  0
   -3.5010    0.9020    1.0850 C   0  0  0  0  0  0  0  0  0  0  0  0
   -5.0180    1.0960    1.0010 C   0  0  0  0  0  0  0  0  0  0  0  0
   -5.3670    2.4660    0.7810 N   0  0  0  0  0  0  0  0  0  0  0  0
   -4.1620    3.2430    0.6920 C   0  0  0  0  0  0  0  0  0  0  0  0
   -3.2890    2.7130   -0.3960 C   0  0  0  0  0  0  0  0  0  0  0  0
   -1.6990   -1.9140   -0.2660 C   0  0  0  0  0  0  0  0  0  0  0  0
   -2.6090   -1.7660   -1.3240 C   0  0  0  0  0  0  0  0  0  0  0  0
   -2.0680   -0.8310   -2.6780 Cl  0  0  0  0  0  0  0  0  0  0  0  0
   -3.8440   -2.3750   -1.3620 C   0  0  0  0  0  0  0  0  0  0  0  0
   -4.2490   -3.1830   -0.3320 C   0  0  0  0  0  0  0  0  0  0  0  0
   -3.4090   -3.3470    0.6860 N   0  0  0  0  0  0  0  0  0  0  0  0
   -2.1780   -2.7360    0.7220 C   0  0  0  0  0  0  0  0  0  0  0  0
   -1.3250   -3.0760    2.1880 Cl  0  0  0  0  0  0  0  0  0  0  0  0
    0.5080   -1.1410   -1.2700 C   0  0  0  0  0  0  0  0  0  0  0  0
    1.5030   -2.3160   -1.3140 C   0  0  0  0  0  0  0  0  0  0  0  0
  1  2  2  0
  2  3  1  0
  2 12  1  0
  3  4  1  0
  4  5  1  0
  5  6  2  0
  5 10  1  0
  6  7  1  0
  7  8  2  0
  8  9  1  0
  9 10  2  0
 10 11  1  0
 12 13  1  0
 12 33  1  0
 13 14  1  0
 14 15  1  0
 15 16  1  1
 15 24  1  0
 15 32  1  0
 16 17  1  0
 18 17  1  1
 18 19  1  0
 18 23  1  0
 19 20  1  0
 20 21  1  0
 21 22  1  0
 22 23  1  0
 24 25  2  0
 24 30  1  0
 25 26  1  0
 25 27  1  0
 27 28  2  0
 28 29  1  0
 29 30  2  0
 30 31  1  0
 32 33  1  0
M  CHG  2  18   1  21   1
M  END
