
     RDKit          3D

 35 38  0  0  0  0  0  0  0  0999 V2000
    8.3410    3.4840   -0.0400 O   0  0  0  0  0  0  0  0  0  0  0  0
    7.1680    4.4680   -0.0280 S   0  0  0  0  0  0  0  0  0  0  0  0
    5.5940    3.6000   -0.0200 C   0  0  0  0  0  0  0  0  0  0  0  0
    5.8700    2.1380    0.2130 C   0  0  2  0  0  0  0  0  0  0  0  0
    6.6880    1.7190   -0.8460 F   0  0  0  0  0  0  0  0  0  0  0  0
    4.6260    1.3190    0.1150 C   0  0  0  0  0  0  0  0  0  0  0  0
    3.5860    1.8810   -0.1260 O   0  0  0  0  0  0  0  0  0  0  0  0
    4.6260   -0.1520    0.3040 C   0  0  0  0  0  0  0  0  0  0  0  0
    3.2140   -0.6420    0.1350 C   0  0  0  0  0  0  0  0  0  0  0  0
    3.1900   -2.0860    0.3160 N   0  0  2  0  0  0  0  0  0  0  0  0
    3.6260   -2.8000   -0.8250 C   0  0  0  0  0  0  0  0  0  0  0  0
    2.7540   -4.0290   -0.8750 C   0  0  0  0  0  0  0  0  0  0  0  0
    1.9700   -4.0390    0.4130 C   0  0  0  0  0  0  0  0  0  0  0  0
    1.9530   -2.5620    0.8060 C   0  0  2  0  0  0  0  0  0  0  0  0
    0.7410   -1.8890    0.3400 C   0  0  0  0  0  0  0  0  0  0  0  0
   -0.2490   -1.5160    1.2240 C   0  0  0  0  0  0  0  0  0  0  0  0
   -1.4120   -0.8780    0.8050 C   0  0  0  0  0  0  0  0  0  0  0  0
   -1.6380   -0.5830   -0.5160 C   0  0  0  0  0  0  0  0  0  0  0  0
   -2.7950    0.0720   -0.9850 N   0  0  0  0  0  0  0  0  0  0  0  0
   -3.8670    0.4060   -0.1080 C   0  0  0  0  0  0  0  0  0  0  0  0
   -4.2500   -0.4790    0.7440 N   0  0  0  0  0  0  0  0  0  0  0  0
   -5.5720   -0.0840    1.8310 S   0  0  2  0  0  0  0  0  0  0  0  0
   -5.0820    0.6190    3.0420 O   0  0  0  0  0  0  0  0  0  0  0  0
   -6.2250   -1.3980    2.1590 O   0  0  0  0  0  0  0  0  0  0  0  0
   -6.6290    0.9050    0.8490 C   0  0  0  0  0  0  0  0  0  0  0  0
   -7.9920    0.9220    0.9190 C   0  0  0  0  0  0  0  0  0  0  0  0
   -8.7500    1.7300    0.0760 C   0  0  0  0  0  0  0  0  0  0  0  0
  -10.0960    1.7510    0.1410 F   0  0  0  0  0  0  0  0  0  0  0  0
   -8.1240    2.5280   -0.8470 C   0  0  0  0  0  0  0  0  0  0  0  0
   -6.7470    2.5170   -0.9230 C   0  0  0  0  0  0  0  0  0  0  0  0
   -5.9980    1.7160   -0.0870 C   0  0  0  0  0  0  0  0  0  0  0  0
   -4.5320    1.7220   -0.1540 C   0  0  0  0  0  0  0  0  0  0  0  0
   -0.6360   -0.9610   -1.4090 C   0  0  0  0  0  0  0  0  0  0  0  0
   -0.8620   -0.6670   -2.7230 F   0  0  0  0  0  0  0  0  0  0  0  0
    0.5020   -1.5880   -0.9780 C   0  0  0  0  0  0  0  0  0  0  0  0
  1  2  2  0
  2  3  1  0
  3  4  1  0
  4  5  1  6
  4  6  1  0
  6  7  2  0
  6  8  1  0
  8  9  1  0
 10  9  1  6
 10 11  1  0
 10 14  1  0
 11 12  1  0
 12 13  1  0
 13 14  1  0
 14 15  1  6
 15 16  2  0
 15 35  1  0
 16 17  1  0
 17 18  2  0
 18 19  1  0
 18 33  1  0
 19 20  1  0
 20 21  2  0
 20 32  1  0
 22 21  1  6
 22 23  2  0
 22 24  2  0
 22 25  1  0
 25 26  2  0
 25 31  1  0
 26 27  1  0
 27 28  1  0
 27 29  2  0
 29 30  1  0
 30 31  2  0
 31 32  1  0
 33 34  1  0
 33 35  2  0
M  CHG  1  10   1
M  END
