
     RDKit          3D

 35 37  0  0  0  0  0  0  0  0999 V2000
   -0.5390   -4.8890    0.7180 C   0  0  0  0  0  0  0  0  0  0  0  0
   -1.5230   -4.7890   -0.4230 C   0  0  1  0  0  0  0  0  0  0  0  0
   -2.7900   -4.1380    0.1280 C   0  0  0  0  0  0  0  0  0  0  0  0
   -2.7570   -2.8550   -0.2900 O   0  0  0  0  0  0  0  0  0  0  0  0
   -3.5770   -1.9640    0.3580 C   0  0  0  0  0  0  0  0  0  0  0  0
   -2.7580   -1.3060    1.4400 C   0  0  0  0  0  0  0  0  0  0  0  0
   -2.1350   -0.0820    1.0990 N   0  0  2  0  0  0  0  0  0  0  0  0
   -2.9920    0.9990    1.6030 C   0  0  0  0  0  0  0  0  0  0  0  0
   -2.6760    2.2920    1.0290 C   0  0  0  0  0  0  0  0  0  0  0  0
   -1.4270    2.8160    1.2060 F   0  0  0  0  0  0  0  0  0  0  0  0
   -3.5430    2.9920    0.3380 C   0  0  0  0  0  0  0  0  0  0  0  0
   -4.9030    2.5870    0.0550 C   0  0  0  0  0  0  0  0  0  0  0  0
   -5.7490    3.3110   -0.6410 C   0  0  0  0  0  0  0  0  0  0  0  0
   -7.0340    2.8190   -0.8490 F   0  0  0  0  0  0  0  0  0  0  0  0
   -5.4330    4.6240   -1.2320 C   0  0  0  0  0  0  0  0  0  0  0  0
   -6.2670    5.6080   -0.7220 F   0  0  0  0  0  0  0  0  0  0  0  0
   -1.7640    0.1050   -0.2780 C   0  0  0  0  0  0  0  0  0  0  0  0
   -0.3310    0.3600   -0.5150 C   0  0  0  0  0  0  0  0  0  0  0  0
    0.5250   -0.7120   -1.0340 C   0  0  1  0  0  0  0  0  0  0  0  0
    1.9380   -0.4380   -0.5670 C   0  0  0  0  0  0  0  0  0  0  0  0
    2.5540   -1.2540    0.1470 O   0  0  0  0  0  0  0  0  0  0  0  0
    2.5560    0.7570   -0.9480 N   0  0  0  0  0  0  0  0  0  0  0  0
    3.9230    1.1160   -0.5470 C   0  0  0  0  0  0  0  0  0  0  0  0
    4.7280    1.9240   -0.6360 N   0  0  0  0  0  0  0  0  0  0  0  0
    5.9450    1.9820   -0.1370 C   0  0  0  0  0  0  0  0  0  0  0  0
    6.3050    0.8880    0.6150 C   0  0  0  0  0  0  0  0  0  0  0  0
    4.8320   -0.1420    0.5330 S   0  0  0  0  0  0  0  0  0  0  0  0
    7.6190    0.7080    1.2840 C   0  0  0  0  0  0  0  0  0  0  0  0
    8.9690    1.2300    0.1550 S   0  0  0  0  0  0  0  0  0  0  0  0
    8.1570    2.3640   -1.0390 C   0  0  0  0  0  0  0  0  0  0  0  0
    7.0410    3.0380   -0.2320 C   0  0  0  0  0  0  0  0  0  0  0  0
    0.2200   -2.1140   -0.7110 C   0  0  0  0  0  0  0  0  0  0  0  0
   -0.5660   -2.8520   -1.7010 C   0  0  0  0  0  0  0  0  0  0  0  0
   -0.8660   -2.2640   -2.7550 O   0  0  0  0  0  0  0  0  0  0  0  0
   -0.9620   -4.1320   -1.4970 O   0  0  0  0  0  0  0  0  0  0  0  0
  2  1  1  1
  2  3  1  0
  2 35  1  0
  3  4  1  0
  4  5  1  0
  5  6  1  0
  6  7  1  0
  7  8  1  6
  7 17  1  0
  8  9  1  0
  9 10  1  0
  9 11  2  3
 11 12  1  0
 12 13  2  3
 13 14  1  0
 13 15  1  0
 15 16  1  0
 17 18  1  0
 18 19  1  0
 19 20  1  1
 19 32  1  0
 20 21  2  0
 20 22  1  0
 22 23  1  0
 23 24  2  0
 23 27  1  0
 24 25  1  0
 25 26  2  0
 25 31  1  0
 26 27  1  0
 26 28  1  0
 28 29  1  0
 29 30  1  0
 30 31  1  0
 32 33  1  0
 33 34  2  0
 33 35  1  0
M  CHG  1   7   1
M  END
