
     RDKit          3D

 34 37  0  0  0  0  0  0  0  0999 V2000
   -4.6300   -2.8950   -1.1500 C   0  0  0  0  0  0  0  0  0  0  0  0
   -4.6680   -1.8560   -2.2200 C   0  0  1  0  0  0  0  0  0  0  0  0
   -5.9680   -1.0420   -2.1450 C   0  0  0  0  0  0  0  0  0  0  0  0
   -5.9620   -0.3360   -0.8440 C   0  0  0  0  0  0  0  0  0  0  0  0
   -4.6640    0.3620   -0.6020 C   0  0  1  0  0  0  0  0  0  0  0  0
   -4.1780    0.0760    0.8300 C   0  0  0  0  0  0  0  0  0  0  0  0
   -2.9300    0.7740    1.0150 N   0  0  0  0  0  0  0  0  0  0  0  0
   -1.7040    0.1610    0.7240 C   0  0  0  0  0  0  0  0  0  0  0  0
   -1.6530   -1.0230    0.3040 O   0  0  0  0  0  0  0  0  0  0  0  0
   -0.4100    0.8510    0.8880 C   0  0  0  0  0  0  0  0  0  0  0  0
   -0.3540    2.0290    1.3180 O   0  0  0  0  0  0  0  0  0  0  0  0
    0.7800    0.2360    0.5780 O   0  0  0  0  0  0  0  0  0  0  0  0
    2.0630    0.7410    0.6770 C   0  0  1  0  0  0  0  0  0  0  0  0
    2.8550   -0.0600    1.7580 C   0  0  0  0  0  0  0  0  0  0  0  0
    3.3640   -1.1560    0.9280 N   0  0  2  0  0  0  0  0  0  0  0  0
    4.1350   -2.0670    1.6070 C   0  0  0  0  0  0  0  0  0  0  0  0
    5.4730   -2.3780    1.0410 C   0  0  0  0  0  0  0  0  0  0  0  0
    6.2570   -3.4410    1.7290 C   0  0  0  0  0  0  0  0  0  0  0  0
    5.5900   -4.6580    1.7300 O   0  0  0  0  0  0  0  0  0  0  0  0
    5.9430   -1.7590   -0.0050 C   0  0  0  0  0  0  0  0  0  0  0  0
    5.1020   -0.7440   -0.6200 C   0  0  0  0  0  0  0  0  0  0  0  0
    3.9060   -0.4460   -0.1900 C   0  0  0  0  0  0  0  0  0  0  0  0
    2.8830    0.5850   -0.5270 C   0  0  0  0  0  0  0  0  0  0  0  0
    2.8110    1.2040   -1.6590 C   0  0  0  0  0  0  0  0  0  0  0  0
    1.8330    2.2640   -2.0070 C   0  0  1  0  0  0  0  0  0  0  0  0
    2.5720    3.2780   -2.8880 C   0  0  0  0  0  0  0  0  0  0  0  0
    0.7700    1.8130   -2.7460 F   0  0  0  0  0  0  0  0  0  0  0  0
    1.4510    2.9650   -0.8840 F   0  0  0  0  0  0  0  0  0  0  0  0
   -3.0380    2.1240    1.5090 C   0  0  0  0  0  0  0  0  0  0  0  0
   -3.3190    2.7580    2.4010 N   0  0  0  0  0  0  0  0  0  0  0  0
   -3.3200    4.0640    2.5770 C   0  0  0  0  0  0  0  0  0  0  0  0
   -2.9120    4.7870    1.4980 C   0  0  0  0  0  0  0  0  0  0  0  0
   -2.5470    3.5040    0.2780 S   0  0  0  0  0  0  0  0  0  0  0  0
   -3.5200   -0.5060   -1.7140 S   0  0  0  0  0  0  0  0  0  0  0  0
  2  1  1  1
  2  3  1  0
  2 34  1  0
  3  4  1  0
  4  5  1  0
  5  6  1  1
  5 34  1  0
  6  7  1  0
  7  8  1  0
  7 29  1  0
  8  9  2  0
  8 10  1  0
 10 11  2  0
 10 12  1  0
 13 12  1  6
 13 14  1  0
 13 23  1  0
 15 14  1  1
 15 16  1  0
 15 22  1  0
 16 17  1  0
 17 18  1  0
 17 20  2  0
 18 19  1  0
 20 21  1  0
 21 22  2  0
 22 23  1  0
 23 24  2  3
 24 25  1  0
 25 26  1  6
 25 27  1  0
 25 28  1  0
 29 30  2  0
 29 33  1  0
 30 31  1  0
 31 32  2  0
 32 33  1  0
M  CHG  1  15   1
M  END
