
     RDKit          3D

 35 39  0  0  0  0  0  0  0  0999 V2000
   -5.0970   -5.8960   -1.0960 C   0  0  0  0  0  0  0  0  0  0  0  0
   -4.8210   -4.6680   -0.3940 N   0  0  0  0  0  0  0  0  0  0  0  0
   -3.5170   -4.1340   -0.4330 C   0  0  0  0  0  0  0  0  0  0  0  0
   -2.5040   -4.7210   -1.1020 N   0  0  0  0  0  0  0  0  0  0  0  0
   -1.2800   -4.1670   -1.1100 C   0  0  0  0  0  0  0  0  0  0  0  0
   -0.9960   -2.9950   -0.4500 C   0  0  0  0  0  0  0  0  0  0  0  0
    0.2350   -2.3820   -0.4300 C   0  0  0  0  0  0  0  0  0  0  0  0
    0.4570   -1.1910    0.2510 C   0  0  0  0  0  0  0  0  0  0  0  0
    1.7860   -0.5710    0.2380 C   0  0  0  0  0  0  0  0  0  0  0  0
    1.9900    0.7640   -0.0590 C   0  0  0  0  0  0  0  0  0  0  0  0
    3.2350    1.3400   -0.0820 C   0  0  0  0  0  0  0  0  0  0  0  0
    4.3520    0.5640    0.2020 C   0  0  0  0  0  0  0  0  0  0  0  0
    5.6740    1.2070    0.1600 C   0  0  0  0  0  0  0  0  0  0  0  0
    6.8280    0.5330    0.4810 C   0  0  0  0  0  0  0  0  0  0  0  0
    8.0440    1.1980    0.4280 C   0  0  0  0  0  0  0  0  0  0  0  0
    8.0640    2.5250    0.0520 C   0  0  0  0  0  0  0  0  0  0  0  0
    6.8780    3.1470   -0.2580 C   0  0  0  0  0  0  0  0  0  0  0  0
    6.9090    4.5900   -0.6720 C   0  0  0  0  0  0  0  0  0  0  0  0
    5.7260    2.4870   -0.1980 N   0  0  0  0  0  0  0  0  0  0  0  0
    4.2050   -0.7670    0.5040 C   0  0  0  0  0  0  0  0  0  0  0  0
    2.9250   -1.2970    0.5130 C   0  0  0  0  0  0  0  0  0  0  0  0
    2.7550   -3.0060    0.9070 Cl  0  0  0  0  0  0  0  0  0  0  0  0
   -0.6240   -0.6480    0.9120 C   0  0  0  0  0  0  0  0  0  0  0  0
   -0.4830    0.4350    1.5480 O   0  0  0  0  0  0  0  0  0  0  0  0
   -1.8440   -1.2510    0.8950 N   0  0  0  0  0  0  0  0  0  0  0  0
   -2.9780   -0.6960    1.5930 C   0  0  0  0  0  0  0  0  0  0  0  0
   -3.7300    0.2070    0.6750 C   0  0  1  0  0  0  0  0  0  0  0  0
   -4.8460    0.7830    1.2860 O   0  0  0  0  0  0  0  0  0  0  0  0
   -5.3690    1.6970    0.3570 C   0  0  0  0  0  0  0  0  0  0  0  0
   -4.4640    2.8850    0.3720 C   0  0  2  0  0  0  0  0  0  0  0  0
   -4.6600    3.7460   -0.7780 N   0  0  0  0  0  0  0  0  0  0  0  0
   -3.0330    2.4150    0.4140 C   0  0  0  0  0  0  0  0  0  0  0  0
   -2.9270    1.1060    0.0260 O   0  0  0  0  0  0  0  0  0  0  0  0
   -2.0460   -2.4040    0.2310 C   0  0  0  0  0  0  0  0  0  0  0  0
   -3.2600   -2.9860    0.2190 N   0  0  0  0  0  0  0  0  0  0  0  0
  1  2  1  0
  2  3  1  0
  3  4  2  0
  3 35  1  0
  4  5  1  0
  5  6  2  0
  6  7  1  0
  6 34  1  0
  7  8  2  0
  8  9  1  0
  8 23  1  0
  9 10  2  0
  9 21  1  0
 10 11  1  0
 11 12  2  0
 12 13  1  0
 12 20  1  0
 13 14  2  0
 13 19  1  0
 14 15  1  0
 15 16  2  0
 16 17  1  0
 17 18  1  0
 17 19  2  0
 20 21  2  0
 21 22  1  0
 23 24  2  0
 23 25  1  0
 25 26  1  0
 25 34  1  0
 27 26  1  1
 27 28  1  0
 27 33  1  0
 28 29  1  0
 29 30  1  0
 30 31  1  6
 30 32  1  0
 32 33  1  0
 34 35  2  0
M  CHG  1  31   1
M  END
