
     RDKit          3D

 35 37  0  0  0  0  0  0  0  0999 V2000
   -3.8640    0.3170   -3.7410 C   0  0  0  0  0  0  0  0  0  0  0  0
   -2.1650   -0.1800   -3.3520 S   0  0  0  0  0  0  0  0  0  0  0  0
   -1.7770    0.2100   -1.6270 C   0  0  0  0  0  0  0  0  0  0  0  0
   -2.5420   -0.2470   -0.6430 C   0  0  0  0  0  0  0  0  0  0  0  0
   -2.2220    0.0730    0.7540 C   0  0  0  0  0  0  0  0  0  0  0  0
   -1.0520    0.8830    0.9550 N   0  0  1  0  0  0  0  0  0  0  0  0
   -1.0510    1.4540    2.3210 C   0  0  0  0  0  0  0  0  0  0  0  0
    0.1990    2.3410    2.3560 C   0  0  0  0  0  0  0  0  0  0  0  0
    1.4540    1.5490    2.2230 C   0  0  1  0  0  0  0  0  0  0  0  0
    1.6150    0.5270    3.1700 O   0  0  0  0  0  0  0  0  0  0  0  0
    2.7070    0.3400    3.9770 C   0  0  0  0  0  0  0  0  0  0  0  0
    3.6480    1.1850    3.8370 O   0  0  0  0  0  0  0  0  0  0  0  0
    2.8710   -0.7280    4.9610 C   0  0  1  0  0  0  0  0  0  0  0  0
    2.8170   -1.9920    4.4090 F   0  0  0  0  0  0  0  0  0  0  0  0
    4.0960   -0.6220    5.5890 F   0  0  0  0  0  0  0  0  0  0  0  0
    1.9120   -0.6970    5.9600 F   0  0  0  0  0  0  0  0  0  0  0  0
    1.3760    0.8370    0.8630 C   0  0  1  0  0  0  0  0  0  0  0  0
    2.5150   -0.0140    0.6590 N   0  0  0  0  0  0  0  0  0  0  0  0
    3.4150    0.1170   -0.4110 C   0  0  0  0  0  0  0  0  0  0  0  0
    3.2030    1.0440   -1.2440 O   0  0  0  0  0  0  0  0  0  0  0  0
    4.5970   -0.8050   -0.5760 C   0  0  0  0  0  0  0  0  0  0  0  0
    5.3710   -0.4620   -1.7540 N   0  0  0  0  0  0  0  0  0  0  0  0
    6.0870    0.7600   -1.7790 C   0  0  0  0  0  0  0  0  0  0  0  0
    6.8060    1.0990   -2.8320 C   0  0  0  0  0  0  0  0  0  0  0  0
    6.9130    0.2590   -4.0220 C   0  0  0  0  0  0  0  0  0  0  0  0
    6.9680   -0.5710   -5.0960 C   0  0  0  0  0  0  0  0  0  0  0  0
    6.1580   -1.0100   -3.9730 C   0  0  0  0  0  0  0  0  0  0  0  0
    5.4460   -1.3120   -2.8900 C   0  0  0  0  0  0  0  0  0  0  0  0
    0.1050    0.0030    0.9190 C   0  0  0  0  0  0  0  0  0  0  0  0
   -3.9310   -1.2470   -1.0120 S   0  0  0  0  0  0  0  0  0  0  0  0
   -3.6710   -2.7210   -0.9520 O   0  0  0  0  0  0  0  0  0  0  0  0
   -5.4520   -0.7490   -0.2530 C   0  0  1  0  0  0  0  0  0  0  0  0
   -6.5830   -1.6930   -0.6640 C   0  0  0  0  0  0  0  0  0  0  0  0
   -5.3180   -0.8460    1.2520 C   0  0  0  0  0  0  0  0  0  0  0  0
   -5.8100    0.6840   -0.6270 C   0  0  0  0  0  0  0  0  0  0  0  0
  1  2  1  0
  2  3  1  0
  3  4  2  3
  4  5  1  0
 30  4  1  1
  6  5  1  1
  6  7  1  0
  6 29  1  0
  7  8  1  0
  8  9  1  0
  9 10  1  1
  9 17  1  0
 10 11  1  0
 11 12  2  0
 11 13  1  0
 13 14  1  6
 13 15  1  0
 13 16  1  0
 17 18  1  1
 17 29  1  0
 18 19  1  0
 19 20  2  0
 19 21  1  0
 21 22  1  0
 22 23  1  0
 22 28  1  0
 23 24  2  0
 24 25  1  0
 25 26  2  0
 25 27  1  0
 26 27  1  0
 27 28  2  0
 30 31  2  0
 30 32  1  0
 32 33  1  6
 32 34  1  0
 32 35  1  0
M  CHG  1   6   1
M  END
