
     RDKit          3D

 35 38  0  0  0  0  0  0  0  0999 V2000
   -3.3180    0.7890   -2.1780 C   0  0  0  0  0  0  0  0  0  0  0  0
   -3.6190    0.3410   -0.7800 C   0  0  1  0  0  0  0  0  0  0  0  0
   -2.6170   -0.4900   -0.1200 C   0  0  0  0  0  0  0  0  0  0  0  0
   -1.3580   -0.4970    0.0770 C   0  0  0  0  0  0  0  0  0  0  0  0
   -0.9010   -1.6490    0.8430 O   0  0  0  0  0  0  0  0  0  0  0  0
   -0.4600   -2.7430    0.1350 C   0  0  0  0  0  0  0  0  0  0  0  0
   -0.4630   -2.7240   -1.2350 C   0  0  0  0  0  0  0  0  0  0  0  0
   -0.0230   -3.8170   -1.9310 C   0  0  0  0  0  0  0  0  0  0  0  0
    0.4300   -4.9550   -1.2660 C   0  0  0  0  0  0  0  0  0  0  0  0
    0.8530   -6.0070   -1.9930 F   0  0  0  0  0  0  0  0  0  0  0  0
    0.4150   -4.9320    0.1090 C   0  0  0  0  0  0  0  0  0  0  0  0
    0.8460   -6.0170    0.7620 F   0  0  0  0  0  0  0  0  0  0  0  0
   -0.0240   -3.8410    0.8250 C   0  0  0  0  0  0  0  0  0  0  0  0
   -0.2820    0.3990   -0.2930 C   0  0  0  0  0  0  0  0  0  0  0  0
   -0.4510    1.6280   -0.8960 C   0  0  0  0  0  0  0  0  0  0  0  0
    1.2690    2.2090   -1.1300 S   0  0  0  0  0  0  0  0  0  0  0  0
    1.9880    0.6700   -0.3580 C   0  0  0  0  0  0  0  0  0  0  0  0
    3.4640    0.6990   -0.3300 C   0  0  2  0  0  0  0  0  0  0  0  0
    4.0630   -0.4820   -1.0380 C   0  0  0  0  0  0  0  0  0  0  0  0
    5.1220   -1.1820   -0.2460 C   0  0  0  0  0  0  0  0  0  0  0  0
    6.0860   -0.2770    0.4400 C   0  0  0  0  0  0  0  0  0  0  0  0
    5.4650    0.9640    1.0170 C   0  0  2  0  0  0  0  0  0  0  0  0
    6.1400    1.3690    2.6330 S   0  0  0  0  0  0  0  0  0  0  0  0
    5.7540    0.3290    3.6710 O   0  0  0  0  0  0  0  0  0  0  0  0
    7.7930    1.6360    2.5670 F   0  0  0  0  0  0  0  0  0  0  0  0
    3.9750    0.7170    1.1230 C   0  0  0  0  0  0  0  0  0  0  0  0
    1.0200    0.1080   -0.1130 N   0  0  0  0  0  0  0  0  0  0  0  0
   -4.1950    1.3760    0.0440 N   0  0  0  0  0  0  0  0  0  0  0  0
   -3.4780    2.5080    0.5680 C   0  0  0  0  0  0  0  0  0  0  0  0
   -4.1870    3.2640    1.6160 C   0  0  0  0  0  0  0  0  0  0  0  0
   -3.5590    4.1940    2.1300 O   0  0  0  0  0  0  0  0  0  0  0  0
   -5.5030    2.9730    2.0360 N   0  0  0  0  0  0  0  0  0  0  0  0
   -6.2420    2.5530    0.8710 C   0  0  0  0  0  0  0  0  0  0  0  0
   -5.5740    1.2930    0.4010 C   0  0  0  0  0  0  0  0  0  0  0  0
   -6.2370    0.2350    0.3390 O   0  0  0  0  0  0  0  0  0  0  0  0
  2  1  1  6
  2  3  1  0
  2 28  1  0
  3  4  2  3
  4  5  1  0
  4 14  1  0
  5  6  1  0
  6  7  2  0
  6 13  1  0
  7  8  1  0
  8  9  2  0
  9 10  1  0
  9 11  1  0
 11 12  1  0
 11 13  2  0
 14 15  2  0
 14 27  1  0
 15 16  1  0
 16 17  1  0
 18 17  1  1
 17 27  2  0
 18 19  1  0
 18 26  1  0
 19 20  1  0
 20 21  1  0
 22 21  1  1
 22 23  1  0
 22 26  1  0
 23 24  2  0
 23 25  1  6
 28 29  1  0
 28 34  1  0
 29 30  1  0
 30 31  2  0
 30 32  1  0
 32 33  1  0
 33 34  1  0
 34 35  2  0
M  CHG  1  32   1
M  END
