
     RDKit          3D

 35 39  0  0  0  0  0  0  0  0999 V2000
    3.8600    2.2130    2.3990 C   0  0  0  0  0  0  0  0  0  0  0  0
    3.2630    1.3870    1.2790 C   0  0  1  0  0  0  0  0  0  0  0  0
    4.3100    0.6810    0.4760 C   0  0  0  0  0  0  0  0  0  0  0  0
    5.1220   -0.2510    1.3010 C   0  0  0  0  0  0  0  0  0  0  0  0
    4.8290   -0.3080    2.5350 O   0  0  0  0  0  0  0  0  0  0  0  0
    6.1790   -1.0430    0.7360 C   0  0  0  0  0  0  0  0  0  0  0  0
    6.9760   -1.8960    1.3160 C   0  0  0  0  0  0  0  0  0  0  0  0
    7.9590   -2.5600    0.4970 C   0  0  0  0  0  0  0  0  0  0  0  0
    8.3240   -1.7310   -0.7130 C   0  0  1  0  0  0  0  0  0  0  0  0
    9.2370   -0.5850   -0.3640 C   0  0  0  0  0  0  0  0  0  0  0  0
    8.7760   -2.5270   -1.8870 C   0  0  0  0  0  0  0  0  0  0  0  0
    6.6500   -0.9990   -0.9890 S   0  0  0  0  0  0  0  0  0  0  0  0
    2.2380    0.5350    1.8180 N   0  0  0  0  0  0  0  0  0  0  0  0
    1.0680    0.4760    0.9700 C   0  0  1  0  0  0  0  0  0  0  0  0
    1.0010   -0.9110    0.2970 C   0  0  0  0  0  0  0  0  0  0  0  0
   -0.1940   -0.9600   -0.5700 C   0  0  0  0  0  0  0  0  0  0  0  0
   -1.4670   -0.4300   -0.0180 C   0  0  0  0  0  0  0  0  0  0  0  0
   -1.3640    0.6180    0.9500 N   0  0  0  0  0  0  0  0  0  0  0  0
   -2.2880    1.6370    1.2170 C   0  0  0  0  0  0  0  0  0  0  0  0
   -1.9030    2.5120    2.0940 O   0  0  0  0  0  0  0  0  0  0  0  0
   -3.5910    1.8570    0.6660 C   0  0  0  0  0  0  0  0  0  0  0  0
   -4.2030    3.1180    0.8530 C   0  0  0  0  0  0  0  0  0  0  0  0
   -5.4520    3.3470    0.4020 C   0  0  0  0  0  0  0  0  0  0  0  0
   -6.1900    2.4060   -0.2460 C   0  0  0  0  0  0  0  0  0  0  0  0
   -5.6400    1.1670   -0.4490 C   0  0  0  0  0  0  0  0  0  0  0  0
   -4.3510    0.9170    0.0110 C   0  0  0  0  0  0  0  0  0  0  0  0
   -6.4270    0.1870   -1.1370 N   0  0  0  0  0  0  0  0  0  0  0  0
   -5.8760   -1.1310   -1.3550 C   0  0  0  0  0  0  0  0  0  0  0  0
   -7.0570   -2.1190   -1.3950 C   0  0  0  0  0  0  0  0  0  0  0  0
   -7.8770   -1.7830   -2.6030 C   0  0  0  0  0  0  0  0  0  0  0  0
   -8.6040   -0.4910   -2.3350 C   0  0  0  0  0  0  0  0  0  0  0  0
   -7.7500    0.4760   -1.6060 C   0  0  0  0  0  0  0  0  0  0  0  0
   -8.2480    1.6800   -1.3930 C   0  0  0  0  0  0  0  0  0  0  0  0
   -7.5040    2.6710   -0.7190 N   0  0  0  0  0  0  0  0  0  0  0  0
   -0.1660    0.6030    1.8200 C   0  0  0  0  0  0  0  0  0  0  0  0
  2  1  1  1
  2  3  1  0
  2 13  1  0
  3  4  1  0
  4  5  2  0
  4  6  1  0
  6  7  2  0
  6 12  1  0
  7  8  1  0
  8  9  1  0
  9 10  1  1
  9 11  1  0
  9 12  1  0
 14 13  1  1
 14 15  1  0
 14 35  1  0
 15 16  1  0
 16 17  1  0
 17 18  1  0
 18 19  1  0
 18 35  1  0
 19 20  2  0
 19 21  1  0
 21 22  2  0
 21 26  1  0
 22 23  1  0
 23 24  2  0
 24 25  1  0
 24 34  1  0
 25 26  2  0
 25 27  1  0
 27 28  1  0
 27 32  1  0
 28 29  1  0
 29 30  1  0
 30 31  1  0
 31 32  1  0
 32 33  2  0
 33 34  1  0
M  CHG  1  13   1
M  END
