
     RDKit          3D

 36 40  0  0  0  0  0  0  0  0999 V2000
   11.1510   -0.0650   -1.4850 C   0  0  0  0  0  0  0  0  0  0  0  0
    9.7540   -0.4130   -1.0710 C   0  0  0  0  0  0  0  0  0  0  0  0
    8.9900   -1.2530   -1.8570 C   0  0  0  0  0  0  0  0  0  0  0  0
    7.7030   -1.5920   -1.5030 C   0  0  0  0  0  0  0  0  0  0  0  0
    7.1260   -1.1060   -0.3510 C   0  0  0  0  0  0  0  0  0  0  0  0
    5.8930   -1.2680    0.2430 C   0  0  0  0  0  0  0  0  0  0  0  0
    4.7640   -2.1080   -0.2920 C   0  0  0  0  0  0  0  0  0  0  0  0
    3.3410   -2.0410    0.7920 S   0  0  0  0  0  0  0  0  0  0  0  0
    2.6370   -0.4010    0.8170 C   0  0  0  0  0  0  0  0  0  0  0  0
    3.1440    0.6510    0.0870 C   0  0  0  0  0  0  0  0  0  0  0  0
    2.5690    1.9250    0.1290 C   0  0  0  0  0  0  0  0  0  0  0  0
    1.4560    2.1580    0.9200 C   0  0  0  0  0  0  0  0  0  0  0  0
    0.8050    3.4800    1.0050 C   0  0  0  0  0  0  0  0  0  0  0  0
    0.9530    1.1180    1.6440 C   0  0  0  0  0  0  0  0  0  0  0  0
   -0.2100    1.3040    2.4920 C   0  0  0  0  0  0  0  0  0  0  0  0
   -0.0110    1.6500    3.6870 O   0  0  0  0  0  0  0  0  0  0  0  0
   -1.5200    1.1010    1.9850 N   0  0  0  0  0  0  0  0  0  0  0  0
   -2.6430    1.2960    2.8640 C   0  0  0  0  0  0  0  0  0  0  0  0
   -3.4740    0.0140    2.9860 C   0  0  0  0  0  0  0  0  0  0  0  0
   -3.0970   -0.9010    1.8130 C   0  0  0  0  0  0  0  0  0  0  0  0
   -3.0770   -0.0290    0.5860 C   0  0  2  0  0  0  0  0  0  0  0  0
   -3.1910   -0.7850   -0.7010 C   0  0  0  0  0  0  0  0  0  0  0  0
   -4.4570   -1.5740   -0.8000 C   0  0  0  0  0  0  0  0  0  0  0  0
   -5.6980   -0.6910   -0.7100 C   0  0  2  0  0  0  0  0  0  0  0  0
   -6.8960   -1.6070   -0.8260 C   0  0  0  0  0  0  0  0  0  0  0  0
   -8.1900   -0.9010   -0.5830 C   0  0  0  0  0  0  0  0  0  0  0  0
   -8.7710   -0.3760   -1.7220 O   0  0  0  0  0  0  0  0  0  0  0  0
   -7.8750    0.1160   -2.6380 C   0  0  0  0  0  0  0  0  0  0  0  0
   -6.8750    0.9960   -1.9520 C   0  0  0  0  0  0  0  0  0  0  0  0
   -5.6320    0.2780   -1.7580 N   0  0  0  0  0  0  0  0  0  0  0  0
   -1.7300    0.7040    0.6080 C   0  0  0  0  0  0  0  0  0  0  0  0
    1.5220   -0.1410    1.6020 C   0  0  0  0  0  0  0  0  0  0  0  0
    5.9360   -0.5310    1.3610 N   0  0  0  0  0  0  0  0  0  0  0  0
    7.1080    0.0630    1.4820 N   0  0  0  0  0  0  0  0  0  0  0  0
    7.8920   -0.2680    0.4300 C   0  0  0  0  0  0  0  0  0  0  0  0
    9.1910    0.0790    0.0800 C   0  0  0  0  0  0  0  0  0  0  0  0
  1  2  1  0
  2  3  2  0
  2 36  1  0
  3  4  1  0
  4  5  2  0
  5  6  1  0
  5 35  1  0
  6  7  1  0
  6 33  2  0
  7  8  1  0
  8  9  1  0
  9 10  2  0
  9 32  1  0
 10 11  1  0
 11 12  2  0
 12 13  1  0
 12 14  1  0
 14 15  1  0
 14 32  2  0
 15 16  2  0
 15 17  1  0
 17 18  1  0
 17 31  1  0
 18 19  1  0
 19 20  1  0
 20 21  1  0
 21 22  1  6
 21 31  1  0
 22 23  1  0
 24 23  1  6
 24 25  1  0
 24 30  1  0
 25 26  1  0
 26 27  1  0
 27 28  1  0
 28 29  1  0
 29 30  1  0
 33 34  1  0
 34 35  1  0
 35 36  2  0
M  CHG  1  30   1
M  END
