
     RDKit          3D

 36 40  0  0  0  0  0  0  0  0999 V2000
   -3.4150    1.5890   -2.0760 C   0  0  0  0  0  0  0  0  0  0  0  0
   -2.0970    2.0400   -1.5210 C   0  0  0  0  0  0  0  0  0  0  0  0
   -2.1230    2.5150   -0.1040 C   0  0  2  0  0  0  0  0  0  0  0  0
   -0.7310    2.9730    0.3390 C   0  0  0  0  0  0  0  0  0  0  0  0
    0.2300    1.8890    0.2500 N   0  0  0  0  0  0  0  0  0  0  0  0
    1.5590    2.1270    0.6150 C   0  0  0  0  0  0  0  0  0  0  0  0
    1.8780    3.3130    1.0050 O   0  0  0  0  0  0  0  0  0  0  0  0
    2.6250    1.1450    0.5890 C   0  0  0  0  0  0  0  0  0  0  0  0
    3.9670    1.4630    0.5510 N   0  0  0  0  0  0  0  0  0  0  0  0
    4.6960    0.3690    0.5500 N   0  0  0  0  0  0  0  0  0  0  0  0
    6.1200    0.3480    0.5150 C   0  0  0  0  0  0  0  0  0  0  0  0
    6.8630    1.1190   -0.3500 C   0  0  0  0  0  0  0  0  0  0  0  0
    8.2370    1.1110   -0.3980 C   0  0  0  0  0  0  0  0  0  0  0  0
    8.9240    0.2830    0.4700 C   0  0  0  0  0  0  0  0  0  0  0  0
   10.4170    0.2750    0.4180 C   0  0  0  0  0  0  0  0  0  0  0  0
    8.2230   -0.5080    1.3560 C   0  0  0  0  0  0  0  0  0  0  0  0
    6.8440   -0.4730    1.3740 C   0  0  0  0  0  0  0  0  0  0  0  0
    3.9240   -0.7190    0.5850 C   0  0  0  0  0  0  0  0  0  0  0  0
    2.6060   -0.2220    0.6120 C   0  0  0  0  0  0  0  0  0  0  0  0
    1.4250   -1.0960    0.6940 C   0  0  0  0  0  0  0  0  0  0  0  0
    1.2520   -1.6830   -0.6180 N   0  0  0  0  0  0  0  0  0  0  0  0
    2.5980   -1.9740   -1.1370 C   0  0  0  0  0  0  0  0  0  0  0  0
    3.3580   -2.9380   -0.2790 C   0  0  0  0  0  0  0  0  0  0  0  0
    4.3630   -2.1550    0.5780 C   0  0  0  0  0  0  0  0  0  0  0  0
   -2.7480    1.3320    1.0600 S   0  0  0  0  0  0  0  0  0  0  0  0
   -2.5310    1.8160    2.4820 O   0  0  0  0  0  0  0  0  0  0  0  0
   -4.3830    0.8180    0.7710 C   0  0  0  0  0  0  0  0  0  0  0  0
   -5.4270    1.6540    1.1780 C   0  0  0  0  0  0  0  0  0  0  0  0
   -6.7340    1.2740    0.9930 C   0  0  0  0  0  0  0  0  0  0  0  0
   -7.0840    0.0810    0.4130 C   0  0  0  0  0  0  0  0  0  0  0  0
   -6.0530   -0.7350    0.0160 C   0  0  0  0  0  0  0  0  0  0  0  0
   -4.7380   -0.3760    0.1910 C   0  0  0  0  0  0  0  0  0  0  0  0
   -6.3730   -2.0450   -0.6200 C   0  0  0  0  0  0  0  0  0  0  0  0
   -7.5920   -2.5810    0.1420 C   0  0  0  0  0  0  0  0  0  0  0  0
   -8.7580   -1.6860   -0.1230 C   0  0  0  0  0  0  0  0  0  0  0  0
   -8.5200   -0.2600    0.2480 C   0  0  0  0  0  0  0  0  0  0  0  0
  1  2  1  0
  3  2  1  6
  3  4  1  0
  3 25  1  0
  4  5  1  0
  5  6  1  0
  6  7  2  0
  6  8  1  0
  8  9  2  0
  8 19  1  0
  9 10  1  0
 10 11  1  0
 10 18  1  0
 11 12  2  0
 11 17  1  0
 12 13  1  0
 13 14  2  0
 14 15  1  0
 14 16  1  0
 16 17  2  0
 18 19  2  0
 18 24  1  0
 19 20  1  0
 20 21  1  0
 21 22  1  0
 22 23  1  0
 23 24  1  0
 25 26  2  0
 25 27  1  6
 27 28  2  0
 27 32  1  0
 28 29  1  0
 29 30  2  0
 30 31  1  0
 30 36  1  0
 31 32  2  0
 31 33  1  0
 33 34  1  0
 34 35  1  0
 35 36  1  0
M  CHG  1  21   1
M  END
