
     RDKit          3D

 37 41  0  0  0  0  0  0  0  0999 V2000
   -0.4280   -3.6630    0.1070 C   0  0  0  0  0  0  0  0  0  0  0  0
    0.2210   -2.3780    0.5750 C   0  0  0  0  0  0  0  0  0  0  0  0
   -0.2970   -1.2190   -0.1160 N   0  0  0  0  0  0  0  0  0  0  0  0
   -1.6150   -0.7370    0.0510 C   0  0  0  0  0  0  0  0  0  0  0  0
   -2.4740   -1.4110    0.9360 O   0  0  0  0  0  0  0  0  0  0  0  0
   -2.0910    0.3280   -0.5850 C   0  0  0  0  0  0  0  0  0  0  0  0
   -3.4880    0.6710   -0.2820 C   0  0  0  0  0  0  0  0  0  0  0  0
   -4.4640   -0.3370   -0.3350 C   0  0  0  0  0  0  0  0  0  0  0  0
   -5.7790   -0.0640   -0.0380 C   0  0  0  0  0  0  0  0  0  0  0  0
   -6.1970    1.2040    0.3240 C   0  0  0  0  0  0  0  0  0  0  0  0
   -7.6170    1.4270    0.6290 C   0  0  0  0  0  0  0  0  0  0  0  0
   -8.1120    2.6370    0.9920 C   0  0  0  0  0  0  0  0  0  0  0  0
   -9.4340    2.7720    1.2590 N   0  0  0  0  0  0  0  0  0  0  0  0
  -10.2730    1.7080    1.1670 C   0  0  0  0  0  0  0  0  0  0  0  0
   -9.7830    0.4730    0.7990 C   0  0  0  0  0  0  0  0  0  0  0  0
  -10.7300   -0.6670    0.7100 C   0  0  0  0  0  0  0  0  0  0  0  0
   -8.4740    0.3930    0.5470 N   0  0  0  0  0  0  0  0  0  0  0  0
   -5.2590    2.1760    0.3770 C   0  0  0  0  0  0  0  0  0  0  0  0
   -3.9090    1.9150    0.0760 C   0  0  0  0  0  0  0  0  0  0  0  0
   -2.7530    3.2370    0.1980 Cl  0  0  0  0  0  0  0  0  0  0  0  0
   -1.2620    1.0790   -1.5430 C   0  0  0  0  0  0  0  0  0  0  0  0
    0.0900    0.5490   -1.6710 C   0  0  0  0  0  0  0  0  0  0  0  0
    0.9810    1.1860   -2.5360 C   0  0  0  0  0  0  0  0  0  0  0  0
    2.2170    0.7120   -2.6690 N   0  0  0  0  0  0  0  0  0  0  0  0
    2.6840   -0.3640   -2.0130 C   0  0  0  0  0  0  0  0  0  0  0  0
    4.0210   -0.8090   -2.2140 N   0  0  0  0  0  0  0  0  0  0  0  0
    4.5760   -1.9510   -1.5380 C   0  0  0  0  0  0  0  0  0  0  0  0
    4.6140   -1.8420   -0.0550 C   0  0  0  0  0  0  0  0  0  0  0  0
    5.4140   -0.7240    0.5050 C   0  0  2  0  0  0  0  0  0  0  0  0
    4.9940    0.6530    0.1120 C   0  0  0  0  0  0  0  0  0  0  0  0
    5.7410    1.6240    1.0050 C   0  0  0  0  0  0  0  0  0  0  0  0
    7.1720    1.4650    0.9320 N   0  0  2  0  0  0  0  0  0  0  0  0
    7.7460    1.9280   -0.2970 C   0  0  0  0  0  0  0  0  0  0  0  0
    7.5960    0.1010    1.1830 C   0  0  0  0  0  0  0  0  0  0  0  0
    6.9020   -0.8550    0.2040 C   0  0  0  0  0  0  0  0  0  0  0  0
    1.8530   -0.9860   -1.1840 N   0  0  0  0  0  0  0  0  0  0  0  0
    0.5750   -0.5430   -1.0090 C   0  0  0  0  0  0  0  0  0  0  0  0
  1  2  1  0
  2  3  1  0
  3  4  1  0
  3 37  1  0
  4  5  1  0
  4  6  2  0
  6  7  1  0
  6 21  1  0
  7  8  2  0
  7 19  1  0
  8  9  1  0
  9 10  2  0
 10 11  1  0
 10 18  1  0
 11 12  2  0
 11 17  1  0
 12 13  1  0
 13 14  2  0
 14 15  1  0
 15 16  1  0
 15 17  2  0
 18 19  2  0
 19 20  1  0
 21 22  1  0
 22 23  2  0
 22 37  1  0
 23 24  1  0
 24 25  2  0
 25 26  1  0
 25 36  1  0
 26 27  1  0
 27 28  1  0
 29 28  1  6
 29 30  1  0
 29 35  1  0
 30 31  1  0
 31 32  1  0
 32 33  1  6
 32 34  1  0
 34 35  1  0
 36 37  2  0
M  CHG  1  32   1
M  END
