
     RDKit          3D

 36 40  0  0  0  0  0  0  0  0999 V2000
   -0.9730   -6.5710    1.2930 C   0  0  0  0  0  0  0  0  0  0  0  0
   -1.7800   -6.4750    0.1140 O   0  0  0  0  0  0  0  0  0  0  0  0
   -2.2220   -5.1650   -0.2100 C   0  0  0  0  0  0  0  0  0  0  0  0
   -2.9750   -4.8970   -1.3150 C   0  0  0  0  0  0  0  0  0  0  0  0
   -3.3790   -3.5890   -1.6050 C   0  0  0  0  0  0  0  0  0  0  0  0
   -3.0380   -2.5490   -0.7970 C   0  0  0  0  0  0  0  0  0  0  0  0
   -2.2740   -2.8070    0.3420 C   0  0  0  0  0  0  0  0  0  0  0  0
   -1.8910   -4.1130    0.5920 C   0  0  0  0  0  0  0  0  0  0  0  0
   -2.0680   -1.5080    1.0650 C   0  0  2  0  0  0  0  0  0  0  0  0
   -3.0760   -1.2420    1.9380 O   0  0  0  0  0  0  0  0  0  0  0  0
   -2.0420   -0.5580   -0.1030 C   0  0  2  0  0  0  0  0  0  0  0  0
   -2.1440    0.8020    0.2660 N   0  0  1  0  0  0  0  0  0  0  0  0
   -1.0070    1.1710    1.0810 C   0  0  0  0  0  0  0  0  0  0  0  0
    0.2950    1.2990    0.3640 C   0  0  0  0  0  0  0  0  0  0  0  0
    1.3330    1.7150    1.4000 C   0  0  0  0  0  0  0  0  0  0  0  0
    2.5990    1.8820    0.7580 N   0  0  0  0  0  0  0  0  0  0  0  0
    3.3370    1.0590    0.3150 C   0  0  0  0  0  0  0  0  0  0  0  0
    4.5310    0.9630   -0.3110 N   0  0  0  0  0  0  0  0  0  0  0  0
    5.0800   -0.0790   -0.6590 C   0  0  0  0  0  0  0  0  0  0  0  0
    4.4590   -1.3420   -0.4150 C   0  0  0  0  0  0  0  0  0  0  0  0
    2.9690   -0.8000    0.3880 S   0  0  0  0  0  0  0  0  0  0  0  0
    5.0960   -2.5920   -0.8290 C   0  0  0  0  0  0  0  0  0  0  0  0
    6.5630   -2.6460   -0.3790 C   0  0  0  0  0  0  0  0  0  0  0  0
    7.2190   -1.3140   -0.5440 C   0  0  0  0  0  0  0  0  0  0  0  0
    6.4290   -0.3190   -1.3480 C   0  0  0  0  0  0  0  0  0  0  0  0
   -2.1780    1.6370   -0.9310 C   0  0  0  0  0  0  0  0  0  0  0  0
   -2.3620    3.0590   -0.6630 C   0  0  0  0  0  0  0  0  0  0  0  0
   -1.8880    3.9630   -1.6140 C   0  0  0  0  0  0  0  0  0  0  0  0
   -2.0150    5.3070   -1.4660 C   0  0  0  0  0  0  0  0  0  0  0  0
   -2.6370    5.8350   -0.3300 C   0  0  0  0  0  0  0  0  0  0  0  0
   -2.7800    7.2160   -0.2340 C   0  0  0  0  0  0  0  0  0  0  0  0
   -2.8980    8.4620   -0.1660 N   0  0  0  0  0  0  0  0  0  0  0  0
   -3.1190    4.9510    0.6380 C   0  0  0  0  0  0  0  0  0  0  0  0
   -3.7790    5.4950    1.8540 C   0  0  0  0  0  0  0  0  0  0  0  0
   -2.9700    3.5970    0.4470 C   0  0  0  0  0  0  0  0  0  0  0  0
   -3.2480   -1.0520   -0.9100 C   0  0  0  0  0  0  0  0  0  0  0  0
  1  2  1  0
  2  3  1  0
  3  4  2  0
  3  8  1  0
  4  5  1  0
  5  6  2  0
  6  7  1  0
  6 36  1  0
  7  8  2  0
  7  9  1  0
  9 10  1  1
  9 11  1  0
 11 12  1  0
 11 36  1  6
 12 13  1  1
 12 26  1  0
 13 14  1  0
 14 15  1  0
 15 16  1  0
 16 17  2  3
 17 18  1  0
 17 21  1  0
 18 19  1  0
 19 20  2  0
 19 25  1  0
 20 21  1  0
 20 22  1  0
 22 23  1  0
 23 24  1  0
 24 25  1  0
 26 27  1  0
 27 28  2  0
 27 35  1  0
 28 29  1  0
 29 30  2  0
 30 31  1  0
 30 33  1  0
 31 32  3  0
 33 34  1  0
 33 35  2  0
M  CHG  1  12   1
M  END
