
     RDKit          3D

 36 40  0  0  0  0  0  0  0  0999 V2000
  -11.8150   -0.0150    0.6620 C   0  0  0  0  0  0  0  0  0  0  0  0
  -10.5420    0.3670    0.1460 O   0  0  0  0  0  0  0  0  0  0  0  0
   -9.4000   -0.1590    0.7040 C   0  0  0  0  0  0  0  0  0  0  0  0
   -9.4820   -1.0530    1.7580 C   0  0  0  0  0  0  0  0  0  0  0  0
   -8.3580   -1.5920    2.3320 C   0  0  0  0  0  0  0  0  0  0  0  0
   -7.1110   -1.2170    1.8270 C   0  0  0  0  0  0  0  0  0  0  0  0
   -5.8810   -1.5660    2.1710 N   0  0  0  0  0  0  0  0  0  0  0  0
   -4.9910   -0.9350    1.3830 C   0  0  0  0  0  0  0  0  0  0  0  0
   -5.6740   -0.1470    0.4950 C   0  0  0  0  0  0  0  0  0  0  0  0
   -5.1930    0.7420   -0.5950 C   0  0  0  0  0  0  0  0  0  0  0  0
   -3.7880    0.7750   -0.6660 N   0  0  0  0  0  0  0  0  0  0  0  0
   -3.0700    1.3250    0.4270 C   0  0  0  0  0  0  0  0  0  0  0  0
   -1.6900    0.6680    0.4470 C   0  0  0  0  0  0  0  0  0  0  0  0
   -1.0470    1.0570   -0.8010 N   0  0  0  0  0  0  0  0  0  0  0  0
    0.3340    0.8340   -1.0070 C   0  0  0  0  0  0  0  0  0  0  0  0
    0.8450    1.1950   -2.1150 O   0  0  0  0  0  0  0  0  0  0  0  0
    1.2360    0.2050   -0.0140 C   0  0  1  0  0  0  0  0  0  0  0  0
    0.7220   -1.1730    0.3020 C   0  0  0  0  0  0  0  0  0  0  0  0
    2.6370    0.1200   -0.5460 C   0  0  0  0  0  0  0  0  0  0  0  0
    2.8960   -0.5050   -1.7580 C   0  0  0  0  0  0  0  0  0  0  0  0
    4.1690   -0.6040   -2.2770 C   0  0  0  0  0  0  0  0  0  0  0  0
    5.2210   -0.0730   -1.5860 C   0  0  0  0  0  0  0  0  0  0  0  0
    5.0210    0.5600   -0.3760 C   0  0  0  0  0  0  0  0  0  0  0  0
    3.7180    0.6460    0.1290 C   0  0  0  0  0  0  0  0  0  0  0  0
    6.1340    1.0930    0.2950 N   0  0  0  0  0  0  0  0  0  0  0  0
    7.3350    0.3330    0.2370 C   0  0  2  0  0  0  0  0  0  0  0  0
    8.5790    1.2260    0.1320 C   0  0  0  0  0  0  0  0  0  0  0  0
   10.0130    0.1170    0.0670 S   0  0  0  0  0  0  0  0  0  0  0  0
   10.1750   -0.7600    1.6400 C   0  0  0  0  0  0  0  0  0  0  0  0
    7.4090   -0.6980   -0.8520 C   0  0  1  0  0  0  0  0  0  0  0  0
    6.6740   -1.9360   -0.3770 C   0  0  0  0  0  0  0  0  0  0  0  0
    6.6510   -0.1330   -2.0630 C   0  0  0  0  0  0  0  0  0  0  0  0
   -1.8300    1.6720   -1.8370 C   0  0  0  0  0  0  0  0  0  0  0  0
   -3.2160    1.0910   -1.9530 C   0  0  0  0  0  0  0  0  0  0  0  0
   -7.0270   -0.3340    0.7870 C   0  0  0  0  0  0  0  0  0  0  0  0
   -8.1620    0.1980    0.2210 C   0  0  0  0  0  0  0  0  0  0  0  0
  1  2  1  0
  2  3  1  0
  3  4  2  0
  3 36  1  0
  4  5  1  0
  5  6  2  0
  6  7  1  0
  6 35  1  0
  7  8  1  0
  8  9  2  0
  9 10  1  0
  9 35  1  0
 10 11  1  0
 11 12  1  0
 11 34  1  0
 12 13  1  0
 13 14  1  0
 14 15  1  0
 14 33  1  0
 15 16  2  0
 15 17  1  0
 17 18  1  6
 17 19  1  0
 19 20  2  0
 19 24  1  0
 20 21  1  0
 21 22  2  0
 22 23  1  0
 22 32  1  0
 23 24  2  0
 23 25  1  0
 25 26  1  0
 26 27  1  6
 26 30  1  0
 27 28  1  0
 28 29  1  0
 30 31  1  1
 30 32  1  0
 33 34  1  0
 35 36  2  0
M  CHG  1  25   1
M  END
