
     RDKit          3D

 36 40  0  0  0  0  0  0  0  0999 V2000
   10.3970    0.7270   -0.0220 C   0  0  0  0  0  0  0  0  0  0  0  0
    9.6910    1.8240   -0.7950 C   0  0  0  0  0  0  0  0  0  0  0  0
    8.2140    1.6520   -0.7270 C   0  0  0  0  0  0  0  0  0  0  0  0
    7.4600    1.1500   -1.7550 C   0  0  0  0  0  0  0  0  0  0  0  0
    6.0950    1.0000   -1.6670 C   0  0  0  0  0  0  0  0  0  0  0  0
    5.1030    0.5520   -2.4640 N   0  0  0  0  0  0  0  0  0  0  0  0
    3.9220    0.6350   -1.8380 C   0  0  0  0  0  0  0  0  0  0  0  0
    2.5540    0.2520   -2.2900 C   0  0  1  0  0  0  0  0  0  0  0  0
    1.5770    0.3730   -1.2020 C   0  0  0  0  0  0  0  0  0  0  0  0
    0.1480    0.5750   -1.5990 C   0  0  2  0  0  0  0  0  0  0  0  0
   -0.4070   -0.4250   -2.4050 O   0  0  0  0  0  0  0  0  0  0  0  0
   -1.5370   -1.1860   -2.0950 C   0  0  0  0  0  0  0  0  0  0  0  0
   -1.9510   -2.1380   -3.0380 C   0  0  0  0  0  0  0  0  0  0  0  0
   -3.0500   -2.9130   -2.7990 C   0  0  0  0  0  0  0  0  0  0  0  0
   -3.7950   -2.8000   -1.6390 C   0  0  0  0  0  0  0  0  0  0  0  0
   -4.8640   -3.5310   -1.3790 O   0  0  0  0  0  0  0  0  0  0  0  0
   -5.6500   -4.5090   -1.9060 C   0  0  0  0  0  0  0  0  0  0  0  0
   -3.3750   -1.8370   -0.6810 C   0  0  0  0  0  0  0  0  0  0  0  0
   -4.2000   -1.7990    0.5310 C   0  0  0  0  0  0  0  0  0  0  0  0
   -3.8580   -0.8550    1.5320 N   0  0  0  0  0  0  0  0  0  0  0  0
   -5.0320   -0.3550    2.2380 C   0  0  1  0  0  0  0  0  0  0  0  0
   -5.2950   -1.2500    3.4120 C   0  0  0  0  0  0  0  0  0  0  0  0
   -6.6550   -0.9590    4.0230 C   0  0  0  0  0  0  0  0  0  0  0  0
   -7.1000    0.4320    3.6090 C   0  0  0  0  0  0  0  0  0  0  0  0
   -5.9480    1.4170    3.7320 C   0  0  0  0  0  0  0  0  0  0  0  0
   -4.8330    1.0530    2.7490 C   0  0  0  0  0  0  0  0  0  0  0  0
   -2.2720   -1.0790   -0.9520 C   0  0  0  0  0  0  0  0  0  0  0  0
   -0.1800    1.8960   -2.2150 C   0  0  0  0  0  0  0  0  0  0  0  0
    1.0080    2.6480   -2.7680 C   0  0  0  0  0  0  0  0  0  0  0  0
    2.0270    1.4140   -3.6250 S   0  0  0  0  0  0  0  0  0  0  0  0
    4.1920    1.1410   -0.6370 N   0  0  0  0  0  0  0  0  0  0  0  0
    5.4990    1.3920   -0.4550 C   0  0  0  0  0  0  0  0  0  0  0  0
    6.2670    1.8920    0.5670 C   0  0  0  0  0  0  0  0  0  0  0  0
    7.6200    2.0450    0.4910 C   0  0  0  0  0  0  0  0  0  0  0  0
    8.4330    2.5650    1.5670 C   0  0  0  0  0  0  0  0  0  0  0  0
    9.0740    2.9790    2.4130 N   0  0  0  0  0  0  0  0  0  0  0  0
  1  2  1  0
  2  3  1  0
  3  4  2  0
  3 34  1  0
  4  5  1  0
  5  6  1  0
  5 32  2  0
  6  7  1  0
  8  7  1  1
  7 31  2  0
  8  9  1  0
  8 30  1  0
  9 10  1  0
 10 11  1  6
 10 28  1  0
 11 12  1  0
 12 13  2  0
 12 27  1  0
 13 14  1  0
 14 15  2  0
 15 16  1  0
 15 18  1  0
 16 17  1  0
 18 19  1  0
 18 27  2  0
 19 20  1  0
 21 20  1  1
 21 22  1  0
 21 26  1  0
 22 23  1  0
 23 24  1  0
 24 25  1  0
 25 26  1  0
 28 29  1  0
 29 30  1  0
 31 32  1  0
 32 33  1  0
 33 34  2  0
 34 35  1  0
 35 36  3  0
M  CHG  1  20   1
M  END
