
     RDKit          3D

 36 40  0  0  0  0  0  0  0  0999 V2000
    9.1280    1.7460   -0.2080 C   0  0  0  0  0  0  0  0  0  0  0  0
    8.0380    0.8700   -0.8320 C   0  0  1  0  0  0  0  0  0  0  0  0
    7.8110    1.3870   -2.2400 C   0  0  0  0  0  0  0  0  0  0  0  0
    8.5030   -0.5670   -0.8360 C   0  0  0  0  0  0  0  0  0  0  0  0
    7.4600   -1.5010   -0.2380 C   0  0  0  0  0  0  0  0  0  0  0  0
    6.1590   -1.2210   -1.0010 C   0  0  0  0  0  0  0  0  0  0  0  0
    5.6950    0.1840   -0.7280 C   0  0  1  0  0  0  0  0  0  0  0  0
    4.4810    0.2200    0.0730 N   0  0  0  0  0  0  0  0  0  0  0  0
    4.2620    0.9390    1.1860 C   0  0  0  0  0  0  0  0  0  0  0  0
    2.9680    0.6930    1.6510 C   0  0  0  0  0  0  0  0  0  0  0  0
    2.3610    1.2740    2.8210 C   0  0  0  0  0  0  0  0  0  0  0  0
    1.2220    1.1360    3.3110 N   0  0  0  0  0  0  0  0  0  0  0  0
    0.2180    0.3190    2.7750 C   0  0  0  0  0  0  0  0  0  0  0  0
   -0.1550   -0.9550    3.0450 C   0  0  0  0  0  0  0  0  0  0  0  0
   -1.2020   -1.4690    2.3550 C   0  0  0  0  0  0  0  0  0  0  0  0
   -1.8210   -0.7310    1.4540 C   0  0  0  0  0  0  0  0  0  0  0  0
   -3.0010   -1.0690    0.5740 C   0  0  0  0  0  0  0  0  0  0  0  0
   -4.1690   -0.3350    0.9650 N   0  0  2  0  0  0  0  0  0  0  0  0
   -5.3920   -1.0580    0.9460 C   0  0  0  0  0  0  0  0  0  0  0  0
   -5.8750   -1.6700   -0.3050 C   0  0  2  0  0  0  0  0  0  0  0  0
   -7.2300   -2.3670   -0.0570 C   0  0  0  0  0  0  0  0  0  0  0  0
   -7.3380   -3.5370   -0.9500 C   0  0  0  0  0  0  0  0  0  0  0  0
   -6.0720   -3.5980   -1.7140 C   0  0  0  0  0  0  0  0  0  0  0  0
   -5.0740   -2.8480   -0.8240 C   0  0  0  0  0  0  0  0  0  0  0  0
   -4.2190    1.0300    0.5170 C   0  0  2  0  0  0  0  0  0  0  0  0
   -5.6000    1.6220    0.5530 C   0  0  0  0  0  0  0  0  0  0  0  0
   -5.5050    3.0940    0.2220 C   0  0  0  0  0  0  0  0  0  0  0  0
   -4.1060    3.5990    0.1190 C   0  0  0  0  0  0  0  0  0  0  0  0
   -3.3600    2.8230   -0.9100 C   0  0  0  0  0  0  0  0  0  0  0  0
   -3.6100    1.3080   -0.8280 C   0  0  2  0  0  0  0  0  0  0  0  0
   -4.4000    0.9860   -1.9100 O   0  0  0  0  0  0  0  0  0  0  0  0
   -0.9580    0.7910    1.5040 S   0  0  0  0  0  0  0  0  0  0  0  0
    2.4570   -0.1810    0.7810 N   0  0  0  0  0  0  0  0  0  0  0  0
    3.3740   -0.4750   -0.1860 C   0  0  0  0  0  0  0  0  0  0  0  0
    3.1750   -1.2750   -1.1500 O   0  0  0  0  0  0  0  0  0  0  0  0
    6.7650    1.0030   -0.0250 C   0  0  0  0  0  0  0  0  0  0  0  0
  2  1  1  1
  2  3  1  0
  2  4  1  0
  2 36  1  0
  4  5  1  0
  5  6  1  0
  6  7  1  0
  7  8  1  1
  7 36  1  0
  8  9  1  0
  8 34  1  0
  9 10  2  0
 10 11  1  0
 10 33  1  0
 11 12  2  3
 12 13  1  0
 13 14  2  0
 13 32  1  0
 14 15  1  0
 15 16  2  0
 16 17  1  0
 16 32  1  0
 18 17  1  6
 18 19  1  0
 18 25  1  0
 20 19  1  1
 20 21  1  0
 20 24  1  0
 21 22  1  0
 22 23  1  0
 23 24  1  0
 25 26  1  6
 25 30  1  0
 26 27  1  0
 27 28  1  0
 28 29  1  0
 29 30  1  0
 30 31  1  6
 33 34  1  0
 34 35  2  0
M  CHG  1  18   1
M  END
