
     RDKit          3D

 42 46  0  0  0  0  0  0  0  0999 V2000
   -0.9380   -4.9980   -3.3390 C   0  0  0  0  0  0  0  0  0  0  0  0
   -0.2300   -3.6860   -3.5570 C   0  0  0  0  0  0  0  0  0  0  0  0
   -0.4170   -2.7730   -2.5230 O   0  0  0  0  0  0  0  0  0  0  0  0
   -1.6030   -2.2630   -2.0950 C   0  0  0  0  0  0  0  0  0  0  0  0
   -2.6340   -2.6790   -2.7210 O   0  0  0  0  0  0  0  0  0  0  0  0
   -1.7680   -1.2880   -0.9880 C   0  0  0  0  0  0  0  0  0  0  0  0
   -0.7350   -0.8550   -0.3430 C   0  0  0  0  0  0  0  0  0  0  0  0
    0.6630   -1.1290   -0.4670 N   0  0  0  0  0  0  0  0  0  0  0  0
    1.6440   -0.5220    0.3720 C   0  0  0  0  0  0  0  0  0  0  0  0
    1.2300    0.2810    1.2440 O   0  0  0  0  0  0  0  0  0  0  0  0
    3.0780   -0.7880    0.2640 C   0  0  1  0  0  0  0  0  0  0  0  0
    3.6900   -0.2700   -1.0160 C   0  0  0  0  0  0  0  0  0  0  0  0
    5.0840    0.1060   -0.6000 C   0  0  0  0  0  0  0  0  0  0  0  0
    6.2700    0.3280   -1.2420 C   0  0  0  0  0  0  0  0  0  0  0  0
    7.4110    0.6740   -0.5140 C   0  0  0  0  0  0  0  0  0  0  0  0
    7.3930    0.8050    0.8530 C   0  0  0  0  0  0  0  0  0  0  0  0
    6.1840    0.5770    1.4940 C   0  0  0  0  0  0  0  0  0  0  0  0
    6.1370    0.7010    2.8700 O   0  0  0  0  0  0  0  0  0  0  0  0
    5.8280    1.9560    3.4250 C   0  0  0  0  0  0  0  0  0  0  0  0
    5.0560    0.2350    0.7720 C   0  0  0  0  0  0  0  0  0  0  0  0
    3.7660   -0.0300    1.2370 O   0  0  0  0  0  0  0  0  0  0  0  0
    8.6490    1.1530    1.3270 O   0  0  0  0  0  0  0  0  0  0  0  0
    9.6050    0.9780    0.2930 C   0  0  1  0  0  0  0  0  0  0  0  0
   10.3760   -0.3160    0.5100 C   0  0  0  0  0  0  0  0  0  0  0  0
    8.8100    0.9650   -0.9750 C   0  0  0  0  0  0  0  0  0  0  0  0
   -1.3450    0.3200    0.9050 S   0  0  0  0  0  0  0  0  0  0  0  0
   -2.9890    0.4150    0.1560 C   0  0  2  0  0  0  0  0  0  0  0  0
   -3.0920    1.6650   -0.6450 C   0  0  1  0  0  0  0  0  0  0  0  0
   -2.0370    1.7510   -1.5510 O   0  0  0  0  0  0  0  0  0  0  0  0
   -1.3050    2.8920   -1.2670 C   0  0  0  0  0  0  0  0  0  0  0  0
   -4.2900    1.7890   -1.3410 O   0  0  0  0  0  0  0  0  0  0  0  0
   -5.0030    2.9340   -1.0020 C   0  0  0  0  0  0  0  0  0  0  0  0
   -6.3010    3.0250   -1.7870 C   0  0  0  0  0  0  0  0  0  0  0  0
   -4.0820    0.2700    1.1910 C   0  0  0  0  0  0  0  0  0  0  0  0
   -5.1640   -0.3900    0.4150 C   0  0  2  0  0  0  0  0  0  0  0  0
   -5.9810   -1.4130    1.1170 C   0  0  0  0  0  0  0  0  0  0  0  0
   -6.7400   -0.9670    2.3050 C   0  0  2  0  0  0  0  0  0  0  0  0
   -7.7220    0.1480    2.0040 C   0  0  0  0  0  0  0  0  0  0  0  0
   -5.9110   -0.6310    3.4880 C   0  0  0  0  0  0  0  0  0  0  0  0
   -4.4080   -1.1220   -0.6650 C   0  0  0  0  0  0  0  0  0  0  0  0
   -5.0020   -1.8960   -1.4840 O   0  0  0  0  0  0  0  0  0  0  0  0
   -3.0230   -0.7980   -0.5830 N   0  0  0  0  0  0  0  0  0  0  0  0
  1  2  1  0
  2  3  1  0
  3  4  1  0
  4  5  2  0
  4  6  1  0
  6  7  2  0
  6 42  1  0
  7  8  1  0
  7 26  1  0
  8  9  1  0
  9 10  2  0
 11  9  1  6
 11 12  1  0
 11 21  1  0
 12 13  1  0
 13 14  2  0
 13 20  1  0
 14 15  1  0
 15 16  2  0
 15 25  1  0
 16 17  1  0
 16 22  1  0
 17 18  1  0
 17 20  2  0
 18 19  1  0
 20 21  1  0
 22 23  1  0
 23 24  1  1
 23 25  1  0
 26 27  1  0
 27 28  1  0
 27 34  1  1
 27 42  1  0
 28 29  1  6
 28 31  1  0
 29 30  1  0
 31 32  1  0
 32 33  1  0
 34 35  1  0
 35 36  1  1
 35 40  1  0
 36 37  1  0
 37 38  1  6
 37 39  1  0
 40 41  2  0
 40 42  1  0
M  END
