
     RDKit          3D

 42 45  0  0  0  0  0  0  0  0999 V2000
   -1.0050   -2.8710    0.4650 C   0  0  0  0  0  0  0  0  0  0  0  0
   -2.2170   -2.0870    0.1550 C   0  0  2  0  0  0  0  0  0  0  0  0
   -2.9760   -2.9590   -0.8910 C   0  0  0  0  0  0  0  0  0  0  0  0
   -2.1070   -0.7980   -0.5480 C   0  0  0  0  0  0  0  0  0  0  0  0
   -0.8390   -0.0010   -0.7010 C   0  0  2  0  0  0  0  0  0  0  0  0
   -1.1760    1.3990   -0.2640 C   0  0  0  0  0  0  0  0  0  0  0  0
   -2.4530    1.8210   -0.6910 C   0  0  0  0  0  0  0  0  0  0  0  0
   -3.0220    3.0270   -0.3870 C   0  0  0  0  0  0  0  0  0  0  0  0
   -2.3010    3.8970    0.3930 C   0  0  0  0  0  0  0  0  0  0  0  0
   -2.8810    5.1400    0.7120 O   0  0  0  0  0  0  0  0  0  0  0  0
   -3.6720    5.3100    1.8670 C   0  0  1  0  0  0  0  0  0  0  0  0
   -4.0770    6.6460    1.8680 F   0  0  0  0  0  0  0  0  0  0  0  0
   -4.7720    4.4820    1.8900 F   0  0  0  0  0  0  0  0  0  0  0  0
   -2.9360    5.0560    3.0100 F   0  0  0  0  0  0  0  0  0  0  0  0
   -1.0610    3.5430    0.8320 C   0  0  0  0  0  0  0  0  0  0  0  0
   -0.4830    2.2810    0.5030 C   0  0  0  0  0  0  0  0  0  0  0  0
    0.8990    2.2110    1.0230 C   0  0  0  0  0  0  0  0  0  0  0  0
    1.0480    1.7290    2.4560 C   0  0  0  0  0  0  0  0  0  0  0  0
    0.9400    0.2530    2.4050 C   0  0  0  0  0  0  0  0  0  0  0  0
    2.0680   -0.3460    1.9430 C   0  0  0  0  0  0  0  0  0  0  0  0
    3.3190    0.2150    1.4890 C   0  0  0  0  0  0  0  0  0  0  0  0
    3.8520   -0.3850    0.2110 C   0  0  1  0  0  0  0  0  0  0  0  0
    5.3190    0.0930    0.1450 C   0  0  0  0  0  0  0  0  0  0  0  0
    5.9570   -0.3740   -0.9770 O   0  0  0  0  0  0  0  0  0  0  0  0
    3.7560   -1.8610    0.0920 C   0  0  0  0  0  0  0  0  0  0  0  0
    2.7690   -2.1670   -1.0550 C   0  0  0  0  0  0  0  0  0  0  0  0
    2.0540   -0.8360   -1.1820 C   0  0  1  0  0  0  0  0  0  0  0  0
    3.2520    0.0880   -1.0890 C   0  0  2  0  0  0  0  0  0  0  0  0
    4.1430   -0.1350   -2.1440 O   0  0  0  0  0  0  0  0  0  0  0  0
    1.0960   -0.6710   -2.2580 C   0  0  1  0  0  0  0  0  0  0  0  0
    0.8570   -1.9690   -2.7980 O   0  0  0  0  0  0  0  0  0  0  0  0
   -0.1990    0.0340   -2.0470 C   0  0  2  0  0  0  0  0  0  0  0  0
    0.0810    1.5080   -2.4190 C   0  0  0  0  0  0  0  0  0  0  0  0
   -1.0890   -0.4140   -3.2020 C   0  0  0  0  0  0  0  0  0  0  0  0
   -0.2820   -0.5950    2.5130 C   0  0  0  0  0  0  0  0  0  0  0  0
   -1.5500   -0.3910    2.4360 C   0  0  0  0  0  0  0  0  0  0  0  0
   -2.7470   -1.2830    2.5030 C   0  0  0  0  0  0  0  0  0  0  0  0
   -3.0540   -2.0780    1.4310 C   0  0  0  0  0  0  0  0  0  0  0  0
   -4.2010   -2.9880    1.4760 C   0  0  1  0  0  0  0  0  0  0  0  0
   -3.9060   -4.3270    1.4120 F   0  0  0  0  0  0  0  0  0  0  0  0
   -4.8790   -2.9180    2.7180 F   0  0  0  0  0  0  0  0  0  0  0  0
   -5.2210   -2.6370    0.5770 F   0  0  0  0  0  0  0  0  0  0  0  0
  2  1  1  1
  2  3  1  0
  2  4  1  0
  2 38  1  0
  5  4  1  6
  5  6  1  0
  5 32  1  0
  6  7  2  0
  6 16  1  0
  7  8  1  0
  8  9  2  0
  9 10  1  0
  9 15  1  0
 10 11  1  0
 11 12  1  1
 11 13  1  0
 11 14  1  0
 15 16  2  0
 16 17  1  0
 17 18  1  0
 18 19  1  0
 19 20  2  0
 19 35  1  0
 20 21  1  0
 21 22  1  0
 22 23  1  6
 22 25  1  0
 22 28  1  0
 23 24  1  0
 25 26  1  0
 27 26  1  6
 27 28  1  0
 27 30  1  0
 28 29  1  6
 30 31  1  1
 30 32  1  0
 32 33  1  6
 32 34  1  0
 35 36  2  0
 36 37  1  0
 37 38  2  0
 38 39  1  0
 39 40  1  6
 39 41  1  0
 39 42  1  0
M  END
