
     RDKit          3D

 42 45  0  0  0  0  0  0  0  0999 V2000
   -5.3460   -2.1730   -0.0570 C   0  0  0  0  0  0  0  0  0  0  0  0
   -4.5040   -1.6250    1.0800 C   0  0  0  0  0  0  0  0  0  0  0  0
   -4.2730   -0.1010    0.8710 C   0  0  1  0  0  0  0  0  0  0  0  0
   -5.7590    0.4020    0.8610 C   0  0  0  0  0  0  0  0  0  0  0  0
   -3.7230    0.3750    2.1870 C   0  0  0  0  0  0  0  0  0  0  0  0
   -2.5210   -0.3840    2.7300 C   0  0  2  0  0  0  0  0  0  0  0  0
   -3.0300   -1.2940    3.8040 C   0  0  0  0  0  0  0  0  0  0  0  0
   -2.1310   -0.9790    4.9860 C   0  0  0  0  0  0  0  0  0  0  0  0
   -1.8060    0.5030    4.7500 C   0  0  0  0  0  0  0  0  0  0  0  0
   -1.5280    0.5090    3.2910 N   0  0  0  0  0  0  0  0  0  0  0  0
   -0.5430    1.2570    2.6060 C   0  0  0  0  0  0  0  0  0  0  0  0
   -0.5850    2.5160    2.9870 O   0  0  0  0  0  0  0  0  0  0  0  0
    0.4870    0.9950    1.6100 C   0  0  1  0  0  0  0  0  0  0  0  0
    0.9120   -0.4440    1.4650 C   0  0  0  0  0  0  0  0  0  0  0  0
    2.2300   -0.6480    1.1130 O   0  0  0  0  0  0  0  0  0  0  0  0
    3.2130   -0.2270    1.9210 C   0  0  0  0  0  0  0  0  0  0  0  0
    4.5590   -0.5830    1.3220 C   0  0  0  0  0  0  0  0  0  0  0  0
    4.8370   -0.0400    0.1080 O   0  0  0  0  0  0  0  0  0  0  0  0
    4.0500   -0.3290   -0.9590 C   0  0  0  0  0  0  0  0  0  0  0  0
    4.5890    0.3790   -2.2250 C   0  0  0  0  0  0  0  0  0  0  0  0
    5.8900   -0.0100   -2.5360 O   0  0  0  0  0  0  0  0  0  0  0  0
    6.3210   -1.2740   -2.8280 C   0  0  0  0  0  0  0  0  0  0  0  0
    5.5090   -2.2040   -2.8290 O   0  0  0  0  0  0  0  0  0  0  0  0
    7.7020   -1.4880   -3.1240 C   0  0  0  0  0  0  0  0  0  0  0  0
    8.7830   -0.6930   -3.1940 C   0  0  0  0  0  0  0  0  0  0  0  0
    9.9790   -1.1940   -3.5080 C   0  0  0  0  0  0  0  0  0  0  0  0
   10.1170   -2.5230   -3.7630 C   0  0  0  0  0  0  0  0  0  0  0  0
    8.3870   -3.0980   -3.5310 S   0  0  0  0  0  0  0  0  0  0  0  0
    0.6210    1.8090    0.5120 O   0  0  0  0  0  0  0  0  0  0  0  0
   -0.0370    2.0200   -0.6910 C   0  0  0  0  0  0  0  0  0  0  0  0
    0.6390    2.1920   -1.7330 O   0  0  0  0  0  0  0  0  0  0  0  0
   -1.4860    2.0150   -0.5870 C   0  0  2  0  0  0  0  0  0  0  0  0
   -1.8500    3.2650    0.1300 C   0  0  0  0  0  0  0  0  0  0  0  0
   -1.5370    0.8200    0.1820 O   0  0  0  0  0  0  0  0  0  0  0  0
   -2.4600    1.7260   -1.6310 C   0  0  1  0  0  0  0  0  0  0  0  0
   -2.1500    1.9540   -3.0470 C   0  0  0  0  0  0  0  0  0  0  0  0
   -1.5990    0.7790   -3.8130 C   0  0  0  0  0  0  0  0  0  0  0  0
   -2.8050   -0.1820   -3.8530 C   0  0  0  0  0  0  0  0  0  0  0  0
   -2.8990   -0.6470   -2.4210 C   0  0  0  0  0  0  0  0  0  0  0  0
   -2.8100   -1.8880   -2.2770 O   0  0  0  0  0  0  0  0  0  0  0  0
   -3.0780    0.3360   -1.3520 C   0  0  0  0  0  0  0  0  0  0  0  0
   -3.6560    0.0720   -0.3140 N   0  0  0  0  0  0  0  0  0  0  0  0
  1  2  1  0
  2  3  1  0
  3  4  1  6
  3  5  1  0
  3 42  1  0
  6  5  1  1
  6  7  1  0
  6 10  1  0
  7  8  1  0
  8  9  1  0
  9 10  1  0
 10 11  1  0
 11 12  2  0
 11 13  1  0
 13 14  1  6
 13 29  1  0
 14 15  1  0
 15 16  1  0
 16 17  1  0
 17 18  1  0
 18 19  1  0
 19 20  1  0
 20 21  1  0
 21 22  1  0
 22 23  2  0
 22 24  1  0
 24 25  2  0
 24 28  1  0
 25 26  1  0
 26 27  2  0
 27 28  1  0
 29 30  1  0
 30 31  2  0
 30 32  1  0
 32 33  1  1
 32 34  1  0
 32 35  1  0
 35 36  1  6
 35 41  1  0
 36 37  1  0
 37 38  1  0
 38 39  1  0
 39 40  2  0
 39 41  1  0
 41 42  2  0
M  END
