
     RDKit          3D

 42 44  0  0  0  0  0  0  0  0999 V2000
   -3.4230    1.8680    2.5930 C   0  0  0  0  0  0  0  0  0  0  0  0
   -2.0450    1.7080    1.9560 C   0  0  0  0  0  0  0  0  0  0  0  0
   -1.9240    0.4430    1.2080 C   0  0  1  0  0  0  0  0  0  0  0  0
   -2.2250   -0.5430    2.2510 O   0  0  0  0  0  0  0  0  0  0  0  0
   -2.9890    0.1960    0.2880 C   0  0  0  0  0  0  0  0  0  0  0  0
   -4.0530    1.0920   -0.1880 C   0  0  0  0  0  0  0  0  0  0  0  0
   -2.9880   -1.0570   -0.2260 C   0  0  0  0  0  0  0  0  0  0  0  0
   -4.0330   -1.5240   -1.2060 C   0  0  0  0  0  0  0  0  0  0  0  0
   -4.7780   -2.7210   -0.6440 C   0  0  0  0  0  0  0  0  0  0  0  0
   -5.7360   -3.1570   -1.5310 F   0  0  0  0  0  0  0  0  0  0  0  0
   -1.8730   -1.9060    0.1900 C   0  0  0  0  0  0  0  0  0  0  0  0
   -0.4900   -1.2820    0.2100 C   0  0  1  0  0  0  0  0  0  0  0  0
    0.0160   -2.1440    1.3020 O   0  0  0  0  0  0  0  0  0  0  0  0
    0.2410   -1.7150   -1.0010 C   0  0  0  0  0  0  0  0  0  0  0  0
   -0.1420   -1.3330   -2.3350 C   0  0  0  0  0  0  0  0  0  0  0  0
   -0.9530   -0.6200   -3.0090 C   0  0  0  0  0  0  0  0  0  0  0  0
   -0.9290   -0.5850   -4.4260 F   0  0  0  0  0  0  0  0  0  0  0  0
   -1.8750    0.2220   -2.5860 F   0  0  0  0  0  0  0  0  0  0  0  0
    1.3230   -2.5680   -0.9510 C   0  0  0  0  0  0  0  0  0  0  0  0
    1.9880   -2.9290   -2.2870 C   0  0  0  0  0  0  0  0  0  0  0  0
    1.9810   -3.2360    0.1530 C   0  0  2  0  0  0  0  0  0  0  0  0
    2.8380   -4.2900   -0.3770 F   0  0  0  0  0  0  0  0  0  0  0  0
    1.0830   -4.1710    0.7530 F   0  0  0  0  0  0  0  0  0  0  0  0
    2.6510   -2.6170    1.2480 C   0  0  0  0  0  0  0  0  0  0  0  0
    3.4860   -1.6360    1.4780 C   0  0  0  0  0  0  0  0  0  0  0  0
    3.8670   -1.4590    2.9700 C   0  0  0  0  0  0  0  0  0  0  0  0
    4.1340   -0.6780    0.6270 C   0  0  0  0  0  0  0  0  0  0  0  0
    5.4210   -0.7880    0.4830 O   0  0  0  0  0  0  0  0  0  0  0  0
    3.6230    0.4020   -0.1090 O   0  0  0  0  0  0  0  0  0  0  0  0
    2.2730    0.5110   -0.2400 C   0  0  0  0  0  0  0  0  0  0  0  0
    1.4910    1.7310    0.0780 C   0  0  1  0  0  0  0  0  0  0  0  0
    1.9510    2.5160    1.2390 C   0  0  0  0  0  0  0  0  0  0  0  0
    1.7000    2.6290   -1.0960 C   0  0  0  0  0  0  0  0  0  0  0  0
    0.7180    3.1350   -1.8890 C   0  0  0  0  0  0  0  0  0  0  0  0
    1.0180    3.9700   -2.9630 C   0  0  0  0  0  0  0  0  0  0  0  0
    2.3250    4.3030   -3.2450 C   0  0  0  0  0  0  0  0  0  0  0  0
    2.5820    5.1280   -4.3110 F   0  0  0  0  0  0  0  0  0  0  0  0
    3.3470    3.8090   -2.4620 C   0  0  0  0  0  0  0  0  0  0  0  0
    3.0020    2.9860   -1.4090 C   0  0  0  0  0  0  0  0  0  0  0  0
    0.0680    1.2400    0.0380 C   0  0  0  0  0  0  0  0  0  0  0  0
   -0.4690    0.1080    0.7570 C   0  0  1  0  0  0  0  0  0  0  0  0
    0.1520   -0.0080    2.1790 C   0  0  0  0  0  0  0  0  0  0  0  0
  1  2  1  0
  2  3  1  0
  3  4  1  1
  3  5  1  0
  3 41  1  0
  5  6  1  0
  5  7  2  0
  7  8  1  0
  7 11  1  0
  8  9  1  0
  9 10  1  0
 11 12  1  0
 12 13  1  1
 12 14  1  0
 12 41  1  0
 14 15  1  0
 14 19  2  0
 15 16  2  3
 16 17  1  0
 16 18  1  0
 19 20  1  0
 19 21  1  0
 21 22  1  6
 21 23  1  0
 21 24  1  0
 24 25  2  0
 25 26  1  0
 25 27  1  0
 27 28  2  0
 27 29  1  0
 29 30  1  0
 30 31  1  0
 31 32  1  1
 31 33  1  0
 31 40  1  0
 33 34  2  0
 33 39  1  0
 34 35  1  0
 35 36  2  0
 36 37  1  0
 36 38  1  0
 38 39  2  0
 40 41  1  0
 41 42  1  1
M  END
