
     RDKit          3D

 39 41  0  0  0  0  0  0  0  0999 V2000
   10.2040   -1.9850   -0.6390 C   0  0  0  0  0  0  0  0  0  0  0  0
    9.1560   -1.1180   -0.3240 O   0  0  0  0  0  0  0  0  0  0  0  0
    8.3110   -0.6600   -1.3490 C   0  0  0  0  0  0  0  0  0  0  0  0
    8.5590   -1.0680   -2.4840 O   0  0  0  0  0  0  0  0  0  0  0  0
    7.2460    0.2270   -1.0340 N   0  0  0  0  0  0  0  0  0  0  0  0
    6.3460    0.7520   -1.9810 C   0  0  0  0  0  0  0  0  0  0  0  0
    6.5170    0.6110   -3.3400 C   0  0  0  0  0  0  0  0  0  0  0  0
    5.6400    1.2020   -4.2400 C   0  0  0  0  0  0  0  0  0  0  0  0
    4.5870    1.9340   -3.7860 C   0  0  0  0  0  0  0  0  0  0  0  0
    4.4180    2.0720   -2.3990 C   0  0  0  0  0  0  0  0  0  0  0  0
    5.2640    1.5020   -1.4870 C   0  0  0  0  0  0  0  0  0  0  0  0
    5.0330    1.5860   -0.0970 N   0  0  0  0  0  0  0  0  0  0  0  0
    4.1840    2.5100    0.5560 C   0  0  0  0  0  0  0  0  0  0  0  0
    3.5640    3.3610   -0.0820 O   0  0  0  0  0  0  0  0  0  0  0  0
    4.0470    2.4430    2.0290 C   0  0  2  0  0  0  0  0  0  0  0  0
    5.4180    2.5100    2.6430 C   0  0  0  0  0  0  0  0  0  0  0  0
    3.3120    1.1540    2.3460 C   0  0  0  0  0  0  0  0  0  0  0  0
    3.0960    0.9450    3.8060 C   0  0  0  0  0  0  0  0  0  0  0  0
    2.3670   -0.3150    4.1120 C   0  0  0  0  0  0  0  0  0  0  0  0
    0.9900   -0.2790    3.5170 C   0  0  0  0  0  0  0  0  0  0  0  0
    0.6060    0.8170    3.0710 O   0  0  0  0  0  0  0  0  0  0  0  0
    0.1870   -1.4390    3.4730 N   0  0  0  0  0  0  0  0  0  0  0  0
   -1.1010   -1.5160    2.9130 C   0  0  0  0  0  0  0  0  0  0  0  0
   -1.3380   -1.3850    1.4710 C   0  0  2  0  0  0  0  0  0  0  0  0
   -1.0840   -0.1350    0.7300 C   0  0  0  0  0  0  0  0  0  0  0  0
   -2.2380    0.7300    1.2590 C   0  0  0  0  0  0  0  0  0  0  0  0
   -3.2700   -0.2840    1.6030 C   0  0  1  0  0  0  0  0  0  0  0  0
   -4.5400   -0.0740    0.8370 C   0  0  0  0  0  0  0  0  0  0  0  0
   -5.1790    0.9960    0.9720 O   0  0  0  0  0  0  0  0  0  0  0  0
   -5.0690   -1.0090   -0.0370 O   0  0  0  0  0  0  0  0  0  0  0  0
   -6.2410   -0.8440   -0.7630 C   0  0  1  0  0  0  0  0  0  0  0  0
   -6.0330   -0.7400   -2.2600 C   0  0  0  0  0  0  0  0  0  0  0  0
   -7.5360    0.1320   -2.8730 S   0  0  0  0  0  0  0  0  0  0  0  0
   -8.7530   -0.0370   -1.5080 C   0  0  1  0  0  0  0  0  0  0  0  0
  -10.1530    0.2130   -2.0290 C   0  0  0  0  0  0  0  0  0  0  0  0
   -8.6640   -1.4500   -1.0140 C   0  0  1  0  0  0  0  0  0  0  0  0
   -9.0630   -2.3750   -2.1450 C   0  0  0  0  0  0  0  0  0  0  0  0
   -7.3080   -1.8530   -0.5270 C   0  0  0  0  0  0  0  0  0  0  0  0
   -2.7700   -1.5180    1.3260 O   0  0  0  0  0  0  0  0  0  0  0  0
  1  2  1  0
  2  3  1  0
  3  4  2  0
  3  5  1  0
  5  6  1  0
  6  7  2  0
  6 11  1  0
  7  8  1  0
  8  9  2  0
  9 10  1  0
 10 11  2  0
 11 12  1  0
 12 13  1  0
 13 14  2  0
 13 15  1  0
 15 16  1  1
 15 17  1  0
 17 18  1  0
 18 19  1  0
 19 20  1  0
 20 21  2  0
 20 22  1  0
 22 23  1  0
 24 23  1  1
 24 25  1  0
 24 39  1  0
 25 26  1  0
 26 27  1  0
 27 28  1  6
 27 39  1  0
 28 29  2  0
 28 30  1  0
 31 30  1  1
 31 32  1  0
 31 38  1  0
 32 33  1  0
 33 34  1  0
 34 35  1  6
 34 36  1  0
 36 37  1  6
 36 38  1  0
M  END
