
     RDKit          3D

 39 42  0  0  0  0  0  0  0  0999 V2000
   -3.6780   -2.6350   -1.9610 C   0  0  0  0  0  0  0  0  0  0  0  0
   -2.6180   -1.7280   -2.5430 C   0  0  0  0  0  0  0  0  0  0  0  0
   -1.3730   -1.8100   -1.6420 C   0  0  1  0  0  0  0  0  0  0  0  0
   -0.9630   -3.2760   -1.6750 C   0  0  0  0  0  0  0  0  0  0  0  0
    0.4840   -3.2850   -2.1170 C   0  0  0  0  0  0  0  0  0  0  0  0
    0.6390   -2.0430   -2.9640 C   0  0  0  0  0  0  0  0  0  0  0  0
   -0.2230   -1.0630   -2.2650 C   0  0  2  0  0  0  0  0  0  0  0  0
    0.3780   -0.2530   -1.2590 N   0  0  0  0  0  0  0  0  0  0  0  0
    1.6720   -0.2460   -0.7510 C   0  0  0  0  0  0  0  0  0  0  0  0
    2.5630   -1.0280   -1.1410 O   0  0  0  0  0  0  0  0  0  0  0  0
    2.1030    0.7220    0.3240 C   0  0  0  0  0  0  0  0  0  0  0  0
    3.4780    0.5450    0.6940 N   0  0  0  0  0  0  0  0  0  0  0  0
    3.8190   -0.3620    1.7610 C   0  0  0  0  0  0  0  0  0  0  0  0
    2.9460   -1.0120    2.3870 O   0  0  0  0  0  0  0  0  0  0  0  0
    5.1740   -0.5490    2.1390 N   0  0  0  0  0  0  0  0  0  0  0  0
    6.2540    0.1280    1.5080 C   0  0  0  0  0  0  0  0  0  0  0  0
    7.4200   -0.0950    1.8960 O   0  0  0  0  0  0  0  0  0  0  0  0
    5.9730    1.0570    0.4260 C   0  0  0  0  0  0  0  0  0  0  0  0
    6.8830    1.7450   -0.1940 C   0  0  0  0  0  0  0  0  0  0  0  0
    8.2860    1.7190    0.0730 C   0  0  0  0  0  0  0  0  0  0  0  0
    9.0480    1.9430    1.1940 C   0  0  0  0  0  0  0  0  0  0  0  0
   10.3680    1.8040    1.1210 C   0  0  0  0  0  0  0  0  0  0  0  0
   10.9820    1.4480   -0.0370 C   0  0  0  0  0  0  0  0  0  0  0  0
    9.5260    1.2840   -1.1720 S   0  0  0  0  0  0  0  0  0  0  0  0
    4.5430    1.2220    0.0620 C   0  0  0  0  0  0  0  0  0  0  0  0
    4.2740    2.0300   -0.8850 O   0  0  0  0  0  0  0  0  0  0  0  0
   -0.5570    0.7300   -0.6670 C   0  0  0  0  0  0  0  0  0  0  0  0
   -1.4770   -0.0840    0.2270 C   0  0  1  0  0  0  0  0  0  0  0  0
   -2.6660    0.7990    0.5120 C   0  0  0  0  0  0  0  0  0  0  0  0
   -3.7020    0.2080    1.3950 C   0  0  0  0  0  0  0  0  0  0  0  0
   -4.8500    1.1440    1.6230 C   0  0  2  0  0  0  0  0  0  0  0  0
   -4.4500    2.4770    2.2120 C   0  0  0  0  0  0  0  0  0  0  0  0
   -5.6550    0.4900    2.8320 C   0  0  0  0  0  0  0  0  0  0  0  0
   -4.8670    0.3860    3.9360 O   0  0  0  0  0  0  0  0  0  0  0  0
   -5.8880    1.2350    0.5820 C   0  0  0  0  0  0  0  0  0  0  0  0
   -5.5300    1.6440   -0.7900 C   0  0  0  0  0  0  0  0  0  0  0  0
   -6.7700    1.6840   -1.5110 O   0  0  0  0  0  0  0  0  0  0  0  0
   -1.7480   -1.4370   -0.2660 C   0  0  2  0  0  0  0  0  0  0  0  0
   -1.1550   -2.3810    0.6150 O   0  0  0  0  0  0  0  0  0  0  0  0
  1  2  1  0
  3  2  1  6
  3  4  1  0
  3  7  1  0
  3 38  1  0
  4  5  1  0
  5  6  1  0
  7  6  1  1
  7  8  1  0
  8  9  1  0
  8 27  1  0
  9 10  2  0
  9 11  1  0
 11 12  1  0
 12 13  1  0
 12 25  1  0
 13 14  2  0
 13 15  1  0
 15 16  1  0
 16 17  2  0
 16 18  1  0
 18 19  2  3
 18 25  1  0
 19 20  1  0
 20 21  2  0
 20 24  1  0
 21 22  1  0
 22 23  2  0
 23 24  1  0
 25 26  2  0
 27 28  1  0
 28 29  1  6
 28 38  1  0
 29 30  1  0
 30 31  1  0
 31 32  1  1
 31 33  1  0
 31 35  1  0
 33 34  1  0
 35 36  1  0
 36 37  1  0
 38 39  1  1
M  END
