
     RDKit          3D

 43 46  0  0  0  0  0  0  0  0999 V2000
   -7.5900   -0.8240   -1.0220 C   0  0  0  0  0  0  0  0  0  0  0  0
   -7.2110   -1.0620    0.4110 C   0  0  0  0  0  0  0  0  0  0  0  0
   -6.0070   -0.3580    0.8050 N   0  0  0  0  0  0  0  0  0  0  0  0
   -6.1200    1.0100    0.3440 C   0  0  1  0  0  0  0  0  0  0  0  0
   -7.3260    1.7100    0.9700 C   0  0  0  0  0  0  0  0  0  0  0  0
   -6.8570    2.8460    1.5830 O   0  0  0  0  0  0  0  0  0  0  0  0
   -5.6880    3.2300    0.8840 C   0  0  2  0  0  0  0  0  0  0  0  0
   -6.0920    3.6800   -0.3440 O   0  0  0  0  0  0  0  0  0  0  0  0
   -5.0960    3.7970   -1.2830 C   0  0  0  0  0  0  0  0  0  0  0  0
   -4.3500    2.5040   -1.5170 C   0  0  0  0  0  0  0  0  0  0  0  0
   -3.8710    1.9970   -0.1970 C   0  0  2  0  0  0  0  0  0  0  0  0
   -3.1220    0.8080   -0.2970 O   0  0  0  0  0  0  0  0  0  0  0  0
   -1.7890    0.7220    0.0740 C   0  0  0  0  0  0  0  0  0  0  0  0
   -1.2210    1.7480    0.5210 O   0  0  0  0  0  0  0  0  0  0  0  0
   -1.0250   -0.4780   -0.0250 N   0  0  0  0  0  0  0  0  0  0  0  0
    0.3690   -0.5400    0.3710 C   0  0  1  0  0  0  0  0  0  0  0  0
    0.5010   -1.4380    1.5740 C   0  0  0  0  0  0  0  0  0  0  0  0
    0.0510   -2.8130    1.3610 C   0  0  0  0  0  0  0  0  0  0  0  0
   -1.2950   -3.0990    1.5710 C   0  0  0  0  0  0  0  0  0  0  0  0
   -1.7480   -4.3700    1.3920 C   0  0  0  0  0  0  0  0  0  0  0  0
   -0.9260   -5.4240    1.0030 C   0  0  0  0  0  0  0  0  0  0  0  0
    0.3960   -5.1190    0.8020 C   0  0  0  0  0  0  0  0  0  0  0  0
    0.8740   -3.8360    0.9780 C   0  0  0  0  0  0  0  0  0  0  0  0
    1.2790   -0.9390   -0.7630 C   0  0  2  0  0  0  0  0  0  0  0  0
    0.9520   -2.1750   -1.2510 O   0  0  0  0  0  0  0  0  0  0  0  0
    2.7170   -0.7800   -0.3400 C   0  0  0  0  0  0  0  0  0  0  0  0
    3.6820   -0.9770   -1.3540 N   0  0  0  0  0  0  0  0  0  0  0  0
    3.8990   -2.2700   -1.8510 C   0  0  0  0  0  0  0  0  0  0  0  0
    5.1680   -2.8680   -1.3140 C   0  0  2  0  0  0  0  0  0  0  0  0
    5.1610   -2.9730    0.2080 C   0  0  0  0  0  0  0  0  0  0  0  0
    6.4250   -2.1270   -1.6780 C   0  0  0  0  0  0  0  0  0  0  0  0
    4.0380    0.3550   -2.3180 S   0  0  1  0  0  0  0  0  0  0  0  0
    5.0760    0.0270   -3.3490 O   0  0  0  0  0  0  0  0  0  0  0  0
    2.8150    0.9180   -3.0160 O   0  0  0  0  0  0  0  0  0  0  0  0
    4.7000    1.6430   -1.3100 C   0  0  0  0  0  0  0  0  0  0  0  0
    3.7980    2.5120   -0.6910 C   0  0  0  0  0  0  0  0  0  0  0  0
    4.2710    3.5360    0.1010 C   0  0  0  0  0  0  0  0  0  0  0  0
    5.6140    3.7530    0.3200 C   0  0  0  0  0  0  0  0  0  0  0  0
    6.0400    4.8050    1.1310 O   0  0  0  0  0  0  0  0  0  0  0  0
    7.3880    5.0720    1.3870 C   0  0  0  0  0  0  0  0  0  0  0  0
    6.4850    2.8840   -0.3010 C   0  0  0  0  0  0  0  0  0  0  0  0
    6.0340    1.8370   -1.1090 C   0  0  0  0  0  0  0  0  0  0  0  0
   -4.9930    1.8780    0.7910 C   0  0  2  0  0  0  0  0  0  0  0  0
  1  2  1  0
  2  3  1  0
  4  3  1  1
  4  5  1  0
 43  4  1  6
  5  6  1  0
  7  6  1  1
  7  8  1  0
  7 43  1  0
  8  9  1  0
  9 10  1  0
 10 11  1  0
 11 12  1  6
 11 43  1  0
 12 13  1  0
 13 14  2  0
 13 15  1  0
 15 16  1  0
 16 17  1  1
 16 24  1  0
 17 18  1  0
 18 19  2  0
 18 23  1  0
 19 20  1  0
 20 21  2  0
 21 22  1  0
 22 23  2  0
 24 25  1  1
 24 26  1  0
 26 27  1  0
 27 28  1  0
 32 27  1  1
 28 29  1  0
 29 30  1  1
 29 31  1  0
 32 33  2  0
 32 34  2  0
 32 35  1  0
 35 36  2  0
 35 42  1  0
 36 37  1  0
 37 38  2  0
 38 39  1  0
 38 41  1  0
 39 40  1  0
 41 42  2  0
M  CHG  1   3   1
M  END
