
     RDKit          3D

 19 21  0  0  0  0  0  0  0  0999 V2000
    6.2690    0.4840    0.2900 C   0  0  0  0  0  0  0  0  0  0  0  0
    5.6220   -0.4370   -0.7000 C   0  0  0  0  0  0  0  0  0  0  0  0
    4.1080   -0.2210   -0.7140 C   0  0  0  0  0  0  0  0  0  0  0  0
    3.4040   -0.5510    0.9260 S   0  0  0  0  0  0  0  0  0  0  0  0
    1.6500   -0.2790    0.8250 C   0  0  0  0  0  0  0  0  0  0  0  0
    0.8180   -1.2750    0.4910 N   0  0  0  0  0  0  0  0  0  0  0  0
   -0.5160   -1.1090    0.4050 C   0  0  0  0  0  0  0  0  0  0  0  0
   -1.0210    0.1630    0.6810 C   0  0  0  0  0  0  0  0  0  0  0  0
   -2.3040    0.6550    0.6770 C   0  0  0  0  0  0  0  0  0  0  0  0
   -3.5290   -0.0140    0.4150 N   0  0  0  0  0  0  0  0  0  0  0  0
   -3.8480   -1.3870    0.3390 C   0  0  0  0  0  0  0  0  0  0  0  0
   -4.9330   -1.5450   -0.4380 C   0  0  0  0  0  0  0  0  0  0  0  0
   -5.6540   -3.0900   -0.7910 Cl  0  0  0  0  0  0  0  0  0  0  0  0
   -5.3810   -0.2220   -0.8950 C   0  0  0  0  0  0  0  0  0  0  0  0
   -4.8000    0.6920    0.1800 C   0  0  0  0  0  0  0  0  0  0  0  0
   -2.1830    1.9680    1.0180 N   0  0  0  0  0  0  0  0  0  0  0  0
   -0.9270    2.2860    1.2230 N   0  0  0  0  0  0  0  0  0  0  0  0
   -0.1810    1.1950    1.0240 C   0  0  0  0  0  0  0  0  0  0  0  0
    1.1500    0.9360    1.0870 N   0  0  0  0  0  0  0  0  0  0  0  0
  1  2  1  0
  2  3  1  0
  3  4  1  0
  4  5  1  0
  5  6  2  0
  5 19  1  0
  6  7  1  0
  7  8  2  0
  8  9  1  0
  8 18  1  0
  9 10  1  0
  9 16  2  0
 10 11  1  0
 10 15  1  0
 11 12  2  0
 12 13  1  0
 12 14  1  0
 14 15  1  0
 16 17  1  0
 17 18  1  0
 18 19  2  0
M  END
