
     RDKit          3D

 19 21  0  0  0  0  0  0  0  0999 V2000
   -4.7490    1.2660    0.9290 C   0  0  0  0  0  0  0  0  0  0  0  0
   -3.4320    0.5830    0.8910 C   0  0  0  0  0  0  0  0  0  0  0  0
   -3.0550   -0.4170    0.0540 C   0  0  0  0  0  0  0  0  0  0  0  0
   -1.7750   -0.7450    0.3610 N   0  0  0  0  0  0  0  0  0  0  0  0
   -0.9800   -1.7680   -0.2860 C   0  0  0  0  0  0  0  0  0  0  0  0
   -0.2190   -1.2580   -1.4400 C   0  0  0  0  0  0  0  0  0  0  0  0
    0.9190   -0.5510   -1.4300 C   0  0  0  0  0  0  0  0  0  0  0  0
    1.8320   -0.0780   -0.3920 C   0  0  0  0  0  0  0  0  0  0  0  0
    1.9050   -0.2580    0.9570 C   0  0  0  0  0  0  0  0  0  0  0  0
    2.9010    0.3170    1.6340 C   0  0  0  0  0  0  0  0  0  0  0  0
    3.8100    1.0630    0.9580 C   0  0  0  0  0  0  0  0  0  0  0  0
    5.0140    1.8070    1.4790 C   0  0  0  0  0  0  0  0  0  0  0  0
    3.2390    0.9490   -0.6860 S   0  0  0  0  0  0  0  0  0  0  0  0
    1.2010   -0.2980   -2.7530 N   0  0  0  0  0  0  0  0  0  0  0  0
    0.2830   -0.8250   -3.5160 N   0  0  0  0  0  0  0  0  0  0  0  0
   -0.6380   -1.4420   -2.7700 C   0  0  0  0  0  0  0  0  0  0  0  0
   -2.0400   -2.2800   -3.3720 Cl  0  0  0  0  0  0  0  0  0  0  0  0
   -1.4060    0.0230    1.3350 N   0  0  0  0  0  0  0  0  0  0  0  0
   -2.3820    0.8370    1.6800 N   0  0  0  0  0  0  0  0  0  0  0  0
  1  2  1  0
  2  3  2  0
  2 19  1  0
  3  4  1  0
  4  5  1  0
  4 18  1  0
  5  6  1  0
  6  7  1  0
  6 16  2  0
  7  8  1  0
  7 14  2  0
  8  9  2  0
  8 13  1  0
  9 10  1  0
 10 11  2  0
 11 12  1  0
 11 13  1  0
 14 15  1  0
 15 16  1  0
 16 17  1  0
 18 19  2  0
M  END
