
     RDKit          3D

 19 21  0  0  0  0  0  0  0  0999 V2000
   -1.4810    3.2710   -1.7130 C   0  0  0  0  0  0  0  0  0  0  0  0
   -1.3010    1.9800   -0.9370 C   0  0  0  0  0  0  0  0  0  0  0  0
   -0.3040    1.8210   -0.0740 N   0  0  0  0  0  0  0  0  0  0  0  0
   -0.0940    0.7020    0.6450 C   0  0  0  0  0  0  0  0  0  0  0  0
    1.2260    0.5650    1.8160 S   0  0  0  0  0  0  0  0  0  0  0  0
    2.7480    0.2610    0.9520 C   0  0  0  0  0  0  0  0  0  0  0  0
    3.5420    1.3320    0.5010 C   0  0  0  0  0  0  0  0  0  0  0  0
    4.6250    0.8070   -0.1130 N   0  0  0  0  0  0  0  0  0  0  0  0
    4.5650   -0.5310   -0.0790 C   0  0  0  0  0  0  0  0  0  0  0  0
    3.3780   -0.8650    0.5950 C   0  0  0  0  0  0  0  0  0  0  0  0
    2.9320   -2.5180    0.8640 Cl  0  0  0  0  0  0  0  0  0  0  0  0
   -0.9780   -0.3490    0.4760 C   0  0  0  0  0  0  0  0  0  0  0  0
   -1.1540   -1.5820    1.0070 C   0  0  0  0  0  0  0  0  0  0  0  0
   -0.3190   -2.2050    2.0710 C   0  0  0  0  0  0  0  0  0  0  0  0
   -2.2560   -2.1280    0.4380 N   0  0  0  0  0  0  0  0  0  0  0  0
   -2.7980   -1.3130   -0.4250 N   0  0  0  0  0  0  0  0  0  0  0  0
   -3.9710   -1.4610   -1.2610 C   0  0  0  0  0  0  0  0  0  0  0  0
   -2.0420   -0.1920   -0.4360 C   0  0  0  0  0  0  0  0  0  0  0  0
   -2.1560    0.9680   -1.1050 N   0  0  0  0  0  0  0  0  0  0  0  0
  1  2  1  0
  2  3  2  0
  2 19  1  0
  3  4  1  0
  4  5  1  0
  4 12  2  0
  5  6  1  0
  6  7  2  0
  6 10  1  0
  7  8  1  0
  8  9  1  0
  9 10  2  0
 10 11  1  0
 12 13  1  0
 12 18  1  0
 13 14  1  0
 13 15  2  0
 15 16  1  0
 16 17  1  0
 16 18  1  0
 18 19  2  0
M  END
