
     RDKit          3D

 19 21  0  0  0  0  0  0  0  0999 V2000
    2.3590    2.2350    0.6240 Cl  0  0  0  0  0  0  0  0  0  0  0  0
    3.5420    0.9320    0.4460 C   0  0  0  0  0  0  0  0  0  0  0  0
    4.8970    1.1600    0.5540 C   0  0  0  0  0  0  0  0  0  0  0  0
    5.7900    0.1550    0.4170 N   0  0  0  0  0  0  0  0  0  0  0  0
    5.4010   -1.1080    0.1690 C   0  0  0  0  0  0  0  0  0  0  0  0
    4.0440   -1.3470    0.0590 C   0  0  0  0  0  0  0  0  0  0  0  0
    3.1190   -0.3510    0.1930 C   0  0  0  0  0  0  0  0  0  0  0  0
    1.6530   -0.6330    0.0700 C   0  0  0  0  0  0  0  0  0  0  0  0
    1.2700   -1.9520   -0.1920 N   0  0  0  0  0  0  0  0  0  0  0  0
   -0.5510   -1.7910   -0.2490 S   0  0  0  0  0  0  0  0  0  0  0  0
   -0.5030   -0.0030    0.0830 C   0  0  0  0  0  0  0  0  0  0  0  0
   -1.6510    0.8240    0.1850 N   0  0  0  0  0  0  0  0  0  0  0  0
   -2.9870    0.4690    0.0270 C   0  0  0  0  0  0  0  0  0  0  0  0
   -3.4380   -0.6430   -0.5980 C   0  0  0  0  0  0  0  0  0  0  0  0
   -4.7990   -0.9020   -0.6650 C   0  0  0  0  0  0  0  0  0  0  0  0
   -5.7130   -0.0730   -0.1220 N   0  0  0  0  0  0  0  0  0  0  0  0
   -5.2880    1.0410    0.5040 C   0  0  0  0  0  0  0  0  0  0  0  0
   -3.9570    1.3270    0.5900 C   0  0  0  0  0  0  0  0  0  0  0  0
    0.6900    0.2060    0.1780 N   0  0  0  0  0  0  0  0  0  0  0  0
  1  2  1  0
  2  3  2  0
  2  7  1  0
  3  4  1  0
  4  5  2  0
  5  6  1  0
  6  7  2  0
  7  8  1  0
  8  9  2  0
  8 19  1  0
  9 10  1  0
 10 11  1  0
 11 12  1  0
 11 19  2  0
 12 13  1  0
 13 14  2  0
 13 18  1  0
 14 15  1  0
 15 16  2  0
 16 17  1  0
 17 18  2  0
M  END
