
     RDKit          3D

 19 21  0  0  0  0  0  0  0  0999 V2000
    6.2820    0.4310   -1.0570 Cl  0  0  0  0  0  0  0  0  0  0  0  0
    4.5400    0.2920   -0.7680 C   0  0  0  0  0  0  0  0  0  0  0  0
    3.7930    1.4240   -0.6090 C   0  0  0  0  0  0  0  0  0  0  0  0
    2.4440    1.4260   -0.3810 C   0  0  0  0  0  0  0  0  0  0  0  0
    1.7980    0.1660   -0.3090 C   0  0  0  0  0  0  0  0  0  0  0  0
    0.4090    0.1400   -0.0970 N   0  0  0  0  0  0  0  0  0  0  0  0
   -0.3480   -0.9340    0.3720 C   0  0  0  0  0  0  0  0  0  0  0  0
    0.2630   -2.1300    0.6440 N   0  0  0  0  0  0  0  0  0  0  0  0
   -0.4320   -3.1690    1.0600 N   0  0  0  0  0  0  0  0  0  0  0  0
   -1.7560   -3.1100    1.2370 C   0  0  0  0  0  0  0  0  0  0  0  0
   -2.3650   -1.9520    0.9770 N   0  0  0  0  0  0  0  0  0  0  0  0
   -1.6910   -0.8610    0.5490 C   0  0  0  0  0  0  0  0  0  0  0  0
   -2.4360    0.3980    0.2740 C   0  0  0  0  0  0  0  0  0  0  0  0
   -3.4980    0.4850   -0.5120 C   0  0  0  0  0  0  0  0  0  0  0  0
   -4.1480    1.7240   -0.6560 C   0  0  0  0  0  0  0  0  0  0  0  0
   -3.1750    2.7950    0.3930 S   0  0  0  0  0  0  0  0  0  0  0  0
   -2.0150    1.5740    0.9320 C   0  0  0  0  0  0  0  0  0  0  0  0
    2.5860   -0.9400   -0.4750 C   0  0  0  0  0  0  0  0  0  0  0  0
    3.9290   -0.8830   -0.6990 N   0  0  0  0  0  0  0  0  0  0  0  0
  1  2  1  0
  2  3  2  0
  2 19  1  0
  3  4  1  0
  4  5  2  0
  5  6  1  0
  5 18  1  0
  6  7  1  0
  7  8  2  0
  7 12  1  0
  8  9  1  0
  9 10  2  0
 10 11  1  0
 11 12  2  0
 12 13  1  0
 13 14  1  0
 13 17  2  0
 14 15  2  0
 15 16  1  0
 16 17  1  0
 18 19  2  0
M  END
