
     RDKit          3D

 19 21  0  0  0  0  0  0  0  0999 V2000
    3.8850   -0.0150    1.8960 C   0  0  0  0  0  0  0  0  0  0  0  0
    3.1370   -0.3420    0.6500 C   0  0  0  0  0  0  0  0  0  0  0  0
    2.1080   -0.3390    0.1700 N   0  0  0  0  0  0  0  0  0  0  0  0
    1.7100   -0.7120   -1.0370 C   0  0  0  0  0  0  0  0  0  0  0  0
    0.2970   -0.6600   -1.5620 C   0  0  0  0  0  0  0  0  0  0  0  0
   -0.6630   -0.2350   -0.6060 N   0  0  0  0  0  0  0  0  0  0  0  0
   -0.8490   -1.0060    0.5720 C   0  0  0  0  0  0  0  0  0  0  0  0
   -2.0450   -1.3040    1.0400 C   0  0  0  0  0  0  0  0  0  0  0  0
   -1.9250   -2.1050    2.2590 C   0  0  0  0  0  0  0  0  0  0  0  0
   -0.4880   -2.2100    2.4020 N   0  0  0  0  0  0  0  0  0  0  0  0
    0.0820   -1.5930    1.4550 N   0  0  0  0  0  0  0  0  0  0  0  0
   -1.4580    0.9520   -0.7820 C   0  0  0  0  0  0  0  0  0  0  0  0
   -2.6830    1.0990   -0.4120 N   0  0  0  0  0  0  0  0  0  0  0  0
   -3.2040    2.4090   -0.7300 C   0  0  0  0  0  0  0  0  0  0  0  0
   -2.0700    3.0700   -1.3750 C   0  0  0  0  0  0  0  0  0  0  0  0
   -1.0750    2.2080   -1.3920 C   0  0  0  0  0  0  0  0  0  0  0  0
    0.4980    2.5390   -2.0640 Cl  0  0  0  0  0  0  0  0  0  0  0  0
    2.7160   -1.1720   -1.8190 C   0  0  0  0  0  0  0  0  0  0  0  0
    4.1810   -1.0500   -0.7950 S   0  0  0  0  0  0  0  0  0  0  0  0
  1  2  1  0
  2  3  2  0
  2 19  1  0
  3  4  1  0
  4  5  1  0
  4 18  2  0
  5  6  1  0
  6  7  1  0
  6 12  1  0
  7  8  2  0
  7 11  1  0
  8  9  1  0
  9 10  1  0
 10 11  2  0
 12 13  2  0
 12 16  1  0
 13 14  1  0
 14 15  1  0
 15 16  2  0
 16 17  1  0
 18 19  1  0
M  END
