
     RDKit          3D

 19 21  0  0  0  0  0  0  0  0999 V2000
    5.4280    0.5670    1.8780 C   0  0  0  0  0  0  0  0  0  0  0  0
    4.1710    0.4810    1.0730 C   0  0  0  0  0  0  0  0  0  0  0  0
    3.9040    0.5260   -0.1120 N   0  0  0  0  0  0  0  0  0  0  0  0
    2.7520    0.4460   -0.7240 C   0  0  0  0  0  0  0  0  0  0  0  0
    2.4770    0.3450   -2.1910 C   0  0  0  0  0  0  0  0  0  0  0  0
    1.6420    0.2920    0.2050 C   0  0  0  0  0  0  0  0  0  0  0  0
    0.2510    0.3780   -0.1200 C   0  0  0  0  0  0  0  0  0  0  0  0
   -0.5310   -0.7980    0.0280 N   0  0  0  0  0  0  0  0  0  0  0  0
   -1.9310   -0.8770   -0.1930 C   0  0  0  0  0  0  0  0  0  0  0  0
   -2.4000   -2.0360   -0.8290 C   0  0  0  0  0  0  0  0  0  0  0  0
   -3.7180   -2.2100   -1.0330 C   0  0  0  0  0  0  0  0  0  0  0  0
   -4.2900   -3.6700   -1.8830 Cl  0  0  0  0  0  0  0  0  0  0  0  0
   -4.6210   -1.2860   -0.6430 N   0  0  0  0  0  0  0  0  0  0  0  0
   -4.1300   -0.1850   -0.0290 C   0  0  0  0  0  0  0  0  0  0  0  0
   -4.8080    0.9250    0.5460 C   0  0  0  0  0  0  0  0  0  0  0  0
   -3.8630    1.7380    1.0900 C   0  0  0  0  0  0  0  0  0  0  0  0
   -2.6650    1.1660    0.8590 N   0  0  0  0  0  0  0  0  0  0  0  0
   -2.8230    0.0140    0.1860 N   0  0  0  0  0  0  0  0  0  0  0  0
    2.5080    0.2950    1.7940 S   0  0  0  0  0  0  0  0  0  0  0  0
  1  2  1  0
  2  3  2  0
  2 19  1  0
  3  4  1  0
  4  5  1  0
  4  6  2  0
  6  7  1  0
  6 19  1  0
  7  8  1  0
  8  9  1  0
  9 10  2  0
  9 18  1  0
 10 11  1  0
 11 12  1  0
 11 13  2  0
 13 14  1  0
 14 15  2  0
 14 18  1  0
 15 16  1  0
 16 17  2  0
 17 18  1  0
M  END
