
     RDKit          3D

 19 21  0  0  0  0  0  0  0  0999 V2000
    4.4830   -1.9660    0.1550 C   0  0  0  0  0  0  0  0  0  0  0  0
    3.8260   -0.6420    0.0010 C   0  0  0  0  0  0  0  0  0  0  0  0
    4.3070    0.5820   -0.1260 N   0  0  0  0  0  0  0  0  0  0  0  0
    3.2960    1.4490   -0.1820 C   0  0  0  0  0  0  0  0  0  0  0  0
    3.1610    2.7740   -0.2400 N   0  0  0  0  0  0  0  0  0  0  0  0
    1.9980    3.4230   -0.2120 C   0  0  0  0  0  0  0  0  0  0  0  0
    0.8180    2.6980   -0.1090 C   0  0  0  0  0  0  0  0  0  0  0  0
   -0.7410    3.4210   -0.0820 Cl  0  0  0  0  0  0  0  0  0  0  0  0
    0.9430    1.2820   -0.0480 C   0  0  0  0  0  0  0  0  0  0  0  0
   -0.2620    0.6160    0.1540 N   0  0  0  0  0  0  0  0  0  0  0  0
   -0.7260   -0.6390   -0.3440 C   0  0  0  0  0  0  0  0  0  0  0  0
   -1.9860   -0.9130    0.4450 C   0  0  0  0  0  0  0  0  0  0  0  0
   -2.1140   -1.5640    2.0380 S   0  0  0  0  0  0  0  0  0  0  0  0
   -3.8930   -1.7250    2.0600 C   0  0  0  0  0  0  0  0  0  0  0  0
   -4.2420   -1.2510    0.8120 C   0  0  0  0  0  0  0  0  0  0  0  0
   -3.2930   -0.8400   -0.0120 C   0  0  0  0  0  0  0  0  0  0  0  0
   -3.5250   -0.1930   -1.3480 C   0  0  0  0  0  0  0  0  0  0  0  0
    2.1330    0.7500   -0.0890 N   0  0  0  0  0  0  0  0  0  0  0  0
    2.4770   -0.5300    0.0190 N   0  0  0  0  0  0  0  0  0  0  0  0
  1  2  1  0
  2  3  1  0
  2 19  2  0
  3  4  2  0
  4  5  1  0
  4 18  1  0
  5  6  2  0
  6  7  1  0
  7  8  1  0
  7  9  2  0
  9 10  1  0
  9 18  1  0
 10 11  1  0
 11 12  1  0
 12 13  1  0
 12 16  2  0
 13 14  1  0
 14 15  2  0
 15 16  1  0
 16 17  1  0
 18 19  1  0
M  END
