
     RDKit          3D

 19 21  0  0  0  0  0  0  0  0999 V2000
   -3.0210    3.4390   -0.0270 C   0  0  0  0  0  0  0  0  0  0  0  0
   -1.6270    3.0920   -0.1260 N   0  0  0  0  0  0  0  0  0  0  0  0
   -1.1560    1.7540   -0.0940 C   0  0  0  0  0  0  0  0  0  0  0  0
   -1.9910    0.7060    0.0330 N   0  0  0  0  0  0  0  0  0  0  0  0
   -1.5520   -0.5520    0.0630 C   0  0  0  0  0  0  0  0  0  0  0  0
   -2.5540   -1.6690    0.2080 C   0  0  0  0  0  0  0  0  0  0  0  0
   -2.1750   -2.9580    0.2440 C   0  0  0  0  0  0  0  0  0  0  0  0
   -3.0990   -3.9220    0.3740 C   0  0  0  0  0  0  0  0  0  0  0  0
   -4.6060   -3.0930    0.4600 S   0  0  0  0  0  0  0  0  0  0  0  0
   -3.9000   -1.4360    0.3110 C   0  0  0  0  0  0  0  0  0  0  0  0
   -4.8290    0.1110    0.3090 Cl  0  0  0  0  0  0  0  0  0  0  0  0
   -0.2420   -0.7730   -0.0360 N   0  0  0  0  0  0  0  0  0  0  0  0
    0.6440    0.2530   -0.1660 C   0  0  0  0  0  0  0  0  0  0  0  0
    2.0400    0.0190   -0.2720 N   0  0  0  0  0  0  0  0  0  0  0  0
    2.6660   -1.2820   -0.2550 C   0  0  0  0  0  0  0  0  0  0  0  0
    4.1300   -1.0070   -0.0800 C   0  0  0  0  0  0  0  0  0  0  0  0
    4.2300    0.4360    0.3110 C   0  0  0  0  0  0  0  0  0  0  0  0
    3.0390    1.0550   -0.4130 C   0  0  0  0  0  0  0  0  0  0  0  0
    0.1560    1.4980   -0.1920 N   0  0  0  0  0  0  0  0  0  0  0  0
  1  2  1  0
  2  3  1  0
  3  4  2  0
  3 19  1  0
  4  5  1  0
  5  6  1  0
  5 12  2  0
  6  7  1  0
  6 10  2  0
  7  8  2  0
  8  9  1  0
  9 10  1  0
 10 11  1  0
 12 13  1  0
 13 14  1  0
 13 19  2  0
 14 15  1  0
 14 18  1  0
 15 16  1  0
 16 17  1  0
 17 18  1  0
M  END
