
     RDKit          3D

 28 31  0  0  0  0  0  0  0  0999 V2000
   -3.0170    2.8230    0.3870 C   0  0  0  0  0  0  0  0  0  0  0  0
   -4.2050    2.5330   -0.4550 C   0  0  0  0  0  0  0  0  0  0  0  0
   -4.3860    1.1180   -0.8850 C   0  0  0  0  0  0  0  0  0  0  0  0
   -3.3860    0.5300   -1.6900 N   0  0  0  0  0  0  0  0  0  0  0  0
   -2.0120    0.4180   -1.5020 C   0  0  0  0  0  0  0  0  0  0  0  0
   -1.0850    1.3330   -1.9520 C   0  0  0  0  0  0  0  0  0  0  0  0
   -1.3370    2.5770   -2.7050 C   0  0  0  0  0  0  0  0  0  0  0  0
    0.1120    0.8950   -1.5970 N   0  0  0  0  0  0  0  0  0  0  0  0
    0.0200   -0.2490   -0.9430 N   0  0  0  0  0  0  0  0  0  0  0  0
    1.1820   -0.9460   -0.4420 C   0  0  0  0  0  0  0  0  0  0  0  0
    1.4350   -0.4200    0.9640 C   0  0  0  0  0  0  0  0  0  0  0  0
    2.6110   -1.0240    1.6000 C   0  0  0  0  0  0  0  0  0  0  0  0
    2.4680   -2.1470    2.3820 N   0  0  0  0  0  0  0  0  0  0  0  0
    3.6780   -2.4530    2.8210 C   0  0  0  0  0  0  0  0  0  0  0  0
    4.5230   -1.5480    2.3210 N   0  0  0  0  0  0  0  0  0  0  0  0
    3.8920   -0.6530    1.5620 N   0  0  0  0  0  0  0  0  0  0  0  0
    4.5170    0.4210    0.8510 C   0  0  0  0  0  0  0  0  0  0  0  0
    4.0560    1.2840   -0.0090 C   0  0  0  0  0  0  0  0  0  0  0  0
    5.1270    2.2160   -0.4630 C   0  0  0  0  0  0  0  0  0  0  0  0
    6.2810    1.7390    0.2910 C   0  0  0  0  0  0  0  0  0  0  0  0
    5.9460    0.7170    1.0430 C   0  0  0  0  0  0  0  0  0  0  0  0
   -1.3040   -0.5750   -0.8680 C   0  0  0  0  0  0  0  0  0  0  0  0
   -1.7720   -1.7740   -0.2310 N   0  0  0  0  0  0  0  0  0  0  0  0
   -2.6320   -1.8670    0.9270 C   0  0  0  0  0  0  0  0  0  0  0  0
   -2.6920   -3.3510    1.2460 C   0  0  0  0  0  0  0  0  0  0  0  0
   -1.6150   -4.0090    0.4510 C   0  0  0  0  0  0  0  0  0  0  0  0
   -1.4200   -3.0830   -0.6920 C   0  0  0  0  0  0  0  0  0  0  0  0
   -1.0180   -3.4550   -1.8230 O   0  0  0  0  0  0  0  0  0  0  0  0
  1  2  1  0
  2  3  1  0
  3  4  1  0
  4  5  1  0
  5  6  1  0
  5 22  2  0
  6  7  1  0
  6  8  2  0
  8  9  1  0
  9 10  1  0
  9 22  1  0
 10 11  1  0
 11 12  1  0
 12 13  2  0
 12 16  1  0
 13 14  1  0
 14 15  2  0
 15 16  1  0
 16 17  1  0
 17 18  2  0
 17 21  1  0
 18 19  1  0
 19 20  1  0
 20 21  2  0
 22 23  1  0
 23 24  1  0
 23 27  1  0
 24 25  1  0
 25 26  1  0
 26 27  1  0
 27 28  2  0
M  END
