
     RDKit          3D

 28 31  0  0  0  0  0  0  0  0999 V2000
    6.0630   -0.3270    0.1560 C   0  0  0  0  0  0  0  0  0  0  0  0
    4.7840    0.2120    0.5640 C   0  0  0  0  0  0  0  0  0  0  0  0
    4.9300    1.5070    0.9080 N   0  0  0  0  0  0  0  0  0  0  0  0
    3.4490    0.0310    0.7660 N   0  0  0  0  0  0  0  0  0  0  0  0
    2.7450   -1.1440    0.6190 C   0  0  0  0  0  0  0  0  0  0  0  0
    3.4930   -2.0760    0.2750 O   0  0  0  0  0  0  0  0  0  0  0  0
    1.3840   -1.2780    0.8370 N   0  0  0  0  0  0  0  0  0  0  0  0
    0.8880   -2.6320    0.7600 C   0  0  0  0  0  0  0  0  0  0  0  0
    0.5170   -0.1830    1.1230 C   0  0  0  0  0  0  0  0  0  0  0  0
   -0.1400    0.4750   -0.0390 C   0  0  2  0  0  0  0  0  0  0  0  0
   -1.0310   -0.4160   -0.8490 C   0  0  0  0  0  0  0  0  0  0  0  0
   -2.0800   -0.9440   -0.0290 N   0  0  0  0  0  0  0  0  0  0  0  0
   -3.0550   -0.0220    0.4210 C   0  0  0  0  0  0  0  0  0  0  0  0
   -4.3390   -0.0660   -0.4000 C   0  0  0  0  0  0  0  0  0  0  0  0
   -4.8860   -1.4380   -0.1560 C   0  0  0  0  0  0  0  0  0  0  0  0
   -6.0860   -1.9030    0.0740 C   0  0  0  0  0  0  0  0  0  0  0  0
   -6.0050   -3.3650    0.2390 C   0  0  0  0  0  0  0  0  0  0  0  0
   -4.5760   -3.6800    0.0710 C   0  0  0  0  0  0  0  0  0  0  0  0
   -3.9370   -2.5190   -0.1620 C   0  0  0  0  0  0  0  0  0  0  0  0
   -2.5160   -2.2370   -0.4100 C   0  0  0  0  0  0  0  0  0  0  0  0
    0.9070    1.1010   -0.9280 C   0  0  0  0  0  0  0  0  0  0  0  0
    1.7010    0.4910   -1.8200 N   0  0  0  0  0  0  0  0  0  0  0  0
    2.4840    1.3840   -2.4010 N   0  0  0  0  0  0  0  0  0  0  0  0
    2.2140    2.6050   -1.8960 C   0  0  0  0  0  0  0  0  0  0  0  0
    1.2440    2.4260   -0.9910 N   0  0  0  0  0  0  0  0  0  0  0  0
    0.8900    3.6820   -0.4010 C   0  0  0  0  0  0  0  0  0  0  0  0
    2.1010    4.5480   -0.6340 C   0  0  0  0  0  0  0  0  0  0  0  0
    2.5990    4.0500   -1.9790 C   0  0  0  0  0  0  0  0  0  0  0  0
  1  2  1  0
  2  3  2  0
  2  4  1  0
  4  5  1  0
  5  6  2  0
  5  7  1  0
  7  8  1  0
  7  9  1  0
 10  9  1  1
 10 11  1  0
 10 21  1  0
 11 12  1  0
 12 13  1  0
 12 20  1  0
 13 14  1  0
 14 15  1  0
 15 16  2  0
 15 19  1  0
 16 17  1  0
 17 18  1  0
 18 19  2  0
 19 20  1  0
 21 22  2  0
 21 25  1  0
 22 23  1  0
 23 24  2  0
 24 25  1  0
 24 28  1  0
 25 26  1  0
 26 27  1  0
 27 28  1  0
M  END
