
     RDKit          3D

 28 32  0  0  0  0  0  0  0  0999 V2000
   -9.8550    0.2410   -0.6120 C   0  0  0  0  0  0  0  0  0  0  0  0
   -9.0150    0.4360   -1.6310 C   0  0  0  0  0  0  0  0  0  0  0  0
   -7.5650    0.3110   -1.4600 C   0  0  0  0  0  0  0  0  0  0  0  0
   -6.8550    1.5030   -1.7600 O   0  0  0  0  0  0  0  0  0  0  0  0
   -5.4720    1.4540   -1.6180 C   0  0  0  0  0  0  0  0  0  0  0  0
   -4.6140    2.5040   -1.8620 C   0  0  0  0  0  0  0  0  0  0  0  0
   -3.3750    2.0340   -1.6040 N   0  0  0  0  0  0  0  0  0  0  0  0
   -3.4210    0.7710   -1.2210 N   0  0  0  0  0  0  0  0  0  0  0  0
   -2.3320   -0.0850   -0.8580 C   0  0  0  0  0  0  0  0  0  0  0  0
   -2.5380   -1.3040   -0.2480 C   0  0  0  0  0  0  0  0  0  0  0  0
   -1.5260   -2.1200    0.1000 N   0  0  0  0  0  0  0  0  0  0  0  0
   -0.2380   -1.8010   -0.1250 C   0  0  0  0  0  0  0  0  0  0  0  0
    0.0020   -0.5800   -0.7380 C   0  0  0  0  0  0  0  0  0  0  0  0
    1.3380   -0.2300   -0.9780 N   0  0  0  0  0  0  0  0  0  0  0  0
    2.4740   -1.0420   -0.6080 C   0  0  1  0  0  0  0  0  0  0  0  0
    3.7810   -0.4500   -0.9970 C   0  0  0  0  0  0  0  0  0  0  0  0
    4.4990   -0.4170    0.2810 N   0  0  0  0  0  0  0  0  0  0  0  0
    3.6510   -0.9430    1.2610 C   0  0  0  0  0  0  0  0  0  0  0  0
    2.5030   -1.3050    0.7950 N   0  0  0  0  0  0  0  0  0  0  0  0
    4.4120   -0.8970    2.5620 C   0  0  0  0  0  0  0  0  0  0  0  0
    5.7040   -0.3110    2.1710 C   0  0  0  0  0  0  0  0  0  0  0  0
    6.8200   -0.0290    2.9770 C   0  0  0  0  0  0  0  0  0  0  0  0
    7.9670    0.5300    2.4380 C   0  0  0  0  0  0  0  0  0  0  0  0
    7.9900    0.8040    1.0810 C   0  0  0  0  0  0  0  0  0  0  0  0
    6.9030    0.5350    0.2660 C   0  0  0  0  0  0  0  0  0  0  0  0
    5.7730   -0.0220    0.8330 C   0  0  0  0  0  0  0  0  0  0  0  0
   -1.0260    0.2770   -1.1040 C   0  0  0  0  0  0  0  0  0  0  0  0
   -4.6870    0.4310   -1.2330 N   0  0  0  0  0  0  0  0  0  0  0  0
  1  2  2  0
  2  3  1  0
  3  4  1  0
  4  5  1  0
  5  6  1  0
  5 28  2  0
  6  7  2  0
  7  8  1  0
  8  9  1  0
  8 28  1  0
  9 10  2  0
  9 27  1  0
 10 11  1  0
 11 12  2  0
 12 13  1  0
 13 14  1  0
 13 27  2  0
 15 14  1  1
 15 16  1  0
 15 19  1  0
 16 17  1  0
 17 18  1  0
 17 26  1  0
 18 19  2  0
 18 20  1  0
 20 21  1  0
 21 22  2  0
 21 26  1  0
 22 23  1  0
 23 24  2  0
 24 25  1  0
 25 26  2  0
M  END
