
     RDKit          3D

 28 31  0  0  0  0  0  0  0  0999 V2000
    7.3640    0.2850   -0.8080 C   0  0  0  0  0  0  0  0  0  0  0  0
    6.3990    1.0810   -1.2580 C   0  0  0  0  0  0  0  0  0  0  0  0
    4.9840    0.7950   -0.9370 C   0  0  0  0  0  0  0  0  0  0  0  0
    4.2540    0.5940   -2.1540 N   0  0  0  0  0  0  0  0  0  0  0  0
    2.8640    0.3040   -1.9800 C   0  0  0  0  0  0  0  0  0  0  0  0
    2.6440   -1.0630   -1.3410 C   0  0  0  0  0  0  0  0  0  0  0  0
    1.2390   -1.3470   -1.1710 N   0  0  0  0  0  0  0  0  0  0  0  0
    0.4740   -1.9600   -2.0660 C   0  0  0  0  0  0  0  0  0  0  0  0
   -0.7890   -2.0850   -1.6240 N   0  0  0  0  0  0  0  0  0  0  0  0
   -0.8030   -1.5230   -0.3970 C   0  0  0  0  0  0  0  0  0  0  0  0
   -1.9580   -1.4440    0.4290 N   0  0  0  0  0  0  0  0  0  0  0  0
   -2.2860   -2.3560    1.3540 N   0  0  0  0  0  0  0  0  0  0  0  0
   -3.4290   -2.0100    1.9650 C   0  0  0  0  0  0  0  0  0  0  0  0
   -4.1250   -2.7610    3.0490 C   0  0  0  0  0  0  0  0  0  0  0  0
   -3.8050   -0.8140    1.3640 C   0  0  0  0  0  0  0  0  0  0  0  0
   -4.8730    0.0160    1.5590 C   0  0  0  0  0  0  0  0  0  0  0  0
   -4.9740    1.1320    0.8090 N   0  0  0  0  0  0  0  0  0  0  0  0
   -4.0740    1.4770   -0.1310 C   0  0  0  0  0  0  0  0  0  0  0  0
   -4.2420    2.7370   -0.9370 C   0  0  0  0  0  0  0  0  0  0  0  0
   -5.0490    2.3870   -2.1800 C   0  0  0  0  0  0  0  0  0  0  0  0
   -3.0190    0.6690   -0.3320 N   0  0  0  0  0  0  0  0  0  0  0  0
   -2.8840   -0.4570    0.4000 C   0  0  0  0  0  0  0  0  0  0  0  0
    0.4560   -1.0570   -0.0990 C   0  0  0  0  0  0  0  0  0  0  0  0
    0.9300   -0.3760    1.1020 C   0  0  0  0  0  0  0  0  0  0  0  0
    0.1880   -0.0560    2.2160 C   0  0  0  0  0  0  0  0  0  0  0  0
    1.0460    0.5840    3.1120 C   0  0  0  0  0  0  0  0  0  0  0  0
    2.2710    0.6120    2.4780 C   0  0  0  0  0  0  0  0  0  0  0  0
    2.1660    0.0430    1.3070 O   0  0  0  0  0  0  0  0  0  0  0  0
  1  2  2  0
  2  3  1  0
  3  4  1  0
  4  5  1  0
  5  6  1  0
  6  7  1  0
  7  8  1  0
  7 23  1  0
  8  9  2  0
  9 10  1  0
 10 11  1  0
 10 23  2  0
 11 12  1  0
 11 22  1  0
 12 13  2  0
 13 14  1  0
 13 15  1  0
 15 16  2  0
 15 22  1  0
 16 17  1  0
 17 18  2  0
 18 19  1  0
 18 21  1  0
 19 20  1  0
 21 22  2  0
 23 24  1  0
 24 25  2  0
 24 28  1  0
 25 26  1  0
 26 27  2  0
 27 28  1  0
M  END
