
     RDKit          3D

 28 32  0  0  0  0  0  0  0  0999 V2000
    7.5670    0.4530    2.0800 C   0  0  0  0  0  0  0  0  0  0  0  0
    6.5280   -0.3580    2.5110 C   0  0  0  0  0  0  0  0  0  0  0  0
    5.7840   -1.0760    1.6110 C   0  0  0  0  0  0  0  0  0  0  0  0
    6.0790   -0.9820    0.2810 C   0  0  0  0  0  0  0  0  0  0  0  0
    7.1130   -0.1750   -0.1420 C   0  0  0  0  0  0  0  0  0  0  0  0
    7.8800    0.5600    0.7410 C   0  0  0  0  0  0  0  0  0  0  0  0
    7.1330   -0.3150   -1.5190 C   0  0  0  0  0  0  0  0  0  0  0  0
    6.1500   -1.1670   -1.8570 N   0  0  0  0  0  0  0  0  0  0  0  0
    5.4950   -1.5880   -0.7930 N   0  0  0  0  0  0  0  0  0  0  0  0
    4.3670   -2.5130   -0.7230 C   0  0  0  0  0  0  0  0  0  0  0  0
    3.1130   -1.7220   -0.8240 C   0  0  0  0  0  0  0  0  0  0  0  0
    2.4020   -1.3610   -1.9040 N   0  0  0  0  0  0  0  0  0  0  0  0
    1.3250   -0.6440   -1.5370 C   0  0  0  0  0  0  0  0  0  0  0  0
    0.2880   -0.0590   -2.4260 C   0  0  0  0  0  0  0  0  0  0  0  0
   -0.7400    0.6690   -1.5940 C   0  0  0  0  0  0  0  0  0  0  0  0
   -1.7980    1.2660   -2.4880 C   0  0  0  0  0  0  0  0  0  0  0  0
   -2.8280    1.9780   -1.7780 N   0  0  0  0  0  0  0  0  0  0  0  0
   -3.7300    1.2840   -0.9190 C   0  0  0  0  0  0  0  0  0  0  0  0
   -3.9170   -0.0660   -0.7360 C   0  0  0  0  0  0  0  0  0  0  0  0
   -4.8800   -0.2160    0.1940 N   0  0  0  0  0  0  0  0  0  0  0  0
   -5.3150    0.9370    0.6110 N   0  0  0  0  0  0  0  0  0  0  0  0
   -6.3590    1.1690    1.6170 C   0  0  2  0  0  0  0  0  0  0  0  0
   -6.2490    0.2290    2.7910 C   0  0  0  0  0  0  0  0  0  0  0  0
   -7.1260   -0.7480    2.0180 C   0  0  0  0  0  0  0  0  0  0  0  0
   -7.6480    0.4470    1.2330 C   0  0  0  0  0  0  0  0  0  0  0  0
   -4.6410    1.8930   -0.0420 C   0  0  0  0  0  0  0  0  0  0  0  0
    1.4070   -0.5790   -0.1840 N   0  0  0  0  0  0  0  0  0  0  0  0
    2.4680   -1.2220    0.2020 O   0  0  0  0  0  0  0  0  0  0  0  0
  1  2  2  0
  1  6  1  0
  2  3  1  0
  3  4  2  0
  4  5  1  0
  4  9  1  0
  5  6  2  0
  5  7  1  0
  7  8  2  0
  8  9  1  0
  9 10  1  0
 10 11  1  0
 11 12  2  0
 11 28  1  0
 12 13  1  0
 13 14  1  0
 13 27  2  0
 14 15  1  0
 15 16  1  0
 16 17  1  0
 17 18  1  0
 18 19  1  0
 18 26  2  0
 19 20  2  0
 20 21  1  0
 22 21  1  6
 21 26  1  0
 22 23  1  0
 22 25  1  0
 23 24  1  0
 24 25  1  0
 27 28  1  0
M  END
