
     RDKit          3D

 28 32  0  0  0  0  0  0  0  0999 V2000
    6.1420   -0.6270   -2.9600 C   0  0  0  0  0  0  0  0  0  0  0  0
    5.1410   -1.0060   -1.9660 N   0  0  0  0  0  0  0  0  0  0  0  0
    5.2990   -1.1290   -0.6360 C   0  0  0  0  0  0  0  0  0  0  0  0
    4.0900   -1.5050   -0.0940 C   0  0  0  0  0  0  0  0  0  0  0  0
    3.9060   -1.7410    1.3630 C   0  0  0  0  0  0  0  0  0  0  0  0
    2.5490   -1.8260    1.7820 N   0  0  0  0  0  0  0  0  0  0  0  0
    1.6040   -0.7690    1.7630 C   0  0  0  0  0  0  0  0  0  0  0  0
    0.3100   -0.9870    2.1550 C   0  0  0  0  0  0  0  0  0  0  0  0
   -0.6580    0.0450    2.1610 C   0  0  0  0  0  0  0  0  0  0  0  0
   -1.9240   -0.2440    2.5650 O   0  0  0  0  0  0  0  0  0  0  0  0
   -3.0540    0.5170    2.6700 C   0  0  0  0  0  0  0  0  0  0  0  0
   -3.6590    1.1260    1.4650 C   0  0  1  0  0  0  0  0  0  0  0  0
   -3.0810    2.0900    0.5400 C   0  0  0  0  0  0  0  0  0  0  0  0
   -3.1070    0.6870    0.1100 C   0  0  2  0  0  0  0  0  0  0  0  0
   -4.1870    0.2050   -0.8180 C   0  0  0  0  0  0  0  0  0  0  0  0
   -5.3870    0.8690   -0.9130 C   0  0  0  0  0  0  0  0  0  0  0  0
   -6.3530    0.3820   -1.7860 C   0  0  0  0  0  0  0  0  0  0  0  0
   -6.1270   -0.7450   -2.5510 C   0  0  0  0  0  0  0  0  0  0  0  0
   -4.9060   -1.3750   -2.4190 C   0  0  0  0  0  0  0  0  0  0  0  0
   -3.9860   -0.8780   -1.5610 N   0  0  0  0  0  0  0  0  0  0  0  0
   -0.1900    1.2280    1.7530 N   0  0  0  0  0  0  0  0  0  0  0  0
    1.0640    1.4780    1.3650 C   0  0  0  0  0  0  0  0  0  0  0  0
    1.7350    2.6190    0.9200 C   0  0  0  0  0  0  0  0  0  0  0  0
    3.0210    2.2110    0.6840 C   0  0  0  0  0  0  0  0  0  0  0  0
    3.1510    0.9030    0.9600 N   0  0  0  0  0  0  0  0  0  0  0  0
    1.9750    0.4610    1.3700 N   0  0  0  0  0  0  0  0  0  0  0  0
    3.2120   -1.6030   -1.1260 C   0  0  0  0  0  0  0  0  0  0  0  0
    3.8630   -1.2980   -2.2520 N   0  0  0  0  0  0  0  0  0  0  0  0
  1  2  1  0
  2  3  1  0
  2 28  1  0
  3  4  2  0
  4  5  1  0
  4 27  1  0
  5  6  1  0
  6  7  1  0
  7  8  2  0
  7 26  1  0
  8  9  1  0
  9 10  1  0
  9 21  2  0
 10 11  1  0
 12 11  1  1
 12 13  1  0
 12 14  1  0
 13 14  1  0
 14 15  1  6
 15 16  2  0
 15 20  1  0
 16 17  1  0
 17 18  2  0
 18 19  1  0
 19 20  2  0
 21 22  1  0
 22 23  2  0
 22 26  1  0
 23 24  1  0
 24 25  2  0
 25 26  1  0
 27 28  2  0
M  END
