
     RDKit          3D

 27 31  0  0  0  0  0  0  0  0999 V2000
    7.8440    0.5260    1.7810 C   0  0  0  0  0  0  0  0  0  0  0  0
    7.3400   -0.0850    0.6130 O   0  0  0  0  0  0  0  0  0  0  0  0
    5.9900   -0.0140    0.3440 C   0  0  0  0  0  0  0  0  0  0  0  0
    5.4830   -0.6040   -0.7900 C   0  0  0  0  0  0  0  0  0  0  0  0
    4.0990   -0.5060   -1.0230 C   0  0  0  0  0  0  0  0  0  0  0  0
    3.2660    0.1530   -0.1590 C   0  0  0  0  0  0  0  0  0  0  0  0
    1.8820    0.2380   -0.4160 N   0  0  0  0  0  0  0  0  0  0  0  0
    1.2730   -0.3330   -1.5600 C   0  0  0  0  0  0  0  0  0  0  0  0
   -0.0170   -0.2690   -1.8350 C   0  0  0  0  0  0  0  0  0  0  0  0
   -0.5230   -0.9220   -3.0700 C   0  0  0  0  0  0  0  0  0  0  0  0
   -1.7750   -1.2450   -3.0850 N   0  0  0  0  0  0  0  0  0  0  0  0
   -2.6430   -0.9770   -1.9940 C   0  0  0  0  0  0  0  0  0  0  0  0
   -2.2390   -0.3140   -0.8150 C   0  0  0  0  0  0  0  0  0  0  0  0
   -3.2220   -0.3840    0.1120 C   0  0  0  0  0  0  0  0  0  0  0  0
   -3.2900    0.0870    1.4490 N   0  0  0  0  0  0  0  0  0  0  0  0
   -4.5090   -0.1160    2.2290 C   0  0  2  0  0  0  0  0  0  0  0  0
   -5.7940    0.4330    1.8030 C   0  0  0  0  0  0  0  0  0  0  0  0
   -5.0320    1.1870    2.8410 C   0  0  0  0  0  0  0  0  0  0  0  0
   -4.2300   -1.0820   -0.5080 N   0  0  0  0  0  0  0  0  0  0  0  0
   -3.8850   -1.4180   -1.7250 N   0  0  0  0  0  0  0  0  0  0  0  0
   -4.6990   -2.1650   -2.6870 C   0  0  0  0  0  0  0  0  0  0  0  0
   -0.9550    0.4190   -0.9430 C   0  0  1  0  0  0  0  0  0  0  0  0
   -0.3300    0.9920    0.2140 C   0  0  0  0  0  0  0  0  0  0  0  0
    0.9800    0.9100    0.4610 C   0  0  0  0  0  0  0  0  0  0  0  0
    1.5560    1.5300    1.6870 C   0  0  0  0  0  0  0  0  0  0  0  0
    3.8450    0.7010    0.9260 N   0  0  0  0  0  0  0  0  0  0  0  0
    5.1450    0.6210    1.1660 N   0  0  0  0  0  0  0  0  0  0  0  0
  1  2  1  0
  2  3  1  0
  3  4  2  0
  3 27  1  0
  4  5  1  0
  5  6  2  0
  6  7  1  0
  6 26  1  0
  7  8  1  0
  7 24  1  0
  8  9  2  0
  9 10  1  0
  9 22  1  0
 10 11  2  0
 11 12  1  0
 12 13  2  0
 12 20  1  0
 13 14  1  0
 13 22  1  0
 14 15  1  0
 14 19  2  0
 16 15  1  6
 16 17  1  0
 16 18  1  0
 17 18  1  0
 19 20  1  0
 20 21  1  0
 22 23  1  1
 23 24  2  0
 24 25  1  0
 26 27  2  0
M  END
