
     RDKit          3D

 28 32  0  0  0  0  0  0  0  0999 V2000
    6.3980    0.8750   -0.7650 C   0  0  0  0  0  0  0  0  0  0  0  0
    5.2780    1.6440   -0.4330 C   0  0  0  0  0  0  0  0  0  0  0  0
    4.0690    1.0740   -0.1760 C   0  0  0  0  0  0  0  0  0  0  0  0
    3.9530   -0.3050   -0.2460 C   0  0  0  0  0  0  0  0  0  0  0  0
    2.7370   -0.9130    0.0100 C   0  0  0  0  0  0  0  0  0  0  0  0
    1.6790   -0.0860    0.3310 O   0  0  0  0  0  0  0  0  0  0  0  0
    0.4190   -0.6430    0.6020 C   0  0  0  0  0  0  0  0  0  0  0  0
   -0.5790    0.4500    0.9270 C   0  0  2  0  0  0  0  0  0  0  0  0
   -1.9010   -0.2270    1.2050 C   0  0  0  0  0  0  0  0  0  0  0  0
   -2.5260   -0.4060   -0.0910 N   0  0  0  0  0  0  0  0  0  0  0  0
   -3.6520   -1.2470   -0.3080 C   0  0  0  0  0  0  0  0  0  0  0  0
   -4.1770   -1.3480   -1.5980 C   0  0  0  0  0  0  0  0  0  0  0  0
   -5.2660   -2.1730   -1.7640 C   0  0  0  0  0  0  0  0  0  0  0  0
   -5.8070   -2.8580   -0.7250 N   0  0  0  0  0  0  0  0  0  0  0  0
   -5.2940   -2.7520    0.5040 C   0  0  0  0  0  0  0  0  0  0  0  0
   -4.2300   -1.9480    0.6720 N   0  0  0  0  0  0  0  0  0  0  0  0
   -1.8330    0.3830   -1.0630 C   0  0  0  0  0  0  0  0  0  0  0  0
   -0.8980    1.2650   -0.3010 C   0  0  1  0  0  0  0  0  0  0  0  0
   -1.5580    2.5170    0.1660 C   0  0  0  0  0  0  0  0  0  0  0  0
   -2.7230    2.5990    0.8320 N   0  0  0  0  0  0  0  0  0  0  0  0
   -3.0130    3.8760    1.0920 C   0  0  0  0  0  0  0  0  0  0  0  0
   -1.9970    4.6100    0.5710 N   0  0  0  0  0  0  0  0  0  0  0  0
   -1.1300    3.7820    0.0190 N   0  0  0  0  0  0  0  0  0  0  0  0
    2.6230   -2.2710   -0.0590 C   0  0  0  0  0  0  0  0  0  0  0  0
    3.7150   -3.0230   -0.3830 C   0  0  0  0  0  0  0  0  0  0  0  0
    4.8920   -2.4170   -0.6300 N   0  0  0  0  0  0  0  0  0  0  0  0
    5.0360   -1.0770   -0.5690 C   0  0  0  0  0  0  0  0  0  0  0  0
    6.2670   -0.4970   -0.8320 C   0  0  0  0  0  0  0  0  0  0  0  0
  1  2  2  0
  1 28  1  0
  2  3  1  0
  3  4  2  0
  4  5  1  0
  4 27  1  0
  5  6  1  0
  5 24  2  0
  6  7  1  0
  8  7  1  6
  8  9  1  0
  8 18  1  0
  9 10  1  0
 10 11  1  0
 10 17  1  0
 11 12  2  0
 11 16  1  0
 12 13  1  0
 13 14  2  0
 14 15  1  0
 15 16  2  0
 17 18  1  0
 18 19  1  1
 19 20  1  0
 19 23  2  0
 20 21  2  0
 21 22  1  0
 22 23  1  0
 24 25  1  0
 25 26  2  0
 26 27  1  0
 27 28  2  0
M  END
