
     RDKit          3D

 36 37  0  0  0  0  0  0  0  0999 V2000
   -1.7060    4.6560    2.0180 C   0  0  0  0  0  0  0  0  0  0  0  0
   -1.6850    4.7630    0.5280 C   0  0  0  0  0  0  0  0  0  0  0  0
   -1.4090    3.4770   -0.1680 C   0  0  0  0  0  0  0  0  0  0  0  0
   -0.1240    2.9040    0.1800 N   0  0  0  0  0  0  0  0  0  0  0  0
   -0.0000    1.5790   -0.5780 C   0  0  2  0  0  0  0  0  0  0  0  0
   -1.0900    0.7640   -0.0440 C   0  0  0  0  0  0  0  0  0  0  0  0
   -1.1830    0.7340    1.2220 O   0  0  0  0  0  0  0  0  0  0  0  0
   -2.0550    0.0200   -0.8090 N   0  0  0  0  0  0  0  0  0  0  0  0
   -2.1510    0.0790   -2.2440 C   0  0  0  0  0  0  0  0  0  0  0  0
   -3.1270    1.2120   -2.6510 C   0  0  0  0  0  0  0  0  0  0  0  0
   -3.0110   -0.7640   -0.1170 C   0  0  0  0  0  0  0  0  0  0  0  0
   -3.8110   -0.1090    0.8150 C   0  0  0  0  0  0  0  0  0  0  0  0
   -4.7680   -0.7510    1.5410 C   0  0  0  0  0  0  0  0  0  0  0  0
   -4.9720   -2.1100    1.3650 C   0  0  0  0  0  0  0  0  0  0  0  0
   -6.0200   -2.8190    2.1600 C   0  0  0  0  0  0  0  0  0  0  0  0
   -4.1890   -2.7700    0.4480 C   0  0  0  0  0  0  0  0  0  0  0  0
   -3.2060   -2.1030   -0.2960 C   0  0  0  0  0  0  0  0  0  0  0  0
   -2.4850   -2.9080   -1.2000 N   0  0  0  0  0  0  0  0  0  0  0  0
    1.3820    1.1230   -0.3410 C   0  0  0  0  0  0  0  0  0  0  0  0
    2.3770    2.0710   -0.0540 C   0  0  0  0  0  0  0  0  0  0  0  0
    2.0610    3.4980   -0.1220 C   0  0  0  0  0  0  0  0  0  0  0  0
    3.6910    1.6880    0.2470 C   0  0  0  0  0  0  0  0  0  0  0  0
    4.0240    0.3560    0.2620 C   0  0  0  0  0  0  0  0  0  0  0  0
    3.0680   -0.5870   -0.0170 C   0  0  0  0  0  0  0  0  0  0  0  0
    3.3990   -1.9050   -0.0020 O   0  0  0  0  0  0  0  0  0  0  0  0
    4.6410   -2.4630    0.2740 C   0  0  0  0  0  0  0  0  0  0  0  0
    5.3590   -2.8810   -0.7420 C   0  0  0  0  0  0  0  0  0  0  0  0
    6.6570   -3.4870   -0.7670 C   0  0  0  0  0  0  0  0  0  0  0  0
    7.5360   -3.7990    0.2770 N   0  0  0  0  0  0  0  0  0  0  0  0
    7.1080   -3.8060   -1.9400 O   0  0  0  0  0  0  0  0  0  0  0  0
    5.1290   -2.5790    1.6610 C   0  0  2  0  0  0  0  0  0  0  0  0
    4.0570   -2.4400    2.5690 F   0  0  0  0  0  0  0  0  0  0  0  0
    6.1940   -1.8110    1.9890 F   0  0  0  0  0  0  0  0  0  0  0  0
    5.5070   -3.9190    1.8710 F   0  0  0  0  0  0  0  0  0  0  0  0
    1.7470   -0.1840   -0.3190 C   0  0  0  0  0  0  0  0  0  0  0  0
    0.8060   -1.2740   -0.6380 C   0  0  0  0  0  0  0  0  0  0  0  0
  1  2  1  0
  2  3  1  0
  3  4  1  0
  5  4  1  1
  5  6  1  0
  5 19  1  0
  6  7  2  0
  6  8  1  0
  8  9  1  0
  8 11  1  0
  9 10  1  0
 11 12  2  0
 11 17  1  0
 12 13  1  0
 13 14  2  0
 14 15  1  0
 14 16  1  0
 16 17  2  0
 17 18  1  0
 19 20  2  0
 19 35  1  0
 20 21  1  0
 20 22  1  0
 22 23  2  0
 23 24  1  0
 24 25  1  0
 24 35  2  0
 25 26  1  0
 26 27  2  3
 26 31  1  0
 27 28  1  0
 28 29  1  0
 28 30  2  0
 31 32  1  1
 31 33  1  0
 31 34  1  0
 35 36  1  0
M  CHG  1  18   1
M  END
