
     RDKit          3D

 37 40  0  0  0  0  0  0  0  0999 V2000
   -0.2100    5.0430   -0.4960 C   0  0  0  0  0  0  0  0  0  0  0  0
    1.0830    4.4060    0.0290 C   0  0  0  0  0  0  0  0  0  0  0  0
    0.9340    2.8790    0.0200 C   0  0  1  0  0  0  0  0  0  0  0  0
    2.2550    2.3300    0.5540 C   0  0  0  0  0  0  0  0  0  0  0  0
    2.0190    0.9950    1.2020 C   0  0  0  0  0  0  0  0  0  0  0  0
    3.1930    0.0730    0.9550 C   0  0  2  0  0  0  0  0  0  0  0  0
    3.7360    0.2410   -0.4180 C   0  0  0  0  0  0  0  0  0  0  0  0
    4.3950   -1.0250   -0.9600 C   0  0  2  0  0  0  0  0  0  0  0  0
    4.6900   -0.6930   -2.4330 C   0  0  0  0  0  0  0  0  0  0  0  0
    3.4280   -2.1640   -0.9380 C   0  0  0  0  0  0  0  0  0  0  0  0
    2.3530   -2.0530    0.1180 C   0  0  1  0  0  0  0  0  0  0  0  0
    1.3130   -1.3090   -0.4940 O   0  0  0  0  0  0  0  0  0  0  0  0
    1.7710   -3.4180    0.3640 C   0  0  0  0  0  0  0  0  0  0  0  0
    0.2460   -3.4390    0.1590 C   0  0  0  0  0  0  0  0  0  0  0  0
   -0.2730   -2.3330    0.7970 O   0  0  0  0  0  0  0  0  0  0  0  0
   -1.5090   -1.8080    0.8920 C   0  0  0  0  0  0  0  0  0  0  0  0
   -2.0390   -1.5770    2.0060 O   0  0  0  0  0  0  0  0  0  0  0  0
   -2.3220   -1.4690   -0.3020 C   0  0  2  0  0  0  0  0  0  0  0  0
   -1.9560   -0.1340   -0.8690 C   0  0  0  0  0  0  0  0  0  0  0  0
   -2.9110    0.9640   -0.5900 C   0  0  2  0  0  0  0  0  0  0  0  0
   -3.7900    0.7680    0.5860 C   0  0  0  0  0  0  0  0  0  0  0  0
   -4.5450   -0.5110    0.4270 C   0  0  0  0  0  0  0  0  0  0  0  0
   -3.7900   -1.6670   -0.0760 C   0  0  1  0  0  0  0  0  0  0  0  0
   -4.4460   -2.1660   -1.3540 C   0  0  0  0  0  0  0  0  0  0  0  0
   -3.9140   -2.8340    0.9170 C   0  0  0  0  0  0  0  0  0  0  0  0
   -3.7390    1.1690   -1.7130 O   0  0  0  0  0  0  0  0  0  0  0  0
   -4.2440    2.4590   -1.5850 C   0  0  0  0  0  0  0  0  0  0  0  0
   -3.2360    3.2650   -0.7990 C   0  0  0  0  0  0  0  0  0  0  0  0
   -2.1380    2.2720   -0.5860 C   0  0  1  0  0  0  0  0  0  0  0  0
   -1.4400    2.5520    0.6690 C   0  0  0  0  0  0  0  0  0  0  0  0
   -2.1690    2.9070    1.6590 O   0  0  0  0  0  0  0  0  0  0  0  0
   -0.0840    2.4700    0.8820 O   0  0  0  0  0  0  0  0  0  0  0  0
    2.8890   -1.3630    1.3140 C   0  0  2  0  0  0  0  0  0  0  0  0
    1.9470   -1.4070    2.5070 C   0  0  0  0  0  0  0  0  0  0  0  0
    4.1420   -1.9840    1.8010 C   0  0  0  0  0  0  0  0  0  0  0  0
    4.6140   -3.0430    1.3400 O   0  0  0  0  0  0  0  0  0  0  0  0
    4.8340   -1.3610    2.8280 O   0  0  0  0  0  0  0  0  0  0  0  0
  1  2  1  0
  3  2  1  1
  3  4  1  0
  3 32  1  0
  4  5  1  0
  6  5  1  6
  6  7  1  0
  6 33  1  0
  7  8  1  0
  8  9  1  6
  8 10  1  0
 10 11  1  0
 11 12  1  6
 11 13  1  0
 11 33  1  0
 13 14  1  0
 14 15  1  0
 15 16  1  0
 16 17  2  0
 18 16  1  1
 18 19  1  0
 18 23  1  0
 19 20  1  0
 20 21  1  1
 20 26  1  0
 20 29  1  0
 21 22  1  0
 22 23  1  0
 23 24  1  6
 23 25  1  0
 26 27  1  0
 27 28  1  0
 29 28  1  1
 29 30  1  0
 30 31  2  0
 30 32  1  0
 33 34  1  1
 33 35  1  0
 35 36  2  0
 35 37  1  0
M  END
