
     RDKit          3D

 37 39  0  0  0  0  0  0  0  0999 V2000
    1.7290   -6.5680   -1.7340 C   0  0  0  0  0  0  0  0  0  0  0  0
    0.8350   -6.0560   -0.6040 C   0  0  0  0  0  0  0  0  0  0  0  0
    0.9520   -4.5470   -0.6060 C   0  0  0  0  0  0  0  0  0  0  0  0
    0.1020   -3.9270    0.4840 C   0  0  0  0  0  0  0  0  0  0  0  0
    0.3190   -2.4050    0.3630 C   0  0  1  0  0  0  0  0  0  0  0  0
    1.8470   -2.2510    0.5820 C   0  0  0  0  0  0  0  0  0  0  0  0
    2.0570   -0.9220    1.2920 C   0  0  0  0  0  0  0  0  0  0  0  0
    3.4290   -0.4770    1.0060 C   0  0  0  0  0  0  0  0  0  0  0  0
    3.8100    0.4360    0.1420 C   0  0  0  0  0  0  0  0  0  0  0  0
    5.2960    0.6970    0.0530 C   0  0  0  0  0  0  0  0  0  0  0  0
    2.8640    1.2100   -0.7460 C   0  0  2  0  0  0  0  0  0  0  0  0
    2.2280    2.2440    0.1100 C   0  0  0  0  0  0  0  0  0  0  0  0
    0.9890    2.3310    0.2640 O   0  0  0  0  0  0  0  0  0  0  0  0
    3.0050    3.1700    0.7850 O   0  0  0  0  0  0  0  0  0  0  0  0
    2.4410    4.1800    1.6200 C   0  0  0  0  0  0  0  0  0  0  0  0
    3.5610    4.9980    2.1920 C   0  0  0  0  0  0  0  0  0  0  0  0
    1.9940    0.3120   -1.3200 O   0  0  0  0  0  0  0  0  0  0  0  0
    1.4840    0.1420   -2.5670 C   0  0  0  0  0  0  0  0  0  0  0  0
    1.8770   -0.8890   -3.2690 O   0  0  0  0  0  0  0  0  0  0  0  0
    0.5170    0.9900   -3.2510 C   0  0  0  0  0  0  0  0  0  0  0  0
   -0.6960    1.3180   -2.9260 C   0  0  0  0  0  0  0  0  0  0  0  0
   -1.5540    0.9810   -1.7880 C   0  0  0  0  0  0  0  0  0  0  0  0
   -2.1780    1.9420   -1.1160 C   0  0  0  0  0  0  0  0  0  0  0  0
   -1.9750    3.2790   -1.5500 O   0  0  0  0  0  0  0  0  0  0  0  0
   -3.0790    1.8160    0.0510 C   0  0  2  0  0  0  0  0  0  0  0  0
   -4.3770    2.5880   -0.2370 C   0  0  0  0  0  0  0  0  0  0  0  0
   -2.4210    2.5110    1.2210 C   0  0  0  0  0  0  0  0  0  0  0  0
   -3.3500    2.4670    2.4090 C   0  0  0  0  0  0  0  0  0  0  0  0
   -4.2290    1.2670    2.4670 C   0  0  0  0  0  0  0  0  0  0  0  0
   -3.6310    0.2300    1.8090 O   0  0  0  0  0  0  0  0  0  0  0  0
   -3.4030    0.4250    0.4580 C   0  0  1  0  0  0  0  0  0  0  0  0
   -4.5250   -0.2030   -0.3240 C   0  0  0  0  0  0  0  0  0  0  0  0
   -2.1390   -0.3940    0.1520 C   0  0  0  0  0  0  0  0  0  0  0  0
   -1.8510   -0.3910   -1.3240 C   0  0  2  0  0  0  0  0  0  0  0  0
   -0.9180   -1.4470   -1.6390 C   0  0  0  0  0  0  0  0  0  0  0  0
   -1.0070   -1.8970   -2.8470 O   0  0  0  0  0  0  0  0  0  0  0  0
    0.0140   -2.0300   -0.8860 O   0  0  0  0  0  0  0  0  0  0  0  0
  1  2  1  0
  2  3  1  0
  3  4  1  0
  5  4  1  6
  5  6  1  0
  5 37  1  0
  6  7  1  0
  7  8  1  0
  8  9  2  0
  9 10  1  0
  9 11  1  0
 11 12  1  1
 11 17  1  0
 12 13  2  0
 12 14  1  0
 14 15  1  0
 15 16  1  0
 17 18  1  0
 18 19  2  0
 18 20  1  0
 20 21  2  0
 21 22  1  0
 22 23  2  0
 22 34  1  0
 23 24  1  0
 23 25  1  0
 25 26  1  6
 25 27  1  0
 25 31  1  0
 27 28  1  0
 28 29  1  0
 29 30  1  0
 30 31  1  0
 31 32  1  6
 31 33  1  0
 34 33  1  1
 34 35  1  0
 35 36  2  0
 35 37  1  0
M  END
