
     RDKit          3D

 37 39  0  0  0  0  0  0  0  0999 V2000
    7.0280    0.7320    0.2450 C   0  0  0  0  0  0  0  0  0  0  0  0
    5.7530    1.2680   -0.3620 C   0  0  0  0  0  0  0  0  0  0  0  0
    4.6260    0.2570   -0.2290 C   0  0  0  0  0  0  0  0  0  0  0  0
    4.8300   -0.9030    0.3570 C   0  0  0  0  0  0  0  0  0  0  0  0
    3.9270   -2.0240    0.6060 C   0  0  2  0  0  0  0  0  0  0  0  0
    3.7350   -2.8040   -0.6740 C   0  0  0  0  0  0  0  0  0  0  0  0
    2.5690   -1.6370    1.1260 C   0  0  2  0  0  0  0  0  0  0  0  0
    2.4670   -2.2390    2.5500 C   0  0  0  0  0  0  0  0  0  0  0  0
    1.5870   -2.1970    0.3950 O   0  0  0  0  0  0  0  0  0  0  0  0
    0.6780   -2.0480   -0.5470 C   0  0  0  0  0  0  0  0  0  0  0  0
    0.9340   -1.9930   -1.8220 O   0  0  0  0  0  0  0  0  0  0  0  0
   -0.7570   -1.9310   -0.2590 C   0  0  1  0  0  0  0  0  0  0  0  0
   -1.1530   -2.6480    1.0380 C   0  0  0  0  0  0  0  0  0  0  0  0
   -2.6300   -2.6990    0.9660 C   0  0  0  0  0  0  0  0  0  0  0  0
   -3.3380   -2.0430   -0.1500 C   0  0  0  0  0  0  0  0  0  0  0  0
   -2.8090   -0.6450   -0.5990 C   0  0  1  0  0  0  0  0  0  0  0  0
   -2.7930   -0.6790   -2.0510 C   0  0  0  0  0  0  0  0  0  0  0  0
   -2.3940    0.3800   -2.9630 C   0  0  0  0  0  0  0  0  0  0  0  0
   -3.6760    0.3070    0.1270 C   0  0  1  0  0  0  0  0  0  0  0  0
   -3.5230   -0.1080    1.4880 O   0  0  0  0  0  0  0  0  0  0  0  0
   -3.1230    1.7370    0.2370 C   0  0  0  0  0  0  0  0  0  0  0  0
   -4.1590    2.5430    1.0500 C   0  0  0  0  0  0  0  0  0  0  0  0
   -4.8500    1.7810    1.9460 O   0  0  0  0  0  0  0  0  0  0  0  0
   -5.7140    0.9790    1.2490 C   0  0  0  0  0  0  0  0  0  0  0  0
   -5.0830    0.4780   -0.0900 C   0  0  2  0  0  0  0  0  0  0  0  0
   -6.0610   -0.5060   -0.5420 C   0  0  0  0  0  0  0  0  0  0  0  0
   -1.3570   -0.5660   -0.0860 C   0  0  2  0  0  0  0  0  0  0  0  0
   -0.4650    0.4270   -0.6690 C   0  0  0  0  0  0  0  0  0  0  0  0
    0.4430    1.0720    0.3780 C   0  0  0  0  0  0  0  0  0  0  0  0
    0.1460    0.6900    1.5450 O   0  0  0  0  0  0  0  0  0  0  0  0
    1.4210    1.9260    0.1110 O   0  0  0  0  0  0  0  0  0  0  0  0
    2.7640    1.9460   -0.1730 C   0  0  2  0  0  0  0  0  0  0  0  0
    2.9920    3.2220   -1.0070 C   0  0  0  0  0  0  0  0  0  0  0  0
    2.5770    4.3780   -0.1710 C   0  0  0  0  0  0  0  0  0  0  0  0
    2.6580    5.5510   -0.6100 O   0  0  0  0  0  0  0  0  0  0  0  0
    2.0850    4.2190    1.1190 O   0  0  0  0  0  0  0  0  0  0  0  0
    3.3510    0.7400   -0.8290 C   0  0  0  0  0  0  0  0  0  0  0  0
  1  2  1  0
  2  3  1  0
  3  4  2  0
  3 37  1  0
  4  5  1  0
  5  6  1  6
  5  7  1  0
  7  8  1  1
  7  9  1  0
  9 10  1  0
 10 11  2  0
 10 12  1  0
 12 13  1  1
 12 27  1  0
 13 14  1  0
 14 15  1  0
 15 16  1  0
 16 17  1  6
 16 19  1  0
 16 27  1  0
 17 18  1  0
 19 20  1  1
 19 21  1  0
 19 25  1  0
 21 22  1  0
 22 23  1  0
 23 24  1  0
 24 25  1  0
 25 26  1  1
 27 28  1  6
 28 29  1  0
 29 30  2  0
 29 31  1  0
 31 32  1  0
 32 33  1  6
 32 37  1  0
 33 34  1  0
 34 35  2  0
 34 36  1  0
M  END
