
     RDKit          3D

 36 37  0  0  0  0  0  0  0  0999 V2000
   -3.5100    4.2080   -2.4990 C   0  0  0  0  0  0  0  0  0  0  0  0
   -3.1690    3.2680   -1.3600 C   0  0  0  0  0  0  0  0  0  0  0  0
   -4.1120    2.0940   -1.4320 C   0  0  2  0  0  0  0  0  0  0  0  0
   -5.5230    2.6170   -1.2970 C   0  0  0  0  0  0  0  0  0  0  0  0
   -5.7630    3.3100   -0.0600 N   0  0  0  0  0  0  0  0  0  0  0  0
   -3.7770    1.1330   -0.4130 N   0  0  0  0  0  0  0  0  0  0  0  0
   -3.4680   -0.2290   -0.6670 C   0  0  0  0  0  0  0  0  0  0  0  0
   -3.4910   -0.6130   -1.8520 O   0  0  0  0  0  0  0  0  0  0  0  0
   -3.1400   -1.1640    0.3370 N   0  0  0  0  0  0  0  0  0  0  0  0
   -2.8240   -2.5590    0.0910 C   0  0  1  0  0  0  0  0  0  0  0  0
   -1.3900   -2.8790    0.4500 C   0  0  0  0  0  0  0  0  0  0  0  0
   -0.4550   -2.0340   -0.3760 C   0  0  0  0  0  0  0  0  0  0  0  0
    0.9910   -2.2690   -0.1080 C   0  0  0  0  0  0  0  0  0  0  0  0
    1.4290   -2.0000    1.3040 C   0  0  0  0  0  0  0  0  0  0  0  0
    1.2220   -0.7150    1.7160 O   0  0  0  0  0  0  0  0  0  0  0  0
    1.8360    0.2790    1.0190 C   0  0  0  0  0  0  0  0  0  0  0  0
    3.3340    0.2050    1.0200 C   0  0  0  0  0  0  0  0  0  0  0  0
    3.9540   -0.6780    1.6300 O   0  0  0  0  0  0  0  0  0  0  0  0
    4.0340    1.1950    0.2870 N   0  0  0  0  0  0  0  0  0  0  0  0
    5.4370    1.3020    0.1640 C   0  0  0  0  0  0  0  0  0  0  0  0
    6.3730    0.5410    0.7880 C   0  0  0  0  0  0  0  0  0  0  0  0
    7.7440    0.7260    0.5870 C   0  0  0  0  0  0  0  0  0  0  0  0
    8.6990   -0.1580    1.3150 C   0  0  0  0  0  0  0  0  0  0  0  0
    8.1970    1.7010   -0.2650 C   0  0  0  0  0  0  0  0  0  0  0  0
    9.5290    1.8550   -0.4380 F   0  0  0  0  0  0  0  0  0  0  0  0
    7.2680    2.4840   -0.9080 C   0  0  0  0  0  0  0  0  0  0  0  0
    7.7700    3.5410   -1.8320 C   0  0  0  0  0  0  0  0  0  0  0  0
    5.9190    2.2860   -0.6960 C   0  0  0  0  0  0  0  0  0  0  0  0
   -3.7780   -3.4770    0.7370 C   0  0  0  0  0  0  0  0  0  0  0  0
   -3.3870   -4.4920    1.6020 C   0  0  0  0  0  0  0  0  0  0  0  0
   -4.3110   -5.3300    2.1890 C   0  0  0  0  0  0  0  0  0  0  0  0
   -5.6730   -5.2030    1.9480 C   0  0  0  0  0  0  0  0  0  0  0  0
   -6.5710   -6.0330    2.5310 F   0  0  0  0  0  0  0  0  0  0  0  0
   -6.0570   -4.1990    1.0940 C   0  0  0  0  0  0  0  0  0  0  0  0
   -5.1400   -3.3600    0.5050 C   0  0  0  0  0  0  0  0  0  0  0  0
   -5.5210   -2.3580   -0.3480 F   0  0  0  0  0  0  0  0  0  0  0  0
  1  2  1  0
  3  2  1  1
  3  4  1  0
  3  6  1  0
  4  5  1  0
  6  7  1  0
  7  8  2  0
  7  9  1  0
  9 10  1  0
 10 11  1  1
 10 29  1  0
 11 12  1  0
 12 13  1  0
 13 14  1  0
 14 15  1  0
 15 16  1  0
 16 17  1  0
 17 18  2  0
 17 19  1  0
 19 20  1  0
 20 21  2  0
 20 28  1  0
 21 22  1  0
 22 23  1  0
 22 24  2  0
 24 25  1  0
 24 26  1  0
 26 27  1  0
 26 28  2  0
 29 30  2  0
 29 35  1  0
 30 31  1  0
 31 32  2  0
 32 33  1  0
 32 34  1  0
 34 35  2  0
 35 36  1  0
M  CHG  1   5   1
M  END
