
     RDKit          3D

 36 39  0  0  0  0  0  0  0  0999 V2000
    8.6900   -0.1070   -1.0510 C   0  0  0  0  0  0  0  0  0  0  0  0
    7.9090   -0.4010    0.1710 C   0  0  0  0  0  0  0  0  0  0  0  0
    6.7510    0.2080    0.3610 C   0  0  0  0  0  0  0  0  0  0  0  0
    6.2330    1.1680   -0.6230 C   0  0  0  0  0  0  0  0  0  0  0  0
    5.0160    0.8480   -1.1820 O   0  0  0  0  0  0  0  0  0  0  0  0
    4.0340    0.7720   -0.2140 C   0  0  1  0  0  0  0  0  0  0  0  0
    2.9600    1.7700   -0.5480 C   0  0  0  0  0  0  0  0  0  0  0  0
    1.9380    1.8120    0.3130 C   0  0  0  0  0  0  0  0  0  0  0  0
    1.0130    2.9500    0.4130 C   0  0  0  0  0  0  0  0  0  0  0  0
    0.2070    3.1910   -0.7890 C   0  0  0  0  0  0  0  0  0  0  0  0
    0.7110    3.7680   -1.7730 O   0  0  0  0  0  0  0  0  0  0  0  0
   -1.1070    2.7830   -0.8390 O   0  0  0  0  0  0  0  0  0  0  0  0
   -2.0010    2.8140    0.2500 C   0  0  1  0  0  0  0  0  0  0  0  0
   -1.8050    4.0890    1.0530 C   0  0  0  0  0  0  0  0  0  0  0  0
   -3.4430    2.7970   -0.1970 C   0  0  0  0  0  0  0  0  0  0  0  0
   -3.9170    1.4030   -0.5650 C   0  0  1  0  0  0  0  0  0  0  0  0
   -2.9810    0.7530   -1.3160 O   0  0  0  0  0  0  0  0  0  0  0  0
   -4.4050    0.6370    0.6510 C   0  0  1  0  0  0  0  0  0  0  0  0
   -5.6300   -0.1350    0.2950 C   0  0  0  0  0  0  0  0  0  0  0  0
   -5.4590   -1.1390   -0.7980 C   0  0  0  0  0  0  0  0  0  0  0  0
   -6.7910   -1.8530   -1.0620 C   0  0  0  0  0  0  0  0  0  0  0  0
   -3.4450    0.0240    1.4010 O   0  0  0  0  0  0  0  0  0  0  0  0
   -2.9940   -1.1960    1.6780 C   0  0  0  0  0  0  0  0  0  0  0  0
   -3.2360   -1.8390    2.7260 O   0  0  0  0  0  0  0  0  0  0  0  0
   -2.1280   -1.9140    0.7150 C   0  0  2  0  0  0  0  0  0  0  0  0
   -2.1970   -3.3950    0.9240 C   0  0  0  0  0  0  0  0  0  0  0  0
   -1.1820   -4.1380    0.1190 C   0  0  0  0  0  0  0  0  0  0  0  0
    0.1990   -3.6300    0.3670 C   0  0  0  0  0  0  0  0  0  0  0  0
    0.3380   -2.1400    0.2570 C   0  0  2  0  0  0  0  0  0  0  0  0
    0.5390   -1.7920   -1.2020 C   0  0  0  0  0  0  0  0  0  0  0  0
    1.2320   -0.4290   -1.0610 C   0  0  0  0  0  0  0  0  0  0  0  0
    1.9650   -0.5910    0.2380 C   0  0  2  0  0  0  0  0  0  0  0  0
    1.8280    0.5750    1.1730 C   0  0  0  0  0  0  0  0  0  0  0  0
    3.4550   -0.6460   -0.1260 C   0  0  0  0  0  0  0  0  0  0  0  0
    1.5670   -1.7900    0.8070 O   0  0  0  0  0  0  0  0  0  0  0  0
   -0.7320   -1.3640    0.9110 C   0  0  0  0  0  0  0  0  0  0  0  0
  1  2  1  0
  2  3  2  3
  3  4  1  0
  4  5  1  0
  6  5  1  6
  6  7  1  0
  6 34  1  0
  7  8  2  0
  8  9  1  0
  8 33  1  0
  9 10  1  0
 10 11  2  0
 10 12  1  0
 12 13  1  0
 13 14  1  6
 13 15  1  0
 15 16  1  0
 16 17  1  1
 16 18  1  0
 18 19  1  6
 18 22  1  0
 19 20  1  0
 20 21  1  0
 22 23  1  0
 23 24  2  0
 23 25  1  0
 25 26  1  1
 25 36  1  0
 26 27  1  0
 27 28  1  0
 29 28  1  6
 29 30  1  0
 29 35  1  0
 29 36  1  0
 30 31  1  0
 32 31  1  6
 32 33  1  0
 32 34  1  0
 32 35  1  0
M  END
