
     RDKit          3D

 47 51  0  0  0  0  0  0  0  0999 V2000
    5.2930    8.1800   -0.4460 C   0  0  0  0  0  0  0  0  0  0  0  0
    4.4530    6.9740   -0.2920 C   0  0  0  0  0  0  0  0  0  0  0  0
    3.3880    6.7930   -1.0530 C   0  0  0  0  0  0  0  0  0  0  0  0
    2.5010    5.5940   -0.9450 C   0  0  0  0  0  0  0  0  0  0  0  0
    1.0840    5.9890   -0.5950 C   0  0  0  0  0  0  0  0  0  0  0  0
    0.1640    4.8240   -0.4830 C   0  0  0  0  0  0  0  0  0  0  0  0
    0.0200    4.0160   -1.7210 C   0  0  2  0  0  0  0  0  0  0  0  0
   -0.5050    4.7040   -2.9200 C   0  0  0  0  0  0  0  0  0  0  0  0
   -0.6670    2.6890   -1.4990 C   0  0  1  0  0  0  0  0  0  0  0  0
    0.1700    1.9180   -0.5420 N   0  0  0  0  0  0  0  0  0  0  0  0
    0.9770    0.8640   -1.0480 C   0  0  0  0  0  0  0  0  0  0  0  0
    0.9350    0.6500   -2.3160 O   0  0  0  0  0  0  0  0  0  0  0  0
    1.8320    0.0300   -0.2220 C   0  0  0  0  0  0  0  0  0  0  0  0
    2.9810   -0.4650   -0.7900 C   0  0  0  0  0  0  0  0  0  0  0  0
    3.8380   -1.2710   -0.1130 C   0  0  0  0  0  0  0  0  0  0  0  0
    3.5970   -1.6430    1.2040 C   0  0  0  0  0  0  0  0  0  0  0  0
    2.4460   -1.1500    1.7800 C   0  0  0  0  0  0  0  0  0  0  0  0
    1.5700   -0.3180    1.0710 C   0  0  0  0  0  0  0  0  0  0  0  0
    2.1510   -1.5420    3.1770 C   0  0  0  0  0  0  0  0  0  0  0  0
    3.3370   -1.7350    4.0460 C   0  0  0  0  0  0  0  0  0  0  0  0
    4.5640   -2.2520    3.4060 C   0  0  0  0  0  0  0  0  0  0  0  0
    4.5150   -2.5200    1.9450 C   0  0  1  0  0  0  0  0  0  0  0  0
    4.1870   -3.9790    1.6520 C   0  0  0  0  0  0  0  0  0  0  0  0
    5.2900   -4.9210    2.0060 C   0  0  0  0  0  0  0  0  0  0  0  0
    6.5530   -4.6320    1.3880 N   0  0  0  0  0  0  0  0  0  0  0  0
    6.3940   -3.4470    0.5380 C   0  0  0  0  0  0  0  0  0  0  0  0
    5.9500   -2.3350    1.4240 C   0  0  0  0  0  0  0  0  0  0  0  0
   -2.0390    2.7600   -1.0160 C   0  0  0  0  0  0  0  0  0  0  0  0
   -2.2900    2.3430    0.1530 O   0  0  0  0  0  0  0  0  0  0  0  0
   -3.1120    3.2630   -1.7710 N   0  0  0  0  0  0  0  0  0  0  0  0
   -4.4710    3.3230   -1.3030 C   0  0  0  0  0  0  0  0  0  0  0  0
   -5.0730    1.9910   -1.0090 C   0  0  0  0  0  0  0  0  0  0  0  0
   -6.2460    1.9410   -0.5360 O   0  0  0  0  0  0  0  0  0  0  0  0
   -4.4060    0.7640   -1.2330 N   0  0  0  0  0  0  0  0  0  0  0  0
   -4.8800   -0.5340   -0.9810 C   0  0  0  0  0  0  0  0  0  0  0  0
   -3.9470   -1.5820   -1.0350 C   0  0  0  0  0  0  0  0  0  0  0  0
   -4.2680   -2.8860   -0.8120 C   0  0  0  0  0  0  0  0  0  0  0  0
   -5.5900   -3.2070   -0.5140 C   0  0  0  0  0  0  0  0  0  0  0  0
   -6.5170   -2.1990   -0.4580 C   0  0  0  0  0  0  0  0  0  0  0  0
   -6.1610   -0.8630   -0.6910 C   0  0  0  0  0  0  0  0  0  0  0  0
   -7.8940   -2.4600   -0.1820 N   0  0  0  0  0  0  0  0  0  0  0  0
   -8.2260   -3.8420    0.0260 C   0  0  0  0  0  0  0  0  0  0  0  0
   -9.1880   -4.1510    0.7450 O   0  0  0  0  0  0  0  0  0  0  0  0
   -7.3800   -4.8520   -0.6450 C   0  0  0  0  0  0  0  0  0  0  0  0
   -5.9520   -4.6220   -0.2400 C   0  0  1  0  0  0  0  0  0  0  0  0
   -5.0260   -5.5890   -0.9390 C   0  0  0  0  0  0  0  0  0  0  0  0
   -5.8550   -4.9060    1.2610 C   0  0  0  0  0  0  0  0  0  0  0  0
  1  2  1  0
  2  3  2  3
  3  4  1  0
  4  5  1  0
  5  6  1  0
  6  7  1  0
  7  8  1  6
  7  9  1  0
  9 10  1  1
  9 28  1  0
 10 11  1  0
 11 12  2  0
 11 13  1  0
 13 14  2  0
 13 18  1  0
 14 15  1  0
 15 16  2  0
 16 17  1  0
 16 22  1  0
 17 18  2  0
 17 19  1  0
 19 20  1  0
 20 21  1  0
 22 21  1  1
 22 23  1  0
 22 27  1  0
 23 24  1  0
 24 25  1  0
 25 26  1  0
 26 27  1  0
 28 29  2  0
 28 30  1  0
 30 31  1  0
 31 32  1  0
 32 33  2  0
 32 34  1  0
 34 35  1  0
 35 36  2  0
 35 40  1  0
 36 37  1  0
 37 38  2  0
 38 39  1  0
 38 45  1  0
 39 40  2  0
 39 41  1  0
 41 42  1  0
 42 43  2  0
 42 44  1  0
 44 45  1  0
 45 46  1  6
 45 47  1  0
M  CHG  1  25   1
M  END
