
     RDKit          3D

 47 51  0  0  0  0  0  0  0  0999 V2000
   10.9130   -0.2840    2.6450 N   0  0  0  0  0  0  0  0  0  0  0  0
   10.0450   -0.5860    1.8680 C   0  0  0  0  0  0  0  0  0  0  0  0
    9.0150   -0.9390    0.9170 C   0  0  0  0  0  0  0  0  0  0  0  0
    8.5730    0.2900    0.2060 C   0  0  0  0  0  0  0  0  0  0  0  0
    7.4830    0.0660   -0.8310 C   0  0  1  0  0  0  0  0  0  0  0  0
    7.9040   -0.8530   -1.9090 C   0  0  0  0  0  0  0  0  0  0  0  0
    9.2720   -1.1170   -2.1220 C   0  0  0  0  0  0  0  0  0  0  0  0
    9.5760   -2.0000   -3.1440 C   0  0  0  0  0  0  0  0  0  0  0  0
    8.6050   -2.5790   -3.9040 C   0  0  0  0  0  0  0  0  0  0  0  0
    7.2680   -2.3270   -3.7060 C   0  0  0  0  0  0  0  0  0  0  0  0
    6.9430   -1.4390   -2.6780 C   0  0  0  0  0  0  0  0  0  0  0  0
    5.5220   -1.0880   -2.4430 C   0  0  0  0  0  0  0  0  0  0  0  0
    5.2670   -0.8720   -1.0100 C   0  0  0  0  0  0  0  0  0  0  0  0
    6.2540   -0.2840   -0.2080 N   0  0  2  0  0  0  0  0  0  0  0  0
    5.6810    0.9120    0.4340 C   0  0  0  0  0  0  0  0  0  0  0  0
    4.9830    0.5480    1.7420 C   0  0  1  0  0  0  0  0  0  0  0  0
    5.8790   -0.0600    2.6400 O   0  0  0  0  0  0  0  0  0  0  0  0
    4.5420    1.8340    2.3760 C   0  0  0  0  0  0  0  0  0  0  0  0
    3.6770    2.6000    1.6510 O   0  0  0  0  0  0  0  0  0  0  0  0
    2.4190    2.4440    1.1980 C   0  0  0  0  0  0  0  0  0  0  0  0
    1.6740    1.3200    1.4500 C   0  0  0  0  0  0  0  0  0  0  0  0
    0.3720    1.2330    0.9410 C   0  0  0  0  0  0  0  0  0  0  0  0
   -0.2220    2.2100    0.1960 C   0  0  0  0  0  0  0  0  0  0  0  0
   -1.5180    2.1540   -0.3050 N   0  0  0  0  0  0  0  0  0  0  0  0
   -2.5300    1.2960    0.1820 C   0  0  0  0  0  0  0  0  0  0  0  0
   -2.3010    0.5210    1.1400 O   0  0  0  0  0  0  0  0  0  0  0  0
   -3.8100    1.2900   -0.3890 N   0  0  0  0  0  0  0  0  0  0  0  0
   -4.9780    0.5070   -0.0250 C   0  0  1  0  0  0  0  0  0  0  0  0
   -4.9470   -0.8390   -0.6720 C   0  0  0  0  0  0  0  0  0  0  0  0
   -4.9290   -0.6650   -2.1140 N   0  0  0  0  0  0  0  0  0  0  0  0
   -6.0850   -0.5740   -2.9750 C   0  0  0  0  0  0  0  0  0  0  0  0
   -5.5790   -1.2980   -4.2230 C   0  0  0  0  0  0  0  0  0  0  0  0
   -4.2290   -0.7740   -4.3150 N   0  0  0  0  0  0  0  0  0  0  0  0
   -3.7940   -0.5510   -2.9580 C   0  0  0  0  0  0  0  0  0  0  0  0
   -2.6100   -0.3040   -2.6310 O   0  0  0  0  0  0  0  0  0  0  0  0
   -5.1400    0.3840    1.4440 C   0  0  1  0  0  0  0  0  0  0  0  0
   -5.2500    1.8190    2.0070 C   0  0  0  0  0  0  0  0  0  0  0  0
   -5.3950    1.7340    3.4890 C   0  0  0  0  0  0  0  0  0  0  0  0
   -4.2800    1.0880    4.0400 O   0  0  0  0  0  0  0  0  0  0  0  0
   -6.2100   -0.4700    1.9870 C   0  0  0  0  0  0  0  0  0  0  0  0
   -7.6280   -0.2610    1.7540 C   0  0  1  0  0  0  0  0  0  0  0  0
   -8.2320   -0.3380    0.4240 C   0  0  0  0  0  0  0  0  0  0  0  0
   -8.6300   -1.8130    0.2340 C   0  0  0  0  0  0  0  0  0  0  0  0
   -8.4010   -2.4810    1.5560 C   0  0  0  0  0  0  0  0  0  0  0  0
   -8.3840   -1.3490    2.5560 C   0  0  0  0  0  0  0  0  0  0  0  0
    0.5520    3.3670   -0.0610 C   0  0  0  0  0  0  0  0  0  0  0  0
    1.8150    3.4540    0.4310 C   0  0  0  0  0  0  0  0  0  0  0  0
  1  2  3  0
  2  3  1  0
  3  4  1  0
  5  4  1  1
  5  6  1  0
  5 14  1  0
  6  7  2  0
  6 11  1  0
  7  8  1  0
  8  9  2  0
  9 10  1  0
 10 11  2  0
 11 12  1  0
 12 13  1  0
 13 14  1  0
 14 15  1  6
 15 16  1  0
 16 17  1  1
 16 18  1  0
 18 19  1  0
 19 20  1  0
 20 21  2  0
 20 47  1  0
 21 22  1  0
 22 23  2  0
 23 24  1  0
 23 46  1  0
 24 25  1  0
 25 26  2  0
 25 27  1  0
 27 28  1  0
 28 29  1  6
 28 36  1  0
 29 30  1  0
 30 31  1  0
 30 34  1  0
 31 32  1  0
 32 33  1  0
 33 34  1  0
 34 35  2  0
 36 37  1  6
 36 40  1  0
 37 38  1  0
 38 39  1  0
 41 40  1  6
 41 42  1  0
 41 45  1  0
 42 43  1  0
 43 44  1  0
 44 45  1  0
 46 47  2  0
M  CHG  1  14   1
M  END
