
     RDKit          3D

 47 50  0  0  0  0  0  0  0  0999 V2000
    9.4000   -0.5390    2.5560 C   0  0  0  0  0  0  0  0  0  0  0  0
    8.4230    0.2040    1.6710 C   0  0  2  0  0  0  0  0  0  0  0  0
    9.1060    1.3500    0.9420 C   0  0  0  0  0  0  0  0  0  0  0  0
    7.2720    0.7290    2.4960 C   0  0  0  0  0  0  0  0  0  0  0  0
    7.8760   -0.6890    0.6230 C   0  0  0  0  0  0  0  0  0  0  0  0
    8.6630   -1.6390    0.0260 C   0  0  0  0  0  0  0  0  0  0  0  0
    8.1560   -2.4540   -0.9470 C   0  0  0  0  0  0  0  0  0  0  0  0
    6.8260   -2.3710   -1.3870 C   0  0  0  0  0  0  0  0  0  0  0  0
    6.3770   -3.2920   -2.4010 C   0  0  0  0  0  0  0  0  0  0  0  0
    5.2530   -3.4050   -2.8930 O   0  0  0  0  0  0  0  0  0  0  0  0
    6.0190   -1.4210   -0.7990 C   0  0  0  0  0  0  0  0  0  0  0  0
    4.6920   -1.2440   -1.2330 N   0  0  0  0  0  0  0  0  0  0  0  0
    3.6770   -0.4690   -0.6120 C   0  0  0  0  0  0  0  0  0  0  0  0
    3.9230    0.1350    0.4420 O   0  0  0  0  0  0  0  0  0  0  0  0
    2.3560   -0.4310   -1.2870 C   0  0  0  0  0  0  0  0  0  0  0  0
    1.4910    0.6410   -0.6740 C   0  0  2  0  0  0  0  0  0  0  0  0
    0.1670    0.6290   -1.3400 N   0  0  0  0  0  0  0  0  0  0  0  0
   -0.8260    0.3600   -0.3380 C   0  0  0  0  0  0  0  0  0  0  0  0
   -2.2050    0.2240   -0.9280 C   0  0  1  0  0  0  0  0  0  0  0  0
   -2.4160   -0.8280   -1.9210 C   0  0  0  0  0  0  0  0  0  0  0  0
   -3.4620   -1.8450   -1.7030 C   0  0  0  0  0  0  0  0  0  0  0  0
   -3.4250   -2.5050   -0.3530 C   0  0  0  0  0  0  0  0  0  0  0  0
   -2.1230   -2.8120    0.0520 C   0  0  0  0  0  0  0  0  0  0  0  0
   -1.9360   -3.4570    1.2280 C   0  0  0  0  0  0  0  0  0  0  0  0
   -3.0290   -3.7960    1.9920 C   0  0  0  0  0  0  0  0  0  0  0  0
   -4.3000   -3.4910    1.5840 C   0  0  0  0  0  0  0  0  0  0  0  0
   -4.5640   -2.8150    0.3670 C   0  0  0  0  0  0  0  0  0  0  0  0
   -5.9000   -2.5850    0.0870 N   0  0  0  0  0  0  0  0  0  0  0  0
   -6.8370   -1.5370    0.0290 C   0  0  0  0  0  0  0  0  0  0  0  0
   -7.6390   -1.7450   -1.0080 O   0  0  0  0  0  0  0  0  0  0  0  0
   -7.2340   -0.3230    0.7110 C   0  0  0  0  0  0  0  0  0  0  0  0
   -8.4350   -0.5030    1.5050 C   0  0  0  0  0  0  0  0  0  0  0  0
   -9.0360    0.4250    2.2600 C   0  0  0  0  0  0  0  0  0  0  0  0
   -8.4790    1.6680    2.2950 C   0  0  0  0  0  0  0  0  0  0  0  0
   -7.3390    1.9240    1.5640 C   0  0  0  0  0  0  0  0  0  0  0  0
   -6.7020    0.9470    0.7660 C   0  0  0  0  0  0  0  0  0  0  0  0
   -5.6210    1.5580    0.0230 N   0  0  0  0  0  0  0  0  0  0  0  0
   -5.7740    3.0210   -0.3710 C   0  0  0  0  0  0  0  0  0  0  0  0
   -5.0600    3.9480    0.5290 C   0  0  0  0  0  0  0  0  0  0  0  0
   -5.2820    5.3440    0.1150 N   0  0  0  0  0  0  0  0  0  0  0  0
   -4.4520    0.9920   -0.4980 C   0  0  0  0  0  0  0  0  0  0  0  0
   -4.4260    0.9830   -1.8020 O   0  0  0  0  0  0  0  0  0  0  0  0
   -3.2410    0.4080    0.1450 C   0  0  0  0  0  0  0  0  0  0  0  0
    2.0730    2.0180   -0.8820 C   0  0  0  0  0  0  0  0  0  0  0  0
    3.3170    2.4580   -0.4220 N   0  0  0  0  0  0  0  0  0  0  0  0
    1.3790    2.8610   -1.5340 O   0  0  0  0  0  0  0  0  0  0  0  0
    6.5490   -0.6140    0.1760 C   0  0  0  0  0  0  0  0  0  0  0  0
  2  1  1  1
  2  3  1  0
  2  4  1  0
  2  5  1  0
  5  6  2  0
  5 47  1  0
  6  7  1  0
  7  8  2  0
  8  9  1  0
  8 11  1  0
  9 10  2  0
 11 12  1  0
 11 47  2  0
 12 13  1  0
 13 14  2  0
 13 15  1  0
 16 15  1  6
 16 17  1  0
 16 44  1  0
 17 18  1  0
 19 18  1  1
 19 20  1  0
 19 43  1  0
 20 21  1  0
 21 22  1  0
 22 23  2  0
 22 27  1  0
 23 24  1  0
 24 25  2  0
 25 26  1  0
 26 27  2  0
 27 28  1  0
 28 29  1  0
 29 30  2  0
 29 31  1  0
 31 32  2  0
 31 36  1  0
 32 33  1  0
 33 34  2  0
 34 35  1  0
 35 36  2  0
 36 37  1  0
 37 38  1  0
 37 41  1  0
 38 39  1  0
 39 40  1  0
 41 42  2  0
 41 43  1  0
 44 45  1  0
 44 46  2  0
M  CHG  2  17   1  40   1
M  END
