
     RDKit          3D

 47 51  0  0  0  0  0  0  0  0999 V2000
    0.8500    8.9260    0.7420 C   0  0  0  0  0  0  0  0  0  0  0  0
    0.6200    7.5650    0.1720 C   0  0  0  0  0  0  0  0  0  0  0  0
    1.0340    6.4500    0.8870 C   0  0  0  0  0  0  0  0  0  0  0  0
    0.8330    5.1850    0.3830 C   0  0  0  0  0  0  0  0  0  0  0  0
    0.2070    5.0870   -0.8530 C   0  0  0  0  0  0  0  0  0  0  0  0
   -0.0180    3.7080   -1.4010 C   0  0  1  0  0  0  0  0  0  0  0  0
   -1.5160    3.3800   -1.3750 C   0  0  0  0  0  0  0  0  0  0  0  0
   -1.9620    2.8860   -0.0600 C   0  0  0  0  0  0  0  0  0  0  0  0
   -1.9350    3.7340    0.9050 O   0  0  0  0  0  0  0  0  0  0  0  0
   -2.4130    1.6000    0.2610 N   0  0  0  0  0  0  0  0  0  0  0  0
   -2.5400    1.2190    1.6590 C   0  0  0  0  0  0  0  0  0  0  0  0
   -4.0070    0.9750    1.9290 C   0  0  0  0  0  0  0  0  0  0  0  0
   -4.4630   -0.1380    1.0290 C   0  0  0  0  0  0  0  0  0  0  0  0
   -4.2080    0.1370   -0.4220 C   0  0  0  0  0  0  0  0  0  0  0  0
   -2.8050    0.5620   -0.7200 C   0  0  2  0  0  0  0  0  0  0  0  0
   -1.7550   -0.4680   -0.8660 C   0  0  2  0  0  0  0  0  0  0  0  0
   -1.9210   -1.8250   -0.3540 C   0  0  0  0  0  0  0  0  0  0  0  0
   -2.9460   -2.6750   -0.8750 N   0  0  0  0  0  0  0  0  0  0  0  0
   -3.1450   -4.0020   -0.3180 C   0  0  0  0  0  0  0  0  0  0  0  0
   -2.4000   -4.3770    0.6210 O   0  0  0  0  0  0  0  0  0  0  0  0
   -4.1090   -4.8620   -0.7700 O   0  0  0  0  0  0  0  0  0  0  0  0
   -4.3180   -6.1580   -0.2380 C   0  0  1  0  0  0  0  0  0  0  0  0
   -5.4660   -6.7770   -1.0030 C   0  0  0  0  0  0  0  0  0  0  0  0
   -3.0950   -7.0210   -0.4080 C   0  0  0  0  0  0  0  0  0  0  0  0
   -4.6810   -6.1320    1.2140 C   0  0  0  0  0  0  0  0  0  0  0  0
   -0.4070    0.0610   -0.3680 C   0  0  0  0  0  0  0  0  0  0  0  0
    0.6830   -0.0570   -1.4060 C   0  0  0  0  0  0  0  0  0  0  0  0
    1.9580    0.5440   -0.9280 C   0  0  0  0  0  0  0  0  0  0  0  0
    2.3800    0.0980    0.2560 C   0  0  0  0  0  0  0  0  0  0  0  0
    3.5980    0.5320    0.9360 C   0  0  1  0  0  0  0  0  0  0  0  0
    4.5050   -0.6430    1.3450 C   0  0  1  0  0  0  0  0  0  0  0  0
    3.7580   -1.5160    2.2740 C   0  0  0  0  0  0  0  0  0  0  0  0
    3.5550   -2.9270    1.8110 C   0  0  0  0  0  0  0  0  0  0  0  0
    4.8800   -3.4700    1.3600 C   0  0  2  0  0  0  0  0  0  0  0  0
    5.8990   -3.4270    2.3810 N   0  0  0  0  0  0  0  0  0  0  0  0
    5.2560   -2.7340    0.1190 C   0  0  0  0  0  0  0  0  0  0  0  0
    5.0870   -1.2710    0.1370 C   0  0  0  0  0  0  0  0  0  0  0  0
    4.3240    1.5220    0.1450 C   0  0  0  0  0  0  0  0  0  0  0  0
    5.4270    2.0330    0.5490 O   0  0  0  0  0  0  0  0  0  0  0  0
    3.8350    1.9850   -1.1490 C   0  0  0  0  0  0  0  0  0  0  0  0
    2.7010    1.5330   -1.6890 C   0  0  0  0  0  0  0  0  0  0  0  0
    2.3670    2.0590   -2.9680 N   0  0  0  0  0  0  0  0  0  0  0  0
    1.1320    2.6050   -3.3920 C   0  0  0  0  0  0  0  0  0  0  0  0
    0.6470    2.1140   -4.4790 O   0  0  0  0  0  0  0  0  0  0  0  0
    0.3520    3.6150   -2.7990 N   0  0  0  0  0  0  0  0  0  0  0  0
   -0.2060    6.1910   -1.5650 C   0  0  0  0  0  0  0  0  0  0  0  0
   -0.0020    7.4570   -1.0540 C   0  0  0  0  0  0  0  0  0  0  0  0
  1  2  1  0
  2  3  2  0
  2 47  1  0
  3  4  1  0
  4  5  2  0
  6  5  1  6
  5 46  1  0
  6  7  1  0
  6 45  1  0
  7  8  1  0
  8  9  2  0
  8 10  1  0
 10 11  1  0
 10 15  1  0
 11 12  1  0
 12 13  1  0
 13 14  1  0
 15 14  1  1
 15 16  1  0
 16 17  1  1
 16 26  1  0
 17 18  1  0
 18 19  1  0
 19 20  2  0
 19 21  1  0
 21 22  1  0
 22 23  1  6
 22 24  1  0
 22 25  1  0
 26 27  1  0
 27 28  1  0
 28 29  2  0
 28 41  1  0
 30 29  1  6
 30 31  1  0
 30 38  1  0
 31 32  1  6
 31 37  1  0
 32 33  1  0
 33 34  1  0
 34 35  1  1
 34 36  1  0
 36 37  1  0
 38 39  2  0
 38 40  1  0
 40 41  2  0
 41 42  1  0
 42 43  1  0
 43 44  2  0
 43 45  1  0
 46 47  2  0
M  CHG  1  35   1
M  END
