
     RDKit          3D

 39 42  0  0  0  0  0  0  0  0999 V2000
   -2.4090    3.3570    0.9450 C   0  0  0  0  0  0  0  0  0  0  0  0
   -3.2570    2.1340    0.8800 C   0  0  0  0  0  0  0  0  0  0  0  0
   -4.3740    1.4500    2.1190 S   0  0  0  0  0  0  0  0  0  0  0  0
   -4.8840    0.0360    0.9700 C   0  0  0  0  0  0  0  0  0  0  0  0
   -5.9950   -0.7840    1.4230 C   0  0  0  0  0  0  0  0  0  0  0  0
   -6.4160   -0.8270    2.4730 O   0  0  0  0  0  0  0  0  0  0  0  0
   -6.3820   -1.5010    0.1890 N   0  0  0  0  0  0  0  0  0  0  0  0
   -5.7620   -1.2650   -0.7530 C   0  0  0  0  0  0  0  0  0  0  0  0
   -6.1670   -1.9760   -1.9280 O   0  0  0  0  0  0  0  0  0  0  0  0
   -4.7250   -0.5250   -1.2120 N   0  0  0  0  0  0  0  0  0  0  0  0
   -4.2580    0.2650    0.0560 C   0  0  0  0  0  0  0  0  0  0  0  0
   -3.3420    1.2660   -0.2770 C   0  0  0  0  0  0  0  0  0  0  0  0
   -2.6180    1.5630   -1.5190 C   0  0  0  0  0  0  0  0  0  0  0  0
   -1.9190    0.3240   -2.0090 N   0  0  0  0  0  0  0  0  0  0  0  0
   -0.9080   -0.1020   -1.1370 C   0  0  0  0  0  0  0  0  0  0  0  0
   -0.8910    0.5960   -0.0140 O   0  0  0  0  0  0  0  0  0  0  0  0
    0.0540   -1.0500   -1.2060 O   0  0  0  0  0  0  0  0  0  0  0  0
    0.9650   -1.2200   -0.0750 C   0  0  2  0  0  0  0  0  0  0  0  0
    0.1670   -1.8780    1.0750 C   0  0  0  0  0  0  0  0  0  0  0  0
   -0.1120   -3.2700    0.7350 C   0  0  0  0  0  0  0  0  0  0  0  0
   -0.9670   -4.1410    1.7180 C   0  0  0  0  0  0  0  0  0  0  0  0
   -0.7290   -5.3660    1.3690 C   0  0  0  0  0  0  0  0  0  0  0  0
   -0.4550   -6.6700    0.9820 N   0  0  0  0  0  0  0  0  0  0  0  0
    1.5990    0.0130    0.4050 C   0  0  0  0  0  0  0  0  0  0  0  0
    1.1250    0.8870    1.2430 O   0  0  0  0  0  0  0  0  0  0  0  0
    2.9020    0.1570   -0.1850 C   0  0  0  0  0  0  0  0  0  0  0  0
    3.7610    1.1730   -0.2760 C   0  0  0  0  0  0  0  0  0  0  0  0
    3.3990    2.4000    0.3290 O   0  0  0  0  0  0  0  0  0  0  0  0
    4.3440    3.4400    0.2110 C   0  0  0  0  0  0  0  0  0  0  0  0
    5.3880    3.2040   -0.4090 O   0  0  0  0  0  0  0  0  0  0  0  0
    4.1060    4.7270    0.7810 N   0  0  0  0  0  0  0  0  0  0  0  0
    5.0640    5.6610    0.6060 N   0  0  0  0  0  0  0  0  0  0  0  0
    5.8780    6.3830    0.5840 N   0  0  0  0  0  0  0  0  0  0  0  0
    4.9490    1.0720   -0.9180 O   0  0  0  0  0  0  0  0  0  0  0  0
    5.1810    0.3810   -2.0890 C   0  0  0  0  0  0  0  0  0  0  0  0
    4.0220   -1.0260   -2.2950 S   0  0  0  0  0  0  0  0  0  0  0  0
    3.2880   -1.2030   -0.6670 C   0  0  2  0  0  0  0  0  0  0  0  0
    2.1140   -2.0660   -0.5390 C   0  0  1  0  0  0  0  0  0  0  0  0
    2.5280   -3.0560    0.4610 N   0  0  0  0  0  0  0  0  0  0  0  0
  1  2  1  0
  2  3  1  0
  2 12  2  0
  3  4  1  0
  4  5  1  0
  4 11  2  0
  5  6  2  0
  5  7  1  0
  7  8  1  0
  8  9  2  0
  8 10  1  0
 10 11  1  0
 11 12  1  0
 12 13  1  0
 13 14  1  0
 14 15  1  0
 15 16  2  0
 15 17  1  0
 17 18  1  0
 18 19  1  1
 18 24  1  0
 18 38  1  0
 19 20  1  0
 20 21  1  0
 21 22  1  0
 22 23  3  0
 24 25  2  0
 24 26  1  0
 26 27  2  0
 26 37  1  0
 27 28  1  0
 27 34  1  0
 28 29  1  0
 29 30  2  0
 29 31  1  0
 31 32  1  0
 32 33  2  0
 34 35  1  0
 35 36  1  0
 37 36  1  6
 37 38  1  0
 38 39  1  1
M  END
