
     RDKit          3D

 39 42  0  0  0  0  0  0  0  0999 V2000
    1.1100   -4.1970   -2.0980 C   0  0  0  0  0  0  0  0  0  0  0  0
    1.7580   -3.3190   -1.1640 O   0  0  0  0  0  0  0  0  0  0  0  0
    1.0330   -2.3920   -0.4430 C   0  0  0  0  0  0  0  0  0  0  0  0
    0.0320   -2.8180    0.3550 C   0  0  0  0  0  0  0  0  0  0  0  0
   -0.7210   -1.9110    1.0980 N   0  0  0  0  0  0  0  0  0  0  0  0
   -2.0140   -1.3710    0.9260 C   0  0  0  0  0  0  0  0  0  0  0  0
   -2.6740   -0.1930    2.1180 S   0  0  0  0  0  0  0  0  0  0  0  0
   -4.2290    0.0310    1.3110 C   0  0  0  0  0  0  0  0  0  0  0  0
   -4.1720   -0.7510    0.2440 C   0  0  0  0  0  0  0  0  0  0  0  0
   -3.0330   -1.4910    0.0190 C   0  0  0  0  0  0  0  0  0  0  0  0
   -2.8760   -2.3910   -1.1590 C   0  0  0  0  0  0  0  0  0  0  0  0
   -3.8990   -2.5370   -2.1310 N   0  0  0  0  0  0  0  0  0  0  0  0
   -1.8740   -3.0660   -1.3830 O   0  0  0  0  0  0  0  0  0  0  0  0
   -5.4190   -0.7600   -0.6540 C   0  0  0  0  0  0  0  0  0  0  0  0
   -6.5550   -0.1790    0.0830 C   0  0  0  0  0  0  0  0  0  0  0  0
   -6.2430    1.2030    0.6300 C   0  0  1  0  0  0  0  0  0  0  0  0
   -7.5410    1.8260    1.0390 C   0  0  0  0  0  0  0  0  0  0  0  0
   -7.3970    3.1880    1.5920 C   0  0  0  0  0  0  0  0  0  0  0  0
   -6.1350    3.8160    1.6800 N   0  0  0  0  0  0  0  0  0  0  0  0
   -8.4060    3.8080    1.9950 O   0  0  0  0  0  0  0  0  0  0  0  0
   -5.3440    0.9430    1.7980 C   0  0  0  0  0  0  0  0  0  0  0  0
    1.3450   -0.9850   -0.5420 C   0  0  0  0  0  0  0  0  0  0  0  0
    0.7670    0.0640    0.0690 N   0  0  0  0  0  0  0  0  0  0  0  0
    1.3540    1.1630   -0.3000 O   0  0  0  0  0  0  0  0  0  0  0  0
    2.3160    0.8890   -1.1460 C   0  0  0  0  0  0  0  0  0  0  0  0
    3.2280    1.8740   -1.8030 C   0  0  0  0  0  0  0  0  0  0  0  0
    4.3980    2.0660   -0.9680 N   0  0  0  0  0  0  0  0  0  0  0  0
    5.2540    0.9840   -0.6450 C   0  0  0  0  0  0  0  0  0  0  0  0
    4.9830   -0.1570   -1.0970 O   0  0  0  0  0  0  0  0  0  0  0  0
    6.3960    1.2070    0.1790 N   0  0  0  0  0  0  0  0  0  0  0  0
    7.2680    0.0650    0.4980 C   0  0  1  0  0  0  0  0  0  0  0  0
    8.5820    0.2850   -0.0670 N   0  0  0  0  0  0  0  0  0  0  0  0
    9.4700    1.5190    0.8260 S   0  0  0  0  0  0  0  0  0  0  0  0
    8.8690    2.8770    0.4800 O   0  0  0  0  0  0  0  0  0  0  0  0
    9.2290    1.1770    2.5620 C   0  0  0  0  0  0  0  0  0  0  0  0
    7.9850    0.6180    2.8540 O   0  0  0  0  0  0  0  0  0  0  0  0
    7.2760   -0.1590    1.9570 C   0  0  0  0  0  0  0  0  0  0  0  0
    6.5960   -1.1230    2.4510 O   0  0  0  0  0  0  0  0  0  0  0  0
    2.3140   -0.4530   -1.3010 N   0  0  0  0  0  0  0  0  0  0  0  0
  1  2  1  0
  2  3  1  0
  3  4  2  3
  3 22  1  0
  4  5  1  0
  5  6  1  0
  6  7  1  0
  6 10  2  0
  7  8  1  0
  8  9  2  0
  8 21  1  0
  9 10  1  0
  9 14  1  0
 10 11  1  0
 11 12  1  0
 11 13  2  0
 14 15  1  0
 15 16  1  0
 16 17  1  1
 16 21  1  0
 17 18  1  0
 18 19  1  0
 18 20  2  0
 22 23  2  0
 22 39  1  0
 23 24  1  0
 24 25  1  0
 25 26  1  0
 25 39  2  0
 26 27  1  0
 27 28  1  0
 28 29  2  0
 28 30  1  0
 31 30  1  1
 31 32  1  0
 31 37  1  0
 32 33  1  0
 33 34  2  0
 33 35  1  1
 35 36  1  0
 36 37  1  0
 37 38  2  0
M  END
