
     RDKit          3D

 39 42  0  0  0  0  0  0  0  0999 V2000
    3.2340   -1.5700   -1.2530 C   0  0  0  0  0  0  0  0  0  0  0  0
    3.2130   -1.0800    0.1900 C   0  0  2  0  0  0  0  0  0  0  0  0
    2.1320   -0.1230    0.2760 N   0  0  0  0  0  0  0  0  0  0  0  0
    0.9810   -0.2930    1.0620 C   0  0  0  0  0  0  0  0  0  0  0  0
    0.8720   -1.3420    1.7390 O   0  0  0  0  0  0  0  0  0  0  0  0
   -0.0800    0.7240    1.1010 C   0  0  0  0  0  0  0  0  0  0  0  0
    0.0530    1.7700    0.4130 O   0  0  0  0  0  0  0  0  0  0  0  0
   -1.2390    0.5740    1.8780 N   0  0  0  0  0  0  0  0  0  0  0  0
   -2.2870    1.5120    1.9550 C   0  0  0  0  0  0  0  0  0  0  0  0
   -3.5330    1.3200    1.6360 C   0  0  0  0  0  0  0  0  0  0  0  0
   -4.3580    2.5190    1.8420 C   0  0  2  0  0  0  0  0  0  0  0  0
   -4.8240    2.9970    0.4630 C   0  0  0  0  0  0  0  0  0  0  0  0
   -5.6040    1.9020   -0.1400 C   0  0  0  0  0  0  0  0  0  0  0  0
   -6.9630    1.8270    0.0650 C   0  0  0  0  0  0  0  0  0  0  0  0
   -7.6830    0.8070   -0.4970 C   0  0  0  0  0  0  0  0  0  0  0  0
   -7.0930   -0.1740   -1.2800 C   0  0  0  0  0  0  0  0  0  0  0  0
   -5.7490   -0.0940   -1.4780 C   0  0  0  0  0  0  0  0  0  0  0  0
   -5.0130    0.9310   -0.9160 C   0  0  0  0  0  0  0  0  0  0  0  0
   -4.9370   -0.9940   -2.2460 N   0  0  0  0  0  0  0  0  0  0  0  0
   -5.3030   -2.6210   -2.5970 S   0  0  1  0  0  0  0  0  0  0  0  0
   -4.5040   -3.0160   -3.8280 O   0  0  0  0  0  0  0  0  0  0  0  0
   -4.8280   -3.4970   -1.4600 O   0  0  0  0  0  0  0  0  0  0  0  0
   -6.9540   -2.8550   -2.9380 N   0  0  0  0  0  0  0  0  0  0  0  0
   -7.9490   -2.2130   -2.5580 N   0  0  0  0  0  0  0  0  0  0  0  0
   -8.0340   -1.1050   -1.7400 N   0  0  0  0  0  0  0  0  0  0  0  0
   -3.4590    3.5180    2.3420 N   0  0  0  0  0  0  0  0  0  0  0  0
   -2.1670    2.8840    2.4110 C   0  0  0  0  0  0  0  0  0  0  0  0
   -1.1280    3.4680    2.8100 O   0  0  0  0  0  0  0  0  0  0  0  0
    4.4720   -0.3930    0.5450 C   0  0  0  0  0  0  0  0  0  0  0  0
    4.4390    0.8230    0.8450 O   0  0  0  0  0  0  0  0  0  0  0  0
    5.7120   -1.0160    0.5690 O   0  0  0  0  0  0  0  0  0  0  0  0
    6.9020   -0.3140    0.9170 C   0  0  1  0  0  0  0  0  0  0  0  0
    7.4740   -1.0330    2.1320 C   0  0  0  0  0  0  0  0  0  0  0  0
    7.8270   -0.3600   -0.2520 C   0  0  2  0  0  0  0  0  0  0  0  0
    6.9550    0.4480   -1.6510 S   0  0  0  0  0  0  0  0  0  0  0  0
    7.0470   -0.9370   -2.8480 C   0  0  0  0  0  0  0  0  0  0  0  0
    8.0010   -1.7980   -2.1770 N   0  0  0  0  0  0  0  0  0  0  0  0
    7.9210   -1.7430   -0.7840 C   0  0  0  0  0  0  0  0  0  0  0  0
    7.9260   -2.7610   -0.0250 O   0  0  0  0  0  0  0  0  0  0  0  0
  2  1  1  6
  2  3  1  0
  2 29  1  0
  3  4  1  0
  4  5  2  0
  4  6  1  0
  6  7  2  0
  6  8  1  0
  8  9  1  0
  9 10  2  0
  9 27  1  0
 10 11  1  0
 11 12  1  6
 11 26  1  0
 12 13  1  0
 13 14  2  0
 13 18  1  0
 14 15  1  0
 15 16  2  0
 16 17  1  0
 16 25  1  0
 17 18  2  0
 17 19  1  0
 20 19  1  1
 20 21  2  0
 20 22  2  0
 20 23  1  0
 23 24  2  0
 24 25  1  0
 26 27  1  0
 27 28  2  0
 29 30  2  0
 29 31  1  0
 31 32  1  0
 32 33  1  1
 32 34  1  0
 34 35  1  6
 34 38  1  0
 35 36  1  0
 36 37  1  0
 37 38  1  0
 38 39  2  0
M  END
