
     RDKit          3D

 39 42  0  0  0  0  0  0  0  0999 V2000
    0.7120    2.8740    3.5970 C   0  0  0  0  0  0  0  0  0  0  0  0
    1.8730    3.1270    2.8330 O   0  0  0  0  0  0  0  0  0  0  0  0
    2.7990    2.1350    2.5150 C   0  0  0  0  0  0  0  0  0  0  0  0
    3.8740    1.6190    3.1990 C   0  0  0  0  0  0  0  0  0  0  0  0
    4.5840    0.6530    2.6120 C   0  0  0  0  0  0  0  0  0  0  0  0
    4.2190    0.2210    1.3730 C   0  0  0  0  0  0  0  0  0  0  0  0
    4.8520   -0.8190    0.5540 C   0  0  0  0  0  0  0  0  0  0  0  0
    5.9220   -1.4700    0.9640 N   0  0  0  0  0  0  0  0  0  0  0  0
    6.4950   -2.4350    0.1920 C   0  0  0  0  0  0  0  0  0  0  0  0
    7.5030   -3.0370    0.5970 O   0  0  0  0  0  0  0  0  0  0  0  0
    6.0000   -2.7660   -1.0120 N   0  0  0  0  0  0  0  0  0  0  0  0
    4.9110   -2.1180   -1.4530 C   0  0  0  0  0  0  0  0  0  0  0  0
    4.4090   -2.3990   -2.5880 O   0  0  0  0  0  0  0  0  0  0  0  0
    4.3140   -1.1210   -0.6640 C   0  0  0  0  0  0  0  0  0  0  0  0
    3.1590   -0.4350   -1.1060 N   0  0  0  0  0  0  0  0  0  0  0  0
    1.8360   -0.8950   -0.8800 C   0  0  0  0  0  0  0  0  0  0  0  0
    1.7190   -1.9840   -0.2450 O   0  0  0  0  0  0  0  0  0  0  0  0
    0.6490   -0.1620   -1.3510 C   0  0  0  0  0  0  0  0  0  0  0  0
    0.8270    0.9120   -1.9700 O   0  0  0  0  0  0  0  0  0  0  0  0
   -0.6620   -0.6370   -1.1230 N   0  0  0  0  0  0  0  0  0  0  0  0
   -1.8210    0.0580   -1.5660 C   0  0  1  0  0  0  0  0  0  0  0  0
   -2.6410   -0.8550   -2.4520 C   0  0  2  0  0  0  0  0  0  0  0  0
   -2.5620   -0.2740   -3.8190 C   0  0  0  0  0  0  0  0  0  0  0  0
   -2.7870    0.6970   -4.4710 N   0  0  0  0  0  0  0  0  0  0  0  0
   -2.5630    0.8350   -5.7310 N   0  0  0  0  0  0  0  0  0  0  0  0
   -2.0770   -0.0410   -6.4380 C   0  0  0  0  0  0  0  0  0  0  0  0
   -1.8580   -1.3840   -5.1140 S   0  0  0  0  0  0  0  0  0  0  0  0
   -4.0910   -0.7040   -2.0370 C   0  0  0  0  0  0  0  0  0  0  0  0
   -4.0850    0.4800   -1.0560 C   0  0  0  0  0  0  0  0  0  0  0  0
   -2.7790    0.3710   -0.3730 C   0  0  1  0  0  0  0  0  0  0  0  0
   -2.5290   -0.5670    0.7160 C   0  0  0  0  0  0  0  0  0  0  0  0
   -3.3220   -0.4510    1.8910 N   0  0  0  0  0  0  0  0  0  0  0  0
   -4.6990   -0.7480    2.0340 C   0  0  0  0  0  0  0  0  0  0  0  0
   -5.3750   -1.1870    1.1010 O   0  0  0  0  0  0  0  0  0  0  0  0
   -5.3650   -0.5560    3.2550 O   0  0  0  0  0  0  0  0  0  0  0  0
   -2.3820    1.7380    0.1000 C   0  0  0  0  0  0  0  0  0  0  0  0
   -3.0310    2.3590    1.1990 N   0  0  0  0  0  0  0  0  0  0  0  0
   -1.4630    2.3470   -0.4830 O   0  0  0  0  0  0  0  0  0  0  0  0
    2.8560    1.1680    0.9910 S   0  0  0  0  0  0  0  0  0  0  0  0
  1  2  1  0
  2  3  1  0
  3  4  2  0
  3 39  1  0
  4  5  1  0
  5  6  2  0
  6  7  1  0
  6 39  1  0
  7  8  1  0
  7 14  2  0
  8  9  1  0
  9 10  2  0
  9 11  1  0
 11 12  1  0
 12 13  2  0
 12 14  1  0
 14 15  1  0
 15 16  1  0
 16 17  2  0
 16 18  1  0
 18 19  2  0
 18 20  1  0
 21 20  1  1
 21 22  1  0
 21 30  1  0
 22 23  1  6
 22 28  1  0
 23 24  2  0
 23 27  1  0
 24 25  1  0
 25 26  2  0
 26 27  1  0
 28 29  1  0
 29 30  1  0
 30 31  1  1
 30 36  1  0
 31 32  1  0
 32 33  1  0
 33 34  2  0
 33 35  1  0
 36 37  1  0
 36 38  2  0
M  END
