
     RDKit          3D

 39 42  0  0  0  0  0  0  0  0999 V2000
   -9.9750    1.0090    0.5530 C   0  0  0  0  0  0  0  0  0  0  0  0
   -8.6700    0.3460    0.1600 C   0  0  0  0  0  0  0  0  0  0  0  0
   -8.4630   -0.8380    1.0810 C   0  0  1  0  0  0  0  0  0  0  0  0
   -9.5320   -1.8230    0.9960 C   0  0  0  0  0  0  0  0  0  0  0  0
  -10.7610   -1.7210    1.2860 O   0  0  0  0  0  0  0  0  0  0  0  0
   -8.9800   -3.0570    0.4910 N   0  0  0  0  0  0  0  0  0  0  0  0
   -7.5940   -2.8610    0.3500 C   0  0  0  0  0  0  0  0  0  0  0  0
   -6.7680   -3.7280   -0.0720 O   0  0  0  0  0  0  0  0  0  0  0  0
   -7.2640   -1.5640    0.7460 N   0  0  0  0  0  0  0  0  0  0  0  0
   -5.9850   -0.9570    0.8390 N   0  0  0  0  0  0  0  0  0  0  0  0
   -5.3180   -0.5170   -0.3300 C   0  0  0  0  0  0  0  0  0  0  0  0
   -5.8750   -0.6690   -1.4410 O   0  0  0  0  0  0  0  0  0  0  0  0
   -4.0110    0.0960   -0.2020 C   0  0  0  0  0  0  0  0  0  0  0  0
   -3.4630    0.2070    0.9620 O   0  0  0  0  0  0  0  0  0  0  0  0
   -3.2470    0.6010   -1.2670 N   0  0  0  0  0  0  0  0  0  0  0  0
   -1.9420    1.1620   -1.0830 C   0  0  0  0  0  0  0  0  0  0  0  0
   -1.1690    1.3840   -0.2590 N   0  0  0  0  0  0  0  0  0  0  0  0
    0.0310    1.9060   -0.3030 C   0  0  0  0  0  0  0  0  0  0  0  0
    0.8070    2.0880    0.9450 C   0  0  0  0  0  0  0  0  0  0  0  0
    1.9330    2.9250    1.0530 N   0  0  0  0  0  0  0  0  0  0  0  0
    0.4790    1.4770    2.0280 O   0  0  0  0  0  0  0  0  0  0  0  0
    0.5050    2.2680   -1.5130 C   0  0  0  0  0  0  0  0  0  0  0  0
    1.9420    2.8090   -2.2890 S   0  0  0  0  0  0  0  0  0  0  0  0
    3.4860    2.8550   -1.4730 C   0  0  0  0  0  0  0  0  0  0  0  0
    3.8530    1.4540   -1.0820 C   0  0  0  0  0  0  0  0  0  0  0  0
    3.0570    0.5470   -1.3540 O   0  0  0  0  0  0  0  0  0  0  0  0
    5.0400    1.0770   -0.4240 N   0  0  0  0  0  0  0  0  0  0  0  0
    5.2690   -0.2930   -0.1060 C   0  0  1  0  0  0  0  0  0  0  0  0
    6.5210   -0.9360   -0.6500 C   0  0  2  0  0  0  0  0  0  0  0  0
    7.6690   -0.0590   -0.9800 C   0  0  0  0  0  0  0  0  0  0  0  0
    6.2530   -1.9490   -1.7780 C   0  0  0  0  0  0  0  0  0  0  0  0
    6.5890   -1.7130    0.6480 C   0  0  2  0  0  0  0  0  0  0  0  0
    5.6740   -2.8360    0.6120 N   0  0  0  0  0  0  0  0  0  0  0  0
    4.6600   -2.6460    1.3830 C   0  0  0  0  0  0  0  0  0  0  0  0
    4.7880   -1.4140    1.9980 O   0  0  0  0  0  0  0  0  0  0  0  0
    5.6980   -0.6540    1.2690 C   0  0  2  0  0  0  0  0  0  0  0  0
    6.4820    0.3670    2.0460 C   0  0  0  0  0  0  0  0  0  0  0  0
    7.2000   -0.3160    3.0320 O   0  0  0  0  0  0  0  0  0  0  0  0
   -0.9980    1.7720   -2.5830 S   0  0  0  0  0  0  0  0  0  0  0  0
  1  2  1  0
  3  2  1  6
  3  4  1  0
  3  9  1  0
  4  5  2  0
  4  6  1  0
  6  7  1  0
  7  8  2  0
  7  9  1  0
  9 10  1  0
 10 11  1  0
 11 12  2  0
 11 13  1  0
 13 14  2  0
 13 15  1  0
 15 16  1  0
 16 17  2  0
 16 39  1  0
 17 18  1  0
 18 19  1  0
 18 22  2  0
 19 20  1  0
 19 21  2  0
 22 23  1  0
 22 39  1  0
 23 24  1  0
 24 25  1  0
 25 26  2  0
 25 27  1  0
 28 27  1  1
 28 29  1  0
 28 36  1  0
 29 30  1  6
 29 31  1  0
 29 32  1  0
 32 33  1  6
 32 36  1  0
 33 34  2  0
 34 35  1  0
 35 36  1  0
 36 37  1  1
 37 38  1  0
M  END
