
     RDKit          3D

 39 43  0  0  0  0  0  0  0  0999 V2000
    0.6910   -4.5990    0.4730 C   0  0  0  0  0  0  0  0  0  0  0  0
    0.4050   -3.2140    0.4590 O   0  0  0  0  0  0  0  0  0  0  0  0
    1.3770   -2.2620    0.7230 C   0  0  0  0  0  0  0  0  0  0  0  0
    2.6480   -2.6720    1.0030 C   0  0  0  0  0  0  0  0  0  0  0  0
    3.5860   -1.6660    1.2630 C   0  0  0  0  0  0  0  0  0  0  0  0
    3.2790   -0.3310    1.2460 C   0  0  0  0  0  0  0  0  0  0  0  0
    4.2770    0.6310    1.5200 N   0  0  0  0  0  0  0  0  0  0  0  0
    5.6610    0.4710    1.4360 C   0  0  0  0  0  0  0  0  0  0  0  0
    6.1480   -0.6070    1.0440 O   0  0  0  0  0  0  0  0  0  0  0  0
    6.5960    1.5020    1.7850 N   0  0  0  0  0  0  0  0  0  0  0  0
    7.9850    1.2390    1.6660 C   0  0  0  0  0  0  0  0  0  0  0  0
    8.9430    0.4970    1.3780 N   0  0  0  0  0  0  0  0  0  0  0  0
   10.1200   -0.2090    1.1010 N   0  0  0  0  0  0  0  0  0  0  0  0
   10.5630    0.9690    0.5030 C   0  0  1  0  0  0  0  0  0  0  0  0
    9.9560    1.3620   -0.8200 C   0  0  0  0  0  0  0  0  0  0  0  0
    9.6550    1.7660    1.9010 S   0  0  0  0  0  0  0  0  0  0  0  0
    9.5310    3.2370    1.1300 O   0  0  0  0  0  0  0  0  0  0  0  0
    1.9790    0.0140    0.9560 C   0  0  0  0  0  0  0  0  0  0  0  0
    0.9970   -0.9070    0.6880 C   0  0  0  0  0  0  0  0  0  0  0  0
   -0.2810   -0.6540    0.3960 O   0  0  0  0  0  0  0  0  0  0  0  0
   -1.1190    0.3830    0.2180 C   0  0  0  0  0  0  0  0  0  0  0  0
   -2.5270   -0.1930   -0.1230 C   0  0  0  0  0  0  0  0  0  0  0  0
   -2.5890   -1.3820   -0.1950 O   0  0  0  0  0  0  0  0  0  0  0  0
   -3.5950    0.6620   -0.3130 N   0  0  0  0  0  0  0  0  0  0  0  0
   -4.9480    0.6230   -0.6160 C   0  0  0  0  0  0  0  0  0  0  0  0
   -5.7560   -0.3670   -0.8790 C   0  0  0  0  0  0  0  0  0  0  0  0
   -5.3710   -1.7510   -0.8980 C   0  0  0  0  0  0  0  0  0  0  0  0
   -6.4940   -2.6680   -1.2150 N   0  0  0  0  0  0  0  0  0  0  0  0
   -4.3600   -2.3680   -0.7210 O   0  0  0  0  0  0  0  0  0  0  0  0
   -7.1990   -0.1290   -1.3610 C   0  0  2  0  0  0  0  0  0  0  0  0
   -7.0460    0.1680   -2.8470 C   0  0  0  0  0  0  0  0  0  0  0  0
   -8.4700    1.1990   -3.1480 S   0  0  1  0  0  0  0  0  0  0  0  0
   -8.0760    2.4820   -3.7960 O   0  0  0  0  0  0  0  0  0  0  0  0
   -9.5310    0.4700   -3.8950 O   0  0  0  0  0  0  0  0  0  0  0  0
   -9.0100    1.4710   -1.4550 C   0  0  0  0  0  0  0  0  0  0  0  0
   -7.7790    1.0260   -0.6880 C   0  0  2  0  0  0  0  0  0  0  0  0
   -6.8690    2.0660   -0.4360 N   0  0  0  0  0  0  0  0  0  0  0  0
   -5.6290    1.9540   -0.3870 C   0  0  0  0  0  0  0  0  0  0  0  0
   -4.8190    3.1290   -0.1070 N   0  0  0  0  0  0  0  0  0  0  0  0
  1  2  1  0
  2  3  1  0
  3  4  2  0
  3 19  1  0
  4  5  1  0
  5  6  2  0
  6  7  1  0
  6 18  1  0
  7  8  1  0
  8  9  2  0
  8 10  1  0
 10 11  1  0
 11 12  2  0
 11 16  1  0
 12 13  1  0
 12 16  1  0
 13 14  1  0
 14 15  1  6
 14 16  1  0
 16 17  2  0
 18 19  2  0
 19 20  1  0
 20 21  1  0
 21 22  1  0
 22 23  2  0
 22 24  1  0
 24 25  1  0
 25 26  2  0
 25 38  1  0
 26 27  1  0
 26 30  1  0
 27 28  1  0
 27 29  2  0
 30 31  1  6
 30 36  1  0
 32 31  1  1
 32 33  2  0
 32 34  2  0
 32 35  1  0
 36 35  1  6
 36 37  1  0
 37 38  2  0
 38 39  1  0
M  CHG  1  12   1
M  END
