
     RDKit          3D

 34 38  0  0  0  0  0  0  0  0999 V2000
   -3.9970   -4.2600   -1.5250 C   0  0  0  0  0  0  0  0  0  0  0  0
   -4.2880   -2.9700   -0.8630 C   0  0  0  0  0  0  0  0  0  0  0  0
   -5.5490   -2.4270   -0.9730 C   0  0  0  0  0  0  0  0  0  0  0  0
   -5.8630   -1.2270   -0.3720 C   0  0  0  0  0  0  0  0  0  0  0  0
   -4.9140   -0.5550    0.3470 C   0  0  0  0  0  0  0  0  0  0  0  0
   -5.1330    0.7270    0.9310 C   0  0  0  0  0  0  0  0  0  0  0  0
   -5.9300    1.6790    0.7040 C   0  0  0  0  0  0  0  0  0  0  0  0
   -6.9900    1.9670   -0.2430 C   0  0  0  0  0  0  0  0  0  0  0  0
   -7.9390    2.9570   -0.0330 N   0  0  0  0  0  0  0  0  0  0  0  0
   -8.7370    3.0960   -1.0770 C   0  0  0  0  0  0  0  0  0  0  0  0
   -9.7870    3.9590   -1.2500 F   0  0  0  0  0  0  0  0  0  0  0  0
   -8.3260    2.1890   -2.0120 C   0  0  0  0  0  0  0  0  0  0  0  0
   -7.2630    1.5230   -1.4720 N   0  0  0  0  0  0  0  0  0  0  0  0
   -3.6140   -1.1010    0.4710 C   0  0  0  0  0  0  0  0  0  0  0  0
   -2.6530   -0.4460    1.1860 N   0  0  0  0  0  0  0  0  0  0  0  0
   -1.4030   -0.9130    1.3380 C   0  0  0  0  0  0  0  0  0  0  0  0
   -0.3840   -0.1560    2.1390 C   0  0  0  0  0  0  0  0  0  0  0  0
    0.9320   -0.4570    1.5500 N   0  0  0  0  0  0  0  0  0  0  0  0
    1.8720    0.2720    2.3770 C   0  0  0  0  0  0  0  0  0  0  0  0
    3.2530    0.3380    1.7900 C   0  0  0  0  0  0  0  0  0  0  0  0
    3.2540    0.1220    0.3570 N   0  0  2  0  0  0  0  0  0  0  0  0
    4.4410    0.5840   -0.2950 C   0  0  2  0  0  0  0  0  0  0  0  0
    5.3380   -0.5320   -0.7590 C   0  0  0  0  0  0  0  0  0  0  0  0
    6.6800   -0.5260   -0.0320 C   0  0  0  0  0  0  0  0  0  0  0  0
    7.3870    0.6960   -0.2630 N   0  0  0  0  0  0  0  0  0  0  0  0
    8.1790    0.6600   -1.4810 C   0  0  0  0  0  0  0  0  0  0  0  0
    9.3750   -0.6370   -1.3960 Cl  0  0  0  0  0  0  0  0  0  0  0  0
    6.5220    1.8550   -0.2240 C   0  0  0  0  0  0  0  0  0  0  0  0
    5.2460    1.5400    0.5610 C   0  0  0  0  0  0  0  0  0  0  0  0
    2.1180    0.8420   -0.1850 C   0  0  0  0  0  0  0  0  0  0  0  0
    0.8760    0.0700    0.2020 C   0  0  0  0  0  0  0  0  0  0  0  0
   -1.0940   -2.1130    0.7360 C   0  0  0  0  0  0  0  0  0  0  0  0
   -2.0410   -2.8010    0.0060 C   0  0  0  0  0  0  0  0  0  0  0  0
   -3.3350   -2.2920   -0.1360 C   0  0  0  0  0  0  0  0  0  0  0  0
  1  2  1  0
  2  3  2  0
  2 34  1  0
  3  4  1  0
  4  5  2  0
  5  6  1  0
  5 14  1  0
  6  7  2  3
  7  8  1  0
  8  9  2  0
  8 13  1  0
  9 10  1  0
 10 11  1  0
 10 12  2  0
 12 13  1  0
 14 15  2  0
 14 34  1  0
 15 16  1  0
 16 17  1  0
 16 32  2  0
 17 18  1  0
 18 19  1  0
 18 31  1  0
 19 20  1  0
 21 20  1  1
 21 22  1  0
 21 30  1  0
 22 23  1  1
 22 29  1  0
 23 24  1  0
 24 25  1  0
 25 26  1  0
 25 28  1  0
 26 27  1  0
 28 29  1  0
 30 31  1  0
 32 33  1  0
 33 34  2  0
M  CHG  1  21   1
M  END
