
     RDKit          3D

 34 38  0  0  0  0  0  0  0  0999 V2000
   -3.0650   -0.3100   -2.8440 C   0  0  0  0  0  0  0  0  0  0  0  0
   -1.7180   -0.3100   -2.1730 C   0  0  0  0  0  0  0  0  0  0  0  0
   -1.8050   -0.7180   -0.7430 C   0  0  0  0  0  0  0  0  0  0  0  0
   -1.4410    0.0150    0.2360 N   0  0  0  0  0  0  0  0  0  0  0  0
   -0.9000    1.3250    0.0760 C   0  0  0  0  0  0  0  0  0  0  0  0
   -1.5460    2.5340   -0.0020 C   0  0  0  0  0  0  0  0  0  0  0  0
   -0.5650    3.4970   -0.1520 C   0  0  0  0  0  0  0  0  0  0  0  0
    0.5950    2.8340   -0.1560 N   0  0  0  0  0  0  0  0  0  0  0  0
    0.4470    1.5310   -0.0220 N   0  0  0  0  0  0  0  0  0  0  0  0
    1.4600    0.5270    0.0080 C   0  0  0  0  0  0  0  0  0  0  0  0
    2.4780    0.5820   -0.9110 C   0  0  0  0  0  0  0  0  0  0  0  0
    3.5140   -0.3700   -0.9520 C   0  0  0  0  0  0  0  0  0  0  0  0
    3.5130   -1.3930   -0.0440 C   0  0  0  0  0  0  0  0  0  0  0  0
    4.6020   -2.4100   -0.0330 C   0  0  1  0  0  0  0  0  0  0  0  0
    5.4370   -2.3970   -1.2750 C   0  0  0  0  0  0  0  0  0  0  0  0
    6.7770   -1.7740   -0.8230 C   0  0  0  0  0  0  0  0  0  0  0  0
    6.8210   -2.4640    0.5550 C   0  0  0  0  0  0  0  0  0  0  0  0
    5.5070   -2.1960    1.0480 N   0  0  0  0  0  0  0  0  0  0  0  0
    2.4820   -1.4660    0.9030 C   0  0  0  0  0  0  0  0  0  0  0  0
    2.5450   -2.5020    1.7680 F   0  0  0  0  0  0  0  0  0  0  0  0
    1.4900   -0.5140    0.9060 C   0  0  0  0  0  0  0  0  0  0  0  0
   -0.7510    4.8910   -0.2760 N   0  0  0  0  0  0  0  0  0  0  0  0
   -1.8190    5.7330    0.1840 C   0  0  0  0  0  0  0  0  0  0  0  0
   -3.1110    5.1280   -0.3850 C   0  0  0  0  0  0  0  0  0  0  0  0
   -3.4870    4.0060    0.5330 C   0  0  0  0  0  0  0  0  0  0  0  0
   -3.0080    2.6530    0.0680 C   0  0  0  0  0  0  0  0  0  0  0  0
   -2.3140   -2.0090   -0.4510 N   0  0  0  0  0  0  0  0  0  0  0  0
   -3.1060   -2.3290    0.6740 C   0  0  0  0  0  0  0  0  0  0  0  0
   -3.5920   -1.4100    1.5670 C   0  0  0  0  0  0  0  0  0  0  0  0
   -4.3610   -1.7870    2.6660 C   0  0  0  0  0  0  0  0  0  0  0  0
   -4.6660   -3.1150    2.8990 C   0  0  0  0  0  0  0  0  0  0  0  0
   -5.6370   -3.5380    4.2960 Cl  0  0  0  0  0  0  0  0  0  0  0  0
   -4.1790   -4.0300    2.0050 C   0  0  0  0  0  0  0  0  0  0  0  0
   -3.4190   -3.6730    0.9160 C   0  0  0  0  0  0  0  0  0  0  0  0
  1  2  1  0
  2  3  1  0
  3  4  2  3
  3 27  1  0
  4  5  1  0
  5  6  2  0
  5  9  1  0
  6  7  1  0
  6 26  1  0
  7  8  2  0
  7 22  1  0
  8  9  1  0
  9 10  1  0
 10 11  2  0
 10 21  1  0
 11 12  1  0
 12 13  2  0
 14 13  1  6
 13 19  1  0
 14 15  1  0
 14 18  1  0
 15 16  1  0
 16 17  1  0
 17 18  1  0
 19 20  1  0
 19 21  2  0
 22 23  1  0
 23 24  1  0
 24 25  1  0
 25 26  1  0
 27 28  1  0
 28 29  2  0
 28 34  1  0
 29 30  1  0
 30 31  2  0
 31 32  1  0
 31 33  1  0
 33 34  2  0
M  CHG  1  18   1
M  END
