
     RDKit          3D

 35 39  0  0  0  0  0  0  0  0999 V2000
    9.7060   -0.9500   -1.0180 C   0  0  0  0  0  0  0  0  0  0  0  0
    9.7360   -0.3910    0.3590 C   0  0  0  0  0  0  0  0  0  0  0  0
    8.4400   -0.0580    0.9700 C   0  0  0  0  0  0  0  0  0  0  0  0
    7.6130    0.9710    0.2980 C   0  0  0  0  0  0  0  0  0  0  0  0
    7.1440    0.7000   -1.0760 C   0  0  1  0  0  0  0  0  0  0  0  0
    6.2830   -0.5460   -1.1600 C   0  0  0  0  0  0  0  0  0  0  0  0
    4.8780   -0.0790   -1.0310 C   0  0  0  0  0  0  0  0  0  0  0  0
    4.8970    1.2720   -1.2490 C   0  0  0  0  0  0  0  0  0  0  0  0
    3.6620    1.9550   -1.2290 C   0  0  0  0  0  0  0  0  0  0  0  0
    2.5030    1.2680   -0.9960 C   0  0  0  0  0  0  0  0  0  0  0  0
    2.4770   -0.0960   -0.7690 C   0  0  0  0  0  0  0  0  0  0  0  0
    3.7050   -0.7290   -0.8000 C   0  0  0  0  0  0  0  0  0  0  0  0
    3.7730   -2.2140   -0.5180 C   0  0  0  0  0  0  0  0  0  0  0  0
    2.5340   -2.7770   -0.3370 O   0  0  0  0  0  0  0  0  0  0  0  0
    1.1640   -0.4950   -0.5590 O   0  0  0  0  0  0  0  0  0  0  0  0
    0.4740    0.6790   -0.0350 C   0  0  2  0  0  0  0  0  0  0  0  0
   -0.9540    0.5170   -0.1910 C   0  0  0  0  0  0  0  0  0  0  0  0
   -1.3730   -0.5530   -0.7850 O   0  0  0  0  0  0  0  0  0  0  0  0
   -1.9250    1.4230    0.2440 N   0  0  0  0  0  0  0  0  0  0  0  0
   -3.2730    1.0340    0.0090 N   0  0  0  0  0  0  0  0  0  0  0  0
   -4.1320    0.7810    1.1300 C   0  0  0  0  0  0  0  0  0  0  0  0
   -3.7140    0.9650    2.2790 O   0  0  0  0  0  0  0  0  0  0  0  0
   -5.5100    0.2770    0.9280 C   0  0  0  0  0  0  0  0  0  0  0  0
   -6.2440    0.2070   -0.1470 O   0  0  0  0  0  0  0  0  0  0  0  0
   -7.4130   -0.3230    0.0350 C   0  0  0  0  0  0  0  0  0  0  0  0
   -8.5250   -0.6050   -0.9130 C   0  0  1  0  0  0  0  0  0  0  0  0
   -8.8460    0.5560   -1.8070 C   0  0  0  0  0  0  0  0  0  0  0  0
   -7.8600   -1.6880   -1.8720 C   0  0  0  0  0  0  0  0  0  0  0  0
   -7.4650   -0.6430    1.4030 C   0  0  0  0  0  0  0  0  0  0  0  0
   -6.2890   -0.2700    1.9650 C   0  0  0  0  0  0  0  0  0  0  0  0
   -6.2830   -0.5320    3.4290 C   0  0  0  0  0  0  0  0  0  0  0  0
   -7.4710   -1.4210    3.6350 C   0  0  0  0  0  0  0  0  0  0  0  0
   -8.3770   -1.2110    2.4430 C   0  0  0  0  0  0  0  0  0  0  0  0
    1.0590    1.6970   -0.9700 C   0  0  0  0  0  0  0  0  0  0  0  0
    6.1930    1.7030   -1.4420 O   0  0  0  0  0  0  0  0  0  0  0  0
  1  2  1  0
  2  3  1  0
  3  4  1  0
  5  4  1  1
  5  6  1  0
  5 35  1  0
  6  7  1  0
  7  8  2  0
  7 12  1  0
  8  9  1  0
  8 35  1  0
  9 10  2  0
 10 11  1  0
 10 34  1  0
 11 12  2  0
 11 15  1  0
 12 13  1  0
 13 14  1  0
 15 16  1  0
 16 17  1  6
 16 34  1  0
 17 18  2  0
 17 19  1  0
 19 20  1  0
 20 21  1  0
 21 22  2  0
 21 23  1  0
 23 24  1  0
 23 30  2  0
 24 25  1  0
 25 26  1  0
 25 29  2  0
 26 27  1  6
 26 28  1  0
 29 30  1  0
 29 33  1  0
 30 31  1  0
 31 32  1  0
 32 33  1  0
M  END
