
     RDKit          3D

 34 39  0  0  0  0  0  0  0  0999 V2000
   -2.6020   -3.6530   -0.5750 C   0  0  0  0  0  0  0  0  0  0  0  0
   -1.1930   -3.7960   -0.1540 C   0  0  0  0  0  0  0  0  0  0  0  0
   -0.2360   -2.6950   -0.4300 C   0  0  0  0  0  0  0  0  0  0  0  0
   -0.4340   -1.3770    0.2050 C   0  0  2  0  0  0  0  0  0  0  0  0
   -1.7240   -0.7540   -0.1600 C   0  0  0  0  0  0  0  0  0  0  0  0
   -1.8920    0.5900    0.4270 N   0  0  0  0  0  0  0  0  0  0  0  0
   -3.0130    0.7850    1.2680 C   0  0  0  0  0  0  0  0  0  0  0  0
   -2.8460    1.0410    2.6120 C   0  0  0  0  0  0  0  0  0  0  0  0
   -3.9540    1.2130    3.3980 C   0  0  0  0  0  0  0  0  0  0  0  0
   -3.7290    1.5380    5.1010 Cl  0  0  0  0  0  0  0  0  0  0  0  0
   -5.2180    1.1300    2.8520 C   0  0  0  0  0  0  0  0  0  0  0  0
   -5.3630    0.8730    1.5060 C   0  0  0  0  0  0  0  0  0  0  0  0
   -6.4410    0.7410    0.7160 N   0  0  0  0  0  0  0  0  0  0  0  0
   -6.0530    0.4900   -0.5520 C   0  0  0  0  0  0  0  0  0  0  0  0
   -6.5380    0.2610   -1.7970 N   0  0  0  0  0  0  0  0  0  0  0  0
   -5.4600    0.0860   -2.6040 C   0  0  0  0  0  0  0  0  0  0  0  0
   -4.3540    0.2140   -1.8240 N   0  0  0  0  0  0  0  0  0  0  0  0
   -4.7110    0.4590   -0.5830 N   0  0  0  0  0  0  0  0  0  0  0  0
   -4.2680    0.6900    0.6610 C   0  0  0  0  0  0  0  0  0  0  0  0
   -1.0050    1.6840    0.1740 C   0  0  0  0  0  0  0  0  0  0  0  0
    0.2560    1.6830    0.9500 C   0  0  0  0  0  0  0  0  0  0  0  0
    0.9910    0.4280    0.9490 N   0  0  0  0  0  0  0  0  0  0  0  0
    0.7120   -0.4100   -0.1400 C   0  0  1  0  0  0  0  0  0  0  0  0
    1.9050   -1.1910   -0.6010 C   0  0  0  0  0  0  0  0  0  0  0  0
    3.1100   -0.4330   -0.9450 C   0  0  0  0  0  0  0  0  0  0  0  0
    3.2660    0.0520   -2.2560 C   0  0  0  0  0  0  0  0  0  0  0  0
    4.3350    0.8120   -2.6500 C   0  0  0  0  0  0  0  0  0  0  0  0
    5.3300    1.1410   -1.7460 C   0  0  0  0  0  0  0  0  0  0  0  0
    5.2190    0.6900   -0.4580 C   0  0  0  0  0  0  0  0  0  0  0  0
    4.1240   -0.0800   -0.0890 C   0  0  0  0  0  0  0  0  0  0  0  0
    4.0870   -0.5630    1.1960 F   0  0  0  0  0  0  0  0  0  0  0  0
    6.4010    1.1680    0.3500 C   0  0  0  0  0  0  0  0  0  0  0  0
    6.8320    2.3850   -0.4440 C   0  0  0  0  0  0  0  0  0  0  0  0
    6.5940    1.9270   -1.8590 C   0  0  0  0  0  0  0  0  0  0  0  0
  1  2  1  0
  2  3  1  0
  4  3  1  6
  4  5  1  0
  4 23  1  0
  5  6  1  0
  6  7  1  0
  6 20  1  0
  7  8  2  0
  7 19  1  0
  8  9  1  0
  9 10  1  0
  9 11  2  0
 11 12  1  0
 12 13  1  0
 12 19  2  0
 13 14  1  0
 14 15  2  0
 14 18  1  0
 15 16  1  0
 16 17  2  0
 17 18  1  0
 18 19  1  0
 20 21  1  0
 21 22  1  0
 22 23  1  0
 23 24  1  1
 24 25  1  0
 25 26  2  0
 25 30  1  0
 26 27  1  0
 27 28  2  0
 28 29  1  0
 28 34  1  0
 29 30  2  0
 29 32  1  0
 30 31  1  0
 32 33  1  0
 33 34  1  0
M  CHG  1  22   1
M  END
