
     RDKit          3D

 35 39  0  0  0  0  0  0  0  0999 V2000
   -9.9260   -0.7890    1.9050 C   0  0  0  0  0  0  0  0  0  0  0  0
   -9.7850   -0.5110    0.4380 C   0  0  0  0  0  0  0  0  0  0  0  0
  -10.8320   -0.3550   -0.4140 N   0  0  0  0  0  0  0  0  0  0  0  0
  -10.3490   -0.1290   -1.6010 N   0  0  0  0  0  0  0  0  0  0  0  0
   -8.9950   -0.1370   -1.5220 C   0  0  0  0  0  0  0  0  0  0  0  0
   -8.0540    0.0540   -2.5130 C   0  0  0  0  0  0  0  0  0  0  0  0
   -6.7140   -0.0170   -2.1080 C   0  0  0  0  0  0  0  0  0  0  0  0
   -6.3840   -0.2630   -0.7980 C   0  0  0  0  0  0  0  0  0  0  0  0
   -5.0410   -0.3350   -0.3980 N   0  0  0  0  0  0  0  0  0  0  0  0
   -4.7310   -0.5310    1.0010 C   0  0  0  0  0  0  0  0  0  0  0  0
   -3.4300    0.1580    1.3560 C   0  0  0  0  0  0  0  0  0  0  0  0
   -2.2910   -0.2700    0.4990 C   0  0  2  0  0  0  0  0  0  0  0  0
   -1.3120    0.8180    0.3800 C   0  0  0  0  0  0  0  0  0  0  0  0
   -1.5300    1.9000    0.9780 O   0  0  0  0  0  0  0  0  0  0  0  0
   -0.1160    0.7220   -0.3800 N   0  0  0  0  0  0  0  0  0  0  0  0
    0.8410    1.8310   -0.4770 C   0  0  0  0  0  0  0  0  0  0  0  0
    2.0090    1.4670   -1.3380 C   0  0  0  0  0  0  0  0  0  0  0  0
    2.7840    0.2960   -0.8490 C   0  0  0  0  0  0  0  0  0  0  0  0
    3.3550    0.4560    0.4600 N   0  0  2  0  0  0  0  0  0  0  0  0
    4.3480    1.4770    0.5490 C   0  0  0  0  0  0  0  0  0  0  0  0
    5.6440    1.0740   -0.1560 C   0  0  0  0  0  0  0  0  0  0  0  0
    6.1840   -0.0220    0.6230 N   0  0  0  0  0  0  0  0  0  0  0  0
    7.5610   -0.3390    0.4760 C   0  0  0  0  0  0  0  0  0  0  0  0
    8.1900   -1.3260    1.2180 C   0  0  0  0  0  0  0  0  0  0  0  0
    9.5310   -1.6280    1.0630 C   0  0  0  0  0  0  0  0  0  0  0  0
   10.2800   -0.9120    0.1240 C   0  0  0  0  0  0  0  0  0  0  0  0
    9.6830    0.0740   -0.6290 C   0  0  0  0  0  0  0  0  0  0  0  0
   10.6600    0.9380   -1.7890 Cl  0  0  0  0  0  0  0  0  0  0  0  0
    8.3630    0.3380   -0.4440 C   0  0  0  0  0  0  0  0  0  0  0  0
    5.2710   -0.7180    1.4970 C   0  0  0  0  0  0  0  0  0  0  0  0
    3.8980   -0.8060    0.8740 C   0  0  0  0  0  0  0  0  0  0  0  0
   -2.6890   -0.8510   -0.8340 C   0  0  0  0  0  0  0  0  0  0  0  0
   -3.9850   -0.2190   -1.3570 C   0  0  0  0  0  0  0  0  0  0  0  0
   -7.3870   -0.4330    0.0800 N   0  0  0  0  0  0  0  0  0  0  0  0
   -8.6520   -0.3760   -0.2500 N   0  0  0  0  0  0  0  0  0  0  0  0
  1  2  1  0
  2  3  2  0
  2 35  1  0
  3  4  1  0
  4  5  2  0
  5  6  1  0
  5 35  1  0
  6  7  2  0
  7  8  1  0
  8  9  1  0
  8 34  2  0
  9 10  1  0
  9 33  1  0
 10 11  1  0
 11 12  1  0
 12 13  1  6
 12 32  1  0
 13 14  2  0
 13 15  1  0
 15 16  1  0
 16 17  1  0
 17 18  1  0
 19 18  1  6
 19 20  1  0
 19 31  1  0
 20 21  1  0
 21 22  1  0
 22 23  1  0
 22 30  1  0
 23 24  2  0
 23 29  1  0
 24 25  1  0
 25 26  2  0
 26 27  1  0
 27 28  1  0
 27 29  2  0
 30 31  1  0
 32 33  1  0
 34 35  1  0
M  CHG  1  19   1
M  END
