
     RDKit          3D

 35 38  0  0  0  0  0  0  0  0999 V2000
   -5.4860   -1.3670   -2.8120 C   0  0  0  0  0  0  0  0  0  0  0  0
   -5.2070   -0.4000   -1.9590 C   0  0  0  0  0  0  0  0  0  0  0  0
   -4.6170    0.8020   -2.3280 O   0  0  0  0  0  0  0  0  0  0  0  0
   -4.4600    1.6020   -1.1890 C   0  0  0  0  0  0  0  0  0  0  0  0
   -4.2330    2.8940   -1.2390 C   0  0  0  0  0  0  0  0  0  0  0  0
   -4.0740    3.6920    0.0140 C   0  0  0  0  0  0  0  0  0  0  0  0
   -2.8050    4.3010    0.0500 O   0  0  0  0  0  0  0  0  0  0  0  0
   -4.5940    0.7470    0.0190 C   0  0  2  0  0  0  0  0  0  0  0  0
   -3.2690    0.2830    0.4680 C   0  0  0  0  0  0  0  0  0  0  0  0
   -2.3150   -0.2090   -0.4190 C   0  0  0  0  0  0  0  0  0  0  0  0
   -1.0750   -0.6480   -0.0310 C   0  0  0  0  0  0  0  0  0  0  0  0
   -0.1320   -1.1360   -0.9190 O   0  0  0  0  0  0  0  0  0  0  0  0
    1.1390   -1.5860   -0.5320 C   0  0  0  0  0  0  0  0  0  0  0  0
    1.8710   -2.0360   -1.7640 C   0  0  1  0  0  0  0  0  0  0  0  0
    2.0240   -1.0150   -2.6900 O   0  0  0  0  0  0  0  0  0  0  0  0
    3.0490   -1.3430   -3.5330 C   0  0  0  0  0  0  0  0  0  0  0  0
    3.8660   -2.4330   -2.8810 C   0  0  0  0  0  0  0  0  0  0  0  0
    3.3350   -2.3610   -1.4480 C   0  0  1  0  0  0  0  0  0  0  0  0
    3.9700   -1.2370   -0.8230 N   0  0  0  0  0  0  0  0  0  0  0  0
    4.7030   -1.2960    0.3930 C   0  0  0  0  0  0  0  0  0  0  0  0
    4.7870   -2.4280    0.9450 O   0  0  0  0  0  0  0  0  0  0  0  0
    5.3200   -0.1040    0.9650 C   0  0  0  0  0  0  0  0  0  0  0  0
    4.7730    1.1670    0.9350 C   0  0  0  0  0  0  0  0  0  0  0  0
    5.6580    2.0280    1.5810 C   0  0  0  0  0  0  0  0  0  0  0  0
    5.4540    3.4760    1.7690 C   0  0  0  0  0  0  0  0  0  0  0  0
    6.6730    1.3010    1.9720 O   0  0  0  0  0  0  0  0  0  0  0  0
    6.5160    0.0410    1.6300 C   0  0  0  0  0  0  0  0  0  0  0  0
    7.4720   -1.0470    1.9160 C   0  0  0  0  0  0  0  0  0  0  0  0
   -0.7520   -0.6010    1.3020 C   0  0  0  0  0  0  0  0  0  0  0  0
   -1.6700   -0.1200    2.2090 C   0  0  0  0  0  0  0  0  0  0  0  0
   -2.9300    0.3240    1.8020 C   0  0  0  0  0  0  0  0  0  0  0  0
   -3.8580    0.8160    2.7760 N   0  0  0  0  0  0  0  0  0  0  0  0
   -5.4340   -0.3610   -0.5250 C   0  0  0  0  0  0  0  0  0  0  0  0
   -6.2410   -1.1760    0.1180 C   0  0  0  0  0  0  0  0  0  0  0  0
   -6.3990   -1.0480    1.5820 C   0  0  0  0  0  0  0  0  0  0  0  0
  1  2  2  0
  2  3  1  0
  2 33  1  0
  3  4  1  0
  4  5  2  3
  4  8  1  0
  5  6  1  0
  6  7  1  0
  8  9  1  6
  8 33  1  0
  9 10  2  0
  9 31  1  0
 10 11  1  0
 11 12  1  0
 11 29  2  0
 12 13  1  0
 14 13  1  1
 14 15  1  0
 14 18  1  0
 15 16  1  0
 16 17  1  0
 17 18  1  0
 18 19  1  1
 19 20  1  0
 20 21  2  0
 20 22  1  0
 22 23  1  0
 22 27  2  0
 23 24  2  0
 24 25  1  0
 24 26  1  0
 26 27  1  0
 27 28  1  0
 29 30  1  0
 30 31  2  0
 31 32  1  0
 33 34  2  3
 34 35  1  0
M  END
