
     RDKit          3D

 33 38  0  0  0  0  0  0  0  0999 V2000
    3.3410    0.1390   -3.4730 N   0  0  0  0  0  0  0  0  0  0  0  0
    3.0740    1.0160   -2.2780 C   0  0  1  0  0  0  0  0  0  0  0  0
    1.8290    0.4850   -1.6970 C   0  0  0  0  0  0  0  0  0  0  0  0
    1.6640    0.5820   -0.1910 C   0  0  1  0  0  0  0  0  0  0  0  0
    0.5620   -0.3110    0.0580 N   0  0  0  0  0  0  0  0  0  0  0  0
   -0.4240   -0.0820    1.0940 C   0  0  0  0  0  0  0  0  0  0  0  0
   -1.2220   -1.3570    1.2050 C   0  0  0  0  0  0  0  0  0  0  0  0
   -0.6190   -2.4910    1.7050 C   0  0  0  0  0  0  0  0  0  0  0  0
   -1.3640   -3.6270    2.0100 C   0  0  0  0  0  0  0  0  0  0  0  0
   -0.7810   -4.7410    2.5100 F   0  0  0  0  0  0  0  0  0  0  0  0
   -2.7270   -3.6280    1.8140 C   0  0  0  0  0  0  0  0  0  0  0  0
   -3.3560   -2.4860    1.3030 C   0  0  0  0  0  0  0  0  0  0  0  0
   -2.5750   -1.3500    0.9960 C   0  0  0  0  0  0  0  0  0  0  0  0
   -3.0800   -0.3120    0.1150 C   0  0  0  0  0  0  0  0  0  0  0  0
   -4.4550   -0.3540   -0.3160 N   0  0  0  0  0  0  0  0  0  0  0  0
   -4.9240   -1.4620   -0.9370 N   0  0  0  0  0  0  0  0  0  0  0  0
   -6.2040   -1.3150   -1.1630 C   0  0  0  0  0  0  0  0  0  0  0  0
   -6.5740   -0.0750   -0.6710 C   0  0  0  0  0  0  0  0  0  0  0  0
   -5.4310    0.4770   -0.1570 C   0  0  0  0  0  0  0  0  0  0  0  0
   -5.7470    1.9200    0.2880 C   0  0  0  0  0  0  0  0  0  0  0  0
   -6.9800    2.2220   -0.5650 C   0  0  0  0  0  0  0  0  0  0  0  0
   -7.7330    0.8770   -0.5350 C   0  0  0  0  0  0  0  0  0  0  0  0
    2.8830    0.0300    0.4430 C   0  0  0  0  0  0  0  0  0  0  0  0
    4.0990    0.5560   -0.0950 N   0  0  0  0  0  0  0  0  0  0  0  0
    4.2550    0.9610   -1.3430 C   0  0  0  0  0  0  0  0  0  0  0  0
    5.5790    1.2990   -1.6150 C   0  0  0  0  0  0  0  0  0  0  0  0
    6.2450    1.0850   -0.4260 C   0  0  0  0  0  0  0  0  0  0  0  0
    7.5850    1.2350   -0.0990 C   0  0  0  0  0  0  0  0  0  0  0  0
    7.9880    0.9140    1.2120 C   0  0  0  0  0  0  0  0  0  0  0  0
    9.6770    1.0630    1.6280 Cl  0  0  0  0  0  0  0  0  0  0  0  0
    7.0530    0.4660    2.1090 C   0  0  0  0  0  0  0  0  0  0  0  0
    5.7390    0.3230    1.7730 C   0  0  0  0  0  0  0  0  0  0  0  0
    5.3450    0.6410    0.4670 C   0  0  0  0  0  0  0  0  0  0  0  0
  2  1  1  6
  2  3  1  0
  2 25  1  0
  3  4  1  0
  4  5  1  1
  4 23  1  0
  5  6  1  0
  6  7  1  0
  7  8  2  0
  7 13  1  0
  8  9  1  0
  9 10  1  0
  9 11  2  0
 11 12  1  0
 12 13  2  0
 13 14  1  0
 14 15  1  0
 15 16  1  0
 15 19  1  0
 16 17  2  0
 17 18  1  0
 18 19  2  0
 18 22  1  0
 19 20  1  0
 20 21  1  0
 21 22  1  0
 23 24  1  0
 24 25  1  0
 24 33  1  0
 25 26  2  0
 26 27  1  0
 27 28  2  0
 27 33  1  0
 28 29  1  0
 29 30  1  0
 29 31  2  0
 31 32  1  0
 32 33  2  0
M  CHG  1   1   1
M  END
