
     RDKit          3D

 35 39  0  0  0  0  0  0  0  0999 V2000
    4.2500    0.9210    1.2910 O   0  0  0  0  0  0  0  0  0  0  0  0
    5.4950    0.7490    1.2370 C   0  0  0  0  0  0  0  0  0  0  0  0
    6.4980    1.4040    2.1100 C   0  0  0  0  0  0  0  0  0  0  0  0
    7.7710    1.2600    1.3130 C   0  0  2  0  0  0  0  0  0  0  0  0
    7.8660    2.3240    0.2310 C   0  0  0  0  0  0  0  0  0  0  0  0
    7.8520    3.6060    0.7930 O   0  0  0  0  0  0  0  0  0  0  0  0
    7.5870   -0.0740    0.6330 C   0  0  0  0  0  0  0  0  0  0  0  0
    6.1780   -0.1050    0.3280 N   0  0  0  0  0  0  0  0  0  0  0  0
    5.6070   -0.8830   -0.7270 C   0  0  0  0  0  0  0  0  0  0  0  0
    6.3160   -1.6040   -1.4690 O   0  0  0  0  0  0  0  0  0  0  0  0
    4.2400   -0.8790   -0.9810 O   0  0  0  0  0  0  0  0  0  0  0  0
    3.6860   -1.6560   -2.0320 C   0  0  0  0  0  0  0  0  0  0  0  0
    2.1710   -1.3910   -1.9980 C   0  0  1  0  0  0  0  0  0  0  0  0
    1.5160   -2.0830   -2.9630 O   0  0  0  0  0  0  0  0  0  0  0  0
    1.7520   -1.5970   -0.5810 C   0  0  0  0  0  0  0  0  0  0  0  0
    0.5000   -1.3120   -0.1950 O   0  0  0  0  0  0  0  0  0  0  0  0
   -0.7760   -1.6380   -0.3690 C   0  0  0  0  0  0  0  0  0  0  0  0
   -1.2260   -2.6240   -1.2030 C   0  0  0  0  0  0  0  0  0  0  0  0
   -2.5790   -2.8620   -1.2970 C   0  0  0  0  0  0  0  0  0  0  0  0
   -3.5060   -2.1350   -0.5730 C   0  0  0  0  0  0  0  0  0  0  0  0
   -3.0810   -1.1490    0.2640 C   0  0  0  0  0  0  0  0  0  0  0  0
   -3.9720   -0.2920    1.1110 C   0  0  1  0  0  0  0  0  0  0  0  0
   -3.6450    1.0930    0.9510 N   0  0  0  0  0  0  0  0  0  0  0  0
   -4.5410    2.0660    0.4850 C   0  0  0  0  0  0  0  0  0  0  0  0
   -4.4140    3.3640    0.1660 C   0  0  0  0  0  0  0  0  0  0  0  0
   -5.7030    3.9320   -0.2810 C   0  0  0  0  0  0  0  0  0  0  0  0
   -6.6190    2.7720   -0.1780 C   0  0  0  0  0  0  0  0  0  0  0  0
   -5.9370    1.7250    0.2580 C   0  0  0  0  0  0  0  0  0  0  0  0
   -6.2900    0.3290    0.5480 C   0  0  0  0  0  0  0  0  0  0  0  0
   -7.6490    0.0370    0.3910 C   0  0  0  0  0  0  0  0  0  0  0  0
   -8.1090   -1.2240    0.6940 C   0  0  0  0  0  0  0  0  0  0  0  0
   -7.1840   -2.1420    1.1420 C   0  0  0  0  0  0  0  0  0  0  0  0
   -5.8460   -1.8660    1.2980 C   0  0  0  0  0  0  0  0  0  0  0  0
   -5.3750   -0.5790    0.9890 C   0  0  0  0  0  0  0  0  0  0  0  0
   -1.7360   -0.9170    0.3530 C   0  0  0  0  0  0  0  0  0  0  0  0
  1  2  2  0
  2  3  1  0
  2  8  1  0
  3  4  1  0
  4  5  1  6
  4  7  1  0
  5  6  1  0
  7  8  1  0
  8  9  1  0
  9 10  2  0
  9 11  1  0
 11 12  1  0
 12 13  1  0
 13 14  1  6
 13 15  1  0
 15 16  1  0
 16 17  1  0
 17 18  2  0
 17 35  1  0
 18 19  1  0
 19 20  2  0
 20 21  1  0
 22 21  1  6
 21 35  2  0
 22 23  1  0
 22 34  1  0
 23 24  1  0
 24 25  2  0
 24 28  1  0
 25 26  1  0
 26 27  1  0
 27 28  2  0
 28 29  1  0
 29 30  2  0
 29 34  1  0
 30 31  1  0
 31 32  2  0
 32 33  1  0
 33 34  2  0
M  END
