
     RDKit          3D

 33 37  0  0  0  0  0  0  0  0999 V2000
   -0.6810   -2.5310    2.6040 C   0  0  0  0  0  0  0  0  0  0  0  0
    0.6780   -2.1520    2.1280 C   0  0  0  0  0  0  0  0  0  0  0  0
    0.8210   -1.3190    0.9430 C   0  0  0  0  0  0  0  0  0  0  0  0
   -0.0410   -1.0300    0.0550 C   0  0  0  0  0  0  0  0  0  0  0  0
   -1.4020   -1.4190   -0.0870 C   0  0  0  0  0  0  0  0  0  0  0  0
   -1.8320   -2.7370   -0.1940 C   0  0  0  0  0  0  0  0  0  0  0  0
   -3.1620   -3.0380   -0.3260 C   0  0  0  0  0  0  0  0  0  0  0  0
   -3.7170   -4.7120   -0.4620 Cl  0  0  0  0  0  0  0  0  0  0  0  0
   -4.0760   -1.9850   -0.3500 C   0  0  0  0  0  0  0  0  0  0  0  0
   -3.6540   -0.6820   -0.2450 C   0  0  0  0  0  0  0  0  0  0  0  0
   -4.5770    0.4460   -0.2580 C   0  0  0  0  0  0  0  0  0  0  0  0
   -4.1590    1.7310   -0.1420 N   0  0  0  0  0  0  0  0  0  0  0  0
   -5.1430    2.5750   -0.1750 N   0  0  0  0  0  0  0  0  0  0  0  0
   -6.2620    1.8510   -0.3170 C   0  0  0  0  0  0  0  0  0  0  0  0
   -5.9250    0.4920   -0.3730 C   0  0  0  0  0  0  0  0  0  0  0  0
   -6.9740   -0.5190   -0.5380 C   0  0  0  0  0  0  0  0  0  0  0  0
   -8.3230    0.1670   -0.7960 C   0  0  0  0  0  0  0  0  0  0  0  0
   -8.5040    1.2690    0.1080 N   0  0  0  0  0  0  0  0  0  0  0  0
   -7.6570    2.3430   -0.3940 C   0  0  0  0  0  0  0  0  0  0  0  0
   -2.3290   -0.4600   -0.1170 N   0  0  0  0  0  0  0  0  0  0  0  0
    2.1710   -0.7460    0.7860 N   0  0  0  0  0  0  0  0  0  0  0  0
    3.2830   -1.6450    0.8420 C   0  0  0  0  0  0  0  0  0  0  0  0
    4.2620   -1.2360   -0.2450 C   0  0  0  0  0  0  0  0  0  0  0  0
    4.6350    0.1560   -0.1010 N   0  0  0  0  0  0  0  0  0  0  0  0
    5.8840    0.5850   -0.5980 C   0  0  0  0  0  0  0  0  0  0  0  0
    6.7220   -0.2420   -1.3330 C   0  0  0  0  0  0  0  0  0  0  0  0
    7.9520    0.1710   -1.8190 C   0  0  0  0  0  0  0  0  0  0  0  0
    8.3970    1.4510   -1.5840 C   0  0  0  0  0  0  0  0  0  0  0  0
    7.5810    2.2910   -0.8550 C   0  0  0  0  0  0  0  0  0  0  0  0
    8.0270    3.6930   -0.5720 C   0  0  0  0  0  0  0  0  0  0  0  0
    6.3600    1.8790   -0.3730 C   0  0  0  0  0  0  0  0  0  0  0  0
    3.7670    1.1260    0.5330 C   0  0  0  0  0  0  0  0  0  0  0  0
    2.3420    0.6450    0.5940 C   0  0  0  0  0  0  0  0  0  0  0  0
  1  2  1  0
  2  3  1  0
  3  4  2  3
  3 21  1  0
  4  5  1  0
  5  6  2  0
  5 20  1  0
  6  7  1  0
  7  8  1  0
  7  9  2  0
  9 10  1  0
 10 11  1  0
 10 20  2  0
 11 12  2  0
 11 15  1  0
 12 13  1  0
 13 14  1  0
 14 15  2  0
 14 19  1  0
 15 16  1  0
 16 17  1  0
 17 18  1  0
 18 19  1  0
 21 22  1  0
 21 33  1  0
 22 23  1  0
 23 24  1  0
 24 25  1  0
 24 32  1  0
 25 26  2  0
 25 31  1  0
 26 27  1  0
 27 28  2  0
 28 29  1  0
 29 30  1  0
 29 31  2  0
 32 33  1  0
M  CHG  1  18   1
M  END
