
     RDKit          3D

 35 39  0  0  0  0  0  0  0  0999 V2000
    4.9900   -1.4210    1.0510 O   0  0  0  0  0  0  0  0  0  0  0  0
    5.2050   -0.4330    0.3100 C   0  0  0  0  0  0  0  0  0  0  0  0
    4.1810    0.4970    0.0510 N   0  0  0  0  0  0  0  0  0  0  0  0
    2.8310    0.4620    0.5460 C   0  0  0  0  0  0  0  0  0  0  0  0
    2.0690   -0.7190    0.0770 C   0  0  1  0  0  0  0  0  0  0  0  0
    2.6200   -1.8940    0.4810 O   0  0  0  0  0  0  0  0  0  0  0  0
    0.6110   -0.6280    0.4500 C   0  0  0  0  0  0  0  0  0  0  0  0
    0.1450   -0.9540    1.7000 C   0  0  0  0  0  0  0  0  0  0  0  0
   -1.2120   -0.8590    2.0030 C   0  0  0  0  0  0  0  0  0  0  0  0
   -2.1330   -0.4350    1.0680 C   0  0  0  0  0  0  0  0  0  0  0  0
   -3.5680   -0.3300    1.4200 C   0  0  0  0  0  0  0  0  0  0  0  0
   -3.8750   -0.5960    2.5860 O   0  0  0  0  0  0  0  0  0  0  0  0
   -4.5190    0.0670    0.4160 C   0  0  1  0  0  0  0  0  0  0  0  0
   -4.6680   -1.0410   -0.6670 C   0  0  0  0  0  0  0  0  0  0  0  0
   -5.1680   -0.3680   -1.9080 C   0  0  0  0  0  0  0  0  0  0  0  0
   -6.0360    0.8240   -1.6090 C   0  0  0  0  0  0  0  0  0  0  0  0
   -6.7040    0.7640   -0.2860 C   0  0  0  0  0  0  0  0  0  0  0  0
   -8.0170    1.0880   -0.1640 C   0  0  0  0  0  0  0  0  0  0  0  0
   -8.5970    1.0210    1.0990 C   0  0  0  0  0  0  0  0  0  0  0  0
   -7.8140    0.6310    2.1660 C   0  0  0  0  0  0  0  0  0  0  0  0
   -8.4170    0.5730    3.4150 O   0  0  0  0  0  0  0  0  0  0  0  0
   -6.4770    0.3060    2.0160 C   0  0  0  0  0  0  0  0  0  0  0  0
   -5.8960    0.3640    0.8000 C   0  0  0  0  0  0  0  0  0  0  0  0
   -1.6580   -0.1080   -0.1840 C   0  0  0  0  0  0  0  0  0  0  0  0
   -0.3060   -0.2040   -0.4860 C   0  0  0  0  0  0  0  0  0  0  0  0
    6.5380   -0.2960   -0.2600 C   0  0  0  0  0  0  0  0  0  0  0  0
    7.4600   -1.3400   -0.1260 C   0  0  0  0  0  0  0  0  0  0  0  0
    8.7290   -1.2530   -0.6440 C   0  0  0  0  0  0  0  0  0  0  0  0
    9.1620   -0.1370   -1.3220 C   0  0  0  0  0  0  0  0  0  0  0  0
   10.2950    0.2020   -1.9060 O   0  0  0  0  0  0  0  0  0  0  0  0
   10.1960    1.4120   -2.4270 C   0  0  0  0  0  0  0  0  0  0  0  0
   11.1240    1.9930   -3.0460 O   0  0  0  0  0  0  0  0  0  0  0  0
    8.9410    1.8540   -2.1590 N   0  0  0  0  0  0  0  0  0  0  0  0
    8.2790    0.9070   -1.4720 C   0  0  0  0  0  0  0  0  0  0  0  0
    6.9910    0.8100   -0.9420 C   0  0  0  0  0  0  0  0  0  0  0  0
  1  2  2  0
  2  3  1  0
  2 26  1  0
  3  4  1  0
  4  5  1  0
  5  6  1  1
  5  7  1  0
  7  8  2  0
  7 25  1  0
  8  9  1  0
  9 10  2  0
 10 11  1  0
 10 24  1  0
 11 12  2  0
 13 11  1  1
 13 14  1  0
 13 23  1  0
 14 15  1  0
 15 16  1  0
 16 17  1  0
 17 18  2  0
 17 23  1  0
 18 19  1  0
 19 20  2  0
 20 21  1  0
 20 22  1  0
 22 23  2  0
 24 25  2  0
 26 27  2  0
 26 35  1  0
 27 28  1  0
 28 29  2  0
 29 30  1  0
 29 34  1  0
 30 31  1  0
 31 32  2  0
 31 33  1  0
 33 34  1  0
 34 35  2  0
M  END
