
     RDKit          3D

 11 12  0  0  0  0  0  0  0  0999 V2000
    3.1040    0.5960    0.4750 C   0  0  0  0  0  0  0  0  0  0  0  0
    1.7640    0.3540   -0.1550 C   0  0  1  0  0  0  0  0  0  0  0  0
    1.5530   -1.0440   -0.2270 O   0  0  0  0  0  0  0  0  0  0  0  0
    0.2940   -1.6080   -0.3180 C   0  0  0  0  0  0  0  0  0  0  0  0
    0.1120   -2.8050   -0.7090 O   0  0  0  0  0  0  0  0  0  0  0  0
   -0.8510   -0.7880    0.0510 C   0  0  0  0  0  0  0  0  0  0  0  0
   -2.1500   -1.0320    0.0710 C   0  0  0  0  0  0  0  0  0  0  0  0
   -2.8540    0.1870    0.5390 C   0  0  0  0  0  0  0  0  0  0  0  0
   -1.7690    1.1430    0.7770 C   0  0  0  0  0  0  0  0  0  0  0  0
   -0.6030    0.5770    0.4930 C   0  0  0  0  0  0  0  0  0  0  0  0
    0.7230    1.0110    0.5350 O   0  0  0  0  0  0  0  0  0  0  0  0
  2  1  1  1
  2  3  1  0
  2 11  1  0
  3  4  1  0
  4  5  2  0
  4  6  1  0
  6  7  2  0
  6 10  1  0
  7  8  1  0
  8  9  1  0
  9 10  2  0
 10 11  1  0
M  END
