
     RDKit          3D

 11 12  0  0  0  0  0  0  0  0999 V2000
   -2.9980    1.0890    0.1350 C   0  0  0  0  0  0  0  0  0  0  0  0
   -1.6550    0.4990    0.0520 C   0  0  0  0  0  0  0  0  0  0  0  0
   -0.4640    1.0030    0.4330 C   0  0  0  0  0  0  0  0  0  0  0  0
    0.5460   -0.0020    0.1190 C   0  0  0  0  0  0  0  0  0  0  0  0
    1.7800   -0.3460   -0.0780 C   0  0  0  0  0  0  0  0  0  0  0  0
    2.9460    0.6010    0.0250 C   0  0  0  0  0  0  0  0  0  0  0  0
    1.8670   -1.7070   -0.4170 O   0  0  0  0  0  0  0  0  0  0  0  0
    0.5630   -2.2570   -0.4430 C   0  0  0  0  0  0  0  0  0  0  0  0
    0.2490   -3.3860   -0.9210 O   0  0  0  0  0  0  0  0  0  0  0  0
   -0.2830   -1.2790    0.1700 C   0  0  2  0  0  0  0  0  0  0  0  0
   -1.4350   -0.8100   -0.4960 O   0  0  0  0  0  0  0  0  0  0  0  0
  1  2  1  0
  2  3  2  0
  2 11  1  0
  3  4  1  0
  4  5  2  0
  4 10  1  0
  5  6  1  0
  5  7  1  0
  7  8  1  0
  8  9  2  0
  8 10  1  0
 10 11  1  6
M  END
