
     RDKit          3D

 11 16  0  0  0  0  0  0  0  0999 V2000
   -1.4170    1.7320    0.1800 C   0  0  0  0  0  0  0  0  0  0  0  0
   -1.2640    1.2030   -0.2160 C   0  0  0  0  0  0  0  0  0  0  0  0
   -0.8640   -0.2920   -1.3410 C   0  0  0  0  0  0  0  0  0  0  0  0
   -0.3780   -0.3100    0.1130 C   0  0  0  0  0  0  0  0  0  0  0  0
   -0.2620   -1.6530    0.6020 C   0  0  0  0  0  0  0  0  0  0  0  0
    0.9310   -1.7650    1.3380 O   0  0  0  0  0  0  0  0  0  0  0  0
    2.0560   -1.1900    0.7260 C   0  0  0  0  0  0  0  0  0  0  0  0
    1.7940    0.3030    0.7960 C   0  0  0  0  0  0  0  0  0  0  0  0
    0.6630    0.6220    0.1760 O   0  0  0  0  0  0  0  0  0  0  0  0
   -1.3170    0.2950    1.1380 O   0  0  2  0  0  0  0  0  0  0  0  0
   -1.5520    2.2190    0.5540 C   0  0  0  0  0  0  0  0  0  0  0  0
  1  2  3  0
  1 11  1  0
  2  3  1  0
  3  4  1  0
  4  5  1  0
  4  9  1  0
  4 10  1  0
  5  6  1  0
  6  7  1  0
  7  8  1  0
  8  9  1  0
 10 11  1  1
  4  2  1  0
 10  2  1  0
 10  1  1  0
 11  2  1  0
M  END
