
     RDKit          3D

 11 12  0  0  0  0  0  0  0  0999 V2000
    2.1390   -0.8210   -0.5640 C   0  0  0  0  0  0  0  0  0  0  0  0
    1.2770   -0.2880    0.5650 C   0  0  1  0  0  0  0  0  0  0  0  0
    1.6900    1.0590    0.9810 C   0  0  0  0  0  0  0  0  0  0  0  0
    2.8720    1.3370    1.3850 O   0  0  0  0  0  0  0  0  0  0  0  0
    0.6130    1.9030    0.8530 O   0  0  0  0  0  0  0  0  0  0  0  0
   -0.5150    1.2310    0.3780 C   0  0  0  0  0  0  0  0  0  0  0  0
   -1.7520    1.6720    0.1150 C   0  0  0  0  0  0  0  0  0  0  0  0
   -2.6730    0.7700   -0.3500 O   0  0  0  0  0  0  0  0  0  0  0  0
   -2.4360   -0.5760   -0.5770 C   0  0  0  0  0  0  0  0  0  0  0  0
   -1.0640   -0.9950   -0.2700 C   0  0  0  0  0  0  0  0  0  0  0  0
   -0.1290   -0.1540    0.1860 C   0  0  0  0  0  0  0  0  0  0  0  0
  2  1  1  6
  2  3  1  0
  2 11  1  0
  3  4  2  0
  3  5  1  0
  5  6  1  0
  6  7  2  0
  6 11  1  0
  7  8  1  0
  8  9  1  0
  9 10  1  0
 10 11  2  0
M  END
