
     RDKit          3D

 11 12  0  0  0  0  0  0  0  0999 V2000
   -2.4210    1.6480   -0.1620 C   0  0  0  0  0  0  0  0  0  0  0  0
   -1.4130    0.5510   -0.4240 C   0  0  1  0  0  0  0  0  0  0  0  0
   -0.0460    1.1060   -0.3420 C   0  0  0  0  0  0  0  0  0  0  0  0
    1.0680    0.4440   -0.0980 C   0  0  0  0  0  0  0  0  0  0  0  0
    2.3190    1.0400   -0.0380 O   0  0  0  0  0  0  0  0  0  0  0  0
    3.2120    0.1160    0.5540 C   0  0  0  0  0  0  0  0  0  0  0  0
    2.6550   -1.1660    0.3520 O   0  0  0  0  0  0  0  0  0  0  0  0
    1.3090   -0.9790    0.1570 C   0  0  0  0  0  0  0  0  0  0  0  0
    0.3470   -1.8890    0.1850 C   0  0  0  0  0  0  0  0  0  0  0  0
   -1.1190   -1.7150   -0.0210 C   0  0  0  0  0  0  0  0  0  0  0  0
   -1.5570   -0.4820    0.4550 O   0  0  0  0  0  0  0  0  0  0  0  0
  2  1  1  1
  2  3  1  0
  2 11  1  0
  3  4  2  0
  4  5  1  0
  4  8  1  0
  5  6  1  0
  6  7  1  0
  7  8  1  0
  8  9  2  0
  9 10  1  0
 10 11  1  0
M  END
