
     RDKit          3D

 11 12  0  0  0  0  0  0  0  0999 V2000
   -2.9230   -0.1020    0.0720 C   0  0  0  0  0  0  0  0  0  0  0  0
   -1.6120   -0.3620   -0.5930 C   0  0  0  0  0  0  0  0  0  0  0  0
   -0.4920   -0.1470    0.0220 C   0  0  0  0  0  0  0  0  0  0  0  0
   -0.1910    0.3610    1.4100 C   0  0  0  0  0  0  0  0  0  0  0  0
    1.2200    0.3700    1.4700 O   0  0  0  0  0  0  0  0  0  0  0  0
    1.6500    0.6580    0.2060 C   0  0  1  0  0  0  0  0  0  0  0  0
    2.9990    0.3540   -0.1870 C   0  0  0  0  0  0  0  0  0  0  0  0
    4.0700    0.8190    0.2890 O   0  0  0  0  0  0  0  0  0  0  0  0
    2.9170   -0.5880   -1.2340 O   0  0  0  0  0  0  0  0  0  0  0  0
    1.6120   -1.0090   -1.4170 C   0  0  0  0  0  0  0  0  0  0  0  0
    0.8380   -0.3870   -0.5500 C   0  0  0  0  0  0  0  0  0  0  0  0
  1  2  1  0
  2  3  2  3
  3  4  1  0
  3 11  1  0
  4  5  1  0
  6  5  1  1
  6  7  1  0
  6 11  1  0
  7  8  2  0
  7  9  1  0
  9 10  1  0
 10 11  2  0
M  END
