
     RDKit          3D

 27 30  0  0  0  0  0  0  0  0999 V2000
    7.1500   -2.1310   -0.3170 C   0  0  0  0  0  0  0  0  0  0  0  0
    6.1800   -1.0160   -0.1680 C   0  0  0  0  0  0  0  0  0  0  0  0
    4.7890   -1.1240   -0.2590 C   0  0  0  0  0  0  0  0  0  0  0  0
    4.2640    0.1210   -0.0630 C   0  0  0  0  0  0  0  0  0  0  0  0
    2.8780    0.5190   -0.0630 N   0  0  0  0  0  0  0  0  0  0  0  0
    1.8190   -0.3810   -0.2790 C   0  0  0  0  0  0  0  0  0  0  0  0
    2.1010   -1.6110   -0.4900 O   0  0  0  0  0  0  0  0  0  0  0  0
    0.4110   -0.0200   -0.2830 C   0  0  0  0  0  0  0  0  0  0  0  0
   -0.6010   -0.8750   -0.6400 N   0  0  0  0  0  0  0  0  0  0  0  0
   -1.7880   -0.2930   -0.5410 C   0  0  0  0  0  0  0  0  0  0  0  0
   -3.0960   -0.7460   -0.7920 C   0  0  0  0  0  0  0  0  0  0  0  0
   -4.1720    0.0760   -0.6090 C   0  0  0  0  0  0  0  0  0  0  0  0
   -3.9290    1.3680   -0.1680 C   0  0  0  0  0  0  0  0  0  0  0  0
   -5.0470    2.3050    0.0500 C   0  0  0  0  0  0  0  0  0  0  0  0
   -2.6490    1.8090    0.0760 C   0  0  0  0  0  0  0  0  0  0  0  0
   -1.5580    0.9780   -0.1090 C   0  0  0  0  0  0  0  0  0  0  0  0
   -0.1890    1.1590    0.0560 C   0  0  0  0  0  0  0  0  0  0  0  0
    0.4070    2.4150    0.5240 C   0  0  0  0  0  0  0  0  0  0  0  0
   -5.5940   -0.1070   -0.7930 C   0  0  0  0  0  0  0  0  0  0  0  0
   -6.2240   -1.7440   -0.9240 S   0  0  0  0  0  0  0  0  0  0  0  0
   -6.4820   -2.0490   -2.4150 O   0  0  0  0  0  0  0  0  0  0  0  0
   -5.1910   -3.0320   -0.2840 C   0  0  0  0  0  0  0  0  0  0  0  0
   -3.9080   -3.0880   -1.0270 C   0  0  0  0  0  0  0  0  0  0  0  0
   -3.0340   -2.1400   -1.2400 C   0  0  0  0  0  0  0  0  0  0  0  0
    5.3470    0.9810    0.1450 C   0  0  0  0  0  0  0  0  0  0  0  0
    5.2600    2.4380    0.4010 C   0  0  0  0  0  0  0  0  0  0  0  0
    6.4670    0.2670    0.0750 N   0  0  0  0  0  0  0  0  0  0  0  0
  1  2  1  0
  2  3  2  0
  2 27  1  0
  3  4  1  0
  4  5  1  0
  4 25  2  0
  5  6  1  0
  6  7  2  0
  6  8  1  0
  8  9  1  0
  8 17  2  0
  9 10  1  0
 10 11  2  0
 10 16  1  0
 11 12  1  0
 11 24  1  0
 12 13  2  0
 12 19  1  0
 13 14  1  0
 13 15  1  0
 15 16  2  0
 16 17  1  0
 17 18  1  0
 20 19  1  6
 20 21  2  0
 20 22  1  0
 22 23  1  0
 23 24  2  0
 25 26  1  0
 25 27  1  0
M  END
