
     RDKit          3D

 27 29  0  0  0  0  0  0  0  0999 V2000
    1.7820   -1.3720    3.3510 C   0  0  0  0  0  0  0  0  0  0  0  0
    2.1050   -1.4520    1.9300 C   0  0  0  0  0  0  0  0  0  0  0  0
    1.3780   -1.2400    0.8790 C   0  0  0  0  0  0  0  0  0  0  0  0
   -0.0610   -0.8390    0.8310 C   0  0  0  0  0  0  0  0  0  0  0  0
   -0.8580   -0.5120    1.8180 C   0  0  0  0  0  0  0  0  0  0  0  0
   -2.2570   -0.1280    1.7300 C   0  0  0  0  0  0  0  0  0  0  0  0
   -2.8940    0.1710    2.8960 C   0  0  0  0  0  0  0  0  0  0  0  0
   -4.2940    0.5610    2.8790 C   0  0  0  0  0  0  0  0  0  0  0  0
   -4.9830    0.6350    1.7450 C   0  0  0  0  0  0  0  0  0  0  0  0
   -4.3100    0.3160    0.4930 C   0  0  0  0  0  0  0  0  0  0  0  0
   -4.9390    0.3660   -0.6620 C   0  0  0  0  0  0  0  0  0  0  0  0
   -6.3460    0.7350   -0.8450 C   0  0  0  0  0  0  0  0  0  0  0  0
   -6.4750    1.9640   -1.7350 C   0  0  0  0  0  0  0  0  0  0  0  0
   -2.9480   -0.0550    0.5810 N   0  0  0  0  0  0  0  0  0  0  0  0
   -2.1570   -0.4230   -0.9590 S   0  0  0  0  0  0  0  0  0  0  0  0
   -2.8780   -2.0450   -1.5470 C   0  0  0  0  0  0  0  0  0  0  0  0
   -2.2080    0.7610   -2.1030 O   0  0  0  0  0  0  0  0  0  0  0  0
   -0.4280   -0.8440   -0.5280 C   0  0  0  0  0  0  0  0  0  0  0  0
    0.5190   -1.1520   -1.3170 C   0  0  0  0  0  0  0  0  0  0  0  0
    1.7930   -1.4060   -0.5300 C   0  0  1  0  0  0  0  0  0  0  0  0
    2.8400   -0.5160   -1.0630 C   0  0  0  0  0  0  0  0  0  0  0  0
    4.1240   -0.5680   -0.5040 N   0  0  0  0  0  0  0  0  0  0  0  0
    5.1710    0.3340   -0.9750 C   0  0  0  0  0  0  0  0  0  0  0  0
    4.9070    1.1550   -1.8860 O   0  0  0  0  0  0  0  0  0  0  0  0
    6.4680    0.3090   -0.4370 N   0  0  0  0  0  0  0  0  0  0  0  0
    7.5190    1.2040   -0.9000 C   0  0  0  0  0  0  0  0  0  0  0  0
    7.1660    2.6530   -0.7120 C   0  0  0  0  0  0  0  0  0  0  0  0
  1  2  1  0
  2  3  2  3
  3  4  1  0
  3 20  1  0
  4  5  2  0
  4 18  1  0
  5  6  1  0
  6  7  2  0
  6 14  1  0
  7  8  1  0
  8  9  2  0
  9 10  1  0
 10 11  2  3
 10 14  1  0
 11 12  1  0
 12 13  1  0
 14 15  1  0
 15 16  1  0
 15 17  2  0
 15 18  1  0
 18 19  2  0
 19 20  1  0
 20 21  1  6
 21 22  1  0
 22 23  1  0
 23 24  2  0
 23 25  1  0
 25 26  1  0
 26 27  1  0
M  END
