
     RDKit          3D

 25 28  0  0  0  0  0  0  0  0999 V2000
    7.4980    0.3920    1.6080 N   0  0  0  0  0  0  0  0  0  0  0  0
    6.1900   -0.1550    1.9740 C   0  0  0  0  0  0  0  0  0  0  0  0
    5.5250   -0.5170    0.6960 C   0  0  0  0  0  0  0  0  0  0  0  0
    5.7950   -1.7050    0.0520 C   0  0  0  0  0  0  0  0  0  0  0  0
    5.2050   -2.0920   -1.1310 C   0  0  0  0  0  0  0  0  0  0  0  0
    4.2750   -1.2100   -1.6980 C   0  0  0  0  0  0  0  0  0  0  0  0
    3.9750   -0.0180   -1.0930 C   0  0  0  0  0  0  0  0  0  0  0  0
    2.9930    0.9030   -1.6920 C   0  0  0  0  0  0  0  0  0  0  0  0
    1.6710    0.5960   -1.1330 N   0  0  0  0  0  0  0  0  0  0  0  0
    0.5610    1.3990   -1.4920 C   0  0  0  0  0  0  0  0  0  0  0  0
    0.7420    2.3570   -2.2830 O   0  0  0  0  0  0  0  0  0  0  0  0
   -0.7600    1.1280   -0.9600 C   0  0  0  0  0  0  0  0  0  0  0  0
   -1.2200    1.8820    0.0980 C   0  0  0  0  0  0  0  0  0  0  0  0
   -2.4690    1.6490    0.6100 C   0  0  0  0  0  0  0  0  0  0  0  0
   -3.3220    0.6710    0.1130 C   0  0  0  0  0  0  0  0  0  0  0  0
   -4.5970    0.2530    0.4470 C   0  0  0  0  0  0  0  0  0  0  0  0
   -4.8950   -0.7540   -0.4180 C   0  0  0  0  0  0  0  0  0  0  0  0
   -3.8400   -0.9470   -1.2530 N   0  0  0  0  0  0  0  0  0  0  0  0
   -2.8410   -0.0700   -0.9440 C   0  0  0  0  0  0  0  0  0  0  0  0
   -1.5870    0.1540   -1.4690 C   0  0  0  0  0  0  0  0  0  0  0  0
   -6.1930   -1.4820   -0.4010 C   0  0  0  0  0  0  0  0  0  0  0  0
   -6.8590   -1.2300    0.9340 C   0  0  0  0  0  0  0  0  0  0  0  0
   -6.9330    0.2620    1.1720 C   0  0  0  0  0  0  0  0  0  0  0  0
   -5.5350    0.7360    1.5120 C   0  0  0  0  0  0  0  0  0  0  0  0
    4.5890    0.3230    0.0850 C   0  0  0  0  0  0  0  0  0  0  0  0
  1  2  1  0
  2  3  1  0
  3  4  2  0
  3 25  1  0
  4  5  1  0
  5  6  2  0
  6  7  1  0
  7  8  1  0
  7 25  2  0
  8  9  1  0
  9 10  1  0
 10 11  2  0
 10 12  1  0
 12 13  2  0
 12 20  1  0
 13 14  1  0
 14 15  2  0
 15 16  1  0
 15 19  1  0
 16 17  2  0
 16 24  1  0
 17 18  1  0
 17 21  1  0
 18 19  1  0
 19 20  2  0
 21 22  1  0
 22 23  1  0
 23 24  1  0
M  CHG  1   1   1
M  END
