
     RDKit          3D

 25 27  0  0  0  0  0  0  0  0999 V2000
    4.9290    3.8760   -0.8260 C   0  0  0  0  0  0  0  0  0  0  0  0
    4.0530    2.6600   -0.7900 C   0  0  0  0  0  0  0  0  0  0  0  0
    3.7150    2.0510    0.4050 C   0  0  0  0  0  0  0  0  0  0  0  0
    2.9090    0.9290    0.4600 C   0  0  0  0  0  0  0  0  0  0  0  0
    2.4150    0.3850   -0.7030 C   0  0  0  0  0  0  0  0  0  0  0  0
    1.5640   -0.7980   -0.6720 C   0  0  0  0  0  0  0  0  0  0  0  0
    1.8560   -1.8840   -1.4800 C   0  0  0  0  0  0  0  0  0  0  0  0
    1.0710   -3.0010   -1.4340 C   0  0  0  0  0  0  0  0  0  0  0  0
   -0.0500   -3.1030   -0.5790 C   0  0  0  0  0  0  0  0  0  0  0  0
   -0.8620   -4.3500   -0.6600 C   0  0  0  0  0  0  0  0  0  0  0  0
   -0.3100   -2.0210    0.2040 C   0  0  0  0  0  0  0  0  0  0  0  0
    0.4900   -0.8510    0.1680 C   0  0  0  0  0  0  0  0  0  0  0  0
    0.0800    0.3340    1.0110 C   0  0  0  0  0  0  0  0  0  0  0  0
   -1.4130    0.4440    0.7400 C   0  0  0  0  0  0  0  0  0  0  0  0
   -1.9260    1.6340    0.5110 C   0  0  0  0  0  0  0  0  0  0  0  0
   -3.3440    1.7960    0.2480 C   0  0  0  0  0  0  0  0  0  0  0  0
   -3.8270    3.0270    0.0180 C   0  0  0  0  0  0  0  0  0  0  0  0
   -5.1980    3.1930   -0.2380 N   0  0  0  0  0  0  0  0  0  0  0  0
   -2.1750   -0.7670    0.7500 N   0  0  0  0  0  0  0  0  0  0  0  0
   -1.3970   -1.9310    1.1810 C   0  0  1  0  0  0  0  0  0  0  0  0
   -2.1660   -3.0520    1.5960 C   0  0  0  0  0  0  0  0  0  0  0  0
   -1.5710   -4.1760    2.2090 N   0  0  0  0  0  0  0  0  0  0  0  0
   -3.4140   -3.0620    1.4300 O   0  0  0  0  0  0  0  0  0  0  0  0
    2.7510    0.9920   -1.8950 C   0  0  0  0  0  0  0  0  0  0  0  0
    3.5550    2.1110   -1.9550 C   0  0  0  0  0  0  0  0  0  0  0  0
  1  2  1  0
  2  3  2  0
  2 25  1  0
  3  4  1  0
  4  5  2  0
  5  6  1  0
  5 24  1  0
  6  7  2  0
  6 12  1  0
  7  8  1  0
  8  9  2  0
  9 10  1  0
  9 11  1  0
 11 12  2  0
 11 20  1  0
 12 13  1  0
 13 14  1  0
 14 15  2  3
 14 19  1  0
 15 16  1  0
 16 17  2  3
 17 18  1  0
 19 20  1  0
 20 21  1  6
 21 22  1  0
 21 23  2  0
 24 25  2  0
M  CHG  1  18   1
M  END
