
     RDKit          3D

 13 14  0  0  0  0  0  0  0  0999 V2000
   -0.8150    1.4300    1.2030 C   0  0  0  0  0  0  0  0  0  0  0  0
   -1.3390    0.3730    0.3040 C   0  0  0  0  0  0  0  0  0  0  0  0
   -2.7020    0.1900    0.1910 C   0  0  0  0  0  0  0  0  0  0  0  0
   -3.1860   -0.8020   -0.6540 C   0  0  0  0  0  0  0  0  0  0  0  0
   -2.3110   -1.5680   -1.3490 C   0  0  0  0  0  0  0  0  0  0  0  0
   -0.9350   -1.3720   -1.2260 C   0  0  0  0  0  0  0  0  0  0  0  0
   -0.4420   -0.3920   -0.3920 C   0  0  0  0  0  0  0  0  0  0  0  0
    0.9870   -0.1540   -0.2350 C   0  0  0  0  0  0  0  0  0  0  0  0
    1.9770   -0.8420   -0.8660 N   0  0  0  0  0  0  0  0  0  0  0  0
    3.1530   -0.3710   -0.4970 N   0  0  0  0  0  0  0  0  0  0  0  0
    2.9650    0.6310    0.3780 C   0  0  0  0  0  0  0  0  0  0  0  0
    4.2800    1.5700    1.1480 S   0  0  0  0  0  0  0  0  0  0  0  0
    1.6410    0.7430    0.5210 N   0  0  0  0  0  0  0  0  0  0  0  0
  1  2  1  0
  2  3  2  0
  2  7  1  0
  3  4  1  0
  4  5  2  0
  5  6  1  0
  6  7  2  0
  7  8  1  0
  8  9  2  0
  8 13  1  0
  9 10  1  0
 10 11  1  0
 11 12  1  0
 11 13  2  0
M  END
