
     RDKit          3D

 27 30  0  0  0  0  0  0  0  0999 V2000
    4.9650    0.1830    0.9710 C   0  0  0  0  0  0  0  0  0  0  0  0
    4.1230   -0.9470    1.4350 C   0  0  0  0  0  0  0  0  0  0  0  0
    2.8300   -1.0400    1.1700 C   0  0  0  0  0  0  0  0  0  0  0  0
    2.0890   -2.1840    1.6670 C   0  0  0  0  0  0  0  0  0  0  0  0
    1.2620   -2.9760    1.0410 C   0  0  0  0  0  0  0  0  0  0  0  0
    0.8370   -2.9370   -0.3720 C   0  0  0  0  0  0  0  0  0  0  0  0
   -0.6130   -3.3780   -0.4300 C   0  0  0  0  0  0  0  0  0  0  0  0
   -1.3740   -2.5320   -1.4850 C   0  0  0  0  0  0  0  0  0  0  0  0
   -2.1560   -1.5210   -0.7980 C   0  0  0  0  0  0  0  0  0  0  0  0
   -2.5590   -0.2200   -1.0220 C   0  0  0  0  0  0  0  0  0  0  0  0
   -3.3090    0.4370   -0.1090 C   0  0  0  0  0  0  0  0  0  0  0  0
   -3.6590   -0.2920    1.0810 C   0  0  0  0  0  0  0  0  0  0  0  0
   -4.4710    0.0760    2.2540 C   0  0  0  0  0  0  0  0  0  0  0  0
   -2.9060   -1.9430    0.9140 S   0  0  0  0  0  0  0  0  0  0  0  0
   -3.7630    1.8470   -0.1500 N   0  0  0  0  0  0  0  0  0  0  0  0
   -2.9430    2.9690   -0.4200 C   0  0  0  0  0  0  0  0  0  0  0  0
   -3.3970    4.1070   -0.5710 O   0  0  0  0  0  0  0  0  0  0  0  0
   -1.4680    2.8310   -0.5370 C   0  0  0  0  0  0  0  0  0  0  0  0
   -0.6650    3.7360   -1.1790 C   0  0  0  0  0  0  0  0  0  0  0  0
    0.6860    3.5460   -1.2870 C   0  0  0  0  0  0  0  0  0  0  0  0
    1.2440    2.4120   -0.7320 C   0  0  0  0  0  0  0  0  0  0  0  0
    0.4320    1.5050   -0.0870 C   0  0  0  0  0  0  0  0  0  0  0  0
   -0.8750    1.7380   -0.0100 N   0  0  0  0  0  0  0  0  0  0  0  0
    0.9960    0.3550    0.4540 N   0  0  0  0  0  0  0  0  0  0  0  0
    2.2470    0.0530    0.4040 C   0  0  0  0  0  0  0  0  0  0  0  0
    3.0160    0.8410   -0.4350 O   0  0  0  0  0  0  0  0  0  0  0  0
    2.7060    2.1580   -0.8270 C   0  0  0  0  0  0  0  0  0  0  0  0
  1  2  1  0
  2  3  2  3
  3  4  1  0
  3 25  1  0
  4  5  2  0
  5  6  1  0
  6  7  1  0
  7  8  1  0
  8  9  1  0
  9 10  2  0
  9 14  1  0
 10 11  1  0
 11 12  2  0
 11 15  1  0
 12 13  1  0
 12 14  1  0
 15 16  1  0
 16 17  2  0
 16 18  1  0
 18 19  1  0
 18 23  2  0
 19 20  2  0
 20 21  1  0
 21 22  2  0
 21 27  1  0
 22 23  1  0
 22 24  1  0
 24 25  2  0
 25 26  1  0
 26 27  1  0
M  END
