
     RDKit          3D

 25 28  0  0  0  0  0  0  0  0999 V2000
   -5.5050    2.7590    0.7680 C   0  0  0  0  0  0  0  0  0  0  0  0
   -4.4220    1.7790    0.5050 C   0  0  0  0  0  0  0  0  0  0  0  0
   -3.1130    2.1760    0.3830 C   0  0  0  0  0  0  0  0  0  0  0  0
   -2.0790    1.2650    0.1350 C   0  0  0  0  0  0  0  0  0  0  0  0
   -2.3680   -0.0700    0.0060 C   0  0  0  0  0  0  0  0  0  0  0  0
   -3.6850   -0.4770    0.1280 C   0  0  0  0  0  0  0  0  0  0  0  0
   -4.6960    0.4260    0.3720 C   0  0  0  0  0  0  0  0  0  0  0  0
   -6.1150   -0.0290    0.5010 C   0  0  0  0  0  0  0  0  0  0  0  0
   -6.2010   -1.4530    0.3350 N   0  0  0  0  0  0  0  0  0  0  0  0
   -1.3360   -1.0820   -0.2550 C   0  0  0  0  0  0  0  0  0  0  0  0
    0.0130   -0.5340   -0.3630 C   0  0  0  0  0  0  0  0  0  0  0  0
    1.0460   -1.4440   -0.6120 C   0  0  0  0  0  0  0  0  0  0  0  0
    0.7670   -2.8240   -0.7470 N   0  0  0  0  0  0  0  0  0  0  0  0
    2.3180   -0.9190   -0.7130 C   0  0  0  0  0  0  0  0  0  0  0  0
    2.5940    0.4340   -0.5800 C   0  0  0  0  0  0  0  0  0  0  0  0
    3.8640    1.0100   -0.6450 N   0  0  0  0  0  0  0  0  0  0  0  0
    5.0680    0.3400   -0.3390 C   0  0  0  0  0  0  0  0  0  0  0  0
    5.0910   -0.7330    0.5230 C   0  0  0  0  0  0  0  0  0  0  0  0
    6.2680   -1.4290    0.8210 C   0  0  0  0  0  0  0  0  0  0  0  0
    7.4510   -1.0360    0.2390 C   0  0  0  0  0  0  0  0  0  0  0  0
    7.4340    0.0450   -0.6300 C   0  0  0  0  0  0  0  0  0  0  0  0
    6.2790    0.7170   -0.9150 C   0  0  0  0  0  0  0  0  0  0  0  0
    1.5160    1.2890   -0.3330 C   0  0  0  0  0  0  0  0  0  0  0  0
    0.2350    0.7980   -0.2260 C   0  0  0  0  0  0  0  0  0  0  0  0
   -0.7740    1.7180    0.0200 O   0  0  0  0  0  0  0  0  0  0  0  0
  1  2  1  0
  2  3  2  0
  2  7  1  0
  3  4  1  0
  4  5  2  0
  4 25  1  0
  5  6  1  0
  5 10  1  0
  6  7  2  0
  7  8  1  0
  8  9  1  0
 10 11  1  0
 11 12  2  0
 11 24  1  0
 12 13  1  0
 12 14  1  0
 14 15  2  0
 15 16  1  0
 15 23  1  0
 16 17  1  0
 17 18  2  0
 17 22  1  0
 18 19  1  0
 19 20  2  0
 20 21  1  0
 21 22  2  0
 23 24  2  0
 24 25  1  0
M  END
