
     RDKit          3D

 27 30  0  0  0  0  0  0  0  0999 V2000
   -2.5580    4.9130    0.7410 C   0  0  0  0  0  0  0  0  0  0  0  0
   -2.1970    3.4540    0.8370 C   0  0  0  0  0  0  0  0  0  0  0  0
   -3.0640    2.5460    1.4080 C   0  0  0  0  0  0  0  0  0  0  0  0
   -2.6610    1.2420    1.4560 C   0  0  0  0  0  0  0  0  0  0  0  0
   -1.4400    0.7800    0.9660 C   0  0  0  0  0  0  0  0  0  0  0  0
   -0.5850    1.6640    0.4040 C   0  0  0  0  0  0  0  0  0  0  0  0
   -0.9980    3.0070    0.3550 C   0  0  0  0  0  0  0  0  0  0  0  0
    0.7530    1.3850   -0.1800 C   0  0  0  0  0  0  0  0  0  0  0  0
    1.8840    0.4900    0.8360 S   0  0  0  0  0  0  0  0  0  0  0  0
    3.1260   -0.4560   -0.0760 C   0  0  0  0  0  0  0  0  0  0  0  0
    3.8170    0.2540   -1.0330 C   0  0  0  0  0  0  0  0  0  0  0  0
    3.6380    1.6920   -1.3450 C   0  0  0  0  0  0  0  0  0  0  0  0
    4.8000   -0.4110   -1.7800 C   0  0  0  0  0  0  0  0  0  0  0  0
    5.0540   -1.7040   -1.5610 N   0  0  0  0  0  0  0  0  0  0  0  0
    4.3670   -2.3580   -0.6280 C   0  0  0  0  0  0  0  0  0  0  0  0
    3.3620   -1.7970    0.1790 C   0  0  0  0  0  0  0  0  0  0  0  0
    2.7430   -2.6120    1.1350 N   0  0  0  0  0  0  0  0  0  0  0  0
    1.3880   -2.8840    1.4360 C   0  0  0  0  0  0  0  0  0  0  0  0
    1.1050   -2.9630    2.7090 O   0  0  0  0  0  0  0  0  0  0  0  0
    0.2910   -3.0860    0.6160 N   0  0  0  0  0  0  0  0  0  0  0  0
   -0.1950   -2.2840   -0.4880 C   0  0  0  0  0  0  0  0  0  0  0  0
   -1.4430   -1.5020   -0.0880 C   0  0  1  0  0  0  0  0  0  0  0  0
   -2.0420   -0.7540   -1.2400 C   0  0  0  0  0  0  0  0  0  0  0  0
   -3.5180   -0.9230   -1.0370 C   0  0  0  0  0  0  0  0  0  0  0  0
   -3.7480   -1.7820   -0.0010 O   0  0  0  0  0  0  0  0  0  0  0  0
   -2.5740   -2.4830    0.2370 C   0  0  0  0  0  0  0  0  0  0  0  0
   -1.1990   -0.6700    1.1250 C   0  0  0  0  0  0  0  0  0  0  0  0
  1  2  1  0
  2  3  2  0
  2  7  1  0
  3  4  1  0
  4  5  2  0
  5  6  1  0
  5 27  1  0
  6  7  2  0
  6  8  1  0
  8  9  1  0
  9 10  1  0
 10 11  2  0
 10 16  1  0
 11 12  1  0
 11 13  1  0
 13 14  2  0
 14 15  1  0
 15 16  2  0
 16 17  1  0
 17 18  1  0
 18 19  2  0
 18 20  1  0
 20 21  1  0
 22 21  1  6
 22 23  1  0
 22 26  1  0
 22 27  1  0
 23 24  1  0
 24 25  1  0
 25 26  1  0
M  END
