
     RDKit          3D

 16 16  0  0  0  0  0  0  0  0999 V2000
    4.5490    0.8380    0.4910 C   0  0  0  0  0  0  0  0  0  0  0  0
    3.5260   -0.1170   -0.0430 C   0  0  0  0  0  0  0  0  0  0  0  0
    2.3390   -0.2700    0.5610 C   0  0  0  0  0  0  0  0  0  0  0  0
    2.0940    0.4750    1.6790 O   0  0  0  0  0  0  0  0  0  0  0  0
    1.3970   -1.2430   -0.0480 C   0  0  0  0  0  0  0  0  0  0  0  0
    0.1460   -0.6540   -0.4650 N   0  0  0  0  0  0  0  0  0  0  0  0
   -0.9540   -0.5830    0.2980 C   0  0  0  0  0  0  0  0  0  0  0  0
   -0.9230   -1.1720    1.6760 C   0  0  0  0  0  0  0  0  0  0  0  0
   -2.0940    0.0150   -0.1970 C   0  0  0  0  0  0  0  0  0  0  0  0
   -3.5190    0.0820    0.8550 S   0  0  0  0  0  0  0  0  0  0  0  0
   -4.9190    0.8850    0.0800 C   0  0  0  0  0  0  0  0  0  0  0  0
   -2.1040    0.5250   -1.4410 N   0  0  0  0  0  0  0  0  0  0  0  0
   -1.0080    0.4620   -2.2230 C   0  0  0  0  0  0  0  0  0  0  0  0
   -1.0300    0.9500   -3.4020 O   0  0  0  0  0  0  0  0  0  0  0  0
    0.1270   -0.1330   -1.7280 C   0  0  0  0  0  0  0  0  0  0  0  0
    1.1700   -0.1960   -2.4660 O   0  0  0  0  0  0  0  0  0  0  0  0
  1  2  1  0
  2  3  2  3
  3  4  1  0
  3  5  1  0
  5  6  1  0
  6  7  1  0
  6 15  1  0
  7  8  1  0
  7  9  2  0
  9 10  1  0
  9 12  1  0
 10 11  1  0
 12 13  1  0
 13 14  2  0
 13 15  1  0
 15 16  2  0
M  END
