
     RDKit          3D

 16 17  0  0  0  0  0  0  0  0999 V2000
    4.6340    1.0500    0.5770 C   0  0  0  0  0  0  0  0  0  0  0  0
    3.3230    0.5670    0.3800 O   0  0  0  0  0  0  0  0  0  0  0  0
    3.0280   -0.6950   -0.0570 C   0  0  0  0  0  0  0  0  0  0  0  0
    3.9660   -1.4890   -0.3030 O   0  0  0  0  0  0  0  0  0  0  0  0
    1.6200   -1.1050   -0.2320 C   0  0  0  0  0  0  0  0  0  0  0  0
    0.6310   -0.2840    0.0220 C   0  0  0  0  0  0  0  0  0  0  0  0
   -0.7810   -0.6150   -0.1260 C   0  0  0  0  0  0  0  0  0  0  0  0
   -1.1430   -1.8450   -0.5530 C   0  0  0  0  0  0  0  0  0  0  0  0
   -2.4390   -2.1890   -0.7040 N   0  0  0  0  0  0  0  0  0  0  0  0
   -3.3940   -1.2720   -0.4170 C   0  0  0  0  0  0  0  0  0  0  0  0
   -4.5910   -1.6500   -0.5770 O   0  0  0  0  0  0  0  0  0  0  0  0
   -3.0610   -0.0280    0.0140 C   0  0  0  0  0  0  0  0  0  0  0  0
   -1.7620    0.3540    0.1770 C   0  0  0  0  0  0  0  0  0  0  0  0
   -1.5560    1.6580    0.6150 N   0  0  0  0  0  0  0  0  0  0  0  0
   -2.6560    2.2560    1.3420 C   0  0  0  0  0  0  0  0  0  0  0  0
   -4.0400    1.3830    0.4840 S   0  0  0  0  0  0  0  0  0  0  0  0
  1  2  1  0
  2  3  1  0
  3  4  2  0
  3  5  1  0
  5  6  2  3
  6  7  1  0
  7  8  2  0
  7 13  1  0
  8  9  1  0
  9 10  1  0
 10 11  2  0
 10 12  1  0
 12 13  2  0
 12 16  1  0
 13 14  1  0
 14 15  1  0
 15 16  1  0
M  END
