
     RDKit          3D

 16 17  0  0  0  0  0  0  0  0999 V2000
    5.4680   -0.0390    0.3840 C   0  0  0  0  0  0  0  0  0  0  0  0
    4.0840    0.3060    0.7140 N   0  0  0  0  0  0  0  0  0  0  0  0
    3.0150   -0.2930   -0.0070 C   0  0  0  0  0  0  0  0  0  0  0  0
    3.2560   -1.1160   -0.9250 O   0  0  0  0  0  0  0  0  0  0  0  0
    1.6410    0.0310    0.2990 N   0  0  0  0  0  0  0  0  0  0  0  0
    0.6410   -0.6180   -0.4760 C   0  0  0  0  0  0  0  0  0  0  0  0
   -0.7520   -0.2630   -0.1350 C   0  0  0  0  0  0  0  0  0  0  0  0
   -1.1560    0.6080    0.8300 C   0  0  0  0  0  0  0  0  0  0  0  0
   -2.4700    0.9100    1.1150 C   0  0  0  0  0  0  0  0  0  0  0  0
   -2.7300    1.7300    2.0290 O   0  0  0  0  0  0  0  0  0  0  0  0
   -3.4770    0.2740    0.3540 C   0  0  0  0  0  0  0  0  0  0  0  0
   -4.8030    0.4240    0.4660 C   0  0  0  0  0  0  0  0  0  0  0  0
   -5.6330   -0.2780   -0.3630 C   0  0  0  0  0  0  0  0  0  0  0  0
   -4.4410   -1.2130   -1.3660 S   0  0  0  0  0  0  0  0  0  0  0  0
   -2.9930   -0.5820   -0.5920 C   0  0  0  0  0  0  0  0  0  0  0  0
   -1.7110   -0.8360   -0.8240 O   0  0  0  0  0  0  0  0  0  0  0  0
  1  2  1  0
  2  3  1  0
  3  4  2  0
  3  5  1  0
  5  6  1  0
  6  7  1  0
  7  8  2  0
  7 16  1  0
  8  9  1  0
  9 10  2  0
  9 11  1  0
 11 12  1  0
 11 15  2  0
 12 13  2  0
 13 14  1  0
 14 15  1  0
 15 16  1  0
M  END
