
     RDKit          3D

 15 15  0  0  0  0  0  0  0  0999 V2000
    4.5890    0.4740    1.2210 N   0  0  0  0  0  0  0  0  0  0  0  0
    3.8940   -0.1670    0.1140 C   0  0  0  0  0  0  0  0  0  0  0  0
    2.4040    0.0610    0.1920 C   0  0  0  0  0  0  0  0  0  0  0  0
    1.7380   -0.6130   -0.9820 C   0  0  1  0  0  0  0  0  0  0  0  0
    1.9720   -1.9550   -0.9610 O   0  0  0  0  0  0  0  0  0  0  0  0
    0.3070   -0.1960   -1.1720 C   0  0  0  0  0  0  0  0  0  0  0  0
   -0.5930   -0.4710   -0.0130 C   0  0  2  0  0  0  0  0  0  0  0  0
   -0.6650   -1.9450    0.3410 C   0  0  0  0  0  0  0  0  0  0  0  0
   -1.4070   -2.0620    1.5050 O   0  0  0  0  0  0  0  0  0  0  0  0
   -2.7320   -1.7060    1.3680 C   0  0  0  0  0  0  0  0  0  0  0  0
   -2.9190   -0.3680    0.7100 C   0  0  0  0  0  0  0  0  0  0  0  0
   -1.8900    0.0340   -0.1420 N   0  0  0  0  0  0  0  0  0  0  0  0
   -2.1790    1.1790   -0.8860 C   0  0  0  0  0  0  0  0  0  0  0  0
   -2.2590    2.3850    0.0610 C   0  0  0  0  0  0  0  0  0  0  0  0
   -2.5480    3.5230   -0.6970 O   0  0  0  0  0  0  0  0  0  0  0  0
  1  2  1  0
  2  3  1  0
  3  4  1  0
  4  5  1  1
  4  6  1  0
  7  6  1  6
  7  8  1  0
  7 12  1  0
  8  9  1  0
  9 10  1  0
 10 11  1  0
 11 12  1  0
 12 13  1  0
 13 14  1  0
 14 15  1  0
M  END
