
     RDKit          3D

 16 16  0  0  0  0  0  0  0  0999 V2000
   -5.6340   -0.7640    0.0520 C   0  0  0  0  0  0  0  0  0  0  0  0
   -4.2320   -0.3230    0.3270 C   0  0  0  0  0  0  0  0  0  0  0  0
   -3.5940   -0.8240    1.2860 O   0  0  0  0  0  0  0  0  0  0  0  0
   -3.5710    0.6600   -0.4650 N   0  0  0  0  0  0  0  0  0  0  0  0
   -2.2320    1.0760   -0.1960 C   0  0  0  0  0  0  0  0  0  0  0  0
   -1.2620   -0.0750   -0.2830 C   0  0  0  0  0  0  0  0  0  0  0  0
   -1.6390   -1.2400   -0.5610 O   0  0  0  0  0  0  0  0  0  0  0  0
    0.1190    0.1430   -0.0460 N   0  0  0  0  0  0  0  0  0  0  0  0
    1.1350   -0.8600   -0.0970 C   0  0  0  0  0  0  0  0  0  0  0  0
    2.4820   -0.3760    0.1860 C   0  0  0  0  0  0  0  0  0  0  0  0
    3.1370   -0.8940    1.2130 C   0  0  0  0  0  0  0  0  0  0  0  0
    4.4970   -0.5120    1.6240 C   0  0  0  0  0  0  0  0  0  0  0  0
    5.0620    0.4720    0.8170 O   0  0  0  0  0  0  0  0  0  0  0  0
    4.4020    1.0190   -0.2480 C   0  0  0  0  0  0  0  0  0  0  0  0
    3.1770    0.6360   -0.5720 C   0  0  0  0  0  0  0  0  0  0  0  0
    2.5740    1.2260   -1.6520 O   0  0  0  0  0  0  0  0  0  0  0  0
  1  2  1  0
  2  3  2  0
  2  4  1  0
  4  5  1  0
  5  6  1  0
  6  7  2  0
  6  8  1  0
  8  9  1  0
  9 10  1  0
 10 11  2  0
 10 15  1  0
 11 12  1  0
 12 13  1  0
 13 14  1  0
 14 15  2  0
 15 16  1  0
M  END
