
     RDKit          3D

 13 14  0  0  0  0  0  0  0  0999 V2000
    2.7560   -0.8150    1.0590 N   0  0  0  0  0  0  0  0  0  0  0  0
    1.5450    0.0210    1.0020 C   0  0  0  0  0  0  0  0  0  0  0  0
    1.5010    0.6180   -0.3630 C   0  0  1  0  0  0  0  0  0  0  0  0
    1.4460   -0.3920   -1.3110 O   0  0  0  0  0  0  0  0  0  0  0  0
    0.3250   -1.1770   -1.2270 C   0  0  0  0  0  0  0  0  0  0  0  0
   -0.9600   -0.4800   -1.0270 C   0  0  1  0  0  0  0  0  0  0  0  0
   -1.8500   -1.3900   -0.4080 O   0  0  0  0  0  0  0  0  0  0  0  0
   -2.8520   -0.6980    0.2580 C   0  0  0  0  0  0  0  0  0  0  0  0
   -2.2120   -0.0000    1.4330 C   0  0  0  0  0  0  0  0  0  0  0  0
   -1.1180    0.7300    1.0620 O   0  0  0  0  0  0  0  0  0  0  0  0
   -0.9200    0.8130   -0.3100 C   0  0  1  0  0  0  0  0  0  0  0  0
    0.3480    1.5320   -0.6190 C   0  0  1  0  0  0  0  0  0  0  0  0
    0.4610    2.7560    0.0210 O   0  0  0  0  0  0  0  0  0  0  0  0
  1  2  1  0
  3  2  1  1
  3  4  1  0
  3 12  1  0
  4  5  1  0
  6  5  1  1
  6  7  1  0
  6 11  1  0
  7  8  1  0
  8  9  1  0
  9 10  1  0
 11 10  1  1
 11 12  1  0
 12 13  1  1
M  CHG  1   1   1
M  END
