
     RDKit          3D

 13 14  0  0  0  0  0  0  0  0999 V2000
    2.6770    0.8220    0.1830 N   0  0  0  0  0  0  0  0  0  0  0  0
    1.5200    0.0290   -0.0740 C   0  0  1  0  0  0  0  0  0  0  0  0
    1.7530   -1.4010    0.3180 C   0  0  0  0  0  0  0  0  0  0  0  0
    0.6750   -2.2130    0.2120 O   0  0  0  0  0  0  0  0  0  0  0  0
   -0.4870   -1.6910   -0.2400 C   0  0  0  0  0  0  0  0  0  0  0  0
   -0.8440   -0.3240    0.2420 C   0  0  1  0  0  0  0  0  0  0  0  0
   -1.4480    0.4560   -0.9330 C   0  0  0  0  0  0  0  0  0  0  0  0
   -2.8100    0.8890   -0.4990 C   0  0  0  0  0  0  0  0  0  0  0  0
   -3.0710    0.2700    0.7450 O   0  0  0  0  0  0  0  0  0  0  0  0
   -1.9440   -0.3480    1.2330 C   0  0  0  0  0  0  0  0  0  0  0  0
   -1.8490   -0.8690    2.3680 O   0  0  0  0  0  0  0  0  0  0  0  0
    0.3090    0.4740    0.7570 C   0  0  2  0  0  0  0  0  0  0  0  0
    0.0900    1.8310    0.6620 O   0  0  0  0  0  0  0  0  0  0  0  0
  2  1  1  1
  2  3  1  0
  2 12  1  0
  3  4  1  0
  4  5  1  0
  6  5  1  6
  6  7  1  0
  6 10  1  0
  6 12  1  0
  7  8  1  0
  8  9  1  0
  9 10  1  0
 10 11  2  0
 12 13  1  6
M  CHG  1   1   1
M  END
