
     RDKit          3D

 12 13  0  0  0  0  0  0  0  0999 V2000
    1.8030    1.0410    1.9090 O   0  0  0  0  0  0  0  0  0  0  0  0
    2.0620    1.1970    0.5600 C   0  0  0  0  0  0  0  0  0  0  0  0
    1.1280    0.4030   -0.3110 C   0  0  1  0  0  0  0  0  0  0  0  0
    1.5080    0.6580   -1.6440 O   0  0  0  0  0  0  0  0  0  0  0  0
    1.3410   -1.0920   -0.1180 C   0  0  0  0  0  0  0  0  0  0  0  0
    0.5160   -1.8620   -0.9940 N   0  0  0  0  0  0  0  0  0  0  0  0
   -0.8790   -1.4400   -0.9900 C   0  0  0  0  0  0  0  0  0  0  0  0
   -1.0530   -0.5450    0.1620 C   0  0  2  0  0  0  0  0  0  0  0  0
   -2.3960    0.0520    0.3760 C   0  0  0  0  0  0  0  0  0  0  0  0
   -2.0220    1.3400    1.0870 C   0  0  0  0  0  0  0  0  0  0  0  0
   -0.6540    1.5220    0.8890 O   0  0  0  0  0  0  0  0  0  0  0  0
   -0.2910    0.7500   -0.1720 C   0  0  1  0  0  0  0  0  0  0  0  0
  1  2  1  0
  2  3  1  0
  3  4  1  6
  3  5  1  0
  3 12  1  0
  5  6  1  0
  6  7  1  0
  8  7  1  6
  8  9  1  0
  8 12  1  0
  9 10  1  0
 10 11  1  0
 12 11  1  1
M  CHG  1   6   1
M  END
