
     RDKit          3D

 13 14  0  0  0  0  0  0  0  0999 V2000
    0.0480    2.7450    0.1380 N   0  0  0  0  0  0  0  0  0  0  0  0
    0.7760    1.5220    0.0250 C   0  0  0  0  0  0  0  0  0  0  0  0
   -0.1190    0.3250   -0.1910 C   0  0  2  0  0  0  0  0  0  0  0  0
    0.6550   -0.9380   -0.3060 C   0  0  2  0  0  0  0  0  0  0  0  0
    1.4830   -1.2890    0.8840 C   0  0  0  0  0  0  0  0  0  0  0  0
    2.7760   -1.5470    0.3680 O   0  0  0  0  0  0  0  0  0  0  0  0
    2.4320   -1.9590   -0.9400 C   0  0  0  0  0  0  0  0  0  0  0  0
    1.6170   -0.8950   -1.3280 O   0  0  0  0  0  0  0  0  0  0  0  0
   -1.0020    0.4740   -1.3920 C   0  0  0  0  0  0  0  0  0  0  0  0
   -2.3150    0.4580   -0.9600 O   0  0  0  0  0  0  0  0  0  0  0  0
   -2.3270   -0.3870    0.1530 C   0  0  2  0  0  0  0  0  0  0  0  0
   -3.4920   -0.3020    0.8740 O   0  0  0  0  0  0  0  0  0  0  0  0
   -1.1230    0.1630    0.9300 C   0  0  0  0  0  0  0  0  0  0  0  0
  1  2  1  0
  3  2  1  1
  3  4  1  0
  3  9  1  0
  3 13  1  0
  4  5  1  1
  4  8  1  0
  5  6  1  0
  6  7  1  0
  7  8  1  0
  9 10  1  0
 10 11  1  0
 11 12  1  1
 11 13  1  0
M  CHG  1   1   1
M  END
