
     RDKit          3D

 17 18  0  0  0  0  0  0  0  0999 V2000
   -1.5510    2.1170   -1.8630 O   0  0  0  0  0  0  0  0  0  0  0  0
   -2.4250    1.7540   -1.0620 C   0  0  0  0  0  0  0  0  0  0  0  0
   -3.7050    2.3590   -1.1390 O   0  0  0  0  0  0  0  0  0  0  0  0
   -2.1700    0.7370   -0.0600 C   0  0  0  0  0  0  0  0  0  0  0  0
   -3.2240    0.4680    0.8140 C   0  0  0  0  0  0  0  0  0  0  0  0
   -3.0590   -0.4380    1.8150 C   0  0  0  0  0  0  0  0  0  0  0  0
   -1.8490   -1.0870    1.9580 C   0  0  0  0  0  0  0  0  0  0  0  0
   -0.8270   -0.8070    1.0840 C   0  0  0  0  0  0  0  0  0  0  0  0
   -0.9630    0.1220    0.0420 C   0  0  0  0  0  0  0  0  0  0  0  0
    0.1120    0.2710   -0.8460 N   0  0  0  0  0  0  0  0  0  0  0  0
    1.4680   -0.0940   -0.5680 C   0  0  0  0  0  0  0  0  0  0  0  0
    2.0150    0.0280    0.6790 C   0  0  0  0  0  0  0  0  0  0  0  0
    3.3410   -0.3750    0.8930 C   0  0  0  0  0  0  0  0  0  0  0  0
    4.0770   -0.8860   -0.1520 C   0  0  0  0  0  0  0  0  0  0  0  0
    3.5210   -1.0060   -1.4060 C   0  0  0  0  0  0  0  0  0  0  0  0
    4.5290   -1.7160   -2.8800 Br  0  0  0  0  0  0  0  0  0  0  0  0
    2.2160   -0.6030   -1.5900 C   0  0  0  0  0  0  0  0  0  0  0  0
  1  2  2  0
  2  3  1  0
  2  4  1  0
  4  5  2  0
  4  9  1  0
  5  6  1  0
  6  7  2  0
  7  8  1  0
  8  9  2  0
  9 10  1  0
 10 11  1  0
 11 12  2  0
 11 17  1  0
 12 13  1  0
 13 14  2  0
 14 15  1  0
 15 16  1  0
 15 17  2  0
M  END
