
     RDKit          3D

 13 14  0  0  0  0  0  0  0  0999 V2000
    0.4250   -1.8690    1.3630 N   0  0  0  0  0  0  0  0  0  0  0  0
    0.9200   -1.4590    0.0940 C   0  0  0  0  0  0  0  0  0  0  0  0
    0.4050   -0.1320   -0.4020 C   0  0  2  0  0  0  0  0  0  0  0  0
   -1.0600   -0.1940   -0.5220 C   0  0  2  0  0  0  0  0  0  0  0  0
   -1.7690    1.0180   -1.0010 C   0  0  0  0  0  0  0  0  0  0  0  0
   -3.0280    0.9120   -0.4100 O   0  0  0  0  0  0  0  0  0  0  0  0
   -2.8550    0.1820    0.7570 C   0  0  0  0  0  0  0  0  0  0  0  0
   -1.6240   -0.4270    0.7140 O   0  0  0  0  0  0  0  0  0  0  0  0
    1.1040    0.0860   -1.7550 C   0  0  0  0  0  0  0  0  0  0  0  0
    2.4120    0.2540   -1.3480 O   0  0  0  0  0  0  0  0  0  0  0  0
    2.4400    0.9160   -0.1490 C   0  0  0  0  0  0  0  0  0  0  0  0
    0.9800    1.0400    0.3180 C   0  0  2  0  0  0  0  0  0  0  0  0
    0.8550    1.0520    1.6700 O   0  0  0  0  0  0  0  0  0  0  0  0
  1  2  1  0
  3  2  1  1
  3  4  1  0
  3  9  1  0
  3 12  1  0
  4  5  1  1
  4  8  1  0
  5  6  1  0
  6  7  1  0
  7  8  1  0
  9 10  1  0
 10 11  1  0
 11 12  1  0
 12 13  1  1
M  CHG  1   1   1
M  END
