
     RDKit          3D

 13 14  0  0  0  0  0  0  0  0999 V2000
   -2.8990   -1.4160   -0.1900 N   0  0  0  0  0  0  0  0  0  0  0  0
   -1.8160   -1.2920    0.7530 C   0  0  0  0  0  0  0  0  0  0  0  0
   -0.9060   -0.1820    0.2650 C   0  0  1  0  0  0  0  0  0  0  0  0
   -1.6850    1.0970    0.3090 C   0  0  0  0  0  0  0  0  0  0  0  0
   -0.9830    2.2100   -0.0720 O   0  0  0  0  0  0  0  0  0  0  0  0
    0.3190   -0.0470    1.1390 C   0  0  0  0  0  0  0  0  0  0  0  0
    1.3300    0.4980    0.1870 C   0  0  1  0  0  0  0  0  0  0  0  0
    1.5920    1.8500    0.3530 O   0  0  0  0  0  0  0  0  0  0  0  0
    2.6320   -0.3120    0.1940 C   0  0  0  0  0  0  0  0  0  0  0  0
    2.9430   -0.2060   -1.3060 C   0  0  0  0  0  0  0  0  0  0  0  0
    1.7210   -0.6410   -1.8150 O   0  0  0  0  0  0  0  0  0  0  0  0
    0.7810    0.1580   -1.1700 C   0  0  1  0  0  0  0  0  0  0  0  0
   -0.4240   -0.5020   -0.9780 O   0  0  0  0  0  0  0  0  0  0  0  0
  1  2  1  0
  3  2  1  1
  3  4  1  0
  3  6  1  0
  3 13  1  0
  4  5  1  0
  6  7  1  0
  7  8  1  6
  7  9  1  0
  7 12  1  0
  9 10  1  0
 10 11  1  0
 12 11  1  1
 12 13  1  0
M  CHG  1   1   1
M  END
