
     RDKit          3D

 12 13  0  0  0  0  0  0  0  0999 V2000
   -3.1290   -0.5910   -0.3020 C   0  0  0  0  0  0  0  0  0  0  0  0
   -1.6380   -0.6580   -0.3470 C   0  0  2  0  0  0  0  0  0  0  0  0
   -1.2480   -1.7570    0.4570 O   0  0  0  0  0  0  0  0  0  0  0  0
    0.0760   -2.0160    0.0650 C   0  0  0  0  0  0  0  0  0  0  0  0
    1.0200   -0.9260    0.4160 C   0  0  1  0  0  0  0  0  0  0  0  0
    2.0190   -0.8940   -0.5830 O   0  0  0  0  0  0  0  0  0  0  0  0
    3.0450   -0.0800   -0.0830 C   0  0  0  0  0  0  0  0  0  0  0  0
    2.4880    1.3290   -0.0410 C   0  0  0  0  0  0  0  0  0  0  0  0
    1.1270    1.3690   -0.2350 O   0  0  0  0  0  0  0  0  0  0  0  0
    0.4430    0.4220    0.5580 C   0  0  1  0  0  0  0  0  0  0  0  0
   -1.0050    0.5570    0.2640 C   0  0  1  0  0  0  0  0  0  0  0  0
   -1.2850    1.6780   -0.6470 N   0  0  0  0  0  0  0  0  0  0  0  0
  2  1  1  1
  2  3  1  0
  2 11  1  0
  3  4  1  0
  5  4  1  6
  5  6  1  0
  5 10  1  0
  6  7  1  0
  7  8  1  0
  8  9  1  0
 10  9  1  6
 10 11  1  0
 11 12  1  6
M  CHG  1  12   1
M  END
