
     RDKit          3D

 19 20  0  0  0  0  0  0  0  0999 V2000
    5.7120    0.7600    0.0600 C   0  0  0  0  0  0  0  0  0  0  0  0
    4.8280   -0.4680   -0.1830 C   0  0  2  0  0  0  0  0  0  0  0  0
    3.5230    0.0130   -0.6310 C   0  0  0  0  0  0  0  0  0  0  0  0
    2.3770   -0.2090   -0.0420 C   0  0  0  0  0  0  0  0  0  0  0  0
    1.1490    0.3400   -0.6100 C   0  0  0  0  0  0  0  0  0  0  0  0
    1.2020    1.0220   -1.6630 O   0  0  0  0  0  0  0  0  0  0  0  0
   -0.1290    0.1440   -0.0320 N   0  0  0  0  0  0  0  0  0  0  0  0
   -1.3030    0.7210   -0.6560 C   0  0  0  0  0  0  0  0  0  0  0  0
   -2.5540    0.4130    0.0880 C   0  0  1  0  0  0  0  0  0  0  0  0
   -2.4780    0.9150    1.3820 O   0  0  0  0  0  0  0  0  0  0  0  0
   -3.7020    1.1200   -0.6330 C   0  0  0  0  0  0  0  0  0  0  0  0
   -4.8590    0.9720    0.2640 N   0  0  0  0  0  0  0  0  0  0  0  0
   -5.1160   -0.4410    0.3810 C   0  0  0  0  0  0  0  0  0  0  0  0
   -4.0660   -1.1540    0.9240 O   0  0  0  0  0  0  0  0  0  0  0  0
   -2.9040   -1.0350    0.1440 C   0  0  0  0  0  0  0  0  0  0  0  0
    2.3380   -0.9750    1.1350 N   0  0  0  0  0  0  0  0  0  0  0  0
    3.5320   -1.4930    1.6650 C   0  0  0  0  0  0  0  0  0  0  0  0
    3.5390   -2.1970    2.7380 O   0  0  0  0  0  0  0  0  0  0  0  0
    4.7600   -1.2430    1.0150 N   0  0  0  0  0  0  0  0  0  0  0  0
  2  1  1  1
  2  3  1  0
  2 19  1  0
  3  4  2  0
  4  5  1  0
  4 16  1  0
  5  6  2  0
  5  7  1  0
  7  8  1  0
  8  9  1  0
  9 10  1  1
  9 11  1  0
  9 15  1  0
 11 12  1  0
 12 13  1  0
 13 14  1  0
 14 15  1  0
 16 17  1  0
 17 18  2  0
 17 19  1  0
M  CHG  1  12   1
M  END
