
     RDKit          3D

 19 20  0  0  0  0  0  0  0  0999 V2000
   -0.8250    1.4490    0.4390 O   0  0  0  0  0  0  0  0  0  0  0  0
   -0.8780    0.2590    0.3810 C   0  0  0  0  0  0  0  0  0  0  0  0
    0.0160   -0.8330    0.5610 N   0  0  0  0  0  0  0  0  0  0  0  0
    1.4280    0.1670    0.8700 C   0  0  0  0  0  0  0  0  0  0  0  0
    1.2090    1.3010    0.8460 O   0  0  0  0  0  0  0  0  0  0  0  0
    2.5810   -0.6510    1.0930 C   0  0  1  0  0  0  0  0  0  0  0  0
    2.4330   -2.0050    0.9370 O   0  0  0  0  0  0  0  0  0  0  0  0
    3.7480   -0.1820    0.2660 C   0  0  0  0  0  0  0  0  0  0  0  0
    4.2690   -0.8650   -0.7350 C   0  0  0  0  0  0  0  0  0  0  0  0
    5.3340   -0.1440   -1.2890 N   0  0  0  0  0  0  0  0  0  0  0  0
    5.4490    1.0550   -0.5570 C   0  0  0  0  0  0  0  0  0  0  0  0
    4.5130    1.0440    0.3640 C   0  0  0  0  0  0  0  0  0  0  0  0
   -2.2050   -0.3000    0.0270 N   0  0  0  0  0  0  0  0  0  0  0  0
   -3.3520    0.4500   -0.2280 C   0  0  2  0  0  0  0  0  0  0  0  0
   -4.5650   -0.0740    0.5090 C   0  0  0  0  0  0  0  0  0  0  0  0
   -5.7130    0.3470   -0.3420 C   0  0  0  0  0  0  0  0  0  0  0  0
   -5.1710    0.4070   -1.6770 N   0  0  0  0  0  0  0  0  0  0  0  0
   -3.7660    0.4440   -1.6410 C   0  0  0  0  0  0  0  0  0  0  0  0
   -3.0320    0.4660   -2.6580 O   0  0  0  0  0  0  0  0  0  0  0  0
  1  2  2  0
  2  3  1  0
  2 13  1  0
  3  4  1  0
  4  5  2  0
  4  6  1  0
  6  7  1  6
  6  8  1  0
  8  9  2  0
  8 12  1  0
  9 10  1  0
 10 11  1  0
 11 12  2  0
 14 13  1  6
 14 15  1  0
 14 18  1  0
 15 16  1  0
 16 17  1  0
 17 18  1  0
 18 19  2  0
M  CHG  1  10   1
M  END
