
     RDKit          3D

 19 20  0  0  0  0  0  0  0  0999 V2000
   -2.4640    2.4090   -0.6550 N   0  0  0  0  0  0  0  0  0  0  0  0
   -1.5700    1.5390    0.0650 C   0  0  0  0  0  0  0  0  0  0  0  0
   -1.7040    0.2320    0.0320 C   0  0  0  0  0  0  0  0  0  0  0  0
   -2.8130   -0.3370   -0.7740 C   0  0  0  0  0  0  0  0  0  0  0  0
   -3.6300   -1.0680    0.1230 O   0  0  0  0  0  0  0  0  0  0  0  0
   -0.7980   -0.6350    0.7740 C   0  0  1  0  0  0  0  0  0  0  0  0
   -1.4830   -1.3630    1.8370 N   0  0  0  0  0  0  0  0  0  0  0  0
   -0.0050   -1.6140   -0.0170 C   0  0  0  0  0  0  0  0  0  0  0  0
    0.9270   -1.0520   -1.0370 C   0  0  1  0  0  0  0  0  0  0  0  0
    0.3370   -0.2670   -2.0660 N   0  0  0  0  0  0  0  0  0  0  0  0
    0.9570    1.0040   -2.0680 C   0  0  0  0  0  0  0  0  0  0  0  0
    0.6800    1.9440   -2.8530 O   0  0  0  0  0  0  0  0  0  0  0  0
    1.9530    1.0160   -1.0130 C   0  0  0  0  0  0  0  0  0  0  0  0
    1.9480   -0.1440   -0.4160 C   0  0  0  0  0  0  0  0  0  0  0  0
    2.8480   -0.4860    0.7240 C   0  0  0  0  0  0  0  0  0  0  0  0
    3.7140    0.5910    1.0840 N   0  0  0  0  0  0  0  0  0  0  0  0
    3.6850    1.8350    0.4070 C   0  0  0  0  0  0  0  0  0  0  0  0
    4.4900    2.7660    0.7820 O   0  0  0  0  0  0  0  0  0  0  0  0
    2.8160    2.0590   -0.6340 O   0  0  0  0  0  0  0  0  0  0  0  0
  1  2  1  0
  2  3  2  3
  3  4  1  0
  3  6  1  0
  4  5  1  0
  6  7  1  1
  6  8  1  0
  9  8  1  1
  9 10  1  0
  9 14  1  0
 10 11  1  0
 11 12  2  0
 11 13  1  0
 13 14  2  0
 13 19  1  0
 14 15  1  0
 15 16  1  0
 16 17  1  0
 17 18  2  0
 17 19  1  0
M  CHG  1   7   1
M  END
