
     RDKit          3D

 19 20  0  0  0  0  0  0  0  0999 V2000
   -4.2680    1.4920    0.4310 C   0  0  0  0  0  0  0  0  0  0  0  0
   -3.4590    0.3510    0.0700 N   0  0  0  0  0  0  0  0  0  0  0  0
   -3.4590   -0.9480    0.6890 C   0  0  0  0  0  0  0  0  0  0  0  0
   -2.5260   -1.8180   -0.1360 C   0  0  2  0  0  0  0  0  0  0  0  0
   -1.8540   -2.7640    0.6060 O   0  0  0  0  0  0  0  0  0  0  0  0
   -1.5880   -0.8030   -0.6990 N   0  0  0  0  0  0  0  0  0  0  0  0
   -0.2150   -0.9660   -0.8820 C   0  0  0  0  0  0  0  0  0  0  0  0
    0.2940   -2.0840   -0.5760 O   0  0  0  0  0  0  0  0  0  0  0  0
    0.6850    0.0570   -1.3980 C   0  0  1  0  0  0  0  0  0  0  0  0
    0.0430    1.3350   -1.5010 N   0  0  0  0  0  0  0  0  0  0  0  0
    1.9620    0.1370   -0.6390 C   0  0  0  0  0  0  0  0  0  0  0  0
    3.1220   -0.0650   -1.2090 C   0  0  0  0  0  0  0  0  0  0  0  0
    4.3850    0.0110   -0.4760 C   0  0  0  0  0  0  0  0  0  0  0  0
    4.3160    0.3030    0.8960 N   0  0  0  0  0  0  0  0  0  0  0  0
    3.0600    0.5070    1.4400 C   0  0  0  0  0  0  0  0  0  0  0  0
    1.9440    0.4410    0.7710 C   0  0  0  0  0  0  0  0  0  0  0  0
    0.7480    0.6740    1.4710 O   0  0  0  0  0  0  0  0  0  0  0  0
   -2.4860    0.2770   -0.9870 C   0  0  0  0  0  0  0  0  0  0  0  0
   -2.4260    1.0240   -1.9930 O   0  0  0  0  0  0  0  0  0  0  0  0
  1  2  1  0
  2  3  1  0
  2 18  1  0
  3  4  1  0
  4  5  1  1
  4  6  1  0
  6  7  1  0
  6 18  1  0
  7  8  2  0
  7  9  1  0
  9 10  1  1
  9 11  1  0
 11 12  2  0
 11 16  1  0
 12 13  1  0
 13 14  1  0
 14 15  1  0
 15 16  2  0
 16 17  1  0
 18 19  2  0
M  CHG  1  14   1
M  END
