
     RDKit          3D

 27 29  0  0  0  0  0  0  0  0999 V2000
    7.6140    2.1020    0.3050 O   0  0  0  0  0  0  0  0  0  0  0  0
    6.5980    1.4170    0.6320 C   0  0  0  0  0  0  0  0  0  0  0  0
    5.5330    2.0810    1.1610 O   0  0  0  0  0  0  0  0  0  0  0  0
    6.5980   -0.0300    0.4390 C   0  0  0  0  0  0  0  0  0  0  0  0
    5.4490   -0.6920    0.7710 O   0  0  0  0  0  0  0  0  0  0  0  0
    4.3220   -0.3730    0.0660 C   0  0  0  0  0  0  0  0  0  0  0  0
    3.1660   -1.2160    0.5770 C   0  0  0  0  0  0  0  0  0  0  0  0
    1.9750   -0.8850   -0.1620 N   0  0  2  0  0  0  0  0  0  0  0  0
    1.5780    0.4860    0.0580 C   0  0  0  0  0  0  0  0  0  0  0  0
    0.1500    0.6210   -0.4400 C   0  0  0  0  0  0  0  0  0  0  0  0
   -0.7260   -0.0350    0.5150 N   0  0  1  0  0  0  0  0  0  0  0  0
   -1.9590   -0.3590   -0.1530 C   0  0  1  0  0  0  0  0  0  0  0  0
   -3.0040   -0.8940    0.7040 C   0  0  0  0  0  0  0  0  0  0  0  0
   -3.7330   -1.9890    0.2920 C   0  0  0  0  0  0  0  0  0  0  0  0
   -4.7410   -2.5420    1.0680 C   0  0  0  0  0  0  0  0  0  0  0  0
   -5.0440   -1.9960    2.3000 C   0  0  0  0  0  0  0  0  0  0  0  0
   -4.3410   -0.9150    2.7310 C   0  0  0  0  0  0  0  0  0  0  0  0
   -3.3310   -0.3660    1.9460 C   0  0  0  0  0  0  0  0  0  0  0  0
   -2.5010    0.8050   -0.9170 C   0  0  0  0  0  0  0  0  0  0  0  0
   -2.5130    2.0440   -0.3130 C   0  0  0  0  0  0  0  0  0  0  0  0
   -3.0110    3.1570   -0.9920 C   0  0  0  0  0  0  0  0  0  0  0  0
   -3.4970    3.0460   -2.2710 C   0  0  0  0  0  0  0  0  0  0  0  0
   -4.1320    4.4180   -3.1620 Cl  0  0  0  0  0  0  0  0  0  0  0  0
   -3.4900    1.8160   -2.8810 C   0  0  0  0  0  0  0  0  0  0  0  0
   -2.9920    0.7070   -2.2000 C   0  0  0  0  0  0  0  0  0  0  0  0
   -0.1540   -1.2750    1.0020 C   0  0  0  0  0  0  0  0  0  0  0  0
    0.9060   -1.8210    0.0790 C   0  0  0  0  0  0  0  0  0  0  0  0
  1  2  2  0
  2  3  1  0
  2  4  1  0
  4  5  1  0
  5  6  1  0
  6  7  1  0
  8  7  1  1
  8  9  1  0
  8 27  1  0
  9 10  1  0
 11 10  1  6
 11 12  1  0
 11 26  1  0
 12 13  1  1
 12 19  1  0
 13 14  2  0
 13 18  1  0
 14 15  1  0
 15 16  2  0
 16 17  1  0
 17 18  2  0
 19 20  2  0
 19 25  1  0
 20 21  1  0
 21 22  2  0
 22 23  1  0
 22 24  1  0
 24 25  2  0
 26 27  1  0
M  CHG  2   8   1  11   1
M  END
