
     RDKit          3D

 19 20  0  0  0  0  0  0  0  0999 V2000
    6.7220    1.3120   -0.4790 N   0  0  0  0  0  0  0  0  0  0  0  0
    5.9430    0.3990    0.2530 C   0  0  0  0  0  0  0  0  0  0  0  0
    6.5160   -0.4510    0.9670 O   0  0  0  0  0  0  0  0  0  0  0  0
    4.4320    0.4660    0.1550 C   0  0  0  0  0  0  0  0  0  0  0  0
    3.9550   -0.5160    0.9500 O   0  0  0  0  0  0  0  0  0  0  0  0
    2.6610   -0.6990    1.1030 N   0  0  0  0  0  0  0  0  0  0  0  0
    1.6470   -0.1590    0.2580 C   0  0  0  0  0  0  0  0  0  0  0  0
    1.9280    0.5430   -0.7300 O   0  0  0  0  0  0  0  0  0  0  0  0
    0.2650   -0.4050    0.5060 N   0  0  0  0  0  0  0  0  0  0  0  0
   -0.7880    0.1220   -0.3460 C   0  0  2  0  0  0  0  0  0  0  0  0
   -1.5350    1.2550    0.2750 C   0  0  0  0  0  0  0  0  0  0  0  0
   -2.7040    0.9190    1.1140 C   0  0  0  0  0  0  0  0  0  0  0  0
   -3.6210   -0.0270    0.4560 C   0  0  0  0  0  0  0  0  0  0  0  0
   -4.9490   -0.2250    0.5130 C   0  0  0  0  0  0  0  0  0  0  0  0
   -5.3090   -1.2900   -0.3450 N   0  0  0  0  0  0  0  0  0  0  0  0
   -4.0900   -1.7140   -0.9240 C   0  0  0  0  0  0  0  0  0  0  0  0
   -3.0730   -0.9980   -0.4820 C   0  0  0  0  0  0  0  0  0  0  0  0
   -1.6240   -1.0080   -0.7480 C   0  0  0  0  0  0  0  0  0  0  0  0
   -1.1350   -1.9910   -1.3160 O   0  0  0  0  0  0  0  0  0  0  0  0
  1  2  1  0
  2  3  2  0
  2  4  1  0
  4  5  1  0
  5  6  1  0
  6  7  1  0
  7  8  2  0
  7  9  1  0
 10  9  1  1
 10 11  1  0
 10 18  1  0
 11 12  1  0
 12 13  1  0
 13 14  2  0
 13 17  1  0
 14 15  1  0
 15 16  1  0
 16 17  2  0
 17 18  1  0
 18 19  2  0
M  CHG  1  15   1
M  END
