
     RDKit          3D

 19 20  0  0  0  0  0  0  0  0999 V2000
    0.9690    1.0160   -1.6770 C   0  0  0  0  0  0  0  0  0  0  0  0
    0.4850   -0.2650   -1.0090 C   0  0  1  0  0  0  0  0  0  0  0  0
    0.3180   -1.3820   -1.9940 C   0  0  0  0  0  0  0  0  0  0  0  0
    1.4260   -0.6760   -0.0100 O   0  0  0  0  0  0  0  0  0  0  0  0
    2.7260   -0.9530   -0.4130 C   0  0  0  0  0  0  0  0  0  0  0  0
    3.0150   -0.8300   -1.6400 O   0  0  0  0  0  0  0  0  0  0  0  0
    3.7520   -1.3810    0.5550 C   0  0  1  0  0  0  0  0  0  0  0  0
    4.9590   -1.5920   -0.1050 O   0  0  0  0  0  0  0  0  0  0  0  0
    4.0060   -0.3070    1.5980 C   0  0  0  0  0  0  0  0  0  0  0  0
    4.4340    0.8520    0.9680 O   0  0  0  0  0  0  0  0  0  0  0  0
   -0.8150    0.0570   -0.3650 C   0  0  0  0  0  0  0  0  0  0  0  0
   -1.9920   -0.3690   -0.7570 N   0  0  0  0  0  0  0  0  0  0  0  0
   -3.0100    0.0840    0.0640 C   0  0  2  0  0  0  0  0  0  0  0  0
   -3.3390   -0.9120    1.1260 N   0  0  0  0  0  0  0  0  0  0  0  0
   -4.2200    0.6720   -0.4070 N   0  0  0  0  0  0  0  0  0  0  0  0
   -4.6750    1.3650    0.8710 C   0  0  0  0  0  0  0  0  0  0  0  0
   -3.3960    1.9730    1.3170 C   0  0  0  0  0  0  0  0  0  0  0  0
   -2.3880    1.2200    0.8340 C   0  0  0  0  0  0  0  0  0  0  0  0
   -0.9940    1.0590    0.6610 N   0  0  0  0  0  0  0  0  0  0  0  0
  2  1  1  6
  2  3  1  0
  2  4  1  0
  2 11  1  0
  4  5  1  0
  5  6  2  0
  5  7  1  0
  7  8  1  6
  7  9  1  0
  9 10  1  0
 11 12  2  0
 11 19  1  0
 12 13  1  0
 13 14  1  1
 13 15  1  0
 13 18  1  0
 15 16  1  0
 16 17  1  0
 17 18  2  0
 18 19  1  0
M  END
