
     RDKit          3D

 19 21  0  0  0  0  0  0  0  0999 V2000
   -1.2690   -2.3800   -0.3270 N   0  0  0  0  0  0  0  0  0  0  0  0
   -1.3030   -0.9920   -0.6280 C   0  0  1  0  0  0  0  0  0  0  0  0
   -2.4090   -0.2770    0.1040 C   0  0  0  0  0  0  0  0  0  0  0  0
   -3.5790   -0.2400    0.6590 C   0  0  0  0  0  0  0  0  0  0  0  0
   -4.4220   -1.3740    0.6870 O   0  0  0  0  0  0  0  0  0  0  0  0
   -3.8620    1.0350    1.2190 N   0  0  0  0  0  0  0  0  0  0  0  0
   -2.7090    1.8530    0.9740 C   0  0  0  0  0  0  0  0  0  0  0  0
   -2.5760    2.9720    1.5530 O   0  0  0  0  0  0  0  0  0  0  0  0
   -1.8930    1.1440    0.0370 C   0  0  2  0  0  0  0  0  0  0  0  0
   -2.1410    1.6670   -1.2440 O   0  0  0  0  0  0  0  0  0  0  0  0
   -0.4230    0.9820    0.2890 C   0  0  0  0  0  0  0  0  0  0  0  0
   -0.1010   -0.3680   -0.0940 N   0  0  0  0  0  0  0  0  0  0  0  0
    0.9760   -0.5570   -0.9800 C   0  0  0  0  0  0  0  0  0  0  0  0
    2.3230   -0.2800   -0.4190 C   0  0  0  0  0  0  0  0  0  0  0  0
    3.2870   -1.2010   -0.3470 C   0  0  0  0  0  0  0  0  0  0  0  0
    4.4580   -0.5540    0.2620 C   0  0  0  0  0  0  0  0  0  0  0  0
    4.0320    0.8210    0.5170 C   0  0  0  0  0  0  0  0  0  0  0  0
    4.8040    1.8450    1.0950 O   0  0  0  0  0  0  0  0  0  0  0  0
    2.8110    0.9390    0.1170 N   0  0  0  0  0  0  0  0  0  0  0  0
  2  1  1  1
  2  3  1  0
  2 12  1  0
  3  4  2  0
  3  9  1  0
  4  5  1  0
  4  6  1  0
  6  7  1  0
  7  8  2  0
  7  9  1  0
  9 10  1  6
  9 11  1  0
 11 12  1  0
 12 13  1  0
 13 14  1  0
 14 15  2  0
 14 19  1  0
 15 16  1  0
 16 17  1  0
 17 18  1  0
 17 19  2  0
M  CHG  2   1   1  19   1
M  END
