
     RDKit          3D

 19 20  0  0  0  0  0  0  0  0999 V2000
    0.2820    1.7540   -0.4310 N   0  0  0  0  0  0  0  0  0  0  0  0
   -0.3540    0.6840    0.2630 C   0  0  0  0  0  0  0  0  0  0  0  0
    0.4110   -0.1350    0.9060 N   0  0  0  0  0  0  0  0  0  0  0  0
    1.8290    0.0240    0.9230 C   0  0  0  0  0  0  0  0  0  0  0  0
    2.4150    1.0230    1.6730 C   0  0  0  0  0  0  0  0  0  0  0  0
    3.7410    1.1960    1.7070 N   0  0  0  0  0  0  0  0  0  0  0  0
    4.5440    0.3920    1.0050 C   0  0  0  0  0  0  0  0  0  0  0  0
    5.8130    0.5340    1.0190 O   0  0  0  0  0  0  0  0  0  0  0  0
    4.0480   -0.6320    0.2280 C   0  0  0  0  0  0  0  0  0  0  0  0
    4.8880   -1.4600   -0.4980 O   0  0  0  0  0  0  0  0  0  0  0  0
    2.6730   -0.8040    0.1970 C   0  0  0  0  0  0  0  0  0  0  0  0
    2.1450   -1.8440   -0.5910 N   0  0  0  0  0  0  0  0  0  0  0  0
   -1.7930    0.5550    0.2210 C   0  0  0  0  0  0  0  0  0  0  0  0
   -2.4990    1.4610   -0.4770 C   0  0  0  0  0  0  0  0  0  0  0  0
   -3.8770    1.3300   -0.5110 O   0  0  0  0  0  0  0  0  0  0  0  0
   -4.4230    0.0460   -0.7340 C   0  0  0  0  0  0  0  0  0  0  0  0
   -3.7090   -1.0310    0.0290 C   0  0  2  0  0  0  0  0  0  0  0  0
   -4.6330   -1.6010    0.9230 O   0  0  0  0  0  0  0  0  0  0  0  0
   -2.5760   -0.4930    0.8840 C   0  0  0  0  0  0  0  0  0  0  0  0
  1  2  1  0
  2  3  2  3
  2 13  1  0
  3  4  1  0
  4  5  2  0
  4 11  1  0
  5  6  1  0
  6  7  1  0
  7  8  2  0
  7  9  1  0
  9 10  1  0
  9 11  2  0
 11 12  1  0
 13 14  2  0
 13 19  1  0
 14 15  1  0
 15 16  1  0
 16 17  1  0
 17 18  1  1
 17 19  1  0
M  CHG  1   3   1
M  END
