
     RDKit          3D

 29 31  0  0  0  0  0  0  0  0999 V2000
   -4.1970    4.5960   -0.0820 N   0  0  0  0  0  0  0  0  0  0  0  0
   -3.6570    3.3050    0.2360 C   0  0  0  0  0  0  0  0  0  0  0  0
   -2.8440    2.7280   -0.9160 C   0  0  0  0  0  0  0  0  0  0  0  0
   -2.3730    1.4670   -0.4770 O   0  0  0  0  0  0  0  0  0  0  0  0
   -1.6030    0.7050   -1.3110 C   0  0  0  0  0  0  0  0  0  0  0  0
   -1.3370    1.1580   -2.4530 O   0  0  0  0  0  0  0  0  0  0  0  0
   -1.0730   -0.6370   -0.9100 C   0  0  2  0  0  0  0  0  0  0  0  0
   -1.3060   -1.6780   -1.9400 C   0  0  0  0  0  0  0  0  0  0  0  0
   -2.7030   -1.8860   -2.3810 C   0  0  2  0  0  0  0  0  0  0  0  0
   -3.0130   -1.1690   -3.5560 O   0  0  0  0  0  0  0  0  0  0  0  0
   -3.7680   -1.6410   -1.3710 C   0  0  0  0  0  0  0  0  0  0  0  0
   -3.4810   -2.2910   -0.0580 C   0  0  0  0  0  0  0  0  0  0  0  0
   -2.8510   -1.2190    0.8420 C   0  0  0  0  0  0  0  0  0  0  0  0
   -1.4920   -0.9990    0.4180 N   0  0  0  0  0  0  0  0  0  0  0  0
   -0.5160   -1.1670    1.4300 C   0  0  0  0  0  0  0  0  0  0  0  0
   -0.9180   -1.5070    2.6630 N   0  0  0  0  0  0  0  0  0  0  0  0
   -0.0520   -1.6890    3.6890 C   0  0  0  0  0  0  0  0  0  0  0  0
    1.2780   -1.5040    3.4000 C   0  0  0  0  0  0  0  0  0  0  0  0
    1.7160   -1.1540    2.1410 C   0  0  0  0  0  0  0  0  0  0  0  0
    3.1140   -0.9900    1.9500 N   0  0  0  0  0  0  0  0  0  0  0  0
    3.6820   -0.6280    0.6960 C   0  0  0  0  0  0  0  0  0  0  0  0
    2.8750   -0.4550   -0.2530 O   0  0  0  0  0  0  0  0  0  0  0  0
    5.1220   -0.4520    0.4700 C   0  0  2  0  0  0  0  0  0  0  0  0
    5.7210    0.6830    1.2370 C   0  0  0  0  0  0  0  0  0  0  0  0
    7.0240    0.9160    0.4640 C   0  0  0  0  0  0  0  0  0  0  0  0
    6.5530    0.7050   -0.9400 C   0  0  0  0  0  0  0  0  0  0  0  0
    7.0830    1.1320   -1.9990 O   0  0  0  0  0  0  0  0  0  0  0  0
    5.3670   -0.0820   -0.9100 N   0  0  0  0  0  0  0  0  0  0  0  0
    0.8150   -0.9900    1.1750 N   0  0  0  0  0  0  0  0  0  0  0  0
  1  2  1  0
  2  3  1  0
  3  4  1  0
  4  5  1  0
  5  6  2  0
  7  5  1  6
  7  8  1  0
  7 14  1  0
  8  9  1  0
  9 10  1  6
  9 11  1  0
 11 12  1  0
 12 13  1  0
 13 14  1  0
 14 15  1  0
 15 16  2  0
 15 29  1  0
 16 17  1  0
 17 18  2  0
 18 19  1  0
 19 20  1  0
 19 29  2  0
 20 21  1  0
 21 22  2  0
 23 21  1  6
 23 24  1  0
 23 28  1  0
 24 25  1  0
 25 26  1  0
 26 27  2  0
 26 28  1  0
M  CHG  1   1   1
M  END
