
     RDKit          3D

 29 31  0  0  0  0  0  0  0  0999 V2000
   -5.3300    1.3050   -1.6960 C   0  0  0  0  0  0  0  0  0  0  0  0
   -3.9450    1.0520   -1.6370 O   0  0  0  0  0  0  0  0  0  0  0  0
   -3.5390    0.8450   -0.3170 C   0  0  0  0  0  0  0  0  0  0  0  0
   -2.0160    0.5800   -0.3880 C   0  0  1  0  0  0  0  0  0  0  0  0
   -1.4760    1.8670   -1.0110 C   0  0  0  0  0  0  0  0  0  0  0  0
   -1.4440    0.4930    0.9750 C   0  0  0  0  0  0  0  0  0  0  0  0
   -1.6830   -0.7810    1.6360 C   0  0  0  0  0  0  0  0  0  0  0  0
   -1.6720   -0.6390    2.9550 O   0  0  0  0  0  0  0  0  0  0  0  0
   -1.9130   -2.0760    1.1300 N   0  0  0  0  0  0  0  0  0  0  0  0
   -1.0710   -2.9350    0.3660 C   0  0  0  0  0  0  0  0  0  0  0  0
   -1.4970   -3.9810   -0.3450 C   0  0  0  0  0  0  0  0  0  0  0  0
   -0.4070   -4.5800   -0.9550 N   0  0  0  0  0  0  0  0  0  0  0  0
    0.6390   -3.8490   -0.5750 N   0  0  0  0  0  0  0  0  0  0  0  0
    0.3850   -2.8300    0.2180 C   0  0  0  0  0  0  0  0  0  0  0  0
    1.3550   -1.9190    0.7770 C   0  0  0  0  0  0  0  0  0  0  0  0
    1.8660   -0.7540    0.3810 C   0  0  0  0  0  0  0  0  0  0  0  0
    2.8560   -0.1120    1.2540 N   0  0  0  0  0  0  0  0  0  0  0  0
    3.5020    1.1040    0.9600 C   0  0  0  0  0  0  0  0  0  0  0  0
    4.4850    1.7040    1.8680 C   0  0  0  0  0  0  0  0  0  0  0  0
    4.8150    1.1900    2.9490 O   0  0  0  0  0  0  0  0  0  0  0  0
    5.0720    2.8980    1.5040 O   0  0  0  0  0  0  0  0  0  0  0  0
    6.0300    3.5540    2.3110 C   0  0  0  0  0  0  0  0  0  0  0  0
    3.1960    1.6940   -0.1640 C   0  0  0  0  0  0  0  0  0  0  0  0
    2.2190    1.0940   -1.0640 C   0  0  0  0  0  0  0  0  0  0  0  0
    1.5680   -0.0530   -0.8520 C   0  0  0  0  0  0  0  0  0  0  0  0
    0.6900   -0.3950   -1.9310 N   0  0  0  0  0  0  0  0  0  0  0  0
   -0.6150   -0.9020   -1.9360 C   0  0  0  0  0  0  0  0  0  0  0  0
   -0.8260   -1.8640   -2.7730 O   0  0  0  0  0  0  0  0  0  0  0  0
   -1.7710   -0.5640   -1.1910 N   0  0  0  0  0  0  0  0  0  0  0  0
  1  2  1  0
  2  3  1  0
  3  4  1  0
  4  5  1  6
  4  6  1  0
  4 29  1  0
  6  7  1  0
  7  8  2  0
  7  9  1  0
  9 10  1  0
 10 11  2  0
 10 14  1  0
 11 12  1  0
 12 13  1  0
 13 14  2  0
 14 15  1  0
 15 16  2  0
 16 17  1  0
 16 25  1  0
 17 18  1  0
 18 19  1  0
 18 23  2  0
 19 20  2  0
 19 21  1  0
 21 22  1  0
 23 24  1  0
 24 25  2  0
 25 26  1  0
 26 27  1  0
 27 28  2  0
 27 29  1  0
M  CHG  1  12   1
M  END
