
     RDKit          3D

 28 30  0  0  0  0  0  0  0  0999 V2000
   -5.2310    2.8820    0.7750 C   0  0  0  0  0  0  0  0  0  0  0  0
   -4.4160    1.8010    0.3430 O   0  0  0  0  0  0  0  0  0  0  0  0
   -3.2030    1.5050    0.9610 C   0  0  0  0  0  0  0  0  0  0  0  0
   -2.8660    2.2320    1.9030 O   0  0  0  0  0  0  0  0  0  0  0  0
   -2.4490    0.3760    0.4410 C   0  0  0  0  0  0  0  0  0  0  0  0
   -2.7190   -0.4430   -0.5210 C   0  0  0  0  0  0  0  0  0  0  0  0
   -3.6470   -0.8410   -1.5630 C   0  0  0  0  0  0  0  0  0  0  0  0
   -2.9150   -1.4220   -2.6160 C   0  0  0  0  0  0  0  0  0  0  0  0
   -3.8370   -1.7410   -3.5190 N   0  0  0  0  0  0  0  0  0  0  0  0
   -5.0510   -1.4030   -3.1020 N   0  0  0  0  0  0  0  0  0  0  0  0
   -4.9850   -0.8310   -1.8710 C   0  0  0  0  0  0  0  0  0  0  0  0
   -6.1520   -0.3520   -1.1030 C   0  0  0  0  0  0  0  0  0  0  0  0
   -1.4670   -1.3950   -2.1780 C   0  0  0  0  0  0  0  0  0  0  0  0
   -1.6150   -1.4880   -0.6790 C   0  0  1  0  0  0  0  0  0  0  0  0
   -0.5300   -1.0730    0.1740 C   0  0  1  0  0  0  0  0  0  0  0  0
    0.7210   -0.6950   -0.4890 N   0  0  0  0  0  0  0  0  0  0  0  0
    1.8880   -0.9400    0.1960 C   0  0  0  0  0  0  0  0  0  0  0  0
    2.2580   -1.3490    1.1870 O   0  0  0  0  0  0  0  0  0  0  0  0
    3.2620   -0.4230   -0.9030 N   0  0  0  0  0  0  0  0  0  0  0  0
    4.5250   -0.7710    0.0790 C   0  0  0  0  0  0  0  0  0  0  0  0
    4.3870   -1.2160    1.1430 O   0  0  0  0  0  0  0  0  0  0  0  0
    5.7080   -0.4320   -0.6080 N   0  0  0  0  0  0  0  0  0  0  0  0
    6.9830   -0.6290    0.0260 C   0  0  0  0  0  0  0  0  0  0  0  0
    7.0930    0.1630    1.3180 C   0  0  0  0  0  0  0  0  0  0  0  0
    6.9380    1.5670    1.0860 N   0  0  0  0  0  0  0  0  0  0  0  0
   -1.0930    0.0480    1.0220 C   0  0  2  0  0  0  0  0  0  0  0  0
   -1.2210   -0.3230    2.4790 C   0  0  0  0  0  0  0  0  0  0  0  0
   -0.1550    1.2350    0.9270 C   0  0  0  0  0  0  0  0  0  0  0  0
  1  2  1  0
  2  3  1  0
  3  4  2  0
  3  5  1  0
  5  6  2  0
  5 26  1  0
  6  7  1  0
  6 14  1  0
  7  8  1  0
  7 11  2  0
  8  9  2  0
  8 13  1  0
  9 10  1  0
 10 11  1  0
 11 12  1  0
 14 13  1  6
 14 15  1  0
 15 16  1  6
 15 26  1  0
 16 17  1  0
 17 18  2  0
 17 19  1  0
 19 20  1  0
 20 21  2  0
 20 22  1  0
 22 23  1  0
 23 24  1  0
 24 25  1  0
 26 27  1  1
 26 28  1  0
M  CHG  1  25   1
M  END
