
     RDKit          3D

 28 30  0  0  0  0  0  0  0  0999 V2000
    6.4780   -1.2540   -2.0780 C   0  0  0  0  0  0  0  0  0  0  0  0
    5.0840   -1.2010   -2.2090 O   0  0  0  0  0  0  0  0  0  0  0  0
    4.2920   -0.8090   -1.1270 C   0  0  0  0  0  0  0  0  0  0  0  0
    3.0400   -0.4500   -1.2830 C   0  0  0  0  0  0  0  0  0  0  0  0
    2.1760   -0.0340   -0.1890 C   0  0  0  0  0  0  0  0  0  0  0  0
    0.8260    0.3570   -0.3300 N   0  0  0  0  0  0  0  0  0  0  0  0
   -0.1160   -0.3510   -1.1850 C   0  0  0  0  0  0  0  0  0  0  0  0
   -1.4000    0.4390   -1.1860 C   0  0  0  0  0  0  0  0  0  0  0  0
   -2.0700    0.5460    0.1580 C   0  0  2  0  0  0  0  0  0  0  0  0
   -2.4680   -0.6560    0.7690 N   0  0  0  0  0  0  0  0  0  0  0  0
   -3.5040   -1.4710    0.3880 C   0  0  2  0  0  0  0  0  0  0  0  0
   -3.0000   -2.6920   -0.4140 C   0  0  0  0  0  0  0  0  0  0  0  0
   -3.4810   -2.3930   -1.8100 C   0  0  0  0  0  0  0  0  0  0  0  0
   -4.3900   -1.3070   -1.7320 O   0  0  0  0  0  0  0  0  0  0  0  0
   -4.6490   -1.0300   -0.3720 C   0  0  0  0  0  0  0  0  0  0  0  0
   -5.7130   -0.5010   -0.0260 O   0  0  0  0  0  0  0  0  0  0  0  0
   -3.1440    1.5880    0.0420 C   0  0  1  0  0  0  0  0  0  0  0  0
   -3.8890    1.7740    1.3590 C   0  0  0  0  0  0  0  0  0  0  0  0
   -2.6710    2.9300   -0.3470 C   0  0  0  0  0  0  0  0  0  0  0  0
   -1.9770    3.8450    0.4850 N   0  0  0  0  0  0  0  0  0  0  0  0
   -2.8600    3.3960   -1.5310 O   0  0  0  0  0  0  0  0  0  0  0  0
   -0.9960    1.1440    1.0840 C   0  0  0  0  0  0  0  0  0  0  0  0
    0.2580    1.5160    0.3760 C   0  0  0  0  0  0  0  0  0  0  0  0
    2.6940   -0.0250    0.9940 N   0  0  0  0  0  0  0  0  0  0  0  0
    4.0230   -0.3910    1.2660 C   0  0  0  0  0  0  0  0  0  0  0  0
    4.5520   -0.3820    2.4730 C   0  0  0  0  0  0  0  0  0  0  0  0
    5.8940   -0.7570    2.7100 N   0  0  0  0  0  0  0  0  0  0  0  0
    4.8450   -0.7930    0.1800 N   0  0  0  0  0  0  0  0  0  0  0  0
  1  2  1  0
  2  3  1  0
  3  4  2  0
  3 28  1  0
  4  5  1  0
  5  6  1  0
  5 24  2  0
  6  7  1  0
  6 23  1  0
  7  8  1  0
  8  9  1  0
  9 10  1  1
  9 17  1  0
  9 22  1  0
 11 10  1  6
 11 12  1  0
 11 15  1  0
 12 13  1  0
 13 14  1  0
 14 15  1  0
 15 16  2  0
 17 18  1  1
 17 19  1  0
 19 20  1  0
 19 21  2  0
 22 23  1  0
 24 25  1  0
 25 26  2  3
 25 28  1  0
 26 27  1  0
M  CHG  1  10   1
M  END
