
     RDKit          3D

 29 31  0  0  0  0  0  0  0  0999 V2000
   -2.2310   -0.2400    2.5220 C   0  0  0  0  0  0  0  0  0  0  0  0
   -1.4760    0.5910    1.5210 C   0  0  2  0  0  0  0  0  0  0  0  0
   -2.4040    1.3800    0.6190 C   0  0  0  0  0  0  0  0  0  0  0  0
   -2.7570    0.3150   -0.4020 C   0  0  2  0  0  0  0  0  0  0  0  0
   -4.0990   -0.1900   -0.1950 N   0  0  0  0  0  0  0  0  0  0  0  0
   -5.1600    0.0870   -1.1180 C   0  0  0  0  0  0  0  0  0  0  0  0
   -4.8610    0.7820   -2.0940 O   0  0  0  0  0  0  0  0  0  0  0  0
   -6.4610   -0.3830   -0.9520 N   0  0  0  0  0  0  0  0  0  0  0  0
   -7.5140   -0.1160   -1.8360 C   0  0  0  0  0  0  0  0  0  0  0  0
   -8.8180   -0.6080   -1.8210 C   0  0  0  0  0  0  0  0  0  0  0  0
   -9.4850   -0.0510   -2.8870 C   0  0  0  0  0  0  0  0  0  0  0  0
   -8.6600    0.7340   -3.5270 O   0  0  0  0  0  0  0  0  0  0  0  0
   -7.4750    0.7140   -2.9200 C   0  0  0  0  0  0  0  0  0  0  0  0
   -1.7150   -0.7350   -0.3660 C   0  0  0  0  0  0  0  0  0  0  0  0
   -0.7720   -0.3190    0.6380 N   0  0  1  0  0  0  0  0  0  0  0  0
    0.3450    0.4170    0.0740 C   0  0  0  0  0  0  0  0  0  0  0  0
    1.5760    0.1810    0.9040 C   0  0  0  0  0  0  0  0  0  0  0  0
    1.4870   -0.5700    1.9070 O   0  0  0  0  0  0  0  0  0  0  0  0
    2.8170    0.7960    0.5600 N   0  0  0  0  0  0  0  0  0  0  0  0
    3.9010    0.5120    1.3960 N   0  0  0  0  0  0  0  0  0  0  0  0
    5.0160   -0.2890    1.0090 C   0  0  0  0  0  0  0  0  0  0  0  0
    5.0200   -0.7650   -0.1580 O   0  0  0  0  0  0  0  0  0  0  0  0
    6.0990   -0.5660    1.8670 N   0  0  0  0  0  0  0  0  0  0  0  0
    7.2330   -1.3750    1.4870 C   0  0  0  0  0  0  0  0  0  0  0  0
    7.9760   -0.8180    0.3330 C   0  0  0  0  0  0  0  0  0  0  0  0
    7.7410    0.3990   -0.2850 C   0  0  0  0  0  0  0  0  0  0  0  0
    8.6650    0.4990   -1.3020 C   0  0  0  0  0  0  0  0  0  0  0  0
    9.4150   -0.6500   -1.2600 C   0  0  0  0  0  0  0  0  0  0  0  0
    8.9620   -1.3840   -0.2780 O   0  0  0  0  0  0  0  0  0  0  0  0
  2  1  1  1
  2  3  1  0
  2 15  1  0
  3  4  1  0
  4  5  1  1
  4 14  1  0
  5  6  1  0
  6  7  2  0
  6  8  1  0
  8  9  1  0
  9 10  1  0
  9 13  2  0
 10 11  2  0
 11 12  1  0
 12 13  1  0
 14 15  1  0
 15 16  1  6
 16 17  1  0
 17 18  2  0
 17 19  1  0
 19 20  1  0
 20 21  1  0
 21 22  2  0
 21 23  1  0
 23 24  1  0
 24 25  1  0
 25 26  2  0
 25 29  1  0
 26 27  1  0
 27 28  2  0
 28 29  1  0
M  CHG  1  15   1
M  END
