
     RDKit          3D

 28 31  0  0  0  0  0  0  0  0999 V2000
    2.6830   -1.5010    1.4320 N   0  0  0  0  0  0  0  0  0  0  0  0
    2.1790   -0.4510    0.5320 C   0  0  1  0  0  0  0  0  0  0  0  0
    3.3470    0.5160    0.3580 C   0  0  0  0  0  0  0  0  0  0  0  0
    4.3160   -0.0690   -0.6200 C   0  0  2  0  0  0  0  0  0  0  0  0
    5.5680    0.7430   -0.7460 C   0  0  0  0  0  0  0  0  0  0  0  0
    6.3070    0.8610    0.5720 C   0  0  0  0  0  0  0  0  0  0  0  0
    7.4590    1.6320    0.3620 O   0  0  0  0  0  0  0  0  0  0  0  0
    3.6610   -0.0980   -1.9980 C   0  0  0  0  0  0  0  0  0  0  0  0
    2.1480   -0.0300   -1.8920 C   0  0  0  0  0  0  0  0  0  0  0  0
    1.7690   -1.0050   -0.7970 C   0  0  2  0  0  0  0  0  0  0  0  0
    0.3050   -1.3990   -0.8660 C   0  0  1  0  0  0  0  0  0  0  0  0
    0.1100   -2.3790    0.1140 O   0  0  0  0  0  0  0  0  0  0  0  0
   -0.8350   -2.2940    1.1200 C   0  0  0  0  0  0  0  0  0  0  0  0
   -1.6260   -1.2540    1.1990 C   0  0  0  0  0  0  0  0  0  0  0  0
   -2.5640   -1.3830    2.3650 C   0  0  0  0  0  0  0  0  0  0  0  0
   -2.2340   -2.6250    2.9700 N   0  0  0  0  0  0  0  0  0  0  0  0
   -1.1820   -3.2010    2.2290 C   0  0  0  0  0  0  0  0  0  0  0  0
   -0.6020   -4.2790    2.4190 O   0  0  0  0  0  0  0  0  0  0  0  0
   -1.5000   -0.1840    0.2180 C   0  0  0  0  0  0  0  0  0  0  0  0
   -2.3600    0.9170    0.3270 O   0  0  0  0  0  0  0  0  0  0  0  0
   -3.2550    1.2820   -0.6920 C   0  0  1  0  0  0  0  0  0  0  0  0
   -4.2490    0.1870   -1.0130 C   0  0  0  0  0  0  0  0  0  0  0  0
   -5.5020    0.7500   -1.6590 C   0  0  0  0  0  0  0  0  0  0  0  0
   -6.2620    1.5200   -0.6060 C   0  0  0  0  0  0  0  0  0  0  0  0
   -5.3210    2.1160    0.4260 C   0  0  0  0  0  0  0  0  0  0  0  0
   -4.0300    2.5020   -0.2290 C   0  0  0  0  0  0  0  0  0  0  0  0
   -0.6010   -0.2750   -0.7250 C   0  0  0  0  0  0  0  0  0  0  0  0
   -0.5000    0.7730   -1.6630 O   0  0  0  0  0  0  0  0  0  0  0  0
  2  1  1  1
  2  3  1  0
  2 10  1  0
  3  4  1  0
  4  5  1  6
  4  8  1  0
  5  6  1  0
  6  7  1  0
  8  9  1  0
 10  9  1  6
 10 11  1  0
 11 12  1  1
 11 27  1  0
 12 13  1  0
 13 14  2  0
 13 17  1  0
 14 15  1  0
 14 19  1  0
 15 16  1  0
 16 17  1  0
 17 18  2  0
 19 20  1  0
 19 27  2  0
 21 20  1  1
 21 22  1  0
 21 26  1  0
 22 23  1  0
 23 24  1  0
 24 25  1  0
 25 26  1  0
 27 28  1  0
M  CHG  1   1   1
M  END
