
     RDKit          3D

 10 11  0  0  0  0  0  0  0  0999 V2000
   -2.7510   -0.4340   -0.2450 C   0  0  0  0  0  0  0  0  0  0  0  0
   -2.5380    0.6250    0.6360 C   0  0  0  0  0  0  0  0  0  0  0  0
   -1.2100    0.8290    0.7490 N   0  0  0  0  0  0  0  0  0  0  0  0
   -0.5250   -0.0400   -0.0110 C   0  0  0  0  0  0  0  0  0  0  0  0
    0.9280   -0.1130   -0.1350 C   0  0  0  0  0  0  0  0  0  0  0  0
    1.6590   -0.9920   -0.9060 C   0  0  0  0  0  0  0  0  0  0  0  0
    2.9740   -0.6930   -0.7110 N   0  0  0  0  0  0  0  0  0  0  0  0
    3.1110    0.3090    0.1240 N   0  0  0  0  0  0  0  0  0  0  0  0
    1.8720    0.6760    0.4870 C   0  0  0  0  0  0  0  0  0  0  0  0
   -1.4800   -0.8210   -0.6260 C   0  0  0  0  0  0  0  0  0  0  0  0
  1  2  2  0
  1 10  1  0
  2  3  1  0
  3  4  1  0
  4  5  1  0
  4 10  2  0
  5  6  1  0
  5  9  2  0
  6  7  2  0
  7  8  1  0
  8  9  1  0
M  END
