
     RDKit          3D

 28 31  0  0  0  0  0  0  0  0999 V2000
   -3.4120   -1.2390   -1.5990 C   0  0  0  0  0  0  0  0  0  0  0  0
   -2.9930   -0.4590   -0.3430 C   0  0  1  0  0  0  0  0  0  0  0  0
   -3.7730   -1.0090    0.8050 C   0  0  0  0  0  0  0  0  0  0  0  0
   -3.1760   -2.4310    0.8510 C   0  0  0  0  0  0  0  0  0  0  0  0
   -1.7320   -2.2760    0.3390 C   0  0  1  0  0  0  0  0  0  0  0  0
   -1.4160   -3.1330   -0.7510 N   0  0  0  0  0  0  0  0  0  0  0  0
   -1.6160   -0.8270    0.0670 C   0  0  0  0  0  0  0  0  0  0  0  0
   -0.5840    0.0300    0.2270 C   0  0  0  0  0  0  0  0  0  0  0  0
    0.7080   -0.4170    0.5960 C   0  0  0  0  0  0  0  0  0  0  0  0
    0.7330   -1.6410    1.0650 O   0  0  0  0  0  0  0  0  0  0  0  0
    1.9650    0.1540    0.5580 N   0  0  0  0  0  0  0  0  0  0  0  0
    3.0170   -0.4350    1.4260 C   0  0  0  0  0  0  0  0  0  0  0  0
    3.5650   -1.7110    0.8830 C   0  0  2  0  0  0  0  0  0  0  0  0
    4.5800   -2.1330    1.7590 O   0  0  0  0  0  0  0  0  0  0  0  0
    4.1470   -1.5520   -0.5190 C   0  0  0  0  0  0  0  0  0  0  0  0
    3.2090   -0.9210   -1.2720 O   0  0  0  0  0  0  0  0  0  0  0  0
    3.3510    0.4250   -1.3790 C   0  0  2  0  0  0  0  0  0  0  0  0
    4.7110    1.0010   -1.1670 C   0  0  0  0  0  0  0  0  0  0  0  0
    5.5950    0.4450   -2.1020 O   0  0  0  0  0  0  0  0  0  0  0  0
    2.3360    1.1540   -0.4570 C   0  0  0  0  0  0  0  0  0  0  0  0
   -0.9190    1.4800    0.3260 C   0  0  0  0  0  0  0  0  0  0  0  0
   -0.1400    2.4250    0.7530 C   0  0  0  0  0  0  0  0  0  0  0  0
   -0.5730    3.8440    0.7920 C   0  0  0  0  0  0  0  0  0  0  0  0
   -0.5090    4.2590    2.1300 O   0  0  0  0  0  0  0  0  0  0  0  0
   -2.3660    1.8360    0.2210 C   0  0  0  0  0  0  0  0  0  0  0  0
   -3.4570    2.5250    0.4800 C   0  0  0  0  0  0  0  0  0  0  0  0
   -4.3670    1.7250   -0.3970 C   0  0  0  0  0  0  0  0  0  0  0  0
   -3.1410    0.9620   -0.6930 C   0  0  2  0  0  0  0  0  0  0  0  0
  2  1  1  6
  2  3  1  0
  2  7  1  0
  2 28  1  0
  3  4  1  0
  4  5  1  0
  5  6  1  6
  5  7  1  0
  7  8  2  0
  8  9  1  0
  8 21  1  0
  9 10  2  0
  9 11  1  0
 11 12  1  0
 11 20  1  0
 12 13  1  0
 13 14  1  1
 13 15  1  0
 15 16  1  0
 16 17  1  0
 17 18  1  1
 17 20  1  0
 18 19  1  0
 21 22  2  3
 21 25  1  0
 22 23  1  0
 23 24  1  0
 25 26  2  0
 25 28  1  0
 26 27  1  0
 28 27  1  1
M  CHG  1   6   1
M  END
