
     RDKit          3D

 10 11  0  0  0  0  0  0  0  0999 V2000
    3.2370   -0.2190   -0.5400 N   0  0  0  0  0  0  0  0  0  0  0  0
    1.8260   -0.0960   -0.3480 C   0  0  0  0  0  0  0  0  0  0  0  0
    1.2060    0.8200    0.4780 C   0  0  0  0  0  0  0  0  0  0  0  0
   -0.1750    0.6570    0.4210 C   0  0  0  0  0  0  0  0  0  0  0  0
   -1.1980    1.2880    1.0270 N   0  0  0  0  0  0  0  0  0  0  0  0
   -2.4690    0.9150    0.7830 C   0  0  0  0  0  0  0  0  0  0  0  0
   -2.6870   -0.1240   -0.0980 C   0  0  0  0  0  0  0  0  0  0  0  0
   -1.6570   -0.7830   -0.7280 C   0  0  0  0  0  0  0  0  0  0  0  0
   -0.3670   -0.3840   -0.4630 C   0  0  0  0  0  0  0  0  0  0  0  0
    0.8400   -0.8210   -0.9120 N   0  0  0  0  0  0  0  0  0  0  0  0
  1  2  1  0
  2  3  2  0
  2 10  1  0
  3  4  1  0
  4  5  2  0
  4  9  1  0
  5  6  1  0
  6  7  2  0
  7  8  1  0
  8  9  2  0
  9 10  1  0
M  END
