
     RDKit          3D

 10 11  0  0  0  0  0  0  0  0999 V2000
    3.2330   -0.1810    0.2070 N   0  0  0  0  0  0  0  0  0  0  0  0
    1.8040   -0.1530    0.1460 C   0  0  0  0  0  0  0  0  0  0  0  0
    1.0550    0.8370   -0.4520 C   0  0  0  0  0  0  0  0  0  0  0  0
   -0.2840    0.4930   -0.2940 C   0  0  0  0  0  0  0  0  0  0  0  0
   -1.4690    1.1070   -0.6870 C   0  0  0  0  0  0  0  0  0  0  0  0
   -2.6530    0.4810   -0.3610 C   0  0  0  0  0  0  0  0  0  0  0  0
   -2.6120   -0.7130    0.3330 C   0  0  0  0  0  0  0  0  0  0  0  0
   -1.4580   -1.2920    0.7060 N   0  0  0  0  0  0  0  0  0  0  0  0
   -0.2750   -0.6980    0.3970 C   0  0  0  0  0  0  0  0  0  0  0  0
    0.9960   -1.0890    0.6640 N   0  0  0  0  0  0  0  0  0  0  0  0
  1  2  1  0
  2  3  2  0
  2 10  1  0
  3  4  1  0
  4  5  2  0
  4  9  1  0
  5  6  1  0
  6  7  2  0
  7  8  1  0
  8  9  2  0
  9 10  1  0
M  END
