
     RDKit          3D

 10 11  0  0  0  0  0  0  0  0999 V2000
    2.7660   -0.7420    0.1350 N   0  0  0  0  0  0  0  0  0  0  0  0
    1.7120    0.1940   -0.0060 C   0  0  0  0  0  0  0  0  0  0  0  0
    1.7630    1.5230   -0.1860 N   0  0  0  0  0  0  0  0  0  0  0  0
    0.5420    2.0740   -0.2760 C   0  0  0  0  0  0  0  0  0  0  0  0
   -0.3930    1.0860   -0.1540 C   0  0  0  0  0  0  0  0  0  0  0  0
   -1.7830    1.0170   -0.1620 C   0  0  0  0  0  0  0  0  0  0  0  0
   -2.3320   -0.2360    0.0010 C   0  0  0  0  0  0  0  0  0  0  0  0
   -1.5800   -1.3810    0.1660 C   0  0  0  0  0  0  0  0  0  0  0  0
   -0.2360   -1.3500    0.1790 N   0  0  0  0  0  0  0  0  0  0  0  0
    0.3610   -0.1460    0.0230 C   0  0  0  0  0  0  0  0  0  0  0  0
  1  2  1  0
  2  3  1  0
  2 10  2  0
  3  4  2  0
  4  5  1  0
  5  6  2  0
  5 10  1  0
  6  7  1  0
  7  8  2  0
  8  9  1  0
  9 10  1  0
M  END
