
     RDKit          3D

 10 11  0  0  0  0  0  0  0  0999 V2000
    3.2140   -0.8030    0.2090 N   0  0  0  0  0  0  0  0  0  0  0  0
    1.8950   -0.2880    0.0770 C   0  0  0  0  0  0  0  0  0  0  0  0
    1.7060    1.0090   -0.3770 C   0  0  0  0  0  0  0  0  0  0  0  0
    0.4300    1.5170   -0.5080 C   0  0  0  0  0  0  0  0  0  0  0  0
   -0.7020    0.7730   -0.1990 C   0  0  0  0  0  0  0  0  0  0  0  0
   -0.5050   -0.5130    0.2510 C   0  0  0  0  0  0  0  0  0  0  0  0
    0.7740   -1.0230    0.3830 C   0  0  0  0  0  0  0  0  0  0  0  0
   -1.7920   -1.0760    0.5010 N   0  0  0  0  0  0  0  0  0  0  0  0
   -2.7740   -0.1950   -0.0880 C   0  0  0  0  0  0  0  0  0  0  0  0
   -2.0940    1.0820   -0.2550 N   0  0  0  0  0  0  0  0  0  0  0  0
  1  2  1  0
  2  3  2  0
  2  7  1  0
  3  4  1  0
  4  5  2  0
  5  6  1  0
  5 10  1  0
  6  7  2  0
  6  8  1  0
  8  9  1  0
  9 10  1  0
M  END
