
     RDKit          3D

 10 11  0  0  0  0  0  0  0  0999 V2000
    2.3390   -1.1850   -0.2280 N   0  0  0  0  0  0  0  0  0  0  0  0
    0.9340   -1.0650   -0.1080 C   0  0  0  0  0  0  0  0  0  0  0  0
    0.1210   -2.1360   -0.0720 N   0  0  0  0  0  0  0  0  0  0  0  0
   -1.2290   -1.9980    0.0440 C   0  0  0  0  0  0  0  0  0  0  0  0
   -1.8170   -0.7730    0.1280 C   0  0  0  0  0  0  0  0  0  0  0  0
   -1.0210    0.3520    0.0950 C   0  0  0  0  0  0  0  0  0  0  0  0
   -1.2960    1.7070    0.1580 C   0  0  0  0  0  0  0  0  0  0  0  0
   -0.0650    2.3320    0.0740 C   0  0  0  0  0  0  0  0  0  0  0  0
    0.9080    1.3960   -0.0340 N   0  0  0  0  0  0  0  0  0  0  0  0
    0.3430    0.1750   -0.0230 C   0  0  0  0  0  0  0  0  0  0  0  0
  1  2  1  0
  2  3  2  0
  2 10  1  0
  3  4  1  0
  4  5  2  0
  5  6  1  0
  6  7  1  0
  6 10  2  0
  7  8  2  0
  8  9  1  0
  9 10  1  0
M  END
