
     RDKit          3D

 10 11  0  0  0  0  0  0  0  0999 V2000
    2.3820   -1.0080   -0.1990 N   0  0  0  0  0  0  0  0  0  0  0  0
    1.3780   -0.0230   -0.0060 C   0  0  0  0  0  0  0  0  0  0  0  0
    1.4980    1.3180    0.2540 C   0  0  0  0  0  0  0  0  0  0  0  0
    0.2730    1.8620    0.3610 N   0  0  0  0  0  0  0  0  0  0  0  0
   -0.6810    0.9180    0.1780 C   0  0  0  0  0  0  0  0  0  0  0  0
   -2.0560    0.9430    0.1840 C   0  0  0  0  0  0  0  0  0  0  0  0
   -2.7320   -0.1920   -0.0350 N   0  0  0  0  0  0  0  0  0  0  0  0
   -2.0770   -1.3470   -0.2600 C   0  0  0  0  0  0  0  0  0  0  0  0
   -0.7140   -1.4000   -0.2720 C   0  0  0  0  0  0  0  0  0  0  0  0
    0.0180   -0.2700   -0.0530 C   0  0  0  0  0  0  0  0  0  0  0  0
  1  2  1  0
  2  3  2  0
  2 10  1  0
  3  4  1  0
  4  5  1  0
  5  6  2  0
  5 10  1  0
  6  7  1  0
  7  8  2  0
  8  9  1  0
  9 10  2  0
M  END
