
     RDKit          3D

 35 36  0  0  0  0  0  0  0  0999 V2000
   -3.5790   -4.6060    1.3770 O   0  0  0  0  0  0  0  0  0  0  0  0
   -2.5390   -3.4620    1.2130 P   0  0  0  0  0  0  0  0  0  0  0  0
   -3.0750   -1.8030    0.5820 C   0  0  2  0  0  0  0  0  0  0  0  0
   -4.0620   -2.0310   -0.5440 C   0  0  0  0  0  0  0  0  0  0  0  0
   -4.6660   -0.8640   -0.9650 O   0  0  0  0  0  0  0  0  0  0  0  0
   -5.7610   -0.5790   -0.2980 O   0  0  0  0  0  0  0  0  0  0  0  0
   -5.8150    0.7360   -0.2010 O   0  0  0  0  0  0  0  0  0  0  0  0
   -5.2400    1.3460   -1.1860 O   0  0  0  0  0  0  0  0  0  0  0  0
   -4.5910    2.8840   -0.7880 P   0  0  0  0  0  0  0  0  0  0  0  0
   -3.2540    3.2150   -1.8470 O   0  0  0  0  0  0  0  0  0  0  0  0
   -4.0540    2.9970    0.8450 O   0  0  0  0  0  0  0  0  0  0  0  0
   -3.0850    2.0080    1.0680 C   0  0  0  0  0  0  0  0  0  0  0  0
   -2.0490    2.2340    0.2090 O   0  0  0  0  0  0  0  0  0  0  0  0
   -1.2450    1.0740    0.0040 C   0  0  2  0  0  0  0  0  0  0  0  0
    0.0530    1.4990    0.6510 C   0  0  0  0  0  0  0  0  0  0  0  0
    0.9150    0.4910    0.9490 O   0  0  0  0  0  0  0  0  0  0  0  0
    0.5770   -0.2670    1.9520 O   0  0  0  0  0  0  0  0  0  0  0  0
    1.7940   -1.5080    2.0360 P   0  0  0  0  0  0  0  0  0  0  0  0
    3.2340   -0.7810    2.6810 O   0  0  0  0  0  0  0  0  0  0  0  0
    2.1330   -2.0150    0.4200 O   0  0  0  0  0  0  0  0  0  0  0  0
    3.5340   -1.2550   -0.2330 P   0  0  0  0  0  0  0  0  0  0  0  0
    4.6810   -0.8210    0.9860 O   0  0  0  0  0  0  0  0  0  0  0  0
    6.1210   -0.2780    0.1800 P   0  0  0  0  0  0  0  0  0  0  0  0
    6.9570    0.9160    1.1150 O   0  0  0  0  0  0  0  0  0  0  0  0
    7.1340   -1.6060   -0.2160 O   0  0  0  0  0  0  0  0  0  0  0  0
    7.6630   -2.0820    0.8900 O   0  0  0  0  0  0  0  0  0  0  0  0
    8.8200   -1.4840    1.0800 O   0  0  0  0  0  0  0  0  0  0  0  0
    3.1480    0.1450   -1.1760 O   0  0  0  0  0  0  0  0  0  0  0  0
    1.9050   -0.2290   -2.3320 P   0  0  0  0  0  0  0  0  0  0  0  0
    1.5400    1.2710   -3.1680 O   0  0  0  0  0  0  0  0  0  0  0  0
    0.4910   -0.6450   -1.3870 O   0  0  0  0  0  0  0  0  0  0  0  0
   -0.6640   -0.1220   -1.9280 C   0  0  0  0  0  0  0  0  0  0  0  0
   -1.2070    0.9360   -1.3320 O   0  0  0  0  0  0  0  0  0  0  0  0
   -1.8450    0.0750    0.7260 O   0  0  0  0  0  0  0  0  0  0  0  0
   -2.0340   -1.0390    0.1280 O   0  0  0  0  0  0  0  0  0  0  0  0
  1  2  2  0
  3  2  1  6
  3  4  1  0
  3 35  1  0
  4  5  1  0
  5  6  1  0
  6  7  1  0
  7  8  1  0
  8  9  1  0
  9 10  1  0
  9 11  1  0
 11 12  1  0
 12 13  1  0
 13 14  1  0
 14 15  1  1
 14 33  1  0
 14 34  1  0
 15 16  1  0
 16 17  1  0
 17 18  1  0
 18 19  1  0
 18 20  1  0
 20 21  1  0
 21 22  1  0
 21 28  1  0
 22 23  1  0
 23 24  1  0
 23 25  1  0
 25 26  1  0
 26 27  1  0
 28 29  1  0
 29 30  1  0
 29 31  1  0
 31 32  1  0
 32 33  1  0
 34 35  1  0
M  END
