
     RDKit          3D

 36 38  0  0  0  0  0  0  0  0999 V2000
    0.5820    0.8150   -3.4510 O   0  0  0  0  0  0  0  0  0  0  0  0
    0.9310    1.9870   -3.1490 C   0  0  0  0  0  0  0  0  0  0  0  0
    0.9460    2.3130   -1.8020 O   0  0  0  0  0  0  0  0  0  0  0  0
    0.4960    1.1290   -0.6190 P   0  0  0  0  0  0  0  0  0  0  0  0
    1.7250    0.8610    0.5670 O   0  0  0  0  0  0  0  0  0  0  0  0
    2.9010    0.4010    0.0290 C   0  0  1  0  0  0  0  0  0  0  0  0
    3.7190    1.4340   -0.3860 O   0  0  0  0  0  0  0  0  0  0  0  0
    3.9910    2.1920    0.6830 O   0  0  0  0  0  0  0  0  0  0  0  0
    5.1420    1.9520    1.4040 C   0  0  0  0  0  0  0  0  0  0  0  0
    5.9010    1.0080    1.0130 O   0  0  0  0  0  0  0  0  0  0  0  0
    5.5290    2.6640    2.5230 O   0  0  0  0  0  0  0  0  0  0  0  0
    3.6280   -0.3240    0.9920 O   0  0  0  0  0  0  0  0  0  0  0  0
    3.7980   -1.5180    0.5300 O   0  0  0  0  0  0  0  0  0  0  0  0
    3.8080   -1.4880   -0.7640 O   0  0  0  0  0  0  0  0  0  0  0  0
    2.6960   -0.6560   -1.0320 C   0  0  1  0  0  0  0  0  0  0  0  0
    1.5720   -1.4130   -0.7290 O   0  0  0  0  0  0  0  0  0  0  0  0
    1.0450   -2.3650   -2.0640 P   0  0  0  0  0  0  0  0  0  0  0  0
    1.7380   -3.9660   -2.0250 O   0  0  0  0  0  0  0  0  0  0  0  0
   -0.6910   -2.5410   -1.9260 O   0  0  0  0  0  0  0  0  0  0  0  0
   -1.2280   -1.4070   -2.2570 O   0  0  0  0  0  0  0  0  0  0  0  0
   -1.2630   -0.5320   -1.2800 O   0  0  0  0  0  0  0  0  0  0  0  0
   -1.7540   -1.0490   -0.1020 C   0  0  2  0  0  0  0  0  0  0  0  0
   -2.9910   -2.4000   -0.3700 P   0  0  0  0  0  0  0  0  0  0  0  0
   -3.0190   -3.5720    0.6510 O   0  0  0  0  0  0  0  0  0  0  0  0
   -2.3390    0.0950    0.7000 C   0  0  1  0  0  0  0  0  0  0  0  0
   -4.1050    0.3510    0.2000 P   0  0  0  0  0  0  0  0  0  0  0  0
   -5.0530   -1.0600    0.5430 O   0  0  0  0  0  0  0  0  0  0  0  0
   -4.1850    0.7990   -1.4550 O   0  0  0  0  0  0  0  0  0  0  0  0
   -4.2190   -0.2260   -2.2540 O   0  0  0  0  0  0  0  0  0  0  0  0
   -2.2630   -0.2830    2.5330 P   0  0  0  0  0  0  0  0  0  0  0  0
   -3.8140    0.0670    3.2330 O   0  0  0  0  0  0  0  0  0  0  0  0
   -4.3180    1.1210    2.6540 O   0  0  0  0  0  0  0  0  0  0  0  0
   -1.1260    0.8510    3.2180 O   0  0  0  0  0  0  0  0  0  0  0  0
   -1.5620    2.0550    2.8950 O   0  0  0  0  0  0  0  0  0  0  0  0
   -1.0200    2.5180    1.8160 O   0  0  0  0  0  0  0  0  0  0  0  0
   -1.3820    1.6340    0.3940 P   0  0  0  0  0  0  0  0  0  0  0  0
  1  2  2  0
  2  3  1  0
  3  4  1  0
  4  5  1  0
  4 36  1  0
  5  6  1  0
  6  7  1  6
  6 12  1  0
  6 15  1  0
  7  8  1  0
  8  9  1  0
  9 10  2  0
  9 11  1  0
 12 13  1  0
 13 14  1  0
 15 14  1  1
 15 16  1  0
 16 17  1  0
 17 18  1  0
 17 19  1  0
 19 20  1  0
 20 21  1  0
 21 22  1  0
 22 23  1  6
 22 25  1  0
 23 24  2  0
 25 26  1  6
 25 30  1  0
 25 36  1  0
 26 27  1  0
 26 28  1  0
 28 29  1  0
 30 31  1  0
 30 33  1  0
 31 32  1  0
 33 34  1  0
 34 35  1  0
 35 36  1  0
M  END
