
     RDKit          3D

 36 38  0  0  0  0  0  0  0  0999 V2000
   -3.3260    0.2540    2.7770 O   0  0  0  0  0  0  0  0  0  0  0  0
   -2.2600   -0.8880    2.7120 P   0  0  0  0  0  0  0  0  0  0  0  0
   -2.5840   -2.2700    1.7000 O   0  0  0  0  0  0  0  0  0  0  0  0
   -2.3430   -1.8640    0.3680 C   0  0  2  0  0  0  0  0  0  0  0  0
   -3.1870   -0.8020    0.0390 O   0  0  0  0  0  0  0  0  0  0  0  0
   -4.8190   -1.3030    0.1940 P   0  0  0  0  0  0  0  0  0  0  0  0
   -5.2990   -2.7570    0.0890 O   0  0  0  0  0  0  0  0  0  0  0  0
   -2.5730   -2.9840   -0.4290 O   0  0  0  0  0  0  0  0  0  0  0  0
   -2.2340   -2.8240   -1.6710 O   0  0  0  0  0  0  0  0  0  0  0  0
   -2.4480   -1.5830   -2.0360 O   0  0  0  0  0  0  0  0  0  0  0  0
   -1.3190   -0.7830   -1.8390 C   0  0  0  0  0  0  0  0  0  0  0  0
   -0.4010   -1.4100   -0.9940 O   0  0  0  0  0  0  0  0  0  0  0  0
   -0.8890   -1.4200    0.3100 C   0  0  2  0  0  0  0  0  0  0  0  0
   -0.1450   -2.3110    1.0430 O   0  0  0  0  0  0  0  0  0  0  0  0
    0.8660   -1.7560    1.6660 O   0  0  0  0  0  0  0  0  0  0  0  0
    1.4970   -2.6820    2.3980 O   0  0  0  0  0  0  0  0  0  0  0  0
    2.8410   -2.6150    2.7450 C   0  0  0  0  0  0  0  0  0  0  0  0
    3.1260   -2.9920    3.9260 O   0  0  0  0  0  0  0  0  0  0  0  0
    3.7290   -2.1610    1.8150 O   0  0  0  0  0  0  0  0  0  0  0  0
    4.0240   -2.7550    0.2220 P   0  0  0  0  0  0  0  0  0  0  0  0
    5.6760   -3.0780   -0.1060 O   0  0  0  0  0  0  0  0  0  0  0  0
    3.2030   -1.9540   -1.0290 O   0  0  0  0  0  0  0  0  0  0  0  0
    2.9050   -0.2970   -0.7730 P   0  0  0  0  0  0  0  0  0  0  0  0
    4.0180    0.7480   -1.5820 O   0  0  0  0  0  0  0  0  0  0  0  0
    4.4890    1.5860   -0.6670 O   0  0  0  0  0  0  0  0  0  0  0  0
    5.7760    1.7520   -0.9870 O   0  0  0  0  0  0  0  0  0  0  0  0
    1.2590    0.1180   -1.1170 O   0  0  0  0  0  0  0  0  0  0  0  0
    0.4680    0.7990    0.2390 P   0  0  0  0  0  0  0  0  0  0  0  0
    0.1200    2.4710    0.0620 O   0  0  0  0  0  0  0  0  0  0  0  0
   -1.2040    2.7880    0.0830 C   0  0  2  0  0  0  0  0  0  0  0  0
   -1.6210    3.6840   -1.0950 C   0  0  0  0  0  0  0  0  0  0  0  0
   -1.1770    4.9610   -0.7810 O   0  0  0  0  0  0  0  0  0  0  0  0
   -1.8730    5.3830    0.2710 O   0  0  0  0  0  0  0  0  0  0  0  0
   -1.4450    4.1090    1.4160 P   0  0  0  0  0  0  0  0  0  0  0  0
   -2.7710    3.7160    2.4300 O   0  0  0  0  0  0  0  0  0  0  0  0
   -0.8510   -0.1240    0.8150 O   0  0  0  0  0  0  0  0  0  0  0  0
  1  2  2  0
  2  3  1  0
  4  3  1  1
  4  5  1  0
  4  8  1  0
  4 13  1  0
  5  6  1  0
  6  7  2  0
  8  9  1  0
  9 10  1  0
 10 11  1  0
 11 12  1  0
 13 12  1  6
 13 14  1  0
 13 36  1  0
 14 15  1  0
 15 16  1  0
 16 17  1  0
 17 18  2  0
 17 19  1  0
 19 20  1  0
 20 21  1  0
 20 22  1  0
 22 23  1  0
 23 24  1  0
 23 27  1  0
 24 25  1  0
 25 26  1  0
 27 28  1  0
 28 29  1  0
 28 36  1  0
 30 29  1  6
 30 31  1  0
 30 34  1  0
 31 32  1  0
 32 33  1  0
 33 34  1  0
 34 35  1  0
M  END
