
     RDKit          3D

 35 36  0  0  0  0  0  0  0  0999 V2000
   -1.1200   -2.0460   -5.5890 O   0  0  0  0  0  0  0  0  0  0  0  0
    0.0570   -1.9050   -4.5840 P   0  0  0  0  0  0  0  0  0  0  0  0
   -0.2030   -0.8480   -2.6840 P   0  0  0  0  0  0  0  0  0  0  0  0
    1.0090   -1.4200   -1.4010 C   0  0  0  0  0  0  0  0  0  0  0  0
    1.1610   -0.3790   -0.4820 O   0  0  0  0  0  0  0  0  0  0  0  0
    2.1960    0.8000   -1.1750 P   0  0  0  0  0  0  0  0  0  0  0  0
    3.7790    0.0600   -1.3560 O   0  0  0  0  0  0  0  0  0  0  0  0
    4.7340    0.9370   -1.2160 O   0  0  0  0  0  0  0  0  0  0  0  0
    5.6490    0.6030   -0.3550 O   0  0  0  0  0  0  0  0  0  0  0  0
    5.1220    0.0280    0.7990 C   0  0  2  0  0  0  0  0  0  0  0  0
    5.4420    0.7400    1.9370 O   0  0  0  0  0  0  0  0  0  0  0  0
    5.6110   -1.3620    0.9550 C   0  0  0  0  0  0  0  0  0  0  0  0
    5.4060   -2.1740    0.0010 O   0  0  0  0  0  0  0  0  0  0  0  0
    6.2690   -1.7480    2.1110 O   0  0  0  0  0  0  0  0  0  0  0  0
    2.3910    2.2230   -0.2140 O   0  0  0  0  0  0  0  0  0  0  0  0
    1.7340    3.4220   -0.3660 C   0  0  0  0  0  0  0  0  0  0  0  0
    2.2670    4.5540   -0.3730 O   0  0  0  0  0  0  0  0  0  0  0  0
    0.3650    3.3820   -0.5260 O   0  0  0  0  0  0  0  0  0  0  0  0
   -0.6380    1.9850   -0.3190 P   0  0  0  0  0  0  0  0  0  0  0  0
   -1.4640    2.1290    1.2020 O   0  0  0  0  0  0  0  0  0  0  0  0
   -2.4680    3.0670    1.1840 C   0  0  0  0  0  0  0  0  0  0  0  0
   -3.5140    2.6970    2.0290 O   0  0  0  0  0  0  0  0  0  0  0  0
   -3.6710    1.4020    1.9010 O   0  0  0  0  0  0  0  0  0  0  0  0
   -4.0330    0.8050    3.0000 O   0  0  0  0  0  0  0  0  0  0  0  0
   -3.2410   -0.2610    3.1370 O   0  0  0  0  0  0  0  0  0  0  0  0
   -3.6030   -1.2130    2.3060 O   0  0  0  0  0  0  0  0  0  0  0  0
   -4.4140   -0.7180    1.4140 O   0  0  0  0  0  0  0  0  0  0  0  0
   -4.5990   -1.5620    0.3250 C   0  0  0  0  0  0  0  0  0  0  0  0
   -3.1930   -2.7680    0.2660 P   0  0  0  0  0  0  0  0  0  0  0  0
   -3.8090   -4.3760    0.5720 O   0  0  0  0  0  0  0  0  0  0  0  0
   -2.4230   -2.7480   -1.2820 O   0  0  0  0  0  0  0  0  0  0  0  0
   -2.2300   -1.1250   -1.8760 P   0  0  0  0  0  0  0  0  0  0  0  0
   -2.4560    0.0260   -0.5980 O   0  0  0  0  0  0  0  0  0  0  0  0
   -2.8440    1.1620   -1.0920 O   0  0  0  0  0  0  0  0  0  0  0  0
   -1.8390    1.8630   -1.5710 O   0  0  0  0  0  0  0  0  0  0  0  0
  1  2  2  0
  2  3  1  0
  3  4  1  0
  3 32  1  0
  4  5  1  0
  5  6  1  0
  6  7  1  0
  6 15  1  0
  7  8  1  0
  8  9  1  0
  9 10  1  0
 10 11  1  1
 10 12  1  0
 12 13  2  0
 12 14  1  0
 15 16  1  0
 16 17  2  0
 16 18  1  0
 18 19  1  0
 19 20  1  0
 19 35  1  0
 20 21  1  0
 21 22  1  0
 22 23  1  0
 23 24  1  0
 24 25  1  0
 25 26  1  0
 26 27  1  0
 27 28  1  0
 28 29  1  0
 29 30  1  0
 29 31  1  0
 31 32  1  0
 32 33  1  0
 33 34  1  0
 34 35  1  0
M  END
