
     RDKit          3D

 35 37  0  0  0  0  0  0  0  0999 V2000
   -2.8910   -4.8350   -0.9900 C   0  0  0  0  0  0  0  0  0  0  0  0
   -1.6870   -4.0890   -0.7970 O   0  0  0  0  0  0  0  0  0  0  0  0
   -1.7460   -2.6690   -0.7670 C   0  0  0  0  0  0  0  0  0  0  0  0
   -2.8310   -2.0920   -0.8480 N   0  0  0  0  0  0  0  0  0  0  0  0
   -3.3450   -0.7860   -0.8580 C   0  0  0  0  0  0  0  0  0  0  0  0
   -3.5210   -0.0530   -1.9690 N   0  0  0  0  0  0  0  0  0  0  0  0
   -3.8860    1.2710   -1.6320 C   0  0  0  0  0  0  0  0  0  0  0  0
   -4.3870    2.4040   -1.9590 N   0  0  0  0  0  0  0  0  0  0  0  0
   -4.3750    3.2890   -0.8840 O   0  0  0  0  0  0  0  0  0  0  0  0
   -4.3330    2.4390    0.3030 C   0  0  1  0  0  0  0  0  0  0  0  0
   -5.6340    2.0270    0.6360 O   0  0  0  0  0  0  0  0  0  0  0  0
   -6.2390    2.4100    1.8340 C   0  0  0  0  0  0  0  0  0  0  0  0
   -5.5970    3.1300    2.6120 O   0  0  0  0  0  0  0  0  0  0  0  0
   -7.5400    1.9650    2.1090 O   0  0  0  0  0  0  0  0  0  0  0  0
   -3.4510    1.3640   -0.1950 C   0  0  2  0  0  0  0  0  0  0  0  0
   -2.0130    1.6680   -0.0130 C   0  0  0  0  0  0  0  0  0  0  0  0
   -1.5940    2.6620   -0.8950 O   0  0  0  0  0  0  0  0  0  0  0  0
   -0.4800    2.4870   -1.7450 C   0  0  0  0  0  0  0  0  0  0  0  0
   -0.3790    3.2350   -2.7840 O   0  0  0  0  0  0  0  0  0  0  0  0
    0.4300    1.5350   -1.4230 O   0  0  0  0  0  0  0  0  0  0  0  0
    1.2110    1.3560   -0.2960 C   0  0  0  0  0  0  0  0  0  0  0  0
    2.0980    0.1350   -0.5610 C   0  0  0  0  0  0  0  0  0  0  0  0
    2.2990   -0.7230    0.6460 C   0  0  2  0  0  0  0  0  0  0  0  0
    3.2470   -1.8280    0.2550 C   0  0  0  0  0  0  0  0  0  0  0  0
    4.4390   -1.3080   -0.1680 O   0  0  0  0  0  0  0  0  0  0  0  0
    5.1640   -0.5590    0.7030 C   0  0  0  0  0  0  0  0  0  0  0  0
    6.4510   -0.1470   -0.0300 C   0  0  0  0  0  0  0  0  0  0  0  0
    7.2470    0.6370    0.8330 O   0  0  0  0  0  0  0  0  0  0  0  0
    8.3260    0.9730    0.1970 O   0  0  0  0  0  0  0  0  0  0  0  0
    8.5020    2.2710    0.1860 O   0  0  0  0  0  0  0  0  0  0  0  0
    1.0780   -1.2360    1.2800 C   0  0  0  0  0  0  0  0  0  0  0  0
    1.1660   -1.4450    2.5450 O   0  0  0  0  0  0  0  0  0  0  0  0
   -0.1590   -1.5280    0.7100 N   0  0  0  0  0  0  0  0  0  0  0  0
   -0.4330   -1.9780   -0.6350 C   0  0  0  0  0  0  0  0  0  0  0  0
   -3.7860   -0.0020    0.2410 N   0  0  0  0  0  0  0  0  0  0  0  0
  1  2  1  0
  2  3  1  0
  3  4  2  0
  3 34  1  0
  4  5  1  0
  5  6  2  0
  5 35  1  0
  6  7  1  0
  7  8  2  0
  7 15  1  0
  8  9  1  0
  9 10  1  0
 10 11  1  6
 10 15  1  0
 11 12  1  0
 12 13  2  0
 12 14  1  0
 15 16  1  6
 15 35  1  0
 16 17  1  0
 17 18  1  0
 18 19  2  0
 18 20  1  0
 20 21  1  0
 21 22  1  0
 22 23  1  0
 23 24  1  6
 23 31  1  0
 24 25  1  0
 25 26  1  0
 26 27  1  0
 27 28  1  0
 28 29  1  0
 29 30  1  0
 31 32  2  0
 31 33  1  0
 33 34  1  0
M  END
