
     RDKit          3D

 33 32  0  0  0  0  0  0  0  0999 V2000
   -7.1080   -2.3250    1.1870 O   0  0  0  0  0  0  0  0  0  0  0  0
   -7.1160   -2.2430   -0.3530 P   0  0  0  0  0  0  0  0  0  0  0  0
   -5.6450   -2.5620   -1.2380 O   0  0  0  0  0  0  0  0  0  0  0  0
   -4.6980   -1.1260   -1.2970 P   0  0  0  0  0  0  0  0  0  0  0  0
   -5.7330    0.2770   -1.3950 O   0  0  0  0  0  0  0  0  0  0  0  0
   -3.6720   -0.9860    0.0790 O   0  0  0  0  0  0  0  0  0  0  0  0
   -4.0220    0.3910    1.0440 P   0  0  0  0  0  0  0  0  0  0  0  0
   -5.6170    0.9960    0.7900 O   0  0  0  0  0  0  0  0  0  0  0  0
   -5.7370    2.6890    1.0350 P   0  0  0  0  0  0  0  0  0  0  0  0
   -4.3020    3.3930    1.6760 O   0  0  0  0  0  0  0  0  0  0  0  0
   -6.1400    3.5020   -0.4340 O   0  0  0  0  0  0  0  0  0  0  0  0
   -6.5960    5.1440   -0.1350 P   0  0  0  0  0  0  0  0  0  0  0  0
   -7.3950    5.9660   -1.1830 O   0  0  0  0  0  0  0  0  0  0  0  0
   -2.8860    1.6360    0.7270 O   0  0  0  0  0  0  0  0  0  0  0  0
   -1.7560    1.2140   -0.5160 P   0  0  0  0  0  0  0  0  0  0  0  0
   -0.8880    2.6790   -0.9300 O   0  0  0  0  0  0  0  0  0  0  0  0
   -0.6310    0.0240    0.1570 O   0  0  0  0  0  0  0  0  0  0  0  0
   -0.4290   -1.2010   -0.4180 C   0  0  0  0  0  0  0  0  0  0  0  0
   -1.0370   -1.5420   -1.4600 O   0  0  0  0  0  0  0  0  0  0  0  0
    0.5260   -2.1580    0.1880 C   0  0  0  0  0  0  0  0  0  0  0  0
    1.0940   -1.6070    1.3200 O   0  0  0  0  0  0  0  0  0  0  0  0
    1.9960   -2.4420    1.9410 C   0  0  0  0  0  0  0  0  0  0  0  0
    3.0330   -2.7490    1.0620 O   0  0  0  0  0  0  0  0  0  0  0  0
    3.6120   -1.5670    0.7320 O   0  0  0  0  0  0  0  0  0  0  0  0
    4.9610   -1.5060    0.3850 C   0  0  0  0  0  0  0  0  0  0  0  0
    5.5940   -2.5930    0.3970 O   0  0  0  0  0  0  0  0  0  0  0  0
    5.5920   -0.3110    0.0400 O   0  0  0  0  0  0  0  0  0  0  0  0
    6.9480   -0.2770   -0.3040 C   0  0  0  0  0  0  0  0  0  0  0  0
    7.5570   -1.3770   -0.2840 O   0  0  0  0  0  0  0  0  0  0  0  0
    7.5990    0.8990   -0.6510 O   0  0  0  0  0  0  0  0  0  0  0  0
    8.9640    0.9050   -0.9940 C   0  0  0  0  0  0  0  0  0  0  0  0
    9.5670   -0.1920   -0.9730 O   0  0  0  0  0  0  0  0  0  0  0  0
    9.6480    2.0380   -1.3420 O   0  0  0  0  0  0  0  0  0  0  0  0
  1  2  2  0
  2  3  1  0
  3  4  1  0
  4  5  1  0
  4  6  1  0
  6  7  1  0
  7  8  1  0
  7 14  1  0
  8  9  1  0
  9 10  1  0
  9 11  1  0
 11 12  1  0
 12 13  2  0
 14 15  1  0
 15 16  1  0
 15 17  1  0
 17 18  1  0
 18 19  2  0
 18 20  1  0
 20 21  1  0
 21 22  1  0
 22 23  1  0
 23 24  1  0
 24 25  1  0
 25 26  2  0
 25 27  1  0
 27 28  1  0
 28 29  2  0
 28 30  1  0
 30 31  1  0
 31 32  2  0
 31 33  1  0
M  END
