
     RDKit          3D

 36 39  0  0  0  0  0  0  0  0999 V2000
    9.9760    0.5240    0.0250 N   0  0  0  0  0  0  0  0  0  0  0  0
    8.5710    0.7250    0.3170 C   0  0  0  0  0  0  0  0  0  0  0  0
    8.1990    1.1780    1.5210 N   0  0  0  0  0  0  0  0  0  0  0  0
    6.9280    1.2940    1.9170 C   0  0  0  0  0  0  0  0  0  0  0  0
    5.9260    0.9410    1.0750 N   0  0  0  0  0  0  0  0  0  0  0  0
    6.2310    0.4890   -0.1300 C   0  0  0  0  0  0  0  0  0  0  0  0
    7.5470    0.3720   -0.5580 C   0  0  0  0  0  0  0  0  0  0  0  0
    7.5440   -0.1050   -1.7820 N   0  0  0  0  0  0  0  0  0  0  0  0
    6.2390   -0.3060   -2.1420 C   0  0  0  0  0  0  0  0  0  0  0  0
    5.4400    0.0470   -1.1620 N   0  0  0  0  0  0  0  0  0  0  0  0
    4.0440   -0.2060   -1.0600 C   0  0  2  0  0  0  0  0  0  0  0  0
    3.1790    0.6390   -0.4710 O   0  0  0  0  0  0  0  0  0  0  0  0
    2.0470   -0.2210   -0.3040 C   0  0  2  0  0  0  0  0  0  0  0  0
    1.0550    0.4600    0.5970 C   0  0  0  0  0  0  0  0  0  0  0  0
    0.8640    1.6850   -0.0740 O   0  0  0  0  0  0  0  0  0  0  0  0
   -0.7640    1.6320   -0.4990 P   0  0  0  0  0  0  0  0  0  0  0  0
   -0.2410    1.4810   -1.9610 O   0  0  0  0  0  0  0  0  0  0  0  0
   -1.5240    3.0270   -0.8730 O   0  0  0  0  0  0  0  0  0  0  0  0
   -1.5160    0.1820   -0.5310 O   0  0  0  0  0  0  0  0  0  0  0  0
   -2.5570   -0.3200    0.3870 P   0  0  0  0  0  0  0  0  0  0  0  0
   -1.6870   -1.7330    0.5980 O   0  0  0  0  0  0  0  0  0  0  0  0
   -3.6190   -0.9110    1.3980 O   0  0  0  0  0  0  0  0  0  0  0  0
   -3.7440   -0.4310   -0.7570 O   0  0  0  0  0  0  0  0  0  0  0  0
   -4.5890    0.7050   -0.6680 C   0  0  0  0  0  0  0  0  0  0  0  0
   -5.9540    0.1760   -0.4330 C   0  0  1  0  0  0  0  0  0  0  0  0
   -6.2220    0.3960    0.9730 O   0  0  0  0  0  0  0  0  0  0  0  0
   -7.4290   -0.2290    1.1230 C   0  0  1  0  0  0  0  0  0  0  0  0
   -8.0420    0.0790    2.3430 O   0  0  0  0  0  0  0  0  0  0  0  0
   -8.2630    0.2070   -0.0590 C   0  0  2  0  0  0  0  0  0  0  0  0
   -9.0650   -0.8340   -0.4660 O   0  0  0  0  0  0  0  0  0  0  0  0
   -7.1620    0.5380   -1.1090 C   0  0  2  0  0  0  0  0  0  0  0  0
   -7.4670   -0.3220   -2.2040 O   0  0  0  0  0  0  0  0  0  0  0  0
    2.5320   -1.4960    0.2380 C   0  0  1  0  0  0  0  0  0  0  0  0
    2.2770   -2.6240   -0.5750 O   0  0  0  0  0  0  0  0  0  0  0  0
    4.0170   -1.2860    0.1690 C   0  0  1  0  0  0  0  0  0  0  0  0
    4.8010   -2.2840   -0.2470 O   0  0  0  0  0  0  0  0  0  0  0  0
  1  2  1  0
  2  3  2  0
  2  7  1  0
  3  4  1  0
  4  5  2  0
  5  6  1  0
  6  7  2  0
  6 10  1  0
  7  8  1  0
  8  9  2  0
  9 10  1  0
 11 10  1  1
 11 12  1  0
 11 35  1  0
 12 13  1  0
 13 14  1  1
 13 33  1  0
 14 15  1  0
 15 16  1  0
 16 17  1  0
 16 18  1  0
 16 19  1  0
 19 20  1  0
 20 21  1  0
 20 22  1  0
 20 23  1  0
 23 24  1  0
 25 24  1  6
 25 26  1  0
 25 31  1  0
 26 27  1  0
 27 28  1  1
 27 29  1  0
 29 30  1  6
 29 31  1  0
 31 32  1  6
 33 34  1  6
 33 35  1  0
 35 36  1  6
M  END
