
     RDKit          3D

 34 35  0  0  0  0  0  0  0  0999 V2000
   -5.5400   -4.4710    2.2960 O   0  0  0  0  0  0  0  0  0  0  0  0
   -5.2560   -3.2420    1.3980 P   0  0  0  0  0  0  0  0  0  0  0  0
   -3.6260   -2.6320    1.1730 O   0  0  0  0  0  0  0  0  0  0  0  0
   -3.7330   -1.5110    0.5290 O   0  0  0  0  0  0  0  0  0  0  0  0
   -2.9630   -1.4000   -0.5070 O   0  0  0  0  0  0  0  0  0  0  0  0
   -1.6320   -1.6140   -0.2600 C   0  0  1  0  0  0  0  0  0  0  0  0
   -1.4720   -2.9270    0.2420 O   0  0  0  0  0  0  0  0  0  0  0  0
   -2.0430   -4.0880   -0.9210 P   0  0  0  0  0  0  0  0  0  0  0  0
   -2.6890   -3.6280   -2.2670 O   0  0  0  0  0  0  0  0  0  0  0  0
   -0.9670   -1.6270   -1.5070 O   0  0  0  0  0  0  0  0  0  0  0  0
   -0.0140   -0.2150   -1.6370 P   0  0  0  0  0  0  0  0  0  0  0  0
   -0.6830    0.9370   -2.7430 O   0  0  0  0  0  0  0  0  0  0  0  0
    1.6290   -0.5150   -2.0360 O   0  0  0  0  0  0  0  0  0  0  0  0
    2.2890   -1.2840   -1.1130 C   0  0  0  0  0  0  0  0  0  0  0  0
    3.2600   -0.5380   -0.2550 C   0  0  1  0  0  0  0  0  0  0  0  0
    2.7630    0.8520    0.1050 C   0  0  0  0  0  0  0  0  0  0  0  0
    2.3050    0.8960    1.4340 O   0  0  0  0  0  0  0  0  0  0  0  0
    1.0050    0.9590    1.5100 O   0  0  0  0  0  0  0  0  0  0  0  0
    0.5050    2.1880    1.1230 C   0  0  2  0  0  0  0  0  0  0  0  0
   -0.0050    3.1760    2.6150 P   0  0  0  0  0  0  0  0  0  0  0  0
    0.1520    2.6560    4.0500 O   0  0  0  0  0  0  0  0  0  0  0  0
   -0.5360    2.0330    0.2410 O   0  0  0  0  0  0  0  0  0  0  0  0
   -1.6550    0.8190    0.6660 P   0  0  0  0  0  0  0  0  0  0  0  0
   -3.2180    1.0250    0.0330 O   0  0  0  0  0  0  0  0  0  0  0  0
   -3.5210    2.5750   -0.6360 P   0  0  0  0  0  0  0  0  0  0  0  0
   -5.0970    3.1370   -0.2290 O   0  0  0  0  0  0  0  0  0  0  0  0
   -2.2880    3.7240   -0.2990 O   0  0  0  0  0  0  0  0  0  0  0  0
   -1.0540   -0.7660    0.6410 O   0  0  0  0  0  0  0  0  0  0  0  0
    3.4050   -1.2320    0.9400 O   0  0  0  0  0  0  0  0  0  0  0  0
    4.3340   -2.1390    0.9110 O   0  0  0  0  0  0  0  0  0  0  0  0
    5.5490   -1.5350    0.8690 O   0  0  0  0  0  0  0  0  0  0  0  0
    5.6610   -0.5350   -0.1160 C   0  0  0  0  0  0  0  0  0  0  0  0
    6.7150    0.1350   -0.2620 O   0  0  0  0  0  0  0  0  0  0  0  0
    4.5260   -0.3500   -0.9050 O   0  0  0  0  0  0  0  0  0  0  0  0
  1  2  2  0
  2  3  1  0
  3  4  1  0
  4  5  1  0
  6  5  1  6
  6  7  1  0
  6 10  1  0
  6 28  1  0
  7  8  1  0
  8  9  2  0
 10 11  1  0
 11 12  1  0
 11 13  1  0
 13 14  1  0
 15 14  1  6
 15 16  1  0
 15 29  1  0
 15 34  1  0
 16 17  1  0
 17 18  1  0
 18 19  1  0
 19 20  1  1
 19 22  1  0
 20 21  2  0
 22 23  1  0
 23 24  1  0
 23 28  1  0
 24 25  1  0
 25 26  1  0
 25 27  1  0
 29 30  1  0
 30 31  1  0
 31 32  1  0
 32 33  2  0
 32 34  1  0
M  END
