
     RDKit          3D

 20 21  0  0  0  0  0  0  0  0999 V2000
    3.8820   -0.9490   -0.6300 C   0  0  0  0  0  0  0  0  0  0  0  0
    3.4000    0.1380    0.2630 C   0  0  1  0  0  0  0  0  0  0  0  0
    3.8760    1.4800   -0.3080 C   0  0  0  0  0  0  0  0  0  0  0  0
    3.4310    2.5770    0.5260 N   0  0  0  0  0  0  0  0  0  0  0  0
    1.6570    0.2480    0.5270 S   0  0  0  0  0  0  0  0  0  0  0  0
    0.6490   -0.9330   -0.4070 C   0  0  1  0  0  0  0  0  0  0  0  0
    0.8330   -2.2710   -0.0080 N   0  0  0  0  0  0  0  0  0  0  0  0
   -0.2350   -3.0790    0.4380 C   0  0  0  0  0  0  0  0  0  0  0  0
    0.0020   -4.2900    0.7900 O   0  0  0  0  0  0  0  0  0  0  0  0
   -1.5530   -2.5760    0.5020 N   0  0  0  0  0  0  0  0  0  0  0  0
   -1.7230   -1.2130    0.0900 C   0  0  0  0  0  0  0  0  0  0  0  0
   -0.7370   -0.4640   -0.3220 C   0  0  0  0  0  0  0  0  0  0  0  0
   -0.8360    0.9230   -0.7560 N   0  0  0  0  0  0  0  0  0  0  0  0
   -1.6860    2.0050   -0.4270 C   0  0  0  0  0  0  0  0  0  0  0  0
   -3.1310    1.6700   -0.3170 C   0  0  0  0  0  0  0  0  0  0  0  0
   -3.8790    2.6640   -0.5050 O   0  0  0  0  0  0  0  0  0  0  0  0
   -3.7710    0.4370   -0.0420 N   0  0  0  0  0  0  0  0  0  0  0  0
   -5.2070    0.4320   -0.0010 C   0  0  0  0  0  0  0  0  0  0  0  0
   -3.1450   -0.8070    0.1990 C   0  0  0  0  0  0  0  0  0  0  0  0
   -3.8710   -1.7760    0.5760 O   0  0  0  0  0  0  0  0  0  0  0  0
  2  1  1  6
  2  3  1  0
  2  5  1  0
  3  4  1  0
  6  5  1  1
  6  7  1  0
  6 12  1  0
  7  8  1  0
  8  9  2  0
  8 10  1  0
 10 11  1  0
 11 12  2  0
 11 19  1  0
 12 13  1  0
 13 14  1  0
 14 15  1  0
 15 16  2  0
 15 17  1  0
 17 18  1  0
 17 19  1  0
 19 20  2  0
M  END
