
     RDKit          3D

 19 20  0  0  0  0  0  0  0  0999 V2000
   -5.8080    1.1140   -0.7360 C   0  0  0  0  0  0  0  0  0  0  0  0
   -4.4560    0.7220   -0.4530 O   0  0  0  0  0  0  0  0  0  0  0  0
   -4.0510   -0.5880   -0.4980 C   0  0  0  0  0  0  0  0  0  0  0  0
   -4.9250   -1.4630   -0.8040 O   0  0  0  0  0  0  0  0  0  0  0  0
   -2.6800   -1.0160   -0.2150 C   0  0  1  0  0  0  0  0  0  0  0  0
   -1.4810   -0.2350   -1.3850 S   0  0  0  0  0  0  0  0  0  0  0  0
   -0.1360   -0.1480   -0.2060 C   0  0  0  0  0  0  0  0  0  0  0  0
    1.2550    0.0300   -0.5760 C   0  0  0  0  0  0  0  0  0  0  0  0
    1.6430    0.1390   -1.7540 O   0  0  0  0  0  0  0  0  0  0  0  0
    2.2580    0.0870    0.4450 N   0  0  0  0  0  0  0  0  0  0  0  0
    3.6490    0.2630    0.1080 C   0  0  0  0  0  0  0  0  0  0  0  0
    4.2930    1.3120    0.5690 C   0  0  0  0  0  0  0  0  0  0  0  0
    5.6610    1.4850    0.2380 N   0  0  0  0  0  0  0  0  0  0  0  0
    6.3120    0.5410   -0.5750 N   0  0  0  0  0  0  0  0  0  0  0  0
    5.5300   -0.5590   -1.0250 C   0  0  0  0  0  0  0  0  0  0  0  0
    4.3020   -0.6810   -0.7060 N   0  0  0  0  0  0  0  0  0  0  0  0
   -0.6780   -0.2740    0.9730 C   0  0  0  0  0  0  0  0  0  0  0  0
   -2.1070   -0.4380    1.0500 C   0  0  2  0  0  0  0  0  0  0  0  0
   -2.4630   -1.3240    2.2220 C   0  0  0  0  0  0  0  0  0  0  0  0
  1  2  1  0
  2  3  1  0
  3  4  2  0
  5  3  1  6
  5  6  1  0
  5 18  1  0
  6  7  1  0
  7  8  1  0
  7 17  2  0
  8  9  2  0
  8 10  1  0
 10 11  1  0
 11 12  2  0
 11 16  1  0
 12 13  1  0
 13 14  1  0
 14 15  1  0
 15 16  2  0
 17 18  1  0
 18 19  1  1
M  END
