
     RDKit          3D

 23 25  0  0  0  0  0  0  0  0999 V2000
   -3.0050   -3.2740   -0.0970 C   0  0  0  0  0  0  0  0  0  0  0  0
   -3.5210   -1.8580   -0.1220 C   0  0  0  0  0  0  0  0  0  0  0  0
   -4.8540   -1.6960   -0.0430 C   0  0  0  0  0  0  0  0  0  0  0  0
   -5.5580   -0.4420   -0.0510 C   0  0  0  0  0  0  0  0  0  0  0  0
   -4.6380    0.7310   -0.1660 C   0  0  0  0  0  0  0  0  0  0  0  0
   -3.3510    0.5870   -0.2450 C   0  0  0  0  0  0  0  0  0  0  0  0
   -2.4250    1.7010   -0.3510 C   0  0  0  0  0  0  0  0  0  0  0  0
   -2.9980    3.0440   -0.5010 C   0  0  0  0  0  0  0  0  0  0  0  0
   -4.4620    3.0890   -0.3920 C   0  0  0  0  0  0  0  0  0  0  0  0
   -5.2450    2.0680   -0.2410 C   0  0  0  0  0  0  0  0  0  0  0  0
   -2.6970   -0.7380   -0.2280 N   0  0  0  0  0  0  0  0  0  0  0  0
   -1.2650   -0.7440   -0.3740 C   0  0  0  0  0  0  0  0  0  0  0  0
   -0.4710   -1.9390   -0.1650 C   0  0  0  0  0  0  0  0  0  0  0  0
    1.0090   -1.5670   -0.4260 C   0  0  0  0  0  0  0  0  0  0  0  0
    1.5590   -0.5630    0.4770 C   0  0  0  0  0  0  0  0  0  0  0  0
    0.9570   -0.0640    1.4320 O   0  0  0  0  0  0  0  0  0  0  0  0
    2.9030   -0.1270    0.2270 N   0  0  0  0  0  0  0  0  0  0  0  0
    3.3710    0.8990    1.1280 C   0  0  0  0  0  0  0  0  0  0  0  0
    4.7950    0.6730    1.5790 C   0  0  0  0  0  0  0  0  0  0  0  0
    5.7600    1.2100    0.5590 C   0  0  0  0  0  0  0  0  0  0  0  0
    5.8380    0.3440   -0.6700 C   0  0  0  0  0  0  0  0  0  0  0  0
    4.5600    0.3230   -1.4520 C   0  0  0  0  0  0  0  0  0  0  0  0
    3.6480   -0.7300   -0.8400 C   0  0  0  0  0  0  0  0  0  0  0  0
  1  2  1  0
  2  3  2  0
  2 11  1  0
  3  4  1  0
  4  5  1  0
  5  6  2  0
  5 10  1  0
  6  7  1  0
  6 11  1  0
  7  8  1  0
  8  9  1  0
  9 10  2  0
 11 12  1  0
 12 13  1  0
 13 14  1  0
 14 15  1  0
 15 16  2  0
 15 17  1  0
 17 18  1  0
 17 23  1  0
 18 19  1  0
 19 20  1  0
 20 21  1  0
 21 22  1  0
 22 23  1  0
M  END
