
     RDKit          3D

 20 22  0  0  0  0  0  0  0  0999 V2000
   -0.0930   -1.6110    0.0710 O   0  0  0  0  0  0  0  0  0  0  0  0
   -0.1380   -0.3550   -0.1530 C   0  0  0  0  0  0  0  0  0  0  0  0
    1.0470    0.4170   -0.2910 N   0  0  0  0  0  0  0  0  0  0  0  0
    2.3210   -0.2390   -0.1760 C   0  0  1  0  0  0  0  0  0  0  0  0
    3.0290   -0.0630   -1.5230 C   0  0  0  0  0  0  0  0  0  0  0  0
    4.2780   -0.8020   -1.4340 N   0  0  0  0  0  0  0  0  0  0  0  0
    5.0740   -0.5760   -0.2710 C   0  0  0  0  0  0  0  0  0  0  0  0
    6.3680   -0.8590   -0.0450 N   0  0  0  0  0  0  0  0  0  0  0  0
    6.6300   -0.4420    1.2180 C   0  0  0  0  0  0  0  0  0  0  0  0
    5.5070    0.0690    1.7040 N   0  0  0  0  0  0  0  0  0  0  0  0
    4.5230    0.0050    0.8150 N   0  0  0  0  0  0  0  0  0  0  0  0
    3.1590    0.4290    0.9000 C   0  0  0  0  0  0  0  0  0  0  0  0
   -1.4070    0.1900   -0.2490 O   0  0  0  0  0  0  0  0  0  0  0  0
   -2.5750   -0.5900   -0.1080 C   0  0  0  0  0  0  0  0  0  0  0  0
   -3.7660    0.3640   -0.2770 C   0  0  1  0  0  0  0  0  0  0  0  0
   -3.6120    0.9010   -1.5770 O   0  0  0  0  0  0  0  0  0  0  0  0
   -5.0030   -0.3600   -0.1730 C   0  0  0  0  0  0  0  0  0  0  0  0
   -5.7310   -0.1780    1.0860 C   0  0  0  0  0  0  0  0  0  0  0  0
   -4.7220    0.9600    2.0500 S   0  0  0  0  0  0  0  0  0  0  0  0
   -3.6080    1.4640    0.6880 C   0  0  0  0  0  0  0  0  0  0  0  0
  1  2  2  0
  2  3  1  0
  2 13  1  0
  4  3  1  6
  4  5  1  0
  4 12  1  0
  5  6  1  0
  6  7  1  0
  7  8  2  0
  7 11  1  0
  8  9  1  0
  9 10  2  0
 10 11  1  0
 11 12  1  0
 13 14  1  0
 14 15  1  0
 15 16  1  6
 15 17  1  0
 15 20  1  0
 17 18  1  0
 18 19  1  0
 19 20  1  0
M  END
