
     RDKit          3D

 20 21  0  0  0  0  0  0  0  0999 V2000
    6.5150    0.7710    0.4220 C   0  0  0  0  0  0  0  0  0  0  0  0
    5.4310   -0.2410    0.7330 C   0  0  0  0  0  0  0  0  0  0  0  0
    5.0980   -0.9870   -0.5200 C   0  0  2  0  0  0  0  0  0  0  0  0
    4.5130    0.2770   -1.7330 S   0  0  0  0  0  0  0  0  0  0  0  0
    2.7810    0.1170   -1.3620 C   0  0  0  0  0  0  0  0  0  0  0  0
    1.8560    0.8260   -1.8380 N   0  0  0  0  0  0  0  0  0  0  0  0
    0.5230    0.6610   -1.5160 N   0  0  0  0  0  0  0  0  0  0  0  0
    0.0030    1.0730   -0.3250 C   0  0  0  0  0  0  0  0  0  0  0  0
    0.8350    1.6410    0.5150 O   0  0  0  0  0  0  0  0  0  0  0  0
   -1.2170    1.0350    0.2200 N   0  0  0  0  0  0  0  0  0  0  0  0
   -2.4680    0.9520    0.6810 C   0  0  0  0  0  0  0  0  0  0  0  0
   -2.5440    1.4660    1.8800 O   0  0  0  0  0  0  0  0  0  0  0  0
   -3.5980    0.4540    0.1350 N   0  0  0  0  0  0  0  0  0  0  0  0
   -4.8320    0.5080    0.8740 C   0  0  1  0  0  0  0  0  0  0  0  0
   -6.0640    0.8370    0.0920 C   0  0  0  0  0  0  0  0  0  0  0  0
   -5.7680   -0.5940    0.4910 C   0  0  1  0  0  0  0  0  0  0  0  0
   -5.4240   -1.5270   -0.6420 C   0  0  0  0  0  0  0  0  0  0  0  0
    2.6930   -0.9430   -0.4460 N   0  0  0  0  0  0  0  0  0  0  0  0
    3.8310   -1.7680   -0.4000 C   0  0  0  0  0  0  0  0  0  0  0  0
    3.8310   -3.0440   -0.2710 O   0  0  0  0  0  0  0  0  0  0  0  0
  1  2  1  0
  3  2  1  1
  3  4  1  0
  3 19  1  0
  4  5  1  0
  5  6  2  3
  5 18  1  0
  6  7  1  0
  7  8  1  0
  8  9  2  0
  8 10  1  0
 10 11  1  0
 11 12  2  0
 11 13  1  0
 14 13  1  6
 14 15  1  0
 14 16  1  0
 15 16  1  0
 16 17  1  6
 18 19  1  0
 19 20  2  0
M  END
