
     RDKit          3D

 32 35  0  0  0  0  0  0  0  0999 V2000
   -6.8720    1.3900   -3.3490 C   0  0  0  0  0  0  0  0  0  0  0  0
   -5.8800    0.7750   -2.6090 O   0  0  0  0  0  0  0  0  0  0  0  0
   -5.9970    0.3490   -1.2990 C   0  0  0  0  0  0  0  0  0  0  0  0
   -7.1310    0.5080   -0.5540 C   0  0  0  0  0  0  0  0  0  0  0  0
   -7.1820    0.0320    0.7630 C   0  0  0  0  0  0  0  0  0  0  0  0
   -6.1300   -0.6140    1.3790 C   0  0  0  0  0  0  0  0  0  0  0  0
   -6.2290   -1.1140    2.6450 C   0  0  0  0  0  0  0  0  0  0  0  0
   -6.3170   -1.5940    3.8150 N   0  0  0  0  0  0  0  0  0  0  0  0
   -4.9420   -0.7600    0.5870 C   0  0  0  0  0  0  0  0  0  0  0  0
   -4.8640   -0.3040   -0.6900 C   0  0  0  0  0  0  0  0  0  0  0  0
   -3.7730   -0.3910   -1.5710 N   0  0  0  0  0  0  0  0  0  0  0  0
   -2.4210   -0.2950   -1.4410 C   0  0  0  0  0  0  0  0  0  0  0  0
   -1.5980   -0.1120   -0.4980 C   0  0  0  0  0  0  0  0  0  0  0  0
   -1.6320    0.1040    0.9910 C   0  0  0  0  0  0  0  0  0  0  0  0
   -0.7180   -1.0840    1.3430 C   0  0  2  0  0  0  0  0  0  0  0  0
   -0.3020   -1.0630    2.7400 N   0  0  0  0  0  0  0  0  0  0  0  0
    0.4320   -0.7110    0.5160 N   0  0  0  0  0  0  0  0  0  0  0  0
    1.8350   -0.8970    0.8830 C   0  0  0  0  0  0  0  0  0  0  0  0
    2.5200    0.2590    1.9740 S   0  0  0  0  0  0  0  0  0  0  0  0
    4.3800    0.4480    1.8980 C   0  0  0  0  0  0  0  0  0  0  0  0
    4.9150   -0.0400    0.6420 C   0  0  0  0  0  0  0  0  0  0  0  0
    4.3970   -1.2540    0.0210 C   0  0  0  0  0  0  0  0  0  0  0  0
    4.7930   -1.6310   -1.1800 C   0  0  0  0  0  0  0  0  0  0  0  0
    3.9980   -3.1380   -1.8470 Cl  0  0  0  0  0  0  0  0  0  0  0  0
    5.6920   -0.9950   -1.9760 C   0  0  0  0  0  0  0  0  0  0  0  0
    6.2400    0.2270   -1.3600 C   0  0  0  0  0  0  0  0  0  0  0  0
    5.8100    0.5730   -0.1560 C   0  0  0  0  0  0  0  0  0  0  0  0
    6.5170    1.8420    0.1580 N   0  0  0  0  0  0  0  0  0  0  0  0
    6.8720    2.4630   -1.1050 C   0  0  0  0  0  0  0  0  0  0  0  0
    7.1780    1.2060   -1.9430 C   0  0  0  0  0  0  0  0  0  0  0  0
   -0.0720   -0.0880   -0.6450 C   0  0  0  0  0  0  0  0  0  0  0  0
    0.5110    0.4090   -1.6290 O   0  0  0  0  0  0  0  0  0  0  0  0
  1  2  1  0
  2  3  1  0
  3  4  2  0
  3 10  1  0
  4  5  1  0
  5  6  2  0
  6  7  1  0
  6  9  1  0
  7  8  3  0
  9 10  2  0
 10 11  1  0
 11 12  1  0
 12 13  2  3
 13 14  1  0
 13 31  1  0
 14 15  1  0
 15 16  1  1
 15 17  1  0
 17 18  1  0
 17 31  1  0
 18 19  1  0
 19 20  1  0
 20 21  1  0
 21 22  2  0
 21 27  1  0
 22 23  1  0
 23 24  1  0
 23 25  2  0
 25 26  1  0
 26 27  2  0
 26 30  1  0
 27 28  1  0
 28 29  1  0
 29 30  1  0
 31 32  2  0
M  CHG  1  16   1
M  END
