
     RDKit          3D

 32 35  0  0  0  0  0  0  0  0999 V2000
   -1.5920   -2.0100   -0.2710 C   0  0  0  0  0  0  0  0  0  0  0  0
   -0.3640   -1.6210    0.4140 C   0  0  0  0  0  0  0  0  0  0  0  0
    1.2640   -2.3630   -0.0550 S   0  0  0  0  0  0  0  0  0  0  0  0
    2.2390   -1.4700    1.0910 C   0  0  0  0  0  0  0  0  0  0  0  0
    3.6910   -1.6380    1.2030 C   0  0  1  0  0  0  0  0  0  0  0  0
    4.0940   -2.8410    0.3240 C   0  0  0  0  0  0  0  0  0  0  0  0
    5.3950   -2.5720   -0.1950 N   0  0  0  0  0  0  0  0  0  0  0  0
    5.7920   -1.2620    0.3010 C   0  0  0  0  0  0  0  0  0  0  0  0
    4.4930   -0.5930    0.5100 C   0  0  0  0  0  0  0  0  0  0  0  0
    4.1600    0.6160    0.1960 C   0  0  0  0  0  0  0  0  0  0  0  0
    5.0530    1.5280   -0.4890 C   0  0  0  0  0  0  0  0  0  0  0  0
    5.2010    2.8080    0.0590 C   0  0  0  0  0  0  0  0  0  0  0  0
    6.0130    3.7070   -0.5710 C   0  0  0  0  0  0  0  0  0  0  0  0
    6.6700    3.4110   -1.6900 N   0  0  0  0  0  0  0  0  0  0  0  0
    6.5580    2.2020   -2.2510 C   0  0  0  0  0  0  0  0  0  0  0  0
    5.7400    1.2670   -1.6330 C   0  0  0  0  0  0  0  0  0  0  0  0
    1.3240   -0.6910    1.7420 C   0  0  0  0  0  0  0  0  0  0  0  0
    1.9740    0.3740    3.0530 Cl  0  0  0  0  0  0  0  0  0  0  0  0
    0.0180   -0.7820    1.3850 C   0  0  0  0  0  0  0  0  0  0  0  0
   -1.0040    0.0510    2.1560 C   0  0  0  0  0  0  0  0  0  0  0  0
   -1.9580    0.7070    1.3100 N   0  0  0  0  0  0  0  0  0  0  0  0
   -3.3040    0.2080    1.1450 C   0  0  0  0  0  0  0  0  0  0  0  0
   -3.6940   -0.8020    1.7530 O   0  0  0  0  0  0  0  0  0  0  0  0
   -4.1490    0.9300    0.2540 N   0  0  0  0  0  0  0  0  0  0  0  0
   -5.4780    0.5900   -0.0630 C   0  0  0  0  0  0  0  0  0  0  0  0
   -6.0570   -0.5870    0.3120 C   0  0  0  0  0  0  0  0  0  0  0  0
   -7.3830   -0.8790   -0.0330 C   0  0  0  0  0  0  0  0  0  0  0  0
   -8.1530   -0.0020   -0.7590 C   0  0  0  0  0  0  0  0  0  0  0  0
   -7.5290    1.1820   -1.1190 C   0  0  0  0  0  0  0  0  0  0  0  0
   -8.2720    2.1340   -1.8820 N   0  0  0  0  0  0  0  0  0  0  0  0
   -8.1540    2.0730   -3.2250 O   0  0  0  0  0  0  0  0  0  0  0  0
   -6.2420    1.4810   -0.7910 C   0  0  0  0  0  0  0  0  0  0  0  0
  1  2  1  0
  2  3  1  0
  2 19  2  0
  3  4  1  0
  5  4  1  6
  4 17  2  0
  5  6  1  0
  5  9  1  0
  6  7  1  0
  7  8  1  0
  8  9  1  0
  9 10  2  3
 10 11  1  0
 11 12  2  0
 11 16  1  0
 12 13  1  0
 13 14  2  0
 14 15  1  0
 15 16  2  0
 17 18  1  0
 17 19  1  0
 19 20  1  0
 20 21  1  0
 21 22  1  0
 22 23  2  0
 22 24  1  0
 24 25  1  0
 25 26  2  0
 25 32  1  0
 26 27  1  0
 27 28  2  0
 28 29  1  0
 29 30  1  0
 29 32  2  0
 30 31  1  0
M  CHG  1   7   1
M  END
