
     RDKit          3D

 24 24  0  0  0  0  0  0  0  0999 V2000
   -2.0010   -3.1220   -0.6650 C   0  0  0  0  0  0  0  0  0  0  0  0
   -1.9740   -1.7440   -0.0890 C   0  0  0  0  0  0  0  0  0  0  0  0
   -2.1550   -0.7600   -1.0680 O   0  0  0  0  0  0  0  0  0  0  0  0
   -2.1190    0.8280   -0.3690 P   0  0  0  0  0  0  0  0  0  0  0  0
   -0.6190    1.7690   -0.9920 C   0  0  0  0  0  0  0  0  0  0  0  0
    0.6570    0.9660   -0.6950 C   0  0  0  0  0  0  0  0  0  0  0  0
    0.6090   -0.2520   -1.3160 O   0  0  0  0  0  0  0  0  0  0  0  0
    1.5630   -1.0710   -1.1960 O   0  0  0  0  0  0  0  0  0  0  0  0
    2.6430   -0.6660   -0.4970 C   0  0  1  0  0  0  0  0  0  0  0  0
    2.8330   -1.5910    0.6920 C   0  0  0  0  0  0  0  0  0  0  0  0
    4.0700   -1.2460    1.4810 C   0  0  0  0  0  0  0  0  0  0  0  0
    5.3090   -1.2070    0.5870 C   0  0  0  0  0  0  0  0  0  0  0  0
    5.0170   -0.1530   -0.4750 C   0  0  1  0  0  0  0  0  0  0  0  0
    6.2050    0.2880   -1.1830 C   0  0  0  0  0  0  0  0  0  0  0  0
    6.3020    0.1450   -2.4210 O   0  0  0  0  0  0  0  0  0  0  0  0
    7.2480    0.8750   -0.4960 O   0  0  0  0  0  0  0  0  0  0  0  0
    3.9320   -0.6980   -1.3450 C   0  0  0  0  0  0  0  0  0  0  0  0
   -3.5100    1.7260   -0.8170 O   0  0  0  0  0  0  0  0  0  0  0  0
   -4.5660    1.6050    0.0520 C   0  0  2  0  0  0  0  0  0  0  0  0
   -4.9680    0.1450    0.1200 C   0  0  0  0  0  0  0  0  0  0  0  0
   -5.7120    2.4400   -0.5040 C   0  0  0  0  0  0  0  0  0  0  0  0
   -4.2500    2.1270    1.4380 C   0  0  0  0  0  0  0  0  0  0  0  0
   -5.7050    1.9340    2.5430 P   0  0  0  0  0  0  0  0  0  0  0  0
   -7.0030    1.1770    2.1400 O   0  0  0  0  0  0  0  0  0  0  0  0
  1  2  1  0
  2  3  1  0
  3  4  1  0
  4  5  1  0
  4 18  1  0
  5  6  1  0
  6  7  1  0
  7  8  1  0
  9  8  1  6
  9 10  1  0
  9 17  1  0
 10 11  1  0
 11 12  1  0
 12 13  1  0
 13 14  1  6
 13 17  1  0
 14 15  2  0
 14 16  1  0
 18 19  1  0
 19 20  1  1
 19 21  1  0
 19 22  1  0
 22 23  1  0
 23 24  2  0
M  END
