
     RDKit          3D

 16 16  0  0  0  0  0  0  0  0999 V2000
    3.8730   -0.8580    0.1470 O   0  0  0  0  0  0  0  0  0  0  0  0
    3.5100    0.1700   -0.4760 C   0  0  0  0  0  0  0  0  0  0  0  0
    4.3000    0.7240   -1.4960 O   0  0  0  0  0  0  0  0  0  0  0  0
    2.3120    0.7520   -0.1390 O   0  0  0  0  0  0  0  0  0  0  0  0
    1.4450    0.2720    0.8730 C   0  0  1  0  0  0  0  0  0  0  0  0
    1.1620    1.2770    1.7970 O   0  0  0  0  0  0  0  0  0  0  0  0
    0.1120   -0.0440    0.1270 C   0  0  2  0  0  0  0  0  0  0  0  0
   -0.2710    1.1340   -0.4060 O   0  0  0  0  0  0  0  0  0  0  0  0
   -1.2900    1.2020   -1.2890 C   0  0  0  0  0  0  0  0  0  0  0  0
   -2.8900    0.6260   -0.6180 P   0  0  0  0  0  0  0  0  0  0  0  0
   -3.8740    1.9490   -0.0880 O   0  0  0  0  0  0  0  0  0  0  0  0
   -3.7620   -0.3680   -1.7380 O   0  0  0  0  0  0  0  0  0  0  0  0
   -0.8110   -0.7810    1.0230 C   0  0  0  0  0  0  0  0  0  0  0  0
   -1.2700   -1.8080    0.1530 O   0  0  0  0  0  0  0  0  0  0  0  0
   -0.0200   -2.1670   -0.3890 C   0  0  0  0  0  0  0  0  0  0  0  0
    0.5050   -0.9880   -0.8370 O   0  0  0  0  0  0  0  0  0  0  0  0
  1  2  2  0
  2  3  1  0
  2  4  1  0
  4  5  1  0
  5  6  1  1
  5  7  1  0
  7  8  1  6
  7 13  1  0
  7 16  1  0
  8  9  1  0
  9 10  1  0
 10 11  1  0
 10 12  1  0
 13 14  1  0
 14 15  1  0
 15 16  1  0
M  END
