
     RDKit          3D

 16 16  0  0  0  0  0  0  0  0999 V2000
    5.1080    1.1110   -1.8230 O   0  0  0  0  0  0  0  0  0  0  0  0
    3.7930    0.9570   -2.6330 P   0  0  0  0  0  0  0  0  0  0  0  0
    2.3780    0.3450   -1.8400 O   0  0  0  0  0  0  0  0  0  0  0  0
    2.7840   -0.5980   -0.8900 C   0  0  0  0  0  0  0  0  0  0  0  0
    1.6330   -1.0840   -0.2570 O   0  0  0  0  0  0  0  0  0  0  0  0
    0.7360   -0.2970    0.4530 C   0  0  0  0  0  0  0  0  0  0  0  0
    0.9800    0.9190    0.5260 O   0  0  0  0  0  0  0  0  0  0  0  0
   -0.4230   -0.9640    1.0560 C   0  0  1  0  0  0  0  0  0  0  0  0
   -0.4400   -2.3150    0.8150 O   0  0  0  0  0  0  0  0  0  0  0  0
   -0.5540   -0.6580    2.5460 C   0  0  0  0  0  0  0  0  0  0  0  0
   -1.8850   -0.8630    2.7490 O   0  0  0  0  0  0  0  0  0  0  0  0
   -2.5590   -0.7090    1.6750 O   0  0  0  0  0  0  0  0  0  0  0  0
   -1.7490   -0.3810    0.6210 C   0  0  1  0  0  0  0  0  0  0  0  0
   -1.7060    1.0110    0.5350 O   0  0  0  0  0  0  0  0  0  0  0  0
   -2.1410    1.4170   -0.7490 C   0  0  0  0  0  0  0  0  0  0  0  0
   -2.1160    2.7830   -0.8830 O   0  0  0  0  0  0  0  0  0  0  0  0
  1  2  2  0
  2  3  1  0
  3  4  1  0
  4  5  1  0
  5  6  1  0
  6  7  2  0
  6  8  1  0
  8  9  1  1
  8 10  1  0
  8 13  1  0
 10 11  1  0
 11 12  1  0
 12 13  1  0
 13 14  1  1
 14 15  1  0
 15 16  1  0
M  END
