
     RDKit          3D

 15 16  0  0  0  0  0  0  0  0999 V2000
   -3.0730   -0.2750    2.0570 O   0  0  0  0  0  0  0  0  0  0  0  0
   -2.4660    0.2340    1.0980 C   0  0  0  0  0  0  0  0  0  0  0  0
   -2.7760    1.4250    0.4620 O   0  0  0  0  0  0  0  0  0  0  0  0
   -1.7740    1.5950   -0.5620 C   0  0  0  0  0  0  0  0  0  0  0  0
   -1.4150    0.2780   -0.8640 O   0  0  0  0  0  0  0  0  0  0  0  0
   -1.2930   -0.2860    0.4120 C   0  0  2  0  0  0  0  0  0  0  0  0
   -1.2130   -1.7850    0.3690 C   0  0  0  0  0  0  0  0  0  0  0  0
    0.2940   -2.0140    0.5650 C   0  0  0  0  0  0  0  0  0  0  0  0
    0.8160   -0.6310    0.2030 C   0  0  2  0  0  0  0  0  0  0  0  0
    0.6130   -0.4720   -1.1650 O   0  0  0  0  0  0  0  0  0  0  0  0
    2.1240   -0.4460    0.5910 O   0  0  0  0  0  0  0  0  0  0  0  0
    2.5860    1.1600    0.1190 P   0  0  0  0  0  0  0  0  0  0  0  0
    1.7850    2.3730    1.0350 O   0  0  0  0  0  0  0  0  0  0  0  0
    4.3020    1.3630    0.1050 O   0  0  0  0  0  0  0  0  0  0  0  0
   -0.0820    0.1740    0.9310 O   0  0  0  0  0  0  0  0  0  0  0  0
  1  2  2  0
  2  3  1  0
  2  6  1  0
  3  4  1  0
  4  5  1  0
  5  6  1  0
  6  7  1  6
  6 15  1  0
  7  8  1  0
  8  9  1  0
  9 10  1  6
  9 11  1  0
  9 15  1  0
 11 12  1  0
 12 13  1  0
 12 14  1  0
M  END
