
     RDKit          3D

 15 15  0  0  0  0  0  0  0  0999 V2000
   -1.7060    3.2640   -0.6810 C   0  0  0  0  0  0  0  0  0  0  0  0
   -1.4530    1.9980   -0.1580 O   0  0  0  0  0  0  0  0  0  0  0  0
   -0.9190    0.9050   -0.7290 C   0  0  0  0  0  0  0  0  0  0  0  0
   -0.6520    0.9280   -1.9660 O   0  0  0  0  0  0  0  0  0  0  0  0
   -0.6500   -0.2820    0.1630 C   0  0  2  0  0  0  0  0  0  0  0  0
    0.5890    0.1870    0.9680 C   0  0  0  0  0  0  0  0  0  0  0  0
    1.1840    1.1370    0.0510 O   0  0  0  0  0  0  0  0  0  0  0  0
    2.6910    0.6320   -0.4780 P   0  0  0  0  0  0  0  0  0  0  0  0
    2.8240   -1.0770   -0.4810 O   0  0  0  0  0  0  0  0  0  0  0  0
    4.0850    1.4960   -0.1940 O   0  0  0  0  0  0  0  0  0  0  0  0
   -0.0830   -1.2660   -0.6910 O   0  0  0  0  0  0  0  0  0  0  0  0
   -0.3590   -2.3980    0.1350 C   0  0  0  0  0  0  0  0  0  0  0  0
   -1.8360   -2.0990    0.4500 C   0  0  2  0  0  0  0  0  0  0  0  0
   -2.5150   -2.1860   -0.7530 O   0  0  0  0  0  0  0  0  0  0  0  0
   -1.6970   -0.7170    0.7750 O   0  0  0  0  0  0  0  0  0  0  0  0
  1  2  1  0
  2  3  1  0
  3  4  2  0
  3  5  1  0
  5  6  1  1
  5 11  1  0
  5 15  1  0
  6  7  1  0
  7  8  1  0
  8  9  1  0
  8 10  1  0
 11 12  1  0
 12 13  1  0
 13 14  1  6
 13 15  1  0
M  END
