
     RDKit          3D

 24 23  0  0  0  0  0  0  0  0999 V2000
   -2.2940    4.2770    0.7850 C   0  0  0  0  0  0  0  0  0  0  0  0
   -2.4830    3.6920   -0.6060 C   0  0  1  0  0  0  0  0  0  0  0  0
   -1.7910    4.3180   -1.7070 C   0  0  0  0  0  0  0  0  0  0  0  0
   -2.4650    2.2000   -0.5630 C   0  0  0  0  0  0  0  0  0  0  0  0
   -1.3360    1.8210    0.1490 O   0  0  0  0  0  0  0  0  0  0  0  0
   -1.2200    0.1660    0.3060 P   0  0  0  0  0  0  0  0  0  0  0  0
    0.4870   -0.2930   -0.5090 C   0  0  0  0  0  0  0  0  0  0  0  0
    1.4250    0.6060    0.2310 C   0  0  0  0  0  0  0  0  0  0  0  0
    2.7540    0.5350   -0.3310 C   0  0  0  0  0  0  0  0  0  0  0  0
    3.5150    1.4690   -0.1460 O   0  0  0  0  0  0  0  0  0  0  0  0
    3.0710   -0.6370   -1.0740 O   0  0  0  0  0  0  0  0  0  0  0  0
    4.4600   -0.6340   -1.5930 C   0  0  0  0  0  0  0  0  0  0  0  0
    5.2900   -0.5090   -0.3780 C   0  0  0  0  0  0  0  0  0  0  0  0
    4.8940   -0.7620    0.7160 O   0  0  0  0  0  0  0  0  0  0  0  0
    6.7430   -0.0070   -0.4440 C   0  0  0  0  0  0  0  0  0  0  0  0
    7.3870   -0.9260    0.4190 O   0  0  0  0  0  0  0  0  0  0  0  0
    7.2690   -0.3990    2.0400 P   0  0  0  0  0  0  0  0  0  0  0  0
    8.3170   -0.5060    3.1000 O   0  0  0  0  0  0  0  0  0  0  0  0
   -2.2600   -0.9460   -0.2290 O   0  0  0  0  0  0  0  0  0  0  0  0
   -3.3820   -1.3170    0.4000 C   0  0  0  0  0  0  0  0  0  0  0  0
   -3.1150   -2.8310    0.7010 C   0  0  1  0  0  0  0  0  0  0  0  0
   -2.2390   -2.9870    1.9290 C   0  0  0  0  0  0  0  0  0  0  0  0
   -4.1940   -3.7390    0.5320 C   0  0  0  0  0  0  0  0  0  0  0  0
   -2.0080   -3.1910   -0.4100 C   0  0  0  0  0  0  0  0  0  0  0  0
  2  1  1  1
  2  3  1  0
  2  4  1  0
  4  5  1  0
  5  6  1  0
  6  7  1  0
  6 19  1  0
  7  8  1  0
  8  9  1  0
  9 10  2  0
  9 11  1  0
 11 12  1  0
 12 13  1  0
 13 14  2  0
 13 15  1  0
 15 16  1  0
 16 17  1  0
 17 18  2  0
 19 20  1  0
 20 21  1  0
 21 22  1  1
 21 23  1  0
 21 24  1  0
M  END
