
     RDKit          3D

 14 14  0  0  0  0  0  0  0  0999 V2000
    4.0190    0.2120    0.0430 C   0  0  0  0  0  0  0  0  0  0  0  0
    2.8780    1.0300   -0.1520 O   0  0  0  0  0  0  0  0  0  0  0  0
    1.6260    0.4350   -0.0530 C   0  0  0  0  0  0  0  0  0  0  0  0
    1.4530   -0.9130    0.2270 C   0  0  0  0  0  0  0  0  0  0  0  0
    0.2170   -1.5040    0.3250 C   0  0  0  0  0  0  0  0  0  0  0  0
    0.0310   -2.8860    0.6120 N   0  0  0  0  0  0  0  0  0  0  0  0
   -0.9140   -0.7350    0.1410 C   0  0  0  0  0  0  0  0  0  0  0  0
   -2.2570   -1.3150    0.2350 C   0  0  0  0  0  0  0  0  0  0  0  0
   -3.3880   -0.4990    0.0400 N   0  0  0  0  0  0  0  0  0  0  0  0
   -2.4370   -2.5340    0.4870 O   0  0  0  0  0  0  0  0  0  0  0  0
   -0.7630    0.6050   -0.1380 C   0  0  0  0  0  0  0  0  0  0  0  0
   -1.9100    1.3620   -0.3200 O   0  0  0  0  0  0  0  0  0  0  0  0
   -1.8340    2.7410   -0.6090 C   0  0  0  0  0  0  0  0  0  0  0  0
    0.4970    1.2060   -0.2380 C   0  0  0  0  0  0  0  0  0  0  0  0
  1  2  1  0
  2  3  1  0
  3  4  2  0
  3 14  1  0
  4  5  1  0
  5  6  1  0
  5  7  2  0
  7  8  1  0
  7 11  1  0
  8  9  1  0
  8 10  2  0
 11 12  1  0
 11 14  2  0
 12 13  1  0
M  END
