
     RDKit          3D

 16 18  0  0  0  0  0  0  0  0999 V2000
    3.4340   -2.4360   -0.7570 O   0  0  0  0  0  0  0  0  0  0  0  0
    3.5820   -1.2500   -0.4090 C   0  0  0  0  0  0  0  0  0  0  0  0
    4.7070   -0.7330    0.1890 O   0  0  0  0  0  0  0  0  0  0  0  0
    4.5390    0.6460    0.4640 C   0  0  0  0  0  0  0  0  0  0  0  0
    3.1960    1.0640   -0.0580 C   0  0  0  0  0  0  0  0  0  0  0  0
    2.5660   -0.1880   -0.5820 C   0  0  2  0  0  0  0  0  0  0  0  0
    1.3220   -0.5230    0.0830 N   0  0  0  0  0  0  0  0  0  0  0  0
    0.0950   -0.7010   -0.6110 C   0  0  0  0  0  0  0  0  0  0  0  0
    0.1200   -0.5550   -1.8540 O   0  0  0  0  0  0  0  0  0  0  0  0
   -1.1730   -1.0420    0.0620 C   0  0  2  0  0  0  0  0  0  0  0  0
   -2.3260   -1.1740   -0.8950 C   0  0  0  0  0  0  0  0  0  0  0  0
   -3.3440   -0.2070   -0.3330 C   0  0  2  0  0  0  0  0  0  0  0  0
   -2.8200    1.1800   -0.5590 C   0  0  0  0  0  0  0  0  0  0  0  0
   -1.7340    1.3650    0.5030 C   0  0  0  0  0  0  0  0  0  0  0  0
   -1.5840   -0.0030    1.0850 C   0  0  1  0  0  0  0  0  0  0  0  0
   -3.0800   -0.3750    1.1730 C   0  0  0  0  0  0  0  0  0  0  0  0
  1  2  2  0
  2  3  1  0
  2  6  1  0
  3  4  1  0
  4  5  1  0
  5  6  1  0
  6  7  1  1
  7  8  1  0
  8  9  2  0
 10  8  1  6
 10 11  1  0
 10 15  1  0
 12 11  1  6
 12 13  1  0
 12 16  1  0
 13 14  1  0
 15 14  1  6
 15 16  1  0
M  END
