
     RDKit          3D

 17 18  0  0  0  0  0  0  0  0999 V2000
   -3.3960   -0.7750   -1.0350 C   0  0  0  0  0  0  0  0  0  0  0  0
   -2.8460   -1.2700    0.2870 C   0  0  1  0  0  0  0  0  0  0  0  0
   -1.6860   -2.1910   -0.0300 C   0  0  0  0  0  0  0  0  0  0  0  0
   -0.5120   -1.9440    0.8910 C   0  0  0  0  0  0  0  0  0  0  0  0
    0.0140   -0.5260    0.8150 C   0  0  1  0  0  0  0  0  0  0  0  0
    1.0310   -0.4920   -0.0880 O   0  0  0  0  0  0  0  0  0  0  0  0
    2.2560   -0.1310    0.3210 C   0  0  2  0  0  0  0  0  0  0  0  0
    2.6740    1.1040   -0.4520 C   0  0  0  0  0  0  0  0  0  0  0  0
    3.6430    0.5350   -1.4620 C   0  0  0  0  0  0  0  0  0  0  0  0
    3.5440   -0.8560   -1.3640 O   0  0  0  0  0  0  0  0  0  0  0  0
    3.3870   -1.0490   -0.0140 C   0  0  0  0  0  0  0  0  0  0  0  0
   -1.0780    0.4110    0.3540 C   0  0  2  0  0  0  0  0  0  0  0  0
   -0.7620    1.7770    0.7360 N   0  0  0  0  0  0  0  0  0  0  0  0
   -0.6430    2.8450   -0.1950 C   0  0  0  0  0  0  0  0  0  0  0  0
   -0.8210    2.5950   -1.4180 O   0  0  0  0  0  0  0  0  0  0  0  0
   -0.3420    4.1480    0.1720 O   0  0  0  0  0  0  0  0  0  0  0  0
   -2.3650   -0.0470    1.0540 C   0  0  0  0  0  0  0  0  0  0  0  0
  2  1  1  6
  2  3  1  0
  2 17  1  0
  3  4  1  0
  4  5  1  0
  5  6  1  6
  5 12  1  0
  7  6  1  6
  7  8  1  0
  7 11  1  0
  8  9  1  0
  9 10  1  0
 10 11  1  0
 12 13  1  1
 12 17  1  0
 13 14  1  0
 14 15  2  0
 14 16  1  0
M  END
