
     RDKit          3D

 17 18  0  0  0  0  0  0  0  0999 V2000
   -2.0870    1.5240    3.0580 O   0  0  0  0  0  0  0  0  0  0  0  0
   -2.2120    0.7880    2.0480 C   0  0  0  0  0  0  0  0  0  0  0  0
   -0.9490    0.1420    1.6120 C   0  0  0  0  0  0  0  0  0  0  0  0
   -0.6690    0.3540    0.1480 C   0  0  1  0  0  0  0  0  0  0  0  0
    0.6460    0.7590   -0.1530 N   0  0  0  0  0  0  0  0  0  0  0  0
    1.7370   -0.0570    0.1520 C   0  0  1  0  0  0  0  0  0  0  0  0
    1.8330   -1.3910   -0.5290 C   0  0  0  0  0  0  0  0  0  0  0  0
    3.3500   -1.6280   -0.4160 C   0  0  0  0  0  0  0  0  0  0  0  0
    3.9260   -0.3880   -0.1980 O   0  0  0  0  0  0  0  0  0  0  0  0
    2.9920    0.5820   -0.4680 C   0  0  2  0  0  0  0  0  0  0  0  0
    3.3170    1.9030    0.1390 C   0  0  0  0  0  0  0  0  0  0  0  0
    3.4260    1.8870    1.5130 O   0  0  0  0  0  0  0  0  0  0  0  0
   -1.2080   -0.7970   -0.6710 C   0  0  0  0  0  0  0  0  0  0  0  0
   -2.6530   -0.5660   -1.0690 C   0  0  0  0  0  0  0  0  0  0  0  0
   -3.6430   -0.9370   -0.0210 C   0  0  0  0  0  0  0  0  0  0  0  0
   -4.2660    0.3650    0.4840 C   0  0  0  0  0  0  0  0  0  0  0  0
   -3.5220    0.7830    1.6110 O   0  0  0  0  0  0  0  0  0  0  0  0
  1  2  2  0
  2  3  1  0
  2 17  1  0
  3  4  1  0
  4  5  1  1
  4 13  1  0
  6  5  1  6
  6  7  1  0
  6 10  1  0
  7  8  1  0
  8  9  1  0
  9 10  1  0
 10 11  1  1
 11 12  1  0
 13 14  1  0
 14 15  1  0
 15 16  1  0
 16 17  1  0
M  END
