
     RDKit          3D

 17 19  0  0  0  0  0  0  0  0999 V2000
   -2.0060    1.4040   -1.5320 C   0  0  0  0  0  0  0  0  0  0  0  0
   -1.3160    0.3960   -0.6090 C   0  0  2  0  0  0  0  0  0  0  0  0
   -1.2250    1.0440    0.7520 C   0  0  0  0  0  0  0  0  0  0  0  0
   -0.6910   -0.0060    1.6930 C   0  0  2  0  0  0  0  0  0  0  0  0
    0.5250   -0.6920    1.2210 C   0  0  0  0  0  0  0  0  0  0  0  0
    1.0470   -0.3020   -0.1090 C   0  0  1  0  0  0  0  0  0  0  0  0
    2.1690    0.7240    0.0440 C   0  0  0  0  0  0  0  0  0  0  0  0
    3.3220    0.1360   -0.7660 C   0  0  0  0  0  0  0  0  0  0  0  0
    3.0760   -1.3290   -0.5110 C   0  0  0  0  0  0  0  0  0  0  0  0
    3.9570   -2.1880   -0.2430 O   0  0  0  0  0  0  0  0  0  0  0  0
    1.7120   -1.4590   -0.6420 O   0  0  0  0  0  0  0  0  0  0  0  0
    0.0590    0.1480   -1.1090 C   0  0  0  0  0  0  0  0  0  0  0  0
   -1.8200   -0.9890    1.8880 C   0  0  0  0  0  0  0  0  0  0  0  0
   -2.1080   -1.4640    3.0050 O   0  0  0  0  0  0  0  0  0  0  0  0
   -2.5690   -1.3730    0.7330 N   0  0  0  0  0  0  0  0  0  0  0  0
   -2.1550   -0.8060   -0.5080 C   0  0  0  0  0  0  0  0  0  0  0  0
   -2.5310   -1.3680   -1.5680 O   0  0  0  0  0  0  0  0  0  0  0  0
  2  1  1  6
  2  3  1  0
  2 12  1  0
  2 16  1  0
  3  4  1  0
  4  5  1  6
  4 13  1  0
  6  5  1  1
  6  7  1  0
  6 11  1  0
  6 12  1  0
  7  8  1  0
  8  9  1  0
  9 10  2  0
  9 11  1  0
 13 14  2  0
 13 15  1  0
 15 16  1  0
 16 17  2  0
M  END
