
     RDKit          3D

 18 19  0  0  0  0  0  0  0  0999 V2000
    5.6870   -0.0240    0.6120 C   0  0  0  0  0  0  0  0  0  0  0  0
    4.9310   -0.9910   -0.1870 C   0  0  0  0  0  0  0  0  0  0  0  0
    3.5950   -0.8930   -0.2450 C   0  0  0  0  0  0  0  0  0  0  0  0
    2.9350    0.1520    0.4740 C   0  0  0  0  0  0  0  0  0  0  0  0
    1.7230    0.5520    0.6330 C   0  0  0  0  0  0  0  0  0  0  0  0
    0.4320    0.1760    0.1780 C   0  0  0  0  0  0  0  0  0  0  0  0
   -0.6740    0.5510    0.9760 C   0  0  0  0  0  0  0  0  0  0  0  0
   -1.9660    0.3090    0.6100 C   0  0  0  0  0  0  0  0  0  0  0  0
   -2.1990   -0.3300   -0.5930 C   0  0  0  0  0  0  0  0  0  0  0  0
   -1.1550   -0.6930   -1.3670 C   0  0  0  0  0  0  0  0  0  0  0  0
    0.1790   -0.4480   -1.0010 C   0  0  0  0  0  0  0  0  0  0  0  0
    1.1880   -0.8090   -1.9630 N   0  0  0  0  0  0  0  0  0  0  0  0
   -3.8710   -0.6310   -1.0160 S   0  0  2  0  0  0  0  0  0  0  0  0
   -4.3240   -1.9920   -0.5710 O   0  0  0  0  0  0  0  0  0  0  0  0
   -3.9960   -0.6020   -2.5240 O   0  0  0  0  0  0  0  0  0  0  0  0
   -4.8420    0.6420   -0.3210 C   0  0  0  0  0  0  0  0  0  0  0  0
   -4.3230    1.2050    0.9470 C   0  0  0  0  0  0  0  0  0  0  0  0
   -3.0800    0.7040    1.4250 N   0  0  0  0  0  0  0  0  0  0  0  0
  1  2  1  0
  2  3  2  3
  3  4  1  0
  4  5  2  3
  5  6  1  0
  6  7  2  0
  6 11  1  0
  7  8  1  0
  8  9  2  0
  8 18  1  0
  9 10  1  0
  9 13  1  0
 10 11  2  0
 11 12  1  0
 13 14  2  0
 13 15  2  0
 13 16  1  1
 16 17  1  0
 17 18  1  0
M  END
