
     RDKit          3D

 17 18  0  0  0  0  0  0  0  0999 V2000
    3.8330    0.7630    0.4530 C   0  0  0  0  0  0  0  0  0  0  0  0
    3.5500   -0.1680   -0.6850 C   0  0  1  0  0  0  0  0  0  0  0  0
    4.7120   -0.9790   -0.9820 N   0  0  0  0  0  0  0  0  0  0  0  0
    2.3450   -1.0400   -0.4230 C   0  0  0  0  0  0  0  0  0  0  0  0
    1.1550   -0.2010   -0.2200 C   0  0  0  0  0  0  0  0  0  0  0  0
    1.2830    1.0460   -0.2860 O   0  0  0  0  0  0  0  0  0  0  0  0
   -0.1110   -0.7000    0.0410 O   0  0  0  0  0  0  0  0  0  0  0  0
   -1.1670    0.1860    0.2170 C   0  0  1  0  0  0  0  0  0  0  0  0
   -1.4520    1.0700   -0.9440 C   0  0  0  0  0  0  0  0  0  0  0  0
   -2.9110    1.0250   -1.3760 C   0  0  0  0  0  0  0  0  0  0  0  0
   -3.3920   -0.3740   -1.6180 C   0  0  0  0  0  0  0  0  0  0  0  0
   -2.9800   -1.3290   -0.5000 C   0  0  0  0  0  0  0  0  0  0  0  0
   -2.4660   -0.5000    0.5890 C   0  0  1  0  0  0  0  0  0  0  0  0
   -2.1390   -1.1030    1.7910 O   0  0  0  0  0  0  0  0  0  0  0  0
   -1.3680   -0.1640    2.4790 C   0  0  0  0  0  0  0  0  0  0  0  0
   -1.0450   -0.1750    3.7060 O   0  0  0  0  0  0  0  0  0  0  0  0
   -0.9460    0.9230    1.5250 C   0  0  0  0  0  0  0  0  0  0  0  0
  2  1  1  1
  2  3  1  0
  2  4  1  0
  4  5  1  0
  5  6  2  0
  5  7  1  0
  8  7  1  6
  8  9  1  0
  8 13  1  0
  8 17  1  0
  9 10  1  0
 10 11  1  0
 11 12  1  0
 13 12  1  6
 13 14  1  0
 14 15  1  0
 15 16  2  0
 15 17  1  0
M  END
