
     RDKit          3D

 17 18  0  0  0  0  0  0  0  0999 V2000
    4.9850    0.7620   -0.5580 C   0  0  0  0  0  0  0  0  0  0  0  0
    3.8750    1.7650   -0.3560 C   0  0  0  0  0  0  0  0  0  0  0  0
    2.6190    1.2670   -0.7500 O   0  0  0  0  0  0  0  0  0  0  0  0
    2.1260    0.1310   -0.1190 C   0  0  0  0  0  0  0  0  0  0  0  0
    2.8130   -0.4050    0.7710 O   0  0  0  0  0  0  0  0  0  0  0  0
    0.8110   -0.4630   -0.4700 C   0  0  2  0  0  0  0  0  0  0  0  0
   -0.2890    0.5010   -0.2390 C   0  0  0  0  0  0  0  0  0  0  0  0
   -1.6390   -0.0660   -0.0600 C   0  0  2  0  0  0  0  0  0  0  0  0
   -1.6830   -1.4150    0.6130 C   0  0  0  0  0  0  0  0  0  0  0  0
   -0.6960   -2.3920    0.0570 C   0  0  0  0  0  0  0  0  0  0  0  0
    0.6760   -1.7860    0.1810 C   0  0  1  0  0  0  0  0  0  0  0  0
    1.5630   -2.6760   -0.4660 O   0  0  0  0  0  0  0  0  0  0  0  0
   -2.4070   -0.2220   -1.3800 C   0  0  0  0  0  0  0  0  0  0  0  0
   -3.6810   -0.4420   -0.9100 O   0  0  0  0  0  0  0  0  0  0  0  0
   -3.8350    0.1850    0.2960 C   0  0  0  0  0  0  0  0  0  0  0  0
   -2.5570    0.7930    0.6480 N   0  0  0  0  0  0  0  0  0  0  0  0
   -2.5840    2.1420    0.1720 C   0  0  0  0  0  0  0  0  0  0  0  0
  1  2  1  0
  2  3  1  0
  3  4  1  0
  4  5  2  0
  6  4  1  1
  6  7  1  0
  6 11  1  0
  8  7  1  6
  8  9  1  0
  8 13  1  0
  8 16  1  0
  9 10  1  0
 10 11  1  0
 11 12  1  6
 13 14  1  0
 14 15  1  0
 15 16  1  0
 16 17  1  0
M  END
