
     RDKit          3D

 32 34  0  0  0  0  0  0  0  0999 V2000
   -7.9410   -0.2720    2.2230 C   0  0  0  0  0  0  0  0  0  0  0  0
   -6.7510   -0.8170    1.5230 C   0  0  0  0  0  0  0  0  0  0  0  0
   -6.5270   -0.7190    0.1910 C   0  0  0  0  0  0  0  0  0  0  0  0
   -7.4480   -0.0460   -0.7650 C   0  0  0  0  0  0  0  0  0  0  0  0
   -7.9370   -0.8610   -1.7510 O   0  0  0  0  0  0  0  0  0  0  0  0
   -5.2480   -1.3530   -0.0810 C   0  0  0  0  0  0  0  0  0  0  0  0
   -4.7670   -1.7920   -1.1450 N   0  0  0  0  0  0  0  0  0  0  0  0
   -5.1590   -1.8920   -2.4790 C   0  0  0  0  0  0  0  0  0  0  0  0
   -5.2400   -0.6650   -3.1650 O   0  0  0  0  0  0  0  0  0  0  0  0
   -4.5740   -1.3580    1.2880 C   0  0  1  0  0  0  0  0  0  0  0  0
   -4.0150    0.0080    1.4990 C   0  0  0  0  0  0  0  0  0  0  0  0
   -2.8570    0.2270    0.6820 N   0  0  0  0  0  0  0  0  0  0  0  0
   -1.7830   -0.6010    1.1450 C   0  0  0  0  0  0  0  0  0  0  0  0
   -0.6830    0.2920    1.6930 C   0  0  0  0  0  0  0  0  0  0  0  0
   -0.2210    1.0750    0.5840 N   0  0  0  0  0  0  0  0  0  0  0  0
    1.1480    1.1450    0.2830 C   0  0  0  0  0  0  0  0  0  0  0  0
    1.9460    2.2000    0.8030 N   0  0  0  0  0  0  0  0  0  0  0  0
    1.6550    0.2270   -0.4780 N   0  0  0  0  0  0  0  0  0  0  0  0
    3.0330    0.1880   -0.8560 C   0  0  0  0  0  0  0  0  0  0  0  0
    4.1630   -0.0770   -0.1470 C   0  0  0  0  0  0  0  0  0  0  0  0
    5.3500   -0.0460   -0.7570 C   0  0  0  0  0  0  0  0  0  0  0  0
    6.6280   -0.3240   -0.0600 C   0  0  0  0  0  0  0  0  0  0  0  0
    6.6210   -0.7400    1.1170 O   0  0  0  0  0  0  0  0  0  0  0  0
    7.8800   -0.1370   -0.6760 N   0  0  0  0  0  0  0  0  0  0  0  0
    9.1250   -0.4260    0.0550 C   0  0  1  0  0  0  0  0  0  0  0  0
    9.9120   -1.4730   -0.6700 C   0  0  0  0  0  0  0  0  0  0  0  0
    9.9620    0.8220    0.2310 C   0  0  0  0  0  0  0  0  0  0  0  0
    5.3580    0.2650   -2.1210 C   0  0  0  0  0  0  0  0  0  0  0  0
    3.6730    0.5090   -2.5170 S   0  0  0  0  0  0  0  0  0  0  0  0
   -1.1860    1.7820   -0.2130 C   0  0  0  0  0  0  0  0  0  0  0  0
   -2.5550    1.6020    0.4650 C   0  0  0  0  0  0  0  0  0  0  0  0
   -5.7050   -1.5010    2.1220 O   0  0  0  0  0  0  0  0  0  0  0  0
  1  2  1  0
  2  3  2  0
  2 32  1  0
  3  4  1  0
  3  6  1  0
  4  5  1  0
  6  7  2  3
  6 10  1  0
  7  8  1  0
  8  9  1  0
 10 11  1  1
 10 32  1  0
 11 12  1  0
 12 13  1  0
 12 31  1  0
 13 14  1  0
 14 15  1  0
 15 16  1  0
 15 30  1  0
 16 17  1  0
 16 18  2  3
 18 19  1  0
 19 20  2  0
 19 29  1  0
 20 21  1  0
 21 22  1  0
 21 28  2  0
 22 23  2  0
 22 24  1  0
 24 25  1  0
 25 26  1  6
 25 27  1  0
 28 29  1  0
 30 31  1  0
M  CHG  1  18   1
M  END
