
     RDKit          3D

 33 37  0  0  0  0  0  0  0  0999 V2000
    7.1560   -1.8260   -1.1460 C   0  0  0  0  0  0  0  0  0  0  0  0
    6.6660   -1.6930    0.2930 C   0  0  0  0  0  0  0  0  0  0  0  0
    5.1440   -1.5280    0.2220 C   0  0  0  0  0  0  0  0  0  0  0  0
    4.9010   -0.3360   -0.5530 N   0  0  0  0  0  0  0  0  0  0  0  0
    3.2210   -0.0810   -0.6790 S   0  0  1  0  0  0  0  0  0  0  0  0
    2.8850    1.1050   -1.5310 O   0  0  0  0  0  0  0  0  0  0  0  0
    2.5830   -1.2800   -1.3140 O   0  0  0  0  0  0  0  0  0  0  0  0
    2.4400    0.1680    0.8990 C   0  0  0  0  0  0  0  0  0  0  0  0
    0.9930    0.3750    0.6410 C   0  0  0  0  0  0  0  0  0  0  0  0
    0.0720   -0.6390    0.6010 C   0  0  0  0  0  0  0  0  0  0  0  0
   -1.2590   -0.3390    0.3500 C   0  0  0  0  0  0  0  0  0  0  0  0
   -2.2380   -1.4410    0.2710 C   0  0  0  0  0  0  0  0  0  0  0  0
   -2.3490   -2.3080    1.3570 C   0  0  0  0  0  0  0  0  0  0  0  0
   -3.2280   -3.3680    1.3290 C   0  0  0  0  0  0  0  0  0  0  0  0
   -4.0290   -3.6130    0.2330 C   0  0  0  0  0  0  0  0  0  0  0  0
   -5.1460   -5.0000    0.2560 S   0  0  0  0  0  0  0  0  0  0  0  0
   -4.2440   -6.4330   -0.4180 C   0  0  0  0  0  0  0  0  0  0  0  0
   -3.9070   -2.7470   -0.8330 C   0  0  0  0  0  0  0  0  0  0  0  0
   -3.0290   -1.6710   -0.8310 C   0  0  0  0  0  0  0  0  0  0  0  0
   -1.7010    0.9420    0.1380 C   0  0  0  0  0  0  0  0  0  0  0  0
   -3.0030    1.2910   -0.1020 C   0  0  0  0  0  0  0  0  0  0  0  0
   -3.3560    2.6140   -0.2970 C   0  0  0  0  0  0  0  0  0  0  0  0
   -2.4220    3.6310   -0.2570 C   0  0  0  0  0  0  0  0  0  0  0  0
   -1.1250    3.2410   -0.0110 C   0  0  0  0  0  0  0  0  0  0  0  0
   -0.1210    4.2090    0.0450 C   0  0  0  0  0  0  0  0  0  0  0  0
   -0.4680    5.5420   -0.1500 C   0  0  0  0  0  0  0  0  0  0  0  0
   -1.7950    5.8550   -0.3920 C   0  0  0  0  0  0  0  0  0  0  0  0
   -2.3940    7.0440   -0.6110 N   0  0  0  0  0  0  0  0  0  0  0  0
   -3.7150    6.7890   -0.7920 C   0  0  0  0  0  0  0  0  0  0  0  0
   -3.9370    5.4640   -0.6880 N   0  0  0  0  0  0  0  0  0  0  0  0
   -2.7540    4.9210   -0.4450 N   0  0  0  0  0  0  0  0  0  0  0  0
   -0.7200    1.9380    0.1890 C   0  0  0  0  0  0  0  0  0  0  0  0
    0.5690    1.6290    0.4340 N   0  0  0  0  0  0  0  0  0  0  0  0
  1  2  1  0
  2  3  1  0
  3  4  1  0
  4  5  1  0
  5  6  2  0
  5  7  2  0
  5  8  1  1
  8  9  1  0
  9 10  2  0
  9 33  1  0
 10 11  1  0
 11 12  1  0
 11 20  2  0
 12 13  2  0
 12 19  1  0
 13 14  1  0
 14 15  2  0
 15 16  1  0
 15 18  1  0
 16 17  1  0
 18 19  2  0
 20 21  1  0
 20 32  1  0
 21 22  2  0
 22 23  1  0
 23 24  2  0
 23 31  1  0
 24 25  1  0
 24 32  1  0
 25 26  2  0
 26 27  1  0
 27 28  2  0
 27 31  1  0
 28 29  1  0
 29 30  2  0
 30 31  1  0
 32 33  2  0
M  END
