
     RDKit          3D

 33 35  0  0  0  0  0  0  0  0999 V2000
   -4.6620    0.6850    0.2470 C   0  0  0  0  0  0  0  0  0  0  0  0
   -4.4190    1.7840   -0.4110 C   0  0  0  0  0  0  0  0  0  0  0  0
   -2.8110    2.2820   -0.9220 S   0  0  0  0  0  0  0  0  0  0  0  0
   -1.5680    1.1160   -0.4630 C   0  0  0  0  0  0  0  0  0  0  0  0
   -1.7340    0.0210    0.1500 N   0  0  0  0  0  0  0  0  0  0  0  0
   -0.4870   -0.6660    0.3500 C   0  0  0  0  0  0  0  0  0  0  0  0
   -0.4790   -1.9260    1.0270 N   0  0  0  0  0  0  0  0  0  0  0  0
    0.3110   -2.0680    2.2140 C   0  0  0  0  0  0  0  0  0  0  0  0
    1.1670   -3.2770    2.2920 C   0  0  0  0  0  0  0  0  0  0  0  0
    1.1800   -4.2070    1.1390 C   0  0  0  0  0  0  0  0  0  0  0  0
   -0.0780   -5.0420    1.0260 C   0  0  0  0  0  0  0  0  0  0  0  0
   -1.3080   -4.1950    1.2830 C   0  0  0  0  0  0  0  0  0  0  0  0
   -1.3300   -2.9540    0.4630 C   0  0  2  0  0  0  0  0  0  0  0  0
   -1.2090   -3.1490   -1.0080 C   0  0  0  0  0  0  0  0  0  0  0  0
   -2.1100   -4.1810   -1.3450 O   0  0  0  0  0  0  0  0  0  0  0  0
    0.4100    0.0870   -0.1760 C   0  0  0  0  0  0  0  0  0  0  0  0
    1.8430   -0.1740   -0.2300 C   0  0  0  0  0  0  0  0  0  0  0  0
    2.4190   -1.1740    0.2320 O   0  0  0  0  0  0  0  0  0  0  0  0
    2.7310    0.7750   -0.8620 N   0  0  0  0  0  0  0  0  0  0  0  0
    4.1350    0.5500   -0.9310 C   0  0  1  0  0  0  0  0  0  0  0  0
    4.6530    0.4430   -2.3470 C   0  0  0  0  0  0  0  0  0  0  0  0
    4.9510    1.5780   -0.2280 C   0  0  0  0  0  0  0  0  0  0  0  0
    4.4790    2.5610    0.3740 O   0  0  0  0  0  0  0  0  0  0  0  0
    6.3250    1.4170   -0.2550 O   0  0  0  0  0  0  0  0  0  0  0  0
    7.2170    2.2940    0.3530 C   0  0  0  0  0  0  0  0  0  0  0  0
    7.0530    3.6680   -0.2570 C   0  0  0  0  0  0  0  0  0  0  0  0
   -0.1780    1.2430   -0.7210 N   0  0  0  0  0  0  0  0  0  0  0  0
   -5.5970    2.6360   -0.7200 C   0  0  0  0  0  0  0  0  0  0  0  0
   -5.5060    3.7520   -1.3660 N   0  0  0  0  0  0  0  0  0  0  0  0
   -6.8020    4.2980   -1.4830 C   0  0  0  0  0  0  0  0  0  0  0  0
   -7.1440    5.2520   -2.2500 N   0  0  0  0  0  0  0  0  0  0  0  0
   -7.6590    3.5400   -0.5440 C   0  0  0  0  0  0  0  0  0  0  0  0
   -6.9060    2.3600   -0.3700 O   0  0  0  0  0  0  0  0  0  0  0  0
  1  2  2  0
  2  3  1  0
  2 28  1  0
  3  4  1  0
  4  5  2  0
  4 27  1  0
  5  6  1  0
  6  7  1  0
  6 16  2  0
  7  8  1  0
  7 13  1  0
  8  9  1  0
  9 10  1  0
 10 11  1  0
 11 12  1  0
 12 13  1  0
 13 14  1  6
 14 15  1  0
 16 17  1  0
 16 27  1  0
 17 18  2  0
 17 19  1  0
 19 20  1  0
 20 21  1  6
 20 22  1  0
 22 23  2  0
 22 24  1  0
 24 25  1  0
 25 26  1  0
 28 29  2  0
 28 33  1  0
 29 30  1  0
 30 31  2  0
 30 32  1  0
 32 33  1  0
M  CHG  2  27   1  31   1
M  END
