
     RDKit          3D

 33 37  0  0  0  0  0  0  0  0999 V2000
    5.7920    3.2380    0.8790 C   0  0  0  0  0  0  0  0  0  0  0  0
    4.9120    2.8130   -0.0050 C   0  0  0  0  0  0  0  0  0  0  0  0
    5.0710    2.6230   -1.4530 C   0  0  0  0  0  0  0  0  0  0  0  0
    5.9910    3.1020   -2.3210 C   0  0  0  0  0  0  0  0  0  0  0  0
    5.8780    2.3900   -3.4950 N   0  0  0  0  0  0  0  0  0  0  0  0
    4.8910    1.5070   -3.3450 N   0  0  0  0  0  0  0  0  0  0  0  0
    4.3640    1.5910   -2.1510 C   0  0  0  0  0  0  0  0  0  0  0  0
    3.1480    0.9570   -1.5870 C   0  0  0  0  0  0  0  0  0  0  0  0
    3.4620   -0.3690   -1.1640 O   0  0  0  0  0  0  0  0  0  0  0  0
    2.5220   -1.2020   -0.6060 C   0  0  0  0  0  0  0  0  0  0  0  0
    2.9690   -2.4440   -0.0860 C   0  0  0  0  0  0  0  0  0  0  0  0
    2.0810   -3.3030    0.4850 C   0  0  0  0  0  0  0  0  0  0  0  0
    0.7220   -2.9830    0.5750 C   0  0  0  0  0  0  0  0  0  0  0  0
   -0.3240   -4.1620    1.4290 S   0  0  0  0  0  0  0  0  0  0  0  0
   -0.5230   -3.6920    3.1530 C   0  0  0  0  0  0  0  0  0  0  0  0
    0.2780   -1.8070    0.0770 C   0  0  0  0  0  0  0  0  0  0  0  0
   -1.1330   -1.4960    0.1670 N   0  0  0  0  0  0  0  0  0  0  0  0
   -1.7910   -0.6360   -0.7260 C   0  0  0  0  0  0  0  0  0  0  0  0
   -0.9920   -0.2270   -1.6810 O   0  0  0  0  0  0  0  0  0  0  0  0
   -3.1530   -0.1820   -0.7790 C   0  0  0  0  0  0  0  0  0  0  0  0
   -3.8070    0.3380   -2.4770 S   0  0  0  0  0  0  0  0  0  0  0  0
   -5.3900    0.7880   -1.8190 C   0  0  0  0  0  0  0  0  0  0  0  0
   -5.3140    0.5610   -0.6280 C   0  0  0  0  0  0  0  0  0  0  0  0
   -6.4820    0.8750    0.0430 C   0  0  0  0  0  0  0  0  0  0  0  0
   -6.5910    0.7100    1.3830 N   0  0  0  0  0  0  0  0  0  0  0  0
   -5.5140    0.2350    2.0520 C   0  0  0  0  0  0  0  0  0  0  0  0
   -4.3310   -0.0840    1.4020 C   0  0  0  0  0  0  0  0  0  0  0  0
   -3.2160   -0.3730    2.2760 C   0  0  0  0  0  0  0  0  0  0  0  0
   -2.1160    0.3480    2.2510 C   0  0  0  0  0  0  0  0  0  0  0  0
   -4.2070    0.0570    0.0430 C   0  0  0  0  0  0  0  0  0  0  0  0
   -7.3720    1.3730   -1.0430 C   0  0  0  0  0  0  0  0  0  0  0  0
   -6.7440    1.3300   -2.1610 N   0  0  0  0  0  0  0  0  0  0  0  0
    1.1690   -0.8930   -0.5230 C   0  0  0  0  0  0  0  0  0  0  0  0
  1  2  2  0
  2  3  1  0
  3  4  1  0
  3  7  2  0
  4  5  2  0
  5  6  1  0
  6  7  1  0
  7  8  1  0
  8  9  1  0
  9 10  1  0
 10 11  2  0
 10 33  1  0
 11 12  1  0
 12 13  2  0
 13 14  1  0
 13 16  1  0
 14 15  1  0
 16 17  1  0
 16 33  2  0
 17 18  1  0
 18 19  2  0
 18 20  1  0
 20 21  1  0
 20 30  2  0
 21 22  1  0
 22 23  2  0
 22 32  1  0
 23 24  1  0
 23 30  1  0
 24 25  2  0
 24 31  1  0
 25 26  1  0
 26 27  2  0
 27 28  1  0
 27 30  1  0
 28 29  2  0
 31 32  2  0
M  END
