
     RDKit          3D

 32 35  0  0  0  0  0  0  0  0999 V2000
   -3.6060    2.4040   -0.8730 C   0  0  0  0  0  0  0  0  0  0  0  0
   -3.4300    0.9200   -1.2340 C   0  0  2  0  0  0  0  0  0  0  0  0
   -4.7930    0.3740   -1.4630 C   0  0  0  0  0  0  0  0  0  0  0  0
   -5.0810   -0.8820   -0.6800 C   0  0  2  0  0  0  0  0  0  0  0  0
   -5.8060   -0.6500    0.5380 N   0  0  0  0  0  0  0  0  0  0  0  0
   -3.9220   -1.8130   -0.5830 C   0  0  0  0  0  0  0  0  0  0  0  0
   -2.6150   -1.2160   -0.1470 C   0  0  2  0  0  0  0  0  0  0  0  0
   -2.1600   -1.6390    1.1920 C   0  0  0  0  0  0  0  0  0  0  0  0
   -3.0000   -2.1830    2.1300 C   0  0  0  0  0  0  0  0  0  0  0  0
   -2.5900   -2.5290    3.3970 C   0  0  0  0  0  0  0  0  0  0  0  0
   -1.3060   -2.3080    3.6890 N   0  0  0  0  0  0  0  0  0  0  0  0
   -0.4100   -1.7710    2.8100 C   0  0  0  0  0  0  0  0  0  0  0  0
   -0.8240   -1.4270    1.5420 C   0  0  0  0  0  0  0  0  0  0  0  0
    0.0980   -0.9290    0.5790 N   0  0  0  0  0  0  0  0  0  0  0  0
    1.4150   -0.4990    0.8610 C   0  0  0  0  0  0  0  0  0  0  0  0
    1.8940   -0.5100    2.0190 O   0  0  0  0  0  0  0  0  0  0  0  0
    2.3320   -0.0030   -0.1790 C   0  0  0  0  0  0  0  0  0  0  0  0
    1.9980    0.1240   -1.5000 C   0  0  0  0  0  0  0  0  0  0  0  0
    2.9000    0.5910   -2.4740 C   0  0  0  0  0  0  0  0  0  0  0  0
    4.1700    0.9330   -2.0700 C   0  0  0  0  0  0  0  0  0  0  0  0
    5.0410    1.3850   -3.0130 F   0  0  0  0  0  0  0  0  0  0  0  0
    4.4970    0.8030   -0.7430 C   0  0  0  0  0  0  0  0  0  0  0  0
    5.8310    1.1570   -0.3140 C   0  0  0  0  0  0  0  0  0  0  0  0
    6.8350    0.1940   -0.3290 C   0  0  0  0  0  0  0  0  0  0  0  0
    6.6160   -1.0800   -0.7300 F   0  0  0  0  0  0  0  0  0  0  0  0
    8.1260    0.5090    0.0760 C   0  0  0  0  0  0  0  0  0  0  0  0
    8.4320    1.7740    0.4970 C   0  0  0  0  0  0  0  0  0  0  0  0
    7.4310    2.7260    0.5100 C   0  0  0  0  0  0  0  0  0  0  0  0
    6.1380    2.4270    0.1090 C   0  0  0  0  0  0  0  0  0  0  0  0
    5.1730    3.4030    0.1410 F   0  0  0  0  0  0  0  0  0  0  0  0
    3.6050    0.3540    0.1500 N   0  0  0  0  0  0  0  0  0  0  0  0
   -2.6950    0.3050   -0.0920 C   0  0  0  0  0  0  0  0  0  0  0  0
  2  1  1  1
  2  3  1  0
  2 32  1  0
  3  4  1  0
  4  5  1  1
  4  6  1  0
  6  7  1  0
  7  8  1  1
  7 32  1  0
  8  9  2  0
  8 13  1  0
  9 10  1  0
 10 11  2  0
 11 12  1  0
 12 13  2  0
 13 14  1  0
 14 15  1  0
 15 16  2  0
 15 17  1  0
 17 18  2  0
 17 31  1  0
 18 19  1  0
 19 20  2  0
 20 21  1  0
 20 22  1  0
 22 23  1  0
 22 31  2  0
 23 24  2  0
 23 29  1  0
 24 25  1  0
 24 26  1  0
 26 27  2  0
 27 28  1  0
 28 29  2  0
 29 30  1  0
M  CHG  1   5   1
M  END
