
     RDKit          3D

 33 35  0  0  0  0  0  0  0  0999 V2000
   -6.6920    0.6750   -1.0570 C   0  0  0  0  0  0  0  0  0  0  0  0
   -6.1460   -0.6280   -0.9430 O   0  0  0  0  0  0  0  0  0  0  0  0
   -5.3770   -1.1930   -1.9330 C   0  0  0  0  0  0  0  0  0  0  0  0
   -5.0920   -0.5080   -3.1140 C   0  0  0  0  0  0  0  0  0  0  0  0
   -4.3270   -1.0770   -4.1050 C   0  0  0  0  0  0  0  0  0  0  0  0
   -3.8400   -2.3630   -3.8960 C   0  0  0  0  0  0  0  0  0  0  0  0
   -4.1360   -3.0350   -2.7010 C   0  0  0  0  0  0  0  0  0  0  0  0
   -4.8960   -2.4710   -1.7160 C   0  0  0  0  0  0  0  0  0  0  0  0
   -5.2740   -3.3710   -0.2690 S   0  0  0  0  0  0  0  0  0  0  0  0
   -5.7540   -2.4320    1.1610 C   0  0  0  0  0  0  0  0  0  0  0  0
   -4.6420   -1.7480    1.8960 C   0  0  2  0  0  0  0  0  0  0  0  0
   -5.1550   -0.9050    3.0620 C   0  0  0  0  0  0  0  0  0  0  0  0
   -3.6880   -1.0100    1.1390 N   0  0  0  0  0  0  0  0  0  0  0  0
   -2.2750   -1.1930    1.3440 C   0  0  0  0  0  0  0  0  0  0  0  0
   -1.9330   -1.9840    2.2280 O   0  0  0  0  0  0  0  0  0  0  0  0
   -1.2710   -0.5190    0.5880 N   0  0  0  0  0  0  0  0  0  0  0  0
    0.1440   -0.7230    0.8580 C   0  0  1  0  0  0  0  0  0  0  0  0
    0.6780   -1.6900   -0.1540 C   0  0  0  0  0  0  0  0  0  0  0  0
    1.1650   -1.1170   -1.4300 C   0  0  0  0  0  0  0  0  0  0  0  0
    1.3780    0.3770   -1.4010 C   0  0  0  0  0  0  0  0  0  0  0  0
    1.7860    0.7200   -0.0700 N   0  0  0  0  0  0  0  0  0  0  0  0
    3.0920    1.1500    0.2060 C   0  0  0  0  0  0  0  0  0  0  0  0
    3.9330    1.2030   -0.7270 O   0  0  0  0  0  0  0  0  0  0  0  0
    3.5380    1.5530    1.5560 C   0  0  0  0  0  0  0  0  0  0  0  0
    4.9500    2.0170    1.6660 C   0  0  1  0  0  0  0  0  0  0  0  0
    5.2080    2.3480    3.0170 O   0  0  0  0  0  0  0  0  0  0  0  0
    6.0140    1.1120    1.1740 C   0  0  0  0  0  0  0  0  0  0  0  0
    6.5190    2.1340    0.3170 N   0  0  0  0  0  0  0  0  0  0  0  0
    7.6620    2.1990   -0.5560 C   0  0  0  0  0  0  0  0  0  0  0  0
    7.5650    2.3340   -1.9570 N   0  0  0  0  0  0  0  0  0  0  0  0
    8.8580    2.1270   -0.0410 N   0  0  0  0  0  0  0  0  0  0  0  0
    5.4630    3.0080    0.6920 C   0  0  0  0  0  0  0  0  0  0  0  0
    0.8020    0.5940    0.9700 C   0  0  0  0  0  0  0  0  0  0  0  0
  1  2  1  0
  2  3  1  0
  3  4  2  0
  3  8  1  0
  4  5  1  0
  5  6  2  0
  6  7  1  0
  7  8  2  0
  8  9  1  0
  9 10  1  0
 10 11  1  0
 11 12  1  1
 11 13  1  0
 13 14  1  0
 14 15  2  0
 14 16  1  0
 17 16  1  6
 17 18  1  0
 17 33  1  0
 18 19  1  0
 19 20  1  0
 20 21  1  0
 21 22  1  0
 21 33  1  0
 22 23  2  0
 22 24  1  0
 24 25  1  0
 25 26  1  1
 25 27  1  0
 25 32  1  0
 27 28  1  0
 28 29  1  0
 28 32  1  0
 29 30  1  0
 29 31  2  0
M  CHG  1  31   1
M  END
