
     RDKit          3D

 28 30  0  0  0  0  0  0  0  0999 V2000
    5.4840    1.8200   -1.0020 C   0  0  0  0  0  0  0  0  0  0  0  0
    4.0400    1.4070   -0.9320 C   0  0  0  0  0  0  0  0  0  0  0  0
    3.6580    0.2710   -0.3980 C   0  0  0  0  0  0  0  0  0  0  0  0
    4.7680   -0.4840    0.0810 N   0  0  0  0  0  0  0  0  0  0  0  0
    5.3820   -0.2230    1.1690 C   0  0  0  0  0  0  0  0  0  0  0  0
    4.9460    1.2050    2.3510 Br  0  0  0  0  0  0  0  0  0  0  0  0
    2.2680   -0.0830   -0.2510 C   0  0  0  0  0  0  0  0  0  0  0  0
    1.8400   -1.3890    0.0250 C   0  0  0  0  0  0  0  0  0  0  0  0
    0.5070   -1.7090    0.2560 C   0  0  0  0  0  0  0  0  0  0  0  0
   -0.4060   -0.6720    0.2040 C   0  0  0  0  0  0  0  0  0  0  0  0
   -1.7610   -0.9670    0.4390 O   0  0  0  0  0  0  0  0  0  0  0  0
   -2.7810   -0.0500    0.3970 C   0  0  0  0  0  0  0  0  0  0  0  0
   -3.5180    0.2080    1.5400 C   0  0  0  0  0  0  0  0  0  0  0  0
   -4.5540    1.1150    1.5640 C   0  0  0  0  0  0  0  0  0  0  0  0
   -5.3440    1.3880    2.8000 C   0  0  0  0  0  0  0  0  0  0  0  0
   -4.8460    1.7760    0.3910 C   0  0  0  0  0  0  0  0  0  0  0  0
   -4.1170    1.5240   -0.7470 C   0  0  0  0  0  0  0  0  0  0  0  0
   -3.0650    0.6050   -0.7780 C   0  0  0  0  0  0  0  0  0  0  0  0
   -2.3670    0.3950   -1.9720 O   0  0  0  0  0  0  0  0  0  0  0  0
   -2.7260    1.1100   -3.1350 C   0  0  0  0  0  0  0  0  0  0  0  0
   -0.0550    0.5820   -0.0530 N   0  0  0  0  0  0  0  0  0  0  0  0
    1.2650    0.8610   -0.2760 C   0  0  0  0  0  0  0  0  0  0  0  0
    1.5440    2.0730   -0.5120 O   0  0  0  0  0  0  0  0  0  0  0  0
    0.0370   -3.0740    0.5320 C   0  0  0  0  0  0  0  0  0  0  0  0
   -0.8610   -3.2220    1.3700 O   0  0  0  0  0  0  0  0  0  0  0  0
    0.5890   -4.2650   -0.1490 C   0  0  0  0  0  0  0  0  0  0  0  0
    2.1400   -3.7930   -1.0220 S   0  0  0  0  0  0  0  0  0  0  0  0
    2.8030   -2.4720    0.0590 C   0  0  0  0  0  0  0  0  0  0  0  0
  1  2  1  0
  2  3  2  3
  3  4  1  0
  3  7  1  0
  4  5  2  3
  5  6  1  0
  7  8  2  0
  7 22  1  0
  8  9  1  0
  8 28  1  0
  9 10  2  0
  9 24  1  0
 10 11  1  0
 10 21  1  0
 11 12  1  0
 12 13  2  0
 12 18  1  0
 13 14  1  0
 14 15  1  0
 14 16  2  0
 16 17  1  0
 17 18  2  0
 18 19  1  0
 19 20  1  0
 21 22  1  0
 22 23  2  0
 24 25  2  0
 24 26  1  0
 26 27  1  0
 27 28  1  0
M  END
