
     RDKit          3D

 28 31  0  0  0  0  0  0  0  0999 V2000
    4.9130   -2.8090    0.2870 C   0  0  0  0  0  0  0  0  0  0  0  0
    4.3240   -1.9790   -0.8000 C   0  0  0  0  0  0  0  0  0  0  0  0
    3.8120   -0.7160   -0.3840 N   0  0  0  0  0  0  0  0  0  0  0  0
    4.5500    0.4990   -0.3340 C   0  0  0  0  0  0  0  0  0  0  0  0
    5.7460    0.6870   -0.6340 O   0  0  0  0  0  0  0  0  0  0  0  0
    3.6610    1.5530    0.1450 C   0  0  0  0  0  0  0  0  0  0  0  0
    3.7570    2.9090    0.4070 C   0  0  0  0  0  0  0  0  0  0  0  0
    2.6390    3.5960    0.8720 C   0  0  0  0  0  0  0  0  0  0  0  0
    1.4170    2.9640    1.0850 C   0  0  0  0  0  0  0  0  0  0  0  0
    1.3280    1.6130    0.8220 C   0  0  0  0  0  0  0  0  0  0  0  0
    0.1680    0.8910    0.9970 C   0  0  0  0  0  0  0  0  0  0  0  0
   -1.0050    1.4930    1.4690 N   0  0  0  0  0  0  0  0  0  0  0  0
   -2.5340    0.6720    1.4990 S   0  0  2  0  0  0  0  0  0  0  0  0
   -3.6100    1.5820    2.0510 O   0  0  0  0  0  0  0  0  0  0  0  0
   -2.4160   -0.5780    2.3160 O   0  0  0  0  0  0  0  0  0  0  0  0
   -3.0600    0.2120   -0.1030 C   0  0  0  0  0  0  0  0  0  0  0  0
   -2.3270    0.5200   -1.2270 C   0  0  0  0  0  0  0  0  0  0  0  0
   -2.7600    0.1530   -2.4950 C   0  0  0  0  0  0  0  0  0  0  0  0
   -1.7580    0.5710   -4.0540 Br  0  0  0  0  0  0  0  0  0  0  0  0
   -3.9470   -0.5320   -2.6420 C   0  0  0  0  0  0  0  0  0  0  0  0
   -4.6890   -0.8420   -1.4960 C   0  0  0  0  0  0  0  0  0  0  0  0
   -4.2480   -0.4730   -0.2420 C   0  0  0  0  0  0  0  0  0  0  0  0
   -5.0000   -0.7910    0.8790 O   0  0  0  0  0  0  0  0  0  0  0  0
   -6.2120   -1.4800    0.8440 C   0  0  0  0  0  0  0  0  0  0  0  0
    0.1970   -0.4740    0.6960 C   0  0  0  0  0  0  0  0  0  0  0  0
    1.3470   -1.0790    0.2400 C   0  0  0  0  0  0  0  0  0  0  0  0
    2.5080   -0.3590    0.0640 C   0  0  0  0  0  0  0  0  0  0  0  0
    2.4520    0.9720    0.3650 C   0  0  0  0  0  0  0  0  0  0  0  0
  1  2  1  0
  2  3  1  0
  3  4  1  0
  3 27  1  0
  4  5  2  0
  4  6  1  0
  6  7  2  0
  6 28  1  0
  7  8  1  0
  8  9  2  0
  9 10  1  0
 10 11  2  0
 10 28  1  0
 11 12  1  0
 11 25  1  0
 13 12  1  6
 13 14  2  0
 13 15  2  0
 13 16  1  0
 16 17  2  0
 16 22  1  0
 17 18  1  0
 18 19  1  0
 18 20  2  0
 20 21  1  0
 21 22  2  0
 22 23  1  0
 23 24  1  0
 25 26  2  0
 26 27  1  0
 27 28  2  0
M  END
