
     RDKit          3D

 28 32  0  0  0  0  0  0  0  0999 V2000
    4.9860    1.8700   -1.7320 C   0  0  0  0  0  0  0  0  0  0  0  0
    4.3450    1.4040   -0.4630 C   0  0  2  0  0  0  0  0  0  0  0  0
    5.3840    0.9030    0.5360 C   0  0  0  0  0  0  0  0  0  0  0  0
    6.2510   -0.1580   -0.0970 C   0  0  0  0  0  0  0  0  0  0  0  0
    5.3620   -0.9840   -1.0110 C   0  0  0  0  0  0  0  0  0  0  0  0
    3.9370   -0.9980   -0.4470 C   0  0  0  0  0  0  0  0  0  0  0  0
    3.2920    0.3330   -0.6920 C   0  0  1  0  0  0  0  0  0  0  0  0
    2.2020    0.6150    0.2210 N   0  0  0  0  0  0  0  0  0  0  0  0
    1.1820   -0.4340    0.1640 C   0  0  1  0  0  0  0  0  0  0  0  0
    1.3670   -1.4630    1.2080 C   0  0  0  0  0  0  0  0  0  0  0  0
    0.1400   -1.8890    1.9360 C   0  0  0  0  0  0  0  0  0  0  0  0
   -0.9410   -2.4540    1.1020 C   0  0  0  0  0  0  0  0  0  0  0  0
   -0.9000   -2.1180   -0.3430 C   0  0  0  0  0  0  0  0  0  0  0  0
   -1.0600   -0.6860   -0.6920 C   0  0  1  0  0  0  0  0  0  0  0  0
   -2.4300   -0.2410   -0.7930 N   0  0  0  0  0  0  0  0  0  0  0  0
   -3.0330    0.2020    0.3920 C   0  0  1  0  0  0  0  0  0  0  0  0
   -3.3580    1.7750    0.3050 C   0  0  0  0  0  0  0  0  0  0  0  0
   -4.6030    1.8130   -0.4790 C   0  0  2  0  0  0  0  0  0  0  0  0
   -5.7630    2.7080   -0.2760 C   0  0  0  0  0  0  0  0  0  0  0  0
   -6.9410    1.7380   -0.5540 C   0  0  0  0  0  0  0  0  0  0  0  0
   -8.0440    1.9190   -1.0460 O   0  0  0  0  0  0  0  0  0  0  0  0
   -6.4700    0.4470   -0.0840 N   0  0  0  0  0  0  0  0  0  0  0  0
   -5.1990    0.5860   -0.0190 C   0  0  0  0  0  0  0  0  0  0  0  0
   -4.4270   -0.3920    0.4230 C   0  0  0  0  0  0  0  0  0  0  0  0
   -5.3620   -1.3410    0.6830 N   0  0  0  0  0  0  0  0  0  0  0  0
   -6.6130   -0.8160    0.3690 C   0  0  0  0  0  0  0  0  0  0  0  0
   -7.7180   -1.3780    0.4700 O   0  0  0  0  0  0  0  0  0  0  0  0
   -0.1950    0.2000    0.1480 C   0  0  0  0  0  0  0  0  0  0  0  0
  2  1  1  6
  2  3  1  0
  2  7  1  0
  3  4  1  0
  4  5  1  0
  5  6  1  0
  6  7  1  0
  7  8  1  1
  9  8  1  1
  9 10  1  0
  9 28  1  0
 10 11  1  0
 11 12  1  0
 12 13  1  0
 13 14  1  0
 14 15  1  1
 14 28  1  0
 16 15  1  6
 16 17  1  0
 16 24  1  0
 18 17  1  1
 18 19  1  0
 18 23  1  0
 19 20  1  0
 20 21  2  0
 20 22  1  0
 22 23  1  0
 22 26  1  0
 23 24  2  0
 24 25  1  0
 25 26  1  0
 26 27  2  0
M  CHG  2   8   1  15   1
M  END
