
     RDKit          3D

 28 31  0  0  0  0  0  0  0  0999 V2000
    5.6740   -1.2400   -1.7100 C   0  0  0  0  0  0  0  0  0  0  0  0
    5.4790   -0.6070   -0.4270 N   0  0  0  0  0  0  0  0  0  0  0  0
    6.4900   -0.1350    0.3180 C   0  0  0  0  0  0  0  0  0  0  0  0
    5.9990    0.4020    1.4690 C   0  0  0  0  0  0  0  0  0  0  0  0
    4.6250    0.2470    1.4160 C   0  0  0  0  0  0  0  0  0  0  0  0
    4.3180   -0.3730    0.2470 C   0  0  0  0  0  0  0  0  0  0  0  0
    3.0270   -0.8290   -0.3390 C   0  0  1  0  0  0  0  0  0  0  0  0
    3.1280   -2.2450   -0.2540 O   0  0  0  0  0  0  0  0  0  0  0  0
    1.8120   -0.3610    0.3930 C   0  0  1  0  0  0  0  0  0  0  0  0
    1.6480    1.1290    0.3620 C   0  0  0  0  0  0  0  0  0  0  0  0
    1.2600    1.7460   -0.9290 C   0  0  0  0  0  0  0  0  0  0  0  0
    0.5550    3.0430   -0.6690 C   0  0  0  0  0  0  0  0  0  0  0  0
   -0.5990    3.4550   -1.1060 C   0  0  0  0  0  0  0  0  0  0  0  0
   -1.6460    2.9590   -1.9360 C   0  0  0  0  0  0  0  0  0  0  0  0
   -2.8260    2.4080   -1.7020 C   0  0  0  0  0  0  0  0  0  0  0  0
   -3.6140    2.0510   -0.5770 C   0  0  0  0  0  0  0  0  0  0  0  0
   -4.5600    2.9330   -0.2430 O   0  0  0  0  0  0  0  0  0  0  0  0
   -3.6770    0.9750    0.3200 N   0  0  0  0  0  0  0  0  0  0  0  0
   -4.8000    0.8240    1.3020 C   0  0  0  0  0  0  0  0  0  0  0  0
   -5.4630   -0.4620    0.8860 C   0  0  0  0  0  0  0  0  0  0  0  0
   -4.6340   -1.6130    0.8360 N   0  0  0  0  0  0  0  0  0  0  0  0
   -3.4500   -1.4350    0.0120 C   0  0  2  0  0  0  0  0  0  0  0  0
   -2.4660   -2.5240    0.0600 C   0  0  0  0  0  0  0  0  0  0  0  0
   -1.2070   -2.3030    0.8070 C   0  0  0  0  0  0  0  0  0  0  0  0
   -0.5010   -1.0140    0.5990 C   0  0  2  0  0  0  0  0  0  0  0  0
   -1.4560   -0.0290   -0.0390 C   0  0  0  0  0  0  0  0  0  0  0  0
   -2.8180   -0.1600    0.5180 C   0  0  1  0  0  0  0  0  0  0  0  0
    0.6860   -1.0620   -0.1740 N   0  0  0  0  0  0  0  0  0  0  0  0
  1  2  1  0
  2  3  1  0
  2  6  1  0
  3  4  2  0
  4  5  1  0
  5  6  2  0
  6  7  1  0
  7  8  1  1
  7  9  1  0
  9 10  1  6
  9 28  1  0
 10 11  1  0
 11 12  1  0
 12 13  2  0
 13 14  1  0
 14 15  2  0
 15 16  1  0
 16 17  2  0
 16 18  1  0
 18 19  1  0
 18 27  1  0
 19 20  1  0
 20 21  1  0
 21 22  1  0
 22 23  1  1
 22 27  1  0
 23 24  1  0
 25 24  1  6
 25 26  1  0
 25 28  1  0
 27 26  1  6
M  CHG  2  21   1  28   1
M  END
