
     RDKit          3D

 28 30  0  0  0  0  0  0  0  0999 V2000
   -5.5420    1.2130   -1.0290 C   0  0  0  0  0  0  0  0  0  0  0  0
   -4.3130    0.6190   -0.3000 C   0  0  1  0  0  0  0  0  0  0  0  0
   -4.7380    0.5960    1.1300 C   0  0  0  0  0  0  0  0  0  0  0  0
   -4.0470   -0.3110    2.0570 C   0  0  0  0  0  0  0  0  0  0  0  0
   -2.7280    0.1770    2.5280 C   0  0  0  0  0  0  0  0  0  0  0  0
   -2.5370    1.4200    2.4860 O   0  0  0  0  0  0  0  0  0  0  0  0
   -1.6740   -0.6360    3.0200 N   0  0  0  0  0  0  0  0  0  0  0  0
   -1.1070   -1.7590    2.3950 C   0  0  0  0  0  0  0  0  0  0  0  0
   -0.4610   -1.8450    1.2700 C   0  0  0  0  0  0  0  0  0  0  0  0
   -0.1710   -0.6600    0.3510 C   0  0  1  0  0  0  0  0  0  0  0  0
    1.3180   -0.4580    0.6230 C   0  0  0  0  0  0  0  0  0  0  0  0
    1.9790    0.6170   -0.0800 C   0  0  0  0  0  0  0  0  0  0  0  0
    1.4570    1.4250   -0.8760 O   0  0  0  0  0  0  0  0  0  0  0  0
    3.3730    0.7840    0.1510 N   0  0  0  0  0  0  0  0  0  0  0  0
    4.0760    1.8420   -0.5250 C   0  0  0  0  0  0  0  0  0  0  0  0
    5.2490    1.2170   -1.2630 C   0  0  0  0  0  0  0  0  0  0  0  0
    6.1180    0.6040   -0.2100 C   0  0  0  0  0  0  0  0  0  0  0  0
    5.5590    0.0200    0.8330 C   0  0  0  0  0  0  0  0  0  0  0  0
    6.6550   -0.4740    1.6700 C   0  0  0  0  0  0  0  0  0  0  0  0
    7.8180   -0.1840    1.1280 C   0  0  0  0  0  0  0  0  0  0  0  0
    7.5970    0.5400   -0.1390 C   0  0  0  0  0  0  0  0  0  0  0  0
    4.1040   -0.0790    1.0470 C   0  0  0  0  0  0  0  0  0  0  0  0
   -0.3880   -0.9810   -1.0030 N   0  0  0  0  0  0  0  0  0  0  0  0
   -1.6070   -0.5250   -1.6390 C   0  0  2  0  0  0  0  0  0  0  0  0
   -1.5370    0.9480   -1.8160 C   0  0  0  0  0  0  0  0  0  0  0  0
   -2.7460   -1.1470   -1.0260 C   0  0  0  0  0  0  0  0  0  0  0  0
   -4.0340   -0.5870   -0.9270 N   0  0  2  0  0  0  0  0  0  0  0  0
   -4.6580   -0.6780   -2.2380 C   0  0  0  0  0  0  0  0  0  0  0  0
  2  1  1  6
  2  3  1  0
  2 27  1  0
  3  4  1  0
  4  5  1  0
  5  6  2  0
  5  7  1  0
  7  8  1  0
  8  9  2  0
  9 10  1  0
 10 11  1  6
 10 23  1  0
 11 12  1  0
 12 13  2  0
 12 14  1  0
 14 15  1  0
 14 22  1  0
 15 16  1  0
 16 17  1  0
 17 18  2  0
 17 21  1  0
 18 19  1  0
 18 22  1  0
 19 20  2  0
 20 21  1  0
 23 24  1  0
 24 25  1  1
 24 26  1  0
 26 27  1  0
 27 28  1  6
M  CHG  2  23   1  27   1
M  END
