
     RDKit          3D

 27 30  0  0  0  0  0  0  0  0999 V2000
   -4.2900   -2.2860   -0.6560 C   0  0  0  0  0  0  0  0  0  0  0  0
   -4.4300   -0.8730   -1.1230 C   0  0  0  0  0  0  0  0  0  0  0  0
   -4.1710    0.1590   -0.0550 C   0  0  1  0  0  0  0  0  0  0  0  0
   -4.3540    1.5150   -0.6900 C   0  0  0  0  0  0  0  0  0  0  0  0
   -5.1190   -0.0960    1.0820 C   0  0  0  0  0  0  0  0  0  0  0  0
   -5.0340    1.0640    2.0430 C   0  0  0  0  0  0  0  0  0  0  0  0
   -3.6890    1.6880    2.1070 C   0  0  0  0  0  0  0  0  0  0  0  0
   -2.5580    0.7480    1.7660 C   0  0  0  0  0  0  0  0  0  0  0  0
   -2.7580   -0.0220    0.4940 C   0  0  2  0  0  0  0  0  0  0  0  0
   -1.7750    0.2750   -0.5310 N   0  0  0  0  0  0  0  0  0  0  0  0
   -0.3750    0.1410   -0.3590 C   0  0  0  0  0  0  0  0  0  0  0  0
    0.1860   -0.3780    0.7770 C   0  0  0  0  0  0  0  0  0  0  0  0
    1.5440   -0.4800    0.8970 C   0  0  0  0  0  0  0  0  0  0  0  0
    2.3370   -0.0540   -0.1350 C   0  0  0  0  0  0  0  0  0  0  0  0
    1.8100    0.4750   -1.3010 C   0  0  0  0  0  0  0  0  0  0  0  0
    0.4340    0.5610   -1.3830 C   0  0  0  0  0  0  0  0  0  0  0  0
    2.6650    0.8620   -2.3470 N   0  0  0  0  0  0  0  0  0  0  0  0
    4.0780    0.6990   -2.1920 C   0  0  0  0  0  0  0  0  0  0  0  0
    4.9290    1.3180   -2.8550 O   0  0  0  0  0  0  0  0  0  0  0  0
    4.5750   -0.2840   -1.1630 C   0  0  1  0  0  0  0  0  0  0  0  0
    4.2800   -1.7080   -1.6730 C   0  0  0  0  0  0  0  0  0  0  0  0
    6.0200   -0.1750   -0.8980 C   0  0  0  0  0  0  0  0  0  0  0  0
    6.4240    0.3040    0.3830 N   0  0  0  0  0  0  0  0  0  0  0  0
    5.7330   -0.4260    1.4680 C   0  0  0  0  0  0  0  0  0  0  0  0
    4.3170   -0.0330    1.3020 C   0  0  0  0  0  0  0  0  0  0  0  0
    3.6610    0.3640    2.2700 O   0  0  0  0  0  0  0  0  0  0  0  0
    3.7660   -0.1290    0.0200 N   0  0  0  0  0  0  0  0  0  0  0  0
  1  2  1  0
  2  3  1  0
  3  4  1  6
  3  5  1  0
  3  9  1  0
  5  6  1  0
  6  7  1  0
  7  8  1  0
  8  9  1  0
  9 10  1  6
 10 11  1  0
 11 12  2  0
 11 16  1  0
 12 13  1  0
 13 14  2  0
 14 15  1  0
 14 27  1  0
 15 16  2  0
 15 17  1  0
 17 18  1  0
 18 19  2  0
 18 20  1  0
 20 21  1  6
 20 22  1  0
 20 27  1  0
 22 23  1  0
 23 24  1  0
 24 25  1  0
 25 26  2  0
 25 27  1  0
M  CHG  1  23   1
M  END
