
     RDKit          3D

 28 31  0  0  0  0  0  0  0  0999 V2000
    5.3990   -2.1210    1.1370 C   0  0  0  0  0  0  0  0  0  0  0  0
    5.2450   -0.6410    1.3950 C   0  0  0  0  0  0  0  0  0  0  0  0
    3.8340   -0.1970    1.1350 C   0  0  0  0  0  0  0  0  0  0  0  0
    3.3250    0.2600   -0.0690 C   0  0  0  0  0  0  0  0  0  0  0  0
    1.9770    0.5690    0.1150 C   0  0  0  0  0  0  0  0  0  0  0  0
    1.1110    1.1030   -0.9220 C   0  0  1  0  0  0  0  0  0  0  0  0
    0.3350    0.0620   -1.7290 C   0  0  1  0  0  0  0  0  0  0  0  0
    0.2290    0.6930   -3.1100 C   0  0  0  0  0  0  0  0  0  0  0  0
    0.2350    2.1890   -2.9390 C   0  0  0  0  0  0  0  0  0  0  0  0
   -0.3410    2.7330   -1.7790 N   0  0  0  0  0  0  0  0  0  0  0  0
    0.1110    2.1160   -0.5320 C   0  0  1  0  0  0  0  0  0  0  0  0
   -1.1110    1.6860    0.2490 C   0  0  0  0  0  0  0  0  0  0  0  0
   -2.0290    2.7730    0.2460 C   0  0  0  0  0  0  0  0  0  0  0  0
   -3.2840    2.6930    0.7800 C   0  0  0  0  0  0  0  0  0  0  0  0
   -3.6150    1.4790    1.3250 C   0  0  0  0  0  0  0  0  0  0  0  0
   -5.0070    1.4520    1.9250 C   0  0  0  0  0  0  0  0  0  0  0  0
   -2.7560    0.3610    1.3610 C   0  0  0  0  0  0  0  0  0  0  0  0
   -1.4820    0.5110    0.8070 C   0  0  0  0  0  0  0  0  0  0  0  0
   -3.2890   -0.7870    1.9460 O   0  0  0  0  0  0  0  0  0  0  0  0
   -3.5610   -2.0720    1.5280 C   0  0  0  0  0  0  0  0  0  0  0  0
   -2.7780   -3.0050    1.0490 C   0  0  0  0  0  0  0  0  0  0  0  0
   -1.3390   -3.0470    0.7810 C   0  0  0  0  0  0  0  0  0  0  0  0
   -1.0350   -2.6310   -0.6320 C   0  0  0  0  0  0  0  0  0  0  0  0
    0.3740   -2.3200   -0.8570 C   0  0  0  0  0  0  0  0  0  0  0  0
    1.2500   -3.0290   -0.2890 O   0  0  0  0  0  0  0  0  0  0  0  0
    0.8340   -1.2580   -1.6840 N   0  0  0  0  0  0  0  0  0  0  0  0
    1.7470    0.2910    1.3890 N   0  0  0  0  0  0  0  0  0  0  0  0
    2.8230   -0.1620    2.0130 N   0  0  0  0  0  0  0  0  0  0  0  0
  1  2  1  0
  2  3  1  0
  3  4  2  0
  3 28  1  0
  4  5  1  0
  6  5  1  1
  5 27  2  0
  6  7  1  0
  6 11  1  0
  7  8  1  6
  7 26  1  0
  8  9  1  0
  9 10  1  0
 11 10  1  6
 11 12  1  0
 12 13  1  0
 12 18  2  0
 13 14  2  0
 14 15  1  0
 15 16  1  0
 15 17  2  0
 17 18  1  0
 17 19  1  0
 19 20  1  0
 20 21  2  0
 21 22  1  0
 22 23  1  0
 23 24  1  0
 24 25  2  0
 24 26  1  0
 27 28  1  0
M  CHG  1  10   1
M  END
