
     RDKit          3D

 24 26  0  0  0  0  0  0  0  0999 V2000
    5.1050    1.2080    1.4020 C   0  0  0  0  0  0  0  0  0  0  0  0
    4.6840    1.5850    0.0040 C   0  0  0  0  0  0  0  0  0  0  0  0
    3.5590    0.6870   -0.4860 C   0  0  1  0  0  0  0  0  0  0  0  0
    4.0250   -0.6000   -0.4750 O   0  0  0  0  0  0  0  0  0  0  0  0
    2.3810    0.9260    0.3950 C   0  0  0  0  0  0  0  0  0  0  0  0
    1.2330    0.2690    0.2010 O   0  0  0  0  0  0  0  0  0  0  0  0
    0.6330   -0.9130    0.1980 C   0  0  0  0  0  0  0  0  0  0  0  0
    1.3020   -2.0640    0.5200 C   0  0  0  0  0  0  0  0  0  0  0  0
    0.6360   -3.2750    0.5110 C   0  0  0  0  0  0  0  0  0  0  0  0
   -0.6950   -3.3080    0.1790 C   0  0  0  0  0  0  0  0  0  0  0  0
   -1.3610   -4.5650    0.1780 N   0  0  0  0  0  0  0  0  0  0  0  0
   -1.3710   -2.1500   -0.1450 C   0  0  0  0  0  0  0  0  0  0  0  0
   -0.7390   -0.9250   -0.1460 C   0  0  0  0  0  0  0  0  0  0  0  0
   -1.3820    0.2960   -0.6210 C   0  0  0  0  0  0  0  0  0  0  0  0
   -0.6590    1.2780   -1.3100 C   0  0  0  0  0  0  0  0  0  0  0  0
   -1.5080    2.3220   -1.6150 C   0  0  0  0  0  0  0  0  0  0  0  0
   -1.1410    3.5830   -2.3540 C   0  0  0  0  0  0  0  0  0  0  0  0
   -2.6890    1.9730   -1.1250 N   0  0  0  0  0  0  0  0  0  0  0  0
   -2.6230    0.7520   -0.5180 N   0  0  0  0  0  0  0  0  0  0  0  0
   -3.7350    0.2450    0.2350 C   0  0  0  0  0  0  0  0  0  0  0  0
   -3.8320   -0.6020    1.2160 C   0  0  0  0  0  0  0  0  0  0  0  0
   -5.2670   -0.7720    1.6270 C   0  0  0  0  0  0  0  0  0  0  0  0
   -5.9560    0.0980    0.7310 N   0  0  0  0  0  0  0  0  0  0  0  0
   -5.1240    0.6700   -0.0470 C   0  0  0  0  0  0  0  0  0  0  0  0
  1  2  1  0
  2  3  1  0
  3  4  1  1
  3  5  1  0
  5  6  1  0
  6  7  1  0
  7  8  2  0
  7 13  1  0
  8  9  1  0
  9 10  2  0
 10 11  1  0
 10 12  1  0
 12 13  2  0
 13 14  1  0
 14 15  2  0
 14 19  1  0
 15 16  1  0
 16 17  1  0
 16 18  2  0
 18 19  1  0
 19 20  1  0
 20 21  2  0
 20 24  1  0
 21 22  1  0
 22 23  1  0
 23 24  2  0
M  END
