
     RDKit          3D

 24 26  0  0  0  0  0  0  0  0999 V2000
    2.1710    0.6550    4.3690 C   0  0  0  0  0  0  0  0  0  0  0  0
    1.4440    0.4980    3.1870 O   0  0  0  0  0  0  0  0  0  0  0  0
    2.0030    0.2990    1.9420 C   0  0  0  0  0  0  0  0  0  0  0  0
    3.3450    0.2420    1.7970 C   0  0  0  0  0  0  0  0  0  0  0  0
    3.8800    0.0400    0.5240 C   0  0  0  0  0  0  0  0  0  0  0  0
    5.3330   -0.0210    0.3690 C   0  0  0  0  0  0  0  0  0  0  0  0
    3.0690   -0.1020   -0.5680 C   0  0  0  0  0  0  0  0  0  0  0  0
    3.6550   -0.3140   -1.8970 C   0  0  0  0  0  0  0  0  0  0  0  0
    2.6870   -0.4450   -2.9430 N   0  0  0  0  0  0  0  0  0  0  0  0
    1.6780   -0.0360   -0.3690 C   0  0  0  0  0  0  0  0  0  0  0  0
    1.1230    0.1610    0.8640 C   0  0  0  0  0  0  0  0  0  0  0  0
   -0.3140    0.2410    1.1520 C   0  0  0  0  0  0  0  0  0  0  0  0
   -1.1250    0.0900   -0.0100 N   0  0  0  0  0  0  0  0  0  0  0  0
   -2.5650    0.1490    0.1410 C   0  0  0  0  0  0  0  0  0  0  0  0
   -3.0750    0.3450    1.3720 N   0  0  0  0  0  0  0  0  0  0  0  0
   -4.3920    0.4110    1.5880 C   0  0  0  0  0  0  0  0  0  0  0  0
   -4.9010    0.5930    2.7230 O   0  0  0  0  0  0  0  0  0  0  0  0
   -5.2460    0.2800    0.5550 N   0  0  0  0  0  0  0  0  0  0  0  0
   -4.8000    0.0800   -0.7150 C   0  0  0  0  0  0  0  0  0  0  0  0
   -5.6900   -0.0520   -1.7590 C   0  0  0  0  0  0  0  0  0  0  0  0
   -5.2320   -0.2510   -3.0220 C   0  0  0  0  0  0  0  0  0  0  0  0
   -3.8840   -0.3160   -3.2240 C   0  0  0  0  0  0  0  0  0  0  0  0
   -2.9590   -0.1860   -2.1880 C   0  0  0  0  0  0  0  0  0  0  0  0
   -3.4150    0.0150   -0.9160 C   0  0  0  0  0  0  0  0  0  0  0  0
  1  2  1  0
  2  3  1  0
  3  4  2  0
  3 11  1  0
  4  5  1  0
  5  6  1  0
  5  7  2  0
  7  8  1  0
  7 10  1  0
  8  9  1  0
 10 11  2  0
 11 12  1  0
 12 13  1  0
 13 14  1  0
 14 15  2  0
 14 24  1  0
 15 16  1  0
 16 17  2  0
 16 18  1  0
 18 19  1  0
 19 20  2  0
 19 24  1  0
 20 21  1  0
 21 22  2  0
 22 23  1  0
 23 24  2  0
M  END
