
     RDKit          3D

 24 26  0  0  0  0  0  0  0  0999 V2000
   -6.1900    1.1370   -0.5550 C   0  0  0  0  0  0  0  0  0  0  0  0
   -6.3990   -0.3810   -0.4690 C   0  0  2  0  0  0  0  0  0  0  0  0
   -6.2200   -0.8420    0.9460 C   0  0  0  0  0  0  0  0  0  0  0  0
   -5.1920   -1.9430    1.1040 C   0  0  0  0  0  0  0  0  0  0  0  0
   -3.9480   -1.4480    0.4490 C   0  0  0  0  0  0  0  0  0  0  0  0
   -2.6600   -1.3430    0.8170 N   0  0  0  0  0  0  0  0  0  0  0  0
   -1.9240   -0.8150   -0.1780 C   0  0  0  0  0  0  0  0  0  0  0  0
   -0.4890   -0.5370   -0.1880 C   0  0  0  0  0  0  0  0  0  0  0  0
    0.0850   -0.0620   -1.2080 O   0  0  0  0  0  0  0  0  0  0  0  0
    0.2830   -0.8060    0.9770 N   0  0  0  0  0  0  0  0  0  0  0  0
    1.6490   -0.5680    1.0330 N   0  0  0  0  0  0  0  0  0  0  0  0
    2.2190    0.6740    0.6360 C   0  0  0  0  0  0  0  0  0  0  0  0
    1.5200    1.6270    0.2130 O   0  0  0  0  0  0  0  0  0  0  0  0
    3.6800    0.8160    0.7360 C   0  0  0  0  0  0  0  0  0  0  0  0
    4.1510    2.1550    0.2770 C   0  0  0  0  0  0  0  0  0  0  0  0
    5.6780    2.2180    0.4130 C   0  0  0  0  0  0  0  0  0  0  0  0
    6.2880    1.1440   -0.4270 C   0  0  0  0  0  0  0  0  0  0  0  0
    6.6810    1.1510   -1.7210 C   0  0  0  0  0  0  0  0  0  0  0  0
    7.1850   -0.0890   -2.0320 C   0  0  0  0  0  0  0  0  0  0  0  0
    7.0960   -0.8450   -0.9230 N   0  0  0  0  0  0  0  0  0  0  0  0
    6.5520   -0.1170    0.0710 C   0  0  0  0  0  0  0  0  0  0  0  0
   -2.8040   -0.5840   -1.2110 C   0  0  0  0  0  0  0  0  0  0  0  0
   -4.0810   -0.9750   -0.8370 C   0  0  0  0  0  0  0  0  0  0  0  0
   -5.4300   -1.0010   -1.4470 C   0  0  0  0  0  0  0  0  0  0  0  0
  2  1  1  1
  2  3  1  0
  2 24  1  0
  3  4  1  0
  4  5  1  0
  5  6  1  0
  5 23  2  0
  6  7  1  0
  7  8  1  0
  7 22  2  0
  8  9  2  0
  8 10  1  0
 10 11  1  0
 11 12  1  0
 12 13  2  0
 12 14  1  0
 14 15  1  0
 15 16  1  0
 16 17  1  0
 17 18  1  0
 17 21  2  0
 18 19  2  0
 19 20  1  0
 20 21  1  0
 22 23  1  0
 23 24  1  0
M  END
