
     RDKit          3D

 24 25  0  0  0  0  0  0  0  0999 V2000
    5.5880    1.1170   -1.7250 C   0  0  0  0  0  0  0  0  0  0  0  0
    4.1470    0.9350   -1.7560 C   0  0  0  0  0  0  0  0  0  0  0  0
    3.3390    0.5360   -0.8300 C   0  0  0  0  0  0  0  0  0  0  0  0
    3.6150    0.1500    0.5060 C   0  0  0  0  0  0  0  0  0  0  0  0
    2.6100   -0.2100    1.2880 C   0  0  0  0  0  0  0  0  0  0  0  0
    1.2180   -0.3030    1.0670 C   0  0  0  0  0  0  0  0  0  0  0  0
    0.5810   -0.7060    2.1740 O   0  0  0  0  0  0  0  0  0  0  0  0
    0.3030   -0.1060    0.0580 N   0  0  0  0  0  0  0  0  0  0  0  0
   -1.1480   -0.3230    0.2390 C   0  0  0  0  0  0  0  0  0  0  0  0
   -1.8980   -0.0360   -1.0150 C   0  0  1  0  0  0  0  0  0  0  0  0
   -1.6990    1.4150   -1.4620 C   0  0  0  0  0  0  0  0  0  0  0  0
   -1.5330   -0.9030   -2.1770 C   0  0  0  0  0  0  0  0  0  0  0  0
   -3.3550   -0.2630   -0.6990 C   0  0  0  0  0  0  0  0  0  0  0  0
   -3.9650   -1.1280   -1.3460 O   0  0  0  0  0  0  0  0  0  0  0  0
   -4.0150    0.4740    0.2950 N   0  0  0  0  0  0  0  0  0  0  0  0
   -5.3740    0.2660    0.5940 C   0  0  0  0  0  0  0  0  0  0  0  0
   -6.2980   -0.5900    0.0740 C   0  0  0  0  0  0  0  0  0  0  0  0
   -7.5400   -0.4320    0.7010 C   0  0  0  0  0  0  0  0  0  0  0  0
   -7.3310    0.5580    1.6240 C   0  0  0  0  0  0  0  0  0  0  0  0
   -6.0580    0.9630    1.5570 N   0  0  0  0  0  0  0  0  0  0  0  0
    3.1170   -0.5750    2.7000 C   0  0  0  0  0  0  0  0  0  0  0  0
    4.0870   -1.6090    2.6530 N   0  0  0  0  0  0  0  0  0  0  0  0
    5.0780   -1.4090    1.6300 C   0  0  0  0  0  0  0  0  0  0  0  0
    4.9580    0.0630    1.1610 C   0  0  0  0  0  0  0  0  0  0  0  0
  1  2  1  0
  2  3  2  3
  3  4  1  0
  4  5  2  0
  4 24  1  0
  5  6  1  0
  5 21  1  0
  6  7  2  0
  6  8  1  0
  8  9  1  0
  9 10  1  0
 10 11  1  6
 10 12  1  0
 10 13  1  0
 13 14  2  0
 13 15  1  0
 15 16  1  0
 16 17  2  0
 16 20  1  0
 17 18  1  0
 18 19  2  0
 19 20  1  0
 21 22  1  0
 22 23  1  0
 23 24  1  0
M  END
