
     RDKit          3D

 28 31  0  0  0  0  0  0  0  0999 V2000
   -5.6470   -0.4320    1.4320 C   0  0  0  0  0  0  0  0  0  0  0  0
   -5.6630    0.1110   -0.0040 C   0  0  1  0  0  0  0  0  0  0  0  0
   -7.1630    0.3480   -0.2830 C   0  0  0  0  0  0  0  0  0  0  0  0
   -4.9660    1.3580   -0.1120 N   0  0  0  0  0  0  0  0  0  0  0  0
   -5.6080    2.5320   -0.1980 N   0  0  0  0  0  0  0  0  0  0  0  0
   -4.7040    3.5180   -0.2910 C   0  0  0  0  0  0  0  0  0  0  0  0
   -3.5190    2.9260   -0.2600 N   0  0  0  0  0  0  0  0  0  0  0  0
   -3.6490    1.5700   -0.1480 C   0  0  0  0  0  0  0  0  0  0  0  0
   -2.5350    0.6290   -0.0890 C   0  0  0  0  0  0  0  0  0  0  0  0
   -2.5010   -0.7340    0.0250 C   0  0  0  0  0  0  0  0  0  0  0  0
   -1.2120   -1.1940    0.0430 N   0  0  0  0  0  0  0  0  0  0  0  0
   -0.4530   -0.0950   -0.0600 C   0  0  0  0  0  0  0  0  0  0  0  0
   -1.2150    0.9860   -0.1390 N   0  0  0  0  0  0  0  0  0  0  0  0
    1.0290   -0.0730   -0.0850 C   0  0  0  0  0  0  0  0  0  0  0  0
    1.4870    1.1390   -0.5510 C   0  0  0  0  0  0  0  0  0  0  0  0
    2.8450    1.3350   -0.6400 C   0  0  0  0  0  0  0  0  0  0  0  0
    3.7450    0.3270   -0.2660 C   0  0  0  0  0  0  0  0  0  0  0  0
    5.0750    0.5820   -0.3780 O   0  0  0  0  0  0  0  0  0  0  0  0
    6.1740   -0.2050   -0.0900 C   0  0  1  0  0  0  0  0  0  0  0  0
    7.0250   -0.5090   -1.3130 C   0  0  0  0  0  0  0  0  0  0  0  0
    7.0210    0.4790    0.9070 C   0  0  0  0  0  0  0  0  0  0  0  0
    6.6480    1.7390    1.4050 N   0  0  0  0  0  0  0  0  0  0  0  0
    8.0680   -0.0650    1.3030 O   0  0  0  0  0  0  0  0  0  0  0  0
    3.2670   -0.8610    0.1910 C   0  0  0  0  0  0  0  0  0  0  0  0
    1.9100   -1.0660    0.2840 C   0  0  0  0  0  0  0  0  0  0  0  0
    1.5380   -2.3130    0.7630 O   0  0  0  0  0  0  0  0  0  0  0  0
    0.2800   -2.8390    1.1360 C   0  0  0  0  0  0  0  0  0  0  0  0
   -0.8000   -2.5530    0.1490 C   0  0  0  0  0  0  0  0  0  0  0  0
  2  1  1  1
  2  3  1  0
  2  4  1  0
  4  5  1  0
  4  8  1  0
  5  6  2  0
  6  7  1  0
  7  8  2  0
  8  9  1  0
  9 10  2  0
  9 13  1  0
 10 11  1  0
 11 12  1  0
 11 28  1  0
 12 13  2  0
 12 14  1  0
 14 15  2  0
 14 25  1  0
 15 16  1  0
 16 17  2  0
 17 18  1  0
 17 24  1  0
 18 19  1  0
 19 20  1  6
 19 21  1  0
 21 22  1  0
 21 23  2  0
 24 25  2  0
 25 26  1  0
 26 27  1  0
 27 28  1  0
M  END
