
     RDKit          3D

 39 39  0  0  0  0  0  0  0  0999 V2000
   -9.8150   -1.5260   -1.7360 C   0  0  0  0  0  0  0  0  0  0  0  0
   -8.5280   -1.8850   -1.0110 C   0  0  1  0  0  0  0  0  0  0  0  0
   -8.8820   -2.0850    0.4610 C   0  0  0  0  0  0  0  0  0  0  0  0
   -8.0350   -3.2010   -1.5480 C   0  0  0  0  0  0  0  0  0  0  0  0
   -7.6030   -0.8460   -1.0900 O   0  0  0  0  0  0  0  0  0  0  0  0
   -6.3440   -0.9070   -0.5100 C   0  0  0  0  0  0  0  0  0  0  0  0
   -6.0320   -1.9410    0.1050 O   0  0  0  0  0  0  0  0  0  0  0  0
   -5.4130    0.1490   -0.5910 N   0  0  0  0  0  0  0  0  0  0  0  0
   -4.0860    0.1060    0.0130 C   0  0  0  0  0  0  0  0  0  0  0  0
   -3.2400   -1.0010   -0.5220 C   0  0  0  0  0  0  0  0  0  0  0  0
   -1.9420   -1.0540    0.0790 N   0  0  0  0  0  0  0  0  0  0  0  0
   -0.9640   -0.1740   -0.4820 C   0  0  2  0  0  0  0  0  0  0  0  0
   -1.3230    0.2760   -1.8750 C   0  0  0  0  0  0  0  0  0  0  0  0
    0.3750   -0.9100   -0.5310 C   0  0  0  0  0  0  0  0  0  0  0  0
   -0.8150    1.0060    0.3870 C   0  0  0  0  0  0  0  0  0  0  0  0
   -1.3900    1.0300    1.5270 O   0  0  0  0  0  0  0  0  0  0  0  0
   -0.0740    2.1400    0.0540 O   0  0  0  0  0  0  0  0  0  0  0  0
   -0.0160    3.2260    0.9930 C   0  0  0  0  0  0  0  0  0  0  0  0
    0.7980    4.3630    0.4700 C   0  0  0  0  0  0  0  0  0  0  0  0
    2.1150    3.9780    0.2070 O   0  0  0  0  0  0  0  0  0  0  0  0
    2.9330    3.5150    1.2140 C   0  0  0  0  0  0  0  0  0  0  0  0
    2.5400    3.4150    2.3950 O   0  0  0  0  0  0  0  0  0  0  0  0
    4.2830    3.1230    0.9700 N   0  0  0  0  0  0  0  0  0  0  0  0
    5.1110    2.6400    2.0360 C   0  0  2  0  0  0  0  0  0  0  0  0
    6.1990    3.6450    2.3990 C   0  0  0  0  0  0  0  0  0  0  0  0
    6.9810    3.1520    3.4310 O   0  0  0  0  0  0  0  0  0  0  0  0
    5.7670    1.3620    1.5750 C   0  0  2  0  0  0  0  0  0  0  0  0
    6.5600    1.6130    0.4290 O   0  0  0  0  0  0  0  0  0  0  0  0
    4.7170    0.3200    1.2190 C   0  0  1  0  0  0  0  0  0  0  0  0
    3.8880    0.7730    0.2030 O   0  0  0  0  0  0  0  0  0  0  0  0
    5.5170   -0.8700    0.7440 C   0  0  0  0  0  0  0  0  0  0  0  0
    5.4950   -1.4190   -0.4480 C   0  0  0  0  0  0  0  0  0  0  0  0
    6.3480   -2.5440   -0.6690 C   0  0  0  0  0  0  0  0  0  0  0  0
    6.8170   -2.9320   -1.8520 C   0  0  0  0  0  0  0  0  0  0  0  0
    7.6320   -4.0360   -1.9320 O   0  0  0  0  0  0  0  0  0  0  0  0
    6.6950   -3.2850    0.5890 C   0  0  1  0  0  0  0  0  0  0  0  0
    5.4830   -4.4700    1.0480 Cl  0  0  0  0  0  0  0  0  0  0  0  0
    8.3360   -3.9240    0.5510 Cl  0  0  0  0  0  0  0  0  0  0  0  0
    6.6820   -1.8200    1.7140 S   0  0  0  0  0  0  0  0  0  0  0  0
  2  1  1  6
  2  3  1  0
  2  4  1  0
  2  5  1  0
  5  6  1  0
  6  7  2  0
  6  8  1  0
  8  9  1  0
  9 10  1  0
 10 11  1  0
 11 12  1  0
 12 13  1  6
 12 14  1  0
 12 15  1  0
 15 16  2  0
 15 17  1  0
 17 18  1  0
 18 19  1  0
 19 20  1  0
 20 21  1  0
 21 22  2  0
 21 23  1  0
 23 24  1  0
 24 25  1  6
 24 27  1  0
 25 26  1  0
 27 28  1  6
 27 29  1  0
 29 30  1  6
 29 31  1  0
 31 32  2  0
 31 39  1  0
 32 33  1  0
 33 34  2  3
 33 36  1  0
 34 35  1  0
 36 37  1  1
 36 38  1  0
 36 39  1  0
M  CHG  1  11   1
M  END
