
     RDKit          3D

 38 38  0  0  0  0  0  0  0  0999 V2000
   -1.3390    5.3790   -2.4550 C   0  0  0  0  0  0  0  0  0  0  0  0
   -0.0830    5.4580   -1.9260 O   0  0  0  0  0  0  0  0  0  0  0  0
    0.5730    4.2870   -1.8640 C   0  0  0  0  0  0  0  0  0  0  0  0
   -0.0210    3.1830   -1.0240 C   0  0  0  0  0  0  0  0  0  0  0  0
   -1.2630    2.7850   -1.4300 O   0  0  0  0  0  0  0  0  0  0  0  0
   -1.9550    1.9240   -0.6170 C   0  0  0  0  0  0  0  0  0  0  0  0
   -1.3240    0.6390   -0.3810 C   0  0  2  0  0  0  0  0  0  0  0  0
   -2.2410   -0.3020    0.4600 C   0  0  0  0  0  0  0  0  0  0  0  0
   -2.2980    0.0550    1.8090 N   0  0  0  0  0  0  0  0  0  0  0  0
   -3.0690   -0.8480    2.6420 C   0  0  0  0  0  0  0  0  0  0  0  0
   -3.5240   -2.0770    1.9100 C   0  0  0  0  0  0  0  0  0  0  0  0
   -4.3800   -1.8760    0.8530 O   0  0  0  0  0  0  0  0  0  0  0  0
   -5.6590   -1.3990    0.8510 C   0  0  0  0  0  0  0  0  0  0  0  0
   -6.3740   -1.1060    1.9750 C   0  0  0  0  0  0  0  0  0  0  0  0
   -7.6710   -0.6080    1.9630 C   0  0  0  0  0  0  0  0  0  0  0  0
   -8.3990   -0.2940    3.2500 C   0  0  0  0  0  0  0  0  0  0  0  0
   -8.3110   -0.3850    0.7880 C   0  0  0  0  0  0  0  0  0  0  0  0
   -9.9660    0.2230    0.8140 Cl  0  0  0  0  0  0  0  0  0  0  0  0
   -7.6220   -0.6710   -0.3780 C   0  0  0  0  0  0  0  0  0  0  0  0
   -6.3300   -1.1650   -0.3690 C   0  0  0  0  0  0  0  0  0  0  0  0
   -5.6390   -1.4510   -1.5260 O   0  0  0  0  0  0  0  0  0  0  0  0
   -0.0450    0.6180    0.1570 O   0  0  0  0  0  0  0  0  0  0  0  0
    0.8880   -0.3020   -0.3970 C   0  0  0  0  0  0  0  0  0  0  0  0
    0.5760   -1.1110   -1.2870 O   0  0  0  0  0  0  0  0  0  0  0  0
    2.2250   -0.2920    0.0700 N   0  0  0  0  0  0  0  0  0  0  0  0
    3.2590   -1.1770   -0.4190 C   0  0  1  0  0  0  0  0  0  0  0  0
    3.8180   -0.4320   -1.6590 C   0  0  0  0  0  0  0  0  0  0  0  0
    2.7490   -0.3150   -2.5260 O   0  0  0  0  0  0  0  0  0  0  0  0
    4.3290   -1.4610    0.5180 C   0  0  0  0  0  0  0  0  0  0  0  0
    4.1710   -0.9180    1.7140 O   0  0  0  0  0  0  0  0  0  0  0  0
    5.4210   -2.1210    0.4410 O   0  0  0  0  0  0  0  0  0  0  0  0
    6.5480   -2.7580    0.4770 C   0  0  0  0  0  0  0  0  0  0  0  0
    7.7310   -1.8100    0.6370 C   0  0  0  0  0  0  0  0  0  0  0  0
    8.5430   -1.8330    1.5740 C   0  0  0  0  0  0  0  0  0  0  0  0
    9.8940   -0.5880    1.5870 Cl  0  0  0  0  0  0  0  0  0  0  0  0
    7.8210   -0.6170   -0.7230 S   0  0  0  0  0  0  0  0  0  0  0  0
    9.3830   -0.8400   -1.6260 C   0  0  0  0  0  0  0  0  0  0  0  0
    9.2980   -2.1470   -2.2720 N   0  0  0  0  0  0  0  0  0  0  0  0
  1  2  1  0
  2  3  1  0
  3  4  1  0
  4  5  1  0
  5  6  1  0
  7  6  1  1
  7  8  1  0
  7 22  1  0
  8  9  1  0
  9 10  1  0
 10 11  1  0
 11 12  1  0
 12 13  1  0
 13 14  2  0
 13 20  1  0
 14 15  1  0
 15 16  1  0
 15 17  2  0
 17 18  1  0
 17 19  1  0
 19 20  2  0
 20 21  1  0
 22 23  1  0
 23 24  2  0
 23 25  1  0
 25 26  1  0
 26 27  1  6
 26 29  1  0
 27 28  1  0
 29 30  2  0
 29 31  1  0
 31 32  1  0
 32 33  1  0
 33 34  2  3
 33 36  1  0
 34 35  1  0
 36 37  1  0
 37 38  1  0
M  CHG  1   9   1
M  END
