
     RDKit          3D

 39 39  0  0  0  0  0  0  0  0999 V2000
    8.3240    0.9550    3.8080 C   0  0  0  0  0  0  0  0  0  0  0  0
    8.0990    0.7690    2.4410 O   0  0  0  0  0  0  0  0  0  0  0  0
    7.0970   -0.0150    1.9140 C   0  0  0  0  0  0  0  0  0  0  0  0
    6.3150   -0.6200    2.6610 O   0  0  0  0  0  0  0  0  0  0  0  0
    6.9120   -0.1690    0.4250 C   0  0  0  0  0  0  0  0  0  0  0  0
    5.7950   -1.0420    0.1160 C   0  0  0  0  0  0  0  0  0  0  0  0
    5.8330   -2.1360   -0.5540 C   0  0  0  0  0  0  0  0  0  0  0  0
    6.8680   -2.9010   -1.2220 C   0  0  0  0  0  0  0  0  0  0  0  0
    8.5060   -2.3300   -1.1920 Cl  0  0  0  0  0  0  0  0  0  0  0  0
    4.5130   -0.6250    0.6230 O   0  0  0  0  0  0  0  0  0  0  0  0
    3.6970    0.2060   -0.1300 C   0  0  0  0  0  0  0  0  0  0  0  0
    4.1410    0.5680   -1.2560 O   0  0  0  0  0  0  0  0  0  0  0  0
    2.4590    0.6380    0.2920 O   0  0  0  0  0  0  0  0  0  0  0  0
    1.7210    1.4730   -0.5400 C   0  0  0  0  0  0  0  0  0  0  0  0
    0.3690    1.8560    0.0200 C   0  0  2  0  0  0  0  0  0  0  0  0
   -0.2080    2.6760   -0.9450 O   0  0  0  0  0  0  0  0  0  0  0  0
    0.4400    2.6450    1.2810 C   0  0  0  0  0  0  0  0  0  0  0  0
    1.1140    1.9910    2.4330 C   0  0  0  0  0  0  0  0  0  0  0  0
    1.0600    2.9120    3.5060 O   0  0  0  0  0  0  0  0  0  0  0  0
   -0.4740    0.6380    0.1250 C   0  0  0  0  0  0  0  0  0  0  0  0
   -0.0950   -0.1990    0.9850 O   0  0  0  0  0  0  0  0  0  0  0  0
   -1.5980    0.4720   -0.6910 N   0  0  0  0  0  0  0  0  0  0  0  0
   -2.4240   -0.6700   -0.6470 C   0  0  0  0  0  0  0  0  0  0  0  0
   -2.0000   -1.9050   -0.2250 C   0  0  0  0  0  0  0  0  0  0  0  0
   -2.7540   -3.0480   -0.3780 C   0  0  0  0  0  0  0  0  0  0  0  0
   -2.2520   -4.2450    0.0740 O   0  0  0  0  0  0  0  0  0  0  0  0
   -1.0170   -4.4190    0.7030 C   0  0  0  0  0  0  0  0  0  0  0  0
   -3.9790   -2.9970   -0.9720 C   0  0  0  0  0  0  0  0  0  0  0  0
   -4.7910   -4.1550   -1.1520 N   0  0  0  0  0  0  0  0  0  0  0  0
   -4.4410   -1.7360   -1.4160 C   0  0  0  0  0  0  0  0  0  0  0  0
   -5.9340   -1.8750   -2.3480 Cl  0  0  0  0  0  0  0  0  0  0  0  0
   -3.7020   -0.6100   -1.2570 C   0  0  0  0  0  0  0  0  0  0  0  0
   -4.1760    0.7340   -1.6230 C   0  0  2  0  0  0  0  0  0  0  0  0
   -3.8790    1.6280   -0.4630 N   0  0  0  0  0  0  0  0  0  0  0  0
   -5.6120    0.9810   -1.8850 C   0  0  1  0  0  0  0  0  0  0  0  0
   -6.5650    0.8960   -0.7380 C   0  0  0  0  0  0  0  0  0  0  0  0
   -6.5850   -0.2500   -0.0370 O   0  0  0  0  0  0  0  0  0  0  0  0
   -5.8000    2.3720   -2.5020 C   0  0  0  0  0  0  0  0  0  0  0  0
   -5.2910    3.7540   -1.5150 S   0  0  0  0  0  0  0  0  0  0  0  0
  1  2  1  0
  2  3  1  0
  3  4  2  0
  3  5  1  0
  5  6  1  0
  6  7  2  3
  6 10  1  0
  7  8  1  0
  8  9  1  0
 10 11  1  0
 11 12  2  0
 11 13  1  0
 13 14  1  0
 14 15  1  0
 15 16  1  6
 15 17  1  0
 15 20  1  0
 17 18  1  0
 18 19  1  0
 20 21  2  0
 20 22  1  0
 22 23  1  0
 23 24  2  0
 23 32  1  0
 24 25  1  0
 25 26  1  0
 25 28  2  0
 26 27  1  0
 28 29  1  0
 28 30  1  0
 30 31  1  0
 30 32  2  0
 32 33  1  0
 33 34  1  1
 33 35  1  0
 35 36  1  1
 35 38  1  0
 36 37  1  0
 38 39  1  0
M  CHG  1  34   1
M  END
