
     RDKit          3D

 39 42  0  0  0  0  0  0  0  0999 V2000
   -6.9630   -4.5120    1.8300 C   0  0  0  0  0  0  0  0  0  0  0  0
   -6.4590   -4.9160    0.4690 C   0  0  0  0  0  0  0  0  0  0  0  0
   -7.0400   -3.7180   -0.7030 S   0  0  2  0  0  0  0  0  0  0  0  0
   -8.5400   -3.6400   -0.7000 O   0  0  0  0  0  0  0  0  0  0  0  0
   -6.5740   -4.0340   -2.0950 O   0  0  0  0  0  0  0  0  0  0  0  0
   -6.4100   -2.1430   -0.2490 C   0  0  0  0  0  0  0  0  0  0  0  0
   -4.8990   -2.1030   -0.2360 C   0  0  0  0  0  0  0  0  0  0  0  0
   -4.4510   -0.7170    0.1630 C   0  0  1  0  0  0  0  0  0  0  0  0
   -4.9620   -0.4610    1.4350 O   0  0  0  0  0  0  0  0  0  0  0  0
   -2.9450   -0.6220    0.2640 C   0  0  1  0  0  0  0  0  0  0  0  0
   -2.2790   -0.9460   -1.0590 C   0  0  0  0  0  0  0  0  0  0  0  0
   -0.8010   -0.8510   -0.9310 C   0  0  0  0  0  0  0  0  0  0  0  0
   -0.0800    0.2960   -1.1800 C   0  0  0  0  0  0  0  0  0  0  0  0
    1.3130    0.3290   -1.0400 C   0  0  0  0  0  0  0  0  0  0  0  0
    2.0070   -0.7920   -0.6460 C   0  0  0  0  0  0  0  0  0  0  0  0
    3.4730   -0.7510   -0.5020 C   0  0  0  0  0  0  0  0  0  0  0  0
    4.2890    0.2950   -0.7140 N   0  0  0  0  0  0  0  0  0  0  0  0
    5.5530   -0.0330   -0.4860 N   0  0  0  0  0  0  0  0  0  0  0  0
    6.7060    0.7920   -0.5990 C   0  0  0  0  0  0  0  0  0  0  0  0
    6.7560    1.6640   -1.6710 C   0  0  0  0  0  0  0  0  0  0  0  0
    7.8380    2.4770   -1.8270 C   0  0  0  0  0  0  0  0  0  0  0  0
    8.8570    2.3930   -0.8920 C   0  0  0  0  0  0  0  0  0  0  0  0
   10.0480    3.2790   -1.0530 C   0  0  0  0  0  0  0  0  0  0  0  0
    8.8120    1.5280    0.1730 C   0  0  0  0  0  0  0  0  0  0  0  0
    7.7130    0.7080    0.3250 C   0  0  0  0  0  0  0  0  0  0  0  0
    5.5550   -1.3450   -0.1100 C   0  0  0  0  0  0  0  0  0  0  0  0
    6.6070   -1.9740    0.1810 O   0  0  0  0  0  0  0  0  0  0  0  0
    4.2780   -1.7570   -0.1280 N   0  0  0  0  0  0  0  0  0  0  0  0
    1.2890   -1.9370   -0.3980 C   0  0  0  0  0  0  0  0  0  0  0  0
   -0.0810   -1.9850   -0.5310 C   0  0  0  0  0  0  0  0  0  0  0  0
   -2.5890    0.7350    0.7050 C   0  0  0  0  0  0  0  0  0  0  0  0
   -1.8560    0.8990    1.8560 C   0  0  0  0  0  0  0  0  0  0  0  0
   -1.5110    2.1530    2.3000 C   0  0  0  0  0  0  0  0  0  0  0  0
   -1.9000    3.2670    1.5890 C   0  0  0  0  0  0  0  0  0  0  0  0
   -1.4820    4.8870    2.1180 S   0  0  0  0  0  0  0  0  0  0  0  0
    0.0980    5.3360    1.3740 C   0  0  0  0  0  0  0  0  0  0  0  0
   -1.4120    4.9990    3.6340 O   0  0  0  0  0  0  0  0  0  0  0  0
   -2.6450    3.1070    0.4190 C   0  0  0  0  0  0  0  0  0  0  0  0
   -2.9760    1.8410   -0.0020 C   0  0  0  0  0  0  0  0  0  0  0  0
  1  2  1  0
  3  2  1  1
  3  4  2  0
  3  5  2  0
  3  6  1  0
  6  7  1  0
  7  8  1  0
  8  9  1  1
  8 10  1  0
 10 11  1  6
 10 31  1  0
 11 12  1  0
 12 13  2  0
 12 30  1  0
 13 14  1  0
 14 15  2  0
 15 16  1  0
 15 29  1  0
 16 17  2  0
 16 28  1  0
 17 18  1  0
 18 19  1  0
 18 26  1  0
 19 20  2  0
 19 25  1  0
 20 21  1  0
 21 22  2  0
 22 23  1  0
 22 24  1  0
 24 25  2  0
 26 27  2  0
 26 28  1  0
 29 30  2  0
 31 32  2  0
 31 39  1  0
 32 33  1  0
 33 34  2  0
 34 35  1  0
 34 38  1  0
 35 36  1  6
 35 37  2  0
 38 39  2  0
M  END
