
     RDKit          3D

 39 42  0  0  0  0  0  0  0  0999 V2000
   11.2240   -1.1050    1.5350 C   0  0  0  0  0  0  0  0  0  0  0  0
   10.9470   -0.1690    0.5140 O   0  0  0  0  0  0  0  0  0  0  0  0
    9.8270    0.6540    0.6010 C   0  0  0  0  0  0  0  0  0  0  0  0
    9.0910    0.5310    1.6010 O   0  0  0  0  0  0  0  0  0  0  0  0
    9.5520    1.6330   -0.4830 C   0  0  0  0  0  0  0  0  0  0  0  0
    8.3540    2.3840   -0.2390 N   0  0  0  0  0  0  0  0  0  0  0  0
    7.0870    1.7550   -0.1850 C   0  0  0  0  0  0  0  0  0  0  0  0
    6.9190    0.4170   -0.4500 C   0  0  0  0  0  0  0  0  0  0  0  0
    5.7010   -0.2100   -0.3980 C   0  0  0  0  0  0  0  0  0  0  0  0
    4.5780    0.5240   -0.0650 C   0  0  0  0  0  0  0  0  0  0  0  0
    3.2900   -0.1650   -0.0130 C   0  0  0  0  0  0  0  0  0  0  0  0
    2.1720    0.4450    0.2880 C   0  0  0  0  0  0  0  0  0  0  0  0
    0.8630   -0.2520    0.3410 C   0  0  0  0  0  0  0  0  0  0  0  0
   -0.1660    0.4420    0.6440 O   0  0  0  0  0  0  0  0  0  0  0  0
    0.6900   -1.6190    0.0810 N   0  0  0  0  0  0  0  0  0  0  0  0
   -0.5590   -2.3280    0.1320 C   0  0  0  0  0  0  0  0  0  0  0  0
   -1.2350   -2.3610    1.4710 C   0  0  1  0  0  0  0  0  0  0  0  0
   -1.5900   -1.1350    1.9890 O   0  0  0  0  0  0  0  0  0  0  0  0
   -2.4120   -3.3140    1.3620 C   0  0  0  0  0  0  0  0  0  0  0  0
   -3.3190   -2.8470    0.3410 C   0  0  0  0  0  0  0  0  0  0  0  0
   -4.4430   -1.9680    0.4230 C   0  0  0  0  0  0  0  0  0  0  0  0
   -5.1400   -1.6730   -0.6170 C   0  0  0  0  0  0  0  0  0  0  0  0
   -6.3420   -0.7900   -0.6000 C   0  0  0  0  0  0  0  0  0  0  0  0
   -7.5180   -1.3620   -0.9730 N   0  0  0  0  0  0  0  0  0  0  0  0
   -8.6660   -0.6750   -1.0220 C   0  0  0  0  0  0  0  0  0  0  0  0
   -8.6130    0.6520   -0.6770 C   0  0  0  0  0  0  0  0  0  0  0  0
   -7.4200    1.2300   -0.3000 C   0  0  0  0  0  0  0  0  0  0  0  0
   -6.2120    0.5080   -0.2480 C   0  0  0  0  0  0  0  0  0  0  0  0
   -4.9720    1.1880    0.1260 C   0  0  2  0  0  0  0  0  0  0  0  0
   -5.1010    2.5680    0.6660 C   0  0  0  0  0  0  0  0  0  0  0  0
   -5.0320    3.5910   -0.3770 C   0  0  0  0  0  0  0  0  0  0  0  0
   -3.8130    2.9140   -1.5060 S   0  0  0  0  0  0  0  0  0  0  0  0
   -4.1870    3.0630   -2.9480 O   0  0  0  0  0  0  0  0  0  0  0  0
   -3.9140    1.1840   -0.9450 C   0  0  0  0  0  0  0  0  0  0  0  0
   -4.7620   -2.2610   -1.8940 C   0  0  0  0  0  0  0  0  0  0  0  0
   -5.3380   -2.1250   -3.1980 C   0  0  0  0  0  0  0  0  0  0  0  0
   -3.3200   -3.2390   -1.3540 S   0  0  0  0  0  0  0  0  0  0  0  0
    4.7250    1.8590    0.2030 C   0  0  0  0  0  0  0  0  0  0  0  0
    5.9660    2.4830    0.1470 C   0  0  0  0  0  0  0  0  0  0  0  0
  1  2  1  0
  2  3  1  0
  3  4  2  0
  3  5  1  0
  5  6  1  0
  6  7  1  0
  7  8  2  0
  7 39  1  0
  8  9  1  0
  9 10  2  0
 10 11  1  0
 10 38  1  0
 11 12  2  3
 12 13  1  0
 13 14  2  0
 13 15  1  0
 15 16  1  0
 16 17  1  0
 17 18  1  6
 17 19  1  0
 19 20  1  0
 20 21  2  0
 20 37  1  0
 21 22  1  0
 22 23  1  0
 22 35  2  0
 23 24  2  0
 23 28  1  0
 24 25  1  0
 25 26  2  0
 26 27  1  0
 27 28  2  0
 29 28  1  6
 29 30  1  0
 29 34  1  0
 30 31  1  0
 32 31  1  1
 32 33  2  0
 32 34  1  0
 35 36  1  0
 35 37  1  0
 38 39  2  0
M  END
