
     RDKit          3D

 39 43  0  0  0  0  0  0  0  0999 V2000
  -12.1570    0.7980   -1.0850 C   0  0  0  0  0  0  0  0  0  0  0  0
  -11.0640   -0.0660   -0.5510 C   0  0  0  0  0  0  0  0  0  0  0  0
  -11.3350   -1.3400   -0.0930 C   0  0  0  0  0  0  0  0  0  0  0  0
  -10.3270   -2.1550    0.4070 C   0  0  0  0  0  0  0  0  0  0  0  0
  -10.6250   -3.5240    0.8980 C   0  0  0  0  0  0  0  0  0  0  0  0
   -9.0920   -1.6270    0.4140 N   0  0  0  0  0  0  0  0  0  0  0  0
   -8.8080   -0.3890   -0.0270 C   0  0  0  0  0  0  0  0  0  0  0  0
   -7.1200    0.2370    0.0230 S   0  0  0  0  0  0  0  0  0  0  0  0
   -6.3420   -0.2310   -1.5700 C   0  0  0  0  0  0  0  0  0  0  0  0
   -4.9510    0.2830   -1.5470 C   0  0  0  0  0  0  0  0  0  0  0  0
   -4.2170    0.0760   -2.5450 O   0  0  0  0  0  0  0  0  0  0  0  0
   -4.3930    0.9950   -0.4690 N   0  0  0  0  0  0  0  0  0  0  0  0
   -2.9850    1.4560   -0.5770 C   0  0  0  0  0  0  0  0  0  0  0  0
   -2.0670    1.4790   -1.2330 N   0  0  0  0  0  0  0  0  0  0  0  0
   -0.8910    2.0240   -0.9940 C   0  0  0  0  0  0  0  0  0  0  0  0
   -0.7440    2.6430    0.1890 C   0  0  0  0  0  0  0  0  0  0  0  0
    0.4170    3.3360    0.7380 C   0  0  0  0  0  0  0  0  0  0  0  0
    1.2490    2.3680    1.4840 C   0  0  0  0  0  0  0  0  0  0  0  0
    1.0490    2.1040    2.8180 C   0  0  0  0  0  0  0  0  0  0  0  0
    1.8470    1.1890    3.5060 C   0  0  0  0  0  0  0  0  0  0  0  0
    2.8480    0.5470    2.8280 C   0  0  0  0  0  0  0  0  0  0  0  0
    3.0780    0.7900    1.4780 C   0  0  0  0  0  0  0  0  0  0  0  0
    4.0750    0.1600    0.7730 O   0  0  0  0  0  0  0  0  0  0  0  0
    4.2480    0.4560   -0.5950 C   0  0  0  0  0  0  0  0  0  0  0  0
    5.3750   -0.3460   -1.0920 C   0  0  0  0  0  0  0  0  0  0  0  0
    6.6740    0.1050   -1.1460 C   0  0  0  0  0  0  0  0  0  0  0  0
    7.4720   -0.8730   -1.6480 N   0  0  0  0  0  0  0  0  0  0  0  0
    8.8980   -0.7710   -1.8570 C   0  0  0  0  0  0  0  0  0  0  0  0
    9.6800   -1.1950   -0.6790 C   0  0  0  0  0  0  0  0  0  0  0  0
   10.0090   -0.2440    0.2770 C   0  0  0  0  0  0  0  0  0  0  0  0
   10.7370   -0.5980    1.3900 C   0  0  0  0  0  0  0  0  0  0  0  0
   11.1250   -1.9070    1.5240 C   0  0  0  0  0  0  0  0  0  0  0  0
   10.7970   -2.8680    0.5640 C   0  0  0  0  0  0  0  0  0  0  0  0
   10.0670   -2.5100   -0.5490 C   0  0  0  0  0  0  0  0  0  0  0  0
    6.6710   -1.8910   -1.8920 N   0  0  0  0  0  0  0  0  0  0  0  0
    5.4120   -1.6020   -1.5680 N   0  0  0  0  0  0  0  0  0  0  0  0
    2.2650    1.7010    0.8390 C   0  0  0  0  0  0  0  0  0  0  0  0
   -2.3430    2.4120    0.9290 S   0  0  0  0  0  0  0  0  0  0  0  0
   -9.8060    0.4000   -0.5150 N   0  0  0  0  0  0  0  0  0  0  0  0
  1  2  1  0
  2  3  2  0
  2 39  1  0
  3  4  1  0
  4  5  1  0
  4  6  2  0
  6  7  1  0
  7  8  1  0
  7 39  2  0
  8  9  1  0
  9 10  1  0
 10 11  2  0
 10 12  1  0
 12 13  1  0
 13 14  2  0
 13 38  1  0
 14 15  1  0
 15 16  2  0
 16 17  1  0
 16 38  1  0
 17 18  1  0
 18 19  2  0
 18 37  1  0
 19 20  1  0
 20 21  2  0
 21 22  1  0
 22 23  1  0
 22 37  2  0
 23 24  1  0
 24 25  1  0
 25 26  2  0
 25 36  1  0
 26 27  1  0
 27 28  1  0
 27 35  1  0
 28 29  1  0
 29 30  2  0
 29 34  1  0
 30 31  1  0
 31 32  2  0
 32 33  1  0
 33 34  2  0
 35 36  2  0
M  END
