
     RDKit          3D

 39 39  0  0  0  0  0  0  0  0999 V2000
   -3.7430   -4.9080   -0.7650 C   0  0  0  0  0  0  0  0  0  0  0  0
   -3.0110   -4.6140    0.3610 O   0  0  0  0  0  0  0  0  0  0  0  0
   -3.0900   -3.2800    0.6760 C   0  0  0  0  0  0  0  0  0  0  0  0
   -2.5460   -2.4420   -0.4160 C   0  0  2  0  0  0  0  0  0  0  0  0
   -1.2040   -2.8740   -0.5990 O   0  0  0  0  0  0  0  0  0  0  0  0
   -2.4220   -0.9800   -0.0630 C   0  0  1  0  0  0  0  0  0  0  0  0
   -3.6810   -0.3000    0.3200 C   0  0  0  0  0  0  0  0  0  0  0  0
   -4.7410   -0.2830   -0.6910 C   0  0  0  0  0  0  0  0  0  0  0  0
   -4.5330   -0.7970   -1.8200 O   0  0  0  0  0  0  0  0  0  0  0  0
   -6.0210    0.3030   -0.4430 N   0  0  0  0  0  0  0  0  0  0  0  0
   -7.0480    0.2960   -1.4620 C   0  0  0  0  0  0  0  0  0  0  0  0
   -6.3480    0.9260    0.8230 C   0  0  0  0  0  0  0  0  0  0  0  0
   -6.9170   -0.1260    1.7040 C   0  0  0  0  0  0  0  0  0  0  0  0
   -7.2980    0.1390    2.8810 O   0  0  0  0  0  0  0  0  0  0  0  0
   -7.0690   -1.4520    1.3110 O   0  0  0  0  0  0  0  0  0  0  0  0
   -1.3250   -0.7890    0.8840 C   0  0  0  0  0  0  0  0  0  0  0  0
   -0.6620   -1.7860    1.2700 O   0  0  0  0  0  0  0  0  0  0  0  0
   -0.9780    0.4690    1.3850 O   0  0  0  0  0  0  0  0  0  0  0  0
    0.1210    0.4970    2.3130 C   0  0  0  0  0  0  0  0  0  0  0  0
    0.3810    1.8960    2.7540 C   0  0  0  0  0  0  0  0  0  0  0  0
    0.7110    2.7720    1.7650 O   0  0  0  0  0  0  0  0  0  0  0  0
    1.8040    2.8290    0.9470 C   0  0  0  0  0  0  0  0  0  0  0  0
    2.8910    1.9740    0.9920 C   0  0  0  0  0  0  0  0  0  0  0  0
    3.9460    2.1130    0.1160 C   0  0  0  0  0  0  0  0  0  0  0  0
    5.1050    1.1430    0.2360 C   0  0  2  0  0  0  0  0  0  0  0  0
    6.4900    2.0740    0.9360 Cl  0  0  0  0  0  0  0  0  0  0  0  0
    5.5770    0.5940   -1.3890 S   0  0  0  0  0  0  0  0  0  0  0  0
    6.3560   -0.9930   -1.4480 C   0  0  1  0  0  0  0  0  0  0  0  0
    7.6930   -1.1280   -0.8170 C   0  0  0  0  0  0  0  0  0  0  0  0
    7.8000   -0.8910    0.5810 N   0  0  0  0  0  0  0  0  0  0  0  0
    5.3880   -2.0150   -0.8970 C   0  0  0  0  0  0  0  0  0  0  0  0
    4.1690   -2.1760   -1.5770 N   0  0  0  0  0  0  0  0  0  0  0  0
    5.6370   -2.6990    0.1170 O   0  0  0  0  0  0  0  0  0  0  0  0
    3.9190    3.1200   -0.8170 C   0  0  0  0  0  0  0  0  0  0  0  0
    5.2720    3.2720   -1.9150 Cl  0  0  0  0  0  0  0  0  0  0  0  0
    2.8300    3.9990   -0.8820 C   0  0  0  0  0  0  0  0  0  0  0  0
    1.7840    3.8610   -0.0150 C   0  0  0  0  0  0  0  0  0  0  0  0
    0.6930    4.7320   -0.0710 O   0  0  0  0  0  0  0  0  0  0  0  0
    0.6050    5.7800   -0.9940 C   0  0  0  0  0  0  0  0  0  0  0  0
  1  2  1  0
  2  3  1  0
  3  4  1  0
  4  5  1  1
  4  6  1  0
  6  7  1  1
  6 16  1  0
  7  8  1  0
  8  9  2  0
  8 10  1  0
 10 11  1  0
 10 12  1  0
 12 13  1  0
 13 14  2  0
 13 15  1  0
 16 17  2  0
 16 18  1  0
 18 19  1  0
 19 20  1  0
 20 21  1  0
 21 22  1  0
 22 23  2  0
 22 37  1  0
 23 24  1  0
 24 25  1  0
 24 34  2  0
 25 26  1  6
 25 27  1  0
 27 28  1  0
 28 29  1  1
 28 31  1  0
 29 30  1  0
 31 32  1  0
 31 33  2  0
 34 35  1  0
 34 36  1  0
 36 37  2  0
 37 38  1  0
 38 39  1  0
M  CHG  1  30   1
M  END
