
     RDKit          3D

 39 42  0  0  0  0  0  0  0  0999 V2000
    5.6410   -2.6440    1.5850 C   0  0  0  0  0  0  0  0  0  0  0  0
    6.2280   -1.7420    0.7650 C   0  0  0  0  0  0  0  0  0  0  0  0
    7.1580   -0.7840    1.3080 C   0  0  0  0  0  0  0  0  0  0  0  0
    7.8330    0.1770    0.7780 C   0  0  0  0  0  0  0  0  0  0  0  0
    7.9210    0.6790   -0.5850 C   0  0  0  0  0  0  0  0  0  0  0  0
    5.8390   -1.8530   -0.9110 S   0  0  2  0  0  0  0  0  0  0  0  0
    5.2190   -3.2570   -1.1140 O   0  0  0  0  0  0  0  0  0  0  0  0
    7.0090   -1.8320   -1.8050 O   0  0  0  0  0  0  0  0  0  0  0  0
    4.6050   -0.7080   -1.3140 N   0  0  0  0  0  0  0  0  0  0  0  0
    3.3870   -0.9750   -0.5770 C   0  0  0  0  0  0  0  0  0  0  0  0
    2.3720    0.0840   -1.0030 C   0  0  1  0  0  0  0  0  0  0  0  0
    1.1650   -0.1020   -0.3360 O   0  0  0  0  0  0  0  0  0  0  0  0
   -0.0430   -0.3950   -0.8940 C   0  0  0  0  0  0  0  0  0  0  0  0
   -0.2490   -0.5570   -2.2440 C   0  0  0  0  0  0  0  0  0  0  0  0
   -1.5130   -0.8520   -2.7010 C   0  0  0  0  0  0  0  0  0  0  0  0
   -2.5760   -0.9900   -1.8430 C   0  0  0  0  0  0  0  0  0  0  0  0
   -2.4100   -0.8340   -0.4750 C   0  0  0  0  0  0  0  0  0  0  0  0
   -1.1480   -0.5410   -0.0340 C   0  0  0  0  0  0  0  0  0  0  0  0
   -1.2530   -0.4320    1.4410 C   0  0  0  0  0  0  0  0  0  0  0  0
   -2.5930   -0.1760    1.6530 O   0  0  0  0  0  0  0  0  0  0  0  0
   -3.3080   -0.8880    0.6930 C   0  0  2  0  0  0  0  0  0  0  0  0
   -3.6550   -2.2570    1.1360 C   0  0  0  0  0  0  0  0  0  0  0  0
   -2.5880   -3.1320    1.4720 N   0  0  0  0  0  0  0  0  0  0  0  0
   -1.7630   -3.6320    0.4380 C   0  0  0  0  0  0  0  0  0  0  0  0
   -4.5050   -0.1320    0.3020 N   0  0  0  0  0  0  0  0  0  0  0  0
   -5.4150    0.1780    1.1450 C   0  0  0  0  0  0  0  0  0  0  0  0
   -6.6250    0.9540    0.7070 C   0  0  0  0  0  0  0  0  0  0  0  0
   -6.8710    1.3830   -0.5450 C   0  0  0  0  0  0  0  0  0  0  0  0
   -7.9750    2.0620   -0.8280 C   0  0  0  0  0  0  0  0  0  0  0  0
   -8.4970    2.6480   -2.0930 C   0  0  0  0  0  0  0  0  0  0  0  0
   -8.8170    2.1580    0.7560 S   0  0  0  0  0  0  0  0  0  0  0  0
   -7.5960    1.2700    1.6560 C   0  0  0  0  0  0  0  0  0  0  0  0
   -7.6280    0.9450    3.1210 C   0  0  0  0  0  0  0  0  0  0  0  0
    2.9830    1.4200   -0.6880 C   0  0  0  0  0  0  0  0  0  0  0  0
    3.5270    2.2620   -1.6320 C   0  0  0  0  0  0  0  0  0  0  0  0
    3.9670    3.3680   -0.8980 C   0  0  0  0  0  0  0  0  0  0  0  0
    3.6700    3.1390    0.4290 C   0  0  0  0  0  0  0  0  0  0  0  0
    3.9550    4.0520    1.5890 C   0  0  0  0  0  0  0  0  0  0  0  0
    3.0840    1.9610    0.4860 O   0  0  0  0  0  0  0  0  0  0  0  0
  1  2  2  0
  2  3  1  0
  2  6  1  0
  3  4  2  3
  4  5  1  0
  6  7  2  0
  6  8  2  0
  6  9  1  6
  9 10  1  0
 11 10  1  1
 11 12  1  0
 11 34  1  0
 12 13  1  0
 13 14  2  0
 13 18  1  0
 14 15  1  0
 15 16  2  0
 16 17  1  0
 17 18  2  0
 17 21  1  0
 18 19  1  0
 19 20  1  0
 20 21  1  0
 21 22  1  1
 21 25  1  0
 22 23  1  0
 23 24  1  0
 25 26  2  3
 26 27  1  0
 27 28  1  0
 27 32  2  0
 28 29  2  0
 29 30  1  0
 29 31  1  0
 31 32  1  0
 32 33  1  0
 34 35  2  0
 34 39  1  0
 35 36  1  0
 36 37  2  0
 37 38  1  0
 37 39  1  0
M  END
