
     RDKit          3D

 39 42  0  0  0  0  0  0  0  0999 V2000
    4.7690   -3.9560   -2.8640 C   0  0  0  0  0  0  0  0  0  0  0  0
    5.0550   -2.5880   -2.3370 C   0  0  0  0  0  0  0  0  0  0  0  0
    5.9650   -1.7680   -2.9720 C   0  0  0  0  0  0  0  0  0  0  0  0
    6.2210   -0.5110   -2.4850 C   0  0  0  0  0  0  0  0  0  0  0  0
    5.5690   -0.1020   -1.3840 N   0  0  0  0  0  0  0  0  0  0  0  0
    4.6740   -0.8630   -0.7300 C   0  0  0  0  0  0  0  0  0  0  0  0
    3.8230   -0.2630    0.7480 S   0  0  0  0  0  0  0  0  0  0  0  0
    2.3230    0.5290    0.2190 C   0  0  0  0  0  0  0  0  0  0  0  0
    1.4760    1.0640    1.1080 C   0  0  0  0  0  0  0  0  0  0  0  0
    1.8510    0.9580    2.5390 C   0  0  0  0  0  0  0  0  0  0  0  0
    1.9230    2.3750    3.0760 C   0  0  0  0  0  0  0  0  0  0  0  0
    2.3050    2.4250    4.5410 C   0  0  0  0  0  0  0  0  0  0  0  0
    2.3450    3.7510    4.9400 O   0  0  0  0  0  0  0  0  0  0  0  0
    0.3310    1.7100    0.6030 N   0  0  0  0  0  0  0  0  0  0  0  0
   -0.4070    1.3390   -0.5790 C   0  0  2  0  0  0  0  0  0  0  0  0
   -1.2680    2.5080   -1.0720 C   0  0  0  0  0  0  0  0  0  0  0  0
   -1.1060    0.0870   -0.5780 C   0  0  0  0  0  0  0  0  0  0  0  0
   -1.7430   -0.5020    0.3850 C   0  0  0  0  0  0  0  0  0  0  0  0
   -2.0960   -0.2790    1.7640 C   0  0  0  0  0  0  0  0  0  0  0  0
   -2.7240   -1.2590    2.4130 C   0  0  0  0  0  0  0  0  0  0  0  0
   -3.2050   -1.3480    3.7870 C   0  0  0  0  0  0  0  0  0  0  0  0
   -2.8150    0.1700    4.6630 S   0  0  0  0  0  0  0  0  0  0  0  0
   -1.3180    0.1250    4.9860 O   0  0  0  0  0  0  0  0  0  0  0  0
   -3.0060    1.4410    3.3750 C   0  0  0  0  0  0  0  0  0  0  0  0
   -1.8950    1.0530    2.3620 C   0  0  0  0  0  0  0  0  0  0  0  0
   -1.5090   -0.5170   -1.9150 C   0  0  0  0  0  0  0  0  0  0  0  0
   -0.7430   -0.6420   -2.9950 C   0  0  0  0  0  0  0  0  0  0  0  0
   -1.2360   -1.0700   -4.2460 C   0  0  0  0  0  0  0  0  0  0  0  0
   -2.5670   -1.3780   -4.3700 C   0  0  0  0  0  0  0  0  0  0  0  0
   -3.3940   -1.2650   -3.2800 C   0  0  0  0  0  0  0  0  0  0  0  0
   -2.8750   -0.8430   -2.0770 C   0  0  0  0  0  0  0  0  0  0  0  0
   -3.7190   -0.7330   -1.0140 O   0  0  0  0  0  0  0  0  0  0  0  0
   -5.0830   -0.9950   -0.9580 C   0  0  0  0  0  0  0  0  0  0  0  0
   -5.8030   -0.1120   -1.9050 C   0  0  0  0  0  0  0  0  0  0  0  0
   -7.0240   -0.1730   -1.9850 O   0  0  0  0  0  0  0  0  0  0  0  0
    0.7360    1.2540   -1.5760 N   0  0  0  0  0  0  0  0  0  0  0  0
    1.9450    0.6260   -1.1810 C   0  0  0  0  0  0  0  0  0  0  0  0
    2.7520    0.1240   -2.0330 O   0  0  0  0  0  0  0  0  0  0  0  0
    4.4070   -2.1330   -1.2110 C   0  0  0  0  0  0  0  0  0  0  0  0
  1  2  1  0
  2  3  2  0
  2 39  1  0
  3  4  1  0
  4  5  2  0
  5  6  1  0
  6  7  1  0
  6 39  2  0
  7  8  1  0
  8  9  2  0
  8 37  1  0
  9 10  1  0
  9 14  1  0
 10 11  1  0
 11 12  1  0
 12 13  1  0
 14 15  1  0
 15 16  1  6
 15 17  1  0
 15 36  1  0
 17 18  2  3
 17 26  1  0
 18 19  1  0
 19 20  2  0
 19 25  1  0
 20 21  1  0
 22 21  1  6
 22 23  2  0
 22 24  1  0
 24 25  1  0
 26 27  2  0
 26 31  1  0
 27 28  1  0
 28 29  2  0
 29 30  1  0
 30 31  2  0
 31 32  1  0
 32 33  1  0
 33 34  1  0
 34 35  2  0
 36 37  1  0
 37 38  2  0
M  END
