
     RDKit          3D

 25 27  0  0  0  0  0  0  0  0999 V2000
   -4.2970    0.5380    1.2490 C   0  0  0  0  0  0  0  0  0  0  0  0
   -4.1740   -0.9250    0.9760 C   0  0  0  0  0  0  0  0  0  0  0  0
   -2.7590   -1.4420    0.9550 C   0  0  0  0  0  0  0  0  0  0  0  0
   -1.9120   -0.7990   -0.0690 C   0  0  0  0  0  0  0  0  0  0  0  0
   -2.1350   -1.1850   -1.3850 C   0  0  0  0  0  0  0  0  0  0  0  0
   -3.1630   -2.1800   -1.7840 C   0  0  0  0  0  0  0  0  0  0  0  0
   -1.3730   -0.6240   -2.3700 C   0  0  0  0  0  0  0  0  0  0  0  0
   -0.3970    0.3130   -2.0470 C   0  0  0  0  0  0  0  0  0  0  0  0
   -0.1580    0.7100   -0.7540 C   0  0  0  0  0  0  0  0  0  0  0  0
   -0.9300    0.1400    0.2280 C   0  0  0  0  0  0  0  0  0  0  0  0
   -0.7220    0.5150    1.6170 C   0  0  0  0  0  0  0  0  0  0  0  0
    0.9080    1.6790   -0.7400 C   0  0  1  0  0  0  0  0  0  0  0  0
    0.4530    2.9620   -0.3100 O   0  0  0  0  0  0  0  0  0  0  0  0
    2.1180    1.2990   -0.0000 C   0  0  0  0  0  0  0  0  0  0  0  0
    2.6590    2.1740    0.9110 C   0  0  0  0  0  0  0  0  0  0  0  0
    3.8130    1.8360    1.6320 C   0  0  0  0  0  0  0  0  0  0  0  0
    4.3570    2.7270    2.5550 O   0  0  0  0  0  0  0  0  0  0  0  0
    4.4080    0.6150    1.4220 C   0  0  0  0  0  0  0  0  0  0  0  0
    3.8710   -0.2670    0.5100 C   0  0  0  0  0  0  0  0  0  0  0  0
    4.4920   -1.4960    0.3160 O   0  0  0  0  0  0  0  0  0  0  0  0
    3.9230   -2.3810   -0.6230 C   0  0  0  0  0  0  0  0  0  0  0  0
    2.7360    0.0940   -0.1820 C   0  0  0  0  0  0  0  0  0  0  0  0
    1.2830    1.8620   -2.0740 O   0  0  0  0  0  0  0  0  0  0  0  0
    0.5280    1.0540   -2.8780 C   0  0  0  0  0  0  0  0  0  0  0  0
    0.5790    0.9280   -4.1420 O   0  0  0  0  0  0  0  0  0  0  0  0
  1  2  1  0
  2  3  1  0
  3  4  1  0
  4  5  2  0
  4 10  1  0
  5  6  1  0
  5  7  1  0
  7  8  2  0
  8  9  1  0
  8 24  1  0
  9 10  2  0
  9 12  1  0
 10 11  1  0
 12 13  1  1
 12 14  1  0
 12 23  1  0
 14 15  2  0
 14 22  1  0
 15 16  1  0
 16 17  1  0
 16 18  2  0
 18 19  1  0
 19 20  1  0
 19 22  2  0
 20 21  1  0
 23 24  1  0
 24 25  2  0
M  END
