
     RDKit          3D

 25 28  0  0  0  0  0  0  0  0999 V2000
    1.0030   -1.3260    0.9780 O   0  0  0  0  0  0  0  0  0  0  0  0
    1.6870   -0.6160    0.2060 C   0  0  0  0  0  0  0  0  0  0  0  0
    1.0500    0.0010   -0.8700 O   0  0  0  0  0  0  0  0  0  0  0  0
   -0.3250   -0.2070   -1.0280 C   0  0  0  0  0  0  0  0  0  0  0  0
   -0.7900   -1.2620   -1.7840 C   0  0  0  0  0  0  0  0  0  0  0  0
   -2.1260   -1.5220   -1.9780 C   0  0  0  0  0  0  0  0  0  0  0  0
   -3.0460   -0.6640   -1.3730 C   0  0  0  0  0  0  0  0  0  0  0  0
   -2.6310    0.4050   -0.6070 C   0  0  0  0  0  0  0  0  0  0  0  0
   -1.2670    0.6040   -0.4560 C   0  0  0  0  0  0  0  0  0  0  0  0
   -3.4370    1.4180    0.1090 C   0  0  2  0  0  0  0  0  0  0  0  0
   -2.5630    2.2280    0.8340 O   0  0  0  0  0  0  0  0  0  0  0  0
   -4.3550    0.7650    1.1350 C   0  0  1  0  0  0  0  0  0  0  0  0
   -5.4050    1.6110    1.4600 O   0  0  0  0  0  0  0  0  0  0  0  0
   -4.9400   -0.5220    0.5960 C   0  0  0  0  0  0  0  0  0  0  0  0
   -5.3890   -0.3450   -0.8540 C   0  0  0  0  0  0  0  0  0  0  0  0
   -4.4220   -1.1270   -1.7130 C   0  0  0  0  0  0  0  0  0  0  0  0
    3.1040   -0.4510    0.4380 C   0  0  0  0  0  0  0  0  0  0  0  0
    3.6970   -1.0760    1.5110 C   0  0  0  0  0  0  0  0  0  0  0  0
    5.0520   -0.9490    1.7760 C   0  0  0  0  0  0  0  0  0  0  0  0
    5.8190   -0.1670    0.9290 C   0  0  0  0  0  0  0  0  0  0  0  0
    5.2130    0.4550   -0.1430 C   0  0  0  0  0  0  0  0  0  0  0  0
    3.8610    0.3200   -0.3970 C   0  0  0  0  0  0  0  0  0  0  0  0
    6.2830    1.2200   -0.8670 C   0  0  0  0  0  0  0  0  0  0  0  0
    7.5270    0.4550   -0.4350 C   0  0  0  0  0  0  0  0  0  0  0  0
    7.1860    0.1560    0.9240 O   0  0  0  0  0  0  0  0  0  0  0  0
  1  2  2  0
  2  3  1  0
  2 17  1  0
  3  4  1  0
  4  5  2  0
  4  9  1  0
  5  6  1  0
  6  7  2  0
  7  8  1  0
  7 16  1  0
  8  9  2  0
  8 10  1  0
 10 11  1  1
 10 12  1  0
 12 13  1  6
 12 14  1  0
 14 15  1  0
 15 16  1  0
 17 18  2  0
 17 22  1  0
 18 19  1  0
 19 20  2  0
 20 21  1  0
 20 25  1  0
 21 22  2  0
 21 23  1  0
 23 24  1  0
 24 25  1  0
M  END
