
     RDKit          3D

 24 27  0  0  0  0  0  0  0  0999 V2000
    1.0070   -0.2860    1.3130 O   0  0  0  0  0  0  0  0  0  0  0  0
    0.5250   -0.4510    0.1750 C   0  0  0  0  0  0  0  0  0  0  0  0
    1.4040   -0.6200   -0.8820 O   0  0  0  0  0  0  0  0  0  0  0  0
    2.7720   -0.6000   -0.6400 C   0  0  0  0  0  0  0  0  0  0  0  0
    3.4960   -1.7210   -0.3400 C   0  0  0  0  0  0  0  0  0  0  0  0
    4.8540   -1.5960   -0.1160 C   0  0  0  0  0  0  0  0  0  0  0  0
    5.5090   -0.3830   -0.1830 C   0  0  0  0  0  0  0  0  0  0  0  0
    4.7770    0.7550   -0.4870 C   0  0  0  0  0  0  0  0  0  0  0  0
    3.4070    0.6180   -0.7120 C   0  0  0  0  0  0  0  0  0  0  0  0
    5.6480    1.8370   -0.4960 O   0  0  0  0  0  0  0  0  0  0  0  0
    6.8140    1.5070    0.2360 C   0  0  0  0  0  0  0  0  0  0  0  0
    6.9280    0.0210    0.0100 C   0  0  0  0  0  0  0  0  0  0  0  0
   -0.9020   -0.4750   -0.1000 C   0  0  0  0  0  0  0  0  0  0  0  0
   -1.3590   -0.6620   -1.3840 C   0  0  0  0  0  0  0  0  0  0  0  0
   -2.7300   -0.6800   -1.6180 C   0  0  0  0  0  0  0  0  0  0  0  0
   -3.6130   -0.5110   -0.5550 C   0  0  0  0  0  0  0  0  0  0  0  0
   -3.1620   -0.3210    0.7440 C   0  0  0  0  0  0  0  0  0  0  0  0
   -1.8000   -0.3060    0.9540 C   0  0  0  0  0  0  0  0  0  0  0  0
   -4.1750   -0.1460    1.8190 C   0  0  1  0  0  0  0  0  0  0  0  0
   -3.5930    0.4180    2.9680 O   0  0  0  0  0  0  0  0  0  0  0  0
   -5.1310    0.9220    1.2850 C   0  0  1  0  0  0  0  0  0  0  0  0
   -4.3390    2.0800    1.1370 O   0  0  0  0  0  0  0  0  0  0  0  0
   -5.7550    0.5560   -0.0190 C   0  0  0  0  0  0  0  0  0  0  0  0
   -5.0690   -0.5290   -0.7800 C   0  0  0  0  0  0  0  0  0  0  0  0
  1  2  2  0
  2  3  1  0
  2 13  1  0
  3  4  1  0
  4  5  2  0
  4  9  1  0
  5  6  1  0
  6  7  2  0
  7  8  1  0
  7 12  1  0
  8  9  2  0
  8 10  1  0
 10 11  1  0
 11 12  1  0
 13 14  2  0
 13 18  1  0
 14 15  1  0
 15 16  2  0
 16 17  1  0
 16 24  1  0
 17 18  2  0
 17 19  1  0
 19 20  1  1
 19 21  1  0
 21 22  1  6
 21 23  1  0
 23 24  1  0
M  END
