
     RDKit          3D

 25 28  0  0  0  0  0  0  0  0999 V2000
   -2.6970    1.4220    2.2440 O   0  0  0  0  0  0  0  0  0  0  0  0
   -1.8600    0.9110    1.4760 C   0  0  0  0  0  0  0  0  0  0  0  0
   -0.5580    0.7690    1.8880 O   0  0  0  0  0  0  0  0  0  0  0  0
   -2.2560    0.4720    0.1640 C   0  0  0  0  0  0  0  0  0  0  0  0
   -3.5880    0.6190   -0.2510 C   0  0  0  0  0  0  0  0  0  0  0  0
   -3.9220    0.1830   -1.5180 C   0  0  0  0  0  0  0  0  0  0  0  0
   -2.9700   -0.3820   -2.3530 C   0  0  0  0  0  0  0  0  0  0  0  0
   -1.6490   -0.5280   -1.9420 C   0  0  0  0  0  0  0  0  0  0  0  0
   -1.3230   -0.0910   -0.6760 C   0  0  0  0  0  0  0  0  0  0  0  0
    0.0360   -0.2230   -0.2090 C   0  0  0  0  0  0  0  0  0  0  0  0
    0.3890   -1.3870    0.4510 C   0  0  0  0  0  0  0  0  0  0  0  0
   -0.5120   -2.4050    0.6710 C   0  0  0  0  0  0  0  0  0  0  0  0
   -0.1570   -3.5740    1.3340 C   0  0  0  0  0  0  0  0  0  0  0  0
    1.1390   -3.6760    1.7660 C   0  0  0  0  0  0  0  0  0  0  0  0
    1.4480   -4.7520    2.3720 O   0  0  0  0  0  0  0  0  0  0  0  0
    2.0910   -2.6850    1.5750 C   0  0  0  0  0  0  0  0  0  0  0  0
    1.7590   -1.5140    0.9170 C   0  0  0  0  0  0  0  0  0  0  0  0
    2.6040   -0.5420    0.7020 O   0  0  0  0  0  0  0  0  0  0  0  0
    2.2810    0.5670    0.0780 C   0  0  0  0  0  0  0  0  0  0  0  0
    3.2320    1.5750   -0.1230 C   0  0  0  0  0  0  0  0  0  0  0  0
    2.9010    2.7400   -0.7770 C   0  0  0  0  0  0  0  0  0  0  0  0
    3.8680    3.7210   -0.9600 O   0  0  0  0  0  0  0  0  0  0  0  0
    1.6090    2.9020   -1.2370 C   0  0  0  0  0  0  0  0  0  0  0  0
    0.6730    1.9080   -1.0390 C   0  0  0  0  0  0  0  0  0  0  0  0
    1.0120    0.7370   -0.3790 C   0  0  0  0  0  0  0  0  0  0  0  0
  1  2  2  0
  2  3  1  0
  2  4  1  0
  4  5  2  0
  4  9  1  0
  5  6  1  0
  6  7  2  0
  7  8  1  0
  8  9  2  0
  9 10  1  0
 10 11  2  0
 10 25  1  0
 11 12  1  0
 11 17  1  0
 12 13  2  0
 13 14  1  0
 14 15  2  0
 14 16  1  0
 16 17  2  0
 17 18  1  0
 18 19  1  0
 19 20  2  0
 19 25  1  0
 20 21  1  0
 21 22  1  0
 21 23  2  0
 23 24  1  0
 24 25  2  0
M  END
