
     RDKit          3D

 25 27  0  0  0  0  0  0  0  0999 V2000
   -0.8280   -4.9610    0.2720 C   0  0  0  0  0  0  0  0  0  0  0  0
   -1.7720   -3.9400   -0.4360 C   0  0  0  0  0  0  0  0  0  0  0  0
   -1.1170   -2.6520   -0.5280 C   0  0  0  0  0  0  0  0  0  0  0  0
   -1.5390   -1.4800   -0.1330 C   0  0  0  0  0  0  0  0  0  0  0  0
   -2.8620   -1.2830    0.5070 C   0  0  0  0  0  0  0  0  0  0  0  0
   -3.2370   -0.0960    0.9340 C   0  0  0  0  0  0  0  0  0  0  0  0
   -4.6170   -0.1620    1.5480 C   0  0  0  0  0  0  0  0  0  0  0  0
   -5.1060   -1.3390    1.0540 O   0  0  0  0  0  0  0  0  0  0  0  0
   -4.0130   -2.1700    0.7710 C   0  0  0  0  0  0  0  0  0  0  0  0
   -2.3390    1.0360    0.7540 C   0  0  0  0  0  0  0  0  0  0  0  0
   -2.7220    2.1580    1.1640 O   0  0  0  0  0  0  0  0  0  0  0  0
   -1.0140    0.9130    0.1170 C   0  0  0  0  0  0  0  0  0  0  0  0
   -0.3690    2.1640   -0.3570 C   0  0  0  0  0  0  0  0  0  0  0  0
   -0.6360    3.3650    0.1160 C   0  0  0  0  0  0  0  0  0  0  0  0
    0.1960    4.3930   -0.6180 C   0  0  0  0  0  0  0  0  0  0  0  0
    0.9130    3.6020   -1.6270 C   0  0  0  0  0  0  0  0  0  0  0  0
    0.5710    2.3300   -1.4400 C   0  0  0  0  0  0  0  0  0  0  0  0
   -0.6510   -0.2890   -0.2850 C   0  0  0  0  0  0  0  0  0  0  0  0
    0.8040   -0.4910   -0.5190 C   0  0  0  0  0  0  0  0  0  0  0  0
    1.2850   -1.4980   -1.0140 O   0  0  0  0  0  0  0  0  0  0  0  0
    1.7410    0.4960   -0.1450 O   0  0  0  0  0  0  0  0  0  0  0  0
    3.1060    0.2700   -0.3560 C   0  0  0  0  0  0  0  0  0  0  0  0
    3.9590    1.4210    0.0980 C   0  0  0  0  0  0  0  0  0  0  0  0
    5.4020    1.0940   -0.1660 C   0  0  0  0  0  0  0  0  0  0  0  0
    6.2570    2.1180    0.2310 O   0  0  0  0  0  0  0  0  0  0  0  0
  1  2  1  0
  2  3  1  0
  3  4  2  3
  4  5  1  0
  4 18  1  0
  5  6  2  0
  5  9  1  0
  6  7  1  0
  6 10  1  0
  7  8  1  0
  8  9  1  0
 10 11  2  0
 10 12  1  0
 12 13  1  0
 12 18  2  0
 13 14  2  0
 13 17  1  0
 14 15  1  0
 15 16  1  0
 16 17  2  0
 18 19  1  0
 19 20  2  0
 19 21  1  0
 21 22  1  0
 22 23  1  0
 23 24  1  0
 24 25  1  0
M  END
