
     RDKit          3D

 25 28  0  0  0  0  0  0  0  0999 V2000
    7.2870   -3.0290   -0.1570 O   0  0  0  0  0  0  0  0  0  0  0  0
    6.8470   -1.7380   -0.4140 C   0  0  0  0  0  0  0  0  0  0  0  0
    7.6370   -0.8760   -1.1630 C   0  0  0  0  0  0  0  0  0  0  0  0
    7.1650    0.4030   -1.3980 C   0  0  0  0  0  0  0  0  0  0  0  0
    5.9460    0.8230   -0.9090 C   0  0  0  0  0  0  0  0  0  0  0  0
    5.1500   -0.0210   -0.1640 C   0  0  0  0  0  0  0  0  0  0  0  0
    3.8400    0.4060    0.3710 C   0  0  0  0  0  0  0  0  0  0  0  0
    2.8100    0.1300   -0.5530 O   0  0  0  0  0  0  0  0  0  0  0  0
    1.4770    0.4380   -0.2870 C   0  0  0  0  0  0  0  0  0  0  0  0
    1.1180    1.0310    0.9060 C   0  0  0  0  0  0  0  0  0  0  0  0
   -0.2080    1.3340    1.1630 C   0  0  0  0  0  0  0  0  0  0  0  0
   -0.5840    1.9250    2.3460 O   0  0  0  0  0  0  0  0  0  0  0  0
   -1.2110    1.0520    0.2350 C   0  0  0  0  0  0  0  0  0  0  0  0
   -0.8500    0.4610   -0.9520 C   0  0  0  0  0  0  0  0  0  0  0  0
    0.4700    0.1690   -1.1880 C   0  0  0  0  0  0  0  0  0  0  0  0
   -2.0480    0.3020   -1.6710 O   0  0  0  0  0  0  0  0  0  0  0  0
   -3.1090    0.3660   -0.7380 C   0  0  1  0  0  0  0  0  0  0  0  0
   -4.3410    1.0290   -1.3070 C   0  0  0  0  0  0  0  0  0  0  0  0
   -5.2390    1.3800   -0.1460 C   0  0  0  0  0  0  0  0  0  0  0  0
   -5.8530    0.1820    0.5070 C   0  0  0  0  0  0  0  0  0  0  0  0
   -5.9040   -1.0280   -0.3700 C   0  0  0  0  0  0  0  0  0  0  0  0
   -4.5930   -1.6590   -0.6500 C   0  0  0  0  0  0  0  0  0  0  0  0
   -3.4100   -0.9410   -0.0830 C   0  0  0  0  0  0  0  0  0  0  0  0
   -2.5740    1.2440    0.2360 O   0  0  0  0  0  0  0  0  0  0  0  0
    5.6280   -1.2990    0.0680 C   0  0  0  0  0  0  0  0  0  0  0  0
  1  2  1  0
  2  3  2  0
  2 25  1  0
  3  4  1  0
  4  5  2  0
  5  6  1  0
  6  7  1  0
  6 25  2  0
  7  8  1  0
  8  9  1  0
  9 10  2  0
  9 15  1  0
 10 11  1  0
 11 12  1  0
 11 13  2  0
 13 14  1  0
 13 24  1  0
 14 15  2  0
 14 16  1  0
 16 17  1  0
 17 18  1  6
 17 23  1  0
 17 24  1  0
 18 19  1  0
 19 20  1  0
 20 21  1  0
 21 22  1  0
 22 23  1  0
M  END
