
     RDKit          3D

 14 14  0  0  0  0  0  0  0  0999 V2000
    3.1670   -1.4660   -0.3400 C   0  0  0  0  0  0  0  0  0  0  0  0
    2.6420   -0.1760   -0.4250 O   0  0  0  0  0  0  0  0  0  0  0  0
    1.4490    0.2700    0.0170 C   0  0  0  0  0  0  0  0  0  0  0  0
    1.3800    1.1920    0.9560 C   0  0  0  0  0  0  0  0  0  0  0  0
    2.5420    1.7060    1.4930 O   0  0  0  0  0  0  0  0  0  0  0  0
    0.0890    1.7140    1.4750 C   0  0  0  0  0  0  0  0  0  0  0  0
   -1.0250    1.1220    0.8600 O   0  0  0  0  0  0  0  0  0  0  0  0
   -0.9810    0.1560   -0.1250 C   0  0  0  0  0  0  0  0  0  0  0  0
   -2.2050   -0.3920   -0.6970 C   0  0  0  0  0  0  0  0  0  0  0  0
   -2.1530   -1.3850   -1.7090 N   0  0  0  0  0  0  0  0  0  0  0  0
   -3.3510    0.0130   -0.2970 N   0  0  0  0  0  0  0  0  0  0  0  0
   -3.4070    0.9670    0.6750 O   0  0  0  0  0  0  0  0  0  0  0  0
    0.2220   -0.2620   -0.5380 C   0  0  0  0  0  0  0  0  0  0  0  0
    0.3460   -1.4810   -1.7800 Cl  0  0  0  0  0  0  0  0  0  0  0  0
  1  2  1  0
  2  3  1  0
  3  4  2  0
  3 13  1  0
  4  5  1  0
  4  6  1  0
  6  7  1  0
  7  8  1  0
  8  9  1  0
  8 13  2  0
  9 10  1  0
  9 11  2  3
 11 12  1  0
 13 14  1  0
M  CHG  1  11   1
M  END
