
     RDKit          3D

 25 27  0  0  0  0  0  0  0  0999 V2000
   -2.6530    1.0830   -3.6800 C   0  0  0  0  0  0  0  0  0  0  0  0
   -2.9490    0.9140   -2.1740 C   0  0  0  0  0  0  0  0  0  0  0  0
   -1.7380    0.4950   -1.4630 C   0  0  0  0  0  0  0  0  0  0  0  0
   -0.5090    0.7360   -2.0750 C   0  0  0  0  0  0  0  0  0  0  0  0
    0.6700    0.3830   -1.4680 C   0  0  0  0  0  0  0  0  0  0  0  0
    0.6630   -0.2200   -0.2440 C   0  0  0  0  0  0  0  0  0  0  0  0
   -0.5910   -0.4580    0.3590 C   0  0  0  0  0  0  0  0  0  0  0  0
   -1.7700   -0.1020   -0.2390 C   0  0  0  0  0  0  0  0  0  0  0  0
   -3.0640   -0.1870    0.4970 C   0  0  1  0  0  0  0  0  0  0  0  0
   -3.1950   -1.2930    1.4690 C   0  0  0  0  0  0  0  0  0  0  0  0
   -3.5490   -0.8640    2.8650 C   0  0  0  0  0  0  0  0  0  0  0  0
   -4.4650    0.1450    2.9770 O   0  0  0  0  0  0  0  0  0  0  0  0
   -4.3420    1.1940    2.0960 C   0  0  0  0  0  0  0  0  0  0  0  0
   -3.0100    1.0890    1.4400 C   0  0  0  0  0  0  0  0  0  0  0  0
    1.7970   -0.5940    0.4170 O   0  0  0  0  0  0  0  0  0  0  0  0
    3.1110   -0.4000   -0.1250 C   0  0  0  0  0  0  0  0  0  0  0  0
    4.0710   -0.7770    0.6380 C   0  0  0  0  0  0  0  0  0  0  0  0
    5.4530   -0.9050    0.8350 C   0  0  0  0  0  0  0  0  0  0  0  0
    6.5740   -0.4750    0.0990 C   0  0  0  0  0  0  0  0  0  0  0  0
    6.4900    0.1930   -0.9770 O   0  0  0  0  0  0  0  0  0  0  0  0
    5.8450   -1.5160    2.0390 C   0  0  0  0  0  0  0  0  0  0  0  0
    7.1240   -1.6820    2.3170 O   0  0  0  0  0  0  0  0  0  0  0  0
    3.1320    0.1900   -1.4390 C   0  0  0  0  0  0  0  0  0  0  0  0
    4.2440    0.1810   -2.0610 O   0  0  0  0  0  0  0  0  0  0  0  0
    1.9640    0.7690   -2.0700 C   0  0  0  0  0  0  0  0  0  0  0  0
  1  2  1  0
  2  3  1  0
  3  4  2  0
  3  8  1  0
  4  5  1  0
  5  6  2  0
  5 25  1  0
  6  7  1  0
  6 15  1  0
  7  8  2  0
  9  8  1  1
  9 10  1  0
  9 14  1  0
 10 11  1  0
 11 12  1  0
 12 13  1  0
 13 14  1  0
 15 16  1  0
 16 17  2  3
 16 23  1  0
 17 18  1  0
 18 19  1  0
 18 21  2  3
 19 20  2  0
 21 22  1  0
 23 24  2  0
 23 25  1  0
M  END
