
     RDKit          3D

 33 36  0  0  0  0  0  0  0  0999 V2000
    7.7870   -0.2670   -1.6520 C   0  0  0  0  0  0  0  0  0  0  0  0
    6.5070    0.3750   -1.2300 C   0  0  0  0  0  0  0  0  0  0  0  0
    5.4100   -0.5650   -1.1260 N   0  0  0  0  0  0  0  0  0  0  0  0
    5.0790   -1.0280   -2.4500 C   0  0  0  0  0  0  0  0  0  0  0  0
    3.7580   -0.4100   -2.9180 C   0  0  0  0  0  0  0  0  0  0  0  0
    2.7350   -0.9390   -2.0660 N   0  0  0  0  0  0  0  0  0  0  0  0
    1.1840   -0.2410   -2.3400 S   0  0  1  0  0  0  0  0  0  0  0  0
    0.8510   -0.5060   -3.7880 O   0  0  0  0  0  0  0  0  0  0  0  0
    0.1790   -0.9950   -1.5360 O   0  0  0  0  0  0  0  0  0  0  0  0
    1.1400    1.4240   -2.0510 N   0  0  0  0  0  0  0  0  0  0  0  0
    0.8300    1.9700   -0.7790 C   0  0  0  0  0  0  0  0  0  0  0  0
    1.6260    2.9450   -0.2010 C   0  0  0  0  0  0  0  0  0  0  0  0
    1.2770    3.4150    1.0350 C   0  0  0  0  0  0  0  0  0  0  0  0
    0.1710    2.9530    1.7120 C   0  0  0  0  0  0  0  0  0  0  0  0
   -0.2330    3.5850    3.2910 Cl  0  0  0  0  0  0  0  0  0  0  0  0
   -0.6560    1.9690    1.1560 C   0  0  0  0  0  0  0  0  0  0  0  0
   -1.7600    1.5350    1.8890 N   0  0  0  0  0  0  0  0  0  0  0  0
   -2.7280    0.5620    1.5330 C   0  0  0  0  0  0  0  0  0  0  0  0
   -2.6960   -0.0480    0.3490 N   0  0  0  0  0  0  0  0  0  0  0  0
   -3.5690   -0.9550   -0.0900 C   0  0  0  0  0  0  0  0  0  0  0  0
   -3.4250   -1.5630   -1.4280 C   0  0  2  0  0  0  0  0  0  0  0  0
   -4.6080   -1.2750   -2.3270 C   0  0  0  0  0  0  0  0  0  0  0  0
   -3.2890   -3.0710   -1.2320 C   0  0  0  0  0  0  0  0  0  0  0  0
   -4.5670   -1.2740    0.7450 N   0  0  0  0  0  0  0  0  0  0  0  0
   -4.6810   -0.7060    1.9690 C   0  0  0  0  0  0  0  0  0  0  0  0
   -3.7720    0.2130    2.3820 C   0  0  0  0  0  0  0  0  0  0  0  0
   -3.8750    0.8260    3.7270 C   0  0  0  0  0  0  0  0  0  0  0  0
   -4.6570    0.0460    4.7250 C   0  0  0  0  0  0  0  0  0  0  0  0
   -5.8240   -0.7120    4.2220 C   0  0  0  0  0  0  0  0  0  0  0  0
   -5.7620   -1.0520    2.8360 N   0  0  0  0  0  0  0  0  0  0  0  0
   -0.2930    1.5090   -0.0800 C   0  0  0  0  0  0  0  0  0  0  0  0
    3.0950   -0.8770   -0.6700 C   0  0  0  0  0  0  0  0  0  0  0  0
    4.2880    0.0380   -0.4390 C   0  0  0  0  0  0  0  0  0  0  0  0
  1  2  1  0
  2  3  1  0
  3  4  1  0
  3 33  1  0
  4  5  1  0
  5  6  1  0
  6  7  1  0
  6 32  1  0
  7  8  2  0
  7  9  2  0
  7 10  1  6
 10 11  1  0
 11 12  2  0
 11 31  1  0
 12 13  1  0
 13 14  2  0
 14 15  1  0
 14 16  1  0
 16 17  1  0
 16 31  2  0
 17 18  1  0
 18 19  2  0
 18 26  1  0
 19 20  1  0
 20 21  1  0
 20 24  2  0
 21 22  1  6
 21 23  1  0
 24 25  1  0
 25 26  2  0
 25 30  1  0
 26 27  1  0
 27 28  1  0
 28 29  1  0
 29 30  1  0
 32 33  1  0
M  END
