
     RDKit          3D

 33 36  0  0  0  0  0  0  0  0999 V2000
   -7.6890    0.8970    1.2030 C   0  0  0  0  0  0  0  0  0  0  0  0
   -6.5810   -0.0400    0.8520 C   0  0  0  0  0  0  0  0  0  0  0  0
   -6.8230   -1.3640    0.5390 C   0  0  0  0  0  0  0  0  0  0  0  0
   -5.8130   -2.2250    0.2140 C   0  0  0  0  0  0  0  0  0  0  0  0
   -6.1460   -3.8940   -0.1770 Cl  0  0  0  0  0  0  0  0  0  0  0  0
   -4.4950   -1.7590    0.1980 C   0  0  0  0  0  0  0  0  0  0  0  0
   -4.2680   -0.4460    0.5100 C   0  0  0  0  0  0  0  0  0  0  0  0
   -2.8900    0.0150    0.4680 N   0  0  0  0  0  0  0  0  0  0  0  0
   -2.4340    0.6130   -0.5680 N   0  0  0  0  0  0  0  0  0  0  0  0
   -1.8020    1.0410   -1.4890 C   0  0  0  0  0  0  0  0  0  0  0  0
   -2.2570    2.0430   -2.5070 C   0  0  0  0  0  0  0  0  0  0  0  0
   -3.4080    2.5350   -2.4640 O   0  0  0  0  0  0  0  0  0  0  0  0
   -1.1770    2.2270   -3.3800 N   0  0  0  0  0  0  0  0  0  0  0  0
   -0.1360    1.4320   -2.9690 N   0  0  0  0  0  0  0  0  0  0  0  0
   -0.4190    0.7470   -1.9220 C   0  0  0  0  0  0  0  0  0  0  0  0
    0.5040   -0.1870   -1.2270 C   0  0  0  0  0  0  0  0  0  0  0  0
    0.7960    0.2690    0.1700 C   0  0  0  0  0  0  0  0  0  0  0  0
    1.6930   -0.5550    0.9170 N   0  0  0  0  0  0  0  0  0  0  0  0
    3.0540   -0.7740    0.5170 C   0  0  0  0  0  0  0  0  0  0  0  0
    3.3860   -1.8560   -0.2660 C   0  0  0  0  0  0  0  0  0  0  0  0
    2.3590   -2.8640   -0.7090 C   0  0  0  0  0  0  0  0  0  0  0  0
    4.6800   -1.9990   -0.6180 N   0  0  0  0  0  0  0  0  0  0  0  0
    5.6390   -1.1430   -0.2410 C   0  0  0  0  0  0  0  0  0  0  0  0
    7.0170   -1.0680   -0.4660 C   0  0  0  0  0  0  0  0  0  0  0  0
    7.5410   -0.0090    0.1330 N   0  0  0  0  0  0  0  0  0  0  0  0
    9.2480    0.4400    0.0910 S   0  0  0  0  0  0  0  0  0  0  0  0
   10.1120   -0.6980    0.6700 O   0  0  0  0  0  0  0  0  0  0  0  0
    6.5290    0.6260    0.7570 C   0  0  0  0  0  0  0  0  0  0  0  0
    5.3310   -0.0560    0.5410 C   0  0  0  0  0  0  0  0  0  0  0  0
    4.0320    0.1300    0.9230 C   0  0  0  0  0  0  0  0  0  0  0  0
    3.6900    1.2970    1.7680 C   0  0  0  0  0  0  0  0  0  0  0  0
   -5.2780    0.4290    0.8380 C   0  0  0  0  0  0  0  0  0  0  0  0
   -4.9430    1.8500    1.1650 C   0  0  0  0  0  0  0  0  0  0  0  0
  1  2  1  0
  2  3  2  0
  2 32  1  0
  3  4  1  0
  4  5  1  0
  4  6  2  0
  6  7  1  0
  7  8  1  0
  7 32  2  0
  8  9  1  0
  9 10  2  3
 10 11  1  0
 10 15  1  0
 11 12  2  0
 11 13  1  0
 13 14  1  0
 14 15  2  0
 15 16  1  0
 16 17  1  0
 17 18  1  0
 18 19  1  0
 19 20  1  0
 19 30  2  0
 20 21  1  0
 20 22  2  0
 22 23  1  0
 23 24  2  0
 23 29  1  0
 24 25  1  0
 25 26  1  0
 25 28  1  0
 26 27  2  0
 28 29  2  0
 29 30  1  0
 30 31  1  0
 32 33  1  0
M  END
