
     RDKit          3D

 33 36  0  0  0  0  0  0  0  0999 V2000
   -2.3740    0.7840    3.1660 C   0  0  0  0  0  0  0  0  0  0  0  0
   -3.0070    0.0360    2.0190 N   0  0  0  0  0  0  0  0  0  0  0  0
   -2.2360   -1.0560    1.6060 C   0  0  0  0  0  0  0  0  0  0  0  0
   -0.8850   -0.6220    0.9890 C   0  0  0  0  0  0  0  0  0  0  0  0
   -0.1530   -1.8330    0.5740 C   0  0  0  0  0  0  0  0  0  0  0  0
   -0.6800   -2.9580    0.7350 O   0  0  0  0  0  0  0  0  0  0  0  0
    1.1690   -1.7400   -0.0170 N   0  0  0  0  0  0  0  0  0  0  0  0
    1.8350   -2.8990   -0.3980 C   0  0  0  0  0  0  0  0  0  0  0  0
    1.0100   -4.3650   -0.1470 S   0  0  0  0  0  0  0  0  0  0  0  0
    3.1170   -2.9800   -0.9120 N   0  0  0  0  0  0  0  0  0  0  0  0
    4.0740   -1.9950   -1.1270 C   0  0  0  0  0  0  0  0  0  0  0  0
    4.1870   -0.7940   -0.4870 C   0  0  0  0  0  0  0  0  0  0  0  0
    5.2520    0.0600   -0.7640 C   0  0  0  0  0  0  0  0  0  0  0  0
    6.2140   -0.2650   -1.6740 C   0  0  0  0  0  0  0  0  0  0  0  0
    6.0960   -1.4520   -2.2990 N   0  0  0  0  0  0  0  0  0  0  0  0
    5.0970   -2.2840   -2.0600 C   0  0  0  0  0  0  0  0  0  0  0  0
    5.0620   -3.3860   -2.6970 O   0  0  0  0  0  0  0  0  0  0  0  0
    7.3760    0.6180   -2.0040 C   0  0  0  0  0  0  0  0  0  0  0  0
    7.0870    2.0150   -1.5100 C   0  0  0  0  0  0  0  0  0  0  0  0
    6.6790    1.9220   -0.0520 C   0  0  0  0  0  0  0  0  0  0  0  0
    5.2710    1.3520   -0.0010 C   0  0  0  0  0  0  0  0  0  0  0  0
   -4.2340    0.5700    1.5930 C   0  0  0  0  0  0  0  0  0  0  0  0
   -4.7270    1.7850    2.0600 N   0  0  0  0  0  0  0  0  0  0  0  0
   -5.9250    2.0360    1.5520 C   0  0  0  0  0  0  0  0  0  0  0  0
   -6.8280    3.0780    1.6880 C   0  0  0  0  0  0  0  0  0  0  0  0
   -8.0180    3.0370    1.0050 C   0  0  0  0  0  0  0  0  0  0  0  0
   -8.3130    1.9670    0.1890 C   0  0  0  0  0  0  0  0  0  0  0  0
   -7.4100    0.9770    0.0850 N   0  0  0  0  0  0  0  0  0  0  0  0
   -6.2360    0.9820    0.7380 C   0  0  0  0  0  0  0  0  0  0  0  0
   -5.1740    0.0940    0.7820 N   0  0  0  0  0  0  0  0  0  0  0  0
   -5.2640   -1.1220    0.0470 C   0  0  0  0  0  0  0  0  0  0  0  0
   -4.9220   -0.9740   -1.4200 C   0  0  0  0  0  0  0  0  0  0  0  0
   -3.2970   -0.3370   -1.6080 Cl  0  0  0  0  0  0  0  0  0  0  0  0
  1  2  1  0
  2  3  1  0
  2 22  1  0
  3  4  1  0
  4  5  1  0
  5  6  2  0
  5  7  1  0
  7  8  1  0
  8  9  2  0
  8 10  1  0
 10 11  1  0
 11 12  2  0
 11 16  1  0
 12 13  1  0
 13 14  2  0
 13 21  1  0
 14 15  1  0
 14 18  1  0
 15 16  1  0
 16 17  2  0
 18 19  1  0
 19 20  1  0
 20 21  1  0
 22 23  2  0
 22 30  1  0
 23 24  1  0
 24 25  2  0
 24 29  1  0
 25 26  1  0
 26 27  2  0
 27 28  1  0
 28 29  2  0
 29 30  1  0
 30 31  1  0
 31 32  1  0
 32 33  1  0
M  END
