
     RDKit          3D

 32 34  0  0  0  0  0  0  0  0999 V2000
   -5.5000    3.6540   -0.0610 C   0  0  0  0  0  0  0  0  0  0  0  0
   -4.9410    2.5440    0.6370 O   0  0  0  0  0  0  0  0  0  0  0  0
   -4.7500    1.3720   -0.0870 C   0  0  0  0  0  0  0  0  0  0  0  0
   -5.1410    1.3590   -1.4040 N   0  0  0  0  0  0  0  0  0  0  0  0
   -4.9710    0.2490   -2.1370 C   0  0  0  0  0  0  0  0  0  0  0  0
   -5.3880    0.2790   -3.5130 N   0  0  0  0  0  0  0  0  0  0  0  0
   -4.4340   -0.8270   -1.5860 N   0  0  0  0  0  0  0  0  0  0  0  0
   -4.0180   -0.9300   -0.2830 C   0  0  0  0  0  0  0  0  0  0  0  0
   -3.5530   -1.9850    0.2850 O   0  0  0  0  0  0  0  0  0  0  0  0
   -3.1530   -3.2490    0.0820 C   0  0  0  0  0  0  0  0  0  0  0  0
   -4.2010    0.2630    0.4560 C   0  0  0  0  0  0  0  0  0  0  0  0
   -3.8250    0.2330    1.9110 C   0  0  0  0  0  0  0  0  0  0  0  0
   -2.4210   -0.3620    1.8220 N   0  0  0  0  0  0  0  0  0  0  0  0
   -1.4680    0.5730    1.3310 C   0  0  0  0  0  0  0  0  0  0  0  0
   -2.1280    1.7480    1.1250 O   0  0  0  0  0  0  0  0  0  0  0  0
   -0.1230    0.6630    0.9960 C   0  0  0  0  0  0  0  0  0  0  0  0
    1.0060    0.0640    0.8670 C   0  0  0  0  0  0  0  0  0  0  0  0
    2.2170    0.8520    0.4160 C   0  0  0  0  0  0  0  0  0  0  0  0
    3.2820    0.4140    0.2010 N   0  0  0  0  0  0  0  0  0  0  0  0
    4.5630    0.1710   -0.1020 C   0  0  0  0  0  0  0  0  0  0  0  0
    4.8510   -0.5170   -1.3080 C   0  0  0  0  0  0  0  0  0  0  0  0
    6.1490   -0.7670   -1.6150 C   0  0  0  0  0  0  0  0  0  0  0  0
    7.1860   -0.3700   -0.7740 C   0  0  0  0  0  0  0  0  0  0  0  0
    8.5190   -0.4860   -0.8280 N   0  0  0  0  0  0  0  0  0  0  0  0
    9.0780    0.0840    0.2690 C   0  0  0  0  0  0  0  0  0  0  0  0
   10.3050    0.1910    0.6040 O   0  0  0  0  0  0  0  0  0  0  0  0
    8.0800    0.5380    0.9710 O   0  0  0  0  0  0  0  0  0  0  0  0
    6.9190    0.2960    0.4020 C   0  0  0  0  0  0  0  0  0  0  0  0
    5.6250    0.5660    0.7350 C   0  0  0  0  0  0  0  0  0  0  0  0
    1.2050   -1.3590    1.0130 C   0  0  0  0  0  0  0  0  0  0  0  0
    0.1320   -2.2350    1.2480 N   0  0  0  0  0  0  0  0  0  0  0  0
    2.4210   -1.7860    0.9100 O   0  0  0  0  0  0  0  0  0  0  0  0
  1  2  1  0
  2  3  1  0
  3  4  2  0
  3 11  1  0
  4  5  1  0
  5  6  1  0
  5  7  2  0
  7  8  1  0
  8  9  1  0
  8 11  2  0
  9 10  1  0
 11 12  1  0
 12 13  1  0
 13 14  1  0
 14 15  2  0
 14 16  1  0
 16 17  2  3
 17 18  1  0
 17 30  1  0
 18 19  2  3
 19 20  1  0
 20 21  2  0
 20 29  1  0
 21 22  1  0
 22 23  2  0
 23 24  1  0
 23 28  1  0
 24 25  1  0
 25 26  2  0
 25 27  1  0
 27 28  1  0
 28 29  2  0
 30 31  1  0
 30 32  2  0
M  END
