
     RDKit          3D

 32 35  0  0  0  0  0  0  0  0999 V2000
   -6.1020   -0.0760    1.1670 O   0  0  0  0  0  0  0  0  0  0  0  0
   -5.3600    0.1500    2.1420 C   0  0  0  0  0  0  0  0  0  0  0  0
   -5.9600    0.2170    3.4260 N   0  0  0  0  0  0  0  0  0  0  0  0
   -7.3720    0.0370    3.5890 C   0  0  0  0  0  0  0  0  0  0  0  0
   -8.1080    1.1170    2.8370 C   0  0  0  0  0  0  0  0  0  0  0  0
   -7.6090    2.7190    3.4880 Cl  0  0  0  0  0  0  0  0  0  0  0  0
   -3.9920    0.3210    1.9140 N   0  0  0  0  0  0  0  0  0  0  0  0
   -3.2820    0.2870    0.6980 C   0  0  0  0  0  0  0  0  0  0  0  0
   -3.8700    0.2990   -0.5350 C   0  0  0  0  0  0  0  0  0  0  0  0
   -3.1140    0.2450   -1.7120 C   0  0  0  0  0  0  0  0  0  0  0  0
   -1.7480    0.1770   -1.6820 C   0  0  0  0  0  0  0  0  0  0  0  0
   -0.9620    0.1220   -2.8700 N   0  0  0  0  0  0  0  0  0  0  0  0
   -0.3990   -0.9100   -3.5080 C   0  0  0  0  0  0  0  0  0  0  0  0
    0.2670   -0.4620   -4.6200 C   0  0  0  0  0  0  0  0  0  0  0  0
    0.0860    0.9040   -4.6380 C   0  0  0  0  0  0  0  0  0  0  0  0
   -0.6580    1.2180   -3.5710 N   0  0  0  0  0  0  0  0  0  0  0  0
   -1.1260    0.1650   -0.4210 C   0  0  0  0  0  0  0  0  0  0  0  0
    0.2860    0.0930   -0.4500 N   0  0  0  0  0  0  0  0  0  0  0  0
    1.1420    0.0710    0.6630 C   0  0  0  0  0  0  0  0  0  0  0  0
    0.6870    0.1170    1.8200 O   0  0  0  0  0  0  0  0  0  0  0  0
    2.6320   -0.0070    0.5190 C   0  0  1  0  0  0  0  0  0  0  0  0
    2.9540   -1.2930   -0.2100 C   0  0  0  0  0  0  0  0  0  0  0  0
    4.4550   -1.4810   -0.3520 C   0  0  0  0  0  0  0  0  0  0  0  0
    5.1140   -0.2030   -0.3990 N   0  0  0  0  0  0  0  0  0  0  0  0
    6.4490   -0.0710    0.1360 C   0  0  0  0  0  0  0  0  0  0  0  0
    7.0980   -1.1530    0.6840 C   0  0  0  0  0  0  0  0  0  0  0  0
    8.6820   -0.4150    1.1750 S   0  0  0  0  0  0  0  0  0  0  0  0
    8.1810    1.2940    0.5340 C   0  0  0  0  0  0  0  0  0  0  0  0
    7.1300    1.0580    0.1440 N   0  0  0  0  0  0  0  0  0  0  0  0
    4.4090    0.9100   -0.9860 C   0  0  0  0  0  0  0  0  0  0  0  0
    3.1360    1.1990   -0.2190 C   0  0  0  0  0  0  0  0  0  0  0  0
   -1.8730    0.2180    0.7260 C   0  0  0  0  0  0  0  0  0  0  0  0
  1  2  2  0
  2  3  1  0
  2  7  1  0
  3  4  1  0
  4  5  1  0
  5  6  1  0
  7  8  1  0
  8  9  2  0
  8 32  1  0
  9 10  1  0
 10 11  2  0
 11 12  1  0
 11 17  1  0
 12 13  1  0
 12 16  1  0
 13 14  2  0
 14 15  1  0
 15 16  2  0
 17 18  1  0
 17 32  2  0
 18 19  1  0
 19 20  2  0
 21 19  1  6
 21 22  1  0
 21 31  1  0
 22 23  1  0
 23 24  1  0
 24 25  1  0
 24 30  1  0
 25 26  2  0
 25 29  1  0
 26 27  1  0
 27 28  1  0
 28 29  2  0
 30 31  1  0
M  END
