
     RDKit          3D

 33 36  0  0  0  0  0  0  0  0999 V2000
   -2.4600    3.1260    1.0640 C   0  0  0  0  0  0  0  0  0  0  0  0
   -1.2470    3.6140    1.8260 C   0  0  0  0  0  0  0  0  0  0  0  0
    0.0040    3.4590    1.0400 C   0  0  0  0  0  0  0  0  0  0  0  0
    0.5450    4.3790    0.2250 N   0  0  0  0  0  0  0  0  0  0  0  0
    1.6370    3.8880   -0.2990 N   0  0  0  0  0  0  0  0  0  0  0  0
    1.8400    2.6000    0.1760 C   0  0  0  0  0  0  0  0  0  0  0  0
    2.9750    1.7800   -0.2070 C   0  0  0  0  0  0  0  0  0  0  0  0
    4.0250    2.4850   -1.0780 C   0  0  0  0  0  0  0  0  0  0  0  0
    3.1850    0.5360    0.1100 C   0  0  0  0  0  0  0  0  0  0  0  0
    4.3590   -0.1960   -0.3230 C   0  0  0  0  0  0  0  0  0  0  0  0
    5.2270    0.3480   -1.0240 O   0  0  0  0  0  0  0  0  0  0  0  0
    4.5890   -1.5600    0.0210 N   0  0  0  0  0  0  0  0  0  0  0  0
    5.7470   -2.2960   -0.3990 C   0  0  1  0  0  0  0  0  0  0  0  0
    6.4260   -3.2590    0.4940 C   0  0  0  0  0  0  0  0  0  0  0  0
    5.7270   -3.7210   -0.7170 C   0  0  0  0  0  0  0  0  0  0  0  0
    0.8290    2.3480    0.9990 N   0  0  0  0  0  0  0  0  0  0  0  0
    0.5360    1.2000    1.7840 C   0  0  0  0  0  0  0  0  0  0  0  0
   -0.2900    0.1640    1.0230 C   0  0  0  0  0  0  0  0  0  0  0  0
   -0.6290   -0.8580    1.6090 O   0  0  0  0  0  0  0  0  0  0  0  0
   -0.6510    0.3710   -0.3080 N   0  0  0  0  0  0  0  0  0  0  0  0
   -1.4480   -0.3540   -1.2170 C   0  0  0  0  0  0  0  0  0  0  0  0
   -1.4340    0.0400   -2.5750 C   0  0  0  0  0  0  0  0  0  0  0  0
   -2.2910   -0.7390   -3.2660 C   0  0  0  0  0  0  0  0  0  0  0  0
   -2.5630   -0.5650   -5.0090 Cl  0  0  0  0  0  0  0  0  0  0  0  0
   -2.8600   -1.6210   -2.4090 C   0  0  0  0  0  0  0  0  0  0  0  0
   -2.3150   -1.3460   -1.1730 N   0  0  0  0  0  0  0  0  0  0  0  0
   -2.7490   -2.0750   -0.0390 C   0  0  0  0  0  0  0  0  0  0  0  0
   -4.1510   -1.6950    0.3550 C   0  0  0  0  0  0  0  0  0  0  0  0
   -4.3300   -1.0340    1.6040 N   0  0  0  0  0  0  0  0  0  0  0  0
   -5.0520    0.2460    1.5210 C   0  0  0  0  0  0  0  0  0  0  0  0
   -5.2350   -1.9160   -0.3580 C   0  0  0  0  0  0  0  0  0  0  0  0
   -5.3460   -2.7090   -1.9460 S   0  0  0  0  0  0  0  0  0  0  0  0
   -3.8400   -2.6040   -2.8350 C   0  0  0  0  0  0  0  0  0  0  0  0
  1  2  1  0
  2  3  1  0
  3  4  2  0
  3 16  1  0
  4  5  1  0
  5  6  2  0
  6  7  1  0
  6 16  1  0
  7  8  1  0
  7  9  2  3
  9 10  1  0
 10 11  2  0
 10 12  1  0
 13 12  1  1
 13 14  1  0
 13 15  1  0
 14 15  1  0
 16 17  1  0
 17 18  1  0
 18 19  2  0
 18 20  1  0
 20 21  1  0
 21 22  2  0
 21 26  1  0
 22 23  1  0
 23 24  1  0
 23 25  2  0
 25 26  1  0
 25 33  1  0
 26 27  1  0
 27 28  1  0
 28 29  1  0
 28 31  2  0
 29 30  1  0
 31 32  1  0
 32 33  1  0
M  END
