
     RDKit          3D

 32 35  0  0  0  0  0  0  0  0999 V2000
    5.3270   -0.5990   -2.0440 O   0  0  0  0  0  0  0  0  0  0  0  0
    5.1710   -1.1480   -0.9340 C   0  0  0  0  0  0  0  0  0  0  0  0
    3.9880   -0.7550   -0.0900 C   0  0  0  0  0  0  0  0  0  0  0  0
    3.1940    0.3420   -0.7850 C   0  0  0  0  0  0  0  0  0  0  0  0
    2.0750    0.7080    0.0540 N   0  0  0  0  0  0  0  0  0  0  0  0
    0.8780    0.1140   -0.0610 C   0  0  0  0  0  0  0  0  0  0  0  0
    0.7250   -0.7860   -0.9350 O   0  0  0  0  0  0  0  0  0  0  0  0
   -0.1320    0.5010    0.7670 C   0  0  0  0  0  0  0  0  0  0  0  0
   -1.4140   -0.0950    0.6820 N   0  0  0  0  0  0  0  0  0  0  0  0
   -2.4720    0.4460   -0.1390 C   0  0  0  0  0  0  0  0  0  0  0  0
   -2.1990    1.4620   -0.7690 O   0  0  0  0  0  0  0  0  0  0  0  0
   -3.7390   -0.1500   -0.2120 N   0  0  0  0  0  0  0  0  0  0  0  0
   -4.8360    0.3060   -0.9710 C   0  0  0  0  0  0  0  0  0  0  0  0
   -6.0590   -0.3290   -1.0200 C   0  0  0  0  0  0  0  0  0  0  0  0
   -6.4750   -1.5970   -0.3460 C   0  0  1  0  0  0  0  0  0  0  0  0
   -7.9220   -1.9840   -0.3520 C   0  0  0  0  0  0  0  0  0  0  0  0
   -6.9120   -2.6990   -1.2530 C   0  0  0  0  0  0  0  0  0  0  0  0
   -6.8980    0.3680   -1.8180 N   0  0  0  0  0  0  0  0  0  0  0  0
   -6.2500    1.4360   -2.2870 N   0  0  0  0  0  0  0  0  0  0  0  0
   -4.9830    1.4000   -1.7670 C   0  0  0  0  0  0  0  0  0  0  0  0
   -4.1730    2.3060   -2.0630 O   0  0  0  0  0  0  0  0  0  0  0  0
    0.1440    1.5080    1.7010 C   0  0  0  0  0  0  0  0  0  0  0  0
    1.3360    2.0890    1.8060 N   0  0  0  0  0  0  0  0  0  0  0  0
    2.3220    1.6900    0.9750 C   0  0  0  0  0  0  0  0  0  0  0  0
    3.4510    2.2340    1.0670 O   0  0  0  0  0  0  0  0  0  0  0  0
    1.3280    3.0950    2.8680 C   0  0  0  0  0  0  0  0  0  0  0  0
    0.1810    2.6040    3.7430 C   0  0  0  0  0  0  0  0  0  0  0  0
   -0.7830    2.1000    2.6960 C   0  0  0  0  0  0  0  0  0  0  0  0
    6.0890   -2.1180   -0.4810 N   0  0  0  0  0  0  0  0  0  0  0  0
    7.2550   -2.5850   -1.1650 C   0  0  0  0  0  0  0  0  0  0  0  0
    8.3030   -1.5580   -1.4340 C   0  0  0  0  0  0  0  0  0  0  0  0
    7.8400   -0.5380   -2.2120 O   0  0  0  0  0  0  0  0  0  0  0  0
  1  2  2  0
  2  3  1  0
  2 29  1  0
  3  4  1  0
  4  5  1  0
  5  6  1  0
  5 24  1  0
  6  7  2  0
  6  8  1  0
  8  9  1  0
  8 22  2  0
  9 10  1  0
 10 11  2  0
 10 12  1  0
 12 13  1  0
 13 14  2  0
 13 20  1  0
 15 14  1  6
 14 18  1  0
 15 16  1  0
 15 17  1  0
 16 17  1  0
 18 19  1  0
 19 20  1  0
 20 21  2  0
 22 23  1  0
 22 28  1  0
 23 24  1  0
 23 26  1  0
 24 25  2  0
 26 27  1  0
 27 28  1  0
 29 30  1  0
 30 31  1  0
 31 32  1  0
M  END
