
     RDKit          3D

 33 36  0  0  0  0  0  0  0  0999 V2000
   -2.0070    3.0090   -1.6570 C   0  0  0  0  0  0  0  0  0  0  0  0
   -1.9160    1.8750   -0.7050 C   0  0  0  0  0  0  0  0  0  0  0  0
   -1.7660    2.2030    0.6610 N   0  0  0  0  0  0  0  0  0  0  0  0
   -2.8390    2.0000    1.6220 C   0  0  0  0  0  0  0  0  0  0  0  0
   -2.8000    2.2720    2.9270 N   0  0  0  0  0  0  0  0  0  0  0  0
   -3.9710    1.9580    3.4750 C   0  0  0  0  0  0  0  0  0  0  0  0
   -4.7310    1.4870    2.4770 N   0  0  0  0  0  0  0  0  0  0  0  0
   -4.0540    1.5080    1.3510 N   0  0  0  0  0  0  0  0  0  0  0  0
   -2.0050    0.6230   -1.0850 C   0  0  0  0  0  0  0  0  0  0  0  0
   -1.9030   -0.4230   -0.0980 C   0  0  0  0  0  0  0  0  0  0  0  0
   -0.7550   -0.5560    0.7030 C   0  0  0  0  0  0  0  0  0  0  0  0
    0.3930    0.2490    0.5090 N   0  0  0  0  0  0  0  0  0  0  0  0
    1.5550    0.1150    1.3550 C   0  0  0  0  0  0  0  0  0  0  0  0
    2.6460    1.0680    1.0000 C   0  0  0  0  0  0  0  0  0  0  0  0
    3.1610    0.9060   -0.4110 C   0  0  1  0  0  0  0  0  0  0  0  0
    4.2500    1.8820   -0.7130 C   0  0  0  0  0  0  0  0  0  0  0  0
    5.5420    1.2910   -1.1450 C   0  0  0  0  0  0  0  0  0  0  0  0
    5.4950    0.0880   -1.8750 N   0  0  0  0  0  0  0  0  0  0  0  0
    6.6390   -0.7780   -1.6770 C   0  0  0  0  0  0  0  0  0  0  0  0
    4.2550   -0.5780   -1.9680 C   0  0  0  0  0  0  0  0  0  0  0  0
    3.5930   -0.5330   -0.5860 C   0  0  0  0  0  0  0  0  0  0  0  0
   -0.6620   -1.5010    1.6690 N   0  0  0  0  0  0  0  0  0  0  0  0
   -1.6340   -2.3650    1.9300 C   0  0  0  0  0  0  0  0  0  0  0  0
   -2.7740   -2.3000    1.1960 C   0  0  0  0  0  0  0  0  0  0  0  0
   -2.8940   -1.3400    0.2010 C   0  0  0  0  0  0  0  0  0  0  0  0
   -4.3650   -1.3030   -0.6900 Cl  0  0  0  0  0  0  0  0  0  0  0  0
   -3.7020   -3.3560    1.6690 C   0  0  0  0  0  0  0  0  0  0  0  0
   -2.8170   -4.3500    2.3440 C   0  0  0  0  0  0  0  0  0  0  0  0
   -1.7320   -3.4780    2.9420 C   0  0  0  0  0  0  0  0  0  0  0  0
   -2.2280    0.3470   -2.7930 S   0  0  2  0  0  0  0  0  0  0  0  0
   -3.9020    0.3710   -3.3170 C   0  0  0  0  0  0  0  0  0  0  0  0
   -1.5260   -0.9460   -3.2180 O   0  0  0  0  0  0  0  0  0  0  0  0
   -1.4920    1.3850   -3.6080 O   0  0  0  0  0  0  0  0  0  0  0  0
  1  2  1  0
  2  3  1  0
  2  9  2  3
  3  4  1  0
  4  5  1  0
  4  8  2  0
  5  6  2  0
  6  7  1  0
  7  8  1  0
  9 10  1  0
  9 30  1  0
 10 11  1  0
 10 25  2  0
 11 12  1  0
 11 22  2  0
 12 13  1  0
 13 14  1  0
 15 14  1  1
 15 16  1  0
 15 21  1  0
 16 17  1  0
 17 18  1  0
 18 19  1  0
 18 20  1  0
 20 21  1  0
 22 23  1  0
 23 24  2  0
 23 29  1  0
 24 25  1  0
 24 27  1  0
 25 26  1  0
 27 28  1  0
 28 29  1  0
 30 31  1  1
 30 32  2  0
 30 33  2  0
M  END
