
     RDKit          3D

 39 41  0  0  0  0  0  0  0  0999 V2000
    4.4360   -1.6250   -4.8290 C   0  0  0  0  0  0  0  0  0  0  0  0
    4.7830   -1.7350   -3.5610 O   0  0  0  0  0  0  0  0  0  0  0  0
    4.1150   -1.5260   -2.4610 C   0  0  0  0  0  0  0  0  0  0  0  0
    3.4540   -0.2400   -2.1010 C   0  0  2  0  0  0  0  0  0  0  0  0
    3.0000   -0.4070   -0.7400 O   0  0  0  0  0  0  0  0  0  0  0  0
    3.5440    0.4830    0.2070 C   0  0  0  0  0  0  0  0  0  0  0  0
    4.3560    1.3310   -0.1720 O   0  0  0  0  0  0  0  0  0  0  0  0
    3.1410    0.3860    1.6110 C   0  0  0  0  0  0  0  0  0  0  0  0
    2.2490   -0.6520    1.9320 C   0  0  0  0  0  0  0  0  0  0  0  0
    1.8430   -0.8450    3.2200 C   0  0  0  0  0  0  0  0  0  0  0  0
    2.2630   -0.0640    4.2590 C   0  0  0  0  0  0  0  0  0  0  0  0
    3.1500    0.9640    3.9210 C   0  0  0  0  0  0  0  0  0  0  0  0
    3.5790    1.1860    2.6330 C   0  0  0  0  0  0  0  0  0  0  0  0
    4.4310    2.2740    2.3470 N   0  0  0  0  0  0  0  0  0  0  0  0
    5.1150    3.0450    3.3150 C   0  0  0  0  0  0  0  0  0  0  0  0
    5.0610    2.8620    4.5450 O   0  0  0  0  0  0  0  0  0  0  0  0
    2.2390    0.0870   -2.9270 C   0  0  0  0  0  0  0  0  0  0  0  0
    2.3440    0.3620   -4.1240 O   0  0  0  0  0  0  0  0  0  0  0  0
    0.9200    0.0860   -2.3380 N   0  0  0  0  0  0  0  0  0  0  0  0
   -0.2860    0.3640   -2.9940 C   0  0  0  0  0  0  0  0  0  0  0  0
   -0.3940    0.5170   -4.3720 C   0  0  0  0  0  0  0  0  0  0  0  0
   -1.5860    0.7540   -5.0290 C   0  0  0  0  0  0  0  0  0  0  0  0
   -2.7570    0.8510   -4.3170 C   0  0  0  0  0  0  0  0  0  0  0  0
   -4.0350    1.1060   -5.0380 C   0  0  0  0  0  0  0  0  0  0  0  0
   -5.1030    1.1310   -4.0690 N   0  0  0  0  0  0  0  0  0  0  0  0
   -2.6810    0.7060   -2.9640 C   0  0  0  0  0  0  0  0  0  0  0  0
   -1.4620    0.4650   -2.2970 C   0  0  0  0  0  0  0  0  0  0  0  0
   -1.5190    0.3610   -0.8550 C   0  0  0  0  0  0  0  0  0  0  0  0
   -0.5890    0.1840   -0.0770 O   0  0  0  0  0  0  0  0  0  0  0  0
   -2.7880    0.4700   -0.2080 O   0  0  0  0  0  0  0  0  0  0  0  0
   -2.9070    0.3800    1.1690 C   0  0  0  0  0  0  0  0  0  0  0  0
   -2.8460    1.5430    1.9030 C   0  0  0  0  0  0  0  0  0  0  0  0
   -2.9560    1.5390    3.2780 C   0  0  0  0  0  0  0  0  0  0  0  0
   -3.1320    0.3160    3.9110 C   0  0  0  0  0  0  0  0  0  0  0  0
   -3.2550    0.2790    5.4070 C   0  0  0  0  0  0  0  0  0  0  0  0
   -3.2000   -0.8750    3.2150 C   0  0  0  0  0  0  0  0  0  0  0  0
   -3.3900   -2.1390    3.9680 C   0  0  0  0  0  0  0  0  0  0  0  0
   -3.0840   -0.8050    1.8500 C   0  0  0  0  0  0  0  0  0  0  0  0
   -3.1540   -2.0890    1.0750 C   0  0  0  0  0  0  0  0  0  0  0  0
  1  2  1  0
  2  3  1  0
  4  3  1  6
  4  5  1  0
  4 17  1  0
  5  6  1  0
  6  7  2  0
  6  8  1  0
  8  9  2  0
  8 13  1  0
  9 10  1  0
 10 11  2  0
 11 12  1  0
 12 13  2  0
 13 14  1  0
 14 15  1  0
 15 16  2  0
 17 18  2  0
 17 19  1  0
 19 20  1  0
 20 21  2  0
 20 27  1  0
 21 22  1  0
 22 23  2  0
 23 24  1  0
 23 26  1  0
 24 25  1  0
 26 27  2  0
 27 28  1  0
 28 29  2  0
 28 30  1  0
 30 31  1  0
 31 32  2  0
 31 38  1  0
 32 33  1  0
 33 34  2  0
 34 35  1  0
 34 36  1  0
 36 37  1  0
 36 38  2  0
 38 39  1  0
M  END
