
     RDKit          3D

 39 41  0  0  0  0  0  0  0  0999 V2000
   -2.2210    8.7820    3.2820 C   0  0  0  0  0  0  0  0  0  0  0  0
   -2.8320    8.0000    2.2470 N   0  0  0  0  0  0  0  0  0  0  0  0
   -2.2510    6.7800    1.8170 C   0  0  0  0  0  0  0  0  0  0  0  0
   -1.1970    6.3530    2.3260 O   0  0  0  0  0  0  0  0  0  0  0  0
   -2.8860    5.9680    0.7430 C   0  0  1  0  0  0  0  0  0  0  0  0
   -3.0950    6.7310   -0.5210 C   0  0  0  0  0  0  0  0  0  0  0  0
   -2.1480    4.7870    0.4970 O   0  0  0  0  0  0  0  0  0  0  0  0
   -2.6730    3.5220    0.7760 C   0  0  0  0  0  0  0  0  0  0  0  0
   -3.8110    3.4750    1.2500 O   0  0  0  0  0  0  0  0  0  0  0  0
   -1.8440    2.3660    0.4890 C   0  0  0  0  0  0  0  0  0  0  0  0
   -0.5810    2.4450   -0.0430 C   0  0  0  0  0  0  0  0  0  0  0  0
    0.1830    1.2960   -0.3040 C   0  0  0  0  0  0  0  0  0  0  0  0
    1.4620    1.4770   -0.8750 N   0  0  0  0  0  0  0  0  0  0  0  0
    2.4890    0.5160   -0.9330 C   0  0  0  0  0  0  0  0  0  0  0  0
    2.2990   -0.6100   -0.4260 O   0  0  0  0  0  0  0  0  0  0  0  0
    3.7550    0.7510   -1.5460 N   0  0  0  0  0  0  0  0  0  0  0  0
    4.7960   -0.2540   -1.5870 C   0  0  0  0  0  0  0  0  0  0  0  0
    4.4090   -1.5160   -2.2850 C   0  0  0  0  0  0  0  0  0  0  0  0
    5.4360   -2.4240   -2.2940 O   0  0  0  0  0  0  0  0  0  0  0  0
    6.6610   -2.4060   -2.9020 C   0  0  0  0  0  0  0  0  0  0  0  0
    7.5470   -3.4890   -2.6820 C   0  0  0  0  0  0  0  0  0  0  0  0
    8.7710   -3.5200   -3.2690 C   0  0  0  0  0  0  0  0  0  0  0  0
    9.2130   -2.5120   -4.0990 C   0  0  0  0  0  0  0  0  0  0  0  0
    8.3450   -1.4700   -4.3040 C   0  0  0  0  0  0  0  0  0  0  0  0
    7.0850   -1.3920   -3.7290 C   0  0  0  0  0  0  0  0  0  0  0  0
   -0.4100    0.1050    0.0040 C   0  0  0  0  0  0  0  0  0  0  0  0
   -1.6820   -0.0170    0.5420 C   0  0  0  0  0  0  0  0  0  0  0  0
   -2.2050   -1.2720    0.8200 O   0  0  0  0  0  0  0  0  0  0  0  0
   -3.4920   -1.4550    1.3700 C   0  0  0  0  0  0  0  0  0  0  0  0
   -3.7650   -2.9220    1.5370 C   0  0  0  0  0  0  0  0  0  0  0  0
   -2.8000   -3.8220    1.1670 C   0  0  0  0  0  0  0  0  0  0  0  0
   -2.9890   -5.1910    1.2980 C   0  0  0  0  0  0  0  0  0  0  0  0
   -1.9450   -6.1710    0.9000 C   0  0  0  0  0  0  0  0  0  0  0  0
   -4.1740   -5.6650    1.8130 C   0  0  0  0  0  0  0  0  0  0  0  0
   -4.3760   -7.1280    1.9550 C   0  0  0  0  0  0  0  0  0  0  0  0
   -5.1500   -4.7680    2.1880 C   0  0  0  0  0  0  0  0  0  0  0  0
   -4.9520   -3.3880    2.0530 C   0  0  0  0  0  0  0  0  0  0  0  0
   -5.9490   -2.5130    2.4370 O   0  0  0  0  0  0  0  0  0  0  0  0
   -2.4020    1.1300    0.7850 C   0  0  0  0  0  0  0  0  0  0  0  0
  1  2  1  0
  2  3  1  0
  3  4  2  0
  3  5  1  0
  5  6  1  6
  5  7  1  0
  7  8  1  0
  8  9  2  0
  8 10  1  0
 10 11  2  0
 10 39  1  0
 11 12  1  0
 12 13  1  0
 12 26  2  0
 13 14  1  0
 14 15  2  0
 14 16  1  0
 16 17  1  0
 17 18  1  0
 18 19  1  0
 19 20  1  0
 20 21  2  0
 20 25  1  0
 21 22  1  0
 22 23  2  0
 23 24  1  0
 24 25  2  0
 26 27  1  0
 27 28  1  0
 27 39  2  0
 28 29  1  0
 29 30  1  0
 30 31  2  0
 30 37  1  0
 31 32  1  0
 32 33  1  0
 32 34  2  0
 34 35  1  0
 34 36  1  0
 36 37  2  0
 37 38  1  0
M  END
