
     RDKit          3D

 39 41  0  0  0  0  0  0  0  0999 V2000
    8.2820   -1.0990   -0.5150 C   0  0  0  0  0  0  0  0  0  0  0  0
    6.9250   -1.4530    0.0530 C   0  0  0  0  0  0  0  0  0  0  0  0
    5.8790   -0.7320   -0.7650 C   0  0  0  0  0  0  0  0  0  0  0  0
    4.5040   -0.9580   -0.3290 C   0  0  0  0  0  0  0  0  0  0  0  0
    3.9480   -0.2980    0.7400 C   0  0  0  0  0  0  0  0  0  0  0  0
    4.6550    0.7210    1.4980 C   0  0  0  0  0  0  0  0  0  0  0  0
    4.0650    1.2940    2.4720 O   0  0  0  0  0  0  0  0  0  0  0  0
    5.9440    1.1490    1.2650 O   0  0  0  0  0  0  0  0  0  0  0  0
    6.5190    2.1360    2.0580 C   0  0  0  0  0  0  0  0  0  0  0  0
    5.7720    3.4540    2.0290 C   0  0  0  0  0  0  0  0  0  0  0  0
    2.6410   -0.5960    1.1150 C   0  0  0  0  0  0  0  0  0  0  0  0
    2.0600    0.0910    2.2310 N   0  0  0  0  0  0  0  0  0  0  0  0
    1.8690   -1.5320    0.4540 C   0  0  0  0  0  0  0  0  0  0  0  0
    0.5380   -1.8160    0.8590 N   0  0  0  0  0  0  0  0  0  0  0  0
   -0.5810   -1.1190    0.3500 C   0  0  0  0  0  0  0  0  0  0  0  0
   -0.3120   -0.2130   -0.5010 O   0  0  0  0  0  0  0  0  0  0  0  0
   -1.9790   -1.4180    0.7750 C   0  0  0  0  0  0  0  0  0  0  0  0
   -2.8350   -0.5260    0.0950 O   0  0  0  0  0  0  0  0  0  0  0  0
   -2.6850    0.8200    0.3030 C   0  0  0  0  0  0  0  0  0  0  0  0
   -1.7970    1.2320    1.0910 O   0  0  0  0  0  0  0  0  0  0  0  0
   -3.5840    1.7660   -0.4150 C   0  0  2  0  0  0  0  0  0  0  0  0
   -3.4180    1.4880   -1.8950 C   0  0  0  0  0  0  0  0  0  0  0  0
   -3.1420    3.1570   -0.1000 C   0  0  0  0  0  0  0  0  0  0  0  0
   -4.9970    1.4990   -0.0610 C   0  0  0  0  0  0  0  0  0  0  0  0
   -5.9700    1.4570   -1.0390 C   0  0  0  0  0  0  0  0  0  0  0  0
   -7.2930    1.2100   -0.7400 C   0  0  0  0  0  0  0  0  0  0  0  0
   -7.6940    0.9930    0.5660 C   0  0  0  0  0  0  0  0  0  0  0  0
   -9.0880    0.7290    0.9130 C   0  0  0  0  0  0  0  0  0  0  0  0
   -9.3990    0.5380    2.1150 O   0  0  0  0  0  0  0  0  0  0  0  0
  -10.0720    0.6840   -0.0360 O   0  0  0  0  0  0  0  0  0  0  0  0
  -11.4400    0.4340    0.2300 C   0  0  0  0  0  0  0  0  0  0  0  0
   -6.7110    1.0390    1.5250 C   0  0  0  0  0  0  0  0  0  0  0  0
   -5.3820    1.2840    1.2440 C   0  0  0  0  0  0  0  0  0  0  0  0
    2.4710   -2.1660   -0.6120 C   0  0  0  0  0  0  0  0  0  0  0  0
    1.9560   -3.1420   -1.4600 C   0  0  0  0  0  0  0  0  0  0  0  0
    2.9590   -3.4640   -2.3850 C   0  0  0  0  0  0  0  0  0  0  0  0
    2.8250   -4.4700   -3.4770 C   0  0  0  0  0  0  0  0  0  0  0  0
    4.0130   -2.6960   -2.0740 N   0  0  0  0  0  0  0  0  0  0  0  0
    3.7460   -1.9100   -1.0160 C   0  0  0  0  0  0  0  0  0  0  0  0
  1  2  1  0
  2  3  1  0
  3  4  1  0
  4  5  2  0
  4 39  1  0
  5  6  1  0
  5 11  1  0
  6  7  2  0
  6  8  1  0
  8  9  1  0
  9 10  1  0
 11 12  1  0
 11 13  2  0
 13 14  1  0
 13 34  1  0
 14 15  1  0
 15 16  2  0
 15 17  1  0
 17 18  1  0
 18 19  1  0
 19 20  2  0
 19 21  1  0
 21 22  1  6
 21 23  1  0
 21 24  1  0
 24 25  2  0
 24 33  1  0
 25 26  1  0
 26 27  2  0
 27 28  1  0
 27 32  1  0
 28 29  2  0
 28 30  1  0
 30 31  1  0
 32 33  2  0
 34 35  1  0
 34 39  2  0
 35 36  2  0
 36 37  1  0
 36 38  1  0
 38 39  1  0
M  END
