
     RDKit          3D

 39 41  0  0  0  0  0  0  0  0999 V2000
   -6.3040   -0.8550   -1.8250 C   0  0  0  0  0  0  0  0  0  0  0  0
   -5.4340   -1.5840   -1.0960 C   0  0  0  0  0  0  0  0  0  0  0  0
   -4.1470   -0.9980   -0.7130 C   0  0  0  0  0  0  0  0  0  0  0  0
   -4.0410    0.3790   -0.8360 C   0  0  0  0  0  0  0  0  0  0  0  0
   -2.8260    0.9780   -0.7320 C   0  0  0  0  0  0  0  0  0  0  0  0
   -2.7570    2.3580   -0.8620 O   0  0  0  0  0  0  0  0  0  0  0  0
   -1.6820    0.2220   -0.5060 C   0  0  0  0  0  0  0  0  0  0  0  0
   -0.4390    0.9790   -0.2530 C   0  0  1  0  0  0  0  0  0  0  0  0
    0.6430    0.8470   -1.2070 C   0  0  0  0  0  0  0  0  0  0  0  0
    1.2020   -0.4150   -1.5560 C   0  0  0  0  0  0  0  0  0  0  0  0
    0.5880   -1.0300   -2.5870 O   0  0  0  0  0  0  0  0  0  0  0  0
    2.2880   -1.2140   -1.0820 C   0  0  0  0  0  0  0  0  0  0  0  0
    3.0500   -1.0040   -0.0410 C   0  0  0  0  0  0  0  0  0  0  0  0
    2.8890    0.0600    0.7950 O   0  0  0  0  0  0  0  0  0  0  0  0
    3.6520    1.1290    1.1350 C   0  0  0  0  0  0  0  0  0  0  0  0
    4.0530    2.0950    0.0480 C   0  0  0  0  0  0  0  0  0  0  0  0
    4.1450   -2.0020    0.1890 C   0  0  0  0  0  0  0  0  0  0  0  0
    4.9590   -1.9970    1.2050 C   0  0  0  0  0  0  0  0  0  0  0  0
    6.0010   -3.0670    1.2700 C   0  0  0  0  0  0  0  0  0  0  0  0
    6.6690   -3.1500   -0.0680 C   0  0  0  0  0  0  0  0  0  0  0  0
    5.6710   -3.4280   -1.1400 C   0  0  0  0  0  0  0  0  0  0  0  0
    4.3530   -3.0430   -0.7360 O   0  0  0  0  0  0  0  0  0  0  0  0
   -0.7970    2.3180    0.1800 N   0  0  0  0  0  0  0  0  0  0  0  0
   -0.2950    3.5460   -0.2580 C   0  0  0  0  0  0  0  0  0  0  0  0
    0.6010    3.5440   -1.1570 O   0  0  0  0  0  0  0  0  0  0  0  0
   -0.7890    4.8250    0.2880 C   0  0  0  0  0  0  0  0  0  0  0  0
   -0.7610    5.9640   -0.5130 C   0  0  0  0  0  0  0  0  0  0  0  0
   -1.3160    7.1150   -0.0150 C   0  0  0  0  0  0  0  0  0  0  0  0
   -1.8910    7.1950    1.2260 C   0  0  0  0  0  0  0  0  0  0  0  0
   -1.9040    6.0840    1.9810 N   0  0  0  0  0  0  0  0  0  0  0  0
   -1.3570    4.9280    1.5070 C   0  0  0  0  0  0  0  0  0  0  0  0
   -1.4160    3.9430    2.2880 O   0  0  0  0  0  0  0  0  0  0  0  0
   -1.8160   -1.1180   -0.3860 N   0  0  0  0  0  0  0  0  0  0  0  0
   -3.0390   -1.7260   -0.4790 C   0  0  0  0  0  0  0  0  0  0  0  0
   -3.1230   -3.1290    0.0060 C   0  0  0  0  0  0  0  0  0  0  0  0
   -4.1970   -3.4730    0.6740 C   0  0  0  0  0  0  0  0  0  0  0  0
   -4.5510   -4.7740    1.2490 C   0  0  0  0  0  0  0  0  0  0  0  0
   -1.9680   -3.9780   -0.2910 C   0  0  0  0  0  0  0  0  0  0  0  0
   -2.1030   -5.2860    0.2190 O   0  0  0  0  0  0  0  0  0  0  0  0
  1  2  2  0
  2  3  1  0
  3  4  2  0
  3 34  1  0
  4  5  1  0
  5  6  1  0
  5  7  2  0
  7  8  1  0
  7 33  1  0
  8  9  1  6
  8 23  1  0
  9 10  1  0
 10 11  2  0
 10 12  1  0
 12 13  2  3
 13 14  1  0
 13 17  1  0
 14 15  1  0
 15 16  1  0
 17 18  2  0
 17 22  1  0
 18 19  1  0
 19 20  1  0
 20 21  1  0
 21 22  1  0
 23 24  1  0
 24 25  2  0
 24 26  1  0
 26 27  2  0
 26 31  1  0
 27 28  1  0
 28 29  2  0
 29 30  1  0
 30 31  1  0
 31 32  2  0
 33 34  2  0
 34 35  1  0
 35 36  2  3
 35 38  1  0
 36 37  1  0
 38 39  1  0
M  END
