
     RDKit          3D

 23 22  0  0  0  0  0  0  0  0999 V2000
   -4.3370    1.0860   -1.6650 C   0  0  0  0  0  0  0  0  0  0  0  0
   -3.2410    1.9900   -1.3750 N   0  0  0  0  0  0  0  0  0  0  0  0
   -1.9700    1.5170   -1.8360 C   0  0  1  0  0  0  0  0  0  0  0  0
   -1.7510    2.1290   -3.2350 C   0  0  0  0  0  0  0  0  0  0  0  0
   -1.7730    3.5100   -3.0450 O   0  0  0  0  0  0  0  0  0  0  0  0
   -0.7830    1.8590   -1.0530 C   0  0  0  0  0  0  0  0  0  0  0  0
   -0.5660    1.4380    0.3250 C   0  0  2  0  0  0  0  0  0  0  0  0
    0.7370    2.0550    0.7030 N   0  0  0  0  0  0  0  0  0  0  0  0
   -0.5260    0.0470    0.7330 C   0  0  2  0  0  0  0  0  0  0  0  0
    0.4180   -0.9290    0.1680 C   0  0  0  0  0  0  0  0  0  0  0  0
    1.8450   -0.7100    0.3010 C   0  0  0  0  0  0  0  0  0  0  0  0
    2.4660   -0.1450   -0.6390 O   0  0  0  0  0  0  0  0  0  0  0  0
    2.6020   -1.0950    1.4330 N   0  0  0  0  0  0  0  0  0  0  0  0
    2.0140   -1.7380    2.5700 C   0  0  0  0  0  0  0  0  0  0  0  0
    4.0520   -0.8520    1.5050 C   0  0  0  0  0  0  0  0  0  0  0  0
    4.7900   -2.0070    0.9560 C   0  0  0  0  0  0  0  0  0  0  0  0
    4.6540   -3.2590    1.5380 O   0  0  0  0  0  0  0  0  0  0  0  0
    5.5750   -1.8560   -0.0800 N   0  0  0  0  0  0  0  0  0  0  0  0
    6.2580   -2.9630   -0.5760 O   0  0  0  0  0  0  0  0  0  0  0  0
   -1.8390   -0.5930    0.9280 C   0  0  0  0  0  0  0  0  0  0  0  0
   -2.9020    0.0620    1.0200 O   0  0  0  0  0  0  0  0  0  0  0  0
   -1.9570   -1.9940    1.0250 O   0  0  0  0  0  0  0  0  0  0  0  0
   -3.2360   -2.5790    1.2160 C   0  0  0  0  0  0  0  0  0  0  0  0
  1  2  1  0
  2  3  1  0
  3  4  1  6
  3  6  1  0
  4  5  1  0
  6  7  1  0
  7  8  1  6
  7  9  1  0
  9 10  1  6
  9 20  1  0
 10 11  1  0
 11 12  2  0
 11 13  1  0
 13 14  1  0
 13 15  1  0
 15 16  1  0
 16 17  1  0
 16 18  2  3
 18 19  1  0
 20 21  2  0
 20 22  1  0
 22 23  1  0
M  CHG  2   2   1   8   1
M  END
