
     RDKit          3D

 23 23  0  0  0  0  0  0  0  0999 V2000
    9.1320   -0.0960   -0.9350 N   0  0  0  0  0  0  0  0  0  0  0  0
    7.8170    0.2670   -0.5750 C   0  0  0  0  0  0  0  0  0  0  0  0
    7.3000    1.2890   -1.0680 O   0  0  0  0  0  0  0  0  0  0  0  0
    7.0620   -0.5540    0.3760 C   0  0  0  0  0  0  0  0  0  0  0  0
    5.7760   -0.0730    0.6410 O   0  0  0  0  0  0  0  0  0  0  0  0
    4.8510    0.0590   -0.3840 C   0  0  0  0  0  0  0  0  0  0  0  0
    5.2200   -0.2670   -1.5410 O   0  0  0  0  0  0  0  0  0  0  0  0
    3.4620    0.5760   -0.1070 C   0  0  0  0  0  0  0  0  0  0  0  0
    2.5750   -0.6260   -0.0180 C   0  0  0  0  0  0  0  0  0  0  0  0
    1.2520   -0.3740    0.2280 O   0  0  0  0  0  0  0  0  0  0  0  0
    1.0530    0.2840    1.4200 C   0  0  0  0  0  0  0  0  0  0  0  0
   -0.3870    0.5420    1.6830 C   0  0  0  0  0  0  0  0  0  0  0  0
   -0.8060    1.1270    2.7080 O   0  0  0  0  0  0  0  0  0  0  0  0
   -1.3320    0.1020    0.7240 N   0  0  0  0  0  0  0  0  0  0  0  0
   -2.7590    0.2950    0.8680 C   0  0  2  0  0  0  0  0  0  0  0  0
   -3.5260   -0.9870    0.9410 C   0  0  0  0  0  0  0  0  0  0  0  0
   -4.9360   -0.8500    0.4290 C   0  0  1  0  0  0  0  0  0  0  0  0
   -5.7420    0.0280    1.2240 N   0  0  0  0  0  0  0  0  0  0  0  0
   -6.6610    0.6560    0.4190 O   0  0  0  0  0  0  0  0  0  0  0  0
   -4.8750   -0.4910   -1.0210 C   0  0  0  0  0  0  0  0  0  0  0  0
   -3.8750    0.5520   -1.3700 C   0  0  2  0  0  0  0  0  0  0  0  0
   -2.8480    0.0520   -2.2950 N   0  0  0  0  0  0  0  0  0  0  0  0
   -3.2320    1.2300   -0.2050 C   0  0  0  0  0  0  0  0  0  0  0  0
  1  2  1  0
  2  3  2  0
  2  4  1  0
  4  5  1  0
  5  6  1  0
  6  7  2  0
  6  8  1  0
  8  9  1  0
  9 10  1  0
 10 11  1  0
 11 12  1  0
 12 13  2  0
 12 14  1  0
 15 14  1  6
 15 16  1  0
 15 23  1  0
 16 17  1  0
 17 18  1  1
 17 20  1  0
 18 19  1  0
 20 21  1  0
 21 22  1  1
 21 23  1  0
M  CHG  2  18   1  22   1
M  END
