
     RDKit          3D

 23 22  0  0  0  0  0  0  0  0999 V2000
    7.5660   -1.6130    0.6800 C   0  0  0  0  0  0  0  0  0  0  0  0
    7.0500   -0.3240    0.2550 N   0  0  0  0  0  0  0  0  0  0  0  0
    5.8320   -0.2410   -0.4650 C   0  0  0  0  0  0  0  0  0  0  0  0
    5.1750   -1.2750   -0.7500 O   0  0  0  0  0  0  0  0  0  0  0  0
    5.3700    1.0410   -0.8570 N   0  0  0  0  0  0  0  0  0  0  0  0
    4.1390    1.2320   -1.5950 C   0  0  0  0  0  0  0  0  0  0  0  0
    2.9720    0.7230   -0.8430 C   0  0  0  0  0  0  0  0  0  0  0  0
    3.1450    0.2060    0.2820 O   0  0  0  0  0  0  0  0  0  0  0  0
    1.7050    0.8090   -1.3620 O   0  0  0  0  0  0  0  0  0  0  0  0
    0.5260    0.3510   -0.7130 C   0  0  0  0  0  0  0  0  0  0  0  0
    0.2520    1.0490    0.5900 C   0  0  0  0  0  0  0  0  0  0  0  0
   -0.8500    0.6110    1.1780 O   0  0  0  0  0  0  0  0  0  0  0  0
   -2.0880    0.6430    0.6530 C   0  0  2  0  0  0  0  0  0  0  0  0
   -2.9270    1.7810    1.2550 C   0  0  0  0  0  0  0  0  0  0  0  0
   -4.3060    1.8750    0.7320 C   0  0  0  0  0  0  0  0  0  0  0  0
   -4.3620    2.1610   -0.7020 C   0  0  0  0  0  0  0  0  0  0  0  0
   -3.3370    2.3960   -1.3580 O   0  0  0  0  0  0  0  0  0  0  0  0
   -5.5830    2.1740   -1.3650 O   0  0  0  0  0  0  0  0  0  0  0  0
   -2.7740   -0.6600    0.7380 C   0  0  2  0  0  0  0  0  0  0  0  0
   -2.9310   -1.1680    2.0910 N   0  0  0  0  0  0  0  0  0  0  0  0
   -2.2560   -1.7290   -0.1830 C   0  0  2  0  0  0  0  0  0  0  0  0
   -2.3610   -1.3590   -1.6430 C   0  0  0  0  0  0  0  0  0  0  0  0
   -3.0080   -2.9740   -0.0300 N   0  0  0  0  0  0  0  0  0  0  0  0
  1  2  1  0
  2  3  1  0
  3  4  2  0
  3  5  1  0
  5  6  1  0
  6  7  1  0
  7  8  2  0
  7  9  1  0
  9 10  1  0
 10 11  1  0
 11 12  1  0
 12 13  1  0
 13 14  1  1
 13 19  1  0
 14 15  1  0
 15 16  1  0
 16 17  2  0
 16 18  1  0
 19 20  1  1
 19 21  1  0
 21 22  1  6
 21 23  1  0
M  CHG  2  20   1  23   1
M  END
