
     RDKit          3D

 17 18  0  0  0  0  0  0  0  0999 V2000
    5.5690    0.1480   -0.4470 N   0  0  0  0  0  0  0  0  0  0  0  0
    4.1450    0.0850   -0.3700 C   0  0  0  0  0  0  0  0  0  0  0  0
    3.4690   -0.6870   -1.2940 C   0  0  0  0  0  0  0  0  0  0  0  0
    2.0890   -0.7730   -1.2520 C   0  0  0  0  0  0  0  0  0  0  0  0
    1.3800   -0.0880   -0.2860 C   0  0  0  0  0  0  0  0  0  0  0  0
   -0.0750   -0.1570   -0.2150 C   0  0  0  0  0  0  0  0  0  0  0  0
   -0.8040   -0.3100   -1.3710 C   0  0  0  0  0  0  0  0  0  0  0  0
   -2.1810   -0.3760   -1.3160 C   0  0  0  0  0  0  0  0  0  0  0  0
   -2.8440   -0.2910   -0.1110 C   0  0  0  0  0  0  0  0  0  0  0  0
   -4.5750   -0.3660    0.0470 S   0  0  2  0  0  0  0  0  0  0  0  0
   -5.1920    1.2640   -0.0630 N   0  0  0  0  0  0  0  0  0  0  0  0
   -4.8930   -0.9730    1.3840 O   0  0  0  0  0  0  0  0  0  0  0  0
   -5.2020   -1.2270   -1.0080 O   0  0  0  0  0  0  0  0  0  0  0  0
   -2.0890   -0.1370    1.0430 C   0  0  0  0  0  0  0  0  0  0  0  0
   -0.7150   -0.0710    0.9850 C   0  0  0  0  0  0  0  0  0  0  0  0
    2.0790    0.6720    0.6190 C   0  0  0  0  0  0  0  0  0  0  0  0
    3.4530    0.7760    0.6010 C   0  0  0  0  0  0  0  0  0  0  0  0
  1  2  1  0
  2  3  2  0
  2 17  1  0
  3  4  1  0
  4  5  2  0
  5  6  1  0
  5 16  1  0
  6  7  2  0
  6 15  1  0
  7  8  1  0
  8  9  2  0
  9 10  1  0
  9 14  1  0
 10 11  1  1
 10 12  2  0
 10 13  2  0
 14 15  2  0
 16 17  2  0
M  END
