
     RDKit          3D

 23 22  0  0  0  0  0  0  0  0999 V2000
    5.9570    0.8600    1.7780 C   0  0  0  0  0  0  0  0  0  0  0  0
    5.2260    0.1990    0.8050 O   0  0  0  0  0  0  0  0  0  0  0  0
    4.2910   -0.6060    1.4520 C   0  0  0  0  0  0  0  0  0  0  0  0
    3.4420   -1.3720    0.4370 C   0  0  2  0  0  0  0  0  0  0  0  0
    4.3170   -2.3140   -0.3500 C   0  0  0  0  0  0  0  0  0  0  0  0
    2.7910   -0.4300   -0.3530 O   0  0  0  0  0  0  0  0  0  0  0  0
    1.3970   -0.3600   -0.3210 C   0  0  0  0  0  0  0  0  0  0  0  0
    0.8200   -1.1560    0.4210 O   0  0  0  0  0  0  0  0  0  0  0  0
    0.6830    0.5990   -1.1210 C   0  0  0  0  0  0  0  0  0  0  0  0
    1.3980    1.4120   -1.8850 C   0  0  0  0  0  0  0  0  0  0  0  0
    2.8170    1.3830   -1.9500 N   0  0  0  0  0  0  0  0  0  0  0  0
   -0.7210    0.7340   -1.1450 N   0  0  0  0  0  0  0  0  0  0  0  0
   -1.5520    1.0250   -0.0300 C   0  0  0  0  0  0  0  0  0  0  0  0
   -0.9360    1.1500    1.0850 O   0  0  0  0  0  0  0  0  0  0  0  0
   -3.0090    1.1780   -0.1490 C   0  0  2  0  0  0  0  0  0  0  0  0
   -3.5920    1.6500    1.1900 C   0  0  0  0  0  0  0  0  0  0  0  0
   -3.0220    2.9280    1.5830 N   0  0  0  0  0  0  0  0  0  0  0  0
   -3.8190    0.1160   -0.7650 C   0  0  0  0  0  0  0  0  0  0  0  0
   -3.8970   -1.1750   -0.2230 N   0  0  2  0  0  0  0  0  0  0  0  0
   -2.4860   -1.6750   -0.4290 C   0  0  0  0  0  0  0  0  0  0  0  0
   -4.8550   -1.9510   -0.8030 C   0  0  0  0  0  0  0  0  0  0  0  0
   -4.3250   -2.0320   -1.9020 O   0  0  0  0  0  0  0  0  0  0  0  0
   -6.0430   -2.6370   -0.7520 O   0  0  0  0  0  0  0  0  0  0  0  0
  1  2  1  0
  2  3  1  0
  3  4  1  0
  4  5  1  6
  4  6  1  0
  6  7  1  0
  7  8  2  0
  7  9  1  0
  9 10  2  3
  9 12  1  0
 10 11  1  0
 12 13  1  0
 13 14  2  0
 13 15  1  0
 15 16  1  1
 15 18  1  0
 16 17  1  0
 18 19  1  0
 19 20  1  6
 19 21  1  0
 21 22  2  0
 21 23  1  0
M  CHG  2  17   1  19   1
M  END
