
     RDKit          3D

 23 23  0  0  0  0  0  0  0  0999 V2000
    5.7540   -0.9790    1.5770 C   0  0  0  0  0  0  0  0  0  0  0  0
    5.0880   -0.4560    0.4730 O   0  0  0  0  0  0  0  0  0  0  0  0
    3.7100   -0.4900    0.6170 C   0  0  0  0  0  0  0  0  0  0  0  0
    3.1250    0.0900   -0.6200 C   0  0  0  0  0  0  0  0  0  0  0  0
    1.7260    0.1750   -0.7350 C   0  0  0  0  0  0  0  0  0  0  0  0
    0.9270   -0.3710    0.4130 C   0  0  0  0  0  0  0  0  0  0  0  0
   -0.2930   -0.2830    0.3930 O   0  0  0  0  0  0  0  0  0  0  0  0
   -1.5590   -0.1920    0.3720 C   0  0  1  0  0  0  0  0  0  0  0  0
   -2.1860   -1.3050    1.2510 C   0  0  0  0  0  0  0  0  0  0  0  0
   -1.6880   -2.6040    0.5620 C   0  0  0  0  0  0  0  0  0  0  0  0
   -2.1380   -2.6210   -0.7350 O   0  0  0  0  0  0  0  0  0  0  0  0
   -1.7840   -3.6650   -1.4190 O   0  0  0  0  0  0  0  0  0  0  0  0
   -2.1850    1.1350    0.6160 C   0  0  1  0  0  0  0  0  0  0  0  0
   -1.8320    2.1960   -0.4080 C   0  0  0  0  0  0  0  0  0  0  0  0
   -2.2470    1.9160   -1.7390 N   0  0  0  0  0  0  0  0  0  0  0  0
   -3.6000    1.1960    1.0100 C   0  0  0  0  0  0  0  0  0  0  0  0
   -4.0410    0.6300    2.2380 N   0  0  0  0  0  0  0  0  0  0  0  0
    1.1470    0.6790   -1.8070 N   0  0  0  0  0  0  0  0  0  0  0  0
    1.9160    1.1290   -2.8230 C   0  0  0  0  0  0  0  0  0  0  0  0
    1.3350    1.6030   -3.8280 O   0  0  0  0  0  0  0  0  0  0  0  0
    3.2500    1.0710   -2.7630 N   0  0  0  0  0  0  0  0  0  0  0  0
    3.8580    0.5610   -1.6810 C   0  0  0  0  0  0  0  0  0  0  0  0
    5.1120    0.5100   -1.6310 O   0  0  0  0  0  0  0  0  0  0  0  0
  1  2  1  0
  2  3  1  0
  3  4  1  0
  4  5  2  0
  4 22  1  0
  5  6  1  0
  5 18  1  0
  6  7  1  0
  7  8  1  0
  8  9  1  1
  8 13  1  0
  9 10  1  0
 10 11  1  0
 11 12  1  0
 13 14  1  6
 13 16  1  0
 14 15  1  0
 16 17  1  0
 18 19  1  0
 19 20  2  0
 19 21  1  0
 21 22  1  0
 22 23  2  0
M  CHG  2  15   1  17   1
M  END
