
     RDKit          3D

 23 23  0  0  0  0  0  0  0  0999 V2000
   -4.1690   -0.0410   -3.2240 C   0  0  0  0  0  0  0  0  0  0  0  0
   -3.8420    0.0550   -1.8600 O   0  0  0  0  0  0  0  0  0  0  0  0
   -2.5470   -0.1220   -1.3990 C   0  0  0  0  0  0  0  0  0  0  0  0
   -1.6770   -0.3790   -2.3000 O   0  0  0  0  0  0  0  0  0  0  0  0
   -2.1920   -0.0260    0.0150 C   0  0  2  0  0  0  0  0  0  0  0  0
   -2.5040    1.2920    0.6560 C   0  0  0  0  0  0  0  0  0  0  0  0
   -3.9680    1.6450    0.6130 C   0  0  2  0  0  0  0  0  0  0  0  0
   -4.1570    2.9490    1.2690 N   0  0  0  0  0  0  0  0  0  0  0  0
   -4.7720    0.5820    1.3500 C   0  0  0  0  0  0  0  0  0  0  0  0
   -6.1310    0.8920    1.3460 O   0  0  0  0  0  0  0  0  0  0  0  0
   -0.7360   -0.2810    0.1400 N   0  0  0  0  0  0  0  0  0  0  0  0
   -0.2540   -1.3520    0.8920 C   0  0  0  0  0  0  0  0  0  0  0  0
   -1.1180   -2.0990    1.4660 O   0  0  0  0  0  0  0  0  0  0  0  0
    1.1770   -1.6810    1.0710 C   0  0  1  0  0  0  0  0  0  0  0  0
    2.1270   -0.8390    0.4220 N   0  0  0  0  0  0  0  0  0  0  0  0
    3.5500   -0.9800    0.5200 C   0  0  0  0  0  0  0  0  0  0  0  0
    4.0460   -1.8800    1.2100 O   0  0  0  0  0  0  0  0  0  0  0  0
    4.4140   -0.1220   -0.1460 O   0  0  0  0  0  0  0  0  0  0  0  0
    5.8120   -0.3070   -0.0130 C   0  0  0  0  0  0  0  0  0  0  0  0
    6.5900    0.7170   -0.8050 C   0  0  0  0  0  0  0  0  0  0  0  0
    6.2580    0.6140   -2.1940 N   0  0  0  0  0  0  0  0  0  0  0  0
    1.5080   -2.3200    2.3880 C   0  0  0  0  0  0  0  0  0  0  0  0
    1.5740   -3.1170    1.1620 C   0  0  0  0  0  0  0  0  0  0  0  0
  1  2  1  0
  2  3  1  0
  3  4  2  0
  3  5  1  0
  5  6  1  6
  5 11  1  0
  6  7  1  0
  7  8  1  1
  7  9  1  0
  9 10  1  0
 11 12  1  0
 12 13  2  0
 12 14  1  0
 14 15  1  6
 14 22  1  0
 14 23  1  0
 15 16  1  0
 16 17  2  0
 16 18  1  0
 18 19  1  0
 19 20  1  0
 20 21  1  0
 22 23  1  0
M  CHG  2   8   1  21   1
M  END
