
     RDKit          3D

 23 23  0  0  0  0  0  0  0  0999 V2000
   -0.4970   -0.2330   -2.2920 C   0  0  0  0  0  0  0  0  0  0  0  0
   -0.1080   -0.1920   -0.7640 C   0  0  2  0  0  0  0  0  0  0  0  0
    0.1270    1.2620   -0.4510 C   0  0  0  0  0  0  0  0  0  0  0  0
   -0.9650    2.2340   -0.5880 C   0  0  0  0  0  0  0  0  0  0  0  0
   -2.0740    2.1470    0.3790 C   0  0  0  0  0  0  0  0  0  0  0  0
   -3.3620    2.6400    0.0420 N   0  0  0  0  0  0  0  0  0  0  0  0
   -1.9340    1.6430    1.5360 O   0  0  0  0  0  0  0  0  0  0  0  0
    1.0620   -0.8390   -0.6800 O   0  0  0  0  0  0  0  0  0  0  0  0
    1.7850   -1.2180    0.3270 C   0  0  0  0  0  0  0  0  0  0  0  0
    2.4060   -0.3310    1.3110 C   0  0  1  0  0  0  0  0  0  0  0  0
    3.1520   -1.2090    2.3060 N   0  0  0  0  0  0  0  0  0  0  0  0
    3.3480    0.7220    0.9270 C   0  0  0  0  0  0  0  0  0  0  0  0
    4.6140    0.3720    0.2460 C   0  0  0  0  0  0  0  0  0  0  0  0
    4.4400   -0.2560   -1.0230 N   0  0  0  0  0  0  0  0  0  0  0  0
   -1.2000   -0.7640    0.0130 C   0  0  0  0  0  0  0  0  0  0  0  0
   -0.9850   -1.4800    1.0530 O   0  0  0  0  0  0  0  0  0  0  0  0
   -2.5720   -0.6010   -0.3070 N   0  0  0  0  0  0  0  0  0  0  0  0
   -3.6290   -1.2000    0.4940 C   0  0  2  0  0  0  0  0  0  0  0  0
   -4.4390   -2.1840   -0.3570 C   0  0  0  0  0  0  0  0  0  0  0  0
   -5.4250   -1.4050   -0.9090 O   0  0  0  0  0  0  0  0  0  0  0  0
   -5.6350   -0.3420   -0.1390 O   0  0  0  0  0  0  0  0  0  0  0  0
   -4.7000   -0.2470    0.8620 C   0  0  0  0  0  0  0  0  0  0  0  0
   -4.7870    0.5070    1.8560 O   0  0  0  0  0  0  0  0  0  0  0  0
  2  1  1  6
  2  3  1  0
  2  8  1  0
  2 15  1  0
  3  4  1  0
  4  5  1  0
  5  6  1  0
  5  7  2  0
  8  9  1  0
  9 10  1  0
 10 11  1  1
 10 12  1  0
 12 13  1  0
 13 14  1  0
 15 16  2  0
 15 17  1  0
 18 17  1  6
 18 19  1  0
 18 22  1  0
 19 20  1  0
 20 21  1  0
 21 22  1  0
 22 23  2  0
M  CHG  2  11   1  14   1
M  END
