
     RDKit          3D

 22 22  0  0  0  0  0  0  0  0999 V2000
    3.1840    0.8540   -1.8920 N   0  0  0  0  0  0  0  0  0  0  0  0
    3.3150   -0.2420   -1.0040 C   0  0  0  0  0  0  0  0  0  0  0  0
    3.5700   -1.3840   -1.5180 O   0  0  0  0  0  0  0  0  0  0  0  0
    3.1600   -0.0620    0.4690 C   0  0  1  0  0  0  0  0  0  0  0  0
    4.2300    0.9000    0.9030 C   0  0  0  0  0  0  0  0  0  0  0  0
    4.2440    1.1900    2.3030 N   0  0  0  0  0  0  0  0  0  0  0  0
    1.7740    0.5300    0.6520 C   0  0  0  0  0  0  0  0  0  0  0  0
    0.7890   -0.4350    0.0650 C   0  0  0  0  0  0  0  0  0  0  0  0
   -0.6220    0.0070    0.1610 C   0  0  0  0  0  0  0  0  0  0  0  0
   -1.0990    0.3250    1.3000 O   0  0  0  0  0  0  0  0  0  0  0  0
   -1.4740    0.1040   -0.9080 O   0  0  0  0  0  0  0  0  0  0  0  0
   -2.8060    0.5050   -0.9030 C   0  0  1  0  0  0  0  0  0  0  0  0
   -3.0400    1.8010   -1.6500 C   0  0  0  0  0  0  0  0  0  0  0  0
   -2.2850    2.9000   -1.0930 N   0  0  0  0  0  0  0  0  0  0  0  0
   -3.7570   -0.5230   -1.4380 C   0  0  0  0  0  0  0  0  0  0  0  0
   -3.6800   -1.7970   -0.6080 C   0  0  1  0  0  0  0  0  0  0  0  0
   -4.0500   -1.4820    0.8420 C   0  0  0  0  0  0  0  0  0  0  0  0
   -5.0340   -2.5940    0.5950 C   0  0  0  0  0  0  0  0  0  0  0  0
   -4.7680   -2.6180   -0.7740 O   0  0  0  0  0  0  0  0  0  0  0  0
    3.3290   -1.3120    1.1110 N   0  0  0  0  0  0  0  0  0  0  0  0
    4.5410   -2.0390    0.9530 C   0  0  0  0  0  0  0  0  0  0  0  0
    5.5110   -1.6550    0.2630 O   0  0  0  0  0  0  0  0  0  0  0  0
  1  2  1  0
  2  3  2  0
  2  4  1  0
  4  5  1  1
  4  7  1  0
  4 20  1  0
  5  6  1  0
  7  8  1  0
  8  9  1  0
  9 10  2  0
  9 11  1  0
 11 12  1  0
 12 13  1  6
 12 15  1  0
 13 14  1  0
 16 15  1  6
 16 17  1  0
 16 19  1  0
 17 18  1  0
 18 19  1  0
 20 21  1  0
 21 22  2  0
M  CHG  2   6   1  14   1
M  END
