
     RDKit          3D

 25 27  0  0  0  0  0  0  0  0999 V2000
    7.5190    1.8810   -1.2920 C   0  0  0  0  0  0  0  0  0  0  0  0
    6.6280    0.9390   -0.9480 C   0  0  0  0  0  0  0  0  0  0  0  0
    5.2050    1.2190   -1.0060 C   0  0  0  0  0  0  0  0  0  0  0  0
    4.3410    0.2900   -0.6680 C   0  0  0  0  0  0  0  0  0  0  0  0
    2.9610    0.5620   -0.7240 N   0  0  0  0  0  0  0  0  0  0  0  0
    2.1780    0.4680    0.4580 C   0  0  0  0  0  0  0  0  0  0  0  0
    2.7960    0.1340    1.5220 O   0  0  0  0  0  0  0  0  0  0  0  0
    0.7890    0.7250    0.4870 N   0  0  0  0  0  0  0  0  0  0  0  0
   -0.0640    1.1090   -0.6080 C   0  0  0  0  0  0  0  0  0  0  0  0
   -1.2470    0.1720   -0.4000 C   0  0  0  0  0  0  0  0  0  0  0  0
   -1.3480    0.0910    1.0780 C   0  0  2  0  0  0  0  0  0  0  0  0
   -2.5080    0.6270    1.6880 N   0  0  0  0  0  0  0  0  0  0  0  0
   -3.4130    1.3560    0.8790 C   0  0  0  0  0  0  0  0  0  0  0  0
   -4.3440    0.4340    0.1880 C   0  0  0  0  0  0  0  0  0  0  0  0
   -4.3450   -0.8760    0.2940 C   0  0  0  0  0  0  0  0  0  0  0  0
   -5.3080   -1.7570   -0.4270 C   0  0  0  0  0  0  0  0  0  0  0  0
   -6.6810   -1.1400   -0.5470 C   0  0  0  0  0  0  0  0  0  0  0  0
   -6.7030    0.3320   -0.3000 C   0  0  0  0  0  0  0  0  0  0  0  0
   -5.4110    0.9920   -0.7360 C   0  0  0  0  0  0  0  0  0  0  0  0
   -0.0550    0.6460    1.6520 C   0  0  0  0  0  0  0  0  0  0  0  0
    4.8390   -1.0080   -0.2410 C   0  0  0  0  0  0  0  0  0  0  0  0
    3.9410   -2.0260    0.1270 O   0  0  0  0  0  0  0  0  0  0  0  0
    4.4230   -3.2720    0.6310 C   0  0  0  0  0  0  0  0  0  0  0  0
    6.0750   -1.3040   -0.1740 N   0  0  0  0  0  0  0  0  0  0  0  0
    7.1060   -0.3880   -0.5110 C   0  0  0  0  0  0  0  0  0  0  0  0
  1  2  2  0
  2  3  1  0
  2 25  1  0
  3  4  2  0
  4  5  1  0
  4 21  1  0
  5  6  1  0
  6  7  2  0
  6  8  1  0
  8  9  1  0
  8 20  1  0
  9 10  1  0
 10 11  1  0
 11 12  1  1
 11 20  1  0
 12 13  1  0
 13 14  1  0
 14 15  2  0
 14 19  1  0
 15 16  1  0
 16 17  1  0
 17 18  1  0
 18 19  1  0
 21 22  1  0
 21 24  2  0
 22 23  1  0
 24 25  1  0
M  CHG  1  12   1
M  END
