
     RDKit          3D

  9  9  0  0  0  0  0  0  0  0999 V2000
   -1.0470    3.1240   -0.6580 O   0  0  0  0  0  0  0  0  0  0  0  0
   -0.6120    2.0580   -0.1530 C   0  0  0  0  0  0  0  0  0  0  0  0
   -1.5710    1.0180   -0.0780 N   0  0  0  0  0  0  0  0  0  0  0  0
   -1.6620   -0.2450    0.5670 C   0  0  0  0  0  0  0  0  0  0  0  0
   -0.8980   -1.3380   -0.1810 C   0  0  0  0  0  0  0  0  0  0  0  0
    0.5740   -1.2940    0.1750 C   0  0  0  0  0  0  0  0  0  0  0  0
    1.3350   -0.2990   -0.6760 C   0  0  0  0  0  0  0  0  0  0  0  0
    2.0010    0.6850    0.2540 C   0  0  0  0  0  0  0  0  0  0  0  0
    1.0770    2.2230    0.3000 S   0  0  0  0  0  0  0  0  0  0  0  0
  1  2  2  0
  2  3  1  0
  2  9  1  0
  3  4  1  0
  4  5  1  0
  5  6  1  0
  6  7  1  0
  7  8  1  0
  8  9  1  0
M  END
