
     RDKit          3D

  9  9  0  0  0  0  0  0  0  0999 V2000
   -1.3170   -0.3390    1.5670 O   0  0  0  0  0  0  0  0  0  0  0  0
   -2.3380   -0.0450    0.6900 C   0  0  0  0  0  0  0  0  0  0  0  0
   -2.0020   -0.3750   -0.7310 C   0  0  0  0  0  0  0  0  0  0  0  0
   -0.8540    0.3820   -1.2760 C   0  0  0  0  0  0  0  0  0  0  0  0
    0.4180    0.1790   -0.5630 C   0  0  0  0  0  0  0  0  0  0  0  0
    1.3650   -0.5780   -0.9170 N   0  0  0  0  0  0  0  0  0  0  0  0
    2.5160   -0.6790   -0.1480 C   0  0  0  0  0  0  0  0  0  0  0  0
    2.7850    0.6100    0.6060 C   0  0  0  0  0  0  0  0  0  0  0  0
    1.0040    0.9400    0.9810 S   0  0  0  0  0  0  0  0  0  0  0  0
  1  2  1  0
  2  3  1  0
  3  4  1  0
  4  5  1  0
  5  6  2  0
  5  9  1  0
  6  7  1  0
  7  8  1  0
  8  9  1  0
M  END
