
     RDKit          3D

  8  8  0  0  0  0  0  0  0  0999 V2000
    2.0960    2.2190   -0.7300 O   0  0  0  0  0  0  0  0  0  0  0  0
    1.3390    1.4130   -0.0850 C   0  0  0  0  0  0  0  0  0  0  0  0
    1.8320    0.0410   -0.0780 C   0  0  0  0  0  0  0  0  0  0  0  0
    1.0870   -1.0450   -0.0970 C   0  0  0  0  0  0  0  0  0  0  0  0
   -0.3490   -1.2730   -0.1290 C   0  0  0  0  0  0  0  0  0  0  0  0
   -1.2040   -0.0900   -0.4060 C   0  0  0  0  0  0  0  0  0  0  0  0
   -1.3990    0.8480    0.7390 C   0  0  0  0  0  0  0  0  0  0  0  0
   -0.1290    2.1410    0.6490 S   0  0  0  0  0  0  0  0  0  0  0  0
  1  2  2  0
  2  3  1  0
  2  8  1  0
  3  4  2  0
  4  5  1  0
  5  6  1  0
  6  7  1  0
  7  8  1  0
M  END
