
     RDKit          3D

  8  8  0  0  0  0  0  0  0  0999 V2000
    2.5900    0.5880   -0.3260 C   0  0  0  0  0  0  0  0  0  0  0  0
    1.3430    0.0680    0.3340 C   0  0  1  0  0  0  0  0  0  0  0  0
    0.1290    0.8050   -0.2020 C   0  0  0  0  0  0  0  0  0  0  0  0
   -1.0090    0.3720    0.5870 N   0  0  0  0  0  0  0  0  0  0  0  0
   -2.2230    1.0470    0.1790 C   0  0  0  0  0  0  0  0  0  0  0  0
   -1.1450   -1.0580    0.4200 C   0  0  0  0  0  0  0  0  0  0  0  0
   -0.0200   -1.6710   -0.3570 C   0  0  0  0  0  0  0  0  0  0  0  0
    1.2290   -1.2720    0.0600 O   0  0  0  0  0  0  0  0  0  0  0  0
  2  1  1  6
  2  3  1  0
  2  8  1  0
  3  4  1  0
  4  5  1  0
  4  6  1  0
  6  7  1  0
  7  8  1  0
M  END
