
     RDKit          3D

  9  9  0  0  0  0  0  0  0  0999 V2000
    2.9170   -0.6970   -0.2090 C   0  0  0  0  0  0  0  0  0  0  0  0
    1.6990   -0.1230   -1.4120 S   0  0  0  0  0  0  0  0  0  0  0  0
    0.3190    0.5960   -0.5310 C   0  0  0  0  0  0  0  0  0  0  0  0
    0.1570    1.8870   -0.1510 N   0  0  0  0  0  0  0  0  0  0  0  0
   -1.0290    1.9970    0.4890 C   0  0  0  0  0  0  0  0  0  0  0  0
   -1.6580    0.7880    0.5370 C   0  0  0  0  0  0  0  0  0  0  0  0
   -2.8800    0.4280    1.0890 O   0  0  0  0  0  0  0  0  0  0  0  0
   -0.8140   -0.0970   -0.1030 C   0  0  0  0  0  0  0  0  0  0  0  0
   -1.0160   -1.5640   -0.3350 C   0  0  0  0  0  0  0  0  0  0  0  0
  1  2  1  0
  2  3  1  0
  3  4  1  0
  3  8  2  0
  4  5  1  0
  5  6  2  0
  6  7  1  0
  6  8  1  0
  8  9  1  0
M  END
