
     RDKit          3D

 10 11  0  0  0  0  0  0  0  0999 V2000
    2.5370   -0.7070    0.2050 N   0  0  0  0  0  0  0  0  0  0  0  0
    1.1870   -1.0700   -0.1100 C   0  0  0  0  0  0  0  0  0  0  0  0
    0.8570   -2.7800   -0.2850 Cl  0  0  0  0  0  0  0  0  0  0  0  0
    0.2460   -0.1640   -0.2600 C   0  0  0  0  0  0  0  0  0  0  0  0
   -1.1940   -0.2350   -0.5770 C   0  0  1  0  0  0  0  0  0  0  0  0
   -1.9620   -0.5310    0.6130 N   0  0  0  0  0  0  0  0  0  0  0  0
   -1.1410    1.2100   -0.8420 N   0  0  0  0  0  0  0  0  0  0  0  0
   -0.9600    1.8760    0.4910 N   0  0  0  0  0  0  0  0  0  0  0  0
    0.1010    1.2910   -0.2040 C   0  0  1  0  0  0  0  0  0  0  0  0
    1.4280    2.2770   -0.8350 Cl  0  0  0  0  0  0  0  0  0  0  0  0
  1  2  1  0
  2  3  1  0
  2  4  2  3
  4  5  1  0
  4  9  1  0
  5  6  1  1
  5  7  1  0
  7  8  1  0
  7  9  1  0
  8  9  1  0
  9 10  1  6
M  END
