
     RDKit          3D

 13 14  0  0  0  0  0  0  0  0999 V2000
    2.1570   -1.7360    0.7460 N   0  0  0  0  0  0  0  0  0  0  0  0
    1.2350   -0.9040    0.5250 C   0  0  0  0  0  0  0  0  0  0  0  0
   -0.1640   -0.9620    0.9330 N   0  0  0  0  0  0  0  0  0  0  0  0
   -0.8220   -0.2950   -0.1430 C   0  0  1  0  0  0  0  0  0  0  0  0
   -0.6120   -0.9910   -1.3550 O   0  0  0  0  0  0  0  0  0  0  0  0
   -1.1160   -2.1940   -1.1650 O   0  0  0  0  0  0  0  0  0  0  0  0
   -2.1370    0.2370   -0.0260 C   0  0  0  0  0  0  0  0  0  0  0  0
   -2.0610    1.5440   -0.0090 N   0  0  0  0  0  0  0  0  0  0  0  0
   -0.7310    1.9480   -0.0990 N   0  0  0  0  0  0  0  0  0  0  0  0
   -0.1640    3.5900   -0.1200 Cl  0  0  0  0  0  0  0  0  0  0  0  0
    0.0190    0.9360   -0.1710 N   0  0  0  0  0  0  0  0  0  0  0  0
    1.3320    0.3800   -0.2150 C   0  0  0  0  0  0  0  0  0  0  0  0
    2.3390    0.9230   -0.7730 N   0  0  0  0  0  0  0  0  0  0  0  0
  1  2  2  0
  2  3  1  0
  2 12  1  0
  3  4  1  0
  4  5  1  6
  4  7  1  0
  4 11  1  0
  5  6  1  0
  7  8  2  0
  8  9  1  0
  9 10  1  0
  9 11  2  0
 11 12  1  0
 12 13  2  0
M  CHG  3   6  -1   9   1  11   1
M  END
