
     RDKit          3D

 12 12  0  0  0  0  0  0  0  0999 V2000
   -1.2700    0.2650    1.8900 C   0  0  0  0  0  0  0  0  0  0  0  0
   -0.3470    0.4630    0.8270 N   0  0  0  0  0  0  0  0  0  0  0  0
    0.0680    1.5270    0.4310 N   0  0  0  0  0  0  0  0  0  0  0  0
    0.3100    1.6170   -0.8100 C   0  0  0  0  0  0  0  0  0  0  0  0
    0.4640    2.7920   -1.5250 O   0  0  0  0  0  0  0  0  0  0  0  0
    0.3810    0.2280   -1.2600 C   0  0  0  0  0  0  0  0  0  0  0  0
    0.5010   -0.1500   -2.4660 N   0  0  0  0  0  0  0  0  0  0  0  0
    0.6050    0.9100   -3.8150 Cl  0  0  0  0  0  0  0  0  0  0  0  0
    0.2770   -0.5310    0.0130 C   0  0  2  0  0  0  0  0  0  0  0  0
   -0.4840   -1.8050   -0.1110 C   0  0  0  0  0  0  0  0  0  0  0  0
    1.6270   -0.7600    0.4680 N   0  0  0  0  0  0  0  0  0  0  0  0
    2.2920   -1.6730   -0.2310 O   0  0  0  0  0  0  0  0  0  0  0  0
  1  2  1  0
  2  3  2  0
  2  9  1  0
  3  4  2  0
  4  5  1  0
  4  6  1  0
  6  7  2  3
  6  9  1  0
  7  8  1  0
  9 10  1  6
  9 11  1  0
 11 12  1  0
M  CHG  3   2   1   3   1  12  -1
M  END
