
     RDKit          3D

 12 12  0  0  0  0  0  0  0  0999 V2000
   -2.4640    0.0510    0.0680 C   0  0  0  0  0  0  0  0  0  0  0  0
   -1.0210   -0.0910    0.0330 N   0  0  0  0  0  0  0  0  0  0  0  0
   -0.2720   -1.2820   -0.1620 C   0  0  0  0  0  0  0  0  0  0  0  0
   -0.7650   -2.4800   -0.3480 N   0  0  0  0  0  0  0  0  0  0  0  0
    1.1240   -0.8880   -0.1120 C   0  0  0  0  0  0  0  0  0  0  0  0
    2.1920   -1.7970   -0.2650 O   0  0  0  0  0  0  0  0  0  0  0  0
    3.7200   -1.2040   -0.8400 Cl  0  0  0  0  0  0  0  0  0  0  0  0
    1.2880    0.3670    0.0860 N   0  0  0  0  0  0  0  0  0  0  0  0
    2.4880    1.0890    0.1910 N   0  0  0  0  0  0  0  0  0  0  0  0
   -0.0410    0.9200    0.1850 C   0  0  0  0  0  0  0  0  0  0  0  0
   -0.2600    2.1650    0.3840 N   0  0  0  0  0  0  0  0  0  0  0  0
   -1.5260    2.6250    0.4670 O   0  0  0  0  0  0  0  0  0  0  0  0
  1  2  1  0
  2  3  1  0
  2 10  1  0
  3  4  2  0
  3  5  1  0
  5  6  1  0
  5  8  2  0
  6  7  1  0
  8  9  1  0
  8 10  1  0
 10 11  2  3
 11 12  1  0
M  CHG  2   8   1  12  -1
M  END
