
     RDKit          3D

 13 13  0  0  0  0  0  0  0  0999 V2000
   -2.6790   -1.0570   -0.4370 C   0  0  0  0  0  0  0  0  0  0  0  0
   -1.5180   -0.2540   -0.1230 N   0  0  0  0  0  0  0  0  0  0  0  0
   -1.7110    1.0250   -0.1340 C   0  0  0  0  0  0  0  0  0  0  0  0
   -0.8690    2.1570    0.1110 N   0  0  0  0  0  0  0  0  0  0  0  0
    0.4920    2.2910    0.4870 N   0  0  0  0  0  0  0  0  0  0  0  0
    1.4540    1.4560    0.4020 N   0  0  0  0  0  0  0  0  0  0  0  0
    1.6820    0.1070   -0.0540 C   0  0  2  0  0  0  0  0  0  0  0  0
    3.1570   -0.1920    0.1590 C   0  0  0  0  0  0  0  0  0  0  0  0
    1.4030   -0.0240   -1.8250 Cl  0  0  0  0  0  0  0  0  0  0  0  0
    0.9160   -0.8870    0.5830 N   0  0  0  0  0  0  0  0  0  0  0  0
    1.1180   -1.0340    2.2720 Cl  0  0  0  0  0  0  0  0  0  0  0  0
   -0.3860   -1.0320    0.1390 N   0  0  0  0  0  0  0  0  0  0  0  0
   -0.6500   -2.3360   -0.1280 O   0  0  0  0  0  0  0  0  0  0  0  0
  1  2  1  0
  2  3  2  0
  2 12  1  0
  3  4  1  0
  4  5  1  0
  5  6  2  0
  6  7  1  0
  7  8  1  6
  7  9  1  0
  7 10  1  0
 10 11  1  0
 10 12  1  0
 12 13  1  0
M  CHG  2   2   1  13  -1
M  END
