
     RDKit          3D

 11 11  0  0  0  0  0  0  0  0999 V2000
    2.9640   -0.5690    0.7360 C   0  0  0  0  0  0  0  0  0  0  0  0
    1.7280   -0.9860    0.5990 C   0  0  0  0  0  0  0  0  0  0  0  0
    1.3290   -2.6620    0.3730 Cl  0  0  0  0  0  0  0  0  0  0  0  0
    0.6890   -0.0350    0.6370 N   0  0  0  0  0  0  0  0  0  0  0  0
    0.2790    0.3490    1.7710 N   0  0  0  0  0  0  0  0  0  0  0  0
    0.1740    0.4270   -0.5670 N   0  0  0  0  0  0  0  0  0  0  0  0
   -1.0780    0.4620   -0.8600 C   0  0  0  0  0  0  0  0  0  0  0  0
   -1.3960    0.9810   -2.1680 N   0  0  0  0  0  0  0  0  0  0  0  0
   -2.1300    0.0550   -0.0500 N   0  0  0  0  0  0  0  0  0  0  0  0
   -3.0980   -0.8340    0.1580 C   0  0  0  0  0  0  0  0  0  0  0  0
   -2.9880    0.1400    1.0460 N   0  0  0  0  0  0  0  0  0  0  0  0
  1  2  2  0
  2  3  1  0
  2  4  1  0
  4  5  2  0
  4  6  1  0
  6  7  2  3
  7  8  1  0
  7  9  1  0
  9 10  2  0
  9 11  1  0
 10 11  2  0
M  CHG  2   4   1   9   1
M  END
