
     RDKit          3D

 37 41  0  0  0  0  0  0  0  0999 V2000
    5.4340    4.1510    0.9640 C   0  0  0  0  0  0  0  0  0  0  0  0
    6.2550    3.1160    0.9560 C   0  0  0  0  0  0  0  0  0  0  0  0
    5.9100    1.8390    1.6330 C   0  0  0  0  0  0  0  0  0  0  0  0
    5.9020    0.7630    0.6120 C   0  0  0  0  0  0  0  0  0  0  0  0
    4.7500    0.2130    0.0910 C   0  0  0  0  0  0  0  0  0  0  0  0
    4.8120   -0.7760   -0.8490 C   0  0  0  0  0  0  0  0  0  0  0  0
    3.7150   -1.4320   -1.4410 N   0  0  0  0  0  0  0  0  0  0  0  0
    2.3640   -1.3860   -1.0240 C   0  0  0  0  0  0  0  0  0  0  0  0
    2.0680   -0.7000   -0.0200 O   0  0  0  0  0  0  0  0  0  0  0  0
    1.3310   -2.1510   -1.7860 C   0  0  0  0  0  0  0  0  0  0  0  0
    0.0550   -1.9310   -1.0780 N   0  0  0  0  0  0  0  0  0  0  0  0
   -0.4470   -2.6620   -0.0960 C   0  0  0  0  0  0  0  0  0  0  0  0
   -1.6840   -2.1270    0.3220 C   0  0  0  0  0  0  0  0  0  0  0  0
   -2.4510   -2.6790    1.4140 C   0  0  0  0  0  0  0  0  0  0  0  0
   -3.6200   -2.5040    1.8690 C   0  0  0  0  0  0  0  0  0  0  0  0
   -4.8180   -1.7820    1.6810 C   0  0  0  0  0  0  0  0  0  0  0  0
   -5.7550   -2.0240    2.5830 O   0  0  0  0  0  0  0  0  0  0  0  0
   -5.2490   -0.8580    0.7390 N   0  0  0  0  0  0  0  0  0  0  0  0
   -6.5620   -0.2490    0.7750 C   0  0  0  0  0  0  0  0  0  0  0  0
   -7.5250   -0.4760    1.6880 N   0  0  0  0  0  0  0  0  0  0  0  0
   -8.6120    0.2620    1.4120 C   0  0  0  0  0  0  0  0  0  0  0  0
   -9.8660    0.4150    2.0110 C   0  0  0  0  0  0  0  0  0  0  0  0
  -10.8070    1.2770    1.4770 C   0  0  0  0  0  0  0  0  0  0  0  0
  -10.5140    1.9970    0.3430 C   0  0  0  0  0  0  0  0  0  0  0  0
   -9.2830    1.8440   -0.2410 C   0  0  0  0  0  0  0  0  0  0  0  0
   -8.9660    2.6160   -1.4580 C   0  0  0  0  0  0  0  0  0  0  0  0
   -8.3340    0.9920    0.2740 C   0  0  0  0  0  0  0  0  0  0  0  0
   -7.0700    0.6490   -0.0810 N   0  0  0  0  0  0  0  0  0  0  0  0
   -1.8500   -1.0440   -0.4870 C   0  0  0  0  0  0  0  0  0  0  0  0
   -0.7870   -0.9640   -1.3090 N   0  0  0  0  0  0  0  0  0  0  0  0
    6.0800   -1.1990   -1.2550 C   0  0  0  0  0  0  0  0  0  0  0  0
    7.2360   -0.6770   -0.7610 C   0  0  0  0  0  0  0  0  0  0  0  0
    7.1590    0.3250    0.1920 C   0  0  0  0  0  0  0  0  0  0  0  0
    8.3310    0.8630    0.7020 O   0  0  0  0  0  0  0  0  0  0  0  0
    9.5240    0.6470   -0.0240 C   0  0  0  0  0  0  0  0  0  0  0  0
    9.6530   -0.8220   -0.3610 C   0  0  0  0  0  0  0  0  0  0  0  0
    8.5180   -1.1540   -1.2150 N   0  0  0  0  0  0  0  0  0  0  0  0
  1  2  2  0
  2  3  1  0
  3  4  1  0
  4  5  2  0
  4 33  1  0
  5  6  1  0
  6  7  1  0
  6 31  2  0
  7  8  1  0
  8  9  2  0
  8 10  1  0
 10 11  1  0
 11 12  1  0
 11 30  1  0
 12 13  2  0
 13 14  1  0
 13 29  1  0
 14 15  2  3
 15 16  1  0
 16 17  2  0
 16 18  1  0
 18 19  1  0
 19 20  2  0
 19 28  1  0
 20 21  1  0
 21 22  2  0
 21 27  1  0
 22 23  1  0
 23 24  2  0
 24 25  1  0
 25 26  1  0
 25 27  2  0
 27 28  1  0
 29 30  2  0
 31 32  1  0
 32 33  2  0
 32 37  1  0
 33 34  1  0
 34 35  1  0
 35 36  1  0
 36 37  1  0
M  END
