
     RDKit          3D

 37 41  0  0  0  0  0  0  0  0999 V2000
   -7.0290   -2.7670    0.8440 C   0  0  0  0  0  0  0  0  0  0  0  0
   -5.9980   -3.8450    0.8820 C   0  0  0  0  0  0  0  0  0  0  0  0
   -6.3810   -5.1280    1.1290 C   0  0  0  0  0  0  0  0  0  0  0  0
   -5.4410   -6.1260    1.1650 C   0  0  0  0  0  0  0  0  0  0  0  0
   -4.1370   -5.7880    0.9500 C   0  0  0  0  0  0  0  0  0  0  0  0
   -3.7510   -4.4630    0.6960 C   0  0  0  0  0  0  0  0  0  0  0  0
   -4.6790   -3.4510    0.6550 C   0  0  0  0  0  0  0  0  0  0  0  0
   -4.3380   -2.0640    0.3980 C   0  0  0  0  0  0  0  0  0  0  0  0
   -3.1170   -1.6560    0.1810 C   0  0  0  0  0  0  0  0  0  0  0  0
   -2.8140   -0.2930   -0.0670 N   0  0  0  0  0  0  0  0  0  0  0  0
   -3.7520    0.6690   -0.0840 N   0  0  0  0  0  0  0  0  0  0  0  0
   -3.1950    1.8650   -0.3350 C   0  0  0  0  0  0  0  0  0  0  0  0
   -3.8740    3.1720   -0.4360 C   0  0  0  0  0  0  0  0  0  0  0  0
   -5.1180    3.2640   -0.2840 O   0  0  0  0  0  0  0  0  0  0  0  0
   -3.1490    4.3600   -0.7080 N   0  0  0  0  0  0  0  0  0  0  0  0
   -3.8810    5.6060   -0.7930 C   0  0  1  0  0  0  0  0  0  0  0  0
   -3.1860    6.8130   -0.0870 C   0  0  0  0  0  0  0  0  0  0  0  0
   -3.3230    6.7530   -1.5490 C   0  0  0  0  0  0  0  0  0  0  0  0
   -1.8550    1.6020   -0.4750 C   0  0  0  0  0  0  0  0  0  0  0  0
   -1.6110    0.2560   -0.3100 C   0  0  0  0  0  0  0  0  0  0  0  0
   -0.2990   -0.4190   -0.3990 C   0  0  0  0  0  0  0  0  0  0  0  0
    0.7650    0.0990    0.0740 N   0  0  0  0  0  0  0  0  0  0  0  0
    1.9180   -0.7610   -0.1420 C   0  0  0  0  0  0  0  0  0  0  0  0
    3.1240   -0.4140    0.2720 C   0  0  0  0  0  0  0  0  0  0  0  0
    4.2800   -1.2360    0.0760 C   0  0  0  0  0  0  0  0  0  0  0  0
    4.2850   -2.3350   -0.4880 O   0  0  0  0  0  0  0  0  0  0  0  0
    5.5530   -0.7780    0.5600 N   0  0  0  0  0  0  0  0  0  0  0  0
    6.7540   -1.6000    0.3720 C   0  0  0  0  0  0  0  0  0  0  0  0
    7.9150   -0.8200    0.9980 C   0  0  0  0  0  0  0  0  0  0  0  0
    8.0720    0.4940    0.3260 C   0  0  0  0  0  0  0  0  0  0  0  0
    7.9800    1.6760    0.9100 C   0  0  0  0  0  0  0  0  0  0  0  0
    8.2050    2.6840   -0.1420 C   0  0  0  0  0  0  0  0  0  0  0  0
    8.4280    1.9040   -1.3630 C   0  0  0  0  0  0  0  0  0  0  0  0
    8.3440    0.6580   -1.0530 N   0  0  0  0  0  0  0  0  0  0  0  0
    1.3930   -1.8990   -0.8310 C   0  0  0  0  0  0  0  0  0  0  0  0
    2.0060   -2.8970   -1.2240 O   0  0  0  0  0  0  0  0  0  0  0  0
   -0.0270   -1.6590   -0.9850 N   0  0  0  0  0  0  0  0  0  0  0  0
  1  2  1  0
  2  3  2  0
  2  7  1  0
  3  4  1  0
  4  5  2  0
  5  6  1  0
  6  7  2  0
  7  8  1  0
  8  9  2  3
  9 10  1  0
 10 11  1  0
 10 20  1  0
 11 12  2  0
 12 13  1  0
 12 19  1  0
 13 14  2  0
 13 15  1  0
 16 15  1  6
 16 17  1  0
 16 18  1  0
 17 18  1  0
 19 20  2  0
 20 21  1  0
 21 22  2  0
 21 37  1  0
 22 23  1  0
 23 24  2  3
 23 35  1  0
 24 25  1  0
 25 26  2  0
 25 27  1  0
 27 28  1  0
 28 29  1  0
 29 30  1  0
 30 31  2  0
 30 34  1  0
 31 32  1  0
 32 33  1  0
 33 34  2  0
 35 36  2  0
 35 37  1  0
M  END
