
     RDKit          3D

 37 41  0  0  0  0  0  0  0  0999 V2000
   -9.1900   -0.2830    0.2800 C   0  0  0  0  0  0  0  0  0  0  0  0
   -8.1490   -1.1090    1.0450 C   0  0  2  0  0  0  0  0  0  0  0  0
   -8.1350   -0.6150    2.4470 C   0  0  0  0  0  0  0  0  0  0  0  0
   -6.9390    0.2500    2.7570 C   0  0  0  0  0  0  0  0  0  0  0  0
   -5.6980   -0.6040    2.4130 C   0  0  0  0  0  0  0  0  0  0  0  0
   -5.6540   -0.6820    0.9390 C   0  0  0  0  0  0  0  0  0  0  0  0
   -4.4930   -0.5190    0.2320 C   0  0  0  0  0  0  0  0  0  0  0  0
   -3.2780   -0.3210    0.8900 N   0  0  0  0  0  0  0  0  0  0  0  0
   -2.0520   -0.0530    0.2420 C   0  0  0  0  0  0  0  0  0  0  0  0
   -1.7920    0.0750   -1.0440 N   0  0  0  0  0  0  0  0  0  0  0  0
   -0.4880    0.3290   -1.2530 C   0  0  0  0  0  0  0  0  0  0  0  0
    0.1820    0.5330   -2.5420 C   0  0  0  0  0  0  0  0  0  0  0  0
    1.5500    0.8000   -2.2990 O   0  0  0  0  0  0  0  0  0  0  0  0
    1.9220    1.8900   -1.5450 C   0  0  0  0  0  0  0  0  0  0  0  0
    0.9860    2.6230   -1.0920 O   0  0  0  0  0  0  0  0  0  0  0  0
    3.2830    2.2490   -1.2410 C   0  0  0  0  0  0  0  0  0  0  0  0
    3.6690    3.3480   -0.4770 C   0  0  0  0  0  0  0  0  0  0  0  0
    5.0440    3.3240   -0.4290 C   0  0  0  0  0  0  0  0  0  0  0  0
    5.8380    4.2800    0.2560 N   0  0  0  0  0  0  0  0  0  0  0  0
    5.4550    2.2450   -1.1420 C   0  0  0  0  0  0  0  0  0  0  0  0
    4.3800    1.5870   -1.6390 N   0  0  0  0  0  0  0  0  0  0  0  0
    4.4300    0.3990   -2.4470 C   0  0  0  0  0  0  0  0  0  0  0  0
    4.3840   -0.8610   -1.6050 C   0  0  0  0  0  0  0  0  0  0  0  0
    5.4960   -0.8990   -0.7020 N   0  0  0  0  0  0  0  0  0  0  0  0
    6.0900   -1.9700   -0.3030 C   0  0  0  0  0  0  0  0  0  0  0  0
    7.2020   -1.8940    0.6080 C   0  0  0  0  0  0  0  0  0  0  0  0
    7.6390   -0.6610    1.0610 C   0  0  0  0  0  0  0  0  0  0  0  0
    8.7070   -0.5690    1.9370 C   0  0  0  0  0  0  0  0  0  0  0  0
    9.3400   -1.6960    2.3620 N   0  0  0  0  0  0  0  0  0  0  0  0
    8.9500   -2.9130    1.9480 C   0  0  0  0  0  0  0  0  0  0  0  0
    7.8780   -3.0050    1.0690 C   0  0  0  0  0  0  0  0  0  0  0  0
    0.0550    0.3540   -0.0250 N   0  0  0  0  0  0  0  0  0  0  0  0
   -0.8740    0.1280    0.8370 O   0  0  0  0  0  0  0  0  0  0  0  0
   -4.5610   -0.5920   -1.1360 C   0  0  0  0  0  0  0  0  0  0  0  0
   -5.7790   -0.8260   -1.8020 C   0  0  0  0  0  0  0  0  0  0  0  0
   -6.9090   -0.9820   -1.0450 C   0  0  0  0  0  0  0  0  0  0  0  0
   -6.8600   -0.9130    0.3170 C   0  0  0  0  0  0  0  0  0  0  0  0
  2  1  1  6
  2  3  1  0
  2 37  1  0
  3  4  1  0
  4  5  1  0
  5  6  1  0
  6  7  2  0
  6 37  1  0
  7  8  1  0
  7 34  1  0
  8  9  1  0
  9 10  2  0
  9 33  1  0
 10 11  1  0
 11 12  1  0
 11 32  2  0
 12 13  1  0
 13 14  1  0
 14 15  2  0
 14 16  1  0
 16 17  2  0
 16 21  1  0
 17 18  1  0
 18 19  1  0
 18 20  2  0
 20 21  1  0
 21 22  1  0
 22 23  1  0
 23 24  1  0
 24 25  2  3
 25 26  1  0
 26 27  2  0
 26 31  1  0
 27 28  1  0
 28 29  2  0
 29 30  1  0
 30 31  2  0
 32 33  1  0
 34 35  2  0
 35 36  1  0
 36 37  2  0
M  END
