
     RDKit          3D

 37 40  0  0  0  0  0  0  0  0999 V2000
    6.8060    1.1740   -0.3030 C   0  0  0  0  0  0  0  0  0  0  0  0
    5.9000    0.2870   -0.1580 C   0  0  0  0  0  0  0  0  0  0  0  0
    5.2690   -0.0520    1.1700 C   0  0  0  0  0  0  0  0  0  0  0  0
    5.3950   -0.5110   -1.3250 C   0  0  0  0  0  0  0  0  0  0  0  0
    3.9870   -0.1890   -1.5530 N   0  0  0  0  0  0  0  0  0  0  0  0
    3.5950    0.8720   -2.3010 N   0  0  0  0  0  0  0  0  0  0  0  0
    2.2830    0.9590   -2.2920 N   0  0  0  0  0  0  0  0  0  0  0  0
    1.7650   -0.0520   -1.5320 C   0  0  0  0  0  0  0  0  0  0  0  0
    0.3760   -0.2380   -1.2770 C   0  0  0  0  0  0  0  0  0  0  0  0
   -0.4990    0.5210   -0.6590 C   0  0  0  0  0  0  0  0  0  0  0  0
   -1.8620    0.1160   -0.5450 N   0  0  0  0  0  0  0  0  0  0  0  0
   -2.4880   -0.8900   -1.3450 C   0  0  2  0  0  0  0  0  0  0  0  0
   -2.6170   -0.3370   -2.7500 C   0  0  0  0  0  0  0  0  0  0  0  0
   -3.8010   -1.2850   -0.8460 C   0  0  0  0  0  0  0  0  0  0  0  0
   -4.9650   -1.0290   -1.4810 C   0  0  0  0  0  0  0  0  0  0  0  0
   -6.2150   -1.3980   -0.9760 C   0  0  0  0  0  0  0  0  0  0  0  0
   -7.4400   -1.0980   -1.7650 C   0  0  0  0  0  0  0  0  0  0  0  0
   -6.2180   -2.0520    0.2380 C   0  0  0  0  0  0  0  0  0  0  0  0
   -5.0690   -2.3230    0.8970 C   0  0  0  0  0  0  0  0  0  0  0  0
   -5.0640   -3.0240    2.2380 C   0  0  0  0  0  0  0  0  0  0  0  0
   -3.8320   -1.9600    0.3930 C   0  0  0  0  0  0  0  0  0  0  0  0
   -2.5670   -2.2300    1.0290 C   0  0  0  0  0  0  0  0  0  0  0  0
   -1.9770   -1.4140    1.9560 N   0  0  0  0  0  0  0  0  0  0  0  0
   -0.8110   -1.9600    2.3320 C   0  0  0  0  0  0  0  0  0  0  0  0
   -0.6760   -3.0720    1.6660 O   0  0  0  0  0  0  0  0  0  0  0  0
   -1.7130   -3.2530    0.8830 N   0  0  0  0  0  0  0  0  0  0  0  0
   -0.0360    1.7030    0.1050 C   0  0  0  0  0  0  0  0  0  0  0  0
   -1.2770    2.2580    0.5360 O   0  0  0  0  0  0  0  0  0  0  0  0
    0.9610    2.4470    0.5640 C   0  0  0  0  0  0  0  0  0  0  0  0
    2.2660    2.5280    0.5800 C   0  0  0  0  0  0  0  0  0  0  0  0
    2.9330    3.6420    1.2930 C   0  0  0  0  0  0  0  0  0  0  0  0
    2.4020    4.6690    2.0100 C   0  0  0  0  0  0  0  0  0  0  0  0
    3.4710    5.4180    2.5060 C   0  0  0  0  0  0  0  0  0  0  0  0
    4.5390    4.8510    2.0940 O   0  0  0  0  0  0  0  0  0  0  0  0
    4.3240    3.7920    1.3690 C   0  0  0  0  0  0  0  0  0  0  0  0
    2.8660   -0.7550   -1.0850 C   0  0  0  0  0  0  0  0  0  0  0  0
    2.8220   -1.9090   -0.2680 N   0  0  0  0  0  0  0  0  0  0  0  0
  1  2  2  0
  2  3  1  0
  2  4  1  0
  4  5  1  0
  5  6  1  0
  5 36  1  0
  6  7  2  0
  7  8  1  0
  8  9  1  0
  8 36  2  0
  9 10  2  3
 10 11  1  0
 10 27  1  0
 11 12  1  0
 12 13  1  6
 12 14  1  0
 14 15  2  0
 14 21  1  0
 15 16  1  0
 16 17  1  0
 16 18  2  0
 18 19  1  0
 19 20  1  0
 19 21  2  0
 21 22  1  0
 22 23  1  0
 22 26  2  0
 23 24  2  0
 24 25  1  0
 25 26  1  0
 27 28  2  0
 27 29  1  0
 29 30  2  3
 30 31  1  0
 31 32  1  0
 31 35  2  0
 32 33  2  0
 33 34  1  0
 34 35  1  0
 36 37  1  0
M  END
