
     RDKit          3D

 37 40  0  0  0  0  0  0  0  0999 V2000
    7.6510    3.8550    0.3120 C   0  0  0  0  0  0  0  0  0  0  0  0
    6.4170    3.4720    0.5640 C   0  0  0  0  0  0  0  0  0  0  0  0
    6.0180    2.0830    0.6580 C   0  0  0  0  0  0  0  0  0  0  0  0
    4.7750    1.7180    0.9120 C   0  0  0  0  0  0  0  0  0  0  0  0
    4.3510    0.3070    1.0110 C   0  0  0  0  0  0  0  0  0  0  0  0
    3.2950   -0.0540    0.0070 C   0  0  0  0  0  0  0  0  0  0  0  0
    3.5580   -0.7450   -1.1420 N   0  0  0  0  0  0  0  0  0  0  0  0
    2.4220   -0.8860   -1.8070 C   0  0  0  0  0  0  0  0  0  0  0  0
    2.1740   -1.5630   -3.1160 C   0  0  0  0  0  0  0  0  0  0  0  0
    1.4760   -0.3210   -1.1330 O   0  0  0  0  0  0  0  0  0  0  0  0
    1.9510    0.2090   -0.0080 C   0  0  0  0  0  0  0  0  0  0  0  0
    1.1660    0.9360    1.0120 C   0  0  0  0  0  0  0  0  0  0  0  0
    0.8500    0.2620    2.2710 C   0  0  0  0  0  0  0  0  0  0  0  0
    0.0800   -0.9350    2.2950 N   0  0  0  0  0  0  0  0  0  0  0  0
    0.6490   -2.2400    2.3470 C   0  0  0  0  0  0  0  0  0  0  0  0
    0.8240   -2.9940    1.0850 C   0  0  0  0  0  0  0  0  0  0  0  0
    1.4220   -4.3310    1.4790 C   0  0  0  0  0  0  0  0  0  0  0  0
    1.6790   -5.2390    0.4240 N   0  0  0  0  0  0  0  0  0  0  0  0
    1.6840   -4.6510    2.6420 O   0  0  0  0  0  0  0  0  0  0  0  0
   -1.3310   -0.8230    2.3640 C   0  0  0  0  0  0  0  0  0  0  0  0
   -2.0720   -1.8540    2.3910 O   0  0  0  0  0  0  0  0  0  0  0  0
   -2.0030    0.4650    2.4110 C   0  0  0  0  0  0  0  0  0  0  0  0
   -2.2560    1.1760    3.6030 C   0  0  0  0  0  0  0  0  0  0  0  0
   -2.8840    2.3260    3.3130 N   0  0  0  0  0  0  0  0  0  0  0  0
   -3.0420    2.3830    2.0130 N   0  0  0  0  0  0  0  0  0  0  0  0
   -2.5180    1.2640    1.4170 C   0  0  0  0  0  0  0  0  0  0  0  0
   -2.5250    1.0010    0.0020 C   0  0  0  0  0  0  0  0  0  0  0  0
   -3.1200    1.9160   -0.7960 C   0  0  0  0  0  0  0  0  0  0  0  0
   -3.0910    1.5800   -2.2400 C   0  0  0  0  0  0  0  0  0  0  0  0
   -3.6810    0.2070   -2.4290 C   0  0  2  0  0  0  0  0  0  0  0  0
   -5.1400    0.2920   -2.1690 C   0  0  0  0  0  0  0  0  0  0  0  0
   -6.1030    0.0940   -3.1470 C   0  0  0  0  0  0  0  0  0  0  0  0
   -7.3380    0.2450   -2.5550 C   0  0  0  0  0  0  0  0  0  0  0  0
   -7.0990    0.5220   -1.2700 N   0  0  0  0  0  0  0  0  0  0  0  0
   -5.7900    0.5510   -1.0330 N   0  0  0  0  0  0  0  0  0  0  0  0
   -3.0380   -0.8380   -1.5470 C   0  0  0  0  0  0  0  0  0  0  0  0
   -1.9570   -0.1580   -0.6920 C   0  0  0  0  0  0  0  0  0  0  0  0
  1  2  2  0
  2  3  1  0
  3  4  2  3
  4  5  1  0
  5  6  1  0
  6  7  1  0
  6 11  2  0
  7  8  2  0
  8  9  1  0
  8 10  1  0
 10 11  1  0
 11 12  1  0
 12 13  1  0
 13 14  1  0
 14 15  1  0
 14 20  1  0
 15 16  1  0
 16 17  1  0
 17 18  1  0
 17 19  2  0
 20 21  2  0
 20 22  1  0
 22 23  2  0
 22 26  1  0
 23 24  1  0
 24 25  1  0
 25 26  2  0
 26 27  1  0
 27 28  2  0
 27 37  1  0
 28 29  1  0
 29 30  1  0
 30 31  1  1
 30 36  1  0
 31 32  2  0
 31 35  1  0
 32 33  1  0
 33 34  2  0
 34 35  1  0
 36 37  1  0
M  END
