
     RDKit          3D

 37 41  0  0  0  0  0  0  0  0999 V2000
   -6.0520   -3.0660    4.3630 C   0  0  0  0  0  0  0  0  0  0  0  0
   -5.0800   -2.7290    3.2420 C   0  0  0  0  0  0  0  0  0  0  0  0
   -5.4840   -1.5530    2.6070 O   0  0  0  0  0  0  0  0  0  0  0  0
   -4.7850   -1.0030    1.5470 C   0  0  0  0  0  0  0  0  0  0  0  0
   -5.1800    0.1570    0.9170 C   0  0  0  0  0  0  0  0  0  0  0  0
   -4.4950    0.7230   -0.1450 C   0  0  0  0  0  0  0  0  0  0  0  0
   -3.3450    0.0480   -0.5710 C   0  0  0  0  0  0  0  0  0  0  0  0
   -2.5710    0.5860   -1.6850 C   0  0  0  0  0  0  0  0  0  0  0  0
   -2.4780    1.9360   -1.9360 C   0  0  0  0  0  0  0  0  0  0  0  0
   -1.7320    2.4470   -3.0030 C   0  0  0  0  0  0  0  0  0  0  0  0
   -1.0510    1.6170   -3.8580 C   0  0  0  0  0  0  0  0  0  0  0  0
   -0.2610    2.0620   -4.9440 N   0  0  0  0  0  0  0  0  0  0  0  0
    0.1620    3.4010   -5.0620 C   0  0  0  0  0  0  0  0  0  0  0  0
    0.7740    3.9720   -4.1150 N   0  0  0  0  0  0  0  0  0  0  0  0
    1.0950    3.3810   -2.8960 C   0  0  0  0  0  0  0  0  0  0  0  0
    1.6220    2.1280   -2.6010 C   0  0  0  0  0  0  0  0  0  0  0  0
    1.7570    2.0190   -1.2400 C   0  0  0  0  0  0  0  0  0  0  0  0
    2.2450    0.9420   -0.4570 N   0  0  0  0  0  0  0  0  0  0  0  0
    3.3960    0.9950    0.0980 C   0  0  0  0  0  0  0  0  0  0  0  0
    4.1700    2.0810   -0.0530 N   0  0  0  0  0  0  0  0  0  0  0  0
    5.3860    2.1860    0.5100 C   0  0  0  0  0  0  0  0  0  0  0  0
    6.0820    3.2330    0.3390 O   0  0  0  0  0  0  0  0  0  0  0  0
    5.8820    1.2030    1.2510 N   0  0  0  0  0  0  0  0  0  0  0  0
    5.1340    0.0830    1.4320 C   0  0  0  0  0  0  0  0  0  0  0  0
    5.6200   -0.9470    2.1930 C   0  0  0  0  0  0  0  0  0  0  0  0
    4.8620   -2.0900    2.3810 C   0  0  0  0  0  0  0  0  0  0  0  0
    3.6130   -2.2360    1.8230 C   0  0  0  0  0  0  0  0  0  0  0  0
    2.8300   -3.3570    1.9880 O   0  0  0  0  0  0  0  0  0  0  0  0
    3.1410   -4.5000    2.7180 C   0  0  0  0  0  0  0  0  0  0  0  0
    3.1320   -1.1940    1.0580 C   0  0  0  0  0  0  0  0  0  0  0  0
    3.8840   -0.0390    0.8610 C   0  0  0  0  0  0  0  0  0  0  0  0
    1.3210    3.1820   -0.7310 N   0  0  0  0  0  0  0  0  0  0  0  0
    0.9300    3.9890   -1.6930 N   0  0  0  0  0  0  0  0  0  0  0  0
   -1.1540    0.2420   -3.5920 C   0  0  0  0  0  0  0  0  0  0  0  0
   -1.8870   -0.2600   -2.5440 C   0  0  0  0  0  0  0  0  0  0  0  0
   -2.9280   -1.1140    0.0420 C   0  0  0  0  0  0  0  0  0  0  0  0
   -3.6430   -1.6540    1.1080 C   0  0  0  0  0  0  0  0  0  0  0  0
  1  2  1  0
  2  3  1  0
  3  4  1  0
  4  5  2  0
  4 37  1  0
  5  6  1  0
  6  7  2  0
  7  8  1  0
  7 36  1  0
  8  9  2  0
  8 35  1  0
  9 10  1  0
 10 11  2  0
 11 12  1  0
 11 34  1  0
 12 13  1  0
 13 14  2  3
 14 15  1  0
 15 16  2  0
 15 33  1  0
 16 17  1  0
 17 18  1  0
 17 32  2  0
 18 19  2  3
 19 20  1  0
 19 31  1  0
 20 21  1  0
 21 22  2  0
 21 23  1  0
 23 24  1  0
 24 25  2  0
 24 31  1  0
 25 26  1  0
 26 27  2  0
 27 28  1  0
 27 30  1  0
 28 29  1  0
 30 31  2  0
 32 33  1  0
 34 35  2  0
 36 37  2  0
M  END
