
     RDKit          3D

 37 40  0  0  0  0  0  0  0  0999 V2000
    1.8520   -0.0180   -1.2840 O   0  0  0  0  0  0  0  0  0  0  0  0
    1.8600    0.1660   -0.0270 C   0  0  0  0  0  0  0  0  0  0  0  0
    3.0120    0.8360    0.6340 C   0  0  0  0  0  0  0  0  0  0  0  0
    4.0020    1.2210   -0.4510 C   0  0  0  0  0  0  0  0  0  0  0  0
    5.1960    1.9070    0.0590 C   0  0  0  0  0  0  0  0  0  0  0  0
    5.3480    3.2960   -0.0610 C   0  0  0  0  0  0  0  0  0  0  0  0
    6.4490    3.9560    0.4070 C   0  0  0  0  0  0  0  0  0  0  0  0
    6.6060    5.6980    0.2410 Cl  0  0  0  0  0  0  0  0  0  0  0  0
    7.4360    3.2130    1.0150 C   0  0  0  0  0  0  0  0  0  0  0  0
    7.3550    1.8470    1.1680 C   0  0  0  0  0  0  0  0  0  0  0  0
    6.2060    1.2230    0.6710 C   0  0  0  0  0  0  0  0  0  0  0  0
    6.1410   -0.1920    0.8320 N   0  0  0  0  0  0  0  0  0  0  0  0
    6.1610   -0.8750    1.9750 C   0  0  0  0  0  0  0  0  0  0  0  0
    6.0810   -2.1750    1.6730 N   0  0  0  0  0  0  0  0  0  0  0  0
    6.0140   -2.2590    0.3590 N   0  0  0  0  0  0  0  0  0  0  0  0
    6.0510   -1.0470   -0.1650 N   0  0  0  0  0  0  0  0  0  0  0  0
    0.7140   -0.3050    0.6670 N   0  0  0  0  0  0  0  0  0  0  0  0
   -0.3820   -0.9510   -0.0640 C   0  0  1  0  0  0  0  0  0  0  0  0
   -0.5880   -2.3380    0.4480 C   0  0  0  0  0  0  0  0  0  0  0  0
   -1.6680   -3.0560   -0.2250 C   0  0  0  0  0  0  0  0  0  0  0  0
   -2.9490   -3.0370    0.2760 C   0  0  0  0  0  0  0  0  0  0  0  0
   -4.0040   -3.6990   -0.3050 C   0  0  0  0  0  0  0  0  0  0  0  0
   -3.7880   -4.4230   -1.4460 C   0  0  0  0  0  0  0  0  0  0  0  0
   -2.5250   -4.4730   -1.9830 C   0  0  0  0  0  0  0  0  0  0  0  0
   -1.4960   -3.8010   -1.3800 C   0  0  0  0  0  0  0  0  0  0  0  0
   -1.6160   -0.1250    0.1950 C   0  0  0  0  0  0  0  0  0  0  0  0
   -1.6100    0.6800    1.1840 O   0  0  0  0  0  0  0  0  0  0  0  0
   -2.7780   -0.1900   -0.6040 N   0  0  0  0  0  0  0  0  0  0  0  0
   -3.9750    0.5340   -0.4310 C   0  0  0  0  0  0  0  0  0  0  0  0
   -4.2360    1.4150    0.5710 C   0  0  0  0  0  0  0  0  0  0  0  0
   -5.4570    2.0980    0.6680 C   0  0  0  0  0  0  0  0  0  0  0  0
   -6.4460    1.9000   -0.2510 C   0  0  0  0  0  0  0  0  0  0  0  0
   -7.7360    2.5960   -0.1750 C   0  0  0  0  0  0  0  0  0  0  0  0
   -7.9350    3.4110    0.7850 O   0  0  0  0  0  0  0  0  0  0  0  0
   -8.7250    2.3940   -1.1030 O   0  0  0  0  0  0  0  0  0  0  0  0
   -6.2120    1.0140   -1.2780 C   0  0  0  0  0  0  0  0  0  0  0  0
   -5.0060    0.3520   -1.3600 C   0  0  0  0  0  0  0  0  0  0  0  0
  1  2  2  0
  2  3  1  0
  2 17  1  0
  3  4  1  0
  4  5  1  0
  5  6  2  0
  5 11  1  0
  6  7  1  0
  7  8  1  0
  7  9  2  0
  9 10  1  0
 10 11  2  0
 11 12  1  0
 12 13  1  0
 12 16  1  0
 13 14  2  0
 14 15  1  0
 15 16  2  0
 17 18  1  0
 18 19  1  1
 18 26  1  0
 19 20  1  0
 20 21  2  0
 20 25  1  0
 21 22  1  0
 22 23  2  0
 23 24  1  0
 24 25  2  0
 26 27  2  0
 26 28  1  0
 28 29  1  0
 29 30  2  0
 29 37  1  0
 30 31  1  0
 31 32  2  0
 32 33  1  0
 32 36  1  0
 33 34  2  0
 33 35  1  0
 36 37  2  0
M  END
