
     RDKit          3D

 39 42  0  0  0  0  0  0  0  0999 V2000
   -3.0020   -2.2190    2.7340 C   0  0  0  0  0  0  0  0  0  0  0  0
   -3.0360   -2.0310    1.2280 C   0  0  0  0  0  0  0  0  0  0  0  0
   -3.0190   -0.6130    0.8090 C   0  0  2  0  0  0  0  0  0  0  0  0
   -3.0710   -0.6360   -0.7540 C   0  0  0  0  0  0  0  0  0  0  0  0
   -1.8840    0.2650    1.1280 C   0  0  0  0  0  0  0  0  0  0  0  0
   -0.6340   -0.1100    0.5670 N   0  0  0  0  0  0  0  0  0  0  0  0
    0.1890   -1.2180    0.8380 C   0  0  0  0  0  0  0  0  0  0  0  0
   -0.0990   -2.0530    1.6900 O   0  0  0  0  0  0  0  0  0  0  0  0
    1.4670   -1.3980    0.0660 C   0  0  0  0  0  0  0  0  0  0  0  0
    2.7940   -0.4140    0.8180 S   0  0  0  0  0  0  0  0  0  0  0  0
    4.2870   -0.6120   -0.1620 C   0  0  0  0  0  0  0  0  0  0  0  0
    4.3100   -1.4480   -1.2620 C   0  0  0  0  0  0  0  0  0  0  0  0
    5.4610   -1.5580   -1.9970 C   0  0  0  0  0  0  0  0  0  0  0  0
    6.6090   -0.8290   -1.6370 C   0  0  0  0  0  0  0  0  0  0  0  0
    6.6160    0.0070   -0.5530 C   0  0  0  0  0  0  0  0  0  0  0  0
    7.7080    0.7940   -0.1420 N   0  0  0  0  0  0  0  0  0  0  0  0
    8.8700    1.0610   -0.8690 C   0  0  0  0  0  0  0  0  0  0  0  0
    9.0370    0.5980   -2.0090 O   0  0  0  0  0  0  0  0  0  0  0  0
    9.9610    1.9160   -0.3110 C   0  0  1  0  0  0  0  0  0  0  0  0
   10.3450    1.5440    1.0890 C   0  0  0  0  0  0  0  0  0  0  0  0
   11.8060    1.1070    1.0470 C   0  0  0  0  0  0  0  0  0  0  0  0
   12.0750    0.2060   -0.1270 C   0  0  0  0  0  0  0  0  0  0  0  0
   11.7770    0.9550   -1.4030 C   0  0  0  0  0  0  0  0  0  0  0  0
   11.0050    2.0630   -1.1850 O   0  0  0  0  0  0  0  0  0  0  0  0
    5.4140    0.0760    0.1550 C   0  0  0  0  0  0  0  0  0  0  0  0
   -4.3320    0.0040    1.1940 C   0  0  0  0  0  0  0  0  0  0  0  0
   -4.4160    0.9400    1.9930 O   0  0  0  0  0  0  0  0  0  0  0  0
   -5.5250   -0.4880    0.6370 N   0  0  0  0  0  0  0  0  0  0  0  0
   -6.8340    0.0040    0.9170 C   0  0  2  0  0  0  0  0  0  0  0  0
   -7.9690   -0.9110    1.0580 C   0  0  0  0  0  0  0  0  0  0  0  0
   -8.2220   -0.7800   -0.4400 C   0  0  2  0  0  0  0  0  0  0  0  0
   -9.6660   -0.6040   -0.8160 C   0  0  0  0  0  0  0  0  0  0  0  0
   -7.4750   -1.5960   -1.2520 O   0  0  0  0  0  0  0  0  0  0  0  0
   -6.8150   -0.8080   -2.1800 C   0  0  0  0  0  0  0  0  0  0  0  0
   -6.6060    0.5430   -1.5620 C   0  0  0  0  0  0  0  0  0  0  0  0
   -7.4700    0.5550   -0.3380 C   0  0  2  0  0  0  0  0  0  0  0  0
   -8.3690    1.7390   -0.1780 C   0  0  0  0  0  0  0  0  0  0  0  0
   -7.6410    2.9030    0.4100 C   0  0  0  0  0  0  0  0  0  0  0  0
   -6.5650    3.3260   -0.3560 O   0  0  0  0  0  0  0  0  0  0  0  0
  1  2  1  0
  2  3  1  0
  3  4  1  6
  3  5  1  0
  3 26  1  0
  5  6  1  0
  6  7  1  0
  7  8  2  0
  7  9  1  0
  9 10  1  0
 10 11  1  0
 11 12  2  0
 11 25  1  0
 12 13  1  0
 13 14  2  0
 14 15  1  0
 15 16  1  0
 15 25  2  0
 16 17  1  0
 17 18  2  0
 19 17  1  6
 19 20  1  0
 19 24  1  0
 20 21  1  0
 21 22  1  0
 22 23  1  0
 23 24  1  0
 26 27  2  0
 26 28  1  0
 29 28  1  6
 29 30  1  0
 29 36  1  0
 30 31  1  0
 31 32  1  1
 31 33  1  0
 31 36  1  0
 33 34  1  0
 34 35  1  0
 35 36  1  0
 36 37  1  1
 37 38  1  0
 38 39  1  0
M  END
