
     RDKit          3D

 40 42  0  0  0  0  0  0  0  0999 V2000
   -9.0870   -1.7240    0.0110 C   0  0  0  0  0  0  0  0  0  0  0  0
   -7.9490   -1.5760   -0.9770 C   0  0  2  0  0  0  0  0  0  0  0  0
   -8.4920   -1.4640   -2.3730 C   0  0  0  0  0  0  0  0  0  0  0  0
   -7.0680   -2.8220   -0.9050 C   0  0  0  0  0  0  0  0  0  0  0  0
   -7.0990   -0.4010   -0.5710 C   0  0  0  0  0  0  0  0  0  0  0  0
   -5.9710   -0.2610   -1.5690 C   0  0  0  0  0  0  0  0  0  0  0  0
   -5.0840    0.8350   -1.2800 N   0  0  0  0  0  0  0  0  0  0  0  0
   -5.3550    2.1380   -1.8390 C   0  0  0  0  0  0  0  0  0  0  0  0
   -4.7010    2.3360   -3.1850 C   0  0  0  0  0  0  0  0  0  0  0  0
   -5.0490    3.7340   -3.7030 C   0  0  0  0  0  0  0  0  0  0  0  0
   -4.5800    4.6920   -2.8110 O   0  0  0  0  0  0  0  0  0  0  0  0
   -3.9660    0.6510   -0.4620 C   0  0  0  0  0  0  0  0  0  0  0  0
   -3.1760    1.5960   -0.2200 O   0  0  0  0  0  0  0  0  0  0  0  0
   -3.6890   -0.6460    0.1340 C   0  0  0  0  0  0  0  0  0  0  0  0
   -2.6250   -0.8260    0.9090 C   0  0  0  0  0  0  0  0  0  0  0  0
   -2.4030   -2.1480    1.4770 C   0  0  0  0  0  0  0  0  0  0  0  0
   -1.3580   -2.3500    2.2460 C   0  0  0  0  0  0  0  0  0  0  0  0
   -1.0280   -3.6590    2.8830 C   0  0  0  0  0  0  0  0  0  0  0  0
   -0.2050   -3.1490    4.0740 C   0  0  0  0  0  0  0  0  0  0  0  0
    0.5170   -1.9520    3.4480 C   0  0  1  0  0  0  0  0  0  0  0  0
    1.6980   -2.4960    2.7260 C   0  0  0  0  0  0  0  0  0  0  0  0
    2.4850   -1.6020    1.9630 N   0  0  0  0  0  0  0  0  0  0  0  0
    2.1030   -0.8160    0.8510 C   0  0  0  0  0  0  0  0  0  0  0  0
    0.9180   -0.8990    0.4640 O   0  0  0  0  0  0  0  0  0  0  0  0
    3.0820    0.0880    0.1540 C   0  0  0  0  0  0  0  0  0  0  0  0
    2.6660    0.8030   -0.8710 C   0  0  0  0  0  0  0  0  0  0  0  0
    4.0830    1.7460   -1.4520 S   0  0  0  0  0  0  0  0  0  0  0  0
    5.3190    0.6080   -0.6820 C   0  0  1  0  0  0  0  0  0  0  0  0
    6.4700    1.3940   -0.3590 N   0  0  0  0  0  0  0  0  0  0  0  0
    7.7940    1.0480   -0.7420 C   0  0  0  0  0  0  0  0  0  0  0  0
    7.9100   -0.0130   -1.4030 O   0  0  0  0  0  0  0  0  0  0  0  0
    9.0160    1.8290   -0.4290 C   0  0  2  0  0  0  0  0  0  0  0  0
   10.1920    1.0830   -1.0160 C   0  0  0  0  0  0  0  0  0  0  0  0
   11.0360    0.7820    0.1910 C   0  0  0  0  0  0  0  0  0  0  0  0
   10.6640    1.7130    1.1490 O   0  0  0  0  0  0  0  0  0  0  0  0
    9.3050    1.9110    1.0230 C   0  0  1  0  0  0  0  0  0  0  0  0
    9.0330    3.3360    1.5000 C   0  0  0  0  0  0  0  0  0  0  0  0
    9.4390    3.4750    2.8340 O   0  0  0  0  0  0  0  0  0  0  0  0
    4.4910    0.2530    0.5360 C   0  0  0  0  0  0  0  0  0  0  0  0
   -0.4140   -1.4110    2.5890 O   0  0  0  0  0  0  0  0  0  0  0  0
  2  1  1  1
  2  3  1  0
  2  4  1  0
  2  5  1  0
  5  6  1  0
  6  7  1  0
  7  8  1  0
  7 12  1  0
  8  9  1  0
  9 10  1  0
 10 11  1  0
 12 13  2  0
 12 14  1  0
 14 15  2  3
 15 16  1  0
 16 17  2  3
 17 18  1  0
 17 40  1  0
 18 19  1  0
 19 20  1  0
 20 21  1  6
 20 40  1  0
 21 22  1  0
 22 23  1  0
 23 24  2  0
 23 25  1  0
 25 26  2  0
 25 39  1  0
 26 27  1  0
 27 28  1  0
 28 29  1  1
 28 39  1  0
 29 30  1  0
 30 31  2  0
 32 30  1  1
 32 33  1  0
 32 36  1  0
 33 34  1  0
 34 35  1  0
 35 36  1  0
 36 37  1  6
 37 38  1  0
M  END
