
     RDKit          3D

 40 43  0  0  0  0  0  0  0  0999 V2000
   -6.1340   -1.3210    2.1380 C   0  0  0  0  0  0  0  0  0  0  0  0
   -6.3020   -2.6040    1.9300 C   0  0  0  0  0  0  0  0  0  0  0  0
   -5.2500   -3.5830    1.5430 C   0  0  0  0  0  0  0  0  0  0  0  0
   -3.9710   -3.0020    1.3630 N   0  0  0  0  0  0  0  0  0  0  0  0
   -3.7890   -2.0110    0.3030 C   0  0  0  0  0  0  0  0  0  0  0  0
   -4.7990   -1.7830   -0.3540 O   0  0  0  0  0  0  0  0  0  0  0  0
   -2.4570   -1.4640    0.1980 C   0  0  0  0  0  0  0  0  0  0  0  0
   -2.0150   -0.4500   -0.7250 C   0  0  2  0  0  0  0  0  0  0  0  0
   -0.5200   -0.2220   -0.5080 N   0  0  0  0  0  0  0  0  0  0  0  0
    0.4340   -0.7840   -1.2990 C   0  0  0  0  0  0  0  0  0  0  0  0
    0.0330   -1.5300   -2.2570 O   0  0  0  0  0  0  0  0  0  0  0  0
    1.8710   -0.6550   -1.2000 C   0  0  0  0  0  0  0  0  0  0  0  0
    2.7440   -1.3470   -1.9220 O   0  0  0  0  0  0  0  0  0  0  0  0
    3.9790   -1.0370   -1.6410 C   0  0  0  0  0  0  0  0  0  0  0  0
    5.4370   -1.7630   -2.4160 S   0  0  0  0  0  0  0  0  0  0  0  0
    6.0010   -3.2670   -1.6690 C   0  0  0  0  0  0  0  0  0  0  0  0
    6.6360   -3.2380   -0.3380 C   0  0  2  0  0  0  0  0  0  0  0  0
    5.8730   -2.7490    0.8230 C   0  0  0  0  0  0  0  0  0  0  0  0
    6.7160   -2.3380    1.8850 O   0  0  0  0  0  0  0  0  0  0  0  0
    7.5080   -1.2560    1.5350 C   0  0  0  0  0  0  0  0  0  0  0  0
    7.5660   -1.2130    0.0240 C   0  0  1  0  0  0  0  0  0  0  0  0
    8.5570   -0.1770   -0.4640 C   0  0  0  0  0  0  0  0  0  0  0  0
    7.8240   -2.4700   -0.4520 O   0  0  0  0  0  0  0  0  0  0  0  0
    3.9250   -0.1100   -0.7030 N   0  0  0  0  0  0  0  0  0  0  0  0
    2.6170    0.1490   -0.4060 C   0  0  0  0  0  0  0  0  0  0  0  0
    2.2110    1.1560    0.6500 C   0  0  0  0  0  0  0  0  0  0  0  0
    1.8470    0.4990    1.9440 C   0  0  0  0  0  0  0  0  0  0  0  0
   -2.6330    0.9110   -0.8590 C   0  0  1  0  0  0  0  0  0  0  0  0
   -1.6900    1.5500   -1.9190 C   0  0  0  0  0  0  0  0  0  0  0  0
   -1.9480    2.9160   -2.3160 C   0  0  0  0  0  0  0  0  0  0  0  0
   -3.9690    0.9330   -1.5440 C   0  0  0  0  0  0  0  0  0  0  0  0
   -5.0870    1.3890   -0.6410 C   0  0  0  0  0  0  0  0  0  0  0  0
   -4.7210    2.8040   -0.2540 C   0  0  0  0  0  0  0  0  0  0  0  0
   -5.5390    3.8240   -0.3820 C   0  0  0  0  0  0  0  0  0  0  0  0
   -5.0870    5.0580    0.0060 O   0  0  0  0  0  0  0  0  0  0  0  0
   -3.8000    5.3390    0.4360 C   0  0  0  0  0  0  0  0  0  0  0  0
   -2.9600    4.1610    0.5550 C   0  0  0  0  0  0  0  0  0  0  0  0
   -3.3680    2.9700    0.2380 C   0  0  0  0  0  0  0  0  0  0  0  0
   -2.5400    1.7460    0.3640 C   0  0  1  0  0  0  0  0  0  0  0  0
   -3.0910    1.0960    1.4960 O   0  0  0  0  0  0  0  0  0  0  0  0
  1  2  2  0
  2  3  1  0
  3  4  1  0
  4  5  1  0
  5  6  2  0
  5  7  1  0
  8  7  1  1
  8  9  1  0
  8 28  1  0
  9 10  1  0
 10 11  2  0
 10 12  1  0
 12 13  1  0
 12 25  2  0
 13 14  1  0
 14 15  1  0
 14 24  2  0
 15 16  1  0
 17 16  1  6
 17 18  1  0
 17 23  1  0
 18 19  1  0
 19 20  1  0
 20 21  1  0
 21 22  1  1
 21 23  1  0
 24 25  1  0
 25 26  1  0
 26 27  1  0
 28 29  1  6
 28 31  1  0
 28 39  1  0
 29 30  1  0
 31 32  1  0
 32 33  1  0
 33 34  2  0
 33 38  1  0
 34 35  1  0
 35 36  1  0
 36 37  1  0
 37 38  2  0
 38 39  1  0
 39 40  1  1
M  END
