
     RDKit          3D

 40 43  0  0  0  0  0  0  0  0999 V2000
   -5.2500    3.1070    3.6430 C   0  0  0  0  0  0  0  0  0  0  0  0
   -5.1300    2.2050    2.4420 C   0  0  0  0  0  0  0  0  0  0  0  0
   -4.4130    2.8710    1.2920 C   0  0  0  0  0  0  0  0  0  0  0  0
   -4.3410    1.9130    0.1490 C   0  0  2  0  0  0  0  0  0  0  0  0
   -3.4620    0.3860    0.5180 S   0  0  0  0  0  0  0  0  0  0  0  0
   -2.5130   -0.2510   -0.9200 C   0  0  1  0  0  0  0  0  0  0  0  0
   -3.4270   -1.1610   -1.6020 C   0  0  0  0  0  0  0  0  0  0  0  0
   -3.8420   -0.8490   -2.7420 O   0  0  0  0  0  0  0  0  0  0  0  0
   -3.8790   -2.3570   -1.0810 O   0  0  0  0  0  0  0  0  0  0  0  0
   -4.7610   -3.1440   -1.8400 C   0  0  1  0  0  0  0  0  0  0  0  0
   -4.2350   -4.5290   -2.1080 C   0  0  0  0  0  0  0  0  0  0  0  0
   -6.0920   -3.2890   -1.1210 C   0  0  0  0  0  0  0  0  0  0  0  0
   -6.9920   -4.1550   -2.0080 C   0  0  0  0  0  0  0  0  0  0  0  0
   -1.8980    0.8490   -1.6810 C   0  0  1  0  0  0  0  0  0  0  0  0
   -0.6620    1.2920   -0.9030 C   0  0  0  0  0  0  0  0  0  0  0  0
   -0.5720    2.4580   -0.4650 O   0  0  0  0  0  0  0  0  0  0  0  0
    0.3980    0.3940   -0.6650 N   0  0  0  0  0  0  0  0  0  0  0  0
    1.5970    0.6590    0.0390 C   0  0  0  0  0  0  0  0  0  0  0  0
    2.5660   -0.3390   -0.0350 C   0  0  0  0  0  0  0  0  0  0  0  0
    3.7980   -0.2500    0.6050 C   0  0  0  0  0  0  0  0  0  0  0  0
    4.0940    0.8590    1.3460 C   0  0  0  0  0  0  0  0  0  0  0  0
    5.2570    1.0350    2.0010 O   0  0  0  0  0  0  0  0  0  0  0  0
    6.3660    0.1380    2.0850 C   0  0  1  0  0  0  0  0  0  0  0  0
    7.3840    0.9580    2.9480 C   0  0  0  0  0  0  0  0  0  0  0  0
    6.0530   -1.0440    2.9080 C   0  0  0  0  0  0  0  0  0  0  0  0
    7.1400   -2.0510    3.0590 C   0  0  0  0  0  0  0  0  0  0  0  0
    7.5690   -2.6790    1.9290 O   0  0  0  0  0  0  0  0  0  0  0  0
    6.9960   -0.0140    0.7910 C   0  0  0  0  0  0  0  0  0  0  0  0
    6.4920    0.6420   -0.2050 O   0  0  0  0  0  0  0  0  0  0  0  0
    8.0810   -0.7740    0.4760 O   0  0  0  0  0  0  0  0  0  0  0  0
    8.6530   -0.8730   -0.7960 C   0  0  0  0  0  0  0  0  0  0  0  0
    3.1420    1.8550    1.4270 C   0  0  0  0  0  0  0  0  0  0  0  0
    1.9040    1.7490    0.7750 C   0  0  0  0  0  0  0  0  0  0  0  0
   -1.4550    0.6600   -3.0730 C   0  0  0  0  0  0  0  0  0  0  0  0
   -1.2830    2.1170   -3.5810 C   0  0  0  0  0  0  0  0  0  0  0  0
   -2.4370    2.7760   -2.8510 C   0  0  0  0  0  0  0  0  0  0  0  0
   -3.3090    3.8090   -2.8070 N   0  0  0  0  0  0  0  0  0  0  0  0
   -4.1020    3.6410   -1.7280 N   0  0  0  0  0  0  0  0  0  0  0  0
   -3.7510    2.5100   -1.0760 C   0  0  0  0  0  0  0  0  0  0  0  0
   -2.7510    2.0190   -1.7760 C   0  0  0  0  0  0  0  0  0  0  0  0
  1  2  1  0
  2  3  1  0
  4  3  1  1
  4  5  1  0
  4 39  1  0
  5  6  1  0
  6  7  1  6
  6 14  1  0
  7  8  2  0
  7  9  1  0
  9 10  1  0
 10 11  1  1
 10 12  1  0
 12 13  1  0
 14 15  1  1
 14 34  1  0
 14 40  1  0
 15 16  2  0
 15 17  1  0
 17 18  1  0
 18 19  2  0
 18 33  1  0
 19 20  1  0
 20 21  2  0
 21 22  1  0
 21 32  1  0
 22 23  1  0
 23 24  1  1
 23 25  1  0
 23 28  1  0
 25 26  1  0
 26 27  1  0
 28 29  2  0
 28 30  1  0
 30 31  1  0
 32 33  2  0
 34 35  1  0
 35 36  1  0
 36 37  1  0
 36 40  2  0
 37 38  1  0
 38 39  2  0
 39 40  1  0
M  END
