
     RDKit          3D

 40 42  0  0  0  0  0  0  0  0999 V2000
   -9.5510    2.2460    2.1910 C   0  0  0  0  0  0  0  0  0  0  0  0
   -8.1650    1.3120    1.5440 S   0  0  0  0  0  0  0  0  0  0  0  0
   -8.4890    0.8520   -0.1010 C   0  0  0  0  0  0  0  0  0  0  0  0
   -7.6340    0.1730   -0.8080 C   0  0  0  0  0  0  0  0  0  0  0  0
   -6.3740   -0.3160   -0.4770 N   0  0  0  0  0  0  0  0  0  0  0  0
   -5.5860   -0.2750    0.6680 C   0  0  0  0  0  0  0  0  0  0  0  0
   -5.9910    0.2960    1.6800 O   0  0  0  0  0  0  0  0  0  0  0  0
   -4.2210   -0.9120    0.7310 C   0  0  1  0  0  0  0  0  0  0  0  0
   -4.3160   -2.3920    0.4250 C   0  0  0  0  0  0  0  0  0  0  0  0
   -3.3800   -0.2690   -0.3350 C   0  0  0  0  0  0  0  0  0  0  0  0
   -1.9880   -0.7850   -0.4190 C   0  0  0  0  0  0  0  0  0  0  0  0
   -1.2440   -0.5240    0.8500 C   0  0  0  0  0  0  0  0  0  0  0  0
   -1.7370    0.1400    1.7800 O   0  0  0  0  0  0  0  0  0  0  0  0
    0.0650   -1.0520    1.0000 N   0  0  0  0  0  0  0  0  0  0  0  0
    0.9020   -0.9010    2.1270 C   0  0  0  0  0  0  0  0  0  0  0  0
    0.5980   -0.2030    3.2590 C   0  0  0  0  0  0  0  0  0  0  0  0
    1.4780   -0.0940    4.3340 C   0  0  0  0  0  0  0  0  0  0  0  0
    2.7000   -0.7060    4.2640 C   0  0  0  0  0  0  0  0  0  0  0  0
    3.0380   -1.4270    3.1160 C   0  0  0  0  0  0  0  0  0  0  0  0
    2.1730   -1.5340    2.0590 C   0  0  0  0  0  0  0  0  0  0  0  0
    2.4980   -2.2410    0.9390 O   0  0  0  0  0  0  0  0  0  0  0  0
    3.6540   -2.8960    0.6370 C   0  0  0  0  0  0  0  0  0  0  0  0
    4.8270   -1.9720    0.4740 C   0  0  1  0  0  0  0  0  0  0  0  0
    5.9980   -2.6930    0.1880 O   0  0  0  0  0  0  0  0  0  0  0  0
    4.6020   -1.0950   -0.7700 C   0  0  0  0  0  0  0  0  0  0  0  0
    5.7900   -0.2500   -0.8860 N   0  0  0  0  0  0  0  0  0  0  0  0
    5.9200    0.6960   -1.9420 C   0  0  0  0  0  0  0  0  0  0  0  0
    5.0170    0.8280   -2.7990 O   0  0  0  0  0  0  0  0  0  0  0  0
    7.1350    1.5390   -2.0350 C   0  0  1  0  0  0  0  0  0  0  0  0
    7.2980    2.3750   -0.7730 C   0  0  0  0  0  0  0  0  0  0  0  0
    8.5810    3.1450   -0.8450 C   0  0  0  0  0  0  0  0  0  0  0  0
    9.4170    2.7420   -1.8740 O   0  0  0  0  0  0  0  0  0  0  0  0
    9.6080    1.3630   -1.9010 C   0  0  1  0  0  0  0  0  0  0  0  0
   10.2350    0.8280   -0.6460 C   0  0  0  0  0  0  0  0  0  0  0  0
    8.3250    0.6190   -2.1700 C   0  0  0  0  0  0  0  0  0  0  0  0
   -8.0830   -0.1350   -2.2390 C   0  0  2  0  0  0  0  0  0  0  0  0
   -7.7290    1.0690   -3.0580 C   0  0  0  0  0  0  0  0  0  0  0  0
   -9.3640   -0.5630   -2.3200 O   0  0  0  0  0  0  0  0  0  0  0  0
  -10.2500   -0.1120   -1.3930 C   0  0  0  0  0  0  0  0  0  0  0  0
   -9.7810    1.1980   -0.8130 C   0  0  0  0  0  0  0  0  0  0  0  0
  1  2  1  0
  2  3  1  0
  3  4  2  0
  3 40  1  0
  4  5  1  0
  4 36  1  0
  5  6  1  0
  6  7  2  0
  6  8  1  0
  8  9  1  6
  8 10  1  0
 10 11  1  0
 11 12  1  0
 12 13  2  0
 12 14  1  0
 14 15  1  0
 15 16  2  0
 15 20  1  0
 16 17  1  0
 17 18  2  0
 18 19  1  0
 19 20  2  0
 20 21  1  0
 21 22  1  0
 22 23  1  0
 23 24  1  6
 23 25  1  0
 25 26  1  0
 26 27  1  0
 27 28  2  0
 29 27  1  1
 29 30  1  0
 29 35  1  0
 30 31  1  0
 31 32  1  0
 32 33  1  0
 33 34  1  1
 33 35  1  0
 36 37  1  6
 36 38  1  0
 38 39  1  0
 39 40  1  0
M  END
