
     RDKit          3D

 40 44  0  0  0  0  0  0  0  0999 V2000
    2.3230    1.9630   -1.6450 O   0  0  0  0  0  0  0  0  0  0  0  0
    2.5600    1.1010   -0.7250 C   0  0  0  0  0  0  0  0  0  0  0  0
    1.4370    0.3470   -0.2880 N   0  0  0  0  0  0  0  0  0  0  0  0
    0.1080    0.5740   -0.8780 C   0  0  1  0  0  0  0  0  0  0  0  0
   -0.3570   -0.6870   -1.5880 C   0  0  0  0  0  0  0  0  0  0  0  0
   -0.4590   -1.8350   -0.6870 C   0  0  0  0  0  0  0  0  0  0  0  0
   -1.6300   -2.1100   -0.0180 C   0  0  0  0  0  0  0  0  0  0  0  0
   -1.7480   -3.1940    0.8410 C   0  0  0  0  0  0  0  0  0  0  0  0
   -0.6600   -4.0350    1.0410 C   0  0  0  0  0  0  0  0  0  0  0  0
    0.5070   -3.7750    0.3850 C   0  0  0  0  0  0  0  0  0  0  0  0
    0.6100   -2.6770   -0.4790 C   0  0  0  0  0  0  0  0  0  0  0  0
   -0.8550    1.0170    0.1420 C   0  0  0  0  0  0  0  0  0  0  0  0
   -0.4860    1.1500    1.3280 O   0  0  0  0  0  0  0  0  0  0  0  0
   -2.2020    1.3000   -0.1870 N   0  0  0  0  0  0  0  0  0  0  0  0
   -3.1700    1.7340    0.7720 C   0  0  0  0  0  0  0  0  0  0  0  0
   -4.5100    1.9440    0.0720 C   0  0  0  0  0  0  0  0  0  0  0  0
   -4.9920    0.6930   -0.5540 C   0  0  0  0  0  0  0  0  0  0  0  0
   -4.8790    0.5600   -1.9280 C   0  0  0  0  0  0  0  0  0  0  0  0
   -5.3010   -0.5660   -2.5790 C   0  0  0  0  0  0  0  0  0  0  0  0
   -5.1450   -0.7090   -4.3240 Cl  0  0  0  0  0  0  0  0  0  0  0  0
   -5.8500   -1.5920   -1.8600 C   0  0  0  0  0  0  0  0  0  0  0  0
   -5.9620   -1.4560   -0.4930 C   0  0  0  0  0  0  0  0  0  0  0  0
   -5.5480   -0.3360    0.1970 C   0  0  0  0  0  0  0  0  0  0  0  0
   -5.6730   -0.2160    1.6160 N   0  0  0  0  0  0  0  0  0  0  0  0
   -5.3200   -1.2180    2.4340 C   0  0  0  0  0  0  0  0  0  0  0  0
   -5.5640   -0.7780    3.6790 N   0  0  0  0  0  0  0  0  0  0  0  0
   -6.0470    0.4470    3.5980 N   0  0  0  0  0  0  0  0  0  0  0  0
   -6.1100    0.7840    2.3330 N   0  0  0  0  0  0  0  0  0  0  0  0
    3.9110    0.9510   -0.2060 C   0  0  0  0  0  0  0  0  0  0  0  0
    4.2030   -0.0250    0.7030 C   0  0  0  0  0  0  0  0  0  0  0  0
    5.4930   -0.1320    1.1730 C   0  0  0  0  0  0  0  0  0  0  0  0
    6.5130    0.7100    0.7620 C   0  0  0  0  0  0  0  0  0  0  0  0
    7.7620    0.5750    1.2440 N   0  0  0  0  0  0  0  0  0  0  0  0
    8.7260    1.3990    0.8330 C   0  0  0  0  0  0  0  0  0  0  0  0
    9.8980    1.2470    1.3070 O   0  0  0  0  0  0  0  0  0  0  0  0
    8.4870    2.3880   -0.0720 C   0  0  0  0  0  0  0  0  0  0  0  0
    7.1920    2.5380   -0.5810 C   0  0  0  0  0  0  0  0  0  0  0  0
    6.9450    3.5340   -1.4940 O   0  0  0  0  0  0  0  0  0  0  0  0
    6.1670    1.6930   -0.1700 C   0  0  0  0  0  0  0  0  0  0  0  0
    4.8770    1.8040   -0.6430 C   0  0  0  0  0  0  0  0  0  0  0  0
  1  2  2  0
  2  3  1  0
  2 29  1  0
  3  4  1  0
  4  5  1  1
  4 12  1  0
  5  6  1  0
  6  7  2  0
  6 11  1  0
  7  8  1  0
  8  9  2  0
  9 10  1  0
 10 11  2  0
 12 13  2  0
 12 14  1  0
 14 15  1  0
 15 16  1  0
 16 17  1  0
 17 18  2  0
 17 23  1  0
 18 19  1  0
 19 20  1  0
 19 21  2  0
 21 22  1  0
 22 23  2  0
 23 24  1  0
 24 25  1  0
 24 28  1  0
 25 26  2  0
 26 27  1  0
 27 28  2  0
 29 30  2  0
 29 40  1  0
 30 31  1  0
 31 32  2  0
 32 33  1  0
 32 39  1  0
 33 34  1  0
 34 35  2  0
 34 36  1  0
 36 37  2  0
 37 38  1  0
 37 39  1  0
 39 40  2  0
M  END
