
     RDKit          3D

 40 43  0  0  0  0  0  0  0  0999 V2000
   -3.6060   -3.4250   -0.1140 C   0  0  0  0  0  0  0  0  0  0  0  0
   -2.6960   -2.2130   -0.1140 C   0  0  0  0  0  0  0  0  0  0  0  0
   -1.9840   -2.2010    1.2190 C   0  0  0  0  0  0  0  0  0  0  0  0
   -1.0380   -0.9960    1.3100 C   0  0  0  0  0  0  0  0  0  0  0  0
   -1.5780    0.2430    1.5830 C   0  0  0  0  0  0  0  0  0  0  0  0
   -2.9000    0.7610    1.8410 C   0  0  0  0  0  0  0  0  0  0  0  0
   -2.9380    2.0460    2.0720 O   0  0  0  0  0  0  0  0  0  0  0  0
   -4.1430    0.1550    1.8900 N   0  0  0  0  0  0  0  0  0  0  0  0
   -5.3870    0.8870    2.1730 C   0  0  0  0  0  0  0  0  0  0  0  0
   -5.6960    1.9470    1.1770 C   0  0  2  0  0  0  0  0  0  0  0  0
   -6.8980    2.6060    1.4950 O   0  0  0  0  0  0  0  0  0  0  0  0
   -5.7530    1.3910   -0.2320 C   0  0  2  0  0  0  0  0  0  0  0  0
   -6.0650    2.4740   -1.2190 C   0  0  0  0  0  0  0  0  0  0  0  0
   -7.3440    2.1160   -1.9100 C   0  0  0  0  0  0  0  0  0  0  0  0
   -7.4490    0.6340   -1.7130 C   0  0  2  0  0  0  0  0  0  0  0  0
   -8.8800    0.2030   -1.4830 C   0  0  0  0  0  0  0  0  0  0  0  0
   -9.0170    0.1200    0.0040 C   0  0  0  0  0  0  0  0  0  0  0  0
   -7.8060    0.4360    0.5770 O   0  0  0  0  0  0  0  0  0  0  0  0
   -6.8190    0.3290   -0.3710 C   0  0  2  0  0  0  0  0  0  0  0  0
   -0.1480    1.2870    1.5690 S   0  0  0  0  0  0  0  0  0  0  0  0
    1.0720    0.0410    1.1980 C   0  0  0  0  0  0  0  0  0  0  0  0
    2.4350    0.3690    1.0960 N   0  0  0  0  0  0  0  0  0  0  0  0
    3.3780   -0.1970    0.2550 C   0  0  0  0  0  0  0  0  0  0  0  0
    3.1170   -1.0480   -0.6400 O   0  0  0  0  0  0  0  0  0  0  0  0
    4.7860    0.1610    0.3430 N   0  0  0  0  0  0  0  0  0  0  0  0
    5.7630   -0.4490   -0.5540 C   0  0  0  0  0  0  0  0  0  0  0  0
    7.1430    0.0470   -0.3040 C   0  0  2  0  0  0  0  0  0  0  0  0
    7.3990    1.4830   -0.4610 C   0  0  0  0  0  0  0  0  0  0  0  0
    7.1860    2.1350   -1.7660 C   0  0  2  0  0  0  0  0  0  0  0  0
    7.5590    3.6210   -1.5570 C   0  0  0  0  0  0  0  0  0  0  0  0
    5.8120    2.1270   -2.3300 C   0  0  0  0  0  0  0  0  0  0  0  0
    8.1540   -0.8540   -0.9710 C   0  0  0  0  0  0  0  0  0  0  0  0
    9.0450   -1.2840    0.1670 C   0  0  0  0  0  0  0  0  0  0  0  0
    8.7990   -0.4040    1.2130 O   0  0  0  0  0  0  0  0  0  0  0  0
    7.4310   -0.2850    1.1740 C   0  0  0  0  0  0  0  0  0  0  0  0
    0.3060   -1.0910    1.1220 C   0  0  0  0  0  0  0  0  0  0  0  0
    1.0100   -2.4220    1.1110 C   0  0  0  0  0  0  0  0  0  0  0  0
    2.2580   -2.4910    1.2610 O   0  0  0  0  0  0  0  0  0  0  0  0
    0.3860   -3.6240    0.9400 O   0  0  0  0  0  0  0  0  0  0  0  0
    1.0800   -4.8530    0.9310 C   0  0  0  0  0  0  0  0  0  0  0  0
  1  2  1  0
  2  3  1  0
  3  4  1  0
  4  5  2  0
  4 36  1  0
  5  6  1  0
  5 20  1  0
  6  7  2  0
  6  8  1  0
  8  9  1  0
  9 10  1  0
 10 11  1  1
 10 12  1  0
 12 13  1  6
 12 19  1  0
 13 14  1  0
 15 14  1  1
 15 16  1  0
 15 19  1  0
 16 17  1  0
 17 18  1  0
 19 18  1  1
 20 21  1  0
 21 22  1  0
 21 36  2  0
 22 23  1  0
 23 24  2  0
 23 25  1  0
 25 26  1  0
 27 26  1  6
 27 28  1  0
 27 32  1  0
 27 35  1  0
 28 29  1  0
 29 30  1  1
 29 31  1  0
 32 33  1  0
 33 34  1  0
 34 35  1  0
 36 37  1  0
 37 38  2  0
 37 39  1  0
 39 40  1  0
M  END
