
     RDKit          3D

 25 27  0  0  0  0  0  0  0  0999 V2000
    7.5100    0.6340   -0.8240 C   0  0  0  0  0  0  0  0  0  0  0  0
    7.7830   -0.3510    0.1210 O   0  0  0  0  0  0  0  0  0  0  0  0
    6.9590   -0.1680    1.1990 C   0  0  0  0  0  0  0  0  0  0  0  0
    5.5130   -0.2520    0.8600 C   0  0  0  0  0  0  0  0  0  0  0  0
    4.8410   -1.4560    0.8400 C   0  0  0  0  0  0  0  0  0  0  0  0
    3.4790   -1.5360    0.5240 C   0  0  0  0  0  0  0  0  0  0  0  0
    2.7420   -0.4210    0.2180 C   0  0  0  0  0  0  0  0  0  0  0  0
    1.3250   -0.4520   -0.1160 C   0  0  0  0  0  0  0  0  0  0  0  0
    0.7200    0.6370   -0.3920 O   0  0  0  0  0  0  0  0  0  0  0  0
    0.6040   -1.6670   -0.1400 N   0  0  0  0  0  0  0  0  0  0  0  0
   -0.7670   -1.5930   -0.4740 N   0  0  0  0  0  0  0  0  0  0  0  0
   -1.6740   -0.7840    0.2130 C   0  0  0  0  0  0  0  0  0  0  0  0
   -1.2630   -0.0780    1.1800 O   0  0  0  0  0  0  0  0  0  0  0  0
   -3.0860   -0.7350   -0.1620 C   0  0  0  0  0  0  0  0  0  0  0  0
   -3.6530   -1.5590   -1.1050 C   0  0  0  0  0  0  0  0  0  0  0  0
   -4.9930   -1.5000   -1.4510 C   0  0  0  0  0  0  0  0  0  0  0  0
   -5.8060   -0.5790   -0.8290 C   0  0  0  0  0  0  0  0  0  0  0  0
   -5.2640    0.2580    0.1190 C   0  0  0  0  0  0  0  0  0  0  0  0
   -3.9340    0.1920    0.4560 C   0  0  0  0  0  0  0  0  0  0  0  0
   -6.3240    1.1640    0.6520 C   0  0  0  0  0  0  0  0  0  0  0  0
   -7.5690    0.3190    0.4100 C   0  0  0  0  0  0  0  0  0  0  0  0
   -7.2640   -0.2460   -0.9540 C   0  0  0  0  0  0  0  0  0  0  0  0
    3.4330    0.7980    0.2400 C   0  0  0  0  0  0  0  0  0  0  0  0
    2.6760    1.9510   -0.0760 N   0  0  0  0  0  0  0  0  0  0  0  0
    4.7720    0.8710    0.5510 C   0  0  0  0  0  0  0  0  0  0  0  0
  1  2  1  0
  2  3  1  0
  3  4  1  0
  4  5  2  0
  4 25  1  0
  5  6  1  0
  6  7  2  0
  7  8  1  0
  7 23  1  0
  8  9  2  0
  8 10  1  0
 10 11  1  0
 11 12  1  0
 12 13  2  0
 12 14  1  0
 14 15  2  0
 14 19  1  0
 15 16  1  0
 16 17  2  0
 17 18  1  0
 17 22  1  0
 18 19  2  0
 18 20  1  0
 20 21  1  0
 21 22  1  0
 23 24  1  0
 23 25  2  0
M  END
