
     RDKit          3D

 24 26  0  0  0  0  0  0  0  0999 V2000
    6.9200    0.4720   -1.1730 C   0  0  0  0  0  0  0  0  0  0  0  0
    6.3380   -0.5920   -0.2370 C   0  0  1  0  0  0  0  0  0  0  0  0
    6.8960   -0.3750    1.0280 O   0  0  0  0  0  0  0  0  0  0  0  0
    4.8570   -0.4830   -0.1980 C   0  0  0  0  0  0  0  0  0  0  0  0
    4.2540    0.5470    0.4730 C   0  0  0  0  0  0  0  0  0  0  0  0
    2.8570    0.6650    0.5210 C   0  0  0  0  0  0  0  0  0  0  0  0
    2.0150   -0.2270   -0.0920 C   0  0  0  0  0  0  0  0  0  0  0  0
    0.5940   -0.1590   -0.0780 N   0  0  0  0  0  0  0  0  0  0  0  0
   -0.2060    0.8020    0.5430 C   0  0  0  0  0  0  0  0  0  0  0  0
    0.3830    1.7420    1.1810 O   0  0  0  0  0  0  0  0  0  0  0  0
   -1.6570    0.8780    0.5610 C   0  0  0  0  0  0  0  0  0  0  0  0
   -2.4060    0.0100   -0.0330 C   0  0  0  0  0  0  0  0  0  0  0  0
   -3.8030   -0.1810   -0.1910 C   0  0  0  0  0  0  0  0  0  0  0  0
   -4.2230   -1.2930   -0.9420 C   0  0  0  0  0  0  0  0  0  0  0  0
   -5.5500   -1.5840   -1.1650 C   0  0  0  0  0  0  0  0  0  0  0  0
   -6.5100   -0.7610   -0.6380 C   0  0  0  0  0  0  0  0  0  0  0  0
   -6.1450    0.3370    0.1020 C   0  0  0  0  0  0  0  0  0  0  0  0
   -6.9350    1.2860    0.7180 C   0  0  0  0  0  0  0  0  0  0  0  0
   -6.0540    2.1460    1.3100 C   0  0  0  0  0  0  0  0  0  0  0  0
   -4.7780    1.7180    1.0530 N   0  0  0  0  0  0  0  0  0  0  0  0
   -4.7930    0.6060    0.3120 C   0  0  0  0  0  0  0  0  0  0  0  0
    2.6270   -1.2850   -0.7820 C   0  0  0  0  0  0  0  0  0  0  0  0
    1.8910   -2.2380   -1.4330 O   0  0  0  0  0  0  0  0  0  0  0  0
    4.0270   -1.3800   -0.8130 C   0  0  0  0  0  0  0  0  0  0  0  0
  2  1  1  6
  2  3  1  0
  2  4  1  0
  4  5  2  0
  4 24  1  0
  5  6  1  0
  6  7  2  0
  7  8  1  0
  7 22  1  0
  8  9  1  0
  9 10  2  0
  9 11  1  0
 11 12  2  3
 12 13  1  0
 13 14  2  0
 13 21  1  0
 14 15  1  0
 15 16  2  0
 16 17  1  0
 17 18  1  0
 17 21  2  0
 18 19  2  0
 19 20  1  0
 20 21  1  0
 22 23  1  0
 22 24  2  0
M  END
