
     RDKit          3D

 25 28  0  0  0  0  0  0  0  0999 V2000
    5.4380    2.0610    0.9040 C   0  0  0  0  0  0  0  0  0  0  0  0
    5.5710    0.8120    0.3030 O   0  0  0  0  0  0  0  0  0  0  0  0
    4.5580   -0.0510   -0.0290 C   0  0  0  0  0  0  0  0  0  0  0  0
    3.2330    0.2830    0.2290 C   0  0  0  0  0  0  0  0  0  0  0  0
    2.1850   -0.5650   -0.0930 C   0  0  0  0  0  0  0  0  0  0  0  0
    0.8130   -0.1690    0.1990 C   0  0  0  0  0  0  0  0  0  0  0  0
    0.5600    0.6230    1.2980 C   0  0  0  0  0  0  0  0  0  0  0  0
   -0.7490    0.9760    1.5420 C   0  0  0  0  0  0  0  0  0  0  0  0
   -1.7890    0.5600    0.7230 C   0  0  0  0  0  0  0  0  0  0  0  0
   -3.0940    0.9280    0.9890 C   0  0  0  0  0  0  0  0  0  0  0  0
   -4.1270    0.4980    0.1520 C   0  0  0  0  0  0  0  0  0  0  0  0
   -5.3980    0.8490    0.3980 N   0  0  0  0  0  0  0  0  0  0  0  0
   -6.3820    0.4300   -0.4150 C   0  0  0  0  0  0  0  0  0  0  0  0
   -7.9000    0.8990   -0.0480 S   0  0  0  0  0  0  0  0  0  0  0  0
   -6.1390   -0.3480   -1.4960 N   0  0  0  0  0  0  0  0  0  0  0  0
   -4.8880   -0.7320   -1.7950 C   0  0  0  0  0  0  0  0  0  0  0  0
   -4.6810   -1.4530   -2.8000 O   0  0  0  0  0  0  0  0  0  0  0  0
   -3.8740   -0.2950   -0.9490 C   0  0  0  0  0  0  0  0  0  0  0  0
   -2.5700   -0.6580   -1.2070 C   0  0  0  0  0  0  0  0  0  0  0  0
   -1.5390   -0.2350   -0.3800 C   0  0  0  0  0  0  0  0  0  0  0  0
   -0.2250   -0.5820   -0.6150 C   0  0  0  0  0  0  0  0  0  0  0  0
    2.4990   -1.7700   -0.6870 C   0  0  0  0  0  0  0  0  0  0  0  0
    3.8070   -2.1200   -0.9500 C   0  0  0  0  0  0  0  0  0  0  0  0
    4.8530   -1.2550   -0.6200 C   0  0  0  0  0  0  0  0  0  0  0  0
    6.1580   -1.6240   -0.8920 O   0  0  0  0  0  0  0  0  0  0  0  0
  1  2  1  0
  2  3  1  0
  3  4  2  0
  3 24  1  0
  4  5  1  0
  5  6  1  0
  5 22  2  0
  6  7  2  0
  6 21  1  0
  7  8  1  0
  8  9  2  0
  9 10  1  0
  9 20  1  0
 10 11  2  0
 11 12  1  0
 11 18  1  0
 12 13  1  0
 13 14  2  0
 13 15  1  0
 15 16  1  0
 16 17  2  0
 16 18  1  0
 18 19  2  0
 19 20  1  0
 20 21  2  0
 22 23  1  0
 23 24  2  0
 24 25  1  0
M  END
