
     RDKit          3D

 25 27  0  0  0  0  0  0  0  0999 V2000
    8.0330    0.9080   -0.3560 C   0  0  0  0  0  0  0  0  0  0  0  0
    6.5650    0.8050   -0.3260 C   0  0  0  0  0  0  0  0  0  0  0  0
    5.8220    1.8220   -0.9070 C   0  0  0  0  0  0  0  0  0  0  0  0
    4.4450    1.7710   -0.9050 C   0  0  0  0  0  0  0  0  0  0  0  0
    3.7920    0.6850   -0.3110 C   0  0  0  0  0  0  0  0  0  0  0  0
    2.0080    0.6150   -0.3050 S   0  0  0  0  0  0  0  0  0  0  0  0
    1.5200   -0.9060    0.5340 C   0  0  0  0  0  0  0  0  0  0  0  0
    0.0290   -1.0480    0.5860 C   0  0  0  0  0  0  0  0  0  0  0  0
   -0.3770   -2.0800    1.1540 O   0  0  0  0  0  0  0  0  0  0  0  0
   -0.8480   -0.1160    0.0490 N   0  0  0  0  0  0  0  0  0  0  0  0
   -2.2550   -0.1910    0.0690 C   0  0  0  0  0  0  0  0  0  0  0  0
   -3.0220    0.7370   -0.6570 C   0  0  0  0  0  0  0  0  0  0  0  0
   -4.3950    0.7230   -0.6710 C   0  0  0  0  0  0  0  0  0  0  0  0
   -5.1100   -0.2160    0.0370 C   0  0  0  0  0  0  0  0  0  0  0  0
   -4.3920   -1.1330    0.7530 C   0  0  0  0  0  0  0  0  0  0  0  0
   -5.1110   -2.1490    1.5110 C   0  0  0  0  0  0  0  0  0  0  0  0
   -6.3600   -2.2000    1.5000 O   0  0  0  0  0  0  0  0  0  0  0  0
   -4.4330   -3.1000    2.2740 O   0  0  0  0  0  0  0  0  0  0  0  0
   -2.9900   -1.1100    0.7610 C   0  0  0  0  0  0  0  0  0  0  0  0
   -6.5630    0.0340   -0.1860 C   0  0  0  0  0  0  0  0  0  0  0  0
   -6.6010    1.4990   -0.5150 C   0  0  0  0  0  0  0  0  0  0  0  0
   -5.3670    1.6360   -1.3820 C   0  0  0  0  0  0  0  0  0  0  0  0
    4.5720   -0.3040    0.2560 C   0  0  0  0  0  0  0  0  0  0  0  0
    5.9480   -0.2740    0.2650 C   0  0  0  0  0  0  0  0  0  0  0  0
    6.7320   -1.2860    0.8440 N   0  0  0  0  0  0  0  0  0  0  0  0
  1  2  1  0
  2  3  2  0
  2 24  1  0
  3  4  1  0
  4  5  2  0
  5  6  1  0
  5 23  1  0
  6  7  1  0
  7  8  1  0
  8  9  2  0
  8 10  1  0
 10 11  1  0
 11 12  2  0
 11 19  1  0
 12 13  1  0
 13 14  2  0
 13 22  1  0
 14 15  1  0
 14 20  1  0
 15 16  1  0
 15 19  2  0
 16 17  2  0
 16 18  1  0
 20 21  1  0
 21 22  1  0
 23 24  2  0
 24 25  1  0
M  END
