
     RDKit          3D

 25 26  0  0  0  0  0  0  0  0999 V2000
    7.1620    2.5630    0.5840 C   0  0  0  0  0  0  0  0  0  0  0  0
    5.9360    1.7400    0.3420 C   0  0  0  0  0  0  0  0  0  0  0  0
    4.9370    1.8760   -0.5850 C   0  0  0  0  0  0  0  0  0  0  0  0
    3.9410    0.9690   -0.5670 C   0  0  0  0  0  0  0  0  0  0  0  0
    3.9580   -0.0140    0.3370 C   0  0  0  0  0  0  0  0  0  0  0  0
    3.0470   -1.1150    0.6000 C   0  0  0  0  0  0  0  0  0  0  0  0
    3.2880   -1.9180    1.5210 O   0  0  0  0  0  0  0  0  0  0  0  0
    1.8660   -1.2850   -0.1960 N   0  0  0  0  0  0  0  0  0  0  0  0
    0.9720   -2.3780    0.0740 C   0  0  0  0  0  0  0  0  0  0  0  0
   -0.2370   -2.4470   -0.7460 C   0  0  1  0  0  0  0  0  0  0  0  0
   -0.0290   -2.4970   -2.2440 C   0  0  0  0  0  0  0  0  0  0  0  0
   -0.7500   -3.9420   -0.4820 C   0  0  0  0  0  0  0  0  0  0  0  0
   -1.3840   -1.6670   -0.4310 N   0  0  0  0  0  0  0  0  0  0  0  0
   -1.5240   -0.2810   -0.3610 C   0  0  0  0  0  0  0  0  0  0  0  0
   -0.5110    0.4150   -0.6060 O   0  0  0  0  0  0  0  0  0  0  0  0
   -2.7320    0.4170   -0.0290 C   0  0  0  0  0  0  0  0  0  0  0  0
   -3.8240   -0.2650    0.2360 C   0  0  0  0  0  0  0  0  0  0  0  0
   -5.2210    0.0310    0.6060 C   0  0  0  0  0  0  0  0  0  0  0  0
   -5.8370    1.0490    1.1620 C   0  0  0  0  0  0  0  0  0  0  0  0
   -5.3970    2.3620    1.6660 C   0  0  0  0  0  0  0  0  0  0  0  0
   -4.3200    3.0980    1.3960 C   0  0  0  0  0  0  0  0  0  0  0  0
   -3.1650    2.9040    0.5090 C   0  0  0  0  0  0  0  0  0  0  0  0
   -2.5510    1.8910   -0.0400 C   0  0  0  0  0  0  0  0  0  0  0  0
   -1.4680    2.2880   -0.8230 O   0  0  0  0  0  0  0  0  0  0  0  0
    5.4570    0.3200    1.2410 S   0  0  0  0  0  0  0  0  0  0  0  0
  1  2  1  0
  2  3  2  0
  2 25  1  0
  3  4  1  0
  4  5  2  0
  5  6  1  0
  5 25  1  0
  6  7  2  0
  6  8  1  0
  8  9  1  0
  9 10  1  0
 10 11  1  6
 10 12  1  0
 10 13  1  0
 13 14  1  0
 14 15  2  0
 14 16  1  0
 16 17  2  0
 16 23  1  0
 17 18  1  0
 18 19  2  0
 19 20  1  0
 20 21  2  0
 21 22  1  0
 22 23  2  0
 23 24  1  0
M  END
