
     RDKit          3D

 24 26  0  0  0  0  0  0  0  0999 V2000
   -7.5090    0.6400    1.9780 O   0  0  0  0  0  0  0  0  0  0  0  0
   -6.4390    0.4810    1.2920 C   0  0  0  0  0  0  0  0  0  0  0  0
   -6.4630   -0.1340    0.0630 C   0  0  0  0  0  0  0  0  0  0  0  0
   -5.3050   -0.2980   -0.6640 C   0  0  0  0  0  0  0  0  0  0  0  0
   -4.0980    0.1520   -0.1690 C   0  0  0  0  0  0  0  0  0  0  0  0
   -2.8680   -0.0130   -0.9220 C   0  0  0  0  0  0  0  0  0  0  0  0
   -1.5990    0.3220   -0.6820 C   0  0  0  0  0  0  0  0  0  0  0  0
   -0.6460    0.0580   -1.5400 N   0  0  0  0  0  0  0  0  0  0  0  0
    0.8040    0.4050   -1.3450 C   0  0  0  0  0  0  0  0  0  0  0  0
    1.4900   -0.7570   -0.6670 C   0  0  2  0  0  0  0  0  0  0  0  0
    0.8100   -0.9250    0.5660 O   0  0  0  0  0  0  0  0  0  0  0  0
    2.8920   -0.4220   -0.3280 C   0  0  0  0  0  0  0  0  0  0  0  0
    3.5770    0.5940   -0.9470 C   0  0  0  0  0  0  0  0  0  0  0  0
    4.8910    0.9040   -0.6270 C   0  0  0  0  0  0  0  0  0  0  0  0
    5.5030    0.1470    0.3520 C   0  0  0  0  0  0  0  0  0  0  0  0
    6.8260    0.4100    0.7200 O   0  0  0  0  0  0  0  0  0  0  0  0
    4.8500   -0.8820    0.9980 C   0  0  0  0  0  0  0  0  0  0  0  0
    5.5130   -1.6110    1.9740 O   0  0  0  0  0  0  0  0  0  0  0  0
    3.5450   -1.1720    0.6630 C   0  0  0  0  0  0  0  0  0  0  0  0
   -0.9560   -0.5640   -2.6860 C   0  0  0  0  0  0  0  0  0  0  0  0
   -0.2750   -0.9290   -3.6520 O   0  0  0  0  0  0  0  0  0  0  0  0
   -2.7760   -0.8080   -2.5530 S   0  0  0  0  0  0  0  0  0  0  0  0
   -4.1120    0.7630    1.0640 C   0  0  0  0  0  0  0  0  0  0  0  0
   -5.2530    0.9120    1.7540 N   0  0  0  0  0  0  0  0  0  0  0  0
  1  2  2  0
  2  3  1  0
  2 24  1  0
  3  4  2  0
  4  5  1  0
  5  6  1  0
  5 23  2  0
  6  7  2  0
  6 22  1  0
  7  8  1  0
  8  9  1  0
  8 20  1  0
  9 10  1  0
 10 11  1  1
 10 12  1  0
 12 13  2  0
 12 19  1  0
 13 14  1  0
 14 15  2  0
 15 16  1  0
 15 17  1  0
 17 18  1  0
 17 19  2  0
 20 21  2  0
 20 22  1  0
 23 24  1  0
M  END
