
     RDKit          3D

 23 25  0  0  0  0  0  0  0  0999 V2000
    6.9710   -0.5790   -0.3000 C   0  0  0  0  0  0  0  0  0  0  0  0
    5.5760   -0.4960   -0.2020 O   0  0  0  0  0  0  0  0  0  0  0  0
    4.8440    0.6770   -0.3030 C   0  0  0  0  0  0  0  0  0  0  0  0
    5.4790    1.7430   -0.4960 O   0  0  0  0  0  0  0  0  0  0  0  0
    3.4060    0.6640   -0.1920 C   0  0  0  0  0  0  0  0  0  0  0  0
    2.6820    1.8440   -0.2860 C   0  0  0  0  0  0  0  0  0  0  0  0
    1.3520    1.7910   -0.1720 C   0  0  0  0  0  0  0  0  0  0  0  0
    0.0830    3.1440   -0.2380 S   0  0  0  0  0  0  0  0  0  0  0  0
   -1.3280    2.0600    0.0180 C   0  0  0  0  0  0  0  0  0  0  0  0
   -0.7610    0.7940    0.1310 C   0  0  0  0  0  0  0  0  0  0  0  0
    0.5710    0.6920    0.0320 C   0  0  0  0  0  0  0  0  0  0  0  0
    1.3550   -0.5050    0.1230 C   0  0  0  0  0  0  0  0  0  0  0  0
    0.8050   -1.6140    0.3100 O   0  0  0  0  0  0  0  0  0  0  0  0
    2.6860   -0.4560    0.0100 N   0  0  0  0  0  0  0  0  0  0  0  0
   -1.8520   -0.2580    0.3500 C   0  0  0  0  0  0  0  0  0  0  0  0
   -2.9270    0.0470   -0.6810 C   0  0  1  0  0  0  0  0  0  0  0  0
   -3.6890   -1.1700   -1.0660 C   0  0  0  0  0  0  0  0  0  0  0  0
   -4.3850   -1.8330    0.0350 C   0  0  0  0  0  0  0  0  0  0  0  0
   -4.1820   -3.2160    0.2840 N   0  0  0  0  0  0  0  0  0  0  0  0
   -5.1630   -1.1930    0.7740 O   0  0  0  0  0  0  0  0  0  0  0  0
   -3.7370    1.1980   -0.1570 C   0  0  0  0  0  0  0  0  0  0  0  0
   -2.7360    2.2990    0.1100 C   0  0  0  0  0  0  0  0  0  0  0  0
   -3.1330    3.4490    0.4200 O   0  0  0  0  0  0  0  0  0  0  0  0
  1  2  1  0
  2  3  1  0
  3  4  2  0
  3  5  1  0
  5  6  2  0
  5 14  1  0
  6  7  1  0
  7  8  1  0
  7 11  2  0
  8  9  1  0
  9 10  2  0
  9 22  1  0
 10 11  1  0
 10 15  1  0
 11 12  1  0
 12 13  2  0
 12 14  1  0
 15 16  1  0
 16 17  1  1
 16 21  1  0
 17 18  1  0
 18 19  1  0
 18 20  2  0
 21 22  1  0
 22 23  2  0
M  END
