
     RDKit          3D

 24 26  0  0  0  0  0  0  0  0999 V2000
    7.4530    0.6800   -0.4120 O   0  0  0  0  0  0  0  0  0  0  0  0
    6.2350    0.7220   -0.1410 C   0  0  0  0  0  0  0  0  0  0  0  0
    5.6620    2.0140    0.3240 C   0  0  0  0  0  0  0  0  0  0  0  0
    4.2900    2.1150    0.0140 O   0  0  0  0  0  0  0  0  0  0  0  0
    3.4110    1.0500   -0.0860 C   0  0  0  0  0  0  0  0  0  0  0  0
    2.0440    1.2380   -0.0570 C   0  0  0  0  0  0  0  0  0  0  0  0
    1.1570    0.1680   -0.1570 C   0  0  0  0  0  0  0  0  0  0  0  0
   -0.2960    0.4670   -0.1200 C   0  0  0  0  0  0  0  0  0  0  0  0
   -0.6660    1.6610   -0.1570 O   0  0  0  0  0  0  0  0  0  0  0  0
   -1.2150   -0.5930   -0.0440 N   0  0  0  0  0  0  0  0  0  0  0  0
   -2.6350   -0.3860   -0.0050 C   0  0  0  0  0  0  0  0  0  0  0  0
   -3.2440    0.7770   -0.0330 C   0  0  0  0  0  0  0  0  0  0  0  0
   -4.6890    0.6840    0.0200 C   0  0  0  0  0  0  0  0  0  0  0  0
   -5.5500    1.6850    0.0070 C   0  0  0  0  0  0  0  0  0  0  0  0
   -6.8980    1.4120    0.0640 O   0  0  0  0  0  0  0  0  0  0  0  0
   -4.9900   -0.7230    0.0890 C   0  0  0  0  0  0  0  0  0  0  0  0
   -6.1020   -1.2900    0.1500 O   0  0  0  0  0  0  0  0  0  0  0  0
   -3.6670   -1.4210    0.0740 C   0  0  0  0  0  0  0  0  0  0  0  0
   -3.5390   -2.7170    0.1230 C   0  0  0  0  0  0  0  0  0  0  0  0
   -2.0200   -3.5930    0.1080 S   0  0  0  0  0  0  0  0  0  0  0  0
    1.6820   -1.0770   -0.2860 C   0  0  0  0  0  0  0  0  0  0  0  0
    3.0650   -1.2680   -0.3160 C   0  0  0  0  0  0  0  0  0  0  0  0
    3.9390   -0.2200   -0.2180 C   0  0  0  0  0  0  0  0  0  0  0  0
    5.3510   -0.3850   -0.2450 N   0  0  0  0  0  0  0  0  0  0  0  0
  1  2  2  0
  2  3  1  0
  2 24  1  0
  3  4  1  0
  4  5  1  0
  5  6  2  0
  5 23  1  0
  6  7  1  0
  7  8  1  0
  7 21  2  0
  8  9  2  0
  8 10  1  0
 10 11  1  0
 11 12  2  0
 11 18  1  0
 12 13  1  0
 13 14  2  3
 13 16  1  0
 14 15  1  0
 16 17  2  0
 16 18  1  0
 18 19  2  3
 19 20  1  0
 21 22  1  0
 22 23  2  0
 23 24  1  0
M  END
