
     RDKit          3D

 24 26  0  0  0  0  0  0  0  0999 V2000
    3.7810    2.2430    0.0260 C   0  0  0  0  0  0  0  0  0  0  0  0
    2.7490    1.1610    0.1810 C   0  0  0  0  0  0  0  0  0  0  0  0
    1.4980    1.3140   -0.3440 C   0  0  0  0  0  0  0  0  0  0  0  0
    0.5310    0.3100   -0.2030 C   0  0  0  0  0  0  0  0  0  0  0  0
    0.8810   -0.8180    0.4710 C   0  0  0  0  0  0  0  0  0  0  0  0
    2.1530   -0.9740    1.0070 C   0  0  0  0  0  0  0  0  0  0  0  0
    3.0960    0.0160    0.8640 C   0  0  0  0  0  0  0  0  0  0  0  0
    4.7170   -0.1440    1.5270 S   0  0  2  0  0  0  0  0  0  0  0  0
    4.8180   -1.6960    2.3200 N   0  0  0  0  0  0  0  0  0  0  0  0
    5.0360    0.9730    2.4480 O   0  0  0  0  0  0  0  0  0  0  0  0
    5.6930   -0.1280    0.3770 O   0  0  0  0  0  0  0  0  0  0  0  0
   -0.0600   -1.8430    0.6240 O   0  0  0  0  0  0  0  0  0  0  0  0
   -1.3260   -1.6900    0.0840 C   0  0  0  0  0  0  0  0  0  0  0  0
   -2.2670   -2.7200    0.2280 C   0  0  0  0  0  0  0  0  0  0  0  0
   -3.5370   -2.6420   -0.2880 C   0  0  0  0  0  0  0  0  0  0  0  0
   -3.9400   -1.5180   -0.9830 C   0  0  0  0  0  0  0  0  0  0  0  0
   -5.2590   -1.4240   -1.5260 N   0  0  0  0  0  0  0  0  0  0  0  0
   -3.0320   -0.5010   -1.1320 C   0  0  0  0  0  0  0  0  0  0  0  0
   -1.7250   -0.5750   -0.6020 C   0  0  0  0  0  0  0  0  0  0  0  0
   -0.8290    0.5870   -0.7830 C   0  0  1  0  0  0  0  0  0  0  0  0
   -1.3170    1.7830    0.0300 C   0  0  0  0  0  0  0  0  0  0  0  0
   -2.6350    2.2870   -0.3280 C   0  0  0  0  0  0  0  0  0  0  0  0
   -2.8400    3.0130   -1.3300 O   0  0  0  0  0  0  0  0  0  0  0  0
   -3.7240    1.9550    0.4760 O   0  0  0  0  0  0  0  0  0  0  0  0
  1  2  1  0
  2  3  2  0
  2  7  1  0
  3  4  1  0
  4  5  2  0
  4 20  1  0
  5  6  1  0
  5 12  1  0
  6  7  2  0
  7  8  1  0
  8  9  1  1
  8 10  2  0
  8 11  2  0
 12 13  1  0
 13 14  2  0
 13 19  1  0
 14 15  1  0
 15 16  2  0
 16 17  1  0
 16 18  1  0
 18 19  2  0
 19 20  1  0
 20 21  1  1
 21 22  1  0
 22 23  2  0
 22 24  1  0
M  END
