
     RDKit          3D

 24 25  0  0  0  0  0  0  0  0999 V2000
   -5.0110    0.9900   -1.3150 C   0  0  0  0  0  0  0  0  0  0  0  0
   -3.8760    1.7600   -1.8590 C   0  0  0  0  0  0  0  0  0  0  0  0
   -2.4970    2.0570   -0.7900 S   0  0  0  0  0  0  0  0  0  0  0  0
   -1.5790    0.6900   -0.2140 C   0  0  0  0  0  0  0  0  0  0  0  0
   -1.7920    0.0400    0.9860 C   0  0  0  0  0  0  0  0  0  0  0  0
   -3.0050    0.3670    1.7580 C   0  0  0  0  0  0  0  0  0  0  0  0
   -0.9320   -0.8950    1.5190 C   0  0  0  0  0  0  0  0  0  0  0  0
   -1.1560   -1.5170    2.8800 C   0  0  0  0  0  0  0  0  0  0  0  0
    0.2250   -1.2510    0.8370 C   0  0  0  0  0  0  0  0  0  0  0  0
    1.1520   -2.0870    1.3020 O   0  0  0  0  0  0  0  0  0  0  0  0
    0.4510   -0.6060   -0.4300 C   0  0  0  0  0  0  0  0  0  0  0  0
    1.7090   -1.0690   -1.0540 C   0  0  0  0  0  0  0  0  0  0  0  0
    1.8010   -1.8540   -2.1000 N   0  0  0  0  0  0  0  0  0  0  0  0
    3.0660   -2.2410   -2.1760 N   0  0  0  0  0  0  0  0  0  0  0  0
    3.8100   -1.7170   -1.1890 C   0  0  0  0  0  0  0  0  0  0  0  0
    5.0380   -1.8850   -0.9290 O   0  0  0  0  0  0  0  0  0  0  0  0
    2.9830   -0.8900   -0.4180 C   0  0  0  0  0  0  0  0  0  0  0  0
    3.1730   -0.1000    0.5130 O   0  0  0  0  0  0  0  0  0  0  0  0
    3.3610    0.7160    1.4850 C   0  0  0  0  0  0  0  0  0  0  0  0
    2.4850    0.6500    2.3840 O   0  0  0  0  0  0  0  0  0  0  0  0
    4.5070    1.6860    1.5970 C   0  0  0  0  0  0  0  0  0  0  0  0
    5.0960    2.0300    0.3830 O   0  0  0  0  0  0  0  0  0  0  0  0
   -0.4000    0.2880   -0.8620 C   0  0  0  0  0  0  0  0  0  0  0  0
   -0.1490    0.9250   -2.2240 C   0  0  0  0  0  0  0  0  0  0  0  0
  1  2  1  0
  2  3  1  0
  3  4  1  0
  4  5  2  0
  4 23  1  0
  5  6  1  0
  5  7  1  0
  7  8  1  0
  7  9  2  0
  9 10  1  0
  9 11  1  0
 11 12  1  0
 11 23  2  0
 12 13  1  0
 12 17  2  0
 13 14  1  0
 14 15  1  0
 15 16  2  0
 15 17  1  0
 17 18  1  0
 18 19  1  0
 19 20  2  0
 19 21  1  0
 21 22  1  0
 23 24  1  0
M  END
