
     RDKit          3D

 19 20  0  0  0  0  0  0  0  0999 V2000
   -3.1750   -1.8720   -0.3440 C   0  0  0  0  0  0  0  0  0  0  0  0
   -1.9170   -1.1950    0.2380 C   0  0  2  0  0  0  0  0  0  0  0  0
   -2.0840   -1.4120    1.7740 C   0  0  0  0  0  0  0  0  0  0  0  0
   -2.0290    0.2600    0.0600 C   0  0  0  0  0  0  0  0  0  0  0  0
   -3.3180    0.7830    0.0590 C   0  0  0  0  0  0  0  0  0  0  0  0
   -3.5590    2.1350   -0.0160 C   0  0  0  0  0  0  0  0  0  0  0  0
   -2.4810    2.9880   -0.0900 C   0  0  0  0  0  0  0  0  0  0  0  0
   -1.2120    2.4750   -0.0910 C   0  0  0  0  0  0  0  0  0  0  0  0
   -0.9510    1.0910   -0.0170 C   0  0  0  0  0  0  0  0  0  0  0  0
    0.4310    0.6550   -0.1010 C   0  0  0  0  0  0  0  0  0  0  0  0
    1.0650   -0.2150    0.7220 C   0  0  0  0  0  0  0  0  0  0  0  0
    2.4050   -0.5720    0.5300 C   0  0  0  0  0  0  0  0  0  0  0  0
    3.1420   -0.0550   -0.5070 C   0  0  0  0  0  0  0  0  0  0  0  0
    4.8320   -0.5100   -0.7450 S   0  0  2  0  0  0  0  0  0  0  0  0
    5.2420   -1.6240    0.4870 N   0  0  0  0  0  0  0  0  0  0  0  0
    5.7230    0.6900   -0.6840 O   0  0  0  0  0  0  0  0  0  0  0  0
    5.0320   -1.1460   -2.1020 O   0  0  0  0  0  0  0  0  0  0  0  0
    2.5180    0.8330   -1.3550 C   0  0  0  0  0  0  0  0  0  0  0  0
    1.2000    1.1800   -1.1620 C   0  0  0  0  0  0  0  0  0  0  0  0
  2  1  1  6
  2  3  1  0
  2  4  1  0
  4  5  2  0
  4  9  1  0
  5  6  1  0
  6  7  2  0
  7  8  1  0
  8  9  2  0
  9 10  1  0
 10 11  2  0
 10 19  1  0
 11 12  1  0
 12 13  2  0
 13 14  1  0
 13 18  1  0
 14 15  1  1
 14 16  2  0
 14 17  2  0
 18 19  2  0
M  END
