
     RDKit          3D

 24 26  0  0  0  0  0  0  0  0999 V2000
    1.5710    1.3100    0.2220 C   0  0  0  0  0  0  0  0  0  0  0  0
    1.5410   -0.2150    0.0110 C   0  0  0  0  0  0  0  0  0  0  0  0
    2.6770   -0.9210    0.1900 C   0  0  0  0  0  0  0  0  0  0  0  0
    4.0580   -0.6780    0.5560 C   0  0  0  0  0  0  0  0  0  0  0  0
    4.8860   -1.6680    0.6390 O   0  0  0  0  0  0  0  0  0  0  0  0
    4.5800    0.5620    0.8340 N   0  0  0  0  0  0  0  0  0  0  0  0
    5.9790    0.7010    1.2080 C   0  0  0  0  0  0  0  0  0  0  0  0
    6.5400    1.9680    1.5020 N   0  0  0  0  0  0  0  0  0  0  0  0
    6.7150   -0.3090    1.2760 O   0  0  0  0  0  0  0  0  0  0  0  0
    2.1710   -2.6280   -0.1530 S   0  0  0  0  0  0  0  0  0  0  0  0
    0.4650   -2.2300   -0.5080 C   0  0  0  0  0  0  0  0  0  0  0  0
   -0.5770   -3.2100   -0.8820 C   0  0  0  0  0  0  0  0  0  0  0  0
    0.0180   -4.4720   -0.9040 O   0  0  0  0  0  0  0  0  0  0  0  0
    0.4090   -0.8790   -0.3450 C   0  0  0  0  0  0  0  0  0  0  0  0
   -0.9090   -0.2000   -0.5650 C   0  0  0  0  0  0  0  0  0  0  0  0
   -1.1870    0.4770   -1.7250 C   0  0  0  0  0  0  0  0  0  0  0  0
   -2.4170    1.0750   -1.8710 C   0  0  0  0  0  0  0  0  0  0  0  0
   -3.3670    1.0050   -0.8810 C   0  0  0  0  0  0  0  0  0  0  0  0
   -3.1120    0.3240    0.3070 C   0  0  0  0  0  0  0  0  0  0  0  0
   -1.8710   -0.2610    0.4170 C   0  0  0  0  0  0  0  0  0  0  0  0
   -4.1010    0.2910    1.2560 O   0  0  0  0  0  0  0  0  0  0  0  0
   -5.2710    1.0570    1.1220 C   0  0  0  0  0  0  0  0  0  0  0  0
   -5.6810    1.0920   -0.3130 C   0  0  0  0  0  0  0  0  0  0  0  0
   -4.5920    1.6220   -1.0730 O   0  0  0  0  0  0  0  0  0  0  0  0
  1  2  1  0
  2  3  2  0
  2 14  1  0
  3  4  1  0
  3 10  1  0
  4  5  2  0
  4  6  1  0
  6  7  1  0
  7  8  1  0
  7  9  2  0
 10 11  1  0
 11 12  1  0
 11 14  2  0
 12 13  1  0
 14 15  1  0
 15 16  2  0
 15 20  1  0
 16 17  1  0
 17 18  2  0
 18 19  1  0
 18 24  1  0
 19 20  2  0
 19 21  1  0
 21 22  1  0
 22 23  1  0
 23 24  1  0
M  END
