
     RDKit          3D

 12 13  0  0  0  0  0  0  0  0999 V2000
    3.6980   -0.1990    0.4570 C   0  0  0  0  0  0  0  0  0  0  0  0
    2.2780   -0.6270    0.1540 C   0  0  0  0  0  0  0  0  0  0  0  0
    1.5350    0.5940   -0.3440 C   0  0  0  0  0  0  0  0  0  0  0  0
    0.1650    0.2470   -0.6530 N   0  0  0  0  0  0  0  0  0  0  0  0
   -0.2920   -0.2020   -1.9120 C   0  0  0  0  0  0  0  0  0  0  0  0
    0.4040   -0.3740   -2.9630 O   0  0  0  0  0  0  0  0  0  0  0  0
   -1.7420   -0.4500   -1.8300 C   0  0  0  0  0  0  0  0  0  0  0  0
   -2.1290   -0.1220   -0.4400 C   0  0  0  0  0  0  0  0  0  0  0  0
   -3.2100   -0.0930    0.3610 C   0  0  0  0  0  0  0  0  0  0  0  0
   -2.7380    0.3750    1.6780 C   0  0  0  0  0  0  0  0  0  0  0  0
   -1.2890    0.5990    1.5110 C   0  0  0  0  0  0  0  0  0  0  0  0
   -0.9480    0.3040    0.2690 C   0  0  0  0  0  0  0  0  0  0  0  0
  1  2  1  0
  2  3  1  0
  3  4  1  0
  4  5  1  0
  4 12  1  0
  5  6  2  0
  5  7  1  0
  7  8  1  0
  8  9  2  0
  8 12  1  0
  9 10  1  0
 10 11  1  0
 11 12  2  0
M  END
