
     RDKit          3D

 12 12  0  0  0  0  0  0  0  0999 V2000
   -3.8000    1.4550    0.1940 C   0  0  0  0  0  0  0  0  0  0  0  0
   -2.3870    1.0530    0.4150 C   0  0  0  0  0  0  0  0  0  0  0  0
   -1.7970    0.0730   -0.2640 C   0  0  0  0  0  0  0  0  0  0  0  0
   -2.6280   -0.6230   -1.2790 C   0  0  0  0  0  0  0  0  0  0  0  0
   -0.4590   -0.2460    0.0040 N   0  0  0  0  0  0  0  0  0  0  0  0
   -0.0240   -1.6180   -0.0940 C   0  0  0  0  0  0  0  0  0  0  0  0
    1.3890   -1.7650    0.3320 C   0  0  0  0  0  0  0  0  0  0  0  0
    2.2380   -0.7760    0.2170 C   0  0  0  0  0  0  0  0  0  0  0  0
    3.5410   -0.9380    0.6190 O   0  0  0  0  0  0  0  0  0  0  0  0
    4.4960    0.0870    0.6850 C   0  0  0  0  0  0  0  0  0  0  0  0
    1.7830    0.5080   -0.3480 C   0  0  0  0  0  0  0  0  0  0  0  0
    0.4590    0.7970    0.3710 C   0  0  0  0  0  0  0  0  0  0  0  0
  1  2  1  0
  2  3  2  3
  3  4  1  0
  3  5  1  0
  5  6  1  0
  5 12  1  0
  6  7  1  0
  7  8  2  0
  8  9  1  0
  8 11  1  0
  9 10  1  0
 11 12  1  0
M  END
