
     RDKit          3D

 12 12  0  0  0  0  0  0  0  0999 V2000
   -4.1500    0.8960   -0.4830 C   0  0  0  0  0  0  0  0  0  0  0  0
   -3.0630    1.3580    0.0900 C   0  0  0  0  0  0  0  0  0  0  0  0
   -1.8470    0.5500    0.2510 C   0  0  0  0  0  0  0  0  0  0  0  0
   -0.8170    1.1270    0.8410 C   0  0  0  0  0  0  0  0  0  0  0  0
    0.5330    0.6750    1.1810 C   0  0  0  0  0  0  0  0  0  0  0  0
    1.1520   -0.1810    0.2690 N   0  0  0  0  0  0  0  0  0  0  0  0
    2.5110   -0.4880    0.5070 C   0  0  0  0  0  0  0  0  0  0  0  0
    3.4680    0.6720    0.2820 C   0  0  0  0  0  0  0  0  0  0  0  0
    4.7560    0.1970    0.5680 O   0  0  0  0  0  0  0  0  0  0  0  0
    0.4400   -1.0600   -0.5340 C   0  0  0  0  0  0  0  0  0  0  0  0
   -0.7950   -1.6680    0.0620 C   0  0  0  0  0  0  0  0  0  0  0  0
   -1.9930   -0.8210   -0.2940 C   0  0  0  0  0  0  0  0  0  0  0  0
  1  2  2  0
  2  3  1  0
  3  4  2  0
  3 12  1  0
  4  5  1  0
  5  6  1  0
  6  7  1  0
  6 10  1  0
  7  8  1  0
  8  9  1  0
 10 11  1  0
 11 12  1  0
M  END
