
     RDKit          3D

 32 34  0  0  0  0  0  0  0  0999 V2000
    8.9950   -1.4900    2.0480 C   0  0  0  0  0  0  0  0  0  0  0  0
    7.6790   -1.1080    1.6410 O   0  0  0  0  0  0  0  0  0  0  0  0
    7.4450    0.1920    1.2670 C   0  0  0  0  0  0  0  0  0  0  0  0
    8.4580    0.9710    1.3220 O   0  0  0  0  0  0  0  0  0  0  0  0
    6.1510    0.6900    0.8280 C   0  0  0  0  0  0  0  0  0  0  0  0
    6.0650    2.0340    0.4640 C   0  0  0  0  0  0  0  0  0  0  0  0
    4.9060    2.6090    0.0350 C   0  0  0  0  0  0  0  0  0  0  0  0
    3.7550    1.8420   -0.0490 C   0  0  0  0  0  0  0  0  0  0  0  0
    2.5960    2.3550   -0.4710 N   0  0  0  0  0  0  0  0  0  0  0  0
    1.4620    1.5740   -0.5610 C   0  0  0  0  0  0  0  0  0  0  0  0
    0.2300    2.2080   -1.0060 C   0  0  0  0  0  0  0  0  0  0  0  0
    1.4760    0.2580   -0.2250 C   0  0  0  0  0  0  0  0  0  0  0  0
    0.3800   -0.6470   -0.3630 C   0  0  0  0  0  0  0  0  0  0  0  0
   -0.9510   -0.2700    0.0650 N   0  0  0  0  0  0  0  0  0  0  0  0
   -1.4240   -1.2480    1.0480 C   0  0  0  0  0  0  0  0  0  0  0  0
   -1.7500   -2.5910    0.4960 C   0  0  0  0  0  0  0  0  0  0  0  0
   -2.3060   -3.7220    1.8290 S   0  0  0  0  0  0  0  0  0  0  0  0
   -3.8810   -3.0960    2.5430 C   0  0  0  0  0  0  0  0  0  0  0  0
   -1.8590   -0.3840   -1.0670 C   0  0  0  0  0  0  0  0  0  0  0  0
   -3.2060    0.1150   -0.9300 C   0  0  0  0  0  0  0  0  0  0  0  0
   -3.6610    0.7520    0.1720 C   0  0  0  0  0  0  0  0  0  0  0  0
   -4.9630    1.2340    0.2090 C   0  0  0  0  0  0  0  0  0  0  0  0
   -5.4650    1.9070    1.4150 C   0  0  0  0  0  0  0  0  0  0  0  0
   -6.6250    2.3450    1.4080 O   0  0  0  0  0  0  0  0  0  0  0  0
   -5.7730    1.0590   -0.8800 C   0  0  0  0  0  0  0  0  0  0  0  0
   -5.3090    0.4210   -1.9830 N   0  0  0  0  0  0  0  0  0  0  0  0
   -6.1990    0.2770   -3.1100 C   0  0  0  0  0  0  0  0  0  0  0  0
   -4.0510   -0.0440   -2.0070 C   0  0  0  0  0  0  0  0  0  0  0  0
   -3.6530   -0.6410   -3.0640 O   0  0  0  0  0  0  0  0  0  0  0  0
    2.6900   -0.2200    0.2070 N   0  0  0  0  0  0  0  0  0  0  0  0
    3.7970    0.5130    0.3010 C   0  0  0  0  0  0  0  0  0  0  0  0
    5.0040   -0.0500    0.7390 C   0  0  0  0  0  0  0  0  0  0  0  0
  1  2  1  0
  2  3  1  0
  3  4  2  0
  3  5  1  0
  5  6  2  0
  5 32  1  0
  6  7  1  0
  7  8  2  0
  8  9  1  0
  8 31  1  0
  9 10  2  0
 10 11  1  0
 10 12  1  0
 12 13  1  0
 12 30  2  0
 13 14  1  0
 14 15  1  0
 14 19  1  0
 15 16  1  0
 16 17  1  0
 17 18  1  0
 19 20  1  0
 20 21  2  0
 20 28  1  0
 21 22  1  0
 22 23  1  0
 22 25  2  0
 23 24  2  0
 25 26  1  0
 26 27  1  0
 26 28  1  0
 28 29  2  0
 30 31  1  0
 31 32  2  0
M  END
