
     RDKit          3D

 32 34  0  0  0  0  0  0  0  0999 V2000
    0.1580    2.2960   -2.2100 C   0  0  0  0  0  0  0  0  0  0  0  0
   -0.8100    1.4980   -2.5390 C   0  0  0  0  0  0  0  0  0  0  0  0
   -0.9490    0.4990   -4.0430 S   0  0  0  0  0  0  0  0  0  0  0  0
   -2.6900    0.5350   -3.9780 O   0  0  0  0  0  0  0  0  0  0  0  0
   -3.0010    0.6740   -2.6350 C   0  0  0  0  0  0  0  0  0  0  0  0
   -4.3930    0.2550   -2.1840 C   0  0  0  0  0  0  0  0  0  0  0  0
   -2.0820    1.1590   -1.8430 C   0  0  0  0  0  0  0  0  0  0  0  0
   -2.2310    1.4250   -0.3940 C   0  0  0  0  0  0  0  0  0  0  0  0
   -1.3940    0.7270    0.5260 N   0  0  0  0  0  0  0  0  0  0  0  0
   -0.1810    1.2440    1.0730 C   0  0  0  0  0  0  0  0  0  0  0  0
    1.1230    0.8340    0.6080 C   0  0  0  0  0  0  0  0  0  0  0  0
    2.2930    1.4740    1.1190 C   0  0  0  0  0  0  0  0  0  0  0  0
    2.2990    2.6000    2.0890 C   0  0  0  0  0  0  0  0  0  0  0  0
    3.6660    3.0080    2.3570 N   0  0  0  0  0  0  0  0  0  0  0  0
    3.6700    4.0450    3.3920 C   0  0  0  0  0  0  0  0  0  0  0  0
    4.1810    3.5740    1.1120 C   0  0  0  0  0  0  0  0  0  0  0  0
    3.3330    0.8150    0.5370 C   0  0  0  0  0  0  0  0  0  0  0  0
    2.8450   -0.1380   -0.2540 N   0  0  0  0  0  0  0  0  0  0  0  0
    1.4900   -0.1340   -0.2150 N   0  0  0  0  0  0  0  0  0  0  0  0
    0.7620   -1.1430   -0.9810 C   0  0  1  0  0  0  0  0  0  0  0  0
    1.5160   -1.3280   -2.2980 C   0  0  0  0  0  0  0  0  0  0  0  0
    0.7770   -2.3850   -3.0880 C   0  0  0  0  0  0  0  0  0  0  0  0
    1.0840   -3.7330   -2.4510 C   0  0  0  0  0  0  0  0  0  0  0  0
    1.5680   -3.5430   -1.0300 C   0  0  0  0  0  0  0  0  0  0  0  0
    0.8220   -2.5020   -0.2680 C   0  0  0  0  0  0  0  0  0  0  0  0
   -1.8330   -0.5010    1.0800 C   0  0  0  0  0  0  0  0  0  0  0  0
   -1.1410   -1.1520    1.9370 O   0  0  0  0  0  0  0  0  0  0  0  0
   -3.1170   -1.0990    0.6960 C   0  0  0  0  0  0  0  0  0  0  0  0
   -3.3790   -2.3060    1.4070 O   0  0  0  0  0  0  0  0  0  0  0  0
   -3.4770   -2.3750    2.7840 C   0  0  0  0  0  0  0  0  0  0  0  0
   -3.7540   -3.6650    3.4930 C   0  0  0  0  0  0  0  0  0  0  0  0
   -3.3250   -1.3130    3.4290 O   0  0  0  0  0  0  0  0  0  0  0  0
  1  2  2  0
  2  3  1  0
  2  7  1  0
  3  4  1  0
  4  5  1  0
  5  6  1  0
  5  7  2  0
  7  8  1  0
  8  9  1  0
  9 10  1  0
  9 26  1  0
 10 11  1  0
 11 12  2  0
 11 19  1  0
 12 13  1  0
 12 17  1  0
 13 14  1  0
 14 15  1  0
 14 16  1  0
 17 18  2  0
 18 19  1  0
 20 19  1  1
 20 21  1  0
 20 25  1  0
 21 22  1  0
 22 23  1  0
 23 24  1  0
 24 25  1  0
 26 27  2  0
 26 28  1  0
 28 29  1  0
 29 30  1  0
 30 31  1  0
 30 32  2  0
M  END
