
     RDKit          3D

 32 34  0  0  0  0  0  0  0  0999 V2000
   -2.4060    4.0440   -3.9960 C   0  0  0  0  0  0  0  0  0  0  0  0
   -3.0470    3.1180   -3.8930 C   0  0  0  0  0  0  0  0  0  0  0  0
   -3.8770    1.9510   -3.7440 C   0  0  0  0  0  0  0  0  0  0  0  0
   -3.0660    0.6510   -3.7540 C   0  0  0  0  0  0  0  0  0  0  0  0
   -2.2750    0.4130   -2.5910 N   0  0  0  0  0  0  0  0  0  0  0  0
   -0.9760    0.7910   -2.4020 C   0  0  0  0  0  0  0  0  0  0  0  0
   -0.5700    0.3670   -1.1500 C   0  0  0  0  0  0  0  0  0  0  0  0
    0.5560    0.4450   -0.5210 O   0  0  0  0  0  0  0  0  0  0  0  0
    1.6940    0.4800    0.0580 C   0  0  0  0  0  0  0  0  0  0  0  0
    2.5270   -0.2670   -0.5460 O   0  0  0  0  0  0  0  0  0  0  0  0
    1.9840    1.2960    1.3130 C   0  0  0  0  0  0  0  0  0  0  0  0
    3.0650    0.3690    2.4000 S   0  0  0  0  0  0  0  0  0  0  0  0
    4.6990    0.3820    1.7720 C   0  0  0  0  0  0  0  0  0  0  0  0
    5.5710    1.3000    2.2130 N   0  0  0  0  0  0  0  0  0  0  0  0
    6.8270    1.4840    1.7330 C   0  0  0  0  0  0  0  0  0  0  0  0
    7.7010    2.5240    2.3010 C   0  0  0  0  0  0  0  0  0  0  0  0
    7.2580    0.6670    0.7050 C   0  0  0  0  0  0  0  0  0  0  0  0
    6.3660   -0.2790    0.2440 C   0  0  0  0  0  0  0  0  0  0  0  0
    6.7950   -1.1070   -0.9430 C   0  0  0  0  0  0  0  0  0  0  0  0
    5.1140   -0.4150    0.7760 N   0  0  0  0  0  0  0  0  0  0  0  0
   -1.6700   -0.2480   -0.6240 C   0  0  0  0  0  0  0  0  0  0  0  0
   -1.7640   -0.8310    0.6490 C   0  0  0  0  0  0  0  0  0  0  0  0
   -2.9230   -1.4300    1.0570 C   0  0  0  0  0  0  0  0  0  0  0  0
   -2.9220   -1.9420    2.3260 O   0  0  0  0  0  0  0  0  0  0  0  0
   -3.9280   -2.5570    3.0500 C   0  0  2  0  0  0  0  0  0  0  0  0
   -4.6540   -3.6140    2.2320 C   0  0  0  0  0  0  0  0  0  0  0  0
   -4.9000   -1.6520    3.7690 C   0  0  0  0  0  0  0  0  0  0  0  0
   -3.9450   -1.4550    0.2090 N   0  0  0  0  0  0  0  0  0  0  0  0
   -3.8700   -0.8730   -1.0650 C   0  0  0  0  0  0  0  0  0  0  0  0
   -5.0030   -1.1720   -1.9090 C   0  0  0  0  0  0  0  0  0  0  0  0
   -5.1590   -0.7250   -3.0690 O   0  0  0  0  0  0  0  0  0  0  0  0
   -2.7410   -0.2640   -1.4720 C   0  0  0  0  0  0  0  0  0  0  0  0
  1  2  3  0
  2  3  1  0
  3  4  1  0
  4  5  1  0
  5  6  1  0
  5 32  1  0
  6  7  2  0
  7  8  1  0
  7 21  1  0
  8  9  1  0
  9 10  2  0
  9 11  1  0
 11 12  1  0
 12 13  1  0
 13 14  2  0
 13 20  1  0
 14 15  1  0
 15 16  1  0
 15 17  2  0
 17 18  1  0
 18 19  1  0
 18 20  2  0
 21 22  2  0
 21 32  1  0
 22 23  1  0
 23 24  1  0
 23 28  2  0
 24 25  1  0
 25 26  1  6
 25 27  1  0
 28 29  1  0
 29 30  1  0
 29 32  2  0
 30 31  2  0
M  END
