
     RDKit          3D

 31 32  0  0  0  0  0  0  0  0999 V2000
   -2.2160   -4.9270   -0.1170 C   0  0  0  0  0  0  0  0  0  0  0  0
   -2.3900   -4.4630   -1.4000 O   0  0  0  0  0  0  0  0  0  0  0  0
   -2.7970   -3.1520   -1.4280 C   0  0  0  0  0  0  0  0  0  0  0  0
   -1.7760   -2.2610   -0.8000 C   0  0  1  0  0  0  0  0  0  0  0  0
   -0.5910   -2.4980   -1.5730 O   0  0  0  0  0  0  0  0  0  0  0  0
    0.2270   -1.4070   -1.6350 C   0  0  0  0  0  0  0  0  0  0  0  0
    0.1100   -0.5120   -0.4260 C   0  0  1  0  0  0  0  0  0  0  0  0
    0.9530    0.5770   -0.6230 O   0  0  0  0  0  0  0  0  0  0  0  0
    1.9660    0.6710    0.3110 C   0  0  1  0  0  0  0  0  0  0  0  0
    3.3400    0.5240   -0.3300 C   0  0  0  0  0  0  0  0  0  0  0  0
    4.3540    0.5540    0.7920 C   0  0  1  0  0  0  0  0  0  0  0  0
    3.9810   -0.3830    1.7570 O   0  0  0  0  0  0  0  0  0  0  0  0
    5.7350    0.1860    0.3170 C   0  0  0  0  0  0  0  0  0  0  0  0
    6.5890    0.2260    1.4130 O   0  0  0  0  0  0  0  0  0  0  0  0
    7.9010   -0.1030    1.0650 C   0  0  0  0  0  0  0  0  0  0  0  0
    4.3880    1.9370    1.3520 C   0  0  0  0  0  0  0  0  0  0  0  0
    3.1400    2.7240    1.1570 C   0  0  0  0  0  0  0  0  0  0  0  0
    1.8850    1.9360    1.1260 C   0  0  2  0  0  0  0  0  0  0  0  0
    1.4170    1.7140    2.4200 O   0  0  0  0  0  0  0  0  0  0  0  0
   -1.1590   -0.1350   -0.1370 O   0  0  0  0  0  0  0  0  0  0  0  0
   -2.0820   -0.7930   -0.9730 C   0  0  2  0  0  0  0  0  0  0  0  0
   -3.4680   -0.3570   -0.7110 C   0  0  1  0  0  0  0  0  0  0  0  0
   -4.0690   -0.4710    0.6180 C   0  0  0  0  0  0  0  0  0  0  0  0
   -4.2270   -1.7040    1.2730 N   0  0  0  0  0  0  0  0  0  0  0  0
   -3.8030    0.9090   -1.4510 C   0  0  1  0  0  0  0  0  0  0  0  0
   -5.1540    1.2390   -1.1320 O   0  0  0  0  0  0  0  0  0  0  0  0
   -2.9570    2.0930   -1.2460 C   0  0  2  0  0  0  0  0  0  0  0  0
   -1.6240    1.9970   -1.5230 O   0  0  0  0  0  0  0  0  0  0  0  0
   -3.1230    2.7690    0.0900 C   0  0  0  0  0  0  0  0  0  0  0  0
   -4.4450    2.9040    0.4660 O   0  0  0  0  0  0  0  0  0  0  0  0
   -4.5710    3.4960    1.6310 O   0  0  0  0  0  0  0  0  0  0  0  0
  1  2  1  0
  2  3  1  0
  4  3  1  6
  4  5  1  0
  4 21  1  0
  5  6  1  0
  6  7  1  0
  7  8  1  6
  7 20  1  0
  9  8  1  6
  9 10  1  0
  9 18  1  0
 10 11  1  0
 11 12  1  1
 11 13  1  0
 11 16  1  0
 13 14  1  0
 14 15  1  0
 16 17  1  0
 17 18  1  0
 18 19  1  1
 21 20  1  1
 21 22  1  0
 22 23  1  1
 22 25  1  0
 23 24  1  0
 25 26  1  1
 25 27  1  0
 27 28  1  1
 27 29  1  0
 29 30  1  0
 30 31  1  0
M  CHG  1  24   1
M  END
