
     RDKit          3D

 33 36  0  0  0  0  0  0  0  0999 V2000
   -5.1320   -2.6350    1.4550 C   0  0  0  0  0  0  0  0  0  0  0  0
   -3.8710   -1.9880    1.8320 C   0  0  0  0  0  0  0  0  0  0  0  0
   -3.6170   -2.0060    3.1060 O   0  0  0  0  0  0  0  0  0  0  0  0
   -2.9400   -1.3690    0.9700 N   0  0  0  0  0  0  0  0  0  0  0  0
   -1.7710   -0.7800    1.3840 C   0  0  0  0  0  0  0  0  0  0  0  0
   -1.1400   -0.3010    0.2860 C   0  0  0  0  0  0  0  0  0  0  0  0
    0.1700    0.3850    0.3070 N   0  0  0  0  0  0  0  0  0  0  0  0
    1.1650   -0.5130    0.4830 C   0  0  0  0  0  0  0  0  0  0  0  0
    0.6890   -1.7730    0.5180 O   0  0  0  0  0  0  0  0  0  0  0  0
    2.5890   -0.5230    0.6510 C   0  0  0  0  0  0  0  0  0  0  0  0
    3.3350    0.6130    0.9090 C   0  0  0  0  0  0  0  0  0  0  0  0
    4.7140    0.6130    1.0330 C   0  0  0  0  0  0  0  0  0  0  0  0
    5.4410   -0.5770    0.8980 C   0  0  0  0  0  0  0  0  0  0  0  0
    4.7280   -1.7200    0.6400 C   0  0  0  0  0  0  0  0  0  0  0  0
    5.4370   -3.0220    0.4540 C   0  0  2  0  0  0  0  0  0  0  0  0
    5.2500   -3.4400   -0.8720 F   0  0  0  0  0  0  0  0  0  0  0  0
    4.9070   -3.9570    1.3150 F   0  0  0  0  0  0  0  0  0  0  0  0
    6.7540   -2.8540    0.7550 F   0  0  0  0  0  0  0  0  0  0  0  0
    3.3520   -1.6840    0.5230 C   0  0  0  0  0  0  0  0  0  0  0  0
    0.0210    1.7470    0.1020 C   0  0  0  0  0  0  0  0  0  0  0  0
   -0.9540    2.4250    0.8570 C   0  0  0  0  0  0  0  0  0  0  0  0
   -1.2260    3.7630    0.7240 C   0  0  0  0  0  0  0  0  0  0  0  0
   -2.2220    4.3300    1.5320 O   0  0  0  0  0  0  0  0  0  0  0  0
   -0.5100    4.4990   -0.2020 C   0  0  0  0  0  0  0  0  0  0  0  0
    0.4580    3.8490   -0.9580 C   0  0  0  0  0  0  0  0  0  0  0  0
    0.7090    2.4610   -0.7900 C   0  0  0  0  0  0  0  0  0  0  0  0
    1.7230    1.9260   -1.6500 C   0  0  0  0  0  0  0  0  0  0  0  0
   -1.8570   -0.5560   -0.8240 C   0  0  0  0  0  0  0  0  0  0  0  0
   -1.6720   -0.2960   -2.1800 C   0  0  0  0  0  0  0  0  0  0  0  0
   -2.6180   -0.7090   -3.0900 C   0  0  0  0  0  0  0  0  0  0  0  0
   -3.7400   -1.3740   -2.6910 C   0  0  0  0  0  0  0  0  0  0  0  0
   -3.9150   -1.6270   -1.3410 C   0  0  0  0  0  0  0  0  0  0  0  0
   -3.0050   -1.2390   -0.3650 C   0  0  0  0  0  0  0  0  0  0  0  0
  1  2  1  0
  2  3  2  0
  2  4  1  0
  4  5  1  0
  4 33  1  0
  5  6  2  0
  6  7  1  0
  6 28  1  0
  7  8  1  0
  7 20  1  0
  8  9  2  0
  8 10  1  0
 10 11  2  0
 10 19  1  0
 11 12  1  0
 12 13  2  0
 13 14  1  0
 14 15  1  0
 14 19  2  0
 15 16  1  6
 15 17  1  0
 15 18  1  0
 20 21  2  0
 20 26  1  0
 21 22  1  0
 22 23  1  0
 22 24  2  0
 24 25  1  0
 25 26  2  0
 26 27  1  0
 28 29  2  0
 28 33  1  0
 29 30  1  0
 30 31  2  0
 31 32  1  0
 32 33  2  0
M  END
