
     RDKit          3D

 32 34  0  0  0  0  0  0  0  0999 V2000
    7.1640    0.5410    3.5780 C   0  0  0  0  0  0  0  0  0  0  0  0
    7.0310   -0.5770    2.7370 O   0  0  0  0  0  0  0  0  0  0  0  0
    6.2500   -0.5150    1.5940 C   0  0  0  0  0  0  0  0  0  0  0  0
    6.1830   -1.6530    0.8360 C   0  0  0  0  0  0  0  0  0  0  0  0
    5.4180   -1.6650   -0.3230 C   0  0  0  0  0  0  0  0  0  0  0  0
    4.7210   -0.5130   -0.7080 C   0  0  0  0  0  0  0  0  0  0  0  0
    3.9970   -0.6040   -1.8390 O   0  0  0  0  0  0  0  0  0  0  0  0
    3.1960    0.2120   -2.5670 C   0  0  0  0  0  0  0  0  0  0  0  0
    1.9640    0.7840   -1.9680 C   0  0  0  0  0  0  0  0  0  0  0  0
    1.0440   -0.2540   -1.5260 N   0  0  0  0  0  0  0  0  0  0  0  0
    1.4850   -0.9570   -0.4020 C   0  0  0  0  0  0  0  0  0  0  0  0
    0.3440   -1.5640    0.4220 C   0  0  0  0  0  0  0  0  0  0  0  0
   -0.6340   -1.9700   -0.5250 N   0  0  0  0  0  0  0  0  0  0  0  0
   -1.1350   -3.5460   -0.5770 S   0  0  2  0  0  0  0  0  0  0  0  0
   -0.2950   -4.4570    0.3080 O   0  0  0  0  0  0  0  0  0  0  0  0
   -0.9460   -4.0740   -1.9920 O   0  0  0  0  0  0  0  0  0  0  0  0
   -2.8490   -3.7250   -0.1930 C   0  0  0  0  0  0  0  0  0  0  0  0
   -3.2670   -5.0800   -0.2130 C   0  0  0  0  0  0  0  0  0  0  0  0
   -3.6040   -6.2420   -0.2350 N   0  0  0  0  0  0  0  0  0  0  0  0
   -1.2920   -0.9270   -1.1780 C   0  0  1  0  0  0  0  0  0  0  0  0
   -2.3680   -0.2950   -0.2810 C   0  0  0  0  0  0  0  0  0  0  0  0
   -3.0460    0.7970   -1.0620 C   0  0  0  0  0  0  0  0  0  0  0  0
   -4.0850    1.4310   -0.1960 C   0  0  0  0  0  0  0  0  0  0  0  0
   -4.0230    2.7250    0.0480 C   0  0  0  0  0  0  0  0  0  0  0  0
   -5.0080    3.3380    0.8770 N   0  0  0  0  0  0  0  0  0  0  0  0
   -4.8620    4.7470    1.1460 C   0  0  0  0  0  0  0  0  0  0  0  0
   -6.1080    2.6240    1.4460 C   0  0  0  0  0  0  0  0  0  0  0  0
   -6.1110    1.1760    1.1370 C   0  0  0  0  0  0  0  0  0  0  0  0
   -5.1680    0.6370    0.3740 C   0  0  0  0  0  0  0  0  0  0  0  0
   -0.2890    0.1760   -1.5320 C   0  0  0  0  0  0  0  0  0  0  0  0
    4.7890    0.6170    0.0420 C   0  0  0  0  0  0  0  0  0  0  0  0
    5.5570    0.6350    1.2100 C   0  0  0  0  0  0  0  0  0  0  0  0
  1  2  1  0
  2  3  1  0
  3  4  2  0
  3 32  1  0
  4  5  1  0
  5  6  2  0
  6  7  1  0
  6 31  1  0
  7  8  1  0
  8  9  1  0
  9 10  1  0
 10 11  1  0
 10 30  1  0
 11 12  1  0
 12 13  1  0
 13 14  1  0
 13 20  1  0
 14 15  2  0
 14 16  2  0
 14 17  1  1
 17 18  1  0
 18 19  3  0
 20 21  1  1
 20 30  1  0
 21 22  1  0
 22 23  1  0
 23 24  2  0
 23 29  1  0
 24 25  1  0
 25 26  1  0
 25 27  1  0
 27 28  1  0
 28 29  2  0
 31 32  2  0
M  END
