
     RDKit          3D

 31 34  0  0  0  0  0  0  0  0999 V2000
   -3.6350    4.0200    0.5650 C   0  0  0  0  0  0  0  0  0  0  0  0
   -3.1800    2.5990    0.5730 C   0  0  0  0  0  0  0  0  0  0  0  0
   -3.6830    1.6500   -0.2950 C   0  0  0  0  0  0  0  0  0  0  0  0
   -3.2440    0.3380   -0.2690 C   0  0  0  0  0  0  0  0  0  0  0  0
   -2.2960   -0.0680    0.6180 C   0  0  0  0  0  0  0  0  0  0  0  0
   -1.7850    0.8920    1.4980 C   0  0  0  0  0  0  0  0  0  0  0  0
   -2.2110    2.2030    1.4850 C   0  0  0  0  0  0  0  0  0  0  0  0
   -1.7080    3.1650    2.3570 O   0  0  0  0  0  0  0  0  0  0  0  0
   -1.7700   -1.4620    0.7120 C   0  0  2  0  0  0  0  0  0  0  0  0
   -0.3410   -1.4960    0.6210 N   0  0  0  0  0  0  0  0  0  0  0  0
    0.5230   -1.8820    1.6610 C   0  0  0  0  0  0  0  0  0  0  0  0
   -0.0270   -2.2180    2.7370 O   0  0  0  0  0  0  0  0  0  0  0  0
    1.9960   -1.9130    1.5580 C   0  0  0  0  0  0  0  0  0  0  0  0
    2.7580   -2.3330    2.6220 C   0  0  0  0  0  0  0  0  0  0  0  0
    4.1290   -2.3810    2.5820 C   0  0  0  0  0  0  0  0  0  0  0  0
    4.7380   -2.0010    1.4540 N   0  0  0  0  0  0  0  0  0  0  0  0
    4.0300   -1.5700    0.3530 C   0  0  0  0  0  0  0  0  0  0  0  0
    4.8020   -1.2250   -0.7100 O   0  0  0  0  0  0  0  0  0  0  0  0
    5.3480   -0.0700   -1.1080 C   0  0  0  0  0  0  0  0  0  0  0  0
    6.7550   -0.0500   -1.2080 C   0  0  0  0  0  0  0  0  0  0  0  0
    7.4430    1.0670   -1.6040 C   0  0  0  0  0  0  0  0  0  0  0  0
    6.7730    2.2220   -1.9210 C   0  0  0  0  0  0  0  0  0  0  0  0
    5.4140    2.2120   -1.8270 C   0  0  0  0  0  0  0  0  0  0  0  0
    4.6980    1.0750   -1.4230 C   0  0  0  0  0  0  0  0  0  0  0  0
    2.9640    1.2770   -1.3740 Cl  0  0  0  0  0  0  0  0  0  0  0  0
    2.6640   -1.5270    0.4030 C   0  0  0  0  0  0  0  0  0  0  0  0
   -2.5180   -2.3160   -0.2210 C   0  0  0  0  0  0  0  0  0  0  0  0
   -2.8530   -1.6730   -1.5500 C   0  0  0  0  0  0  0  0  0  0  0  0
   -3.8770   -0.5850   -1.2680 C   0  0  2  0  0  0  0  0  0  0  0  0
   -4.1620    0.1070   -2.5740 C   0  0  0  0  0  0  0  0  0  0  0  0
   -5.1470   -1.1290   -0.7000 C   0  0  0  0  0  0  0  0  0  0  0  0
  1  2  1  0
  2  3  2  0
  2  7  1  0
  3  4  1  0
  4  5  2  0
  4 29  1  0
  5  6  1  0
  5  9  1  0
  6  7  2  0
  7  8  1  0
  9 10  1  6
  9 27  1  0
 10 11  1  0
 11 12  2  0
 11 13  1  0
 13 14  2  0
 13 26  1  0
 14 15  1  0
 15 16  2  0
 16 17  1  0
 17 18  1  0
 17 26  2  0
 18 19  1  0
 19 20  2  0
 19 24  1  0
 20 21  1  0
 21 22  2  0
 22 23  1  0
 23 24  2  0
 24 25  1  0
 27 28  1  0
 28 29  1  0
 29 30  1  6
 29 31  1  0
M  END
