
     RDKit          3D

 28 27  0  0  0  0  0  0  0  0999 V2000
   -3.2850    4.2700    1.3510 C   0  0  0  0  0  0  0  0  0  0  0  0
   -2.8120    2.9410    1.2210 O   0  0  0  0  0  0  0  0  0  0  0  0
   -1.9510    2.5400    0.2230 C   0  0  0  0  0  0  0  0  0  0  0  0
   -1.5770    3.4110   -0.6040 O   0  0  0  0  0  0  0  0  0  0  0  0
   -1.4550    1.1450    0.0860 C   0  0  2  0  0  0  0  0  0  0  0  0
   -0.6990    0.8120    1.2780 N   0  0  0  0  0  0  0  0  0  0  0  0
   -0.6160    1.0420   -0.9940 O   0  0  0  0  0  0  0  0  0  0  0  0
   -0.1290   -0.2080   -1.1530 N   0  0  0  0  0  0  0  0  0  0  0  0
    0.5720   -0.2270   -2.4230 C   0  0  0  0  0  0  0  0  0  0  0  0
    0.6490   -0.5450   -0.1250 O   0  0  0  0  0  0  0  0  0  0  0  0
    1.0680   -2.1850   -0.0840 S   0  0  0  0  0  0  0  0  0  0  0  0
    2.7350   -2.4730    0.4160 C   0  0  0  0  0  0  0  0  0  0  0  0
    3.6050   -1.4280    0.4530 C   0  0  0  0  0  0  0  0  0  0  0  0
    3.0900   -0.1680    0.0800 N   0  0  0  0  0  0  0  0  0  0  0  0
    4.9600   -1.6660    0.8600 C   0  0  0  0  0  0  0  0  0  0  0  0
    5.2480   -2.9590    1.1720 C   0  0  0  0  0  0  0  0  0  0  0  0
    5.6570   -4.5170    1.0740 S   0  0  0  0  0  0  0  0  0  0  0  0
    6.0550   -0.7540    0.9860 C   0  0  0  0  0  0  0  0  0  0  0  0
    7.2760   -1.3010    1.4280 F   0  0  0  0  0  0  0  0  0  0  0  0
    6.0870    0.5230    0.7550 C   0  0  0  0  0  0  0  0  0  0  0  0
    7.2900    1.1840    0.9580 F   0  0  0  0  0  0  0  0  0  0  0  0
    5.0890    1.2810    0.3420 F   0  0  0  0  0  0  0  0  0  0  0  0
   -2.5870    0.1630   -0.0620 C   0  0  1  0  0  0  0  0  0  0  0  0
   -3.3590    0.2910    1.1030 O   0  0  0  0  0  0  0  0  0  0  0  0
   -3.3310    0.2930   -1.1980 O   0  0  0  0  0  0  0  0  0  0  0  0
   -3.4330   -0.7950   -2.0110 C   0  0  0  0  0  0  0  0  0  0  0  0
   -4.0620   -1.9970   -1.3070 C   0  0  0  0  0  0  0  0  0  0  0  0
   -5.3510   -1.7040   -0.8570 O   0  0  0  0  0  0  0  0  0  0  0  0
  1  2  1  0
  2  3  1  0
  3  4  2  0
  3  5  1  0
  5  6  1  1
  5  7  1  0
  5 23  1  0
  7  8  1  0
  8  9  1  0
  8 10  1  0
 10 11  1  0
 11 12  1  0
 12 13  2  3
 13 14  1  0
 13 15  1  0
 15 16  2  0
 15 18  1  0
 16 17  2  0
 18 19  1  0
 18 20  2  3
 20 21  1  0
 20 22  1  0
 23 24  1  1
 23 25  1  0
 25 26  1  0
 26 27  1  0
 27 28  1  0
M  END
