
     RDKit          3D

 28 27  0  0  0  0  0  0  0  0999 V2000
   -4.7400   -3.2290   -0.4210 C   0  0  0  0  0  0  0  0  0  0  0  0
   -5.5870   -2.6550   -1.4280 O   0  0  0  0  0  0  0  0  0  0  0  0
   -4.8710   -2.0160   -2.4440 N   0  0  0  0  0  0  0  0  0  0  0  0
   -4.2600   -0.9440   -2.0820 C   0  0  0  0  0  0  0  0  0  0  0  0
   -3.7310    0.1070   -1.4610 C   0  0  0  0  0  0  0  0  0  0  0  0
   -2.4930   -0.0980   -0.9420 O   0  0  0  0  0  0  0  0  0  0  0  0
   -2.0770   -0.0310    0.3830 C   0  0  0  0  0  0  0  0  0  0  0  0
   -0.5650   -0.3800    0.3670 C   0  0  2  0  0  0  0  0  0  0  0  0
    0.1030    0.6440   -0.4910 C   0  0  0  0  0  0  0  0  0  0  0  0
   -0.5270   -1.6050   -0.2940 F   0  0  0  0  0  0  0  0  0  0  0  0
   -0.0490   -0.5060    1.7440 C   0  0  2  0  0  0  0  0  0  0  0  0
   -0.7370   -1.5410    2.3930 O   0  0  0  0  0  0  0  0  0  0  0  0
   -0.4790    0.6710    2.4400 F   0  0  0  0  0  0  0  0  0  0  0  0
    1.4080   -0.5790    1.9810 C   0  0  0  0  0  0  0  0  0  0  0  0
    2.3310   -1.8950    1.2490 S   0  0  0  0  0  0  0  0  0  0  0  0
    2.6810   -1.7740   -0.4740 C   0  0  0  0  0  0  0  0  0  0  0  0
    3.7540   -0.6910   -0.6980 C   0  0  0  0  0  0  0  0  0  0  0  0
    4.2430   -0.1420    0.3460 C   0  0  0  0  0  0  0  0  0  0  0  0
    5.2540    0.9010    0.4320 C   0  0  0  0  0  0  0  0  0  0  0  0
    6.3350    0.3420    1.1730 O   0  0  0  0  0  0  0  0  0  0  0  0
    4.1320   -0.4040   -2.0580 C   0  0  0  0  0  0  0  0  0  0  0  0
    5.1030    0.5140   -2.4450 N   0  0  0  0  0  0  0  0  0  0  0  0
    3.5010   -1.0650   -2.9720 O   0  0  0  0  0  0  0  0  0  0  0  0
   -4.7230    1.5520   -1.4280 S   0  0  0  0  0  0  0  0  0  0  0  0
   -4.0210    2.9220   -0.6180 N   0  0  0  0  0  0  0  0  0  0  0  0
   -4.6890    3.5530    0.4560 C   0  0  0  0  0  0  0  0  0  0  0  0
   -5.8080    3.0940    0.8110 O   0  0  0  0  0  0  0  0  0  0  0  0
   -4.1640    4.6600    1.1380 O   0  0  0  0  0  0  0  0  0  0  0  0
  1  2  1  0
  2  3  1  0
  3  4  2  0
  4  5  2  0
  5  6  1  0
  5 24  1  0
  6  7  1  0
  7  8  1  0
  8  9  1  6
  8 10  1  0
  8 11  1  0
 11 12  1  1
 11 13  1  0
 11 14  1  0
 14 15  1  0
 15 16  1  0
 16 17  1  0
 17 18  2  3
 17 21  1  0
 18 19  1  0
 19 20  1  0
 21 22  1  0
 21 23  2  0
 24 25  1  0
 25 26  1  0
 26 27  2  0
 26 28  1  0
M  CHG  1  12  -1
M  END
