
     RDKit          3D

 30 32  0  0  0  0  0  0  0  0999 V2000
    3.0730   -0.8870    1.7140 C   0  0  0  0  0  0  0  0  0  0  0  0
    1.7050   -0.8990    1.1220 C   0  0  0  0  0  0  0  0  0  0  0  0
    0.6340   -0.4990    1.9520 C   0  0  0  0  0  0  0  0  0  0  0  0
   -0.6310   -0.5530    1.4110 C   0  0  0  0  0  0  0  0  0  0  0  0
   -0.8630   -0.9690    0.1350 C   0  0  0  0  0  0  0  0  0  0  0  0
   -2.2360   -1.0060   -0.4140 C   0  0  0  0  0  0  0  0  0  0  0  0
   -2.4730   -1.7610   -1.3810 O   0  0  0  0  0  0  0  0  0  0  0  0
   -3.2710   -0.2110    0.1260 N   0  0  0  0  0  0  0  0  0  0  0  0
   -4.6170   -0.1660   -0.3070 C   0  0  0  0  0  0  0  0  0  0  0  0
   -5.1230   -1.0450   -1.2470 C   0  0  0  0  0  0  0  0  0  0  0  0
   -6.4530   -1.0330   -1.6580 C   0  0  0  0  0  0  0  0  0  0  0  0
   -7.3130   -0.1270   -1.1250 C   0  0  0  0  0  0  0  0  0  0  0  0
   -6.8530    0.7590   -0.1940 C   0  0  0  0  0  0  0  0  0  0  0  0
   -5.5060    0.7430    0.2170 C   0  0  0  0  0  0  0  0  0  0  0  0
   -5.1620    1.7530    1.1870 C   0  0  0  0  0  0  0  0  0  0  0  0
   -6.0600    2.5650    1.6350 O   0  0  0  0  0  0  0  0  0  0  0  0
   -3.9220    1.9720    1.7260 O   0  0  0  0  0  0  0  0  0  0  0  0
    0.1800   -1.3550   -0.6640 C   0  0  0  0  0  0  0  0  0  0  0  0
    1.5110   -1.3170   -0.1500 C   0  0  0  0  0  0  0  0  0  0  0  0
    2.7750   -1.7760   -1.2610 S   0  0  2  0  0  0  0  0  0  0  0  0
    2.1620   -2.4570   -2.4760 O   0  0  0  0  0  0  0  0  0  0  0  0
    3.5830   -2.8810   -0.6030 O   0  0  0  0  0  0  0  0  0  0  0  0
    3.7410   -0.4900   -1.7610 N   0  0  0  0  0  0  0  0  0  0  0  0
    4.5830    0.3420   -1.0240 C   0  0  0  0  0  0  0  0  0  0  0  0
    4.4040    1.7350   -1.0500 C   0  0  0  0  0  0  0  0  0  0  0  0
    5.2140    2.5890   -0.3360 C   0  0  0  0  0  0  0  0  0  0  0  0
    6.2400    2.0940    0.4370 C   0  0  0  0  0  0  0  0  0  0  0  0
    7.3670    3.2630    1.4280 Br  0  0  0  0  0  0  0  0  0  0  0  0
    6.4330    0.7190    0.4750 C   0  0  0  0  0  0  0  0  0  0  0  0
    5.6170   -0.1300   -0.2420 C   0  0  0  0  0  0  0  0  0  0  0  0
  1  2  1  0
  2  3  2  0
  2 19  1  0
  3  4  1  0
  4  5  2  0
  5  6  1  0
  5 18  1  0
  6  7  2  0
  6  8  1  0
  8  9  1  0
  9 10  2  0
  9 14  1  0
 10 11  1  0
 11 12  2  0
 12 13  1  0
 13 14  2  0
 14 15  1  0
 15 16  2  0
 15 17  1  0
 18 19  2  0
 19 20  1  0
 20 21  2  0
 20 22  2  0
 20 23  1  6
 23 24  1  0
 24 25  2  0
 24 30  1  0
 25 26  1  0
 26 27  2  0
 27 28  1  0
 27 29  1  0
 29 30  2  0
M  END
