
     RDKit          3D

 30 31  0  0  0  0  0  0  0  0999 V2000
    3.3760   -1.1380   -1.5550 C   0  0  0  0  0  0  0  0  0  0  0  0
    3.2600   -0.4090   -0.3430 N   0  0  0  0  0  0  0  0  0  0  0  0
    2.3490   -0.8000    0.5120 O   0  0  0  0  0  0  0  0  0  0  0  0
    1.5320    0.1410    1.0460 C   0  0  2  0  0  0  0  0  0  0  0  0
    1.5950    0.2540    2.4290 O   0  0  0  0  0  0  0  0  0  0  0  0
    0.0670   -0.0580    0.6970 C   0  0  2  0  0  0  0  0  0  0  0  0
   -0.3220   -1.3210    1.1960 O   0  0  0  0  0  0  0  0  0  0  0  0
   -1.6520   -1.7440    0.9970 C   0  0  0  0  0  0  0  0  0  0  0  0
   -2.5440   -1.4760    1.9100 C   0  0  0  0  0  0  0  0  0  0  0  0
   -3.9680   -1.8590    1.8310 C   0  0  0  0  0  0  0  0  0  0  0  0
   -4.2350   -2.5500    0.6400 O   0  0  0  0  0  0  0  0  0  0  0  0
   -3.3060   -2.8350   -0.3260 C   0  0  0  0  0  0  0  0  0  0  0  0
   -2.0390   -2.4650   -0.1990 C   0  0  0  0  0  0  0  0  0  0  0  0
   -0.1800    0.1110   -0.6680 O   0  0  0  0  0  0  0  0  0  0  0  0
   -1.5450    0.6170   -0.7770 C   0  0  0  0  0  0  0  0  0  0  0  0
   -2.2000    0.4750   -1.8960 C   0  0  0  0  0  0  0  0  0  0  0  0
   -3.7920    0.9270   -2.4080 S   0  0  0  0  0  0  0  0  0  0  0  0
   -1.8230    1.1910    0.4960 C   0  0  0  0  0  0  0  0  0  0  0  0
   -2.8630    1.7840    1.0090 C   0  0  0  0  0  0  0  0  0  0  0  0
   -4.1980    2.1610    0.6330 C   0  0  0  0  0  0  0  0  0  0  0  0
   -4.3460    3.5770    0.7260 O   0  0  0  0  0  0  0  0  0  0  0  0
   -0.6200    1.0120    1.3090 O   0  0  0  0  0  0  0  0  0  0  0  0
    4.4540    0.1580    0.1660 C   0  0  1  0  0  0  0  0  0  0  0  0
    4.2110    0.8290    1.3270 F   0  0  0  0  0  0  0  0  0  0  0  0
    5.4280   -0.8860    0.3150 N   0  0  0  0  0  0  0  0  0  0  0  0
    5.5250   -1.5830    1.3370 N   0  0  0  0  0  0  0  0  0  0  0  0
    4.9940    1.1020   -0.7950 N   0  0  0  0  0  0  0  0  0  0  0  0
    3.8710    2.4140   -1.1410 S   0  0  0  0  0  0  0  0  0  0  0  0
    6.1420    1.6840   -0.3340 O   0  0  0  0  0  0  0  0  0  0  0  0
    7.1380    0.8370   -0.2810 F   0  0  0  0  0  0  0  0  0  0  0  0
  1  2  1  0
  2  3  1  0
  2 23  1  0
  3  4  1  0
  4  5  1  1
  4  6  1  0
  6  7  1  1
  6 14  1  0
  6 22  1  0
  7  8  1  0
  8  9  2  0
  8 13  1  0
  9 10  1  0
 10 11  1  0
 11 12  1  0
 12 13  2  0
 14 15  1  0
 15 16  2  3
 15 18  1  0
 16 17  1  0
 18 19  2  3
 18 22  1  0
 19 20  1  0
 20 21  1  0
 23 24  1  1
 23 25  1  0
 23 27  1  0
 25 26  2  0
 27 28  1  0
 27 29  1  0
 29 30  1  0
M  CHG  1   5  -1
M  END
