
     RDKit          3D

 28 27  0  0  0  0  0  0  0  0999 V2000
   -3.9170    1.9530   -1.4240 C   0  0  0  0  0  0  0  0  0  0  0  0
   -2.6420    1.4620   -0.7660 C   0  0  0  0  0  0  0  0  0  0  0  0
   -2.9510    0.4450    0.2680 C   0  0  0  0  0  0  0  0  0  0  0  0
   -4.1130    0.1330    0.4620 O   0  0  0  0  0  0  0  0  0  0  0  0
   -1.9060   -0.2080    1.0770 C   0  0  1  0  0  0  0  0  0  0  0  0
   -1.1810    0.8380    1.7760 N   0  0  0  0  0  0  0  0  0  0  0  0
   -2.4670   -1.1550    2.0120 N   0  0  0  0  0  0  0  0  0  0  0  0
   -3.2240   -2.2640    1.5680 C   0  0  0  0  0  0  0  0  0  0  0  0
   -3.8080   -3.2500    2.5290 C   0  0  0  0  0  0  0  0  0  0  0  0
   -3.4440   -2.4760    0.3460 O   0  0  0  0  0  0  0  0  0  0  0  0
   -0.8950   -0.9360    0.2520 C   0  0  0  0  0  0  0  0  0  0  0  0
   -0.6390   -2.1580    0.4040 O   0  0  0  0  0  0  0  0  0  0  0  0
   -0.2040   -0.2200   -0.7340 N   0  0  0  0  0  0  0  0  0  0  0  0
    1.0720   -0.1710   -0.8530 C   0  0  0  0  0  0  0  0  0  0  0  0
    1.6890    0.6070   -1.9190 C   0  0  0  0  0  0  0  0  0  0  0  0
    1.7500    2.0750   -1.7390 C   0  0  0  0  0  0  0  0  0  0  0  0
    2.4640    2.5960   -0.5850 C   0  0  0  0  0  0  0  0  0  0  0  0
    3.0400    1.9310    0.3100 O   0  0  0  0  0  0  0  0  0  0  0  0
    2.5360    4.0440   -0.4210 C   0  0  0  0  0  0  0  0  0  0  0  0
    1.9960    4.8110   -1.2560 O   0  0  0  0  0  0  0  0  0  0  0  0
    3.1880    4.6590    0.6370 O   0  0  0  0  0  0  0  0  0  0  0  0
    2.0550   -1.0740    0.3120 S   0  0  0  0  0  0  0  0  0  0  0  0
    3.7050   -1.0140   -0.0480 O   0  0  0  0  0  0  0  0  0  0  0  0
    4.4330   -1.9650    0.5270 N   0  0  0  0  0  0  0  0  0  0  0  0
    4.4940   -1.8710    1.8650 F   0  0  0  0  0  0  0  0  0  0  0  0
    4.1830   -3.2930    0.0570 C   0  0  2  0  0  0  0  0  0  0  0  0
    5.0340   -4.1440    0.7720 F   0  0  0  0  0  0  0  0  0  0  0  0
    4.6710   -3.4230   -1.6970 S   0  0  0  0  0  0  0  0  0  0  0  0
  1  2  1  0
  2  3  1  0
  3  4  2  0
  3  5  1  0
  5  6  1  1
  5  7  1  0
  5 11  1  0
  7  8  1  0
  8  9  1  0
  8 10  2  0
 11 12  2  0
 11 13  1  0
 13 14  2  3
 14 15  1  0
 14 22  1  0
 15 16  1  0
 16 17  1  0
 17 18  2  0
 17 19  1  0
 19 20  2  0
 19 21  1  0
 22 23  1  0
 23 24  1  0
 24 25  1  0
 24 26  1  0
 26 27  1  1
 26 28  1  0
M  END
