
     RDKit          3D

 28 28  0  0  0  0  0  0  0  0999 V2000
   -2.2470   -3.3840    1.1940 C   0  0  0  0  0  0  0  0  0  0  0  0
   -2.6690   -2.1430    0.6670 O   0  0  0  0  0  0  0  0  0  0  0  0
   -1.7230   -1.2440    0.1100 C   0  0  0  0  0  0  0  0  0  0  0  0
   -1.5100   -1.2620   -1.1740 C   0  0  0  0  0  0  0  0  0  0  0  0
   -2.1340   -2.1200   -2.1980 C   0  0  0  0  0  0  0  0  0  0  0  0
   -1.7970   -1.9900   -3.4000 O   0  0  0  0  0  0  0  0  0  0  0  0
   -3.0790   -3.0670   -1.8960 O   0  0  0  0  0  0  0  0  0  0  0  0
   -0.2750   -0.0140   -1.5120 S   0  0  0  0  0  0  0  0  0  0  0  0
   -0.2940    0.6620    0.1680 C   0  0  1  0  0  0  0  0  0  0  0  0
    0.9690    0.9080    0.6600 O   0  0  0  0  0  0  0  0  0  0  0  0
    1.7520   -0.1800    0.7270 N   0  0  0  0  0  0  0  0  0  0  0  0
    2.5520   -0.0740    1.9370 C   0  0  0  0  0  0  0  0  0  0  0  0
    3.3480    1.0540    1.9390 F   0  0  0  0  0  0  0  0  0  0  0  0
    2.6190   -0.1200   -0.3400 O   0  0  0  0  0  0  0  0  0  0  0  0
    3.4570   -1.1820   -0.6750 C   0  0  0  0  0  0  0  0  0  0  0  0
    4.4940   -1.0740   -1.6320 N   0  0  0  0  0  0  0  0  0  0  0  0
    3.2220   -2.2990   -0.0430 N   0  0  0  0  0  0  0  0  0  0  0  0
    4.0360   -3.4180   -0.3370 C   0  0  0  0  0  0  0  0  0  0  0  0
    3.3650   -4.7300   -1.0220 S   0  0  0  0  0  0  0  0  0  0  0  0
   -1.0070    2.0010    0.1030 C   0  0  1  0  0  0  0  0  0  0  0  0
   -2.4120    1.9060   -0.3900 C   0  0  0  0  0  0  0  0  0  0  0  0
   -0.9900    2.6000    1.4890 C   0  0  0  0  0  0  0  0  0  0  0  0
   -0.1830    2.9200   -0.7960 C   0  0  0  0  0  0  0  0  0  0  0  0
   -0.7990    4.2580   -0.9230 C   0  0  0  0  0  0  0  0  0  0  0  0
   -1.8720    4.6070   -0.3570 N   0  0  0  0  0  0  0  0  0  0  0  0
   -0.1310    5.1530   -1.7160 F   0  0  0  0  0  0  0  0  0  0  0  0
   -1.0150   -0.3470    0.8770 N   0  0  0  0  0  0  0  0  0  0  0  0
   -0.9570   -0.3570    2.2560 O   0  0  0  0  0  0  0  0  0  0  0  0
  1  2  1  0
  2  3  1  0
  3  4  2  0
  3 27  1  0
  4  5  1  0
  4  8  1  0
  5  6  2  0
  5  7  1  0
  8  9  1  0
  9 10  1  1
  9 20  1  0
  9 27  1  0
 10 11  1  0
 11 12  1  0
 11 14  1  0
 12 13  1  0
 14 15  1  0
 15 16  1  0
 15 17  2  3
 17 18  1  0
 18 19  2  0
 20 21  1  6
 20 22  1  0
 20 23  1  0
 23 24  1  0
 24 25  2  0
 24 26  1  0
 27 28  1  0
M  END
