
     RDKit          3D

 39 43  0  0  0  0  0  0  0  0999 V2000
   -8.9190    0.0290    1.7730 C   0  0  0  0  0  0  0  0  0  0  0  0
   -7.9090    1.0600    2.0410 C   0  0  0  0  0  0  0  0  0  0  0  0
   -6.7020    1.2290    1.6220 C   0  0  0  0  0  0  0  0  0  0  0  0
   -5.8280    0.5130    0.7280 C   0  0  0  0  0  0  0  0  0  0  0  0
   -6.1130   -0.4730   -0.1850 C   0  0  0  0  0  0  0  0  0  0  0  0
   -4.9080   -0.8770   -0.7100 C   0  0  0  0  0  0  0  0  0  0  0  0
   -3.8910   -0.1580   -0.1390 N   0  0  0  0  0  0  0  0  0  0  0  0
   -2.5290   -0.3710   -0.4640 C   0  0  0  0  0  0  0  0  0  0  0  0
   -2.2500   -1.3180   -1.2950 O   0  0  0  0  0  0  0  0  0  0  0  0
   -1.3800    0.3600    0.0230 C   0  0  2  0  0  0  0  0  0  0  0  0
   -0.9430    1.5350   -0.8370 C   0  0  0  0  0  0  0  0  0  0  0  0
    0.4620    1.7010   -0.3020 C   0  0  0  0  0  0  0  0  0  0  0  0
    1.1610    2.7330   -0.4030 O   0  0  0  0  0  0  0  0  0  0  0  0
    0.8550    0.5020    0.3300 N   0  0  0  0  0  0  0  0  0  0  0  0
    1.9420    0.2340    1.2460 C   0  0  0  0  0  0  0  0  0  0  0  0
    1.8610    0.0760    2.5720 C   0  0  0  0  0  0  0  0  0  0  0  0
    2.8940   -0.1700    3.3570 C   0  0  0  0  0  0  0  0  0  0  0  0
    4.2720   -0.2060    2.1300 S   0  0  0  0  0  0  0  0  0  0  0  0
    3.2360    0.1230    0.6910 C   0  0  0  0  0  0  0  0  0  0  0  0
    3.6830    0.2370   -0.6820 C   0  0  0  0  0  0  0  0  0  0  0  0
    2.8930    0.4670   -1.6030 O   0  0  0  0  0  0  0  0  0  0  0  0
    5.0150    0.0900   -1.0050 O   0  0  0  0  0  0  0  0  0  0  0  0
    5.5700    0.1770   -2.2920 C   0  0  0  0  0  0  0  0  0  0  0  0
    7.0590   -0.0640   -2.1290 C   0  0  0  0  0  0  0  0  0  0  0  0
    7.7940   -0.0450   -3.1440 O   0  0  0  0  0  0  0  0  0  0  0  0
    7.6120   -0.3070   -0.8470 N   0  0  0  0  0  0  0  0  0  0  0  0
    8.9810   -0.5530   -0.5530 C   0  0  0  0  0  0  0  0  0  0  0  0
    9.3330   -0.5480    0.7870 C   0  0  0  0  0  0  0  0  0  0  0  0
   10.6180   -0.7870    1.1930 C   0  0  0  0  0  0  0  0  0  0  0  0
   11.5690   -1.0340    0.2610 N   0  0  0  0  0  0  0  0  0  0  0  0
   11.2480   -1.0440   -1.0460 C   0  0  0  0  0  0  0  0  0  0  0  0
    9.9510   -0.8050   -1.4840 C   0  0  0  0  0  0  0  0  0  0  0  0
   -0.0910   -0.4970   -0.1160 C   0  0  0  0  0  0  0  0  0  0  0  0
   -4.4240    0.6940    0.7400 C   0  0  0  0  0  0  0  0  0  0  0  0
   -3.6610    1.6400    1.5950 C   0  0  0  0  0  0  0  0  0  0  0  0
   -4.8430   -1.9550   -1.7540 C   0  0  0  0  0  0  0  0  0  0  0  0
   -6.0370   -2.5970   -1.8690 O   0  0  0  0  0  0  0  0  0  0  0  0
   -7.0660   -1.6810   -2.0790 C   0  0  0  0  0  0  0  0  0  0  0  0
   -7.3990   -1.0830   -0.6930 C   0  0  0  0  0  0  0  0  0  0  0  0
  1  2  1  0
  2  3  2  3
  3  4  1  0
  4  5  1  0
  4 34  2  0
  5  6  2  0
  5 39  1  0
  6  7  1  0
  6 36  1  0
  7  8  1  0
  7 34  1  0
  8  9  2  0
 10  8  1  6
 10 11  1  0
 10 33  1  0
 11 12  1  0
 12 13  2  0
 12 14  1  0
 14 15  1  0
 14 33  1  0
 15 16  1  0
 15 19  2  0
 16 17  2  0
 17 18  1  0
 18 19  1  0
 19 20  1  0
 20 21  2  0
 20 22  1  0
 22 23  1  0
 23 24  1  0
 24 25  2  0
 24 26  1  0
 26 27  1  0
 27 28  2  0
 27 32  1  0
 28 29  1  0
 29 30  2  0
 30 31  1  0
 31 32  2  0
 34 35  1  0
 36 37  1  0
 37 38  1  0
 38 39  1  0
M  END
