
     RDKit          3D

 39 43  0  0  0  0  0  0  0  0999 V2000
    7.6430    2.8260    2.1400 C   0  0  0  0  0  0  0  0  0  0  0  0
    6.9370    1.6270    1.5820 C   0  0  0  0  0  0  0  0  0  0  0  0
    5.8730    1.1940    2.0840 O   0  0  0  0  0  0  0  0  0  0  0  0
    7.4600    0.9280    0.4430 N   0  0  0  0  0  0  0  0  0  0  0  0
    6.7670   -0.2020   -0.0510 C   0  0  0  0  0  0  0  0  0  0  0  0
    5.6780   -0.7240    0.4130 O   0  0  0  0  0  0  0  0  0  0  0  0
    5.2860   -1.7710   -0.2700 C   0  0  0  0  0  0  0  0  0  0  0  0
    4.1140   -2.5890   -0.0190 N   0  0  0  0  0  0  0  0  0  0  0  0
    4.2920   -3.9900    0.1690 C   0  0  0  0  0  0  0  0  0  0  0  0
    5.3010   -4.6740   -0.1310 O   0  0  0  0  0  0  0  0  0  0  0  0
    2.7500   -4.5330    0.9200 S   0  0  0  0  0  0  0  0  0  0  0  0
    1.7950   -3.1050    0.3420 C   0  0  0  0  0  0  0  0  0  0  0  0
    0.5040   -3.0980    0.2640 C   0  0  0  0  0  0  0  0  0  0  0  0
   -0.3590   -2.0130   -0.1870 C   0  0  0  0  0  0  0  0  0  0  0  0
   -0.1510   -1.2670   -1.3180 C   0  0  0  0  0  0  0  0  0  0  0  0
   -1.0130   -0.2470   -1.6620 C   0  0  0  0  0  0  0  0  0  0  0  0
   -2.0700    0.0110   -0.8700 N   0  0  0  0  0  0  0  0  0  0  0  0
   -2.3420   -0.6720    0.2500 C   0  0  0  0  0  0  0  0  0  0  0  0
   -3.4500   -0.3860    1.0590 O   0  0  0  0  0  0  0  0  0  0  0  0
   -4.2900    0.6440    0.6870 C   0  0  0  0  0  0  0  0  0  0  0  0
   -5.4160    0.2520    0.1030 C   0  0  0  0  0  0  0  0  0  0  0  0
   -5.3400   -1.1240    0.0790 C   0  0  0  0  0  0  0  0  0  0  0  0
   -6.3720   -1.8570   -0.4850 C   0  0  0  0  0  0  0  0  0  0  0  0
   -7.4640   -1.2180   -1.0170 C   0  0  0  0  0  0  0  0  0  0  0  0
   -7.5270    0.1580   -0.9850 C   0  0  0  0  0  0  0  0  0  0  0  0
   -6.5110    0.9190   -0.4290 C   0  0  0  0  0  0  0  0  0  0  0  0
   -6.8700    2.1810   -0.5600 C   0  0  0  0  0  0  0  0  0  0  0  0
   -6.2930    3.4630   -0.2130 C   0  0  0  0  0  0  0  0  0  0  0  0
   -5.1740    3.9040    0.3780 C   0  0  0  0  0  0  0  0  0  0  0  0
   -4.0280    3.1910    0.9360 C   0  0  0  0  0  0  0  0  0  0  0  0
   -3.6750    1.9280    1.0620 C   0  0  0  0  0  0  0  0  0  0  0  0
   -2.3550    1.7760    1.7570 C   0  0  0  0  0  0  0  0  0  0  0  0
   -1.4730   -1.6900    0.5850 C   0  0  0  0  0  0  0  0  0  0  0  0
    2.8070   -2.1270    0.0720 C   0  0  0  0  0  0  0  0  0  0  0  0
    2.5050   -0.8860   -0.0750 O   0  0  0  0  0  0  0  0  0  0  0  0
    6.1860   -1.9330   -1.2440 N   0  0  0  0  0  0  0  0  0  0  0  0
    7.1320   -0.9560   -1.1290 C   0  0  0  0  0  0  0  0  0  0  0  0
    8.3040   -0.7920   -2.0060 C   0  0  0  0  0  0  0  0  0  0  0  0
    9.1360    0.1300   -1.8170 O   0  0  0  0  0  0  0  0  0  0  0  0
  1  2  1  0
  2  3  2  0
  2  4  1  0
  4  5  1  0
  5  6  1  0
  5 37  2  0
  6  7  1  0
  7  8  1  0
  7 36  2  0
  8  9  1  0
  8 34  1  0
  9 10  2  0
  9 11  1  0
 11 12  1  0
 12 13  2  3
 12 34  1  0
 13 14  1  0
 14 15  2  0
 14 33  1  0
 15 16  1  0
 16 17  2  0
 17 18  1  0
 18 19  1  0
 18 33  2  0
 19 20  1  0
 20 21  2  0
 20 31  1  0
 21 22  1  0
 21 26  1  0
 22 23  2  0
 23 24  1  0
 24 25  2  0
 25 26  1  0
 26 27  2  0
 27 28  1  0
 28 29  2  0
 29 30  1  0
 30 31  2  0
 31 32  1  0
 34 35  2  0
 36 37  1  0
 37 38  1  0
 38 39  2  0
M  END
