
     RDKit          3D

 39 43  0  0  0  0  0  0  0  0999 V2000
    7.8220    1.2160   -4.2230 C   0  0  0  0  0  0  0  0  0  0  0  0
    7.0200    0.9940   -3.0830 O   0  0  0  0  0  0  0  0  0  0  0  0
    7.0960   -0.1500   -2.3080 C   0  0  0  0  0  0  0  0  0  0  0  0
    7.9200   -1.0340   -2.6360 O   0  0  0  0  0  0  0  0  0  0  0  0
    6.2280   -0.3200   -1.1280 C   0  0  0  0  0  0  0  0  0  0  0  0
    5.2870    0.5710   -0.6620 C   0  0  0  0  0  0  0  0  0  0  0  0
    4.7510   -0.0080    0.4240 N   0  0  0  0  0  0  0  0  0  0  0  0
    5.3160   -1.2030    0.6420 C   0  0  0  0  0  0  0  0  0  0  0  0
    4.9500   -2.1090    1.7690 C   0  0  0  0  0  0  0  0  0  0  0  0
    3.9020   -1.5230    2.5800 N   0  0  0  0  0  0  0  0  0  0  0  0
    2.6620   -1.2250    1.9550 C   0  0  0  0  0  0  0  0  0  0  0  0
    2.5410   -1.4860    0.7340 O   0  0  0  0  0  0  0  0  0  0  0  0
    1.5700   -0.6280    2.7470 C   0  0  2  0  0  0  0  0  0  0  0  0
    1.1510   -1.6770    3.7820 C   0  0  0  0  0  0  0  0  0  0  0  0
    0.4300   -0.4120    1.9320 O   0  0  0  0  0  0  0  0  0  0  0  0
   -0.1810    0.8230    1.8220 C   0  0  0  0  0  0  0  0  0  0  0  0
    0.3040    1.7850    2.4750 O   0  0  0  0  0  0  0  0  0  0  0  0
   -1.3560    0.9480    0.9550 C   0  0  0  0  0  0  0  0  0  0  0  0
   -1.7560   -0.1360    0.3130 C   0  0  0  0  0  0  0  0  0  0  0  0
   -2.8920   -0.1380   -0.5750 C   0  0  0  0  0  0  0  0  0  0  0  0
   -3.3310   -1.2700   -1.2450 C   0  0  0  0  0  0  0  0  0  0  0  0
   -4.4190   -1.2720   -2.0910 C   0  0  0  0  0  0  0  0  0  0  0  0
   -5.1000   -0.0860   -2.2750 C   0  0  0  0  0  0  0  0  0  0  0  0
   -4.6800    1.0530   -1.6180 C   0  0  0  0  0  0  0  0  0  0  0  0
   -3.5790    1.0420   -0.7670 C   0  0  0  0  0  0  0  0  0  0  0  0
   -3.1340    2.1520   -0.0990 O   0  0  0  0  0  0  0  0  0  0  0  0
   -2.1060    2.2140    0.8430 C   0  0  1  0  0  0  0  0  0  0  0  0
   -2.6480    2.6530    2.1830 C   0  0  0  0  0  0  0  0  0  0  0  0
   -2.4590    1.8980    3.3150 C   0  0  0  0  0  0  0  0  0  0  0  0
   -3.3190    2.9550    4.5760 S   0  0  0  0  0  0  0  0  0  0  0  0
   -3.7700    4.2230    3.3110 C   0  0  0  0  0  0  0  0  0  0  0  0
   -4.5480    5.4040    3.8420 C   0  0  0  0  0  0  0  0  0  0  0  0
   -3.3080    3.7650    2.3410 N   0  0  0  0  0  0  0  0  0  0  0  0
   -6.2860    0.0360   -3.1610 C   0  0  0  0  0  0  0  0  0  0  0  0
   -6.5270   -1.1590   -4.0190 C   0  0  0  0  0  0  0  0  0  0  0  0
   -6.2770   -2.4240   -3.2480 C   0  0  0  0  0  0  0  0  0  0  0  0
   -4.8390   -2.5330   -2.7830 C   0  0  0  0  0  0  0  0  0  0  0  0
    6.2350   -1.4030   -0.3200 N   0  0  0  0  0  0  0  0  0  0  0  0
    7.0520   -2.5980   -0.4070 C   0  0  0  0  0  0  0  0  0  0  0  0
  1  2  1  0
  2  3  1  0
  3  4  2  0
  3  5  1  0
  5  6  2  0
  5 38  1  0
  6  7  1  0
  7  8  2  0
  8  9  1  0
  8 38  1  0
  9 10  1  0
 10 11  1  0
 11 12  2  0
 11 13  1  0
 13 14  1  1
 13 15  1  0
 15 16  1  0
 16 17  2  0
 16 18  1  0
 18 19  2  0
 18 27  1  0
 19 20  1  0
 20 21  2  0
 20 25  1  0
 21 22  1  0
 22 23  2  0
 22 37  1  0
 23 24  1  0
 23 34  1  0
 24 25  2  0
 25 26  1  0
 26 27  1  0
 27 28  1  1
 28 29  2  0
 28 33  1  0
 29 30  1  0
 30 31  1  0
 31 32  1  0
 31 33  2  0
 34 35  1  0
 35 36  1  0
 36 37  1  0
 38 39  1  0
M  END
