
     RDKit          3D

 19 19  0  0  0  0  0  0  0  0999 V2000
   -0.9930    3.3270    1.7630 C   0  0  0  0  0  0  0  0  0  0  0  0
   -1.0840    2.2640    1.0310 C   0  0  0  0  0  0  0  0  0  0  0  0
   -1.5480    2.2170   -0.2690 O   0  0  0  0  0  0  0  0  0  0  0  0
   -2.2440    1.1230   -0.5860 O   0  0  0  0  0  0  0  0  0  0  0  0
   -1.5100   -0.0130   -0.8350 C   0  0  2  0  0  0  0  0  0  0  0  0
   -0.9560    0.1500   -2.2500 C   0  0  0  0  0  0  0  0  0  0  0  0
   -2.4620   -1.0660   -0.8330 O   0  0  0  0  0  0  0  0  0  0  0  0
   -3.1060   -1.1200    0.3980 C   0  0  0  0  0  0  0  0  0  0  0  0
   -4.1270   -2.2300    0.4530 C   0  0  0  0  0  0  0  0  0  0  0  0
   -0.4330   -0.3520    0.1430 C   0  0  1  0  0  0  0  0  0  0  0  0
   -0.3490   -1.7050    0.4490 O   0  0  0  0  0  0  0  0  0  0  0  0
   -0.1050   -2.3340   -0.6790 O   0  0  0  0  0  0  0  0  0  0  0  0
    0.8470    0.0530   -0.3890 O   0  0  0  0  0  0  0  0  0  0  0  0
    2.0060   -0.1470    0.3170 C   0  0  0  0  0  0  0  0  0  0  0  0
    1.9390   -0.6940    1.4450 O   0  0  0  0  0  0  0  0  0  0  0  0
    3.3460    0.2490   -0.1820 C   0  0  0  0  0  0  0  0  0  0  0  0
    4.3270   -0.0690    0.7290 O   0  0  0  0  0  0  0  0  0  0  0  0
    5.5550    0.3440    0.1660 C   0  0  0  0  0  0  0  0  0  0  0  0
   -0.5890    0.6700    1.6700 S   0  0  0  0  0  0  0  0  0  0  0  0
  1  2  2  0
  2  3  1  0
  2 19  1  0
  3  4  1  0
  4  5  1  0
  5  6  1  6
  5  7  1  0
  5 10  1  0
  7  8  1  0
  8  9  1  0
 10 11  1  1
 10 13  1  0
 10 19  1  0
 11 12  1  0
 13 14  1  0
 14 15  2  0
 14 16  1  0
 16 17  1  0
 17 18  1  0
M  END
