
     RDKit          3D

 20 19  0  0  0  0  0  0  0  0999 V2000
   -1.5500   -1.5820   -0.7510 C   0  0  0  0  0  0  0  0  0  0  0  0
   -1.3570    0.2590   -0.8260 P   0  0  0  0  0  0  0  0  0  0  0  0
   -2.6630    1.1030   -0.1230 O   0  0  0  0  0  0  0  0  0  0  0  0
   -3.8310    0.3850   -0.0260 C   0  0  2  0  0  0  0  0  0  0  0  0
   -3.6960   -0.7660    0.7470 O   0  0  0  0  0  0  0  0  0  0  0  0
   -4.4000    0.0680   -1.3590 C   0  0  0  0  0  0  0  0  0  0  0  0
   -4.5790    0.9710   -2.1510 O   0  0  0  0  0  0  0  0  0  0  0  0
   -4.8520    1.3000    0.6650 C   0  0  0  0  0  0  0  0  0  0  0  0
   -6.0710    0.6750    0.8170 O   0  0  0  0  0  0  0  0  0  0  0  0
    0.4900    0.8420    0.1690 P   0  0  0  0  0  0  0  0  0  0  0  0
    0.4440    0.5180    1.9800 C   0  0  0  0  0  0  0  0  0  0  0  0
    1.9450   -0.0450   -0.5370 C   0  0  0  0  0  0  0  0  0  0  0  0
    1.7910   -1.0920   -1.2070 O   0  0  0  0  0  0  0  0  0  0  0  0
    3.2370    0.4210   -0.3450 O   0  0  0  0  0  0  0  0  0  0  0  0
    4.3580   -0.1810   -0.8360 C   0  0  0  0  0  0  0  0  0  0  0  0
    4.2130   -1.2460   -1.5190 O   0  0  0  0  0  0  0  0  0  0  0  0
    5.7240    0.3560   -0.6050 C   0  0  1  0  0  0  0  0  0  0  0  0
    5.5900    1.5120    0.1610 O   0  0  0  0  0  0  0  0  0  0  0  0
    6.6030   -0.6450    0.0480 C   0  0  0  0  0  0  0  0  0  0  0  0
    6.0290   -1.8210    0.6180 S   0  0  0  0  0  0  0  0  0  0  0  0
  1  2  1  0
  2  3  1  0
  2 10  1  0
  3  4  1  0
  4  5  1  1
  4  6  1  0
  4  8  1  0
  6  7  2  0
  8  9  1  0
 10 11  1  0
 10 12  1  0
 12 13  2  0
 12 14  1  0
 14 15  1  0
 15 16  2  0
 15 17  1  0
 17 18  1  1
 17 19  1  0
 19 20  2  0
M  END
