
     RDKit          3D

 20 19  0  0  0  0  0  0  0  0999 V2000
   -2.5490    3.6240   -2.2620 C   0  0  0  0  0  0  0  0  0  0  0  0
   -1.9510    2.7000   -1.2180 C   0  0  0  0  0  0  0  0  0  0  0  0
   -1.8860    1.4390   -1.7550 O   0  0  0  0  0  0  0  0  0  0  0  0
   -1.2130    0.2890   -0.6430 P   0  0  0  0  0  0  0  0  0  0  0  0
   -2.4470    0.1300    0.7570 C   0  0  0  0  0  0  0  0  0  0  0  0
   -2.7560   -1.2910    1.0660 C   0  0  0  0  0  0  0  0  0  0  0  0
   -3.6510   -1.3770    2.1080 O   0  0  0  0  0  0  0  0  0  0  0  0
   -4.8490   -0.7760    1.8510 C   0  0  0  0  0  0  0  0  0  0  0  0
    0.2980    0.8820   -0.1100 O   0  0  0  0  0  0  0  0  0  0  0  0
    1.2480   -0.0560    0.1460 C   0  0  2  0  0  0  0  0  0  0  0  0
    0.9110   -1.0550    1.1990 C   0  0  0  0  0  0  0  0  0  0  0  0
    2.7540    0.8310    0.7080 S   0  0  0  0  0  0  0  0  0  0  0  0
    4.0260   -0.2910    1.0600 O   0  0  0  0  0  0  0  0  0  0  0  0
    5.1550   -0.3200    0.2720 C   0  0  0  0  0  0  0  0  0  0  0  0
    6.2860   -1.2740    0.5360 C   0  0  0  0  0  0  0  0  0  0  0  0
    5.2200    0.4860   -0.6940 O   0  0  0  0  0  0  0  0  0  0  0  0
    1.6220   -0.7100   -1.1430 C   0  0  0  0  0  0  0  0  0  0  0  0
    1.1050   -0.3960   -2.2440 O   0  0  0  0  0  0  0  0  0  0  0  0
    2.5810   -1.7140   -1.1600 O   0  0  0  0  0  0  0  0  0  0  0  0
    2.9580   -2.3370   -2.2830 O   0  0  0  0  0  0  0  0  0  0  0  0
  1  2  1  0
  2  3  1  0
  3  4  1  0
  4  5  1  0
  4  9  1  0
  5  6  1  0
  6  7  1  0
  7  8  1  0
  9 10  1  0
 10 11  1  1
 10 12  1  0
 10 17  1  0
 12 13  1  0
 13 14  1  0
 14 15  1  0
 14 16  2  0
 17 18  2  0
 17 19  1  0
 19 20  1  0
M  END
