
     RDKit          3D

 20 21  0  0  0  0  0  0  0  0999 V2000
   -1.0960    0.5380    2.4380 C   0  0  0  0  0  0  0  0  0  0  0  0
   -1.0820   -0.4450    1.5800 C   0  0  0  0  0  0  0  0  0  0  0  0
   -1.2990   -1.7510    1.9380 O   0  0  0  0  0  0  0  0  0  0  0  0
   -0.8180   -0.1770    0.1350 C   0  0  2  0  0  0  0  0  0  0  0  0
   -1.1590    1.0790   -0.2520 O   0  0  0  0  0  0  0  0  0  0  0  0
   -2.4180    1.5090   -0.1620 C   0  0  0  0  0  0  0  0  0  0  0  0
   -3.4670    0.9170   -1.0080 C   0  0  0  0  0  0  0  0  0  0  0  0
   -4.6390    1.2960   -0.8260 O   0  0  0  0  0  0  0  0  0  0  0  0
   -1.4530   -1.2230   -0.7410 C   0  0  0  0  0  0  0  0  0  0  0  0
   -0.7730   -2.4560   -0.6190 O   0  0  0  0  0  0  0  0  0  0  0  0
    0.4210   -2.4300   -1.3360 C   0  0  0  0  0  0  0  0  0  0  0  0
    0.9500   -1.0030   -1.3550 C   0  0  0  0  0  0  0  0  0  0  0  0
    0.6870   -0.4020   -0.0240 C   0  0  2  0  0  0  0  0  0  0  0  0
    1.3220   -1.5250    1.2740 S   0  0  0  0  0  0  0  0  0  0  0  0
    2.2060   -0.4120    2.2400 O   0  0  0  0  0  0  0  0  0  0  0  0
    2.8590    0.3820    1.4530 O   0  0  0  0  0  0  0  0  0  0  0  0
    1.6770    1.1010    0.3650 P   0  0  0  0  0  0  0  0  0  0  0  0
    2.4260    1.7520   -1.0290 O   0  0  0  0  0  0  0  0  0  0  0  0
    3.8340    2.6280   -0.5700 P   0  0  0  0  0  0  0  0  0  0  0  0
    5.1550    1.5150   -0.4810 O   0  0  0  0  0  0  0  0  0  0  0  0
  1  2  2  0
  2  3  1  0
  2  4  1  0
  4  5  1  6
  4  9  1  0
  4 13  1  0
  5  6  1  0
  6  7  1  0
  7  8  2  0
  9 10  1  0
 10 11  1  0
 11 12  1  0
 13 12  1  6
 13 14  1  0
 13 17  1  0
 14 15  1  0
 15 16  1  0
 16 17  1  0
 17 18  1  0
 18 19  1  0
 19 20  1  0
M  END
