
     RDKit          3D

 28 30  0  0  0  0  0  0  0  0999 V2000
   -5.9190   -0.7350   -1.5460 N   0  0  0  0  0  0  0  0  0  0  0  0
   -5.1910    0.1700   -0.6900 C   0  0  0  0  0  0  0  0  0  0  0  0
   -3.9760   -0.2100   -0.2570 N   0  0  0  0  0  0  0  0  0  0  0  0
   -3.2640    0.5940    0.5370 C   0  0  0  0  0  0  0  0  0  0  0  0
   -3.8370    1.8170    0.8820 C   0  0  0  0  0  0  0  0  0  0  0  0
   -2.9150    2.4160    1.6780 N   0  0  0  0  0  0  0  0  0  0  0  0
   -1.8520    1.6010    1.8030 C   0  0  0  0  0  0  0  0  0  0  0  0
   -2.0530    0.4720    1.1040 N   0  0  0  0  0  0  0  0  0  0  0  0
   -1.1480   -0.6340    0.9940 C   0  0  2  0  0  0  0  0  0  0  0  0
    0.1940   -0.2500    1.0630 O   0  0  0  0  0  0  0  0  0  0  0  0
    0.8300   -1.4330    0.6860 C   0  0  2  0  0  0  0  0  0  0  0  0
    2.3240   -1.2710    0.5810 C   0  0  0  0  0  0  0  0  0  0  0  0
    2.6930   -0.3150   -0.3530 O   0  0  0  0  0  0  0  0  0  0  0  0
    4.4000   -0.2570   -0.3460 P   0  0  2  0  0  0  0  0  0  0  0  0
    4.9560   -1.6630   -0.5860 O   0  0  0  0  0  0  0  0  0  0  0  0
    4.9780    0.2320    1.1620 O   0  0  0  0  0  0  0  0  0  0  0  0
    4.9740    0.7800   -1.5540 O   0  0  0  0  0  0  0  0  0  0  0  0
    5.7780    2.0670   -0.8260 P   0  0  2  0  0  0  0  0  0  0  0  0
    5.3100    2.3010    0.5950 O   0  0  0  0  0  0  0  0  0  0  0  0
    5.4100    3.4630   -1.7110 O   0  0  0  0  0  0  0  0  0  0  0  0
    7.4540    1.8100   -0.7550 O   0  0  0  0  0  0  0  0  0  0  0  0
    0.1730   -1.7420   -0.6280 C   0  0  1  0  0  0  0  0  0  0  0  0
    0.2410   -3.0920   -0.9590 O   0  0  0  0  0  0  0  0  0  0  0  0
   -1.2720   -1.3240   -0.3600 C   0  0  1  0  0  0  0  0  0  0  0  0
   -2.0520   -2.4580   -0.2200 O   0  0  0  0  0  0  0  0  0  0  0  0
   -5.0790    2.1840    0.4280 C   0  0  0  0  0  0  0  0  0  0  0  0
   -5.5880    3.2810    0.7400 O   0  0  0  0  0  0  0  0  0  0  0  0
   -5.7590    1.3500   -0.3650 N   0  0  0  0  0  0  0  0  0  0  0  0
  1  2  1  0
  2  3  2  0
  2 28  1  0
  3  4  1  0
  4  5  2  0
  4  8  1  0
  5  6  1  0
  5 26  1  0
  6  7  2  0
  7  8  1  0
  9  8  1  6
  9 10  1  0
  9 24  1  0
 10 11  1  0
 11 12  1  6
 11 22  1  0
 12 13  1  0
 13 14  1  0
 14 15  2  0
 14 16  1  1
 14 17  1  0
 17 18  1  0
 18 19  2  0
 18 20  1  6
 18 21  1  0
 22 23  1  1
 22 24  1  0
 24 25  1  1
 26 27  2  0
 26 28  1  0
M  END
