
     RDKit          3D

  8  7  0  0  0  0  0  0  0  0999 V2000
    2.0140    0.1200    1.0350 O   0  0  0  0  0  0  0  0  0  0  0  0
    1.9400   -0.2400   -0.1690 C   0  0  0  0  0  0  0  0  0  0  0  0
    3.0100    0.0520   -0.9870 O   0  0  0  0  0  0  0  0  0  0  0  0
    0.7980   -0.9030   -0.5970 O   0  0  0  0  0  0  0  0  0  0  0  0
   -0.1710   -1.1300    0.2820 O   0  0  0  0  0  0  0  0  0  0  0  0
   -1.1340   -0.0950    0.2520 C   0  0  0  0  0  0  0  0  0  0  0  0
   -1.6880   -0.0360   -1.0500 O   0  0  0  0  0  0  0  0  0  0  0  0
   -2.5680    0.9370   -1.0140 O   0  0  0  0  0  0  0  0  0  0  0  0
  1  2  2  0
  2  3  1  0
  2  4  1  0
  4  5  1  0
  5  6  1  0
  6  7  1  0
  7  8  1  0
M  END
