
     RDKit          3D

 20 20  0  0  0  0  0  0  0  0999 V2000
   -1.4940   -0.2570   -1.9310 C   0  0  0  0  0  0  0  0  0  0  0  0
   -2.2880    0.5490   -0.9280 C   0  0  1  0  0  0  0  0  0  0  0  0
   -2.1270    1.8820   -1.2110 O   0  0  0  0  0  0  0  0  0  0  0  0
   -3.6340    0.1450   -1.1140 O   0  0  0  0  0  0  0  0  0  0  0  0
   -1.9490    0.1720    0.4880 C   0  0  2  0  0  0  0  0  0  0  0  0
   -2.7430    0.8430    1.4130 O   0  0  0  0  0  0  0  0  0  0  0  0
   -3.7540   -0.2010    2.3170 P   0  0  0  0  0  0  0  0  0  0  0  0
   -3.4140   -0.0460    3.9860 O   0  0  0  0  0  0  0  0  0  0  0  0
   -0.4830    0.2980    0.8050 C   0  0  1  0  0  0  0  0  0  0  0  0
    0.3300   -0.3680   -0.1120 O   0  0  0  0  0  0  0  0  0  0  0  0
    1.5980    0.1000    0.2240 C   0  0  1  0  0  0  0  0  0  0  0  0
    2.6470   -0.1770   -0.8010 C   0  0  1  0  0  0  0  0  0  0  0  0
    2.7330   -1.6930   -0.9800 C   0  0  0  0  0  0  0  0  0  0  0  0
    2.4030    0.6980   -2.3400 S   0  0  0  0  0  0  0  0  0  0  0  0
    4.0030    0.2190   -0.1960 C   0  0  0  0  0  0  0  0  0  0  0  0
    4.2240   -0.8310    1.3210 P   0  0  0  0  0  0  0  0  0  0  0  0
    4.5650   -0.2500    2.7100 O   0  0  0  0  0  0  0  0  0  0  0  0
    1.3460    1.5160    0.2850 O   0  0  0  0  0  0  0  0  0  0  0  0
    0.0400    1.6690    0.7350 C   0  0  0  0  0  0  0  0  0  0  0  0
   -0.4460    2.7940    0.9850 O   0  0  0  0  0  0  0  0  0  0  0  0
  2  1  1  6
  2  3  1  0
  2  4  1  0
  2  5  1  0
  5  6  1  1
  5  9  1  0
  6  7  1  0
  7  8  1  0
  9 10  1  6
  9 19  1  0
 11 10  1  6
 11 12  1  0
 11 18  1  0
 12 13  1  6
 12 14  1  0
 12 15  1  0
 15 16  1  0
 16 17  2  0
 18 19  1  0
 19 20  2  0
M  END
