
     RDKit          3D

 19 19  0  0  0  0  0  0  0  0999 V2000
    0.7780   -1.6700    0.6480 O   0  0  0  0  0  0  0  0  0  0  0  0
   -0.2810   -1.1920    0.1740 C   0  0  0  0  0  0  0  0  0  0  0  0
   -0.2030   -0.0640   -0.6190 O   0  0  0  0  0  0  0  0  0  0  0  0
    1.0740    0.5430   -0.8900 C   0  0  0  0  0  0  0  0  0  0  0  0
    1.5980    0.9020    0.3220 O   0  0  0  0  0  0  0  0  0  0  0  0
    2.8100    1.5160    0.3360 C   0  0  0  0  0  0  0  0  0  0  0  0
    3.9540    0.7500   -0.2440 C   0  0  2  0  0  0  0  0  0  0  0  0
    3.8220    0.4110   -1.5730 O   0  0  0  0  0  0  0  0  0  0  0  0
    4.2620   -0.5070    0.5690 C   0  0  0  0  0  0  0  0  0  0  0  0
    5.4610   -1.0760    0.1100 O   0  0  0  0  0  0  0  0  0  0  0  0
   -1.5980   -1.8560    0.4810 C   0  0  2  0  0  0  0  0  0  0  0  0
   -2.6340   -1.1760   -0.1340 O   0  0  0  0  0  0  0  0  0  0  0  0
   -3.3400   -0.5000    0.8270 C   0  0  2  0  0  0  0  0  0  0  0  0
   -3.6390    0.9370    0.4190 C   0  0  0  0  0  0  0  0  0  0  0  0
   -4.4510    0.9490   -0.8450 C   0  0  0  0  0  0  0  0  0  0  0  0
   -5.6540    0.2640   -0.6140 O   0  0  0  0  0  0  0  0  0  0  0  0
   -2.5880   -0.5190    2.0280 O   0  0  0  0  0  0  0  0  0  0  0  0
   -1.8140   -1.6680    1.9400 C   0  0  0  0  0  0  0  0  0  0  0  0
   -1.3680   -2.4210    2.8460 O   0  0  0  0  0  0  0  0  0  0  0  0
  1  2  2  0
  2  3  1  0
 11  2  1  6
  3  4  1  0
  4  5  1  0
  5  6  1  0
  6  7  1  0
  7  8  1  6
  7  9  1  0
  9 10  1  0
 11 12  1  0
 11 18  1  0
 12 13  1  0
 13 14  1  6
 13 17  1  0
 14 15  1  0
 15 16  1  0
 17 18  1  0
 18 19  2  0
M  END
