
     RDKit          3D

 23 25  0  0  0  0  0  0  0  0999 V2000
    5.5610    0.1470    1.8110 C   0  0  0  0  0  0  0  0  0  0  0  0
    4.2730   -0.2690    1.2750 N   0  0  0  0  0  0  0  0  0  0  0  0
    3.9940   -1.5570    1.2870 N   0  0  0  0  0  0  0  0  0  0  0  0
    2.8210   -2.0050    0.8030 C   0  0  0  0  0  0  0  0  0  0  0  0
    2.5500   -3.2350    0.8130 O   0  0  0  0  0  0  0  0  0  0  0  0
    1.8760   -1.1400    0.2800 C   0  0  0  0  0  0  0  0  0  0  0  0
    0.6750   -1.5710   -0.2200 C   0  0  0  0  0  0  0  0  0  0  0  0
   -0.2800   -0.6960   -0.7500 C   0  0  0  0  0  0  0  0  0  0  0  0
   -1.5770   -1.2300   -1.2370 C   0  0  1  0  0  0  0  0  0  0  0  0
   -1.5360   -2.7010   -1.4900 C   0  0  0  0  0  0  0  0  0  0  0  0
   -2.1420   -3.3660   -0.3070 C   0  0  0  0  0  0  0  0  0  0  0  0
   -3.3430   -2.4400   -0.0560 C   0  0  0  0  0  0  0  0  0  0  0  0
   -2.6530   -1.0950   -0.1770 C   0  0  0  0  0  0  0  0  0  0  0  0
    0.0010    0.6180   -0.7660 C   0  0  0  0  0  0  0  0  0  0  0  0
   -0.8120    1.6210   -1.3010 N   0  0  0  0  0  0  0  0  0  0  0  0
   -1.3740    2.9750   -0.2750 S   0  0  0  0  0  0  0  0  0  0  0  0
   -1.8770    4.3190   -1.1340 C   0  0  0  0  0  0  0  0  0  0  0  0
   -2.0080    2.5210    1.2040 C   0  0  0  0  0  0  0  0  0  0  0  0
   -2.9190    2.2170   -0.9460 O   0  0  0  0  0  0  0  0  0  0  0  0
    1.2340    1.0720   -0.2530 C   0  0  0  0  0  0  0  0  0  0  0  0
    2.1640    0.2050    0.2660 C   0  0  0  0  0  0  0  0  0  0  0  0
    3.3840    0.5970    0.7780 C   0  0  0  0  0  0  0  0  0  0  0  0
    3.6620    1.8240    0.7720 O   0  0  0  0  0  0  0  0  0  0  0  0
  1  2  1  0
  2  3  1  0
  2 22  1  0
  3  4  1  0
  4  5  2  0
  4  6  1  0
  6  7  2  0
  6 21  1  0
  7  8  1  0
  9  8  1  1
  8 14  2  0
  9 10  1  0
  9 13  1  0
 10 11  1  0
 11 12  1  0
 12 13  1  0
 14 15  1  0
 14 20  1  0
 15 16  1  0
 16 17  1  0
 16 18  1  0
 16 19  2  0
 20 21  2  0
 21 22  1  0
 22 23  2  0
M  END
