
     RDKit          3D

 23 25  0  0  0  0  0  0  0  0999 V2000
    0.6050    0.3010    0.0700 O   0  0  0  0  0  0  0  0  0  0  0  0
    0.6050   -0.9480    0.0030 C   0  0  0  0  0  0  0  0  0  0  0  0
    1.8870   -1.7260   -0.0110 C   0  0  0  0  0  0  0  0  0  0  0  0
    3.0570   -0.8160    0.0640 C   0  0  0  0  0  0  0  0  0  0  0  0
    3.9500   -0.8140   -0.9140 C   0  0  0  0  0  0  0  0  0  0  0  0
    5.0690    0.1070   -0.7670 C   0  0  0  0  0  0  0  0  0  0  0  0
    5.6200    0.6260   -1.8120 N   0  0  0  0  0  0  0  0  0  0  0  0
    6.9830    1.7400   -1.5290 S   0  0  0  0  0  0  0  0  0  0  0  0
    5.5130    0.3920    0.6140 C   0  0  0  0  0  0  0  0  0  0  0  0
    4.5680    0.2500    1.5800 O   0  0  0  0  0  0  0  0  0  0  0  0
    3.2790    0.1000    1.1880 C   0  0  0  0  0  0  0  0  0  0  0  0
   -0.6170   -1.6310   -0.0610 N   0  0  0  0  0  0  0  0  0  0  0  0
   -1.9210   -1.0930   -0.0610 C   0  0  0  0  0  0  0  0  0  0  0  0
   -2.2210    0.2400    0.0040 C   0  0  0  0  0  0  0  0  0  0  0  0
   -3.5470    0.6980   -0.0000 C   0  0  0  0  0  0  0  0  0  0  0  0
   -3.7970    2.0570    0.0680 C   0  0  0  0  0  0  0  0  0  0  0  0
   -5.1070    2.5300    0.0640 C   0  0  0  0  0  0  0  0  0  0  0  0
   -6.1580    1.6430   -0.0070 C   0  0  0  0  0  0  0  0  0  0  0  0
   -5.8670    0.2890   -0.0740 C   0  0  0  0  0  0  0  0  0  0  0  0
   -4.5900   -0.1880   -0.0710 C   0  0  0  0  0  0  0  0  0  0  0  0
   -4.2730   -1.4840   -0.1340 N   0  0  0  0  0  0  0  0  0  0  0  0
   -3.0280   -1.9520   -0.1320 C   0  0  0  0  0  0  0  0  0  0  0  0
   -2.8310   -3.2140   -0.1960 O   0  0  0  0  0  0  0  0  0  0  0  0
  1  2  2  0
  2  3  1  0
  2 12  1  0
  3  4  1  0
  4  5  2  0
  4 11  1  0
  5  6  1  0
  6  7  2  3
  6  9  1  0
  7  8  1  0
  9 10  1  0
 10 11  1  0
 12 13  1  0
 13 14  2  0
 13 22  1  0
 14 15  1  0
 15 16  2  0
 15 20  1  0
 16 17  1  0
 17 18  2  0
 18 19  1  0
 19 20  2  0
 20 21  1  0
 21 22  1  0
 22 23  2  0
M  END
