
     RDKit          3D

 23 25  0  0  0  0  0  0  0  0999 V2000
   -1.2010    0.9870    0.2740 O   0  0  0  0  0  0  0  0  0  0  0  0
   -1.4000   -0.2290    0.1940 C   0  0  0  0  0  0  0  0  0  0  0  0
   -2.6890   -0.7500    0.0470 N   0  0  0  0  0  0  0  0  0  0  0  0
   -3.9210    0.0050   -0.0310 C   0  0  0  0  0  0  0  0  0  0  0  0
   -3.9470    1.2930    0.0320 C   0  0  0  0  0  0  0  0  0  0  0  0
   -5.1070    2.2040   -0.0320 C   0  0  0  0  0  0  0  0  0  0  0  0
   -6.6800    1.3780   -0.2200 S   0  0  0  0  0  0  0  0  0  0  0  0
   -6.3310   -0.3690   -0.2750 C   0  0  0  0  0  0  0  0  0  0  0  0
   -5.1060   -0.8310   -0.1830 C   0  0  0  0  0  0  0  0  0  0  0  0
   -0.1880   -1.0960    0.2640 C   0  0  0  0  0  0  0  0  0  0  0  0
   -0.4330   -2.3210    0.1790 O   0  0  0  0  0  0  0  0  0  0  0  0
    1.0840   -0.5330    0.4120 N   0  0  0  0  0  0  0  0  0  0  0  0
    2.2650   -1.2870    0.4960 C   0  0  0  0  0  0  0  0  0  0  0  0
    2.2600   -2.6100    0.9510 C   0  0  0  0  0  0  0  0  0  0  0  0
    3.3930   -3.2980    1.1740 N   0  0  0  0  0  0  0  0  0  0  0  0
    4.5780   -2.7360    0.9680 C   0  0  0  0  0  0  0  0  0  0  0  0
    4.6260   -1.4530    0.5240 C   0  0  0  0  0  0  0  0  0  0  0  0
    3.4790   -0.6750    0.2670 C   0  0  0  0  0  0  0  0  0  0  0  0
    3.6230    0.6260   -0.3250 C   0  0  0  0  0  0  0  0  0  0  0  0
    2.7910    1.4140   -1.0460 C   0  0  0  0  0  0  0  0  0  0  0  0
    3.4810    2.5920   -1.3710 C   0  0  0  0  0  0  0  0  0  0  0  0
    4.7100    2.4510   -0.8220 C   0  0  0  0  0  0  0  0  0  0  0  0
    4.7820    1.2990   -0.2140 O   0  0  0  0  0  0  0  0  0  0  0  0
  1  2  2  0
  2  3  1  0
  2 10  1  0
  3  4  1  0
  4  5  2  0
  4  9  1  0
  5  6  1  0
  6  7  1  0
  7  8  1  0
  8  9  2  0
 10 11  2  0
 10 12  1  0
 12 13  1  0
 13 14  2  0
 13 18  1  0
 14 15  1  0
 15 16  2  0
 16 17  1  0
 17 18  2  0
 18 19  1  0
 19 20  2  0
 19 23  1  0
 20 21  1  0
 21 22  2  0
 22 23  1  0
M  END
