
     RDKit          3D

 23 25  0  0  0  0  0  0  0  0999 V2000
    1.2010   -2.2030   -1.4090 C   0  0  0  0  0  0  0  0  0  0  0  0
    2.1950   -1.3200   -0.7740 C   0  0  0  0  0  0  0  0  0  0  0  0
    1.7880   -0.2590   -0.1400 C   0  0  0  0  0  0  0  0  0  0  0  0
    0.4900    0.1720    0.0150 N   0  0  0  0  0  0  0  0  0  0  0  0
   -0.7630   -0.2250   -0.3490 C   0  0  0  0  0  0  0  0  0  0  0  0
   -1.0450   -1.2320   -1.0240 O   0  0  0  0  0  0  0  0  0  0  0  0
   -1.9750    0.5870    0.0720 C   0  0  0  0  0  0  0  0  0  0  0  0
   -1.7830    1.5980    0.7470 O   0  0  0  0  0  0  0  0  0  0  0  0
   -3.2750    0.1710   -0.3140 N   0  0  0  0  0  0  0  0  0  0  0  0
   -3.5320   -1.0130   -1.1070 C   0  0  0  0  0  0  0  0  0  0  0  0
   -5.0490   -1.0360   -1.3420 C   0  0  0  0  0  0  0  0  0  0  0  0
   -5.7570   -1.0130   -0.1660 O   0  0  0  0  0  0  0  0  0  0  0  0
   -5.4260    0.0040    0.6930 C   0  0  0  0  0  0  0  0  0  0  0  0
   -4.3990    0.9590    0.0990 C   0  0  0  0  0  0  0  0  0  0  0  0
    2.7050    0.7160    0.6140 C   0  0  0  0  0  0  0  0  0  0  0  0
    3.8740    1.1130    0.2450 C   0  0  0  0  0  0  0  0  0  0  0  0
    4.6790    2.0580    1.0320 C   0  0  0  0  0  0  0  0  0  0  0  0
    4.0340    2.4300    2.2700 N   0  0  0  0  0  0  0  0  0  0  0  0
    2.7540    1.9720    2.6490 C   0  0  0  0  0  0  0  0  0  0  0  0
    2.0870    1.1420    1.8690 C   0  0  0  0  0  0  0  0  0  0  0  0
    4.8830    0.5990   -1.1710 S   0  0  0  0  0  0  0  0  0  0  0  0
    4.7050   -1.1960   -1.2140 C   0  0  0  0  0  0  0  0  0  0  0  0
    3.5680   -1.8010   -1.0360 C   0  0  0  0  0  0  0  0  0  0  0  0
  1  2  1  0
  2  3  2  0
  2 23  1  0
  3  4  1  0
  3 15  1  0
  4  5  1  0
  5  6  2  0
  5  7  1  0
  7  8  2  0
  7  9  1  0
  9 10  1  0
  9 14  1  0
 10 11  1  0
 11 12  1  0
 12 13  1  0
 13 14  1  0
 15 16  2  0
 15 20  1  0
 16 17  1  0
 16 21  1  0
 17 18  1  0
 18 19  1  0
 19 20  2  0
 21 22  1  0
 22 23  2  0
M  END
