
     RDKit          3D

 23 25  0  0  0  0  0  0  0  0999 V2000
    0.3000   -1.0010    0.7060 O   0  0  0  0  0  0  0  0  0  0  0  0
    0.0480   -0.3020   -0.1760 C   0  0  0  0  0  0  0  0  0  0  0  0
   -1.0330    0.0520   -1.0600 C   0  0  0  0  0  0  0  0  0  0  0  0
   -2.2650   -0.7880   -0.7750 C   0  0  0  0  0  0  0  0  0  0  0  0
   -2.2900   -2.1530   -0.8210 C   0  0  0  0  0  0  0  0  0  0  0  0
   -4.0100   -2.5780   -0.4380 S   0  0  0  0  0  0  0  0  0  0  0  0
   -4.4450   -0.7400   -0.2680 C   0  0  0  0  0  0  0  0  0  0  0  0
   -5.8990   -0.4350    0.0680 C   0  0  0  0  0  0  0  0  0  0  0  0
   -6.2530    0.8310    0.1330 C   0  0  0  0  0  0  0  0  0  0  0  0
   -7.6460    1.2100    0.4510 C   0  0  0  0  0  0  0  0  0  0  0  0
   -8.4770    0.1050    0.7230 O   0  0  0  0  0  0  0  0  0  0  0  0
   -8.0820   -1.2080    0.6460 C   0  0  0  0  0  0  0  0  0  0  0  0
   -6.8430   -1.5000    0.3320 C   0  0  0  0  0  0  0  0  0  0  0  0
   -3.4390   -0.2640   -0.4830 N   0  0  0  0  0  0  0  0  0  0  0  0
    1.4320    0.6850   -0.6430 N   0  0  0  0  0  0  0  0  0  0  0  0
    2.3150    0.1090    0.2070 C   0  0  0  0  0  0  0  0  0  0  0  0
    2.3400   -0.7200    1.0890 O   0  0  0  0  0  0  0  0  0  0  0  0
    3.6900    0.7020   -0.0380 N   0  0  0  0  0  0  0  0  0  0  0  0
    4.7800    0.3010    0.7580 C   0  0  2  0  0  0  0  0  0  0  0  0
    5.6030    1.5000    1.1310 C   0  0  0  0  0  0  0  0  0  0  0  0
    7.0020    1.2810    0.6620 C   0  0  0  0  0  0  0  0  0  0  0  0
    7.0140    0.0300   -0.1660 C   0  0  0  0  0  0  0  0  0  0  0  0
    5.6790   -0.6410   -0.0290 C   0  0  0  0  0  0  0  0  0  0  0  0
  1  2  2  0
  2  3  1  0
  2 15  1  0
  3  4  1  0
  4  5  2  0
  4 14  1  0
  5  6  1  0
  6  7  1  0
  7  8  1  0
  7 14  2  0
  8  9  2  0
  8 13  1  0
  9 10  1  0
 10 11  1  0
 11 12  1  0
 12 13  2  0
 15 16  1  0
 16 17  2  0
 16 18  1  0
 19 18  1  6
 19 20  1  0
 19 23  1  0
 20 21  1  0
 21 22  1  0
 22 23  1  0
M  END
