
     RDKit          3D

 23 25  0  0  0  0  0  0  0  0999 V2000
   -0.4350   -2.3940    1.5110 C   0  0  0  0  0  0  0  0  0  0  0  0
   -1.6960   -1.7220    1.4700 C   0  0  0  0  0  0  0  0  0  0  0  0
   -2.1820   -0.7140    0.8270 C   0  0  0  0  0  0  0  0  0  0  0  0
   -3.5090   -0.4180    1.1070 N   0  0  0  0  0  0  0  0  0  0  0  0
   -4.2490    0.4960    0.5060 C   0  0  0  0  0  0  0  0  0  0  0  0
   -5.6710    0.7450    0.8860 C   0  0  0  0  0  0  0  0  0  0  0  0
   -3.6640    1.2020   -0.4620 N   0  0  0  0  0  0  0  0  0  0  0  0
   -2.3510    0.9660   -0.7900 C   0  0  0  0  0  0  0  0  0  0  0  0
   -1.8870    1.6710   -1.7060 O   0  0  0  0  0  0  0  0  0  0  0  0
   -1.5530    0.0070   -0.1600 C   0  0  0  0  0  0  0  0  0  0  0  0
   -0.2430   -0.0080   -0.3290 C   0  0  0  0  0  0  0  0  0  0  0  0
    0.5730    0.6690   -1.3270 C   0  0  0  0  0  0  0  0  0  0  0  0
    1.8860    0.6390   -1.2700 C   0  0  0  0  0  0  0  0  0  0  0  0
    2.5240   -0.1290   -0.1290 C   0  0  0  0  0  0  0  0  0  0  0  0
    3.1370    0.0530    0.8300 N   0  0  0  0  0  0  0  0  0  0  0  0
    3.6980   -0.8010    1.6610 C   0  0  0  0  0  0  0  0  0  0  0  0
    4.5010   -0.4260    2.9140 C   0  0  0  0  0  0  0  0  0  0  0  0
    3.5030   -2.1460    1.2970 C   0  0  0  0  0  0  0  0  0  0  0  0
    2.5140   -1.9660   -0.2280 S   0  0  0  0  0  0  0  0  0  0  0  0
    2.6880    1.2580   -2.1800 O   0  0  0  0  0  0  0  0  0  0  0  0
    2.2310    1.6500   -3.4720 C   0  0  0  0  0  0  0  0  0  0  0  0
    0.7660    2.0370   -3.3830 C   0  0  0  0  0  0  0  0  0  0  0  0
    0.0650    1.3760   -2.3950 O   0  0  0  0  0  0  0  0  0  0  0  0
  1  2  1  0
  2  3  2  3
  3  4  1  0
  3 10  1  0
  4  5  2  0
  5  6  1  0
  5  7  1  0
  7  8  1  0
  8  9  2  0
  8 10  1  0
 10 11  2  3
 11 12  1  0
 12 13  2  0
 12 23  1  0
 13 14  1  0
 13 20  1  0
 14 15  2  0
 14 19  1  0
 15 16  1  0
 16 17  1  0
 16 18  2  0
 18 19  1  0
 20 21  1  0
 21 22  1  0
 22 23  1  0
M  END
