
     RDKit          3D

 23 24  0  0  0  0  0  0  0  0999 V2000
   -3.4060   -0.9460   -3.3540 C   0  0  0  0  0  0  0  0  0  0  0  0
   -2.6930   -0.5430   -2.0460 C   0  0  0  0  0  0  0  0  0  0  0  0
   -3.4580   -0.0720   -1.1160 C   0  0  0  0  0  0  0  0  0  0  0  0
   -4.8370   -0.0020   -1.4550 O   0  0  0  0  0  0  0  0  0  0  0  0
   -5.7990    0.4650   -0.6070 N   0  0  0  0  0  0  0  0  0  0  0  0
   -5.4350    0.8600    0.5520 C   0  0  0  0  0  0  0  0  0  0  0  0
   -6.4800    1.3660    1.4690 C   0  0  0  0  0  0  0  0  0  0  0  0
   -4.0600    0.8290    0.9930 C   0  0  0  0  0  0  0  0  0  0  0  0
   -3.7600    1.3100    2.3610 C   0  0  0  0  0  0  0  0  0  0  0  0
   -3.0530    0.3710    0.1850 C   0  0  0  0  0  0  0  0  0  0  0  0
   -1.7910    0.3970    0.7370 N   0  0  0  0  0  0  0  0  0  0  0  0
   -0.5080    0.0480    0.3150 C   0  0  0  0  0  0  0  0  0  0  0  0
   -0.3050   -0.3990   -0.7760 O   0  0  0  0  0  0  0  0  0  0  0  0
    0.6700    0.2190    1.2160 C   0  0  0  0  0  0  0  0  0  0  0  0
    0.5500    0.6810    2.3790 O   0  0  0  0  0  0  0  0  0  0  0  0
    1.9680   -0.1400    0.7760 N   0  0  0  0  0  0  0  0  0  0  0  0
    3.1190    0.0150    1.6250 C   0  0  0  0  0  0  0  0  0  0  0  0
    4.3380   -0.4380    0.9090 C   0  0  0  0  0  0  0  0  0  0  0  0
    5.3580    0.3790    0.6780 C   0  0  0  0  0  0  0  0  0  0  0  0
    6.5380   -0.1250   -0.0340 C   0  0  0  0  0  0  0  0  0  0  0  0
    6.2440   -0.7940   -1.3500 C   0  0  0  0  0  0  0  0  0  0  0  0
    5.5380   -2.1200   -1.1680 C   0  0  0  0  0  0  0  0  0  0  0  0
    4.4950   -2.1210    0.3140 S   0  0  0  0  0  0  0  0  0  0  0  0
  1  2  1  0
  2  3  2  3
  3  4  1  0
  3 10  1  0
  4  5  1  0
  5  6  2  0
  6  7  1  0
  6  8  1  0
  8  9  1  0
  8 10  2  0
 10 11  1  0
 11 12  1  0
 12 13  2  0
 12 14  1  0
 14 15  2  0
 14 16  1  0
 16 17  1  0
 17 18  1  0
 18 19  2  0
 18 23  1  0
 19 20  1  0
 20 21  1  0
 21 22  1  0
 22 23  1  0
M  END
