
     RDKit          3D

  8  7  0  0  0  0  0  0  0  0999 V2000
   -2.3550   -0.4700   -0.0120 N   0  0  0  0  0  0  0  0  0  0  0  0
   -2.2070    0.9890   -0.0140 C   0  0  0  0  0  0  0  0  0  0  0  0
   -0.9500    1.2410   -0.5710 O   0  0  0  0  0  0  0  0  0  0  0  0
   -0.0480    0.6560    0.1840 O   0  0  0  0  0  0  0  0  0  0  0  0
    0.8620   -0.0730   -0.5800 C   0  0  0  0  0  0  0  0  0  0  0  0
    2.0720   -0.8430    0.5940 P   0  0  0  0  0  0  0  0  0  0  0  0
    2.8190    0.3440    1.6050 O   0  0  0  0  0  0  0  0  0  0  0  0
    3.2530   -1.8070   -0.2210 O   0  0  0  0  0  0  0  0  0  0  0  0
  1  2  1  0
  2  3  1  0
  3  4  1  0
  4  5  1  0
  5  6  1  0
  6  7  1  0
  6  8  1  0
M  END
