
     RDKit          3D

  9  8  0  0  0  0  0  0  0  0999 V2000
   -3.5200    0.1880   -0.8870 N   0  0  0  0  0  0  0  0  0  0  0  0
   -2.1870    0.0060   -1.0690 O   0  0  0  0  0  0  0  0  0  0  0  0
   -1.5840    0.1430    0.1790 C   0  0  0  0  0  0  0  0  0  0  0  0
   -0.0760   -0.0480    0.0600 C   0  0  0  0  0  0  0  0  0  0  0  0
    0.4590    0.8930   -0.7950 O   0  0  0  0  0  0  0  0  0  0  0  0
    1.7550    0.7050   -0.8790 O   0  0  0  0  0  0  0  0  0  0  0  0
    2.5170    0.4760    0.6420 P   0  0  0  0  0  0  0  0  0  0  0  0
    2.4010   -1.1670    1.1860 O   0  0  0  0  0  0  0  0  0  0  0  0
    4.1650    0.9960    0.5230 O   0  0  0  0  0  0  0  0  0  0  0  0
  1  2  1  0
  2  3  1  0
  3  4  1  0
  4  5  1  0
  5  6  1  0
  6  7  1  0
  7  8  1  0
  7  9  1  0
M  END
