
     RDKit          3D

  9  8  0  0  0  0  0  0  0  0999 V2000
    2.7450   -0.9560    0.8210 O   0  0  0  0  0  0  0  0  0  0  0  0
    2.3140   -0.2760   -0.1630 C   0  0  0  0  0  0  0  0  0  0  0  0
    3.1280   -0.1300   -1.2660 O   0  0  0  0  0  0  0  0  0  0  0  0
    1.0220    0.2830   -0.0490 N   0  0  0  0  0  0  0  0  0  0  0  0
    0.2210    0.0920    1.1340 C   0  0  0  0  0  0  0  0  0  0  0  0
   -1.0010    0.7150    1.0480 O   0  0  0  0  0  0  0  0  0  0  0  0
   -1.9450    0.1300   -0.2810 P   0  0  0  0  0  0  0  0  0  0  0  0
   -3.1590    1.3550   -0.6090 O   0  0  0  0  0  0  0  0  0  0  0  0
   -2.7960   -1.3200    0.1290 O   0  0  0  0  0  0  0  0  0  0  0  0
  1  2  2  0
  2  3  1  0
  2  4  1  0
  4  5  1  0
  5  6  1  0
  6  7  1  0
  7  8  1  0
  7  9  1  0
M  END
