
     RDKit          3D

  9  8  0  0  0  0  0  0  0  0999 V2000
   -4.1340   -0.5230   -0.0870 O   0  0  0  0  0  0  0  0  0  0  0  0
   -2.9380   -1.0510    0.2020 N   0  0  0  0  0  0  0  0  0  0  0  0
   -1.8330   -0.1630   -0.1330 C   0  0  0  0  0  0  0  0  0  0  0  0
   -0.6600   -0.8410    0.2210 O   0  0  0  0  0  0  0  0  0  0  0  0
    0.4760   -0.0720   -0.0600 C   0  0  0  0  0  0  0  0  0  0  0  0
    1.5730   -0.8110    0.3160 O   0  0  0  0  0  0  0  0  0  0  0  0
    3.0770   -0.0830    0.0720 P   0  0  0  0  0  0  0  0  0  0  0  0
    3.7800   -0.3280   -1.4580 O   0  0  0  0  0  0  0  0  0  0  0  0
    3.2510    1.4930    0.6900 O   0  0  0  0  0  0  0  0  0  0  0  0
  1  2  1  0
  2  3  1  0
  3  4  1  0
  4  5  1  0
  5  6  1  0
  6  7  1  0
  7  8  1  0
  7  9  1  0
M  END
