
     RDKit          3D

  8  7  0  0  0  0  0  0  0  0999 V2000
    3.0240   -0.7890   -0.5330 N   0  0  0  0  0  0  0  0  0  0  0  0
    1.9140   -0.1690   -0.9740 O   0  0  0  0  0  0  0  0  0  0  0  0
    0.8220   -0.6350   -0.3780 O   0  0  0  0  0  0  0  0  0  0  0  0
    0.3740    0.3570    0.4770 C   0  0  0  0  0  0  0  0  0  0  0  0
   -0.7670   -0.0030    1.1650 O   0  0  0  0  0  0  0  0  0  0  0  0
   -2.1060   -0.3660    0.1790 P   0  0  0  0  0  0  0  0  0  0  0  0
   -3.5680   -0.1170    1.0760 O   0  0  0  0  0  0  0  0  0  0  0  0
   -2.1970    0.6160   -1.2490 O   0  0  0  0  0  0  0  0  0  0  0  0
  1  2  1  0
  2  3  1  0
  3  4  1  0
  4  5  1  0
  5  6  1  0
  6  7  1  0
  6  8  1  0
M  END
