
     RDKit          3D

 20 21  0  0  0  0  0  0  0  0999 V2000
   -3.4280    0.7690   -1.3090 O   0  0  0  0  0  0  0  0  0  0  0  0
   -3.0210    0.1890   -0.2500 C   0  0  0  0  0  0  0  0  0  0  0  0
   -3.8920    0.1370    0.8490 N   0  0  0  0  0  0  0  0  0  0  0  0
   -5.2220    0.7160    0.8140 C   0  0  0  0  0  0  0  0  0  0  0  0
   -5.9530    0.5280    2.1140 C   0  0  0  0  0  0  0  0  0  0  0  0
   -6.0580   -0.8480    2.3470 O   0  0  0  0  0  0  0  0  0  0  0  0
   -1.7490   -0.3410   -0.2780 O   0  0  0  0  0  0  0  0  0  0  0  0
   -0.9090   -0.2570   -1.4260 C   0  0  1  0  0  0  0  0  0  0  0  0
    0.3070    0.3590   -1.1330 O   0  0  0  0  0  0  0  0  0  0  0  0
    1.0230   -0.6410   -0.5030 C   0  0  2  0  0  0  0  0  0  0  0  0
    2.4510   -0.3090   -0.2560 C   0  0  0  0  0  0  0  0  0  0  0  0
    3.1540    0.0230   -1.4030 O   0  0  0  0  0  0  0  0  0  0  0  0
    4.7860    0.4060   -1.1410 P   0  0  0  0  0  0  0  0  0  0  0  0
    4.9980    1.7160    0.2030 C   0  0  0  0  0  0  0  0  0  0  0  0
    5.5310    0.8690    1.2070 O   0  0  0  0  0  0  0  0  0  0  0  0
    6.3950    0.0060    0.5840 C   0  0  0  0  0  0  0  0  0  0  0  0
    5.6310   -0.8540   -0.2420 O   0  0  0  0  0  0  0  0  0  0  0  0
    0.8440   -1.7660   -1.3930 N   0  0  0  0  0  0  0  0  0  0  0  0
   -0.4970   -1.6060   -1.9020 C   0  0  0  0  0  0  0  0  0  0  0  0
   -1.1340   -2.4340   -2.5850 O   0  0  0  0  0  0  0  0  0  0  0  0
  1  2  2  0
  2  3  1  0
  2  7  1  0
  3  4  1  0
  4  5  1  0
  5  6  1  0
  8  7  1  1
  8  9  1  0
  8 19  1  0
  9 10  1  0
 10 11  1  6
 10 18  1  0
 11 12  1  0
 12 13  1  0
 13 14  1  0
 13 17  1  0
 14 15  1  0
 15 16  1  0
 16 17  1  0
 18 19  1  0
 19 20  2  0
M  END
