
     RDKit          3D

 28 29  0  0  0  0  0  0  0  0999 V2000
   -7.1810   -3.6220    0.1410 O   0  0  0  0  0  0  0  0  0  0  0  0
   -6.3540   -2.6620    0.0710 C   0  0  0  0  0  0  0  0  0  0  0  0
   -5.3140   -2.5180    0.9690 C   0  0  0  0  0  0  0  0  0  0  0  0
   -4.4330   -1.4470    0.8490 C   0  0  0  0  0  0  0  0  0  0  0  0
   -4.5570   -0.5440   -0.1120 N   0  0  0  0  0  0  0  0  0  0  0  0
   -3.6880    0.5740   -0.2870 C   0  0  1  0  0  0  0  0  0  0  0  0
   -3.3770    1.3040    1.0060 C   0  0  0  0  0  0  0  0  0  0  0  0
   -2.1490    2.1050    0.6050 C   0  0  2  0  0  0  0  0  0  0  0  0
   -2.5450    3.3780    0.1830 O   0  0  0  0  0  0  0  0  0  0  0  0
   -1.6320    1.3260   -0.5780 C   0  0  1  0  0  0  0  0  0  0  0  0
   -0.1560    0.9850   -0.3320 C   0  0  0  0  0  0  0  0  0  0  0  0
    0.5200    2.1550   -0.2420 O   0  0  0  0  0  0  0  0  0  0  0  0
    2.1610    1.9750    0.0250 P   0  0  0  0  0  0  0  0  0  0  0  0
    2.2860    1.0880   -1.1930 O   0  0  0  0  0  0  0  0  0  0  0  0
    3.1860    3.1400   -0.4550 O   0  0  0  0  0  0  0  0  0  0  0  0
    2.7260    0.7240    1.0440 N   0  0  0  0  0  0  0  0  0  0  0  0
    4.2510    0.0960    0.5940 P   0  0  0  0  0  0  0  0  0  0  0  0
    4.8320    0.3390    1.9860 O   0  0  0  0  0  0  0  0  0  0  0  0
    5.3300    1.0950   -0.1340 O   0  0  0  0  0  0  0  0  0  0  0  0
    4.5710   -1.5110    0.6960 O   0  0  0  0  0  0  0  0  0  0  0  0
    5.1020   -2.4140   -0.3920 P   0  0  0  0  0  0  0  0  0  0  0  0
    4.6300   -1.3790   -1.6020 O   0  0  0  0  0  0  0  0  0  0  0  0
    6.6550   -2.1970    0.2510 O   0  0  0  0  0  0  0  0  0  0  0  0
    4.2470   -3.7270   -0.0600 O   0  0  0  0  0  0  0  0  0  0  0  0
   -2.3940    0.1840   -0.6830 O   0  0  0  0  0  0  0  0  0  0  0  0
   -5.5910   -0.7090   -0.9840 C   0  0  0  0  0  0  0  0  0  0  0  0
   -5.7300    0.1400   -1.9100 O   0  0  0  0  0  0  0  0  0  0  0  0
   -6.4520   -1.7280   -0.8930 N   0  0  0  0  0  0  0  0  0  0  0  0
  1  2  2  0
  2  3  1  0
  2 28  1  0
  3  4  2  0
  4  5  1  0
  6  5  1  1
  5 26  1  0
  6  7  1  0
  6 25  1  0
  7  8  1  0
  8  9  1  6
  8 10  1  0
 10 11  1  1
 10 25  1  0
 11 12  1  0
 12 13  1  0
 13 14  1  0
 13 15  1  0
 13 16  1  0
 16 17  1  0
 17 18  1  0
 17 19  1  0
 17 20  1  0
 20 21  1  0
 21 22  1  0
 21 23  1  0
 21 24  1  0
 26 27  2  0
 26 28  1  0
M  END
