
     RDKit          3D

  9  8  0  0  0  0  0  0  0  0999 V2000
   -1.3270    0.2160    1.1940 O   0  0  0  0  0  0  0  0  0  0  0  0
   -1.5510   -0.2550    0.0690 C   0  0  0  0  0  0  0  0  0  0  0  0
   -0.5020   -0.9460   -0.5930 N   0  0  0  0  0  0  0  0  0  0  0  0
    0.7950   -1.1170   -0.0120 C   0  0  0  0  0  0  0  0  0  0  0  0
    1.6280    0.5130    0.3500 P   0  0  0  0  0  0  0  0  0  0  0  0
    1.5550    1.4660   -1.1130 O   0  0  0  0  0  0  0  0  0  0  0  0
    3.3050    0.1480    0.6810 O   0  0  0  0  0  0  0  0  0  0  0  0
   -2.8110   -0.0860   -0.4860 O   0  0  0  0  0  0  0  0  0  0  0  0
   -3.7840    0.5820    0.1830 O   0  0  0  0  0  0  0  0  0  0  0  0
  1  2  2  0
  2  3  1  0
  2  8  1  0
  3  4  1  0
  4  5  1  0
  5  6  1  0
  5  7  1  0
  8  9  1  0
M  END
