
     RDKit          3D

  9  8  0  0  0  0  0  0  0  0999 V2000
   -2.7660   -1.2460    0.8880 O   0  0  0  0  0  0  0  0  0  0  0  0
   -2.7650    0.0420    0.5390 C   0  0  0  0  0  0  0  0  0  0  0  0
   -1.8330    0.3870   -0.3700 O   0  0  0  0  0  0  0  0  0  0  0  0
   -0.9560   -0.6020   -0.8620 N   0  0  0  0  0  0  0  0  0  0  0  0
    0.3370    0.1700   -0.9380 C   0  0  0  0  0  0  0  0  0  0  0  0
    1.2180    0.1750    0.6170 P   0  0  0  0  0  0  0  0  0  0  0  0
    0.8930    1.3620    1.7340 O   0  0  0  0  0  0  0  0  0  0  0  0
    2.1140   -1.1610    1.0500 O   0  0  0  0  0  0  0  0  0  0  0  0
    3.1040   -1.3370    0.2040 O   0  0  0  0  0  0  0  0  0  0  0  0
  1  2  2  0
  2  3  1  0
  3  4  1  0
  4  5  1  0
  5  6  1  0
  6  7  1  0
  6  8  1  0
  8  9  1  0
M  END
