
     RDKit          3D

 21 23  0  0  0  0  0  0  0  0999 V2000
   -2.2840   -3.0640   -0.8420 C   0  0  0  0  0  0  0  0  0  0  0  0
   -1.8660   -1.6850   -0.5480 C   0  0  0  0  0  0  0  0  0  0  0  0
   -2.7550   -0.6710   -0.4540 N   0  0  0  0  0  0  0  0  0  0  0  0
   -2.3360    0.5740   -0.1810 C   0  0  0  0  0  0  0  0  0  0  0  0
   -3.2530    1.6110   -0.0910 C   0  0  0  0  0  0  0  0  0  0  0  0
   -2.8430    2.9220    0.1890 C   0  0  0  0  0  0  0  0  0  0  0  0
   -1.5070    3.2160    0.3810 C   0  0  0  0  0  0  0  0  0  0  0  0
   -1.0340    4.8660    0.7200 Cl  0  0  0  0  0  0  0  0  0  0  0  0
   -0.6040    2.1820    0.2880 C   0  0  0  0  0  0  0  0  0  0  0  0
   -1.0050    0.8900    0.0140 C   0  0  0  0  0  0  0  0  0  0  0  0
   -0.1010   -0.1770   -0.0890 C   0  0  0  0  0  0  0  0  0  0  0  0
    1.2820    0.1580    0.1360 C   0  0  0  0  0  0  0  0  0  0  0  0
    1.9450   -0.1740    1.2760 C   0  0  0  0  0  0  0  0  0  0  0  0
    3.2630    0.1760    1.5070 C   0  0  0  0  0  0  0  0  0  0  0  0
    3.9640    0.9060    0.5350 C   0  0  0  0  0  0  0  0  0  0  0  0
    3.3140    1.2510   -0.6250 C   0  0  0  0  0  0  0  0  0  0  0  0
    1.9980    0.8870   -0.8320 C   0  0  0  0  0  0  0  0  0  0  0  0
   -0.5000   -1.4760   -0.3690 C   0  0  0  0  0  0  0  0  0  0  0  0
    0.4820   -2.5350   -0.4460 C   0  0  0  0  0  0  0  0  0  0  0  0
    1.0060   -2.8000   -1.5560 O   0  0  0  0  0  0  0  0  0  0  0  0
    0.9130   -3.3090    0.6330 O   0  0  0  0  0  0  0  0  0  0  0  0
  1  2  1  0
  2  3  2  0
  2 18  1  0
  3  4  1  0
  4  5  2  0
  4 10  1  0
  5  6  1  0
  6  7  2  0
  7  8  1  0
  7  9  1  0
  9 10  2  0
 10 11  1  0
 11 12  1  0
 11 18  2  0
 12 13  2  0
 12 17  1  0
 13 14  1  0
 14 15  2  0
 15 16  1  0
 16 17  2  0
 18 19  1  0
 19 20  2  0
 19 21  1  0
M  END
