
     RDKit          3D

 21 23  0  0  0  0  0  0  0  0999 V2000
   -6.3520    0.3490   -0.2340 C   0  0  0  0  0  0  0  0  0  0  0  0
   -4.8630    0.2920   -0.1480 C   0  0  0  0  0  0  0  0  0  0  0  0
   -4.2000   -0.8110   -0.6170 C   0  0  0  0  0  0  0  0  0  0  0  0
   -2.7920   -0.8870   -0.5470 C   0  0  0  0  0  0  0  0  0  0  0  0
   -2.0390    0.1130   -0.0190 C   0  0  0  0  0  0  0  0  0  0  0  0
   -0.6240    0.1070    0.0660 N   0  0  0  0  0  0  0  0  0  0  0  0
    0.2760   -0.7690   -0.5520 C   0  0  0  0  0  0  0  0  0  0  0  0
   -0.2020   -1.6890   -1.2970 O   0  0  0  0  0  0  0  0  0  0  0  0
    1.7480   -0.6990   -0.3970 C   0  0  0  0  0  0  0  0  0  0  0  0
    2.5150   -1.5870   -1.0340 C   0  0  0  0  0  0  0  0  0  0  0  0
    3.9700   -1.5530   -0.9080 C   0  0  0  0  0  0  0  0  0  0  0  0
    4.7220   -2.3620   -1.4840 O   0  0  0  0  0  0  0  0  0  0  0  0
    4.5920   -0.5250   -0.0690 C   0  0  0  0  0  0  0  0  0  0  0  0
    5.8160   -0.1920    0.2730 C   0  0  0  0  0  0  0  0  0  0  0  0
    5.8290    0.9580    1.1650 C   0  0  0  0  0  0  0  0  0  0  0  0
    7.2200    1.7670    1.8870 Cl  0  0  0  0  0  0  0  0  0  0  0  0
    4.5710    1.3180    1.3590 C   0  0  0  0  0  0  0  0  0  0  0  0
    3.7080    0.4130    0.5980 C   0  0  0  0  0  0  0  0  0  0  0  0
    2.4080    0.2930    0.4160 C   0  0  0  0  0  0  0  0  0  0  0  0
   -2.7590    1.2230    0.4500 C   0  0  0  0  0  0  0  0  0  0  0  0
   -4.1220    1.3210    0.3930 C   0  0  0  0  0  0  0  0  0  0  0  0
  1  2  1  0
  2  3  2  0
  2 21  1  0
  3  4  1  0
  4  5  2  0
  5  6  1  0
  5 20  1  0
  6  7  1  0
  7  8  2  0
  7  9  1  0
  9 10  2  0
  9 19  1  0
 10 11  1  0
 11 12  2  0
 11 13  1  0
 13 14  2  0
 13 18  1  0
 14 15  1  0
 15 16  1  0
 15 17  2  0
 17 18  1  0
 18 19  2  0
 20 21  2  0
M  END
