
     RDKit          3D

 21 23  0  0  0  0  0  0  0  0999 V2000
   -5.0730    1.7790    0.1880 C   0  0  0  0  0  0  0  0  0  0  0  0
   -4.1150    0.6540    0.1220 C   0  0  0  0  0  0  0  0  0  0  0  0
   -4.3990   -0.4310   -0.6730 C   0  0  0  0  0  0  0  0  0  0  0  0
   -3.5280   -1.4820   -0.7500 C   0  0  0  0  0  0  0  0  0  0  0  0
   -2.3470   -1.4390   -0.0120 C   0  0  0  0  0  0  0  0  0  0  0  0
   -2.0300   -0.3710    0.7920 C   0  0  0  0  0  0  0  0  0  0  0  0
   -0.7820   -0.3500    1.5390 C   0  0  0  0  0  0  0  0  0  0  0  0
    0.3710   -0.7160    1.0640 C   0  0  0  0  0  0  0  0  0  0  0  0
    1.6530   -0.7150    1.7750 C   0  0  0  0  0  0  0  0  0  0  0  0
    2.5660   -0.2770    0.6570 C   0  0  0  0  0  0  0  0  0  0  0  0
    3.8090    0.3240    0.6600 C   0  0  0  0  0  0  0  0  0  0  0  0
    4.4140    0.6210   -0.5390 C   0  0  0  0  0  0  0  0  0  0  0  0
    5.7230    1.2550   -0.5450 C   0  0  0  0  0  0  0  0  0  0  0  0
    6.2880    1.5460   -1.6450 O   0  0  0  0  0  0  0  0  0  0  0  0
    3.8060    0.3320   -1.7460 C   0  0  0  0  0  0  0  0  0  0  0  0
    4.3850    0.6160   -2.8490 O   0  0  0  0  0  0  0  0  0  0  0  0
    2.6020   -0.2490   -1.7170 N   0  0  0  0  0  0  0  0  0  0  0  0
    1.9830   -0.5530   -0.5520 C   0  0  0  0  0  0  0  0  0  0  0  0
    0.6700   -1.1920   -0.2840 C   0  0  0  0  0  0  0  0  0  0  0  0
   -2.9440    0.6700    0.8380 C   0  0  0  0  0  0  0  0  0  0  0  0
   -2.5570    2.0330    1.8550 Cl  0  0  0  0  0  0  0  0  0  0  0  0
  1  2  1  0
  2  3  2  0
  2 20  1  0
  3  4  1  0
  4  5  2  0
  5  6  1  0
  6  7  1  0
  6 20  2  0
  7  8  2  3
  8  9  1  0
  8 19  1  0
  9 10  1  0
 10 11  1  0
 10 18  2  0
 11 12  2  0
 12 13  1  0
 12 15  1  0
 13 14  2  0
 15 16  2  0
 15 17  1  0
 17 18  1  0
 18 19  1  0
 20 21  1  0
M  END
