
     RDKit          3D

 21 23  0  0  0  0  0  0  0  0999 V2000
   -3.2730   -1.7120   -1.5270 C   0  0  0  0  0  0  0  0  0  0  0  0
   -2.8770   -0.3400   -2.0870 C   0  0  0  0  0  0  0  0  0  0  0  0
   -2.7670    0.6350   -1.0040 C   0  0  0  0  0  0  0  0  0  0  0  0
   -1.6460    0.7530   -0.3330 C   0  0  0  0  0  0  0  0  0  0  0  0
   -0.5080    0.0500   -0.5200 N   0  0  0  0  0  0  0  0  0  0  0  0
    0.4500    0.4250    0.3440 C   0  0  0  0  0  0  0  0  0  0  0  0
    1.6720   -0.0950    0.3950 C   0  0  0  0  0  0  0  0  0  0  0  0
    2.8090    0.1850    1.2440 C   0  0  0  0  0  0  0  0  0  0  0  0
    2.9550    1.0070    2.1760 O   0  0  0  0  0  0  0  0  0  0  0  0
    3.8510   -0.6730    0.8580 O   0  0  0  0  0  0  0  0  0  0  0  0
    3.4350   -1.4460   -0.1560 C   0  0  0  0  0  0  0  0  0  0  0  0
    4.3210   -2.4790   -0.8020 C   0  0  0  0  0  0  0  0  0  0  0  0
    2.1600   -1.1710   -0.4920 C   0  0  0  0  0  0  0  0  0  0  0  0
    1.4890   -1.8980   -1.5780 C   0  0  0  0  0  0  0  0  0  0  0  0
   -0.1090    1.4130    1.1140 C   0  0  0  0  0  0  0  0  0  0  0  0
    0.3130    2.2070    2.1590 C   0  0  0  0  0  0  0  0  0  0  0  0
   -0.4700    3.1670    2.7910 C   0  0  0  0  0  0  0  0  0  0  0  0
    0.1810    4.1260    4.1220 Cl  0  0  0  0  0  0  0  0  0  0  0  0
   -1.7570    3.3380    2.3440 C   0  0  0  0  0  0  0  0  0  0  0  0
   -2.2280    2.5640    1.2960 C   0  0  0  0  0  0  0  0  0  0  0  0
   -1.4300    1.6220    0.6900 C   0  0  0  0  0  0  0  0  0  0  0  0
  1  2  1  0
  2  3  1  0
  3  4  2  3
  4  5  1  0
  4 21  1  0
  5  6  1  0
  6  7  2  3
  6 15  1  0
  7  8  1  0
  7 13  1  0
  8  9  2  0
  8 10  1  0
 10 11  1  0
 11 12  1  0
 11 13  2  0
 13 14  1  0
 15 16  2  0
 15 21  1  0
 16 17  1  0
 17 18  1  0
 17 19  2  0
 19 20  1  0
 20 21  2  0
M  END
