
     RDKit          3D

 21 22  0  0  0  0  0  0  0  0999 V2000
    4.8530   -0.9120    1.4030 C   0  0  0  0  0  0  0  0  0  0  0  0
    3.5570   -0.4760    0.7680 C   0  0  0  0  0  0  0  0  0  0  0  0
    3.6020    0.2470   -0.3060 C   0  0  0  0  0  0  0  0  0  0  0  0
    2.4290    0.7490   -1.0520 C   0  0  0  0  0  0  0  0  0  0  0  0
    2.7180    1.5090   -2.0840 C   0  0  0  0  0  0  0  0  0  0  0  0
    1.4850    2.1900   -3.0940 Cl  0  0  0  0  0  0  0  0  0  0  0  0
    1.0950    0.4790   -0.5570 C   0  0  0  0  0  0  0  0  0  0  0  0
    0.1240    1.4130   -0.3160 C   0  0  0  0  0  0  0  0  0  0  0  0
    0.4670    2.8830   -0.3260 C   0  0  0  0  0  0  0  0  0  0  0  0
   -1.1860    1.0680    0.0140 C   0  0  0  0  0  0  0  0  0  0  0  0
   -1.5510   -0.2520    0.1120 C   0  0  0  0  0  0  0  0  0  0  0  0
   -0.6160   -1.2220   -0.1200 C   0  0  0  0  0  0  0  0  0  0  0  0
   -0.9740   -2.5690   -0.0280 C   0  0  0  0  0  0  0  0  0  0  0  0
   -2.2820   -2.8880    0.2990 C   0  0  0  0  0  0  0  0  0  0  0  0
   -3.2050   -1.9040    0.5280 C   0  0  0  0  0  0  0  0  0  0  0  0
   -4.4000   -2.2240    0.8260 O   0  0  0  0  0  0  0  0  0  0  0  0
   -2.8190   -0.6200    0.4290 N   0  0  0  0  0  0  0  0  0  0  0  0
   -3.8140    0.3890    0.6750 C   0  0  0  0  0  0  0  0  0  0  0  0
   -4.5410    0.8260   -0.5810 C   0  0  0  0  0  0  0  0  0  0  0  0
    0.6880   -0.8680   -0.4510 C   0  0  0  0  0  0  0  0  0  0  0  0
    1.6440   -1.8200   -0.7000 O   0  0  0  0  0  0  0  0  0  0  0  0
  1  2  1  0
  2  3  2  3
  3  4  1  0
  4  5  2  3
  4  7  1  0
  5  6  1  0
  7  8  2  0
  7 20  1  0
  8  9  1  0
  8 10  1  0
 10 11  2  0
 11 12  1  0
 11 17  1  0
 12 13  1  0
 12 20  2  0
 13 14  2  0
 14 15  1  0
 15 16  2  0
 15 17  1  0
 17 18  1  0
 18 19  1  0
 20 21  1  0
M  END
