
     RDKit          3D

 24 26  0  0  0  0  0  0  0  0999 V2000
   -6.1770    1.7970   -1.0990 O   0  0  0  0  0  0  0  0  0  0  0  0
   -5.0780    1.2390   -0.8660 C   0  0  0  0  0  0  0  0  0  0  0  0
   -3.8540    1.9480   -1.1310 N   0  0  0  0  0  0  0  0  0  0  0  0
   -2.6100    1.3110   -0.8660 C   0  0  0  0  0  0  0  0  0  0  0  0
   -1.6160    2.0380   -0.6080 O   0  0  0  0  0  0  0  0  0  0  0  0
   -2.5650   -0.1670   -0.9110 C   0  0  1  0  0  0  0  0  0  0  0  0
   -1.4400   -0.5780   -0.0990 N   0  0  0  0  0  0  0  0  0  0  0  0
   -1.8290   -0.8450    1.1060 C   0  0  0  0  0  0  0  0  0  0  0  0
   -0.9340   -1.3020    2.2280 C   0  0  0  0  0  0  0  0  0  0  0  0
    0.4010   -1.3970    1.7920 O   0  0  0  0  0  0  0  0  0  0  0  0
    1.1400   -0.3470    1.2920 C   0  0  0  0  0  0  0  0  0  0  0  0
    0.5660    0.7730    1.2260 O   0  0  0  0  0  0  0  0  0  0  0  0
    2.5060   -0.4540    0.8480 C   0  0  0  0  0  0  0  0  0  0  0  0
    3.1790    0.5800    0.3740 C   0  0  0  0  0  0  0  0  0  0  0  0
    4.5760    0.5460   -0.0960 C   0  0  2  0  0  0  0  0  0  0  0  0
    4.6990    1.4750   -1.2910 C   0  0  0  0  0  0  0  0  0  0  0  0
    5.9650    1.5110   -1.8000 F   0  0  0  0  0  0  0  0  0  0  0  0
    4.9410   -0.7180   -0.4840 O   0  0  0  0  0  0  0  0  0  0  0  0
    4.5780   -1.6670    0.4030 N   0  0  0  0  0  0  0  0  0  0  0  0
    3.2210   -1.7310    0.8940 C   0  0  0  0  0  0  0  0  0  0  0  0
    2.7100   -2.7880    1.3180 O   0  0  0  0  0  0  0  0  0  0  0  0
   -3.2320   -0.6480    1.2160 N   0  0  0  0  0  0  0  0  0  0  0  0
   -3.7250   -0.7610   -0.1430 C   0  0  1  0  0  0  0  0  0  0  0  0
   -4.9630   -0.0780   -0.3470 N   0  0  0  0  0  0  0  0  0  0  0  0
  1  2  2  0
  2  3  1  0
  2 24  1  0
  3  4  1  0
  4  5  2  0
  4  6  1  0
  6  7  1  1
  6 23  1  0
  7  8  2  0
  8  9  1  0
  8 22  1  0
  9 10  1  0
 10 11  1  0
 11 12  2  0
 11 13  1  0
 13 14  2  0
 13 20  1  0
 14 15  1  0
 15 16  1  6
 15 18  1  0
 16 17  1  0
 18 19  1  0
 19 20  1  0
 20 21  2  0
 23 22  1  1
 23 24  1  0
M  END
