
     RDKit          3D

 21 23  0  0  0  0  0  0  0  0999 V2000
    1.4300    0.9380   -0.3100 C   0  0  0  0  0  0  0  0  0  0  0  0
    1.0600   -0.4100    0.1480 C   0  0  0  0  0  0  0  0  0  0  0  0
    2.0890   -1.2640    0.3470 C   0  0  0  0  0  0  0  0  0  0  0  0
    3.4830   -0.8900    0.1300 C   0  0  0  0  0  0  0  0  0  0  0  0
    4.1200    0.1830    0.5580 O   0  0  0  0  0  0  0  0  0  0  0  0
    5.3710    0.2040    0.1760 C   0  0  0  0  0  0  0  0  0  0  0  0
    6.4040    1.2460    0.4610 C   0  0  0  0  0  0  0  0  0  0  0  0
    5.6330   -0.9380   -0.5760 C   0  0  0  0  0  0  0  0  0  0  0  0
    4.4170   -1.6110   -0.5870 C   0  0  0  0  0  0  0  0  0  0  0  0
    4.1890   -3.1370   -1.4170 Cl  0  0  0  0  0  0  0  0  0  0  0  0
   -0.2580   -0.9240    0.3470 C   0  0  0  0  0  0  0  0  0  0  0  0
   -0.3370   -2.1720    0.6470 O   0  0  0  0  0  0  0  0  0  0  0  0
   -1.5340   -0.2600    0.2610 C   0  0  0  0  0  0  0  0  0  0  0  0
   -1.6250    1.0970    0.1570 C   0  0  0  0  0  0  0  0  0  0  0  0
   -2.8900    1.6620    0.0050 C   0  0  0  0  0  0  0  0  0  0  0  0
   -4.0520    0.9130   -0.0450 C   0  0  0  0  0  0  0  0  0  0  0  0
   -3.9670   -0.4580    0.0600 C   0  0  0  0  0  0  0  0  0  0  0  0
   -2.7220   -1.0200    0.2100 C   0  0  0  0  0  0  0  0  0  0  0  0
   -5.3420   -1.0550   -0.0270 C   0  0  0  0  0  0  0  0  0  0  0  0
   -6.2650    0.1290    0.1350 C   0  0  0  0  0  0  0  0  0  0  0  0
   -5.4330    1.2460   -0.2030 N   0  0  0  0  0  0  0  0  0  0  0  0
  1  2  1  0
  2  3  2  3
  2 11  1  0
  3  4  1  0
  4  5  1  0
  4  9  2  0
  5  6  1  0
  6  7  1  0
  6  8  2  0
  8  9  1  0
  9 10  1  0
 11 12  2  0
 11 13  1  0
 13 14  2  0
 13 18  1  0
 14 15  1  0
 15 16  2  0
 16 17  1  0
 16 21  1  0
 17 18  2  0
 17 19  1  0
 19 20  1  0
 20 21  1  0
M  END
