
     RDKit          3D

 21 22  0  0  0  0  0  0  0  0999 V2000
    6.7510    0.7250    0.5500 C   0  0  0  0  0  0  0  0  0  0  0  0
    5.4140    0.5350    0.4430 C   0  0  0  0  0  0  0  0  0  0  0  0
    4.6330    1.7630    0.3090 C   0  0  0  0  0  0  0  0  0  0  0  0
    4.9630   -0.8200    0.4750 C   0  0  0  0  0  0  0  0  0  0  0  0
    3.7660   -1.3090    0.3960 C   0  0  0  0  0  0  0  0  0  0  0  0
    2.5330   -0.6340    0.2530 C   0  0  0  0  0  0  0  0  0  0  0  0
    1.3050   -1.1270    0.1720 C   0  0  0  0  0  0  0  0  0  0  0  0
    0.1950   -0.1600    0.0230 C   0  0  0  0  0  0  0  0  0  0  0  0
   -1.1080   -0.5130   -0.0680 C   0  0  0  0  0  0  0  0  0  0  0  0
   -2.0440    0.5390   -0.2110 C   0  0  0  0  0  0  0  0  0  0  0  0
   -1.4960    1.7580   -0.3160 O   0  0  0  0  0  0  0  0  0  0  0  0
   -3.4440    0.5720   -0.2670 N   0  0  0  0  0  0  0  0  0  0  0  0
   -4.1450    1.8690   -0.5890 C   0  0  0  0  0  0  0  0  0  0  0  0
   -5.2620    1.7920    0.4420 C   0  0  0  0  0  0  0  0  0  0  0  0
   -5.7490    0.3790    0.2700 C   0  0  0  0  0  0  0  0  0  0  0  0
   -4.4450   -0.3760   -0.0290 C   0  0  0  0  0  0  0  0  0  0  0  0
   -1.4370   -1.9250   -0.0250 C   0  0  0  0  0  0  0  0  0  0  0  0
   -2.5990   -2.3820   -0.1090 O   0  0  0  0  0  0  0  0  0  0  0  0
   -0.3600   -2.9010    0.1200 C   0  0  0  0  0  0  0  0  0  0  0  0
    0.9180   -2.5140    0.2120 C   0  0  0  0  0  0  0  0  0  0  0  0
    2.1020   -3.7760    0.3830 Cl  0  0  0  0  0  0  0  0  0  0  0  0
  1  2  2  0
  2  3  1  0
  2  4  1  0
  4  5  2  3
  5  6  1  0
  6  7  2  3
  7  8  1  0
  7 20  1  0
  8  9  2  0
  9 10  1  0
  9 17  1  0
 10 11  2  0
 10 12  1  0
 12 13  1  0
 12 16  1  0
 13 14  1  0
 14 15  1  0
 15 16  1  0
 17 18  2  0
 17 19  1  0
 19 20  2  0
 20 21  1  0
M  END
