
     RDKit          3D

 21 23  0  0  0  0  0  0  0  0999 V2000
    0.1760   -2.0330   -2.6760 C   0  0  0  0  0  0  0  0  0  0  0  0
   -0.8980   -1.4150   -1.8770 C   0  0  0  0  0  0  0  0  0  0  0  0
   -2.1980   -1.5660   -2.3280 C   0  0  0  0  0  0  0  0  0  0  0  0
   -3.2110   -0.9980   -1.5960 C   0  0  0  0  0  0  0  0  0  0  0  0
   -4.8680   -1.1880   -2.1700 Cl  0  0  0  0  0  0  0  0  0  0  0  0
   -2.9680   -0.2900   -0.4370 C   0  0  0  0  0  0  0  0  0  0  0  0
   -3.7800    0.3670    0.4690 C   0  0  0  0  0  0  0  0  0  0  0  0
   -5.2540    0.4730    0.3940 C   0  0  0  0  0  0  0  0  0  0  0  0
   -2.9570    0.8940    1.4370 C   0  0  0  0  0  0  0  0  0  0  0  0
   -3.3710    1.7000    2.6440 C   0  0  0  0  0  0  0  0  0  0  0  0
   -1.7010    0.5580    1.1130 N   0  0  0  0  0  0  0  0  0  0  0  0
   -1.6360   -0.1640   -0.0180 C   0  0  0  0  0  0  0  0  0  0  0  0
   -0.6110   -0.7250   -0.7370 C   0  0  0  0  0  0  0  0  0  0  0  0
    0.6840   -0.5910   -0.3130 O   0  0  0  0  0  0  0  0  0  0  0  0
    1.4350    0.4930   -0.7450 C   0  0  0  0  0  0  0  0  0  0  0  0
    2.8340    0.5470   -0.2250 C   0  0  2  0  0  0  0  0  0  0  0  0
    3.6830   -0.6230   -0.5840 C   0  0  0  0  0  0  0  0  0  0  0  0
    4.8240   -0.6330    0.4330 C   0  0  0  0  0  0  0  0  0  0  0  0
    5.1670    0.6450    0.8370 O   0  0  0  0  0  0  0  0  0  0  0  0
    4.2260    1.2470    1.6430 C   0  0  0  0  0  0  0  0  0  0  0  0
    2.8650    0.6780    1.2840 C   0  0  0  0  0  0  0  0  0  0  0  0
  1  2  1  0
  2  3  2  0
  2 13  1  0
  3  4  1  0
  4  5  1  0
  4  6  2  0
  6  7  1  0
  6 12  1  0
  7  8  1  0
  7  9  2  0
  9 10  1  0
  9 11  1  0
 11 12  1  0
 12 13  2  0
 13 14  1  0
 14 15  1  0
 16 15  1  1
 16 17  1  0
 16 21  1  0
 17 18  1  0
 18 19  1  0
 19 20  1  0
 20 21  1  0
M  END
