
     RDKit          3D

 21 23  0  0  0  0  0  0  0  0999 V2000
   -1.1380   -2.9770    0.3920 C   0  0  0  0  0  0  0  0  0  0  0  0
   -1.9290   -1.7360    0.1820 C   0  0  0  0  0  0  0  0  0  0  0  0
   -3.2450   -1.8010   -0.0810 N   0  0  0  0  0  0  0  0  0  0  0  0
   -3.9920   -0.6960   -0.2780 C   0  0  0  0  0  0  0  0  0  0  0  0
   -5.2140   -0.7770   -0.5210 O   0  0  0  0  0  0  0  0  0  0  0  0
   -3.4020    0.5480   -0.2090 C   0  0  0  0  0  0  0  0  0  0  0  0
   -4.1660    1.6910   -0.4100 C   0  0  0  0  0  0  0  0  0  0  0  0
   -5.8920    1.5790   -0.7540 Cl  0  0  0  0  0  0  0  0  0  0  0  0
   -3.5780    2.9290   -0.3420 C   0  0  0  0  0  0  0  0  0  0  0  0
   -2.2070    3.0000   -0.0680 C   0  0  0  0  0  0  0  0  0  0  0  0
   -1.4540    1.8720    0.1300 C   0  0  0  0  0  0  0  0  0  0  0  0
   -2.0330    0.6300    0.0640 C   0  0  0  0  0  0  0  0  0  0  0  0
   -1.3030   -0.5230    0.2590 C   0  0  0  0  0  0  0  0  0  0  0  0
    0.1220   -0.4220    0.5420 C   0  0  0  0  0  0  0  0  0  0  0  0
    0.4580   -0.3380    1.7520 O   0  0  0  0  0  0  0  0  0  0  0  0
    1.1230   -0.4190   -0.5310 C   0  0  0  0  0  0  0  0  0  0  0  0
    2.4100   -0.3270   -0.2510 C   0  0  0  0  0  0  0  0  0  0  0  0
    3.5110   -0.3140   -1.2430 C   0  0  0  0  0  0  0  0  0  0  0  0
    4.4640    0.6990   -0.5950 C   0  0  0  0  0  0  0  0  0  0  0  0
    4.4880    0.1770    0.8270 C   0  0  0  0  0  0  0  0  0  0  0  0
    3.0400   -0.2180    1.0840 C   0  0  0  0  0  0  0  0  0  0  0  0
  1  2  1  0
  2  3  1  0
  2 13  2  0
  3  4  1  0
  4  5  2  0
  4  6  1  0
  6  7  2  0
  6 12  1  0
  7  8  1  0
  7  9  1  0
  9 10  2  0
 10 11  1  0
 11 12  2  0
 12 13  1  0
 13 14  1  0
 14 15  2  0
 14 16  1  0
 16 17  2  3
 17 18  1  0
 17 21  1  0
 18 19  1  0
 19 20  1  0
 20 21  1  0
M  END
