
     RDKit          3D

 25 27  0  0  0  0  0  0  0  0999 V2000
   -5.0950   -1.2090   -1.8780 C   0  0  0  0  0  0  0  0  0  0  0  0
   -4.2210   -0.4730   -0.9360 C   0  0  0  0  0  0  0  0  0  0  0  0
   -2.9280   -0.1390   -1.1990 C   0  0  0  0  0  0  0  0  0  0  0  0
   -2.1380    0.5460   -0.3030 C   0  0  0  0  0  0  0  0  0  0  0  0
   -0.7550    0.9060   -0.5760 C   0  0  0  0  0  0  0  0  0  0  0  0
   -0.0600    1.5380    0.2740 O   0  0  0  0  0  0  0  0  0  0  0  0
   -0.0830    0.5900   -1.7890 N   0  0  0  0  0  0  0  0  0  0  0  0
    1.2920    0.9590   -2.0360 C   0  0  0  0  0  0  0  0  0  0  0  0
    2.2010    0.3470   -1.0200 C   0  0  0  0  0  0  0  0  0  0  0  0
    3.5340    0.4760   -0.9460 N   0  0  0  0  0  0  0  0  0  0  0  0
    3.9840   -0.2300    0.1130 C   0  0  0  0  0  0  0  0  0  0  0  0
    5.2970   -0.4140    0.6150 C   0  0  0  0  0  0  0  0  0  0  0  0
    5.8950   -1.0800    1.6450 C   0  0  0  0  0  0  0  0  0  0  0  0
    7.2100   -1.0270    1.8220 C   0  0  0  0  0  0  0  0  0  0  0  0
    7.9750   -0.3010    0.9680 C   0  0  0  0  0  0  0  0  0  0  0  0
    9.9000    0.0010    0.9180 Br  0  0  0  0  0  0  0  0  0  0  0  0
    6.7490    0.3590   -0.1730 S   0  0  0  0  0  0  0  0  0  0  0  0
    2.8900   -0.7820    0.6640 N   0  0  0  0  0  0  0  0  0  0  0  0
    1.8550   -0.4270   -0.0210 O   0  0  0  0  0  0  0  0  0  0  0  0
   -2.6860    0.9030    0.9000 C   0  0  0  0  0  0  0  0  0  0  0  0
   -4.0250    0.5760    1.2130 C   0  0  0  0  0  0  0  0  0  0  0  0
   -4.5410    0.9830    2.5030 C   0  0  0  0  0  0  0  0  0  0  0  0
   -5.6730    0.7800    2.9280 O   0  0  0  0  0  0  0  0  0  0  0  0
   -4.7770   -0.1030    0.3030 C   0  0  0  0  0  0  0  0  0  0  0  0
   -6.0780   -0.4540    0.5340 O   0  0  0  0  0  0  0  0  0  0  0  0
  1  2  1  0
  2  3  2  0
  2 24  1  0
  3  4  1  0
  4  5  1  0
  4 20  2  0
  5  6  2  0
  5  7  1  0
  7  8  1  0
  8  9  1  0
  9 10  2  0
  9 19  1  0
 10 11  1  0
 11 12  1  0
 11 18  2  0
 12 13  2  0
 12 17  1  0
 13 14  1  0
 14 15  2  0
 15 16  1  0
 15 17  1  0
 18 19  1  0
 20 21  1  0
 21 22  1  0
 21 24  2  0
 22 23  2  0
 24 25  1  0
M  END
