
     RDKit          3D

 21 21  0  0  0  0  0  0  0  0999 V2000
   -7.6410   -1.1380    0.6750 C   0  0  0  0  0  0  0  0  0  0  0  0
   -6.6940   -0.3910    0.0790 C   0  0  0  0  0  0  0  0  0  0  0  0
   -5.3590   -0.3290    0.6460 C   0  0  0  0  0  0  0  0  0  0  0  0
   -4.4180    0.4480    0.1630 C   0  0  0  0  0  0  0  0  0  0  0  0
   -3.1250    0.4910    0.7400 N   0  0  0  0  0  0  0  0  0  0  0  0
   -1.9890    0.1440   -0.0430 C   0  0  0  0  0  0  0  0  0  0  0  0
   -2.1820   -0.1940   -1.2420 O   0  0  0  0  0  0  0  0  0  0  0  0
   -0.6740    0.1740    0.5000 N   0  0  0  0  0  0  0  0  0  0  0  0
    0.4940   -0.1620   -0.2690 C   0  0  0  0  0  0  0  0  0  0  0  0
    1.7150   -0.0430    0.6010 C   0  0  0  0  0  0  0  0  0  0  0  0
    2.9320   -0.3710   -0.1860 C   0  0  0  0  0  0  0  0  0  0  0  0
    2.8290   -0.6250   -1.4130 O   0  0  0  0  0  0  0  0  0  0  0  0
    4.1910   -0.3910    0.4700 N   0  0  0  0  0  0  0  0  0  0  0  0
    5.3340   -0.6910   -0.2530 N   0  0  0  0  0  0  0  0  0  0  0  0
    6.5140   -0.7980    0.5410 C   0  0  2  0  0  0  0  0  0  0  0  0
    6.6740    0.5090    1.3010 C   0  0  0  0  0  0  0  0  0  0  0  0
    7.6820   -0.9780   -0.4380 C   0  0  0  0  0  0  0  0  0  0  0  0
   -4.7490    1.2370   -1.0080 C   0  0  0  0  0  0  0  0  0  0  0  0
   -3.8050    2.1050   -1.5970 O   0  0  0  0  0  0  0  0  0  0  0  0
   -5.9300    1.1980   -1.5890 C   0  0  0  0  0  0  0  0  0  0  0  0
   -7.0440    0.3610   -1.1350 C   0  0  0  0  0  0  0  0  0  0  0  0
  1  2  2  0
  2  3  1  0
  2 21  1  0
  3  4  2  0
  4  5  1  0
  4 18  1  0
  5  6  1  0
  6  7  2  0
  6  8  1  0
  8  9  1  0
  9 10  1  0
 10 11  1  0
 11 12  2  0
 11 13  1  0
 13 14  1  0
 14 15  1  0
 15 16  1  6
 15 17  1  0
 18 19  1  0
 18 20  2  0
 20 21  1  0
M  END
