
     RDKit          3D

 25 26  0  0  0  0  0  0  0  0999 V2000
    5.1250    4.2980   -0.3520 C   0  0  0  0  0  0  0  0  0  0  0  0
    4.3530    3.8150   -1.5460 C   0  0  0  0  0  0  0  0  0  0  0  0
    3.0400    3.4230   -1.3190 O   0  0  0  0  0  0  0  0  0  0  0  0
    2.6880    2.4200   -0.3650 C   0  0  0  0  0  0  0  0  0  0  0  0
    3.6440    1.9350    0.2230 O   0  0  0  0  0  0  0  0  0  0  0  0
    1.3570    2.0700   -0.1550 N   0  0  0  0  0  0  0  0  0  0  0  0
    0.7100    1.2260    0.6940 C   0  0  0  0  0  0  0  0  0  0  0  0
    1.0640    0.4580    1.6360 C   0  0  0  0  0  0  0  0  0  0  0  0
    2.5150    0.3970    1.9940 C   0  0  0  0  0  0  0  0  0  0  0  0
    3.5790    0.3530    2.2740 N   0  0  0  0  0  0  0  0  0  0  0  0
    0.2840   -0.5300    2.2770 N   0  0  0  0  0  0  0  0  0  0  0  0
   -1.0770   -0.8570    1.9160 C   0  0  0  0  0  0  0  0  0  0  0  0
   -1.6760   -1.7100    2.5890 O   0  0  0  0  0  0  0  0  0  0  0  0
   -1.7440   -0.2240    0.8290 C   0  0  0  0  0  0  0  0  0  0  0  0
   -2.6000   -0.7600   -0.0400 C   0  0  0  0  0  0  0  0  0  0  0  0
   -3.2240    0.0630   -1.1280 C   0  0  0  0  0  0  0  0  0  0  0  0
   -3.9340   -0.7140   -1.9230 C   0  0  0  0  0  0  0  0  0  0  0  0
   -3.8680   -2.0180   -1.4830 C   0  0  0  0  0  0  0  0  0  0  0  0
   -4.4210   -3.0450   -1.9860 O   0  0  0  0  0  0  0  0  0  0  0  0
   -3.0040   -2.1100   -0.2460 C   0  0  0  0  0  0  0  0  0  0  0  0
   -2.8200   -3.2650    0.3590 C   0  0  0  0  0  0  0  0  0  0  0  0
   -3.3670   -4.4860   -0.0980 C   0  0  0  0  0  0  0  0  0  0  0  0
   -3.0680   -5.5880    0.7720 C   0  0  0  0  0  0  0  0  0  0  0  0
   -2.0360   -5.1310    2.2900 Br  0  0  0  0  0  0  0  0  0  0  0  0
   -1.1780    1.4450    0.4980 S   0  0  0  0  0  0  0  0  0  0  0  0
  1  2  1  0
  2  3  1  0
  3  4  1  0
  4  5  2  0
  4  6  1  0
  6  7  1  0
  7  8  2  0
  7 25  1  0
  8  9  1  0
  8 11  1  0
  9 10  3  0
 11 12  1  0
 12 13  2  0
 12 14  1  0
 14 15  2  3
 14 25  1  0
 15 16  1  0
 15 20  1  0
 16 17  2  0
 17 18  1  0
 18 19  2  0
 18 20  1  0
 20 21  2  3
 21 22  1  0
 22 23  2  3
 23 24  1  0
M  END
