
     RDKit          3D

 26 29  0  0  0  0  0  0  0  0999 V2000
    0.2790   -2.1490    1.3470 O   0  0  0  0  0  0  0  0  0  0  0  0
    0.1270   -1.6840    0.1920 C   0  0  0  0  0  0  0  0  0  0  0  0
   -0.0110   -2.5380   -0.8840 O   0  0  0  0  0  0  0  0  0  0  0  0
    0.0940   -0.2480   -0.0420 C   0  0  0  0  0  0  0  0  0  0  0  0
   -1.0780    0.4920    0.0040 C   0  0  0  0  0  0  0  0  0  0  0  0
   -2.3420   -0.0890    0.2670 N   0  0  0  0  0  0  0  0  0  0  0  0
   -3.0400   -0.9770   -0.6020 C   0  0  0  0  0  0  0  0  0  0  0  0
   -3.7540   -2.0570    0.1840 C   0  0  0  0  0  0  0  0  0  0  0  0
   -4.6820   -1.4730    1.2210 C   0  0  0  0  0  0  0  0  0  0  0  0
   -4.4690    0.0060    1.4220 C   0  0  0  0  0  0  0  0  0  0  0  0
   -2.9830    0.2510    1.5420 C   0  0  0  0  0  0  0  0  0  0  0  0
   -0.9680    1.8280   -0.2260 N   0  0  0  0  0  0  0  0  0  0  0  0
    0.1840    2.4540   -0.4900 C   0  0  0  0  0  0  0  0  0  0  0  0
    0.2510    3.8170   -0.7190 C   0  0  0  0  0  0  0  0  0  0  0  0
    1.4400    4.4580   -0.9900 C   0  0  0  0  0  0  0  0  0  0  0  0
    2.6150    3.7310   -1.0380 C   0  0  0  0  0  0  0  0  0  0  0  0
    4.1540    4.5040   -1.3800 Cl  0  0  0  0  0  0  0  0  0  0  0  0
    2.5440    2.3670   -0.8080 C   0  0  0  0  0  0  0  0  0  0  0  0
    1.3520    1.7320   -0.5380 C   0  0  0  0  0  0  0  0  0  0  0  0
    1.3220    0.3710   -0.3150 C   0  0  0  0  0  0  0  0  0  0  0  0
    2.5720   -0.4000   -0.3670 C   0  0  0  0  0  0  0  0  0  0  0  0
    2.9400   -1.1430   -1.4680 C   0  0  0  0  0  0  0  0  0  0  0  0
    4.1340   -1.8610   -1.4990 C   0  0  0  0  0  0  0  0  0  0  0  0
    4.9840   -1.8510   -0.4250 C   0  0  0  0  0  0  0  0  0  0  0  0
    4.6360   -1.1210    0.6720 C   0  0  0  0  0  0  0  0  0  0  0  0
    3.4600   -0.4130    0.7030 C   0  0  0  0  0  0  0  0  0  0  0  0
  1  2  2  0
  2  3  1  0
  2  4  1  0
  4  5  2  0
  4 20  1  0
  5  6  1  0
  5 12  1  0
  6  7  1  0
  6 11  1  0
  7  8  1  0
  8  9  1  0
  9 10  1  0
 10 11  1  0
 12 13  2  0
 13 14  1  0
 13 19  1  0
 14 15  2  0
 15 16  1  0
 16 17  1  0
 16 18  2  0
 18 19  1  0
 19 20  2  0
 20 21  1  0
 21 22  2  0
 21 26  1  0
 22 23  1  0
 23 24  2  0
 24 25  1  0
 25 26  2  0
M  END
