
     RDKit          3D

 21 22  0  0  0  0  0  0  0  0999 V2000
   -2.7630    0.1220    2.7260 C   0  0  0  0  0  0  0  0  0  0  0  0
   -3.6980    0.2440    1.8400 C   0  0  0  0  0  0  0  0  0  0  0  0
   -5.0620    0.4570    2.3570 N   0  0  0  0  0  0  0  0  0  0  0  0
   -6.1260    0.5980    1.4580 C   0  0  0  0  0  0  0  0  0  0  0  0
   -5.9000    0.5400    0.1690 C   0  0  0  0  0  0  0  0  0  0  0  0
   -4.5850    0.3330   -0.3960 C   0  0  0  0  0  0  0  0  0  0  0  0
   -4.4320    0.2820   -1.8560 C   0  0  0  0  0  0  0  0  0  0  0  0
   -3.4870    0.1850    0.4110 C   0  0  0  0  0  0  0  0  0  0  0  0
   -2.3170   -0.0050   -0.3070 N   0  0  0  0  0  0  0  0  0  0  0  0
   -0.9840   -0.1970    0.0600 C   0  0  0  0  0  0  0  0  0  0  0  0
   -0.5890   -0.2320    1.2030 O   0  0  0  0  0  0  0  0  0  0  0  0
    0.0420   -0.3720   -0.9540 N   0  0  0  0  0  0  0  0  0  0  0  0
    1.4170   -0.5680   -0.5040 C   0  0  0  0  0  0  0  0  0  0  0  0
    2.3030   -0.7270   -1.7270 C   0  0  2  0  0  0  0  0  0  0  0  0
    1.8950   -1.8170   -2.4690 O   0  0  0  0  0  0  0  0  0  0  0  0
    3.6940   -0.9340   -1.2340 C   0  0  0  0  0  0  0  0  0  0  0  0
    4.2980   -1.9780   -1.5150 O   0  0  0  0  0  0  0  0  0  0  0  0
    4.3330    0.0590   -0.4420 N   0  0  0  0  0  0  0  0  0  0  0  0
    5.6850   -0.1760    0.0200 C   0  0  2  0  0  0  0  0  0  0  0  0
    6.1160    0.4900    1.2950 C   0  0  0  0  0  0  0  0  0  0  0  0
    6.5680    1.0600   -0.0300 C   0  0  0  0  0  0  0  0  0  0  0  0
  1  2  2  0
  2  3  1  0
  2  8  1  0
  3  4  1  0
  4  5  2  0
  5  6  1  0
  6  7  1  0
  6  8  2  0
  8  9  1  0
  9 10  1  0
 10 11  2  0
 10 12  1  0
 12 13  1  0
 13 14  1  0
 14 15  1  1
 14 16  1  0
 16 17  2  0
 16 18  1  0
 19 18  1  6
 19 20  1  0
 19 21  1  0
 20 21  1  0
M  END
