
     RDKit          3D

 21 21  0  0  0  0  0  0  0  0999 V2000
   -3.1160    0.1490   -2.0780 C   0  0  0  0  0  0  0  0  0  0  0  0
   -2.4360   -0.5760   -1.0050 C   0  0  0  0  0  0  0  0  0  0  0  0
   -2.2000   -1.8820   -1.1810 C   0  0  0  0  0  0  0  0  0  0  0  0
   -2.5440   -2.6970   -2.3360 C   0  0  0  0  0  0  0  0  0  0  0  0
   -3.4090   -3.7740   -1.8450 N   0  0  0  0  0  0  0  0  0  0  0  0
   -1.9360    0.0080    0.2500 C   0  0  0  0  0  0  0  0  0  0  0  0
   -1.2170   -0.7640    1.1390 O   0  0  0  0  0  0  0  0  0  0  0  0
    0.0680   -1.1720    1.2380 C   0  0  0  0  0  0  0  0  0  0  0  0
    1.1800   -0.1830    1.3330 C   0  0  0  0  0  0  0  0  0  0  0  0
    1.3960    0.7180    0.1800 C   0  0  0  0  0  0  0  0  0  0  0  0
    2.5660    1.6380    0.4950 C   0  0  0  0  0  0  0  0  0  0  0  0
    3.7960    0.9390    0.7520 N   0  0  0  0  0  0  0  0  0  0  0  0
    4.6770    0.5830   -0.1540 N   0  0  0  0  0  0  0  0  0  0  0  0
    5.7060   -0.0570    0.4170 C   0  0  0  0  0  0  0  0  0  0  0  0
    6.6970   -0.5110   -0.2110 O   0  0  0  0  0  0  0  0  0  0  0  0
    5.4220   -0.0830    1.7290 N   0  0  0  0  0  0  0  0  0  0  0  0
    4.2270    0.5400    1.9410 C   0  0  0  0  0  0  0  0  0  0  0  0
    3.7220    0.6570    3.1000 O   0  0  0  0  0  0  0  0  0  0  0  0
   -2.1290    1.2590    0.5970 C   0  0  0  0  0  0  0  0  0  0  0  0
   -1.5260    1.6820    1.9470 C   0  0  0  0  0  0  0  0  0  0  0  0
   -2.8580    2.3320   -0.0820 C   0  0  0  0  0  0  0  0  0  0  0  0
  1  2  1  0
  2  3  2  3
  2  6  1  0
  3  4  1  0
  4  5  1  0
  6  7  1  0
  6 19  2  3
  7  8  1  0
  8  9  1  0
  9 10  1  0
 10 11  1  0
 11 12  1  0
 12 13  1  0
 12 17  1  0
 13 14  1  0
 14 15  2  0
 14 16  1  0
 16 17  1  0
 17 18  2  0
 19 20  1  0
 19 21  1  0
M  END
