
     RDKit          3D

  9  8  0  0  0  0  0  0  0  0999 V2000
   -1.8620    0.7140   -1.0330 O   0  0  0  0  0  0  0  0  0  0  0  0
   -2.3010   -0.0570   -0.1240 C   0  0  0  0  0  0  0  0  0  0  0  0
   -3.6790   -0.0700    0.1550 O   0  0  0  0  0  0  0  0  0  0  0  0
   -1.3740   -0.8650    0.5620 N   0  0  0  0  0  0  0  0  0  0  0  0
    0.0250   -0.8150    0.2410 C   0  0  0  0  0  0  0  0  0  0  0  0
    0.4680    0.4870    0.4580 O   0  0  0  0  0  0  0  0  0  0  0  0
    2.1360    0.7000    0.1120 P   0  0  0  0  0  0  0  0  0  0  0  0
    2.8330   -0.6310   -0.7120 O   0  0  0  0  0  0  0  0  0  0  0  0
    2.4160    2.2030   -0.7040 O   0  0  0  0  0  0  0  0  0  0  0  0
  1  2  2  0
  2  3  1  0
  2  4  1  0
  4  5  1  0
  5  6  1  0
  6  7  1  0
  7  8  1  0
  7  9  1  0
M  END
