
     RDKit          3D

  8  7  0  0  0  0  0  0  0  0999 V2000
    3.1070   -0.3210   -0.0670 N   0  0  0  0  0  0  0  0  0  0  0  0
    2.3310   -0.3790    1.0190 O   0  0  0  0  0  0  0  0  0  0  0  0
    1.3880    0.5180    1.0430 O   0  0  0  0  0  0  0  0  0  0  0  0
    0.3050    0.1010    0.2790 C   0  0  0  0  0  0  0  0  0  0  0  0
   -0.6820    1.0820    0.3280 O   0  0  0  0  0  0  0  0  0  0  0  0
   -2.0140    0.4960   -0.6510 P   0  0  0  0  0  0  0  0  0  0  0  0
   -2.1640   -1.2140   -0.3380 O   0  0  0  0  0  0  0  0  0  0  0  0
   -3.4350    1.3430   -0.0620 O   0  0  0  0  0  0  0  0  0  0  0  0
  1  2  1  0
  2  3  1  0
  3  4  1  0
  4  5  1  0
  5  6  1  0
  6  7  1  0
  6  8  1  0
M  END
