
     RDKit          3D

 20 21  0  0  0  0  0  0  0  0999 V2000
    3.3780    1.2140    0.0890 O   0  0  0  0  0  0  0  0  0  0  0  0
    2.9800    0.0750   -0.2190 C   0  0  0  0  0  0  0  0  0  0  0  0
    3.8980   -0.8050   -0.8600 N   0  0  0  0  0  0  0  0  0  0  0  0
    5.2430   -0.4470   -1.1630 C   0  0  0  0  0  0  0  0  0  0  0  0
    6.0710   -0.0800    0.0460 C   0  0  0  0  0  0  0  0  0  0  0  0
    7.3570    0.2400   -0.4500 O   0  0  0  0  0  0  0  0  0  0  0  0
    1.6720   -0.2620    0.0800 O   0  0  0  0  0  0  0  0  0  0  0  0
    0.8490    0.6710    0.7100 C   0  0  1  0  0  0  0  0  0  0  0  0
   -0.3510    0.8140   -0.0250 O   0  0  0  0  0  0  0  0  0  0  0  0
   -1.0230   -0.3700    0.1140 C   0  0  2  0  0  0  0  0  0  0  0  0
   -2.5430   -0.1740    0.0820 C   0  0  0  0  0  0  0  0  0  0  0  0
   -2.9270    0.7410    1.0590 O   0  0  0  0  0  0  0  0  0  0  0  0
   -4.6110    1.0220    1.0950 P   0  0  0  0  0  0  0  0  0  0  0  0
   -5.5860   -0.5670    0.7860 C   0  0  0  0  0  0  0  0  0  0  0  0
   -5.9120   -0.2980   -0.5660 O   0  0  0  0  0  0  0  0  0  0  0  0
   -6.3040    1.0140   -0.6330 C   0  0  0  0  0  0  0  0  0  0  0  0
   -5.1710    1.8240   -0.3740 O   0  0  0  0  0  0  0  0  0  0  0  0
   -0.7090   -0.8690    1.4430 N   0  0  0  0  0  0  0  0  0  0  0  0
    0.2990    0.0070    1.9440 C   0  0  0  0  0  0  0  0  0  0  0  0
    0.6280    0.1650    3.1350 O   0  0  0  0  0  0  0  0  0  0  0  0
  1  2  2  0
  2  3  1  0
  2  7  1  0
  3  4  1  0
  4  5  1  0
  5  6  1  0
  8  7  1  6
  8  9  1  0
  8 19  1  0
  9 10  1  0
 10 11  1  1
 10 18  1  0
 11 12  1  0
 12 13  1  0
 13 14  1  0
 13 17  1  0
 14 15  1  0
 15 16  1  0
 16 17  1  0
 18 19  1  0
 19 20  2  0
M  END
