
     RDKit          3D

  9  8  0  0  0  0  0  0  0  0999 V2000
   -3.0700   -1.2300    0.7070 N   0  0  0  0  0  0  0  0  0  0  0  0
   -1.8240   -0.6810    0.7160 O   0  0  0  0  0  0  0  0  0  0  0  0
   -1.8440    0.3520   -0.2150 C   0  0  0  0  0  0  0  0  0  0  0  0
   -0.4950    1.0340   -0.2850 C   0  0  0  0  0  0  0  0  0  0  0  0
    0.4350    0.0680   -0.6640 O   0  0  0  0  0  0  0  0  0  0  0  0
    1.6310    0.5970   -0.7430 O   0  0  0  0  0  0  0  0  0  0  0  0
    2.6810   -0.2160    0.3410 P   0  0  0  0  0  0  0  0  0  0  0  0
    4.0350    0.7900    0.7620 O   0  0  0  0  0  0  0  0  0  0  0  0
    3.2120   -1.7470   -0.2770 O   0  0  0  0  0  0  0  0  0  0  0  0
  1  2  1  0
  2  3  1  0
  3  4  1  0
  4  5  1  0
  5  6  1  0
  6  7  1  0
  7  8  1  0
  7  9  1  0
M  END
