
     RDKit          3D

  8  7  0  0  0  0  0  0  0  0999 V2000
   -2.0770    1.0470   -0.6590 C   0  0  0  0  0  0  0  0  0  0  0  0
   -1.2480   -0.2320   -0.5420 C   0  0  2  0  0  0  0  0  0  0  0  0
   -1.8160   -1.1670    0.3830 N   0  0  0  0  0  0  0  0  0  0  0  0
    0.0620    0.0370   -0.2250 O   0  0  0  0  0  0  0  0  0  0  0  0
    0.8490   -0.3460   -1.1780 O   0  0  0  0  0  0  0  0  0  0  0  0
    2.5140   -0.1670   -0.8730 P   0  0  0  0  0  0  0  0  0  0  0  0
    2.9510    1.2940   -0.1030 O   0  0  0  0  0  0  0  0  0  0  0  0
    3.2320   -1.5660   -0.1520 O   0  0  0  0  0  0  0  0  0  0  0  0
  2  1  1  1
  2  3  1  0
  2  4  1  0
  4  5  1  0
  5  6  1  0
  6  7  1  0
  6  8  1  0
M  END
