
     RDKit          3D

 28 29  0  0  0  0  0  0  0  0999 V2000
    7.3910    1.6730    2.6020 O   0  0  0  0  0  0  0  0  0  0  0  0
    6.5120    1.3700    1.7340 C   0  0  0  0  0  0  0  0  0  0  0  0
    5.2580    1.9360    1.7280 C   0  0  0  0  0  0  0  0  0  0  0  0
    4.3500    1.5550    0.7470 C   0  0  0  0  0  0  0  0  0  0  0  0
    4.6650    0.6480   -0.1960 N   0  0  0  0  0  0  0  0  0  0  0  0
    3.7490    0.2230   -1.2360 C   0  0  1  0  0  0  0  0  0  0  0  0
    3.6270   -1.2760   -1.1520 C   0  0  0  0  0  0  0  0  0  0  0  0
    2.1300   -1.4620   -1.0120 C   0  0  2  0  0  0  0  0  0  0  0  0
    1.6910   -2.6110   -1.6650 O   0  0  0  0  0  0  0  0  0  0  0  0
    1.6310   -0.1980   -1.6800 C   0  0  1  0  0  0  0  0  0  0  0  0
    0.1920    0.0900   -1.3300 C   0  0  0  0  0  0  0  0  0  0  0  0
   -0.0090    0.0610    0.0220 O   0  0  0  0  0  0  0  0  0  0  0  0
   -1.5270    0.3550    0.5500 P   0  0  0  0  0  0  0  0  0  0  0  0
   -2.2270   -0.6330    1.7210 O   0  0  0  0  0  0  0  0  0  0  0  0
   -2.2620    1.7900    0.2310 O   0  0  0  0  0  0  0  0  0  0  0  0
   -2.3300   -0.4660   -0.5540 N   0  0  0  0  0  0  0  0  0  0  0  0
   -3.9260   -0.4310   -0.8320 P   0  0  0  0  0  0  0  0  0  0  0  0
   -3.9460    1.2050   -0.9410 O   0  0  0  0  0  0  0  0  0  0  0  0
   -4.0560   -1.1330    0.6780 O   0  0  0  0  0  0  0  0  0  0  0  0
   -5.4690   -0.4030   -0.7600 O   0  0  0  0  0  0  0  0  0  0  0  0
   -6.3490    0.1980    0.3510 P   0  0  0  0  0  0  0  0  0  0  0  0
   -7.4200    0.5800    1.3930 O   0  0  0  0  0  0  0  0  0  0  0  0
   -6.7110   -1.4100    0.7000 O   0  0  0  0  0  0  0  0  0  0  0  0
   -5.1040    0.9360    1.0850 O   0  0  0  0  0  0  0  0  0  0  0  0
    2.4950    0.7560   -1.1000 O   0  0  0  0  0  0  0  0  0  0  0  0
    5.8970    0.1080   -0.1710 C   0  0  0  0  0  0  0  0  0  0  0  0
    6.2700   -0.7450   -1.0160 O   0  0  0  0  0  0  0  0  0  0  0  0
    6.8090    0.4590    0.7750 N   0  0  0  0  0  0  0  0  0  0  0  0
  1  2  2  0
  2  3  1  0
  2 28  1  0
  3  4  2  0
  4  5  1  0
  6  5  1  1
  5 26  1  0
  6  7  1  0
  6 25  1  0
  7  8  1  0
  8  9  1  6
  8 10  1  0
 10 11  1  1
 10 25  1  0
 11 12  1  0
 12 13  1  0
 13 14  1  0
 13 15  1  0
 13 16  1  0
 16 17  1  0
 17 18  1  0
 17 19  1  0
 17 20  1  0
 20 21  1  0
 21 22  1  0
 21 23  1  0
 21 24  1  0
 26 27  2  0
 26 28  1  0
M  END
