
     RDKit          3D

  9  8  0  0  0  0  0  0  0  0999 V2000
    1.9710   -0.3370    1.5590 O   0  0  0  0  0  0  0  0  0  0  0  0
    1.8120   -0.2730    0.3120 C   0  0  0  0  0  0  0  0  0  0  0  0
    0.5090   -0.0990   -0.1860 N   0  0  0  0  0  0  0  0  0  0  0  0
   -0.6660    0.0100    0.6630 C   0  0  0  0  0  0  0  0  0  0  0  0
   -2.2080    0.2300   -0.3280 P   0  0  0  0  0  0  0  0  0  0  0  0
   -3.4430   -0.9040    0.1190 O   0  0  0  0  0  0  0  0  0  0  0  0
   -2.8820    1.8290   -0.1100 O   0  0  0  0  0  0  0  0  0  0  0  0
    2.9430   -0.3790   -0.4740 O   0  0  0  0  0  0  0  0  0  0  0  0
    4.1570   -0.5440    0.0940 O   0  0  0  0  0  0  0  0  0  0  0  0
  1  2  2  0
  2  3  1  0
  2  8  1  0
  3  4  1  0
  4  5  1  0
  5  6  1  0
  5  7  1  0
  8  9  1  0
M  END
