
     RDKit          3D

  9  8  0  0  0  0  0  0  0  0999 V2000
   -2.9560    0.5370   -0.3970 O   0  0  0  0  0  0  0  0  0  0  0  0
   -2.2200    0.1940    0.6680 N   0  0  0  0  0  0  0  0  0  0  0  0
   -1.8150   -1.1820    0.6920 C   0  0  0  0  0  0  0  0  0  0  0  0
   -0.4610   -1.3750    0.8880 O   0  0  0  0  0  0  0  0  0  0  0  0
    0.3300   -0.8070   -0.0890 C   0  0  0  0  0  0  0  0  0  0  0  0
    1.6640   -0.9970    0.2580 O   0  0  0  0  0  0  0  0  0  0  0  0
    2.5390    0.3200   -0.4830 P   0  0  0  0  0  0  0  0  0  0  0  0
    1.7830    1.7880    0.0850 O   0  0  0  0  0  0  0  0  0  0  0  0
    4.2060    0.3070   -0.0420 O   0  0  0  0  0  0  0  0  0  0  0  0
  1  2  1  0
  2  3  1  0
  3  4  1  0
  4  5  1  0
  5  6  1  0
  6  7  1  0
  7  8  1  0
  7  9  1  0
M  END
