
     RDKit          3D

  9  8  0  0  0  0  0  0  0  0999 V2000
   -3.6630    0.3160    0.2340 O   0  0  0  0  0  0  0  0  0  0  0  0
   -3.0110   -0.4230   -0.5650 C   0  0  0  0  0  0  0  0  0  0  0  0
   -1.7140   -0.1070   -0.8010 O   0  0  0  0  0  0  0  0  0  0  0  0
   -0.9960    0.9340   -0.3120 N   0  0  0  0  0  0  0  0  0  0  0  0
    0.0360    0.3570    0.5380 C   0  0  0  0  0  0  0  0  0  0  0  0
    1.6890    0.5750   -0.2770 P   0  0  0  0  0  0  0  0  0  0  0  0
    2.7620    1.5130    0.6860 O   0  0  0  0  0  0  0  0  0  0  0  0
    2.3260   -0.9260   -0.8130 O   0  0  0  0  0  0  0  0  0  0  0  0
    1.7590   -1.9530   -0.2200 O   0  0  0  0  0  0  0  0  0  0  0  0
  1  2  2  0
  2  3  1  0
  3  4  1  0
  4  5  1  0
  5  6  1  0
  6  7  1  0
  6  8  1  0
  8  9  1  0
M  END
