
     RDKit          3D

  9  8  0  0  0  0  0  0  0  0999 V2000
    3.0500   -0.2710    0.9550 C   0  0  0  0  0  0  0  0  0  0  0  0
    2.1040    0.6900    0.5750 O   0  0  0  0  0  0  0  0  0  0  0  0
    1.2370    0.1940   -0.3800 C   0  0  2  0  0  0  0  0  0  0  0  0
    1.3920    0.9660   -1.5320 O   0  0  0  0  0  0  0  0  0  0  0  0
   -0.1980    0.3150    0.0840 C   0  0  0  0  0  0  0  0  0  0  0  0
   -1.1280   -0.2350   -0.9780 C   0  0  1  0  0  0  0  0  0  0  0  0
   -0.8370   -1.5760   -1.2160 O   0  0  0  0  0  0  0  0  0  0  0  0
   -2.5600   -0.1390   -0.4800 C   0  0  0  0  0  0  0  0  0  0  0  0
   -2.9190    1.1750   -0.2220 O   0  0  0  0  0  0  0  0  0  0  0  0
  1  2  1  0
  2  3  1  0
  3  4  1  6
  3  5  1  0
  5  6  1  0
  6  7  1  1
  6  8  1  0
  8  9  1  0
M  END
