
     RDKit          3D

 20 19  0  0  0  0  0  0  0  0999 V2000
   -2.8340    3.6160    1.1500 C   0  0  0  0  0  0  0  0  0  0  0  0
   -1.8100    2.6650    0.8790 O   0  0  0  0  0  0  0  0  0  0  0  0
   -2.0880    1.4480    0.2270 C   0  0  0  0  0  0  0  0  0  0  0  0
   -3.2890    1.2990   -0.0770 O   0  0  0  0  0  0  0  0  0  0  0  0
   -1.0560    0.4850   -0.0490 C   0  0  0  0  0  0  0  0  0  0  0  0
   -1.1610   -0.6690   -0.6380 C   0  0  0  0  0  0  0  0  0  0  0  0
   -2.2900   -1.3520   -1.1900 C   0  0  0  0  0  0  0  0  0  0  0  0
   -3.5560   -0.8450   -1.1830 O   0  0  0  0  0  0  0  0  0  0  0  0
   -2.1150   -2.5500   -1.7460 C   0  0  0  0  0  0  0  0  0  0  0  0
   -3.1490   -3.2270   -2.2770 F   0  0  0  0  0  0  0  0  0  0  0  0
    0.6170    0.9640    0.4980 S   0  0  0  0  0  0  0  0  0  0  0  0
    1.8120   -0.3480    0.1360 C   0  0  2  0  0  0  0  0  0  0  0  0
    1.5200   -1.4810    0.9530 N   0  0  0  0  0  0  0  0  0  0  0  0
    3.4280    0.3300    0.4690 S   0  0  2  0  0  0  0  0  0  0  0  0
    3.4750    0.7130    1.9160 O   0  0  0  0  0  0  0  0  0  0  0  0
    3.5960    1.5720   -0.3400 O   0  0  0  0  0  0  0  0  0  0  0  0
    4.6930   -0.8620    0.0890 C   0  0  1  0  0  0  0  0  0  0  0  0
    4.6230   -1.2080   -1.2360 F   0  0  0  0  0  0  0  0  0  0  0  0
    5.9130   -0.2060    0.2840 F   0  0  0  0  0  0  0  0  0  0  0  0
    4.6590   -1.9190    0.9470 F   0  0  0  0  0  0  0  0  0  0  0  0
  1  2  1  0
  2  3  1  0
  3  4  2  0
  3  5  1  0
  5  6  2  3
  5 11  1  0
  6  7  1  0
  7  8  1  0
  7  9  2  3
  9 10  1  0
 11 12  1  0
 12 13  1  1
 14 12  1  6
 14 15  2  0
 14 16  2  0
 14 17  1  0
 17 18  1  6
 17 19  1  0
 17 20  1  0
M  END
