
     RDKit          3D

 19 19  0  0  0  0  0  0  0  0999 V2000
   -2.1550   -0.5180    1.7050 O   0  0  0  0  0  0  0  0  0  0  0  0
   -1.7560   -0.4910    0.5400 C   0  0  0  0  0  0  0  0  0  0  0  0
   -0.3600   -0.4910    0.2830 N   0  0  0  0  0  0  0  0  0  0  0  0
    0.6420   -0.5220    1.3120 C   0  0  2  0  0  0  0  0  0  0  0  0
    1.6720    0.9750    1.1470 S   0  0  0  0  0  0  0  0  0  0  0  0
    2.8950    0.4220   -0.0670 C   0  0  0  0  0  0  0  0  0  0  0  0
    3.5940    1.4120   -0.9010 C   0  0  0  0  0  0  0  0  0  0  0  0
    4.4210    1.1620   -1.7930 O   0  0  0  0  0  0  0  0  0  0  0  0
    3.3410    2.7860   -0.7150 O   0  0  0  0  0  0  0  0  0  0  0  0
    3.0340   -0.8590   -0.1180 C   0  0  0  0  0  0  0  0  0  0  0  0
    3.9400   -1.7010   -0.9810 C   0  0  1  0  0  0  0  0  0  0  0  0
    3.1830   -2.3460   -1.9450 F   0  0  0  0  0  0  0  0  0  0  0  0
    5.0430   -1.0970   -1.4400 F   0  0  0  0  0  0  0  0  0  0  0  0
    4.3980   -2.7400   -0.1330 F   0  0  0  0  0  0  0  0  0  0  0  0
    1.9170   -1.7550    1.0010 S   0  0  0  0  0  0  0  0  0  0  0  0
   -2.6410   -0.4610   -0.4940 O   0  0  0  0  0  0  0  0  0  0  0  0
   -4.0170   -0.4450   -0.4890 C   0  0  0  0  0  0  0  0  0  0  0  0
   -4.5650    0.7980    0.1490 C   0  0  0  0  0  0  0  0  0  0  0  0
   -4.1840    0.9480    1.4580 O   0  0  0  0  0  0  0  0  0  0  0  0
  1  2  2  0
  2  3  1  0
  2 16  1  0
  4  3  1  6
  4  5  1  0
  4 15  1  0
  5  6  1  0
  6  7  1  0
  6 10  2  0
  7  8  2  0
  7  9  1  0
 10 11  1  0
 10 15  1  0
 11 12  1  6
 11 13  1  0
 11 14  1  0
 16 17  1  0
 17 18  1  0
 18 19  1  0
M  END
