
     RDKit          3D

  9  8  0  0  0  0  0  0  0  0999 V2000
   -3.5650   -0.3260   -0.6110 O   0  0  0  0  0  0  0  0  0  0  0  0
   -2.8430    0.7930   -0.2460 C   0  0  0  0  0  0  0  0  0  0  0  0
   -1.5480    0.4540    0.4440 C   0  0  0  0  0  0  0  0  0  0  0  0
   -0.6920   -0.2970   -0.3220 O   0  0  0  0  0  0  0  0  0  0  0  0
    0.4550   -0.5410    0.4220 C   0  0  1  0  0  0  0  0  0  0  0  0
    0.5480   -1.9120    0.6000 O   0  0  0  0  0  0  0  0  0  0  0  0
    1.6950    0.0220   -0.2300 C   0  0  0  0  0  0  0  0  0  0  0  0
    2.9050   -0.2770    0.6300 C   0  0  0  0  0  0  0  0  0  0  0  0
    2.7190    0.3110    1.8740 O   0  0  0  0  0  0  0  0  0  0  0  0
  1  2  1  0
  2  3  1  0
  3  4  1  0
  4  5  1  0
  5  6  1  6
  5  7  1  0
  7  8  1  0
  8  9  1  0
M  END
