
     RDKit          3D

  9  9  0  0  0  0  0  0  0  0999 V2000
    1.7960   -1.5750   -0.8980 O   0  0  0  0  0  0  0  0  0  0  0  0
    0.8270   -1.3890    0.0500 C   0  0  0  0  0  0  0  0  0  0  0  0
    0.1730   -0.0230   -0.0110 C   0  0  2  0  0  0  0  0  0  0  0  0
    1.1970    1.0080    0.3420 C   0  0  0  0  0  0  0  0  0  0  0  0
    0.6660    2.2880    0.4320 O   0  0  0  0  0  0  0  0  0  0  0  0
   -0.9400   -0.0080    0.9840 C   0  0  0  0  0  0  0  0  0  0  0  0
   -2.0340   -0.4110    0.2180 O   0  0  0  0  0  0  0  0  0  0  0  0
   -1.7940    0.0040   -1.0700 C   0  0  0  0  0  0  0  0  0  0  0  0
   -0.4410    0.2120   -1.2240 O   0  0  0  0  0  0  0  0  0  0  0  0
  1  2  1  0
  3  2  1  6
  3  4  1  0
  3  6  1  0
  3  9  1  0
  4  5  1  0
  6  7  1  0
  7  8  1  0
  8  9  1  0
M  END
