
     RDKit          3D

  9  8  0  0  0  0  0  0  0  0999 V2000
    3.4700    1.1260    0.2330 O   0  0  0  0  0  0  0  0  0  0  0  0
    2.7830   -0.0870    0.4150 C   0  0  0  0  0  0  0  0  0  0  0  0
    1.4340    0.1000   -0.2930 C   0  0  0  0  0  0  0  0  0  0  0  0
    0.5840   -1.1150   -0.1860 C   0  0  0  0  0  0  0  0  0  0  0  0
   -0.6190   -0.9410   -0.8250 O   0  0  0  0  0  0  0  0  0  0  0  0
   -1.3480    0.0700   -0.2500 C   0  0  1  0  0  0  0  0  0  0  0  0
   -1.5660    1.0470   -1.2250 O   0  0  0  0  0  0  0  0  0  0  0  0
   -2.6980   -0.3980    0.2560 C   0  0  0  0  0  0  0  0  0  0  0  0
   -3.3180    0.7380    0.8110 O   0  0  0  0  0  0  0  0  0  0  0  0
  1  2  1  0
  2  3  1  0
  3  4  1  0
  4  5  1  0
  5  6  1  0
  6  7  1  6
  6  8  1  0
  8  9  1  0
M  END
