
     RDKit          3D

 18 19  0  0  0  0  0  0  0  0999 V2000
   -1.7980   -2.0130   -0.1000 C   0  0  0  0  0  0  0  0  0  0  0  0
   -1.5800   -0.5430    0.1730 C   0  0  0  0  0  0  0  0  0  0  0  0
   -2.4720    0.3490   -0.1870 C   0  0  0  0  0  0  0  0  0  0  0  0
   -3.7590    0.1620   -0.8690 C   0  0  0  0  0  0  0  0  0  0  0  0
   -4.9260    0.6740   -0.0230 C   0  0  0  0  0  0  0  0  0  0  0  0
   -6.1310    0.4980   -0.6660 O   0  0  0  0  0  0  0  0  0  0  0  0
   -1.8520    1.9480    0.3250 S   0  0  0  0  0  0  0  0  0  0  0  0
   -0.5910    1.2320    1.4370 C   0  0  0  0  0  0  0  0  0  0  0  0
   -0.4350   -0.0640    0.8050 N   0  0  0  0  0  0  0  0  0  0  0  0
    0.8460   -0.7260    0.8690 C   0  0  0  0  0  0  0  0  0  0  0  0
    1.9140   -0.1150    0.0680 C   0  0  0  0  0  0  0  0  0  0  0  0
    1.8120    0.9630   -0.7530 C   0  0  0  0  0  0  0  0  0  0  0  0
    2.9010    1.3780   -1.4300 N   0  0  0  0  0  0  0  0  0  0  0  0
    4.1030    0.7790   -1.3410 C   0  0  0  0  0  0  0  0  0  0  0  0
    5.2750    1.2830   -2.1150 C   0  0  0  0  0  0  0  0  0  0  0  0
    4.2070   -0.2850   -0.5320 N   0  0  0  0  0  0  0  0  0  0  0  0
    3.1630   -0.7480    0.1680 C   0  0  0  0  0  0  0  0  0  0  0  0
    3.3520   -1.8890    1.0110 N   0  0  0  0  0  0  0  0  0  0  0  0
  1  2  1  0
  2  3  2  0
  2  9  1  0
  3  4  1  0
  3  7  1  0
  4  5  1  0
  5  6  1  0
  7  8  1  0
  8  9  1  0
  9 10  1  0
 10 11  1  0
 11 12  2  0
 11 17  1  0
 12 13  1  0
 13 14  2  0
 14 15  1  0
 14 16  1  0
 16 17  2  0
 17 18  1  0
M  END
