
     RDKit          3D

  9  8  0  0  0  0  0  0  0  0999 V2000
    3.0000   -0.0390   -0.8010 O   0  0  0  0  0  0  0  0  0  0  0  0
    2.3560    0.9370   -0.0540 C   0  0  0  0  0  0  0  0  0  0  0  0
    0.8490    0.8620   -0.3080 C   0  0  0  0  0  0  0  0  0  0  0  0
    0.3590   -0.4950    0.0970 C   0  0  2  0  0  0  0  0  0  0  0  0
    1.0080   -1.4560   -0.6460 O   0  0  0  0  0  0  0  0  0  0  0  0
   -1.1340   -0.5870   -0.1090 C   0  0  2  0  0  0  0  0  0  0  0  0
   -1.4300   -0.3900   -1.4730 O   0  0  0  0  0  0  0  0  0  0  0  0
   -1.8850    0.3930    0.7310 C   0  0  0  0  0  0  0  0  0  0  0  0
   -3.2590    0.1710    0.4910 O   0  0  0  0  0  0  0  0  0  0  0  0
  1  2  1  0
  2  3  1  0
  3  4  1  0
  4  5  1  6
  4  6  1  0
  6  7  1  6
  6  8  1  0
  8  9  1  0
M  END
