
     RDKit          3D

 19 19  0  0  0  0  0  0  0  0999 V2000
    1.2280   -1.6450    0.0480 N   0  0  0  0  0  0  0  0  0  0  0  0
    2.3760   -0.8780    0.2370 C   0  0  0  0  0  0  0  0  0  0  0  0
    3.4570   -1.6030    0.3040 O   0  0  0  0  0  0  0  0  0  0  0  0
    2.4700    0.5410    0.3570 C   0  0  0  0  0  0  0  0  0  0  0  0
    4.0350    1.3110    0.5910 S   0  0  0  0  0  0  0  0  0  0  0  0
    3.9780    2.9140    0.7090 C   0  0  0  0  0  0  0  0  0  0  0  0
    4.6810    3.8560    0.8610 O   0  0  0  0  0  0  0  0  0  0  0  0
    2.1560    3.1090    0.5210 S   0  0  0  0  0  0  0  0  0  0  0  0
    1.5300    1.5000    0.3260 C   0  0  0  0  0  0  0  0  0  0  0  0
    0.0310    1.3160    0.1430 C   0  0  0  0  0  0  0  0  0  0  0  0
   -0.6960    2.3550    0.1460 O   0  0  0  0  0  0  0  0  0  0  0  0
   -0.5790    0.1430   -0.0200 O   0  0  0  0  0  0  0  0  0  0  0  0
   -1.9320   -0.1200   -0.1920 C   0  0  1  0  0  0  0  0  0  0  0  0
   -2.2940   -0.6710   -1.5500 C   0  0  0  0  0  0  0  0  0  0  0  0
   -1.6660   -1.8670   -1.8540 O   0  0  0  0  0  0  0  0  0  0  0  0
   -2.5810   -0.8990    0.9020 C   0  0  2  0  0  0  0  0  0  0  0  0
   -3.9250   -1.0600    0.5470 F   0  0  0  0  0  0  0  0  0  0  0  0
   -2.5550   -0.1090    2.0590 F   0  0  0  0  0  0  0  0  0  0  0  0
   -2.0710   -2.1370    1.1350 F   0  0  0  0  0  0  0  0  0  0  0  0
  1  2  1  0
  2  3  2  0
  2  4  1  0
  4  5  1  0
  4  9  2  0
  5  6  1  0
  6  7  2  0
  6  8  1  0
  8  9  1  0
  9 10  1  0
 10 11  2  0
 10 12  1  0
 12 13  1  0
 13 14  1  6
 13 16  1  0
 14 15  1  0
 16 17  1  6
 16 18  1  0
 16 19  1  0
M  END
