
     RDKit          3D

 41 46  0  0  0  0  0  0  0  0999 V2000
    6.6660    3.3640    1.5120 C   0  0  0  0  0  0  0  0  0  0  0  0
    6.5100    3.3720    0.0000 C   0  0  0  0  0  0  0  0  0  0  0  0
    6.5100    1.9320   -0.4300 C   0  0  0  0  0  0  0  0  0  0  0  0
    7.4360    1.5050   -1.2720 C   0  0  0  0  0  0  0  0  0  0  0  0
    7.4740    0.1600   -1.7030 N   0  0  0  0  0  0  0  0  0  0  0  0
    6.4980   -0.7960   -1.2360 C   0  0  0  0  0  0  0  0  0  0  0  0
    6.6260   -1.9800   -1.6950 O   0  0  0  0  0  0  0  0  0  0  0  0
    5.4460   -0.4230   -0.3110 C   0  0  0  0  0  0  0  0  0  0  0  0
    4.6740   -1.2990    0.2480 C   0  0  0  0  0  0  0  0  0  0  0  0
    4.7860   -2.7920    0.0490 C   0  0  0  0  0  0  0  0  0  0  0  0
    4.4730   -3.4970    1.3650 C   0  0  0  0  0  0  0  0  0  0  0  0
    3.2030   -3.0470    1.9450 C   0  0  0  0  0  0  0  0  0  0  0  0
    3.3280   -1.5630    2.3610 C   0  0  0  0  0  0  0  0  0  0  0  0
    3.4840   -0.8510    1.0170 C   0  0  0  0  0  0  0  0  0  0  0  0
    2.5620   -0.0830    0.5510 C   0  0  0  0  0  0  0  0  0  0  0  0
    2.4680    0.4900   -0.7830 C   0  0  0  0  0  0  0  0  0  0  0  0
    1.1790    0.0650   -1.4540 C   0  0  0  0  0  0  0  0  0  0  0  0
    0.9740   -0.4490   -2.6460 C   0  0  0  0  0  0  0  0  0  0  0  0
    2.2350   -0.7930   -3.8410 Cl  0  0  0  0  0  0  0  0  0  0  0  0
   -0.4370   -0.6880   -2.8290 C   0  0  0  0  0  0  0  0  0  0  0  0
   -0.9580   -1.1700   -3.8520 O   0  0  0  0  0  0  0  0  0  0  0  0
   -1.0770   -0.2370   -1.5540 C   0  0  0  0  0  0  0  0  0  0  0  0
   -2.5230   -0.3440   -1.4200 C   0  0  2  0  0  0  0  0  0  0  0  0
   -3.2300    0.3770   -2.5950 C   0  0  0  0  0  0  0  0  0  0  0  0
   -4.6400   -0.1310   -2.6800 C   0  0  0  0  0  0  0  0  0  0  0  0
   -5.1080   -0.8990   -1.4800 C   0  0  0  0  0  0  0  0  0  0  0  0
   -4.6850   -0.2560   -0.2780 N   0  0  0  0  0  0  0  0  0  0  0  0
   -5.4890    0.0740    0.8310 C   0  0  0  0  0  0  0  0  0  0  0  0
   -4.9640    0.6380    1.8170 O   0  0  0  0  0  0  0  0  0  0  0  0
   -6.9250   -0.2130    0.8910 C   0  0  1  0  0  0  0  0  0  0  0  0
   -7.4970   -0.7350    2.2350 C   0  0  0  0  0  0  0  0  0  0  0  0
   -7.8220    0.6250    1.7360 C   0  0  2  0  0  0  0  0  0  0  0  0
   -9.2540    0.7960    1.2420 C   0  0  0  0  0  0  0  0  0  0  0  0
   -7.2180    1.8010    2.4700 C   0  0  0  0  0  0  0  0  0  0  0  0
   -3.2250    0.1060   -0.2150 C   0  0  0  0  0  0  0  0  0  0  0  0
   -0.1140    0.1990   -0.7620 C   0  0  0  0  0  0  0  0  0  0  0  0
   -0.1410    0.7330    0.5970 C   0  0  0  0  0  0  0  0  0  0  0  0
   -1.0700    1.4060    1.0120 O   0  0  0  0  0  0  0  0  0  0  0  0
    1.2370    0.3820    1.6780 S   0  0  0  0  0  0  0  0  0  0  0  0
    5.4910    1.0050    0.0830 C   0  0  0  0  0  0  0  0  0  0  0  0
    4.6790    1.4890    0.8720 O   0  0  0  0  0  0  0  0  0  0  0  0
  1  2  1  0
  2  3  1  0
  3  4  2  0
  3 40  1  0
  4  5  1  0
  5  6  1  0
  6  7  2  0
  6  8  1  0
  8  9  2  3
  8 40  1  0
  9 10  1  0
  9 14  1  0
 10 11  1  0
 11 12  1  0
 12 13  1  0
 13 14  1  0
 14 15  2  3
 15 16  1  0
 15 39  1  0
 16 17  1  0
 17 18  2  0
 17 36  1  0
 18 19  1  0
 18 20  1  0
 20 21  2  0
 20 22  1  0
 23 22  1  1
 22 36  2  0
 23 24  1  0
 23 35  1  0
 24 25  1  0
 25 26  1  0
 26 27  1  0
 27 28  1  0
 27 35  1  0
 28 29  2  0
 30 28  1  1
 30 31  1  0
 30 32  1  0
 31 32  1  0
 32 33  1  6
 32 34  1  0
 36 37  1  0
 37 38  2  0
 37 39  1  0
 40 41  2  0
M  END
