
     RDKit          3D

 41 45  0  0  0  0  0  0  0  0999 V2000
    4.5970    3.0650    2.8570 C   0  0  0  0  0  0  0  0  0  0  0  0
    5.0550    1.8350    2.3570 O   0  0  0  0  0  0  0  0  0  0  0  0
    4.4100    1.1000    1.3760 C   0  0  0  0  0  0  0  0  0  0  0  0
    4.9920   -0.0800    1.0010 C   0  0  0  0  0  0  0  0  0  0  0  0
    4.4210   -0.8900    0.0220 C   0  0  0  0  0  0  0  0  0  0  0  0
    5.1430   -2.1420   -0.3470 C   0  0  0  0  0  0  0  0  0  0  0  0
    3.2310   -0.5270   -0.6130 C   0  0  0  0  0  0  0  0  0  0  0  0
    2.6340    0.6560   -0.2430 C   0  0  0  0  0  0  0  0  0  0  0  0
    3.2490    1.4490    0.7530 C   0  0  0  0  0  0  0  0  0  0  0  0
    1.3570    1.2090   -0.8290 C   0  0  0  0  0  0  0  0  0  0  0  0
    1.4580    2.4300   -1.3460 C   0  0  0  0  0  0  0  0  0  0  0  0
    0.5910    3.3820   -2.0100 C   0  0  2  0  0  0  0  0  0  0  0  0
    1.2140    5.1040   -1.8190 Cl  0  0  0  0  0  0  0  0  0  0  0  0
   -0.8510    3.3590   -2.1240 C   0  0  0  0  0  0  0  0  0  0  0  0
   -1.7260    3.3230   -0.9310 C   0  0  0  0  0  0  0  0  0  0  0  0
   -1.0470    3.9380    0.1480 C   0  0  0  0  0  0  0  0  0  0  0  0
   -1.5620    4.0420    1.4100 C   0  0  0  0  0  0  0  0  0  0  0  0
   -2.8010    3.4990    1.5610 C   0  0  0  0  0  0  0  0  0  0  0  0
   -3.5410    2.8660    0.5260 C   0  0  0  0  0  0  0  0  0  0  0  0
   -2.9790    2.7900   -0.7280 C   0  0  0  0  0  0  0  0  0  0  0  0
   -4.8130    2.3590    1.0590 C   0  0  0  0  0  0  0  0  0  0  0  0
   -5.3620    1.1380    0.9320 C   0  0  0  0  0  0  0  0  0  0  0  0
   -4.6360    0.0700    0.1440 C   0  0  0  0  0  0  0  0  0  0  0  0
   -4.7220   -1.2650    0.7930 C   0  0  0  0  0  0  0  0  0  0  0  0
   -5.9530   -1.5430    1.1300 O   0  0  0  0  0  0  0  0  0  0  0  0
   -3.5700   -2.0620    0.9780 N   0  0  0  0  0  0  0  0  0  0  0  0
   -2.6630   -2.0130    2.1260 C   0  0  0  0  0  0  0  0  0  0  0  0
   -1.2400   -1.6740    1.7880 C   0  0  0  0  0  0  0  0  0  0  0  0
   -1.1200   -1.8080    0.2960 C   0  0  1  0  0  0  0  0  0  0  0  0
    0.1430   -1.3960   -0.2480 N   0  0  0  0  0  0  0  0  0  0  0  0
   -0.1050    0.2640   -0.7160 S   0  0  1  0  0  0  0  0  0  0  0  0
   -0.9420    0.7710    0.4980 O   0  0  0  0  0  0  0  0  0  0  0  0
   -1.0320    0.3240   -1.8410 O   0  0  0  0  0  0  0  0  0  0  0  0
   -1.5770   -3.1980    0.0100 C   0  0  2  0  0  0  0  0  0  0  0  0
   -1.0960   -3.7190   -1.3160 C   0  0  0  0  0  0  0  0  0  0  0  0
    0.3720   -3.9350   -1.1930 C   0  0  0  0  0  0  0  0  0  0  0  0
    0.7500   -4.6220   -0.2570 O   0  0  0  0  0  0  0  0  0  0  0  0
    1.3650   -3.3790   -2.1140 C   0  0  0  0  0  0  0  0  0  0  0  0
    2.6390   -2.8710   -1.4050 C   0  0  0  0  0  0  0  0  0  0  0  0
    2.8030   -1.4360   -1.7020 C   0  0  0  0  0  0  0  0  0  0  0  0
   -3.1140   -3.0970    0.0120 C   0  0  0  0  0  0  0  0  0  0  0  0
  1  2  1  0
  2  3  1  0
  3  4  2  0
  3  9  1  0
  4  5  1  0
  5  6  1  0
  5  7  2  0
  7  8  1  0
  7 40  1  0
  8  9  2  0
  8 10  1  0
 10 11  2  0
 10 31  1  0
 11 12  1  0
 12 13  1  1
 12 14  1  0
 14 15  1  0
 15 16  1  0
 15 20  2  0
 16 17  2  0
 17 18  1  0
 18 19  2  0
 19 20  1  0
 19 21  1  0
 21 22  2  0
 22 23  1  0
 23 24  1  0
 24 25  2  0
 24 26  1  0
 26 27  1  0
 26 41  1  0
 27 28  1  0
 29 28  1  1
 29 30  1  0
 29 34  1  0
 31 30  1  1
 31 32  2  0
 31 33  2  0
 34 35  1  6
 34 41  1  0
 35 36  1  0
 36 37  2  0
 36 38  1  0
 38 39  1  0
 39 40  1  0
M  END
