
     RDKit          3D

 41 46  0  0  0  0  0  0  0  0999 V2000
   -5.7100   -3.3470    1.4070 C   0  0  0  0  0  0  0  0  0  0  0  0
   -4.4840   -3.1010    0.5950 C   0  0  0  0  0  0  0  0  0  0  0  0
   -4.2850   -1.8510    0.1380 C   0  0  0  0  0  0  0  0  0  0  0  0
   -5.4410   -0.9810   -0.0940 C   0  0  0  0  0  0  0  0  0  0  0  0
   -5.4410    0.3350   -0.2020 C   0  0  0  0  0  0  0  0  0  0  0  0
   -4.3820    1.3420   -0.1350 C   0  0  0  0  0  0  0  0  0  0  0  0
   -3.3860    1.5280    0.7860 C   0  0  0  0  0  0  0  0  0  0  0  0
   -2.4910    2.5770    0.5650 C   0  0  0  0  0  0  0  0  0  0  0  0
   -1.4790    2.9240    1.3010 O   0  0  0  0  0  0  0  0  0  0  0  0
   -0.8650    3.9340    0.7990 C   0  0  0  0  0  0  0  0  0  0  0  0
   -1.4870    4.3160   -0.3590 C   0  0  0  0  0  0  0  0  0  0  0  0
   -2.5400    3.4300   -0.5000 C   0  0  0  0  0  0  0  0  0  0  0  0
   -3.5330    3.2710   -1.4440 C   0  0  0  0  0  0  0  0  0  0  0  0
   -4.4160    2.2470   -1.2410 C   0  0  0  0  0  0  0  0  0  0  0  0
   -5.6900    2.1270   -2.4770 Cl  0  0  0  0  0  0  0  0  0  0  0  0
    0.3450    4.5050    1.4860 C   0  0  0  0  0  0  0  0  0  0  0  0
    0.9310    3.4380    2.2650 N   0  0  0  0  0  0  0  0  0  0  0  0
    1.8750    2.4970    1.7590 C   0  0  0  0  0  0  0  0  0  0  0  0
    2.7260    2.1010    2.6040 O   0  0  0  0  0  0  0  0  0  0  0  0
    1.8130    2.0660    0.3710 C   0  0  0  0  0  0  0  0  0  0  0  0
    1.9510    0.5680    0.1900 C   0  0  1  0  0  0  0  0  0  0  0  0
    3.2110    0.0910    0.3080 O   0  0  0  0  0  0  0  0  0  0  0  0
    4.1530    0.5730   -0.5640 C   0  0  1  0  0  0  0  0  0  0  0  0
    5.1650    1.3410    0.2630 C   0  0  0  0  0  0  0  0  0  0  0  0
    5.5270    0.5860    1.5290 C   0  0  0  0  0  0  0  0  0  0  0  0
    6.4390   -0.5910    1.2210 C   0  0  0  0  0  0  0  0  0  0  0  0
    5.3620   -2.0000    0.8650 S   0  0  0  0  0  0  0  0  0  0  0  0
    4.7150   -1.8600   -0.7970 C   0  0  0  0  0  0  0  0  0  0  0  0
    4.8810   -0.4570   -1.3650 C   0  0  0  0  0  0  0  0  0  0  0  0
    1.1130   -0.0590    1.3130 C   0  0  0  0  0  0  0  0  0  0  0  0
    0.8200   -1.4890    1.0700 C   0  0  0  0  0  0  0  0  0  0  0  0
    0.9760   -1.9980   -0.1620 O   0  0  0  0  0  0  0  0  0  0  0  0
    0.8850   -1.2080   -1.2650 C   0  0  1  0  0  0  0  0  0  0  0  0
   -0.4410   -1.3560   -2.0120 C   0  0  0  0  0  0  0  0  0  0  0  0
   -1.1250   -2.5710   -1.5110 C   0  0  0  0  0  0  0  0  0  0  0  0
   -0.8810   -3.6640   -2.0750 O   0  0  0  0  0  0  0  0  0  0  0  0
   -2.0430   -2.5900   -0.4300 N   0  0  0  0  0  0  0  0  0  0  0  0
   -2.1520   -3.7590    0.4130 C   0  0  0  0  0  0  0  0  0  0  0  0
   -3.5620   -4.2350    0.3370 C   0  0  0  0  0  0  0  0  0  0  0  0
   -2.8940   -1.4560   -0.1010 C   0  0  0  0  0  0  0  0  0  0  0  0
    1.2910    0.2160   -1.1160 C   0  0  0  0  0  0  0  0  0  0  0  0
  1  2  1  0
  2  3  2  0
  2 39  1  0
  3  4  1  0
  3 40  1  0
  4  5  2  0
  5  6  1  0
  6  7  1  0
  6 14  2  0
  7  8  2  0
  8  9  1  0
  8 12  1  0
  9 10  1  0
 10 11  2  0
 10 16  1  0
 11 12  1  0
 12 13  2  0
 13 14  1  0
 14 15  1  0
 16 17  1  0
 17 18  1  0
 18 19  2  0
 18 20  1  0
 20 21  1  0
 21 22  1  6
 21 30  1  0
 21 41  1  0
 23 22  1  1
 23 24  1  0
 23 29  1  0
 24 25  1  0
 25 26  1  0
 26 27  1  0
 27 28  1  0
 28 29  1  0
 30 31  1  0
 31 32  1  0
 32 33  1  0
 33 34  1  1
 33 41  1  0
 34 35  1  0
 35 36  2  0
 35 37  1  0
 37 38  1  0
 37 40  1  0
 38 39  1  0
M  END
