
     RDKit          3D

 41 44  0  0  0  0  0  0  0  0999 V2000
   10.1040   -0.3760   -1.8230 C   0  0  0  0  0  0  0  0  0  0  0  0
    8.9490   -0.8130   -0.9560 C   0  0  0  0  0  0  0  0  0  0  0  0
    7.7260    0.0150   -1.2460 C   0  0  2  0  0  0  0  0  0  0  0  0
    8.0190    1.4960   -0.9670 C   0  0  0  0  0  0  0  0  0  0  0  0
    8.0230    1.4300    0.8330 S   0  0  1  0  0  0  0  0  0  0  0  0
    9.3920    1.2080    1.3600 O   0  0  0  0  0  0  0  0  0  0  0  0
    7.3360    2.6000    1.4240 O   0  0  0  0  0  0  0  0  0  0  0  0
    7.0060    0.0220    1.0490 N   0  0  0  0  0  0  0  0  0  0  0  0
    6.6660   -0.3770   -0.2810 C   0  0  0  0  0  0  0  0  0  0  0  0
    5.5250   -1.0230   -0.5760 C   0  0  0  0  0  0  0  0  0  0  0  0
    4.5490   -1.3630    0.4280 C   0  0  0  0  0  0  0  0  0  0  0  0
    3.4050   -1.9870    0.2310 C   0  0  0  0  0  0  0  0  0  0  0  0
    2.5790   -2.2290    1.3780 C   0  0  0  0  0  0  0  0  0  0  0  0
    1.6320   -1.3530    1.5480 C   0  0  0  0  0  0  0  0  0  0  0  0
    0.6350   -0.5340    1.6530 C   0  0  0  0  0  0  0  0  0  0  0  0
   -0.6580   -1.1280    1.9380 C   0  0  0  0  0  0  0  0  0  0  0  0
   -1.7670   -0.5280    1.1450 N   0  0  0  0  0  0  0  0  0  0  0  0
   -2.3720    0.6080    1.6860 C   0  0  0  0  0  0  0  0  0  0  0  0
   -1.9170    0.8770    2.9010 O   0  0  0  0  0  0  0  0  0  0  0  0
   -3.3710    1.5040    1.1650 C   0  0  0  0  0  0  0  0  0  0  0  0
   -3.7530    1.6790   -0.1260 C   0  0  0  0  0  0  0  0  0  0  0  0
   -4.7900    2.5140   -0.5340 C   0  0  0  0  0  0  0  0  0  0  0  0
   -5.1510    2.6510   -1.9630 C   0  0  0  0  0  0  0  0  0  0  0  0
   -5.4950    3.2270    0.4040 C   0  0  0  0  0  0  0  0  0  0  0  0
   -5.1430    3.0840    1.7170 C   0  0  0  0  0  0  0  0  0  0  0  0
   -4.1050    2.2450    2.1110 C   0  0  0  0  0  0  0  0  0  0  0  0
   -5.8360    3.8120    2.8330 C   0  0  0  0  0  0  0  0  0  0  0  0
   -7.2290    4.2150    2.4100 C   0  0  0  0  0  0  0  0  0  0  0  0
   -7.2450    4.8040    1.0530 C   0  0  0  0  0  0  0  0  0  0  0  0
   -7.8210    5.8780    0.7760 O   0  0  0  0  0  0  0  0  0  0  0  0
   -6.5670    4.1000    0.0320 N   0  0  0  0  0  0  0  0  0  0  0  0
   -2.2590   -1.1730   -0.0070 C   0  0  1  0  0  0  0  0  0  0  0  0
   -1.1650   -1.0450   -1.0820 C   0  0  0  0  0  0  0  0  0  0  0  0
   -1.5900   -1.6150   -2.3890 C   0  0  0  0  0  0  0  0  0  0  0  0
   -2.9680   -2.1780   -2.3050 C   0  0  0  0  0  0  0  0  0  0  0  0
   -3.1560   -3.1070   -1.1520 C   0  0  0  0  0  0  0  0  0  0  0  0
   -2.4910   -2.6570    0.1300 C   0  0  2  0  0  0  0  0  0  0  0  0
   -3.4050   -3.0240    1.2670 C   0  0  0  0  0  0  0  0  0  0  0  0
   -4.7680   -2.4280    1.1420 C   0  0  0  0  0  0  0  0  0  0  0  0
    2.9860   -2.4050   -1.0150 O   0  0  0  0  0  0  0  0  0  0  0  0
    2.4660   -1.6270   -2.0420 C   0  0  0  0  0  0  0  0  0  0  0  0
  1  2  1  0
  3  2  1  1
  3  4  1  0
  3  9  1  0
  5  4  1  6
  5  6  2  0
  5  7  2  0
  5  8  1  0
  8  9  1  0
  9 10  2  3
 10 11  1  0
 11 12  2  3
 12 13  1  0
 12 40  1  0
 13 14  2  0
 14 15  2  0
 15 16  1  0
 16 17  1  0
 17 18  1  0
 32 17  1  1
 18 19  2  0
 18 20  1  0
 20 21  2  0
 20 26  1  0
 21 22  1  0
 22 23  1  0
 22 24  2  0
 24 25  1  0
 24 31  1  0
 25 26  2  0
 25 27  1  0
 27 28  1  0
 28 29  1  0
 29 30  2  0
 29 31  1  0
 32 33  1  0
 32 37  1  0
 33 34  1  0
 34 35  1  0
 35 36  1  0
 36 37  1  0
 37 38  1  1
 38 39  1  0
 40 41  1  0
M  END
