
     RDKit          3D

 41 45  0  0  0  0  0  0  0  0999 V2000
   -4.2280   -4.5320    1.2130 C   0  0  0  0  0  0  0  0  0  0  0  0
   -4.0990   -3.2670    0.3890 C   0  0  1  0  0  0  0  0  0  0  0  0
   -3.5020   -2.2030    1.2830 C   0  0  0  0  0  0  0  0  0  0  0  0
   -3.8030   -0.8490    0.8640 C   0  0  0  0  0  0  0  0  0  0  0  0
   -3.2640    0.3130    0.5410 C   0  0  0  0  0  0  0  0  0  0  0  0
   -4.3850    1.1810    0.2280 O   0  0  0  0  0  0  0  0  0  0  0  0
   -4.3170    2.4690   -0.1580 C   0  0  0  0  0  0  0  0  0  0  0  0
   -3.0970    2.9380   -0.2470 C   0  0  0  0  0  0  0  0  0  0  0  0
   -1.8460    2.1560    0.0430 C   0  0  0  0  0  0  0  0  0  0  0  0
   -1.9350    0.8950    0.4270 C   0  0  0  0  0  0  0  0  0  0  0  0
   -0.4340   -0.1200    0.8920 Cl  0  0  0  0  0  0  0  0  0  0  0  0
   -0.6860    3.0750   -0.2220 C   0  0  1  0  0  0  0  0  0  0  0  0
   -1.0760    4.2580   -1.1730 C   0  0  0  0  0  0  0  0  0  0  0  0
   -0.2790    3.8670    0.9980 C   0  0  0  0  0  0  0  0  0  0  0  0
   -0.9850    3.5700    2.0160 O   0  0  0  0  0  0  0  0  0  0  0  0
    0.7490    4.8230    1.0360 N   0  0  0  0  0  0  0  0  0  0  0  0
    1.9400    4.9020    0.2530 C   0  0  0  0  0  0  0  0  0  0  0  0
    2.2730    6.1270   -0.3780 C   0  0  0  0  0  0  0  0  0  0  0  0
    3.3970    6.2970   -1.1480 C   0  0  0  0  0  0  0  0  0  0  0  0
    4.2470    5.2210   -1.3160 C   0  0  0  0  0  0  0  0  0  0  0  0
    3.9270    4.0220   -0.7030 C   0  0  0  0  0  0  0  0  0  0  0  0
    2.8000    3.8620    0.0650 C   0  0  0  0  0  0  0  0  0  0  0  0
    2.5790    2.2100    0.7720 S   0  0  0  0  0  0  0  0  0  0  0  0
    2.8410    0.9470   -0.4730 C   0  0  0  0  0  0  0  0  0  0  0  0
    3.6740   -0.1340    0.1900 C   0  0  0  0  0  0  0  0  0  0  0  0
    4.7680    0.2620    0.6880 O   0  0  0  0  0  0  0  0  0  0  0  0
    3.2410   -1.4690    0.2350 N   0  0  0  0  0  0  0  0  0  0  0  0
    2.1370   -2.1250   -0.3400 C   0  0  0  0  0  0  0  0  0  0  0  0
    1.3990   -2.0110   -1.4520 C   0  0  0  0  0  0  0  0  0  0  0  0
    0.3230   -2.9290   -1.7130 C   0  0  0  0  0  0  0  0  0  0  0  0
   -0.0040   -3.9610   -0.8530 C   0  0  0  0  0  0  0  0  0  0  0  0
    0.7820   -4.0500    0.2930 C   0  0  0  0  0  0  0  0  0  0  0  0
    1.8140   -3.1400    0.5090 C   0  0  0  0  0  0  0  0  0  0  0  0
    2.7290   -3.0970    1.6760 C   0  0  0  0  0  0  0  0  0  0  0  0
    3.9670   -2.5370    1.0140 C   0  0  2  0  0  0  0  0  0  0  0  0
    4.8440   -1.9790    2.0700 C   0  0  0  0  0  0  0  0  0  0  0  0
   -1.1220   -4.8830   -1.1660 C   0  0  0  0  0  0  0  0  0  0  0  0
   -1.1020   -6.0180   -1.8700 O   0  0  0  0  0  0  0  0  0  0  0  0
   -2.3690   -4.5430   -0.6680 O   0  0  0  0  0  0  0  0  0  0  0  0
   -3.3110   -3.5780   -0.8620 C   0  0  2  0  0  0  0  0  0  0  0  0
   -2.9270   -2.3600   -1.6490 C   0  0  0  0  0  0  0  0  0  0  0  0
  2  1  1  1
  2  3  1  0
  2 40  1  0
  3  4  1  0
  4  5  2  0
  5  6  1  0
  5 10  1  0
  6  7  1  0
  7  8  2  0
  8  9  1  0
  9 10  2  0
  9 12  1  0
 10 11  1  0
 12 13  1  6
 12 14  1  0
 14 15  2  0
 14 16  1  0
 16 17  1  0
 17 18  2  0
 17 22  1  0
 18 19  1  0
 19 20  2  0
 20 21  1  0
 21 22  2  0
 22 23  1  0
 23 24  1  0
 24 25  1  0
 25 26  2  0
 25 27  1  0
 27 28  1  0
 27 35  1  0
 28 29  2  0
 28 33  1  0
 29 30  1  0
 30 31  2  0
 31 32  1  0
 31 37  1  0
 32 33  2  0
 33 34  1  0
 34 35  1  0
 35 36  1  1
 37 38  2  0
 37 39  1  0
 39 40  1  0
 40 41  1  1
M  END
