
     RDKit          3D

 41 43  0  0  0  0  0  0  0  0999 V2000
   -3.4050   -4.2650   -0.5890 C   0  0  0  0  0  0  0  0  0  0  0  0
   -3.5630   -3.0840   -0.0470 C   0  0  0  0  0  0  0  0  0  0  0  0
   -4.7990   -2.8730    0.5990 C   0  0  0  0  0  0  0  0  0  0  0  0
   -5.0500   -1.6670    1.1950 C   0  0  0  0  0  0  0  0  0  0  0  0
   -6.5900   -1.3930    1.9970 S   0  0  1  0  0  0  0  0  0  0  0  0
   -6.9030    0.0680    2.0120 O   0  0  0  0  0  0  0  0  0  0  0  0
   -7.6360   -2.1210    1.2000 O   0  0  0  0  0  0  0  0  0  0  0  0
   -4.1250   -0.6510    1.1830 C   0  0  0  0  0  0  0  0  0  0  0  0
   -4.3770    0.6770    1.8310 C   0  0  0  0  0  0  0  0  0  0  0  0
   -2.9320   -0.8880    0.5460 C   0  0  0  0  0  0  0  0  0  0  0  0
   -1.9860    0.1560    0.5310 N   0  0  0  0  0  0  0  0  0  0  0  0
   -2.0000    1.0790   -0.5470 C   0  0  0  0  0  0  0  0  0  0  0  0
   -2.8430    0.9790   -1.4850 O   0  0  0  0  0  0  0  0  0  0  0  0
   -1.0120    2.1730   -0.5740 C   0  0  2  0  0  0  0  0  0  0  0  0
    0.3900    1.6690   -0.5010 C   0  0  0  0  0  0  0  0  0  0  0  0
    1.2260    1.8360   -1.5240 C   0  0  0  0  0  0  0  0  0  0  0  0
    0.6780    2.5360   -2.7050 C   0  0  0  0  0  0  0  0  0  0  0  0
    2.6040    1.3470   -1.4690 C   0  0  0  0  0  0  0  0  0  0  0  0
    3.4880    1.5120   -2.5070 C   0  0  0  0  0  0  0  0  0  0  0  0
    4.8080    1.0450   -2.4630 C   0  0  0  0  0  0  0  0  0  0  0  0
    5.2760    0.3820   -1.3310 C   0  0  0  0  0  0  0  0  0  0  0  0
    6.6560   -0.1090   -1.2510 C   0  0  0  0  0  0  0  0  0  0  0  0
    4.4130    0.2070   -0.2870 C   0  0  0  0  0  0  0  0  0  0  0  0
    4.8340   -0.4920    0.9450 C   0  0  0  0  0  0  0  0  0  0  0  0
    4.8790   -1.9760    0.8130 C   0  0  0  0  0  0  0  0  0  0  0  0
    3.6820   -2.6530    0.8230 C   0  0  0  0  0  0  0  0  0  0  0  0
    3.6870   -4.0220    0.7220 C   0  0  0  0  0  0  0  0  0  0  0  0
    4.8660   -4.7340    0.6110 C   0  0  0  0  0  0  0  0  0  0  0  0
    4.8810   -6.1120    0.5090 O   0  0  0  0  0  0  0  0  0  0  0  0
    6.0560   -4.0390    0.6030 C   0  0  0  0  0  0  0  0  0  0  0  0
    6.0420   -2.6760    0.7040 C   0  0  0  0  0  0  0  0  0  0  0  0
    3.0930    0.6870   -0.3620 C   0  0  0  0  0  0  0  0  0  0  0  0
   -1.2030    3.1670    0.5640 C   0  0  0  0  0  0  0  0  0  0  0  0
   -2.5180    3.7790    0.4900 N   0  0  0  0  0  0  0  0  0  0  0  0
   -2.9630    4.7470    1.4160 C   0  0  0  0  0  0  0  0  0  0  0  0
   -2.1990    5.1000    2.3410 O   0  0  0  0  0  0  0  0  0  0  0  0
   -4.2460    5.3550    1.3600 N   0  0  0  0  0  0  0  0  0  0  0  0
   -4.6740    6.3420    2.3190 C   0  0  0  0  0  0  0  0  0  0  0  0
   -2.6070   -2.1110   -0.0910 C   0  0  0  0  0  0  0  0  0  0  0  0
   -1.4360   -2.1390   -0.6540 C   0  0  0  0  0  0  0  0  0  0  0  0
   -0.7690   -3.1970   -1.4090 C   0  0  0  0  0  0  0  0  0  0  0  0
  1  2  2  0
  2  3  1  0
  2 39  1  0
  3  4  2  0
  5  4  1  6
  4  8  1  0
  5  6  2  0
  5  7  2  0
  8  9  1  0
  8 10  2  0
 10 11  1  0
 10 39  1  0
 11 12  1  0
 12 13  2  0
 12 14  1  0
 14 15  1  0
 14 33  1  1
 15 16  2  3
 16 17  1  0
 16 18  1  0
 18 19  2  0
 18 32  1  0
 19 20  1  0
 20 21  2  0
 21 22  1  0
 21 23  1  0
 23 24  1  0
 23 32  2  0
 24 25  1  0
 25 26  2  0
 25 31  1  0
 26 27  1  0
 27 28  2  0
 28 29  1  0
 28 30  1  0
 30 31  2  0
 33 34  1  0
 34 35  1  0
 35 36  2  0
 35 37  1  0
 37 38  1  0
 39 40  2  3
 40 41  1  0
M  END
