
     RDKit          3D

 27 30  0  0  0  0  0  0  0  0999 V2000
    4.0180   -1.8030    2.8420 C   0  0  0  0  0  0  0  0  0  0  0  0
    4.9510   -1.5880    1.9880 C   0  0  0  0  0  0  0  0  0  0  0  0
    4.9150   -0.7160    0.8590 C   0  0  0  0  0  0  0  0  0  0  0  0
    6.0230   -0.6500    0.0960 C   0  0  0  0  0  0  0  0  0  0  0  0
    6.3490    0.1030   -1.0960 C   0  0  0  0  0  0  0  0  0  0  0  0
    5.6000    0.9520   -1.7600 C   0  0  0  0  0  0  0  0  0  0  0  0
    4.2350    1.3620   -1.4680 C   0  0  0  0  0  0  0  0  0  0  0  0
    3.4840    0.9610   -0.4810 C   0  0  0  0  0  0  0  0  0  0  0  0
    2.1370    1.4070   -0.2480 N   0  0  0  0  0  0  0  0  0  0  0  0
    1.6530    0.7500    0.9150 C   0  0  0  0  0  0  0  0  0  0  0  0
    0.3030    0.9160    1.5170 C   0  0  0  0  0  0  0  0  0  0  0  0
   -0.7210    0.4780    0.5460 N   0  0  0  0  0  0  0  0  0  0  0  0
   -1.3540    1.4210   -0.3010 C   0  0  0  0  0  0  0  0  0  0  0  0
   -2.5100    2.1480    0.3270 C   0  0  2  0  0  0  0  0  0  0  0  0
   -3.6150    1.2940    0.7980 C   0  0  0  0  0  0  0  0  0  0  0  0
   -4.8070    1.7530    0.4760 C   0  0  0  0  0  0  0  0  0  0  0  0
   -4.6430    3.0140   -0.2760 C   0  0  0  0  0  0  0  0  0  0  0  0
   -3.2230    2.9870   -0.7450 C   0  0  0  0  0  0  0  0  0  0  0  0
   -1.0480   -0.8840    0.5960 C   0  0  0  0  0  0  0  0  0  0  0  0
   -0.4830   -1.5800    1.5610 O   0  0  0  0  0  0  0  0  0  0  0  0
   -1.8790   -1.6780   -0.2000 N   0  0  0  0  0  0  0  0  0  0  0  0
   -2.1110   -3.1030    0.1080 C   0  0  0  0  0  0  0  0  0  0  0  0
   -3.4070   -3.4280   -0.6150 C   0  0  0  0  0  0  0  0  0  0  0  0
   -3.3100   -2.6230   -1.8840 C   0  0  0  0  0  0  0  0  0  0  0  0
   -2.5830   -1.3630   -1.3900 C   0  0  0  0  0  0  0  0  0  0  0  0
    2.5870   -0.0200    1.3600 N   0  0  0  0  0  0  0  0  0  0  0  0
    3.7430    0.0250    0.5960 N   0  0  0  0  0  0  0  0  0  0  0  0
  1  2  2  0
  2  3  1  0
  3  4  2  0
  3 27  1  0
  4  5  1  0
  5  6  2  0
  6  7  1  0
  7  8  2  0
  8  9  1  0
  8 27  1  0
  9 10  1  0
 10 11  1  0
 10 26  2  0
 11 12  1  0
 12 13  1  0
 12 19  1  0
 14 13  1  6
 14 15  1  0
 14 18  1  0
 15 16  2  0
 16 17  1  0
 17 18  1  0
 19 20  2  0
 19 21  1  0
 21 22  1  0
 21 25  1  0
 22 23  1  0
 23 24  1  0
 24 25  1  0
 26 27  1  0
M  END
