
     RDKit          3D

 27 30  0  0  0  0  0  0  0  0999 V2000
    8.9540   -0.1100   -0.5400 C   0  0  0  0  0  0  0  0  0  0  0  0
    7.5830   -0.1250    0.0620 C   0  0  0  0  0  0  0  0  0  0  0  0
    7.3420   -0.5380    1.3510 C   0  0  0  0  0  0  0  0  0  0  0  0
    6.0480   -0.5170    1.8160 C   0  0  0  0  0  0  0  0  0  0  0  0
    4.9810   -0.0920    1.0190 C   0  0  0  0  0  0  0  0  0  0  0  0
    3.6990   -0.0690    1.4690 C   0  0  0  0  0  0  0  0  0  0  0  0
    2.6790    0.3740    0.6020 C   0  0  0  0  0  0  0  0  0  0  0  0
    1.3460    0.4380    1.0950 C   0  0  0  0  0  0  0  0  0  0  0  0
    1.2300    0.2670    2.3990 O   0  0  0  0  0  0  0  0  0  0  0  0
    0.1310    0.6480    0.4500 N   0  0  0  0  0  0  0  0  0  0  0  0
   -0.0420    0.8000   -0.9410 C   0  0  0  0  0  0  0  0  0  0  0  0
   -1.4860    0.6170   -1.3440 C   0  0  0  0  0  0  0  0  0  0  0  0
   -2.4140    0.0940   -0.5870 C   0  0  0  0  0  0  0  0  0  0  0  0
   -3.8050   -0.0890   -0.9700 C   0  0  0  0  0  0  0  0  0  0  0  0
   -4.2790    0.3590   -2.2070 C   0  0  0  0  0  0  0  0  0  0  0  0
   -5.5970    0.1610   -2.5540 C   0  0  0  0  0  0  0  0  0  0  0  0
   -6.4890   -0.4660   -1.7360 N   0  0  0  0  0  0  0  0  0  0  0  0
   -6.0640   -0.9070   -0.5440 C   0  0  0  0  0  0  0  0  0  0  0  0
   -7.0050   -1.5910    0.3670 C   0  0  0  0  0  0  0  0  0  0  0  0
   -7.6540   -0.6270    1.2360 N   0  0  0  0  0  0  0  0  0  0  0  0
   -4.7330   -0.7150   -0.1750 C   0  0  0  0  0  0  0  0  0  0  0  0
   -2.0350   -0.3180    0.8230 C   0  0  0  0  0  0  0  0  0  0  0  0
   -1.0500    0.7520    1.3320 C   0  0  0  0  0  0  0  0  0  0  0  0
    3.0520    0.7570   -0.6510 C   0  0  0  0  0  0  0  0  0  0  0  0
    4.3360    0.7310   -1.0960 N   0  0  0  0  0  0  0  0  0  0  0  0
    5.3050    0.3110   -0.2760 C   0  0  0  0  0  0  0  0  0  0  0  0
    6.5720    0.2840   -0.7120 N   0  0  0  0  0  0  0  0  0  0  0  0
  1  2  1  0
  2  3  2  0
  2 27  1  0
  3  4  1  0
  4  5  2  0
  5  6  1  0
  5 26  1  0
  6  7  2  0
  7  8  1  0
  7 24  1  0
  8  9  2  0
  8 10  1  0
 10 11  1  0
 10 23  1  0
 11 12  1  0
 12 13  2  0
 13 14  1  0
 13 22  1  0
 14 15  2  0
 14 21  1  0
 15 16  1  0
 16 17  2  0
 17 18  1  0
 18 19  1  0
 18 21  2  0
 19 20  1  0
 22 23  1  0
 24 25  2  0
 25 26  1  0
 26 27  2  0
M  CHG  1  17   1
M  END
