
     RDKit          3D

 27 30  0  0  0  0  0  0  0  0999 V2000
    3.4950    2.5280    1.2000 N   0  0  0  0  0  0  0  0  0  0  0  0
    4.2240    1.9080    0.3390 C   0  0  0  0  0  0  0  0  0  0  0  0
    4.9210    0.7160    0.6150 N   0  0  0  0  0  0  0  0  0  0  0  0
    6.3460    0.6040    0.4580 C   0  0  0  0  0  0  0  0  0  0  0  0
    6.6180   -0.8810    0.4250 C   0  0  0  0  0  0  0  0  0  0  0  0
    5.2660   -1.5370    0.3200 C   0  0  0  0  0  0  0  0  0  0  0  0
    4.4140   -0.5050    1.0950 C   0  0  2  0  0  0  0  0  0  0  0  0
    2.9960   -0.8270    0.8310 C   0  0  0  0  0  0  0  0  0  0  0  0
    2.5140   -1.7540    1.5530 O   0  0  0  0  0  0  0  0  0  0  0  0
    2.1770   -0.2230   -0.1100 N   0  0  0  0  0  0  0  0  0  0  0  0
    0.8160   -0.4750   -0.4040 C   0  0  0  0  0  0  0  0  0  0  0  0
    0.0390   -1.2700    0.3760 C   0  0  0  0  0  0  0  0  0  0  0  0
   -1.3080   -1.5260    0.0720 C   0  0  0  0  0  0  0  0  0  0  0  0
   -1.8860   -0.9770   -1.0320 C   0  0  0  0  0  0  0  0  0  0  0  0
   -3.2370   -1.2490   -1.3820 N   0  0  0  0  0  0  0  0  0  0  0  0
   -3.5970   -2.3020   -2.1810 C   0  0  0  0  0  0  0  0  0  0  0  0
   -4.9470   -2.3130   -2.3400 C   0  0  0  0  0  0  0  0  0  0  0  0
   -5.4220   -1.2770   -1.6460 N   0  0  0  0  0  0  0  0  0  0  0  0
   -4.3700   -0.6250   -1.0570 C   0  0  0  0  0  0  0  0  0  0  0  0
   -4.5890    0.5420   -0.2380 C   0  0  0  0  0  0  0  0  0  0  0  0
   -5.8780    1.0290   -0.0140 C   0  0  0  0  0  0  0  0  0  0  0  0
   -6.1340    2.1470    0.7640 C   0  0  0  0  0  0  0  0  0  0  0  0
   -5.1090    2.8200    1.3500 C   0  0  0  0  0  0  0  0  0  0  0  0
   -3.8270    2.3830    1.1620 C   0  0  0  0  0  0  0  0  0  0  0  0
   -3.5860    1.2390    0.3630 C   0  0  0  0  0  0  0  0  0  0  0  0
   -1.0920   -0.1590   -1.8370 C   0  0  0  0  0  0  0  0  0  0  0  0
    0.2280    0.0830   -1.5250 C   0  0  0  0  0  0  0  0  0  0  0  0
  1  2  2  0
  2  3  1  0
  3  4  1  0
  3  7  1  0
  4  5  1  0
  5  6  1  0
  6  7  1  0
  7  8  1  6
  8  9  2  0
  8 10  1  0
 10 11  1  0
 11 12  2  0
 11 27  1  0
 12 13  1  0
 13 14  2  0
 14 15  1  0
 14 26  1  0
 15 16  1  0
 15 19  1  0
 16 17  2  0
 17 18  1  0
 18 19  2  0
 19 20  1  0
 20 21  2  0
 20 25  1  0
 21 22  1  0
 22 23  2  0
 23 24  1  0
 24 25  2  0
 26 27  2  0
M  CHG  1  18   1
M  END
