
     RDKit          3D

 26 28  0  0  0  0  0  0  0  0999 V2000
    6.4280   -1.2990   -0.6620 C   0  0  0  0  0  0  0  0  0  0  0  0
    5.1530   -1.8680   -0.1000 C   0  0  0  0  0  0  0  0  0  0  0  0
    5.1340   -3.0810    0.5480 C   0  0  0  0  0  0  0  0  0  0  0  0
    3.9610   -3.5910    1.0560 C   0  0  0  0  0  0  0  0  0  0  0  0
    2.7710   -2.9140    0.9380 C   0  0  0  0  0  0  0  0  0  0  0  0
    2.7860   -1.6870    0.2830 C   0  0  0  0  0  0  0  0  0  0  0  0
    1.5310   -1.0310    0.1540 N   0  0  0  0  0  0  0  0  0  0  0  0
    1.4310    0.3650    0.1280 C   0  0  0  0  0  0  0  0  0  0  0  0
    2.5500    0.9960    0.2650 O   0  0  0  0  0  0  0  0  0  0  0  0
    0.2250    1.1640   -0.0410 C   0  0  0  0  0  0  0  0  0  0  0  0
    0.4070    2.4860    0.0650 C   0  0  0  0  0  0  0  0  0  0  0  0
   -0.6390    3.4660   -0.0740 C   0  0  0  0  0  0  0  0  0  0  0  0
   -0.8200    4.5660    0.7510 C   0  0  0  0  0  0  0  0  0  0  0  0
   -1.8730    5.2700    0.3030 N   0  0  0  0  0  0  0  0  0  0  0  0
   -2.3310    4.6110   -0.7800 C   0  0  0  0  0  0  0  0  0  0  0  0
   -3.3260    4.9870   -1.4680 O   0  0  0  0  0  0  0  0  0  0  0  0
   -1.6000    3.5270   -1.0180 N   0  0  0  0  0  0  0  0  0  0  0  0
   -1.0650    0.5420   -0.1910 C   0  0  0  0  0  0  0  0  0  0  0  0
   -1.3360   -0.6080   -0.8920 C   0  0  0  0  0  0  0  0  0  0  0  0
   -2.5910   -1.2150   -0.8850 C   0  0  0  0  0  0  0  0  0  0  0  0
   -3.6200   -0.6730   -0.1640 C   0  0  0  0  0  0  0  0  0  0  0  0
   -4.9690   -1.2640   -0.1200 C   0  0  0  0  0  0  0  0  0  0  0  0
   -5.0250   -2.3930    0.7960 N   0  0  0  0  0  0  0  0  0  0  0  0
   -3.3630    0.4740    0.5380 C   0  0  0  0  0  0  0  0  0  0  0  0
   -2.1290    1.0650    0.5280 C   0  0  0  0  0  0  0  0  0  0  0  0
    3.9580   -1.1810   -0.2230 C   0  0  0  0  0  0  0  0  0  0  0  0
  1  2  1  0
  2  3  2  0
  2 26  1  0
  3  4  1  0
  4  5  2  0
  5  6  1  0
  6  7  1  0
  6 26  2  0
  7  8  1  0
  8  9  2  0
  8 10  1  0
 10 11  2  3
 10 18  1  0
 11 12  1  0
 12 13  2  0
 12 17  1  0
 13 14  1  0
 14 15  1  0
 15 16  2  0
 15 17  1  0
 18 19  2  0
 18 25  1  0
 19 20  1  0
 20 21  2  0
 21 22  1  0
 21 24  1  0
 22 23  1  0
 24 25  2  0
M  CHG  1  23   1
M  END
