
     RDKit          3D

 26 28  0  0  0  0  0  0  0  0999 V2000
    1.1310    1.1490    2.1340 C   0  0  0  0  0  0  0  0  0  0  0  0
    1.3870    0.2310    0.9670 C   0  0  0  0  0  0  0  0  0  0  0  0
    0.5210   -0.5780    0.3770 C   0  0  0  0  0  0  0  0  0  0  0  0
   -0.8920   -0.7060    0.8000 C   0  0  0  0  0  0  0  0  0  0  0  0
   -1.3450   -0.0350    1.7610 O   0  0  0  0  0  0  0  0  0  0  0  0
   -1.7780   -1.5900    0.1320 N   0  0  0  0  0  0  0  0  0  0  0  0
   -3.1140   -1.6750    0.5790 N   0  0  0  0  0  0  0  0  0  0  0  0
   -4.1200   -0.7720    0.1580 C   0  0  0  0  0  0  0  0  0  0  0  0
   -5.3960   -0.9280    0.6500 C   0  0  0  0  0  0  0  0  0  0  0  0
   -5.7020   -2.0430    1.6170 C   0  0  0  0  0  0  0  0  0  0  0  0
   -6.3790   -0.0520    0.2440 C   0  0  0  0  0  0  0  0  0  0  0  0
   -6.0290    0.9550   -0.6510 C   0  0  0  0  0  0  0  0  0  0  0  0
   -7.1140    1.8820   -1.0660 C   0  0  0  0  0  0  0  0  0  0  0  0
   -4.7880    1.0950   -1.1190 N   0  0  0  0  0  0  0  0  0  0  0  0
   -3.8160    0.2500   -0.7350 C   0  0  0  0  0  0  0  0  0  0  0  0
   -2.6400    0.4020   -1.1940 O   0  0  0  0  0  0  0  0  0  0  0  0
    1.1480   -1.3200   -0.7370 C   0  0  0  0  0  0  0  0  0  0  0  0
    2.5490   -0.8500   -0.7470 C   0  0  0  0  0  0  0  0  0  0  0  0
    3.6550   -1.1500   -1.5300 C   0  0  0  0  0  0  0  0  0  0  0  0
    4.8590   -0.5230   -1.2810 C   0  0  0  0  0  0  0  0  0  0  0  0
    6.0920   -0.7960   -2.0830 C   0  0  0  0  0  0  0  0  0  0  0  0
    4.9960    0.4040   -0.2640 C   0  0  0  0  0  0  0  0  0  0  0  0
    6.3010    1.0760   -0.0010 C   0  0  0  0  0  0  0  0  0  0  0  0
    6.1680    1.9850    1.1030 N   0  0  0  0  0  0  0  0  0  0  0  0
    3.8850    0.6880    0.5030 C   0  0  0  0  0  0  0  0  0  0  0  0
    2.6540    0.0660    0.2710 C   0  0  0  0  0  0  0  0  0  0  0  0
  1  2  1  0
  2  3  2  0
  2 26  1  0
  3  4  1  0
  3 17  1  0
  4  5  2  0
  4  6  1  0
  6  7  1  0
  7  8  1  0
  8  9  2  0
  8 15  1  0
  9 10  1  0
  9 11  1  0
 11 12  2  0
 12 13  1  0
 12 14  1  0
 14 15  1  0
 15 16  2  0
 17 18  1  0
 18 19  2  0
 18 26  1  0
 19 20  1  0
 20 21  1  0
 20 22  2  0
 22 23  1  0
 22 25  1  0
 23 24  1  0
 25 26  2  0
M  CHG  1  24   1
M  END
