
     RDKit          3D

 26 28  0  0  0  0  0  0  0  0999 V2000
    7.1160    1.1050   -0.8470 C   0  0  0  0  0  0  0  0  0  0  0  0
    5.9500    0.4490   -0.2600 C   0  0  0  0  0  0  0  0  0  0  0  0
    6.0880   -0.5020    0.7200 C   0  0  0  0  0  0  0  0  0  0  0  0
    4.9710   -1.0960    1.2470 C   0  0  0  0  0  0  0  0  0  0  0  0
    3.7240   -0.7620    0.8170 N   0  0  0  0  0  0  0  0  0  0  0  0
    3.5270    0.1770   -0.1550 C   0  0  0  0  0  0  0  0  0  0  0  0
    2.1890    0.4900   -0.6380 C   0  0  0  0  0  0  0  0  0  0  0  0
    1.1280   -0.3710   -0.2900 C   0  0  0  0  0  0  0  0  0  0  0  0
   -0.1750   -0.1640   -0.6440 C   0  0  0  0  0  0  0  0  0  0  0  0
   -1.2610   -0.9820   -0.3070 N   0  0  0  0  0  0  0  0  0  0  0  0
   -1.2860   -2.0260    0.6120 C   0  0  0  0  0  0  0  0  0  0  0  0
   -0.2110   -2.3100    1.2490 O   0  0  0  0  0  0  0  0  0  0  0  0
   -2.5100   -2.8630    0.9160 C   0  0  0  0  0  0  0  0  0  0  0  0
   -3.6080   -2.3640    0.1410 N   0  0  0  0  0  0  0  0  0  0  0  0
   -4.2240   -1.1060    0.3820 C   0  0  0  0  0  0  0  0  0  0  0  0
   -3.8300   -0.3040    1.4570 C   0  0  0  0  0  0  0  0  0  0  0  0
   -4.4310    0.9160    1.6870 C   0  0  0  0  0  0  0  0  0  0  0  0
   -5.4330    1.3550    0.8490 C   0  0  0  0  0  0  0  0  0  0  0  0
   -5.8630    0.5900   -0.2420 C   0  0  0  0  0  0  0  0  0  0  0  0
   -6.8900    1.0500   -1.0940 N   0  0  0  0  0  0  0  0  0  0  0  0
   -5.2310   -0.6180   -0.4250 C   0  0  0  0  0  0  0  0  0  0  0  0
   -0.4000    1.0010   -1.4040 C   0  0  0  0  0  0  0  0  0  0  0  0
    0.5870    1.8610   -1.7640 C   0  0  0  0  0  0  0  0  0  0  0  0
    1.9040    1.6090   -1.3790 C   0  0  0  0  0  0  0  0  0  0  0  0
    2.8640    2.5100   -1.7650 O   0  0  0  0  0  0  0  0  0  0  0  0
    4.6380    0.7570   -0.6680 C   0  0  0  0  0  0  0  0  0  0  0  0
  1  2  1  0
  2  3  2  0
  2 26  1  0
  3  4  1  0
  4  5  2  0
  5  6  1  0
  6  7  1  0
  6 26  2  0
  7  8  2  0
  7 24  1  0
  8  9  1  0
  9 10  1  0
  9 22  2  0
 10 11  1  0
 11 12  2  0
 11 13  1  0
 13 14  1  0
 14 15  1  0
 15 16  2  0
 15 21  1  0
 16 17  1  0
 17 18  2  0
 18 19  1  0
 19 20  1  0
 19 21  2  0
 22 23  1  0
 23 24  2  0
 24 25  1  0
M  CHG  1   5   1
M  END
