
     RDKit          3D

 26 28  0  0  0  0  0  0  0  0999 V2000
    9.0260    0.3080    0.1930 C   0  0  0  0  0  0  0  0  0  0  0  0
    7.5900    0.1540    0.4400 N   0  0  0  0  0  0  0  0  0  0  0  0
    6.7130    0.4950   -0.6090 C   0  0  0  0  0  0  0  0  0  0  0  0
    7.1910    0.9160   -1.7080 O   0  0  0  0  0  0  0  0  0  0  0  0
    5.2530    0.3860   -0.4870 C   0  0  0  0  0  0  0  0  0  0  0  0
    4.6300   -0.0570    0.6570 C   0  0  0  0  0  0  0  0  0  0  0  0
    3.2410   -0.1490    0.7390 C   0  0  0  0  0  0  0  0  0  0  0  0
    2.4380    0.2010   -0.3250 C   0  0  0  0  0  0  0  0  0  0  0  0
    0.9830    0.1000   -0.2300 C   0  0  0  0  0  0  0  0  0  0  0  0
    0.1790    1.1290   -0.6810 C   0  0  0  0  0  0  0  0  0  0  0  0
   -1.1790    0.9800   -0.5660 C   0  0  0  0  0  0  0  0  0  0  0  0
   -1.7760   -0.1320   -0.0290 C   0  0  0  0  0  0  0  0  0  0  0  0
   -3.1960   -0.2500    0.0740 N   0  0  0  0  0  0  0  0  0  0  0  0
   -4.0600    0.7970   -0.3840 C   0  0  0  0  0  0  0  0  0  0  0  0
   -5.4670    0.4130   -0.1410 C   0  0  0  0  0  0  0  0  0  0  0  0
   -6.4660    0.7570   -1.0520 C   0  0  0  0  0  0  0  0  0  0  0  0
   -7.7900    0.4210   -0.8610 C   0  0  0  0  0  0  0  0  0  0  0  0
   -8.1600   -0.2810    0.2650 C   0  0  0  0  0  0  0  0  0  0  0  0
   -7.2050   -0.6370    1.1840 C   0  0  0  0  0  0  0  0  0  0  0  0
   -7.5230   -1.3440    2.3340 O   0  0  0  0  0  0  0  0  0  0  0  0
   -5.8650   -0.2890    0.9760 C   0  0  0  0  0  0  0  0  0  0  0  0
   -0.9700   -1.1150    0.4010 N   0  0  0  0  0  0  0  0  0  0  0  0
    0.3770   -1.0110    0.3070 C   0  0  0  0  0  0  0  0  0  0  0  0
    1.2240   -2.0810    0.7750 N   0  0  0  0  0  0  0  0  0  0  0  0
    3.0550    0.6450   -1.4750 C   0  0  0  0  0  0  0  0  0  0  0  0
    4.4280    0.7350   -1.5520 C   0  0  0  0  0  0  0  0  0  0  0  0
  1  2  1  0
  2  3  1  0
  3  4  2  0
  3  5  1  0
  5  6  2  0
  5 26  1  0
  6  7  1  0
  7  8  2  0
  8  9  1  0
  8 25  1  0
  9 10  2  0
  9 23  1  0
 10 11  1  0
 11 12  2  0
 12 13  1  0
 12 22  1  0
 13 14  1  0
 14 15  1  0
 15 16  2  0
 15 21  1  0
 16 17  1  0
 17 18  2  0
 18 19  1  0
 19 20  1  0
 19 21  2  0
 22 23  2  0
 23 24  1  0
 25 26  2  0
M  CHG  1  22   1
M  END
