
     RDKit          3D

 26 28  0  0  0  0  0  0  0  0999 V2000
    7.5870   -1.8700    0.5070 C   0  0  0  0  0  0  0  0  0  0  0  0
    6.9080   -0.6230    0.9790 C   0  0  0  0  0  0  0  0  0  0  0  0
    5.4650   -0.6640    0.6750 N   0  0  0  0  0  0  0  0  0  0  0  0
    5.1900    0.4940   -0.1200 C   0  0  0  0  0  0  0  0  0  0  0  0
    3.7940    0.8140   -0.3700 C   0  0  0  0  0  0  0  0  0  0  0  0
    2.7240    0.1010    0.1000 C   0  0  0  0  0  0  0  0  0  0  0  0
    1.4190    0.4570   -0.1750 C   0  0  0  0  0  0  0  0  0  0  0  0
    0.2850   -0.1810    0.3570 N   0  0  0  0  0  0  0  0  0  0  0  0
   -0.9820   -0.2140   -0.2380 C   0  0  0  0  0  0  0  0  0  0  0  0
   -1.1320    0.3060   -1.3960 O   0  0  0  0  0  0  0  0  0  0  0  0
   -2.1730   -0.7820    0.3380 N   0  0  0  0  0  0  0  0  0  0  0  0
   -3.3610   -0.7190   -0.4510 C   0  0  0  0  0  0  0  0  0  0  0  0
   -4.6330   -0.8610    0.2540 C   0  0  0  0  0  0  0  0  0  0  0  0
   -5.1820   -1.8440    1.0430 C   0  0  0  0  0  0  0  0  0  0  0  0
   -4.4650   -3.0830    1.4880 C   0  0  0  0  0  0  0  0  0  0  0  0
   -6.4230   -1.5290    1.3470 O   0  0  0  0  0  0  0  0  0  0  0  0
   -6.7510   -0.3840    0.8020 C   0  0  0  0  0  0  0  0  0  0  0  0
   -7.9220    0.3630    0.8060 C   0  0  0  0  0  0  0  0  0  0  0  0
   -7.9930    1.5590    0.1150 C   0  0  0  0  0  0  0  0  0  0  0  0
   -6.9200    2.0500   -0.5960 C   0  0  0  0  0  0  0  0  0  0  0  0
   -5.7740    1.2840   -0.5760 C   0  0  0  0  0  0  0  0  0  0  0  0
   -5.6630    0.0900    0.1030 C   0  0  0  0  0  0  0  0  0  0  0  0
    1.2300    1.5810   -0.9690 C   0  0  0  0  0  0  0  0  0  0  0  0
    2.3110    2.3120   -1.4530 C   0  0  0  0  0  0  0  0  0  0  0  0
    3.5850    1.9540   -1.1700 C   0  0  0  0  0  0  0  0  0  0  0  0
    4.7360    2.6950   -1.6560 N   0  0  0  0  0  0  0  0  0  0  0  0
  1  2  1  0
  2  3  1  0
  3  4  1  0
  4  5  1  0
  5  6  2  0
  5 25  1  0
  6  7  1  0
  7  8  1  0
  7 23  2  0
  8  9  1  0
  9 10  2  0
  9 11  1  0
 11 12  1  0
 12 13  1  0
 13 14  2  0
 13 22  1  0
 14 15  1  0
 14 16  1  0
 16 17  1  0
 17 18  2  0
 17 22  1  0
 18 19  1  0
 19 20  2  0
 20 21  1  0
 21 22  2  0
 23 24  1  0
 24 25  2  0
 25 26  1  0
M  CHG  1   3   1
M  END
