
     RDKit          3D

 23 25  0  0  0  0  0  0  0  0999 V2000
   -6.2400    0.7070   -1.2170 C   0  0  0  0  0  0  0  0  0  0  0  0
   -5.1620    0.4960   -0.4440 C   0  0  0  0  0  0  0  0  0  0  0  0
   -4.2460   -0.5770   -0.7750 C   0  0  0  0  0  0  0  0  0  0  0  0
   -3.1310   -0.8410   -0.1170 C   0  0  0  0  0  0  0  0  0  0  0  0
   -2.2880   -1.9490   -0.5470 C   0  0  0  0  0  0  0  0  0  0  0  0
   -0.9190   -1.6580   -1.0020 C   0  0  0  0  0  0  0  0  0  0  0  0
   -0.0060   -1.0200   -0.1380 N   0  0  0  0  0  0  0  0  0  0  0  0
    0.1460    0.4250   -0.1800 C   0  0  0  0  0  0  0  0  0  0  0  0
    1.6350    0.6430   -0.4930 C   0  0  0  0  0  0  0  0  0  0  0  0
    2.4790   -0.0160    0.4650 N   0  0  0  0  0  0  0  0  0  0  0  0
    3.8790    0.2100    0.4510 C   0  0  0  0  0  0  0  0  0  0  0  0
    4.5870    0.9980   -0.3770 N   0  0  0  0  0  0  0  0  0  0  0  0
    5.8900    0.9500   -0.0740 C   0  0  0  0  0  0  0  0  0  0  0  0
    7.0230    1.6590   -0.7260 C   0  0  0  0  0  0  0  0  0  0  0  0
    5.9920    0.1080    0.9690 N   0  0  0  0  0  0  0  0  0  0  0  0
    4.7980   -0.3330    1.2830 N   0  0  0  0  0  0  0  0  0  0  0  0
    1.9080   -0.9100    1.4470 C   0  0  0  0  0  0  0  0  0  0  0  0
    0.8420   -1.6860    0.7830 C   0  0  0  0  0  0  0  0  0  0  0  0
    0.7170   -2.8990    1.0490 O   0  0  0  0  0  0  0  0  0  0  0  0
   -2.8520    0.0080    1.0340 C   0  0  0  0  0  0  0  0  0  0  0  0
   -3.6720    0.9820    1.3860 C   0  0  0  0  0  0  0  0  0  0  0  0
   -3.2110    1.9400    2.8090 Cl  0  0  0  0  0  0  0  0  0  0  0  0
   -4.9210    1.3500    0.7260 C   0  0  0  0  0  0  0  0  0  0  0  0
  1  2  2  0
  2  3  1  0
  2 23  1  0
  3  4  2  0
  4  5  1  0
  4 20  1  0
  5  6  1  0
  6  7  1  0
  7  8  1  0
  7 18  1  0
  8  9  1  0
  9 10  1  0
 10 11  1  0
 10 17  1  0
 11 12  2  0
 11 16  1  0
 12 13  1  0
 13 14  1  0
 13 15  2  0
 15 16  1  0
 17 18  1  0
 18 19  2  0
 20 21  2  0
 21 22  1  0
 21 23  1  0
M  END
