
     RDKit          3D

  9  9  0  0  0  0  0  0  0  0999 V2000
    3.8540    0.1240   -1.0120 O   0  0  0  0  0  0  0  0  0  0  0  0
    2.8410    0.1340   -0.0730 C   0  0  0  0  0  0  0  0  0  0  0  0
    1.5850    0.0060   -0.6560 O   0  0  0  0  0  0  0  0  0  0  0  0
    0.5820    0.0180    0.2900 C   0  0  1  0  0  0  0  0  0  0  0  0
   -0.3410    1.2290    0.1250 C   0  0  0  0  0  0  0  0  0  0  0  0
   -1.5890    0.9010    0.9430 C   0  0  0  0  0  0  0  0  0  0  0  0
   -2.4730    0.0640    0.0140 C   0  0  0  0  0  0  0  0  0  0  0  0
   -1.5380   -0.9160   -0.6850 C   0  0  0  0  0  0  0  0  0  0  0  0
   -0.3040   -1.1950    0.1710 C   0  0  0  0  0  0  0  0  0  0  0  0
  1  2  1  0
  2  3  1  0
  4  3  1  6
  4  5  1  0
  4  9  1  0
  5  6  1  0
  6  7  1  0
  7  8  1  0
  8  9  1  0
M  END
