
     RDKit          3D

 23 25  0  0  0  0  0  0  0  0999 V2000
   -0.3470    2.5680   -1.9600 C   0  0  0  0  0  0  0  0  0  0  0  0
    0.4590    1.5370   -1.2350 C   0  0  0  0  0  0  0  0  0  0  0  0
    1.8090    1.3810   -1.4610 C   0  0  0  0  0  0  0  0  0  0  0  0
    2.5260    0.4510   -0.8050 N   0  0  0  0  0  0  0  0  0  0  0  0
    1.9760   -0.3760    0.1030 C   0  0  0  0  0  0  0  0  0  0  0  0
    2.7530   -1.3590    0.7900 N   0  0  0  0  0  0  0  0  0  0  0  0
    4.1460   -1.5230    0.5600 C   0  0  0  0  0  0  0  0  0  0  0  0
    5.1590   -1.5540    1.3950 C   0  0  0  0  0  0  0  0  0  0  0  0
    6.4170   -1.7500    0.6520 C   0  0  0  0  0  0  0  0  0  0  0  0
    8.0480   -1.7620    1.2410 Cl  0  0  0  0  0  0  0  0  0  0  0  0
    6.0170   -1.9190   -0.5970 C   0  0  0  0  0  0  0  0  0  0  0  0
    4.7230   -1.7010   -0.7680 C   0  0  0  0  0  0  0  0  0  0  0  0
    0.6270   -0.2230    0.3310 C   0  0  0  0  0  0  0  0  0  0  0  0
    0.0730   -0.9590    1.1560 O   0  0  0  0  0  0  0  0  0  0  0  0
   -0.1020    0.7150   -0.3290 N   0  0  0  0  0  0  0  0  0  0  0  0
   -1.4640    0.8820   -0.1110 N   0  0  0  0  0  0  0  0  0  0  0  0
   -2.2500   -0.1200   -0.2800 C   0  0  0  0  0  0  0  0  0  0  0  0
   -3.7040   -0.0090   -0.0650 C   0  0  0  0  0  0  0  0  0  0  0  0
   -4.2800    1.1820    0.3290 C   0  0  0  0  0  0  0  0  0  0  0  0
   -5.6330    1.3070    0.5350 C   0  0  0  0  0  0  0  0  0  0  0  0
   -6.4430    0.2450    0.3530 N   0  0  0  0  0  0  0  0  0  0  0  0
   -5.8880   -0.9330   -0.0350 C   0  0  0  0  0  0  0  0  0  0  0  0
   -4.5420   -1.0750   -0.2450 C   0  0  0  0  0  0  0  0  0  0  0  0
  1  2  1  0
  2  3  2  0
  2 15  1  0
  3  4  1  0
  4  5  2  0
  5  6  1  0
  5 13  1  0
  6  7  1  0
  7  8  2  0
  7 12  1  0
  8  9  1  0
  9 10  1  0
  9 11  2  0
 11 12  2  0
 13 14  2  0
 13 15  1  0
 15 16  1  0
 16 17  2  3
 17 18  1  0
 18 19  2  0
 18 23  1  0
 19 20  1  0
 20 21  2  0
 21 22  1  0
 22 23  2  0
M  END
