
     RDKit          3D

  9  9  0  0  0  0  0  0  0  0999 V2000
    3.9270   -0.3710    0.2830 O   0  0  0  0  0  0  0  0  0  0  0  0
    2.5930   -0.7360    0.4450 C   0  0  0  0  0  0  0  0  0  0  0  0
    1.6920    0.3670   -0.0450 C   0  0  0  0  0  0  0  0  0  0  0  0
    0.2410    0.0580    0.0930 C   0  0  1  0  0  0  0  0  0  0  0  0
   -0.5330    1.2610   -0.4420 C   0  0  0  0  0  0  0  0  0  0  0  0
   -1.9360    1.0810    0.0520 C   0  0  0  0  0  0  0  0  0  0  0  0
   -2.4490   -0.2930   -0.1290 C   0  0  0  0  0  0  0  0  0  0  0  0
   -1.4610   -1.3780   -0.2410 C   0  0  0  0  0  0  0  0  0  0  0  0
   -0.1940   -1.0250   -0.6290 O   0  0  0  0  0  0  0  0  0  0  0  0
  1  2  1  0
  2  3  1  0
  4  3  1  6
  4  5  1  0
  4  9  1  0
  5  6  1  0
  6  7  1  0
  7  8  1  0
  8  9  1  0
M  END
