
     RDKit          3D

 10  9  0  0  0  0  0  0  0  0999 V2000
   -3.1010   -1.2200    0.2890 C   0  0  0  0  0  0  0  0  0  0  0  0
   -1.6880   -0.7570    0.3360 C   0  0  0  0  0  0  0  0  0  0  0  0
   -1.2770    0.3330   -0.2650 C   0  0  0  0  0  0  0  0  0  0  0  0
   -2.2440    1.1470   -1.0250 C   0  0  0  0  0  0  0  0  0  0  0  0
    0.1030    0.7690   -0.2080 C   0  0  0  0  0  0  0  0  0  0  0  0
    0.4860    1.8350   -0.8000 O   0  0  0  0  0  0  0  0  0  0  0  0
    1.0820    0.0530    0.4920 O   0  0  0  0  0  0  0  0  0  0  0  0
    2.3920    0.5350    0.5030 C   0  0  0  0  0  0  0  0  0  0  0  0
    3.3410   -0.3110    1.2790 C   0  0  0  0  0  0  0  0  0  0  0  0
    3.4230   -1.6050    0.7810 O   0  0  0  0  0  0  0  0  0  0  0  0
  1  2  1  0
  2  3  2  3
  3  4  1  0
  3  5  1  0
  5  6  2  0
  5  7  1  0
  7  8  1  0
  8  9  1  0
  9 10  1  0
M  END
