
     RDKit          3D

  9  9  0  0  0  0  0  0  0  0999 V2000
    3.6140   -0.1010    0.6790 O   0  0  0  0  0  0  0  0  0  0  0  0
    3.0970    0.4370   -0.4950 C   0  0  0  0  0  0  0  0  0  0  0  0
    1.6630    0.8290   -0.2670 C   0  0  0  0  0  0  0  0  0  0  0  0
    0.8230   -0.3870    0.1360 C   0  0  0  0  0  0  0  0  0  0  0  0
   -0.5830    0.1210    0.3360 C   0  0  2  0  0  0  0  0  0  0  0  0
   -1.5360   -0.9860    0.7430 C   0  0  0  0  0  0  0  0  0  0  0  0
   -2.8550   -0.2840    0.3860 C   0  0  0  0  0  0  0  0  0  0  0  0
   -2.4350    0.4190   -0.8810 C   0  0  0  0  0  0  0  0  0  0  0  0
   -1.1000    0.7310   -0.7700 O   0  0  0  0  0  0  0  0  0  0  0  0
  1  2  1  0
  2  3  1  0
  3  4  1  0
  5  4  1  6
  5  6  1  0
  5  9  1  0
  6  7  1  0
  7  8  1  0
  8  9  1  0
M  END
