
     RDKit          3D

 22 23  0  0  0  0  0  0  0  0999 V2000
    6.6010    2.1810   -1.2900 O   0  0  0  0  0  0  0  0  0  0  0  0
    6.7790    1.3110   -0.4050 N   0  0  0  0  0  0  0  0  0  0  0  0
    5.7250    0.8350    0.3890 C   0  0  0  0  0  0  0  0  0  0  0  0
    5.8480    0.7640    1.6200 O   0  0  0  0  0  0  0  0  0  0  0  0
    4.4800    0.4230   -0.2310 C   0  0  0  0  0  0  0  0  0  0  0  0
    3.4560   -0.0320    0.4660 C   0  0  0  0  0  0  0  0  0  0  0  0
    2.1830   -0.4610   -0.0820 C   0  0  0  0  0  0  0  0  0  0  0  0
    1.8700   -0.4520   -1.4180 C   0  0  0  0  0  0  0  0  0  0  0  0
    0.6230   -0.8800   -1.8800 C   0  0  0  0  0  0  0  0  0  0  0  0
   -0.3380   -1.3270   -1.0100 C   0  0  0  0  0  0  0  0  0  0  0  0
   -0.0400   -1.3430    0.3370 C   0  0  0  0  0  0  0  0  0  0  0  0
   -1.2420   -1.9090    1.4880 S   0  0  1  0  0  0  0  0  0  0  0  0
   -2.0810   -2.9660    0.8440 O   0  0  0  0  0  0  0  0  0  0  0  0
   -0.5690   -2.5080    2.6890 O   0  0  0  0  0  0  0  0  0  0  0  0
   -2.1670   -0.5350    1.9640 N   0  0  0  0  0  0  0  0  0  0  0  0
   -2.9100    0.1760    0.9840 C   0  0  0  0  0  0  0  0  0  0  0  0
   -2.8720    1.5710    0.9600 C   0  0  0  0  0  0  0  0  0  0  0  0
   -3.5850    2.2730    0.0190 C   0  0  0  0  0  0  0  0  0  0  0  0
   -4.3560    1.6290   -0.9260 C   0  0  0  0  0  0  0  0  0  0  0  0
   -4.3890    0.2380   -0.8950 C   0  0  0  0  0  0  0  0  0  0  0  0
   -3.6730   -0.4820    0.0500 C   0  0  0  0  0  0  0  0  0  0  0  0
    1.1920   -0.9200    0.7870 C   0  0  0  0  0  0  0  0  0  0  0  0
  1  2  2  0
  2  3  1  0
  3  4  2  0
  3  5  1  0
  5  6  2  3
  6  7  1  0
  7  8  2  0
  7 22  1  0
  8  9  1  0
  9 10  2  0
 10 11  1  0
 11 12  1  0
 11 22  2  0
 12 13  2  0
 12 14  2  0
 12 15  1  1
 15 16  1  0
 16 17  2  0
 16 21  1  0
 17 18  1  0
 18 19  2  0
 19 20  1  0
 20 21  2  0
M  END
