
     RDKit          3D

 10 10  0  0  0  0  0  0  0  0999 V2000
    3.4300    0.8420    0.3450 C   0  0  0  0  0  0  0  0  0  0  0  0
    2.3810   -0.1090   -0.1600 C   0  0  0  0  0  0  0  0  0  0  0  0
    1.0830    0.3140    0.1370 O   0  0  0  0  0  0  0  0  0  0  0  0
    0.2140   -0.6380   -0.3760 C   0  0  0  0  0  0  0  0  0  0  0  0
   -1.2010   -0.2790   -0.1100 C   0  0  2  0  0  0  0  0  0  0  0  0
   -1.6590    1.0360   -0.7000 C   0  0  0  0  0  0  0  0  0  0  0  0
   -0.8960    2.1000   -0.1920 O   0  0  0  0  0  0  0  0  0  0  0  0
   -1.7250   -0.5540    1.2740 C   0  0  0  0  0  0  0  0  0  0  0  0
   -2.9700   -0.8030    0.6680 O   0  0  0  0  0  0  0  0  0  0  0  0
   -2.2220   -1.3600   -0.3960 C   0  0  0  0  0  0  0  0  0  0  0  0
  1  2  1  0
  2  3  1  0
  3  4  1  0
  5  4  1  1
  5  6  1  0
  5  8  1  0
  5 10  1  0
  6  7  1  0
  8  9  1  0
  9 10  1  0
M  END
