
     RDKit          3D

  9  9  0  0  0  0  0  0  0  0999 V2000
    3.5630   -0.2540   -0.3770 O   0  0  0  0  0  0  0  0  0  0  0  0
    2.1710   -0.2780   -0.5530 C   0  0  0  0  0  0  0  0  0  0  0  0
    1.5000    0.1780    0.7250 C   0  0  0  0  0  0  0  0  0  0  0  0
    0.0110    0.1600    0.5590 C   0  0  1  0  0  0  0  0  0  0  0  0
   -0.4500    1.0750   -0.5580 C   0  0  0  0  0  0  0  0  0  0  0  0
   -1.9700    1.2000   -0.3960 C   0  0  0  0  0  0  0  0  0  0  0  0
   -2.4730    0.2560    0.4730 O   0  0  0  0  0  0  0  0  0  0  0  0
   -2.0740   -1.0350    0.1980 C   0  0  0  0  0  0  0  0  0  0  0  0
   -0.5560   -1.2020    0.2960 C   0  0  0  0  0  0  0  0  0  0  0  0
  1  2  1  0
  2  3  1  0
  4  3  1  6
  4  5  1  0
  4  9  1  0
  5  6  1  0
  6  7  1  0
  7  8  1  0
  8  9  1  0
M  END
