
     RDKit          3D

 23 25  0  0  0  0  0  0  0  0999 V2000
   -4.8610    2.3530   -0.0580 C   0  0  0  0  0  0  0  0  0  0  0  0
   -3.5080    2.1590    0.4800 C   0  0  0  0  0  0  0  0  0  0  0  0
   -2.6990    3.3240    0.9020 C   0  0  0  0  0  0  0  0  0  0  0  0
   -2.9990    0.9590    0.5940 C   0  0  0  0  0  0  0  0  0  0  0  0
   -3.8360   -0.2110    0.1610 C   0  0  0  0  0  0  0  0  0  0  0  0
   -2.9500   -0.9610   -0.7450 N   0  0  0  0  0  0  0  0  0  0  0  0
   -1.6430   -1.3180   -0.2790 C   0  0  0  0  0  0  0  0  0  0  0  0
   -1.0880   -2.4160   -0.7470 C   0  0  0  0  0  0  0  0  0  0  0  0
   -1.6890   -3.3430   -1.7270 C   0  0  0  0  0  0  0  0  0  0  0  0
   -1.8390   -4.9780   -1.0160 Cl  0  0  0  0  0  0  0  0  0  0  0  0
   -0.9920   -0.4790    0.6720 N   0  0  0  0  0  0  0  0  0  0  0  0
    0.3160   -0.8320    1.1330 C   0  0  0  0  0  0  0  0  0  0  0  0
    1.4170   -0.3060    0.3320 C   0  0  0  0  0  0  0  0  0  0  0  0
    1.3300    0.4490   -0.7570 N   0  0  0  0  0  0  0  0  0  0  0  0
    2.5460    0.7080   -1.1760 N   0  0  0  0  0  0  0  0  0  0  0  0
    3.4250    0.1170   -0.3520 C   0  0  0  0  0  0  0  0  0  0  0  0
    4.9130    0.1430   -0.4430 C   0  0  1  0  0  0  0  0  0  0  0  0
    5.5080    0.0560   -1.8580 C   0  0  0  0  0  0  0  0  0  0  0  0
    5.5440    1.3490   -1.0610 C   0  0  0  0  0  0  0  0  0  0  0  0
    2.7120   -0.5160    0.5890 N   0  0  0  0  0  0  0  0  0  0  0  0
    3.2550   -1.3060    1.7120 C   0  0  0  0  0  0  0  0  0  0  0  0
   -1.6820    0.6790    1.1130 C   0  0  0  0  0  0  0  0  0  0  0  0
   -1.1550    1.4310    1.9310 O   0  0  0  0  0  0  0  0  0  0  0  0
  1  2  1  0
  2  3  1  0
  2  4  2  3
  4  5  1  0
  4 22  1  0
  5  6  1  0
  6  7  1  0
  7  8  2  3
  7 11  1  0
  8  9  1  0
  9 10  1  0
 11 12  1  0
 11 22  1  0
 12 13  1  0
 13 14  2  0
 13 20  1  0
 14 15  1  0
 15 16  2  0
 17 16  1  6
 16 20  1  0
 17 18  1  0
 17 19  1  0
 18 19  1  0
 20 21  1  0
 22 23  2  0
M  END
