
     RDKit          3D

 26 28  0  0  0  0  0  0  0  0999 V2000
    0.2990    3.2310    0.5590 C   0  0  0  0  0  0  0  0  0  0  0  0
    0.1430    1.8820   -0.0200 C   0  0  0  0  0  0  0  0  0  0  0  0
    1.2360    1.0030   -0.0000 C   0  0  0  0  0  0  0  0  0  0  0  0
    1.1570   -0.2600   -0.5180 C   0  0  0  0  0  0  0  0  0  0  0  0
    2.2350   -1.2400   -0.4590 C   0  0  0  0  0  0  0  0  0  0  0  0
    2.1090   -2.2580   -1.3030 O   0  0  0  0  0  0  0  0  0  0  0  0
    3.3450   -1.2460    0.3460 N   0  0  0  0  0  0  0  0  0  0  0  0
    3.6610   -0.3450    1.3950 C   0  0  0  0  0  0  0  0  0  0  0  0
    4.9480    0.4020    1.1020 C   0  0  0  0  0  0  0  0  0  0  0  0
    6.0400   -0.5810    0.7180 C   0  0  2  0  0  0  0  0  0  0  0  0
    7.2790    0.2280    0.4160 C   0  0  0  0  0  0  0  0  0  0  0  0
    5.6050   -1.4320   -0.4200 C   0  0  0  0  0  0  0  0  0  0  0  0
    4.4040   -2.2750    0.0290 C   0  0  0  0  0  0  0  0  0  0  0  0
   -0.0710   -0.6620   -1.0840 C   0  0  0  0  0  0  0  0  0  0  0  0
   -1.1720    0.1960   -1.1150 C   0  0  0  0  0  0  0  0  0  0  0  0
   -2.4230   -0.3220   -1.6660 C   0  0  2  0  0  0  0  0  0  0  0  0
   -2.1570   -1.7020   -2.3300 C   0  0  0  0  0  0  0  0  0  0  0  0
   -2.7890    0.4710   -2.9660 C   0  0  0  0  0  0  0  0  0  0  0  0
   -3.5480   -0.4970   -0.8890 N   0  0  0  0  0  0  0  0  0  0  0  0
   -4.1540    0.4080   -0.0420 C   0  0  0  0  0  0  0  0  0  0  0  0
   -5.4120   -0.1650    0.6440 C   0  0  1  0  0  0  0  0  0  0  0  0
   -5.1860   -1.3680    1.4830 C   0  0  0  0  0  0  0  0  0  0  0  0
   -5.9930   -0.7170    2.5900 C   0  0  0  0  0  0  0  0  0  0  0  0
   -5.8010    0.6090    1.8820 C   0  0  0  0  0  0  0  0  0  0  0  0
   -1.0540    1.4480   -0.5880 C   0  0  0  0  0  0  0  0  0  0  0  0
   -2.1230    2.3210   -0.6130 O   0  0  0  0  0  0  0  0  0  0  0  0
  1  2  1  0
  2  3  2  0
  2 25  1  0
  3  4  1  0
  4  5  1  0
  4 14  2  0
  5  6  2  0
  5  7  1  0
  7  8  1  0
  7 13  1  0
  8  9  1  0
  9 10  1  0
 10 11  1  6
 10 12  1  0
 12 13  1  0
 14 15  1  0
 15 16  1  0
 15 25  2  0
 16 17  1  6
 16 18  1  0
 16 19  1  0
 19 20  1  0
 21 20  1  1
 21 22  1  0
 21 24  1  0
 22 23  1  0
 23 24  1  0
 25 26  1  0
M  END
