
     RDKit          3D

 17 19  0  0  0  0  0  0  0  0999 V2000
    5.4090    0.3940    0.5140 C   0  0  0  0  0  0  0  0  0  0  0  0
    4.0530    0.4690    1.0170 N   0  0  0  0  0  0  0  0  0  0  0  0
    2.9940   -0.0110    0.1960 C   0  0  0  0  0  0  0  0  0  0  0  0
    3.2300   -0.5420   -1.0460 C   0  0  0  0  0  0  0  0  0  0  0  0
    2.1660   -0.9930   -1.8050 C   0  0  0  0  0  0  0  0  0  0  0  0
    0.8560   -0.9340   -1.3650 C   0  0  0  0  0  0  0  0  0  0  0  0
    0.6040   -0.4050   -0.1240 C   0  0  0  0  0  0  0  0  0  0  0  0
   -0.7570   -0.3040    0.4060 C   0  0  0  0  0  0  0  0  0  0  0  0
   -1.7730    0.0320   -0.3530 C   0  0  0  0  0  0  0  0  0  0  0  0
   -1.8890    0.3770   -1.7850 C   0  0  0  0  0  0  0  0  0  0  0  0
   -3.1200    1.2990   -1.7770 C   0  0  0  0  0  0  0  0  0  0  0  0
   -4.0830    0.5260   -0.8880 C   0  0  0  0  0  0  0  0  0  0  0  0
   -3.1330    0.1030    0.2010 C   0  0  0  0  0  0  0  0  0  0  0  0
   -3.3570   -0.1710    1.4600 C   0  0  0  0  0  0  0  0  0  0  0  0
   -2.3070   -0.5590    2.3870 C   0  0  0  0  0  0  0  0  0  0  0  0
   -0.9520   -0.5860    1.8360 C   0  0  0  0  0  0  0  0  0  0  0  0
    1.6950    0.0460    0.6280 C   0  0  0  0  0  0  0  0  0  0  0  0
  1  2  1  0
  2  3  1  0
  3  4  2  0
  3 17  1  0
  4  5  1  0
  5  6  2  0
  6  7  1  0
  7  8  1  0
  7 17  2  0
  8  9  2  0
  8 16  1  0
  9 10  1  0
  9 13  1  0
 10 11  1  0
 11 12  1  0
 12 13  1  0
 13 14  2  0
 14 15  1  0
 15 16  1  0
M  END
