
     RDKit          3D

 17 19  0  0  0  0  0  0  0  0999 V2000
   -0.6470    0.8720    0.2120 C   0  0  0  0  0  0  0  0  0  0  0  0
    0.4390    0.2030   -0.0970 C   0  0  0  0  0  0  0  0  0  0  0  0
    1.7680    0.7230    0.0130 C   0  0  0  0  0  0  0  0  0  0  0  0
    1.9820    2.0030    0.4680 C   0  0  0  0  0  0  0  0  0  0  0  0
    3.3110    2.4340    0.5460 C   0  0  0  0  0  0  0  0  0  0  0  0
    4.3600    1.6170    0.1850 C   0  0  0  0  0  0  0  0  0  0  0  0
    4.0980    0.3390   -0.2670 C   0  0  0  0  0  0  0  0  0  0  0  0
    4.9270   -0.6910   -0.6930 C   0  0  0  0  0  0  0  0  0  0  0  0
    4.0930   -1.7270   -1.0220 C   0  0  0  0  0  0  0  0  0  0  0  0
    2.8190   -1.4020   -0.8270 N   0  0  0  0  0  0  0  0  0  0  0  0
    2.8200   -0.1190   -0.3580 C   0  0  0  0  0  0  0  0  0  0  0  0
   -1.9890    0.3010    0.0840 C   0  0  0  0  0  0  0  0  0  0  0  0
   -3.0480    1.0080    0.4040 C   0  0  0  0  0  0  0  0  0  0  0  0
   -4.4220    0.4600    0.2860 C   0  0  0  0  0  0  0  0  0  0  0  0
   -4.4050   -0.9980    0.5990 C   0  0  0  0  0  0  0  0  0  0  0  0
   -3.4570   -1.6870   -0.3500 C   0  0  0  0  0  0  0  0  0  0  0  0
   -2.1090   -1.0700   -0.4050 C   0  0  0  0  0  0  0  0  0  0  0  0
  1  2  2  3
  1 12  1  0
  2  3  1  0
  3  4  2  0
  3 11  1  0
  4  5  1  0
  5  6  2  0
  6  7  1  0
  7  8  1  0
  7 11  2  0
  8  9  2  0
  9 10  1  0
 10 11  1  0
 12 13  2  0
 12 17  1  0
 13 14  1  0
 14 15  1  0
 15 16  1  0
 16 17  1  0
M  END
