
     RDKit          3D

 17 19  0  0  0  0  0  0  0  0999 V2000
   -5.7660    1.5940   -0.9410 C   0  0  0  0  0  0  0  0  0  0  0  0
   -4.6570    1.0520   -0.4560 C   0  0  0  0  0  0  0  0  0  0  0  0
   -3.9860   -0.1520   -0.9680 C   0  0  0  0  0  0  0  0  0  0  0  0
   -2.5780    0.0010   -0.4630 C   0  0  0  0  0  0  0  0  0  0  0  0
   -1.2950   -0.4910   -0.6040 C   0  0  0  0  0  0  0  0  0  0  0  0
   -0.4590    0.1850    0.2530 C   0  0  0  0  0  0  0  0  0  0  0  0
    0.9750   -0.0290    0.4160 C   0  0  0  0  0  0  0  0  0  0  0  0
    1.7330    0.7030    1.3060 C   0  0  0  0  0  0  0  0  0  0  0  0
    3.0830    0.5280    1.4840 C   0  0  0  0  0  0  0  0  0  0  0  0
    3.7320   -0.4370    0.7310 C   0  0  0  0  0  0  0  0  0  0  0  0
    5.1790   -0.6160    0.9300 C   0  0  0  0  0  0  0  0  0  0  0  0
    2.9910   -1.1790   -0.1650 C   0  0  0  0  0  0  0  0  0  0  0  0
    3.7040   -2.2030   -0.9590 C   0  0  0  0  0  0  0  0  0  0  0  0
    1.6390   -0.9840   -0.3240 C   0  0  0  0  0  0  0  0  0  0  0  0
   -1.2410    1.0660    0.8930 N   0  0  0  0  0  0  0  0  0  0  0  0
   -2.5260    0.9900    0.4920 C   0  0  0  0  0  0  0  0  0  0  0  0
   -3.8980    1.5810    0.7060 C   0  0  0  0  0  0  0  0  0  0  0  0
  1  2  2  0
  2  3  1  0
  2 17  1  0
  3  4  1  0
  4  5  1  0
  4 16  2  0
  5  6  2  0
  6  7  1  0
  6 15  1  0
  7  8  2  0
  7 14  1  0
  8  9  1  0
  9 10  2  0
 10 11  1  0
 10 12  1  0
 12 13  1  0
 12 14  2  0
 15 16  1  0
 16 17  1  0
M  END
