
     RDKit          3D

 17 19  0  0  0  0  0  0  0  0999 V2000
   -4.4660    0.0440   -0.3480 C   0  0  0  0  0  0  0  0  0  0  0  0
   -3.9920    1.2080   -0.7960 C   0  0  0  0  0  0  0  0  0  0  0  0
   -2.5970    1.5020   -0.4010 C   0  0  0  0  0  0  0  0  0  0  0  0
   -1.6980    0.3470   -0.7820 C   0  0  1  0  0  0  0  0  0  0  0  0
   -0.3610    0.6720   -0.2440 N   0  0  0  0  0  0  0  0  0  0  0  0
    0.7670   -0.1110   -0.5030 C   0  0  0  0  0  0  0  0  0  0  0  0
    0.7520   -1.1970   -1.3530 C   0  0  0  0  0  0  0  0  0  0  0  0
    1.8710   -1.9710   -1.6290 C   0  0  0  0  0  0  0  0  0  0  0  0
    3.0500   -1.6390   -1.0250 C   0  0  0  0  0  0  0  0  0  0  0  0
    3.1160   -0.5770   -0.1790 C   0  0  0  0  0  0  0  0  0  0  0  0
    4.3410   -0.2820    0.4110 C   0  0  0  0  0  0  0  0  0  0  0  0
    4.4860    0.7760    1.2790 C   0  0  0  0  0  0  0  0  0  0  0  0
    3.3900    1.5330    1.5490 C   0  0  0  0  0  0  0  0  0  0  0  0
    2.1560    1.2430    0.9600 C   0  0  0  0  0  0  0  0  0  0  0  0
    1.9750    0.1940    0.0880 C   0  0  0  0  0  0  0  0  0  0  0  0
   -2.2020   -0.9340   -0.1650 C   0  0  0  0  0  0  0  0  0  0  0  0
   -3.5660   -0.8050    0.4740 C   0  0  0  0  0  0  0  0  0  0  0  0
  1  2  2  0
  1 17  1  0
  2  3  1  0
  3  4  1  0
  4  5  1  1
  4 16  1  0
  5  6  1  0
  6  7  2  0
  6 15  1  0
  7  8  1  0
  8  9  2  0
  9 10  1  0
 10 11  2  0
 10 15  1  0
 11 12  1  0
 12 13  2  0
 13 14  1  0
 14 15  2  0
 16 17  1  0
M  END
