
     RDKit          3D

 17 19  0  0  0  0  0  0  0  0999 V2000
    4.5730    1.0650    0.6300 C   0  0  0  0  0  0  0  0  0  0  0  0
    3.7350   -0.1610    0.3990 C   0  0  0  0  0  0  0  0  0  0  0  0
    2.3190    0.1800    0.2800 N   0  0  0  0  0  0  0  0  0  0  0  0
    1.3580   -0.8200    0.0600 C   0  0  0  0  0  0  0  0  0  0  0  0
    1.7510   -2.1600   -0.0470 C   0  0  0  0  0  0  0  0  0  0  0  0
    0.8290   -3.1580   -0.2620 C   0  0  0  0  0  0  0  0  0  0  0  0
   -0.4960   -2.8180   -0.3710 C   0  0  0  0  0  0  0  0  0  0  0  0
   -0.9150   -1.5130   -0.2710 C   0  0  0  0  0  0  0  0  0  0  0  0
   -2.2800   -1.2030   -0.3880 C   0  0  0  0  0  0  0  0  0  0  0  0
   -2.7220    0.0970   -0.2910 C   0  0  0  0  0  0  0  0  0  0  0  0
   -4.0610    0.4260   -0.4030 C   0  0  0  0  0  0  0  0  0  0  0  0
   -4.5110    1.7280   -0.3070 C   0  0  0  0  0  0  0  0  0  0  0  0
   -3.5880    2.7310   -0.0910 C   0  0  0  0  0  0  0  0  0  0  0  0
   -2.2510    2.4050    0.0210 C   0  0  0  0  0  0  0  0  0  0  0  0
   -1.8030    1.0990   -0.0760 C   0  0  0  0  0  0  0  0  0  0  0  0
   -0.4610    0.7710    0.0360 C   0  0  0  0  0  0  0  0  0  0  0  0
    0.0240   -0.5180   -0.0540 C   0  0  0  0  0  0  0  0  0  0  0  0
  1  2  1  0
  2  3  1  0
  3  4  1  0
  4  5  2  0
  4 17  1  0
  5  6  1  0
  6  7  2  0
  7  8  1  0
  8  9  2  0
  8 17  1  0
  9 10  1  0
 10 11  2  0
 10 15  1  0
 11 12  1  0
 12 13  2  0
 13 14  1  0
 14 15  2  0
 15 16  1  0
 16 17  2  0
M  END
