
     RDKit          3D

 17 19  0  0  0  0  0  0  0  0999 V2000
   -4.3590    1.1580   -0.3630 C   0  0  0  0  0  0  0  0  0  0  0  0
   -4.3570   -0.2210    0.2680 C   0  0  0  0  0  0  0  0  0  0  0  0
   -3.3410   -1.0680   -0.2850 N   0  0  0  0  0  0  0  0  0  0  0  0
   -1.9770   -0.7400   -0.1540 C   0  0  0  0  0  0  0  0  0  0  0  0
   -1.5930    0.3540    0.5720 C   0  0  0  0  0  0  0  0  0  0  0  0
   -0.2560    0.7230    0.7270 C   0  0  0  0  0  0  0  0  0  0  0  0
    0.7190   -0.0310    0.1360 C   0  0  0  0  0  0  0  0  0  0  0  0
    0.3440   -1.1550   -0.6100 C   0  0  0  0  0  0  0  0  0  0  0  0
    1.3370   -1.8930   -1.1910 C   0  0  0  0  0  0  0  0  0  0  0  0
    2.6620   -1.5710   -1.0670 C   0  0  0  0  0  0  0  0  0  0  0  0
    3.0310   -0.4650   -0.3320 C   0  0  0  0  0  0  0  0  0  0  0  0
    4.3550   -0.1200   -0.1920 C   0  0  0  0  0  0  0  0  0  0  0  0
    4.7790    0.9730    0.5300 C   0  0  0  0  0  0  0  0  0  0  0  0
    3.7980    1.7250    1.1190 C   0  0  0  0  0  0  0  0  0  0  0  0
    2.4530    1.4250    1.0110 C   0  0  0  0  0  0  0  0  0  0  0  0
    2.0680    0.3250    0.2820 C   0  0  0  0  0  0  0  0  0  0  0  0
   -0.9810   -1.4960   -0.7470 C   0  0  0  0  0  0  0  0  0  0  0  0
  1  2  1  0
  2  3  1  0
  3  4  1  0
  4  5  2  0
  4 17  1  0
  5  6  1  0
  6  7  2  0
  7  8  1  0
  7 16  1  0
  8  9  1  0
  8 17  2  0
  9 10  2  0
 10 11  1  0
 11 12  2  0
 11 16  1  0
 12 13  1  0
 13 14  2  0
 14 15  1  0
 15 16  2  0
M  END
