
     RDKit          3D

 29 31  0  0  0  0  0  0  0  0999 V2000
   -4.0000    2.0980   -2.8900 N   0  0  0  0  0  0  0  0  0  0  0  0
   -3.9450    1.9770   -1.5660 O   0  0  0  0  0  0  0  0  0  0  0  0
   -2.9530    1.0490   -1.1650 C   0  0  2  0  0  0  0  0  0  0  0  0
   -1.6980    1.4700   -1.6150 O   0  0  0  0  0  0  0  0  0  0  0  0
   -1.1780    2.2400   -0.5940 C   0  0  2  0  0  0  0  0  0  0  0  0
   -0.2650    3.1890   -1.0110 O   0  0  0  0  0  0  0  0  0  0  0  0
    0.7120    3.2410   -0.1660 O   0  0  0  0  0  0  0  0  0  0  0  0
    0.4250    2.5290    0.8770 O   0  0  0  0  0  0  0  0  0  0  0  0
   -0.3040    1.4310    0.3440 C   0  0  2  0  0  0  0  0  0  0  0  0
    0.9500    0.4290   -0.5900 P   0  0  0  0  0  0  0  0  0  0  0  0
    2.4210    0.0330    0.0710 C   0  0  0  0  0  0  0  0  0  0  0  0
    2.6840    0.4790    1.3570 O   0  0  0  0  0  0  0  0  0  0  0  0
    3.4040   -0.7540   -0.6640 C   0  0  0  0  0  0  0  0  0  0  0  0
    3.1190   -1.1410   -1.8400 O   0  0  0  0  0  0  0  0  0  0  0  0
    4.6280   -1.1080   -0.1700 O   0  0  0  0  0  0  0  0  0  0  0  0
    5.5900   -1.8650   -0.8580 C   0  0  0  0  0  0  0  0  0  0  0  0
    6.7700   -2.0110    0.0600 C   0  0  0  0  0  0  0  0  0  0  0  0
    6.8010   -1.4500    1.3570 N   0  0  0  0  0  0  0  0  0  0  0  0
    7.7750   -2.6550   -0.3310 O   0  0  0  0  0  0  0  0  0  0  0  0
   -0.9630    0.7330    1.2930 O   0  0  0  0  0  0  0  0  0  0  0  0
   -2.2080    0.1850    0.9010 C   0  0  2  0  0  0  0  0  0  0  0  0
   -2.9410   -0.0030    2.2140 C   0  0  0  0  0  0  0  0  0  0  0  0
   -4.1150   -0.4560    2.2660 O   0  0  0  0  0  0  0  0  0  0  0  0
   -2.3310    0.3230    3.3940 O   0  0  0  0  0  0  0  0  0  0  0  0
   -1.9610   -1.1900    0.3800 C   0  0  0  0  0  0  0  0  0  0  0  0
   -3.1640   -1.7480   -0.3370 C   0  0  0  0  0  0  0  0  0  0  0  0
   -3.3710   -0.6440   -1.8290 P   0  0  0  0  0  0  0  0  0  0  0  0
   -5.0780   -0.6360   -2.2110 O   0  0  0  0  0  0  0  0  0  0  0  0
   -2.9780    1.0200    0.1820 O   0  0  0  0  0  0  0  0  0  0  0  0
  1  2  1  0
  3  2  1  6
  3  4  1  0
  3 27  1  0
  3 29  1  0
  5  4  1  6
  5  6  1  0
  5  9  1  0
  6  7  1  0
  7  8  1  0
  8  9  1  0
  9 10  1  6
  9 20  1  0
 10 11  2  3
 11 12  1  0
 11 13  1  0
 13 14  2  0
 13 15  1  0
 15 16  1  0
 16 17  1  0
 17 18  1  0
 17 19  2  0
 20 21  1  0
 21 22  1  1
 21 25  1  0
 21 29  1  0
 22 23  2  0
 22 24  1  0
 25 26  1  0
 26 27  1  0
 27 28  1  0
M  END
