
     RDKit          3D

 32 35  0  0  0  0  0  0  0  0999 V2000
   -3.5120   -1.6500   -3.1470 C   0  0  0  0  0  0  0  0  0  0  0  0
   -2.2520   -1.4100   -2.5920 O   0  0  0  0  0  0  0  0  0  0  0  0
   -2.3920   -0.8810   -0.9590 P   0  0  0  0  0  0  0  0  0  0  0  0
   -4.0680   -0.7030   -0.5640 O   0  0  0  0  0  0  0  0  0  0  0  0
   -1.4960    0.6490   -0.7430 N   0  0  0  0  0  0  0  0  0  0  0  0
   -1.7170    1.6800   -1.7010 C   0  0  0  0  0  0  0  0  0  0  0  0
   -2.7970    1.7630   -2.3680 O   0  0  0  0  0  0  0  0  0  0  0  0
   -0.7100    2.6130   -1.9000 O   0  0  0  0  0  0  0  0  0  0  0  0
    0.3500    2.5220   -1.0850 O   0  0  0  0  0  0  0  0  0  0  0  0
   -0.1380    2.3290    0.1420 N   0  0  0  0  0  0  0  0  0  0  0  0
   -0.5800    0.9280    0.3350 C   0  0  2  0  0  0  0  0  0  0  0  0
    0.6630    0.1410    0.2860 C   0  0  0  0  0  0  0  0  0  0  0  0
    1.1380   -0.4060   -1.0330 C   0  0  0  0  0  0  0  0  0  0  0  0
    2.3440   -1.0470   -0.9210 O   0  0  0  0  0  0  0  0  0  0  0  0
    2.8260   -1.5160   -2.0580 O   0  0  0  0  0  0  0  0  0  0  0  0
    4.4340   -0.8890   -2.3310 P   0  0  0  0  0  0  0  0  0  0  0  0
    4.4940    0.9360   -1.9930 C   0  0  0  0  0  0  0  0  0  0  0  0
    5.5790   -1.6910   -1.2980 O   0  0  0  0  0  0  0  0  0  0  0  0
    1.3810   -0.0250    1.3750 C   0  0  0  0  0  0  0  0  0  0  0  0
    2.9210   -1.0330    1.2460 P   0  0  0  0  0  0  0  0  0  0  0  0
    3.9370   -0.7570    2.6270 O   0  0  0  0  0  0  0  0  0  0  0  0
    2.5670   -2.7170    1.0530 O   0  0  0  0  0  0  0  0  0  0  0  0
    1.0230    0.5410    2.6190 O   0  0  0  0  0  0  0  0  0  0  0  0
   -0.1330    1.2990    2.6730 C   0  0  0  0  0  0  0  0  0  0  0  0
   -0.2820    2.2460    3.4970 O   0  0  0  0  0  0  0  0  0  0  0  0
   -1.1960    0.9190    1.6870 C   0  0  1  0  0  0  0  0  0  0  0  0
   -2.3760    1.8660    1.7840 C   0  0  0  0  0  0  0  0  0  0  0  0
   -3.0840    1.3750    2.8690 O   0  0  0  0  0  0  0  0  0  0  0  0
   -2.9730   -0.0220    2.8620 C   0  0  2  0  0  0  0  0  0  0  0  0
   -1.8200   -0.4200    3.6440 O   0  0  0  0  0  0  0  0  0  0  0  0
   -1.7740   -0.3580    2.1730 C   0  0  2  0  0  0  0  0  0  0  0  0
   -1.3830   -1.5950    1.6930 O   0  0  0  0  0  0  0  0  0  0  0  0
  1  2  1  0
  2  3  1  0
  3  4  1  0
  3  5  1  0
  5  6  1  0
  5 11  1  0
  6  7  2  0
  6  8  1  0
  8  9  1  0
  9 10  1  0
 11 10  1  6
 11 12  1  0
 11 26  1  0
 12 13  1  0
 12 19  2  0
 13 14  1  0
 14 15  1  0
 15 16  1  0
 16 17  1  0
 16 18  1  0
 19 20  1  0
 19 23  1  0
 20 21  1  0
 20 22  1  0
 23 24  1  0
 24 25  2  0
 24 26  1  0
 26 27  1  6
 26 31  1  0
 27 28  1  0
 29 28  1  1
 29 30  1  0
 29 31  1  0
 30 31  1  0
 31 32  1  6
M  END
