
     RDKit          3D

 31 32  0  0  0  0  0  0  0  0999 V2000
   -3.8890   -0.8600    0.5430 C   0  0  0  0  0  0  0  0  0  0  0  0
   -3.3790    0.3950   -0.3090 C   0  0  2  0  0  0  0  0  0  0  0  0
   -4.3860    1.4000    0.1230 N   0  0  0  0  0  0  0  0  0  0  0  0
   -3.7420   -0.0050   -1.6720 C   0  0  0  0  0  0  0  0  0  0  0  0
   -3.8670    0.9670   -2.6340 O   0  0  0  0  0  0  0  0  0  0  0  0
   -2.2170    0.7900    0.1340 O   0  0  0  0  0  0  0  0  0  0  0  0
   -1.0370    0.2480    0.1350 C   0  0  1  0  0  0  0  0  0  0  0  0
   -0.8560   -1.1040    0.7210 C   0  0  0  0  0  0  0  0  0  0  0  0
    0.5910   -1.5310    0.9090 C   0  0  1  0  0  0  0  0  0  0  0  0
    0.7120   -2.8780    0.6330 O   0  0  0  0  0  0  0  0  0  0  0  0
    1.2840   -3.7370    2.0250 P   0  0  0  0  0  0  0  0  0  0  0  0
    1.4290   -0.6460    0.0870 C   0  0  1  0  0  0  0  0  0  0  0  0
    2.7170   -0.9000   -0.1800 O   0  0  0  0  0  0  0  0  0  0  0  0
    3.7770   -1.0820    0.6590 C   0  0  0  0  0  0  0  0  0  0  0  0
    3.5450   -1.0120    1.8810 O   0  0  0  0  0  0  0  0  0  0  0  0
    5.1550   -1.3510    0.1580 C   0  0  0  0  0  0  0  0  0  0  0  0
    5.1660   -1.3830   -1.2850 N   0  0  0  0  0  0  0  0  0  0  0  0
    0.7040   -0.6320   -1.3010 C   0  0  0  0  0  0  0  0  0  0  0  0
    1.0170   -1.3820   -2.2050 O   0  0  0  0  0  0  0  0  0  0  0  0
   -0.3110    0.3970   -1.2140 C   0  0  0  0  0  0  0  0  0  0  0  0
   -0.6010    1.6500   -2.1900 P   0  0  0  0  0  0  0  0  0  0  0  0
   -1.7450    3.0180   -1.8890 C   0  0  0  0  0  0  0  0  0  0  0  0
   -2.2770    3.6380   -2.8540 O   0  0  0  0  0  0  0  0  0  0  0  0
   -2.0770    3.4340   -0.6000 O   0  0  0  0  0  0  0  0  0  0  0  0
    1.1920    0.7650    0.5710 C   0  0  1  0  0  0  0  0  0  0  0  0
    1.9560    0.9910    1.7400 O   0  0  0  0  0  0  0  0  0  0  0  0
    1.7290    2.2250    2.1350 O   0  0  0  0  0  0  0  0  0  0  0  0
    1.7310    1.6400   -0.3870 O   0  0  0  0  0  0  0  0  0  0  0  0
    3.0050    1.4220   -0.5220 O   0  0  0  0  0  0  0  0  0  0  0  0
    3.7490    2.2310    0.1950 O   0  0  0  0  0  0  0  0  0  0  0  0
   -0.1250    1.0980    0.8630 O   0  0  0  0  0  0  0  0  0  0  0  0
  2  1  1  1
  2  3  1  0
  2  4  1  0
  2  6  1  0
  4  5  1  0
  7  6  1  6
  7  8  1  0
  7 20  1  0
  7 31  1  0
  8  9  1  0
  9 10  1  6
  9 12  1  0
 10 11  1  0
 12 13  1  6
 12 18  1  0
 12 25  1  0
 13 14  1  0
 14 15  2  0
 14 16  1  0
 16 17  1  0
 18 19  2  0
 18 20  1  0
 20 21  2  3
 21 22  1  0
 22 23  2  0
 22 24  1  0
 25 26  1  1
 25 28  1  0
 25 31  1  0
 26 27  1  0
 28 29  1  0
 29 30  1  0
M  END
