
     RDKit          3D

 32 34  0  0  0  0  0  0  0  0999 V2000
    6.1170   -0.2510    0.5440 C   0  0  0  0  0  0  0  0  0  0  0  0
    5.7480    0.4020   -0.6020 O   0  0  0  0  0  0  0  0  0  0  0  0
    4.6950    1.2930   -0.4590 C   0  0  2  0  0  0  0  0  0  0  0  0
    4.4830    1.8470   -1.7430 O   0  0  0  0  0  0  0  0  0  0  0  0
    5.0010    2.3490    0.3820 O   0  0  0  0  0  0  0  0  0  0  0  0
    3.4110    0.5830   -0.0460 C   0  0  1  0  0  0  0  0  0  0  0  0
    2.4420    1.5300    0.0650 O   0  0  0  0  0  0  0  0  0  0  0  0
    1.5650    1.6090   -0.8830 O   0  0  0  0  0  0  0  0  0  0  0  0
    0.7050    0.1390   -0.9500 P   0  0  0  0  0  0  0  0  0  0  0  0
   -0.6900   -0.0030    0.1210 N   0  0  0  0  0  0  0  0  0  0  0  0
   -1.5570    1.1200    0.4170 C   0  0  0  0  0  0  0  0  0  0  0  0
   -2.7790    0.6510    0.6680 C   0  0  0  0  0  0  0  0  0  0  0  0
   -3.8180    1.5500    0.9870 O   0  0  0  0  0  0  0  0  0  0  0  0
   -3.7490    2.8880    0.5660 C   0  0  2  0  0  0  0  0  0  0  0  0
   -3.9270    2.9130   -0.9540 C   0  0  0  0  0  0  0  0  0  0  0  0
   -2.4470    3.4350    0.8090 O   0  0  0  0  0  0  0  0  0  0  0  0
   -1.3820    2.5670    0.4900 C   0  0  0  0  0  0  0  0  0  0  0  0
   -0.2500    3.0350    0.2600 O   0  0  0  0  0  0  0  0  0  0  0  0
   -2.7370   -0.8260    0.5360 C   0  0  2  0  0  0  0  0  0  0  0  0
   -3.0080   -1.1740   -0.8670 C   0  0  0  0  0  0  0  0  0  0  0  0
   -3.8830   -1.9400   -1.2330 O   0  0  0  0  0  0  0  0  0  0  0  0
   -3.5840   -1.4610    1.4300 O   0  0  0  0  0  0  0  0  0  0  0  0
   -4.8060   -1.0410    1.1780 O   0  0  0  0  0  0  0  0  0  0  0  0
   -5.6670   -2.0360    0.9440 N   0  0  0  0  0  0  0  0  0  0  0  0
   -1.2730   -1.0690    0.8640 C   0  0  1  0  0  0  0  0  0  0  0  0
   -0.8390   -2.4470    0.6040 C   0  0  0  0  0  0  0  0  0  0  0  0
   -1.0380   -2.8820   -0.6950 O   0  0  0  0  0  0  0  0  0  0  0  0
    2.0100   -1.1510   -0.6840 C   0  0  1  0  0  0  0  0  0  0  0  0
    2.0330   -2.1180   -1.6920 O   0  0  0  0  0  0  0  0  0  0  0  0
    2.3560   -3.6430   -0.9330 P   0  0  0  0  0  0  0  0  0  0  0  0
    3.2260   -4.7440   -1.5470 O   0  0  0  0  0  0  0  0  0  0  0  0
    3.2240   -0.4370   -0.9150 O   0  0  0  0  0  0  0  0  0  0  0  0
  1  2  1  0
  2  3  1  0
  3  4  1  6
  3  5  1  0
  3  6  1  0
  6  7  1  6
  6 32  1  0
  7  8  1  0
  8  9  1  0
  9 10  1  0
  9 28  1  0
 10 11  1  0
 10 25  1  0
 11 12  2  0
 11 17  1  0
 12 13  1  0
 12 19  1  0
 13 14  1  0
 14 15  1  6
 14 16  1  0
 16 17  1  0
 17 18  2  0
 19 20  1  0
 19 22  1  1
 19 25  1  0
 20 21  2  0
 22 23  1  0
 23 24  1  0
 25 26  1  6
 26 27  1  0
 28 29  1  6
 28 32  1  0
 29 30  1  0
 30 31  2  0
M  END
