
     RDKit          3D

 30 31  0  0  0  0  0  0  0  0999 V2000
   -1.9660   -2.4650    2.4670 C   0  0  0  0  0  0  0  0  0  0  0  0
   -1.4180   -1.3870    1.8220 O   0  0  0  0  0  0  0  0  0  0  0  0
   -1.9260   -1.1380    0.5530 C   0  0  1  0  0  0  0  0  0  0  0  0
   -3.3810   -0.8750    0.6790 C   0  0  0  0  0  0  0  0  0  0  0  0
   -4.2130   -1.6890    0.8240 O   0  0  0  0  0  0  0  0  0  0  0  0
   -3.8000    0.9020    0.5830 P   0  0  0  0  0  0  0  0  0  0  0  0
   -4.0890    1.3000   -1.0700 O   0  0  0  0  0  0  0  0  0  0  0  0
   -2.4060    1.6700    1.2490 O   0  0  0  0  0  0  0  0  0  0  0  0
   -1.2980    1.3330    0.5300 C   0  0  2  0  0  0  0  0  0  0  0  0
   -0.2140    1.4790    1.4480 O   0  0  0  0  0  0  0  0  0  0  0  0
   -1.1010    2.4390   -0.4560 C   0  0  0  0  0  0  0  0  0  0  0  0
   -0.0260    3.3570   -0.3260 N   0  0  0  0  0  0  0  0  0  0  0  0
   -1.8620    2.6140   -1.4350 O   0  0  0  0  0  0  0  0  0  0  0  0
   -1.2280    0.0120   -0.1220 C   0  0  1  0  0  0  0  0  0  0  0  0
    0.1830   -0.3320   -0.4500 C   0  0  2  0  0  0  0  0  0  0  0  0
    0.9480   -1.0200    0.6450 C   0  0  0  0  0  0  0  0  0  0  0  0
    2.2720   -1.2800    0.2160 O   0  0  0  0  0  0  0  0  0  0  0  0
    0.8640    0.8750   -0.7420 O   0  0  0  0  0  0  0  0  0  0  0  0
    2.2050    0.8740   -1.0860 C   0  0  0  0  0  0  0  0  0  0  0  0
    2.5640    0.1660   -2.2200 O   0  0  0  0  0  0  0  0  0  0  0  0
    3.0840    1.5080   -0.3790 C   0  0  0  0  0  0  0  0  0  0  0  0
    4.5040    1.4880   -0.7720 C   0  0  0  0  0  0  0  0  0  0  0  0
    2.7150    2.2090    0.7460 O   0  0  0  0  0  0  0  0  0  0  0  0
    3.5550    2.0840    1.8530 N   0  0  0  0  0  0  0  0  0  0  0  0
    0.3040   -1.1490   -1.6020 O   0  0  0  0  0  0  0  0  0  0  0  0
   -0.5970   -2.1580   -1.8980 C   0  0  0  0  0  0  0  0  0  0  0  0
   -0.6560   -2.7460   -2.9890 O   0  0  0  0  0  0  0  0  0  0  0  0
   -1.7530   -2.6160   -0.5570 P   0  0  0  0  0  0  0  0  0  0  0  0
   -3.2760   -2.9730   -1.3040 O   0  0  0  0  0  0  0  0  0  0  0  0
   -3.1520   -3.7210   -2.3710 O   0  0  0  0  0  0  0  0  0  0  0  0
  1  2  1  0
  3  2  1  1
  3  4  1  0
  3 14  1  0
  3 28  1  0
  4  5  2  0
  4  6  1  0
  6  7  1  0
  6  8  1  0
  8  9  1  0
  9 10  1  1
  9 11  1  0
 14  9  1  1
 11 12  1  0
 11 13  2  0
 14 15  1  0
 15 16  1  1
 15 18  1  0
 15 25  1  0
 16 17  1  0
 18 19  1  0
 19 20  1  0
 19 21  2  3
 21 22  1  0
 21 23  1  0
 23 24  1  0
 25 26  1  0
 26 27  2  0
 26 28  1  0
 28 29  1  0
 29 30  1  0
M  END
