
     RDKit          3D

 32 34  0  0  0  0  0  0  0  0999 V2000
    6.2960    1.0640   -1.8460 C   0  0  0  0  0  0  0  0  0  0  0  0
    6.4670    0.5370   -0.6690 C   0  0  0  0  0  0  0  0  0  0  0  0
    7.8220    0.3590   -0.1510 C   0  0  0  0  0  0  0  0  0  0  0  0
    8.0250   -0.1490    0.9850 O   0  0  0  0  0  0  0  0  0  0  0  0
    8.9230    0.7460   -0.8990 O   0  0  0  0  0  0  0  0  0  0  0  0
    5.3130    0.1170    0.1480 C   0  0  0  0  0  0  0  0  0  0  0  0
    5.4840   -0.3910    1.2810 O   0  0  0  0  0  0  0  0  0  0  0  0
    4.0350    0.2760   -0.3220 O   0  0  0  0  0  0  0  0  0  0  0  0
    2.8810   -0.0960    0.3890 C   0  0  0  0  0  0  0  0  0  0  0  0
    1.6600    0.2060   -0.3890 C   0  0  0  0  0  0  0  0  0  0  0  0
    1.7860    0.7260   -1.5210 O   0  0  0  0  0  0  0  0  0  0  0  0
    0.3250   -0.0730    0.1000 C   0  0  0  0  0  0  0  0  0  0  0  0
    0.2170   -0.6040    1.2580 O   0  0  0  0  0  0  0  0  0  0  0  0
   -0.8260    0.1900   -0.5870 O   0  0  0  0  0  0  0  0  0  0  0  0
   -2.1260   -0.1130   -0.0440 C   0  0  1  0  0  0  0  0  0  0  0  0
   -2.1180   -1.9570    0.2380 P   0  0  0  0  0  0  0  0  0  0  0  0
   -1.1420   -2.7310   -0.9530 O   0  0  0  0  0  0  0  0  0  0  0  0
   -1.6650   -2.3460    1.8400 O   0  0  0  0  0  0  0  0  0  0  0  0
   -2.2570    0.6150    1.0910 O   0  0  0  0  0  0  0  0  0  0  0  0
   -3.3970    0.5780    1.7910 C   0  0  2  0  0  0  0  0  0  0  0  0
   -3.5430    1.8130    2.4690 O   0  0  0  0  0  0  0  0  0  0  0  0
   -3.5920    2.8300    1.6650 O   0  0  0  0  0  0  0  0  0  0  0  0
   -3.4970   -0.4240    2.8100 N   0  0  0  0  0  0  0  0  0  0  0  0
   -4.5780   -1.2660    2.7930 C   0  0  0  0  0  0  0  0  0  0  0  0
   -5.4590   -1.1540    1.8830 N   0  0  0  0  0  0  0  0  0  0  0  0
   -4.9320    0.1990    0.8310 P   0  0  0  0  0  0  0  0  0  0  0  0
   -4.4010   -0.4490   -0.8340 C   0  0  0  0  0  0  0  0  0  0  0  0
   -3.0970    0.2520   -1.1400 C   0  0  2  0  0  0  0  0  0  0  0  0
   -2.6180   -0.0560   -2.4040 O   0  0  0  0  0  0  0  0  0  0  0  0
   -3.2670    0.9360   -3.1770 C   0  0  0  0  0  0  0  0  0  0  0  0
   -3.0760    2.0510   -2.3640 O   0  0  0  0  0  0  0  0  0  0  0  0
   -3.3140    1.6080   -1.1630 O   0  0  0  0  0  0  0  0  0  0  0  0
  1  2  2  0
  2  3  1  0
  2  6  1  0
  3  4  2  0
  3  5  1  0
  6  7  2  0
  6  8  1  0
  8  9  1  0
  9 10  1  0
 10 11  2  0
 10 12  1  0
 12 13  2  0
 12 14  1  0
 15 14  1  6
 15 16  1  0
 15 19  1  0
 15 28  1  0
 16 17  1  0
 16 18  1  0
 19 20  1  0
 20 21  1  1
 20 23  1  0
 20 26  1  0
 21 22  1  0
 23 24  1  0
 24 25  2  0
 25 26  1  0
 26 27  1  0
 28 27  1  1
 28 29  1  0
 28 32  1  0
 29 30  1  0
 30 31  1  0
 31 32  1  0
M  END
