
     RDKit          3D

 32 34  0  0  0  0  0  0  0  0999 V2000
   -0.9700   -2.6520    1.2790 C   0  0  0  0  0  0  0  0  0  0  0  0
   -0.0240   -1.5360    0.7970 C   0  0  1  0  0  0  0  0  0  0  0  0
   -0.7800   -0.6110    0.1440 O   0  0  0  0  0  0  0  0  0  0  0  0
   -1.7260   -0.1110    1.0320 C   0  0  0  0  0  0  0  0  0  0  0  0
   -2.6120    0.9300    0.3810 C   0  0  1  0  0  0  0  0  0  0  0  0
   -1.7900    1.9670   -0.0510 O   0  0  0  0  0  0  0  0  0  0  0  0
   -3.4190    0.3370   -0.7290 C   0  0  0  0  0  0  0  0  0  0  0  0
   -4.0270    1.3830   -1.4470 O   0  0  0  0  0  0  0  0  0  0  0  0
   -5.3750    1.9060   -0.4530 P   0  0  0  0  0  0  0  0  0  0  0  0
   -5.7250    3.5780   -0.6980 O   0  0  0  0  0  0  0  0  0  0  0  0
   -4.8610    1.6900    1.2210 O   0  0  0  0  0  0  0  0  0  0  0  0
   -3.5120    1.4560    1.4380 C   0  0  0  0  0  0  0  0  0  0  0  0
   -3.0550    1.7100    2.5980 O   0  0  0  0  0  0  0  0  0  0  0  0
    0.5690   -0.9630    2.0040 N   0  0  0  0  0  0  0  0  0  0  0  0
    1.7800   -0.6250    2.0920 C   0  0  0  0  0  0  0  0  0  0  0  0
    2.6240   -0.0800    3.0430 O   0  0  0  0  0  0  0  0  0  0  0  0
    3.8970   -0.4710    2.8020 O   0  0  0  0  0  0  0  0  0  0  0  0
    3.8460   -1.4380    1.7690 C   0  0  0  0  0  0  0  0  0  0  0  0
    2.7030   -0.7950    0.9280 C   0  0  2  0  0  0  0  0  0  0  0  0
    3.2680    0.3950    0.4690 O   0  0  0  0  0  0  0  0  0  0  0  0
    2.6410    1.5090   -0.0100 C   0  0  0  0  0  0  0  0  0  0  0  0
    1.3960    1.5100   -0.0610 O   0  0  0  0  0  0  0  0  0  0  0  0
    3.3890    2.7280   -0.4750 C   0  0  2  0  0  0  0  0  0  0  0  0
    3.0580    3.0680   -1.8370 N   0  0  0  0  0  0  0  0  0  0  0  0
    4.7470    2.5490   -0.3470 O   0  0  0  0  0  0  0  0  0  0  0  0
    2.2540   -1.5620   -0.0740 O   0  0  0  0  0  0  0  0  0  0  0  0
    1.0590   -2.1960    0.0160 C   0  0  2  0  0  0  0  0  0  0  0  0
    0.5630   -2.4720   -1.3810 C   0  0  0  0  0  0  0  0  0  0  0  0
    1.2560   -2.1130   -2.3540 O   0  0  0  0  0  0  0  0  0  0  0  0
   -0.6390   -3.1140   -1.5980 O   0  0  0  0  0  0  0  0  0  0  0  0
   -1.2580   -3.4570   -3.2150 P   0  0  0  0  0  0  0  0  0  0  0  0
   -1.6550   -4.9200   -3.6220 O   0  0  0  0  0  0  0  0  0  0  0  0
  2  1  1  1
  2  3  1  0
  2 14  1  0
  2 27  1  0
  3  4  1  0
  4  5  1  0
  5  6  1  6
  5  7  1  0
  5 12  1  0
  7  8  1  0
  8  9  1  0
  9 10  1  0
  9 11  1  0
 11 12  1  0
 12 13  2  0
 14 15  2  0
 15 16  1  0
 15 19  1  0
 16 17  1  0
 17 18  1  0
 18 19  1  0
 19 20  1  6
 19 26  1  0
 20 21  1  0
 21 22  2  0
 21 23  1  0
 23 24  1  6
 23 25  1  0
 26 27  1  0
 27 28  1  6
 28 29  2  0
 28 30  1  0
 30 31  1  0
 31 32  2  0
M  END
