
     RDKit          3D

 32 32  0  0  0  0  0  0  0  0999 V2000
    4.8000   -3.5810    2.5990 C   0  0  0  0  0  0  0  0  0  0  0  0
    4.5120   -2.8360    1.1380 P   0  0  0  0  0  0  0  0  0  0  0  0
    4.7980   -1.0300    0.8720 C   0  0  2  0  0  0  0  0  0  0  0  0
    5.9080   -0.5390    1.6930 N   0  0  0  0  0  0  0  0  0  0  0  0
    3.6770   -0.2460    1.2160 O   0  0  0  0  0  0  0  0  0  0  0  0
    2.6560    0.0500    0.3460 C   0  0  0  0  0  0  0  0  0  0  0  0
    1.5300    0.8650    0.7680 C   0  0  0  0  0  0  0  0  0  0  0  0
    1.4970    1.2970    1.9330 O   0  0  0  0  0  0  0  0  0  0  0  0
    0.4360    1.1970   -0.1260 C   0  0  0  0  0  0  0  0  0  0  0  0
    0.4760    0.7580   -1.3030 O   0  0  0  0  0  0  0  0  0  0  0  0
   -0.6550    1.9940    0.3040 N   0  0  0  0  0  0  0  0  0  0  0  0
   -1.7810    2.3460   -0.5830 C   0  0  2  0  0  0  0  0  0  0  0  0
   -1.6630    3.7310   -0.7780 O   0  0  0  0  0  0  0  0  0  0  0  0
   -1.2780    4.0290   -1.9940 O   0  0  0  0  0  0  0  0  0  0  0  0
   -2.9730    1.9550   -0.0520 O   0  0  0  0  0  0  0  0  0  0  0  0
   -3.7320    1.0720   -0.7850 C   0  0  2  0  0  0  0  0  0  0  0  0
   -3.0140   -0.2310   -1.0910 C   0  0  0  0  0  0  0  0  0  0  0  0
   -2.6670   -0.8670    0.1220 O   0  0  0  0  0  0  0  0  0  0  0  0
   -1.9970   -2.0850    0.0510 C   0  0  0  0  0  0  0  0  0  0  0  0
   -1.7020   -2.6180   -1.0490 O   0  0  0  0  0  0  0  0  0  0  0  0
   -1.6170   -2.7800    1.2080 O   0  0  0  0  0  0  0  0  0  0  0  0
   -4.3050    1.6980   -1.9970 C   0  0  0  0  0  0  0  0  0  0  0  0
   -4.1010    2.9100   -2.2300 O   0  0  0  0  0  0  0  0  0  0  0  0
   -5.0740    0.9920   -2.9080 O   0  0  0  0  0  0  0  0  0  0  0  0
   -4.9120    0.7190    0.1060 C   0  0  0  0  0  0  0  0  0  0  0  0
   -5.0290    1.2140    1.2520 O   0  0  0  0  0  0  0  0  0  0  0  0
   -5.8910   -0.1610   -0.3240 O   0  0  0  0  0  0  0  0  0  0  0  0
   -6.9420   -0.4920    0.4360 O   0  0  0  0  0  0  0  0  0  0  0  0
    2.8310   -0.5910   -1.1760 P   0  0  0  0  0  0  0  0  0  0  0  0
    4.3010   -1.5310   -1.3740 O   0  0  0  0  0  0  0  0  0  0  0  0
    5.2250   -0.8400   -0.5680 C   0  0  2  0  0  0  0  0  0  0  0  0
    6.5030   -1.3130   -0.7610 O   0  0  0  0  0  0  0  0  0  0  0  0
  1  2  2  0
  2  3  1  0
  3  4  1  1
  3  5  1  0
  3 31  1  0
  5  6  1  0
  6  7  1  0
  6 29  2  0
  7  8  2  0
  7  9  1  0
  9 10  2  0
  9 11  1  0
 12 11  1  1
 12 13  1  0
 12 15  1  0
 13 14  1  0
 15 16  1  0
 16 17  1  6
 16 22  1  0
 16 25  1  0
 17 18  1  0
 18 19  1  0
 19 20  2  0
 19 21  1  0
 22 23  2  0
 22 24  1  0
 25 26  2  0
 25 27  1  0
 27 28  1  0
 29 30  1  0
 30 31  1  0
 31 32  1  1
M  END
