
     RDKit          3D

 14 14  0  0  0  0  0  0  0  0999 V2000
    1.4440   -1.8930    0.6920 O   0  0  0  0  0  0  0  0  0  0  0  0
    2.3480   -1.0540    0.6360 C   0  0  0  0  0  0  0  0  0  0  0  0
    3.5060   -1.3250    1.3860 O   0  0  0  0  0  0  0  0  0  0  0  0
    2.2690    0.1130   -0.1170 N   0  0  0  0  0  0  0  0  0  0  0  0
    1.1580    0.5210   -0.9110 C   0  0  0  0  0  0  0  0  0  0  0  0
   -0.1150    0.8080   -0.2360 C   0  0  1  0  0  0  0  0  0  0  0  0
    0.1070    1.7930    0.7570 O   0  0  0  0  0  0  0  0  0  0  0  0
   -1.0800    1.5100   -1.2640 C   0  0  0  0  0  0  0  0  0  0  0  0
   -0.4910    2.6320   -1.7890 O   0  0  0  0  0  0  0  0  0  0  0  0
   -0.8730   -0.3020    0.3060 C   0  0  0  0  0  0  0  0  0  0  0  0
   -1.2110   -0.5120    1.5930 C   0  0  0  0  0  0  0  0  0  0  0  0
   -1.9740   -1.7430    1.7040 C   0  0  0  0  0  0  0  0  0  0  0  0
   -2.0990   -2.2610    0.5310 N   0  0  0  0  0  0  0  0  0  0  0  0
   -1.4570   -1.4560   -0.4630 C   0  0  0  0  0  0  0  0  0  0  0  0
  1  2  2  0
  2  3  1  0
  2  4  1  0
  4  5  1  0
  5  6  1  0
  6  7  1  1
  6  8  1  0
  6 10  1  0
  8  9  1  0
 10 11  2  0
 10 14  1  0
 11 12  1  0
 12 13  2  0
 13 14  1  0
M  END
