
     RDKit          3D

 13 13  0  0  0  0  0  0  0  0999 V2000
   -1.1040   -1.3980    1.6470 N   0  0  0  0  0  0  0  0  0  0  0  0
   -1.6890   -0.4090    0.8370 C   0  0  0  0  0  0  0  0  0  0  0  0
   -2.7030    0.2930    1.3700 C   0  0  0  0  0  0  0  0  0  0  0  0
   -3.3230    1.2760    0.6410 O   0  0  0  0  0  0  0  0  0  0  0  0
   -2.9320    1.5690   -0.6410 N   0  0  0  0  0  0  0  0  0  0  0  0
   -1.8600    0.8120   -1.1780 C   0  0  0  0  0  0  0  0  0  0  0  0
   -1.2270   -0.1450   -0.5210 C   0  0  0  0  0  0  0  0  0  0  0  0
   -0.1250   -0.8970   -1.1230 C   0  0  2  0  0  0  0  0  0  0  0  0
   -0.4120   -2.2510   -1.2880 O   0  0  0  0  0  0  0  0  0  0  0  0
    1.1740   -0.7830   -0.3890 C   0  0  0  0  0  0  0  0  0  0  0  0
    1.6700    0.6470   -0.3010 C   0  0  0  0  0  0  0  0  0  0  0  0
    2.9970    0.6290    0.4680 C   0  0  0  0  0  0  0  0  0  0  0  0
    3.5140    1.9090    0.5890 O   0  0  0  0  0  0  0  0  0  0  0  0
  1  2  1  0
  2  3  2  0
  2  7  1  0
  3  4  1  0
  4  5  1  0
  5  6  1  0
  6  7  2  0
  7  8  1  0
  8  9  1  1
  8 10  1  0
 10 11  1  0
 11 12  1  0
 12 13  1  0
M  END
