
     RDKit          3D

 14 14  0  0  0  0  0  0  0  0999 V2000
   -2.7050    1.1570   -1.5470 C   0  0  0  0  0  0  0  0  0  0  0  0
   -2.0590    0.5820   -0.5480 C   0  0  0  0  0  0  0  0  0  0  0  0
   -2.0970    1.0120    0.8440 C   0  0  0  0  0  0  0  0  0  0  0  0
   -2.7590    1.9690    1.3990 N   0  0  0  0  0  0  0  0  0  0  0  0
   -1.1830    0.1170    1.6300 C   0  0  0  0  0  0  0  0  0  0  0  0
   -0.1870   -0.2710    0.5290 C   0  0  2  0  0  0  0  0  0  0  0  0
    0.5850    0.7970    0.1460 O   0  0  0  0  0  0  0  0  0  0  0  0
    1.9440    0.5570    0.2300 C   0  0  0  0  0  0  0  0  0  0  0  0
    2.3690   -0.5450   -0.6020 N   0  0  0  0  0  0  0  0  0  0  0  0
    3.7180   -0.9580   -0.6640 C   0  0  0  0  0  0  0  0  0  0  0  0
    4.6190   -0.3750    0.0110 O   0  0  0  0  0  0  0  0  0  0  0  0
    4.1110   -2.0210   -1.4700 O   0  0  0  0  0  0  0  0  0  0  0  0
   -1.1650   -0.6010   -0.5810 C   0  0  1  0  0  0  0  0  0  0  0  0
   -1.8820   -1.7280   -0.1550 O   0  0  0  0  0  0  0  0  0  0  0  0
  1  2  2  0
  2  3  1  0
  2 13  1  0
  3  4  2  0
  3  5  1  0
  5  6  1  0
  6  7  1  6
  6 13  1  0
  7  8  1  0
  8  9  1  0
  9 10  1  0
 10 11  2  0
 10 12  1  0
 13 14  1  1
M  END
