
     RDKit          3D

 13 14  0  0  0  0  0  0  0  0999 V2000
    3.6710   -0.8490   -1.3000 N   0  0  0  0  0  0  0  0  0  0  0  0
    3.4630   -0.1840   -0.0690 C   0  0  0  0  0  0  0  0  0  0  0  0
    4.4030    0.1430    0.6700 O   0  0  0  0  0  0  0  0  0  0  0  0
    2.0760    0.1240    0.3350 C   0  0  0  0  0  0  0  0  0  0  0  0
    1.6980    0.7410    1.4540 C   0  0  0  0  0  0  0  0  0  0  0  0
    0.3110    0.8550    1.4930 O   0  0  0  0  0  0  0  0  0  0  0  0
   -0.1230    0.7160    0.1410 C   0  0  2  0  0  0  0  0  0  0  0  0
   -1.4790    0.1410    0.0680 C   0  0  0  0  0  0  0  0  0  0  0  0
   -2.5850    0.6410   -0.4520 C   0  0  0  0  0  0  0  0  0  0  0  0
   -3.7070   -0.3220   -0.2790 C   0  0  0  0  0  0  0  0  0  0  0  0
   -3.0800   -1.5100    0.0070 O   0  0  0  0  0  0  0  0  0  0  0  0
   -1.8550   -1.1920    0.6070 C   0  0  0  0  0  0  0  0  0  0  0  0
    0.8890   -0.1750   -0.3840 N   0  0  0  0  0  0  0  0  0  0  0  0
  1  2  1  0
  2  3  2  0
  2  4  1  0
  4  5  2  0
  4 13  1  0
  5  6  1  0
  6  7  1  0
  7  8  1  1
  7 13  1  0
  8  9  2  0
  8 12  1  0
  9 10  1  0
 10 11  1  0
 11 12  1  0
M  END
