
     RDKit          3D

 14 14  0  0  0  0  0  0  0  0999 V2000
   -3.3880    1.6510    0.4680 N   0  0  0  0  0  0  0  0  0  0  0  0
   -2.3860    0.9340    1.2620 C   0  0  0  0  0  0  0  0  0  0  0  0
   -1.9800   -0.2420    0.4160 C   0  0  0  0  0  0  0  0  0  0  0  0
   -0.7300   -0.3560    0.0600 C   0  0  0  0  0  0  0  0  0  0  0  0
    0.2260    0.5980    0.4550 O   0  0  0  0  0  0  0  0  0  0  0  0
    1.5700    0.2860    0.7410 C   0  0  2  0  0  0  0  0  0  0  0  0
    2.4080    1.4460    0.3580 C   0  0  0  0  0  0  0  0  0  0  0  0
    3.8330    1.4340    0.5300 N   0  0  0  0  0  0  0  0  0  0  0  0
    1.8930    2.4830   -0.1320 O   0  0  0  0  0  0  0  0  0  0  0  0
    2.0650   -0.9180   -0.0000 C   0  0  0  0  0  0  0  0  0  0  0  0
    1.1850   -1.3480   -1.0120 O   0  0  0  0  0  0  0  0  0  0  0  0
   -0.2000   -1.4340   -0.7520 C   0  0  0  0  0  0  0  0  0  0  0  0
   -0.9200   -2.4100   -1.2170 C   0  0  0  0  0  0  0  0  0  0  0  0
   -2.2580   -2.5580   -1.0080 O   0  0  0  0  0  0  0  0  0  0  0  0
  1  2  1  0
  2  3  1  0
  3  4  2  3
  4  5  1  0
  4 12  1  0
  5  6  1  0
  6  7  1  6
  6 10  1  0
  7  8  1  0
  7  9  2  0
 10 11  1  0
 11 12  1  0
 12 13  2  3
 13 14  1  0
M  END
