
     RDKit          3D

 14 14  0  0  0  0  0  0  0  0999 V2000
   -0.8680    0.0720   -1.7490 C   0  0  0  0  0  0  0  0  0  0  0  0
   -0.6710    0.0880   -0.2260 C   0  0  2  0  0  0  0  0  0  0  0  0
   -1.9240   -0.5810    0.3430 C   0  0  0  0  0  0  0  0  0  0  0  0
   -3.1690    0.1780   -0.0490 C   0  0  0  0  0  0  0  0  0  0  0  0
   -4.2510   -0.5010    0.5100 O   0  0  0  0  0  0  0  0  0  0  0  0
   -0.6970    1.4140    0.1740 O   0  0  0  0  0  0  0  0  0  0  0  0
    0.4630    2.1590    0.3220 C   0  0  0  0  0  0  0  0  0  0  0  0
    0.4710    3.3880    0.1310 O   0  0  0  0  0  0  0  0  0  0  0  0
    1.6150    1.4500    0.6970 N   0  0  0  0  0  0  0  0  0  0  0  0
    1.7540    0.0410    0.4860 C   0  0  2  0  0  0  0  0  0  0  0  0
    2.8600   -0.1290   -0.5670 C   0  0  0  0  0  0  0  0  0  0  0  0
    4.0480    0.4360   -0.0660 O   0  0  0  0  0  0  0  0  0  0  0  0
    0.5390   -0.6860    0.1060 C   0  0  1  0  0  0  0  0  0  0  0  0
    0.1900   -1.6210    1.1920 N   0  0  0  0  0  0  0  0  0  0  0  0
  2  1  1  6
  2  3  1  0
  2  6  1  0
  2 13  1  0
  3  4  1  0
  4  5  1  0
  6  7  1  0
  7  8  2  0
  7  9  1  0
  9 10  1  0
 10 11  1  6
 10 13  1  0
 11 12  1  0
 13 14  1  1
M  END
