
     RDKit          3D

 14 14  0  0  0  0  0  0  0  0999 V2000
   -2.0390   -1.3440    1.9400 N   0  0  0  0  0  0  0  0  0  0  0  0
   -1.9160   -0.0170    1.4290 C   0  0  2  0  0  0  0  0  0  0  0  0
   -3.3390    0.4620    1.0990 C   0  0  0  0  0  0  0  0  0  0  0  0
   -3.6390   -0.2450   -0.2160 C   0  0  0  0  0  0  0  0  0  0  0  0
   -2.3010   -0.5900   -0.8250 C   0  0  2  0  0  0  0  0  0  0  0  0
   -2.2040   -1.9460   -0.9420 O   0  0  0  0  0  0  0  0  0  0  0  0
   -1.3040    0.0600    0.0600 C   0  0  2  0  0  0  0  0  0  0  0  0
   -0.0030   -0.3520   -0.0480 O   0  0  0  0  0  0  0  0  0  0  0  0
    1.0550    0.4670   -0.4180 C   0  0  0  0  0  0  0  0  0  0  0  0
    0.7250    1.6550   -0.6540 O   0  0  0  0  0  0  0  0  0  0  0  0
    2.3960    0.0060   -0.5200 N   0  0  0  0  0  0  0  0  0  0  0  0
    3.4470    0.9210   -0.9120 C   0  0  0  0  0  0  0  0  0  0  0  0
    4.7440    0.1650   -0.9360 C   0  0  0  0  0  0  0  0  0  0  0  0
    5.7970    1.0190   -1.3130 O   0  0  0  0  0  0  0  0  0  0  0  0
  2  1  1  6
  2  3  1  0
  2  7  1  0
  3  4  1  0
  4  5  1  0
  5  6  1  1
  5  7  1  0
  7  8  1  1
  8  9  1  0
  9 10  2  0
  9 11  1  0
 11 12  1  0
 12 13  1  0
 13 14  1  0
M  END
