
     RDKit          3D

 17 16  0  0  0  0  0  0  0  0999 V2000
    4.3600    1.6420    0.8700 N   0  0  0  0  0  0  0  0  0  0  0  0
    3.9160    0.7310   -0.1380 C   0  0  0  0  0  0  0  0  0  0  0  0
    3.4840   -0.6060    0.4330 C   0  0  0  0  0  0  0  0  0  0  0  0
    3.0210   -1.5420   -0.6610 C   0  0  0  0  0  0  0  0  0  0  0  0
    1.9200   -1.0110   -1.3710 N   0  0  0  0  0  0  0  0  0  0  0  0
    0.8130   -0.5740   -0.5700 C   0  0  0  0  0  0  0  0  0  0  0  0
    0.1520   -1.6430    0.2170 C   0  0  0  0  0  0  0  0  0  0  0  0
   -0.9760   -1.0550    1.0190 C   0  0  0  0  0  0  0  0  0  0  0  0
   -2.0480   -0.3980    0.1880 C   0  0  0  0  0  0  0  0  0  0  0  0
   -3.1550    0.1560    1.0460 C   0  0  0  0  0  0  0  0  0  0  0  0
   -4.2630    0.8120    0.3120 C   0  0  1  0  0  0  0  0  0  0  0  0
   -4.9080   -0.0650   -0.5860 O   0  0  0  0  0  0  0  0  0  0  0  0
   -5.2750    1.1190    1.2570 O   0  0  0  0  0  0  0  0  0  0  0  0
   -3.9270    2.1030   -0.3680 C   0  0  2  0  0  0  0  0  0  0  0  0
   -5.0260    2.6440   -1.0210 F   0  0  0  0  0  0  0  0  0  0  0  0
   -2.9780    1.8870   -1.3700 F   0  0  0  0  0  0  0  0  0  0  0  0
   -3.4120    2.9890    0.5310 F   0  0  0  0  0  0  0  0  0  0  0  0
  1  2  1  0
  2  3  1  0
  3  4  1  0
  4  5  1  0
  5  6  1  0
  6  7  1  0
  7  8  1  0
  8  9  1  0
  9 10  1  0
 10 11  1  0
 11 12  1  6
 11 13  1  0
 11 14  1  0
 14 15  1  6
 14 16  1  0
 14 17  1  0
M  CHG  2   1   1   5   1
M  END
