
     RDKit          3D

 14 14  0  0  0  0  0  0  0  0999 V2000
    3.7790    1.7680   -0.1190 N   0  0  0  0  0  0  0  0  0  0  0  0
    2.9410    0.8910    0.6750 C   0  0  2  0  0  0  0  0  0  0  0  0
    3.0140   -0.4710    0.0710 C   0  0  0  0  0  0  0  0  0  0  0  0
    1.8050   -0.8080   -0.3240 C   0  0  0  0  0  0  0  0  0  0  0  0
    1.5000   -2.0350   -0.9430 O   0  0  0  0  0  0  0  0  0  0  0  0
    0.8770    0.2760   -0.0170 C   0  0  0  0  0  0  0  0  0  0  0  0
   -0.5130    0.2210   -0.3190 N   0  0  0  0  0  0  0  0  0  0  0  0
   -1.2940   -0.8070    0.2550 C   0  0  0  0  0  0  0  0  0  0  0  0
   -0.7850   -1.6620    1.0160 O   0  0  0  0  0  0  0  0  0  0  0  0
   -2.7430   -0.8930   -0.0370 C   0  0  1  0  0  0  0  0  0  0  0  0
   -3.2950   -2.0230    0.5940 O   0  0  0  0  0  0  0  0  0  0  0  0
   -3.4430    0.3320    0.5250 C   0  0  0  0  0  0  0  0  0  0  0  0
   -2.9730    1.4900   -0.0370 O   0  0  0  0  0  0  0  0  0  0  0  0
    1.5190    1.2570    0.5570 C   0  0  0  0  0  0  0  0  0  0  0  0
  2  1  1  6
  2  3  1  0
  2 14  1  0
  3  4  2  0
  4  5  1  0
  4  6  1  0
  6  7  1  0
  6 14  2  0
  7  8  1  0
  8  9  2  0
  8 10  1  0
 10 11  1  1
 10 12  1  0
 12 13  1  0
M  END
