
     RDKit          3D

 40 46  0  0  0  0  0  0  0  0999 V2000
   -4.6660    5.0240    1.7800 C   0  0  0  0  0  0  0  0  0  0  0  0
   -3.9400    3.7360    1.6490 C   0  0  0  0  0  0  0  0  0  0  0  0
   -2.9140    3.3290    2.4370 C   0  0  0  0  0  0  0  0  0  0  0  0
   -2.2660    2.1110    2.2680 C   0  0  0  0  0  0  0  0  0  0  0  0
   -2.6930    1.3040    1.2610 C   0  0  0  0  0  0  0  0  0  0  0  0
   -3.7420    1.6790    0.4270 C   0  0  0  0  0  0  0  0  0  0  0  0
   -4.3560    2.8800    0.6200 C   0  0  0  0  0  0  0  0  0  0  0  0
   -3.9010    0.6500   -0.4580 C   0  0  0  0  0  0  0  0  0  0  0  0
   -4.8390    0.4970   -1.5600 C   0  0  0  0  0  0  0  0  0  0  0  0
   -4.9570   -0.6130   -2.3430 N   0  0  0  0  0  0  0  0  0  0  0  0
   -5.9060   -0.3950   -3.2190 N   0  0  0  0  0  0  0  0  0  0  0  0
   -6.4250    0.7860   -3.0670 N   0  0  0  0  0  0  0  0  0  0  0  0
   -5.7570    1.3310   -2.0370 N   0  0  0  0  0  0  0  0  0  0  0  0
   -2.9710   -0.3370   -0.1770 C   0  0  0  0  0  0  0  0  0  0  0  0
   -2.2400    0.0660    0.8720 N   0  0  0  0  0  0  0  0  0  0  0  0
   -1.2130   -0.8050    1.3650 C   0  0  0  0  0  0  0  0  0  0  0  0
   -0.3740   -1.4950    0.3100 C   0  0  1  0  0  0  0  0  0  0  0  0
    0.8730   -0.7170    0.2310 N   0  0  0  0  0  0  0  0  0  0  0  0
    1.9020   -1.0570   -0.6530 C   0  0  0  0  0  0  0  0  0  0  0  0
    1.7170   -2.0820   -1.3910 O   0  0  0  0  0  0  0  0  0  0  0  0
    3.1570   -0.3550   -0.8110 C   0  0  0  0  0  0  0  0  0  0  0  0
    3.3020    0.6780   -1.7140 C   0  0  0  0  0  0  0  0  0  0  0  0
    4.5080    1.3320   -1.8480 C   0  0  0  0  0  0  0  0  0  0  0  0
    5.5920    0.9570   -1.0720 C   0  0  0  0  0  0  0  0  0  0  0  0
    6.8560    1.6040   -1.1800 N   0  0  0  0  0  0  0  0  0  0  0  0
    7.8410    1.6030   -0.2720 C   0  0  0  0  0  0  0  0  0  0  0  0
    8.8710    2.3340   -0.7530 N   0  0  0  0  0  0  0  0  0  0  0  0
    8.5360    2.7840   -1.9430 N   0  0  0  0  0  0  0  0  0  0  0  0
    7.3020    2.3420   -2.2130 C   0  0  0  0  0  0  0  0  0  0  0  0
    5.4810   -0.0720   -0.1590 C   0  0  0  0  0  0  0  0  0  0  0  0
    4.2540   -0.7000   -0.0580 C   0  0  0  0  0  0  0  0  0  0  0  0
    4.1290   -2.0200    1.1100 Cl  0  0  0  0  0  0  0  0  0  0  0  0
   -0.0670   -2.8920    0.7460 C   0  0  0  0  0  0  0  0  0  0  0  0
   -0.3220   -3.9680   -0.0490 C   0  0  0  0  0  0  0  0  0  0  0  0
   -0.0120   -5.2340    0.4390 C   0  0  0  0  0  0  0  0  0  0  0  0
    0.5390   -5.4490    1.6870 C   0  0  0  0  0  0  0  0  0  0  0  0
    0.7960   -4.3560    2.4900 C   0  0  0  0  0  0  0  0  0  0  0  0
    0.4930   -3.1070    2.0160 C   0  0  0  0  0  0  0  0  0  0  0  0
   -1.0880   -1.5200   -0.9890 C   0  0  0  0  0  0  0  0  0  0  0  0
   -2.6070   -1.6490   -0.7490 C   0  0  0  0  0  0  0  0  0  0  0  0
  1  2  1  0
  2  3  2  0
  2  7  1  0
  3  4  1  0
  4  5  2  0
  5  6  1  0
  5 15  1  0
  6  7  2  0
  6  8  1  0
  8  9  1  0
  8 14  2  0
  9 10  2  0
  9 13  1  0
 10 11  1  0
 11 12  2  0
 12 13  1  0
 14 15  1  0
 14 40  1  0
 15 16  1  0
 16 17  1  0
 17 18  1  6
 17 33  1  0
 17 39  1  0
 18 19  1  0
 19 20  2  0
 19 21  1  0
 21 22  2  0
 21 31  1  0
 22 23  1  0
 23 24  2  0
 24 25  1  0
 24 30  1  0
 25 26  1  0
 25 29  1  0
 26 27  2  0
 27 28  1  0
 28 29  2  0
 30 31  2  0
 31 32  1  0
 33 34  2  0
 33 38  1  0
 34 35  1  0
 35 36  2  0
 36 37  1  0
 37 38  2  0
 39 40  1  0
M  END
