
     RDKit          3D

 32 35  0  0  0  0  0  0  0  0999 V2000
   -6.0820    3.6900    0.9070 C   0  0  0  0  0  0  0  0  0  0  0  0
   -6.5300    3.0370   -0.3830 C   0  0  0  0  0  0  0  0  0  0  0  0
   -5.9830    1.7300   -0.5170 O   0  0  0  0  0  0  0  0  0  0  0  0
   -4.5780    1.6270   -0.5370 C   0  0  0  0  0  0  0  0  0  0  0  0
   -3.9860    0.3710   -0.6650 C   0  0  0  0  0  0  0  0  0  0  0  0
   -2.6140    0.1850   -0.6920 C   0  0  0  0  0  0  0  0  0  0  0  0
   -1.8730    1.3390   -0.5800 C   0  0  0  0  0  0  0  0  0  0  0  0
   -2.4610    2.6040   -0.4530 C   0  0  0  0  0  0  0  0  0  0  0  0
   -3.7910    2.7080   -0.4360 N   0  0  0  0  0  0  0  0  0  0  0  0
   -0.4930    1.0310   -0.5360 N   0  0  0  0  0  0  0  0  0  0  0  0
   -0.3640   -0.3730   -0.6130 C   0  0  0  0  0  0  0  0  0  0  0  0
    0.6930   -1.1730   -0.5010 C   0  0  0  0  0  0  0  0  0  0  0  0
    2.0420   -0.6700   -0.2570 C   0  0  0  0  0  0  0  0  0  0  0  0
    3.0980   -1.1860   -0.9570 C   0  0  0  0  0  0  0  0  0  0  0  0
    4.4200   -0.7340   -0.7380 C   0  0  0  0  0  0  0  0  0  0  0  0
    4.7020    0.2340    0.1770 C   0  0  0  0  0  0  0  0  0  0  0  0
    5.9790    0.7300    0.4040 N   0  0  0  0  0  0  0  0  0  0  0  0
    7.1900    0.2650   -0.1170 C   0  0  0  0  0  0  0  0  0  0  0  0
    7.4370   -1.0010   -1.0990 S   0  0  0  0  0  0  0  0  0  0  0  0
    8.3830    1.0090    0.2920 N   0  0  0  0  0  0  0  0  0  0  0  0
    8.2810    2.1510    1.1780 C   0  0  0  0  0  0  0  0  0  0  0  0
    3.6400    0.7550    0.8850 C   0  0  0  0  0  0  0  0  0  0  0  0
    3.8090    1.7280    1.8270 O   0  0  0  0  0  0  0  0  0  0  0  0
    2.3290    0.3010    0.6620 C   0  0  0  0  0  0  0  0  0  0  0  0
    0.4220   -2.6020   -0.6000 C   0  0  0  0  0  0  0  0  0  0  0  0
    1.1910   -3.3680   -1.2010 O   0  0  0  0  0  0  0  0  0  0  0  0
   -0.8110   -3.1040    0.0480 C   0  0  0  0  0  0  0  0  0  0  0  0
   -2.0140   -2.1990   -0.1480 C   0  0  1  0  0  0  0  0  0  0  0  0
   -2.9570   -3.0280   -1.0420 C   0  0  0  0  0  0  0  0  0  0  0  0
   -2.6750   -2.0030    1.1770 C   0  0  0  0  0  0  0  0  0  0  0  0
   -3.1320   -3.3550    1.7310 C   0  0  0  0  0  0  0  0  0  0  0  0
   -1.7060   -0.9390   -0.8770 C   0  0  1  0  0  0  0  0  0  0  0  0
  1  2  1  0
  2  3  1  0
  3  4  1  0
  4  5  2  0
  4  9  1  0
  5  6  1  0
  6  7  2  0
 32  6  1  1
  7  8  1  0
  7 10  1  0
  8  9  2  0
 10 11  1  0
 11 12  2  0
 11 32  1  0
 12 13  1  0
 12 25  1  0
 13 14  2  0
 13 24  1  0
 14 15  1  0
 15 16  2  0
 16 17  1  0
 16 22  1  0
 17 18  1  0
 18 19  2  0
 18 20  1  0
 20 21  1  0
 22 23  1  0
 22 24  2  0
 25 26  2  0
 25 27  1  0
 27 28  1  0
 28 29  1  6
 28 30  1  0
 28 32  1  0
 30 31  1  0
M  END
