
     RDKit          3D

 32 35  0  0  0  0  0  0  0  0999 V2000
   -7.2110    2.0890   -1.7580 C   0  0  0  0  0  0  0  0  0  0  0  0
   -6.0420    1.1930   -1.8490 C   0  0  0  0  0  0  0  0  0  0  0  0
   -5.0560    1.2730   -0.9570 C   0  0  0  0  0  0  0  0  0  0  0  0
   -3.9410    0.3530   -1.1190 C   0  0  0  0  0  0  0  0  0  0  0  0
   -3.1780   -0.2180   -0.2160 C   0  0  0  0  0  0  0  0  0  0  0  0
   -2.1050   -1.1220   -0.6890 C   0  0  1  0  0  0  0  0  0  0  0  0
   -2.1240   -1.2960   -2.2100 C   0  0  0  0  0  0  0  0  0  0  0  0
   -0.9830   -2.2450   -2.4970 C   0  0  0  0  0  0  0  0  0  0  0  0
   -1.2180   -3.6260   -2.7710 N   0  0  0  0  0  0  0  0  0  0  0  0
    0.2130   -1.8580   -2.5050 O   0  0  0  0  0  0  0  0  0  0  0  0
   -0.7450   -0.6990   -0.2560 C   0  0  0  0  0  0  0  0  0  0  0  0
    0.1450   -1.5840    0.3300 C   0  0  0  0  0  0  0  0  0  0  0  0
    1.4050   -1.1600    0.7270 C   0  0  0  0  0  0  0  0  0  0  0  0
    1.8400    0.1260    0.5700 C   0  0  0  0  0  0  0  0  0  0  0  0
    0.9420    1.0170   -0.0210 C   0  0  0  0  0  0  0  0  0  0  0  0
   -0.3210    0.5780   -0.4160 C   0  0  0  0  0  0  0  0  0  0  0  0
    1.5600    2.1840   -0.0710 N   0  0  0  0  0  0  0  0  0  0  0  0
    2.7820    2.0360    0.4600 C   0  0  0  0  0  0  0  0  0  0  0  0
    3.5880    2.9950    0.5400 O   0  0  0  0  0  0  0  0  0  0  0  0
    2.9830    0.7730    0.8650 N   0  0  0  0  0  0  0  0  0  0  0  0
    4.1640    0.2320    1.4790 C   0  0  1  0  0  0  0  0  0  0  0  0
    4.5460   -1.1320    1.0670 C   0  0  0  0  0  0  0  0  0  0  0  0
    6.0200   -1.4350    0.9850 C   0  0  0  0  0  0  0  0  0  0  0  0
    6.9000   -0.3060    0.5950 C   0  0  0  0  0  0  0  0  0  0  0  0
    6.6360    0.7440    1.6890 C   0  0  0  0  0  0  0  0  0  0  0  0
    5.2640    1.2750    1.3190 C   0  0  0  0  0  0  0  0  0  0  0  0
   -3.2610   -0.0760    1.2290 C   0  0  0  0  0  0  0  0  0  0  0  0
   -2.8160   -1.2550    2.0640 C   0  0  0  0  0  0  0  0  0  0  0  0
   -3.6750    0.9310    1.9950 C   0  0  0  0  0  0  0  0  0  0  0  0
   -4.1690    2.1860    1.6080 N   0  0  0  0  0  0  0  0  0  0  0  0
   -5.2820    2.5310    0.2990 S   0  0  0  0  0  0  0  0  0  0  0  0
   -4.9490    3.9100   -0.2430 O   0  0  0  0  0  0  0  0  0  0  0  0
  1  2  1  0
  2  3  2  3
  3  4  1  0
  3 31  1  0
  4  5  2  0
  5  6  1  0
  5 27  1  0
  6  7  1  6
  6 11  1  0
  7  8  1  0
  8  9  1  0
  8 10  2  0
 11 12  2  0
 11 16  1  0
 12 13  1  0
 13 14  2  0
 14 15  1  0
 14 20  1  0
 15 16  2  0
 15 17  1  0
 17 18  1  0
 18 19  2  0
 18 20  1  0
 21 20  1  6
 21 22  1  0
 21 26  1  0
 22 23  1  0
 23 24  1  0
 24 25  1  0
 25 26  1  0
 27 28  1  0
 27 29  2  0
 29 30  1  0
 31 30  1  1
 31 32  2  0
M  END
