
     RDKit          3D

 32 35  0  0  0  0  0  0  0  0999 V2000
   -2.9990    2.1090   -1.5510 O   0  0  0  0  0  0  0  0  0  0  0  0
   -2.0570    1.4210   -1.0850 C   0  0  0  0  0  0  0  0  0  0  0  0
   -0.7080    1.9260   -1.3710 C   0  0  0  0  0  0  0  0  0  0  0  0
    0.3260    1.1110   -0.8210 N   0  0  0  0  0  0  0  0  0  0  0  0
    1.6850    1.5510   -1.0650 C   0  0  0  0  0  0  0  0  0  0  0  0
    1.9050    2.5960   -1.7270 O   0  0  0  0  0  0  0  0  0  0  0  0
    2.8030    0.7510   -0.5230 C   0  0  2  0  0  0  0  0  0  0  0  0
    2.8480    0.7550    0.9830 C   0  0  0  0  0  0  0  0  0  0  0  0
    4.1160    1.4560    1.3950 C   0  0  0  0  0  0  0  0  0  0  0  0
    4.4640    2.2330    0.1470 C   0  0  0  0  0  0  0  0  0  0  0  0
    4.0230    1.3800   -0.8940 N   0  0  0  0  0  0  0  0  0  0  0  0
    4.9950    0.5790   -1.5380 C   0  0  0  0  0  0  0  0  0  0  0  0
    5.7270   -0.3640   -0.6880 C   0  0  0  0  0  0  0  0  0  0  0  0
    5.2680   -1.6410   -0.4560 C   0  0  0  0  0  0  0  0  0  0  0  0
    5.9520   -2.5430    0.3440 C   0  0  0  0  0  0  0  0  0  0  0  0
    7.1320   -2.1560    0.9330 C   0  0  0  0  0  0  0  0  0  0  0  0
    7.5770   -0.8750    0.6900 C   0  0  0  0  0  0  0  0  0  0  0  0
    8.6590   -0.5370    1.2360 O   0  0  0  0  0  0  0  0  0  0  0  0
    6.8840   -0.0100   -0.1020 N   0  0  0  0  0  0  0  0  0  0  0  0
   -2.2950    0.2660   -0.3520 N   0  0  0  0  0  0  0  0  0  0  0  0
   -3.5690   -0.2650   -0.0480 C   0  0  0  0  0  0  0  0  0  0  0  0
   -4.7130    0.3360   -0.4690 C   0  0  0  0  0  0  0  0  0  0  0  0
   -5.9770   -0.2130   -0.1520 C   0  0  0  0  0  0  0  0  0  0  0  0
   -5.9930   -1.3680    0.5900 C   0  0  0  0  0  0  0  0  0  0  0  0
   -4.8310   -1.9770    1.0160 C   0  0  0  0  0  0  0  0  0  0  0  0
   -3.6040   -1.4450    0.7090 C   0  0  0  0  0  0  0  0  0  0  0  0
   -2.3550   -2.0510    1.1360 C   0  0  0  0  0  0  0  0  0  0  0  0
   -1.8260   -1.8800    2.6880 S   0  0  0  0  0  0  0  0  0  0  0  0
   -7.3080   -1.9010    0.9080 C   0  0  0  0  0  0  0  0  0  0  0  0
   -8.4220   -1.3330    0.5230 C   0  0  0  0  0  0  0  0  0  0  0  0
   -8.4590   -0.1020   -0.2660 C   0  0  0  0  0  0  0  0  0  0  0  0
   -7.1740    0.4730   -0.6420 C   0  0  0  0  0  0  0  0  0  0  0  0
  1  2  2  0
  2  3  1  0
  2 20  1  0
  3  4  1  0
  4  5  1  0
  5  6  2  0
  7  5  1  1
  7  8  1  0
  7 11  1  0
  8  9  1  0
  9 10  1  0
 10 11  1  0
 11 12  1  0
 12 13  1  0
 13 14  2  0
 13 19  1  0
 14 15  1  0
 15 16  2  0
 16 17  1  0
 17 18  2  0
 17 19  1  0
 20 21  1  0
 21 22  2  0
 21 26  1  0
 22 23  1  0
 23 24  2  0
 23 32  1  0
 24 25  1  0
 24 29  1  0
 25 26  2  0
 26 27  1  0
 27 28  2  0
 29 30  2  0
 30 31  1  0
 31 32  1  0
M  END
