
     RDKit          3D

 35 37  0  0  0  0  0  0  0  0999 V2000
    7.3130   -0.1150    1.1810 C   0  0  0  0  0  0  0  0  0  0  0  0
    6.1810    0.7000    1.5230 O   0  0  0  0  0  0  0  0  0  0  0  0
    4.8900    0.2190    1.3400 C   0  0  0  0  0  0  0  0  0  0  0  0
    4.7660   -0.9300    0.8750 O   0  0  0  0  0  0  0  0  0  0  0  0
    3.7430    1.0650    1.6940 C   0  0  0  0  0  0  0  0  0  0  0  0
    2.4010    0.5020    1.4950 C   0  0  0  0  0  0  0  0  0  0  0  0
    2.0350    0.0870    0.0620 C   0  0  0  0  0  0  0  0  0  0  0  0
    1.9450   -1.3520    0.0650 C   0  0  0  0  0  0  0  0  0  0  0  0
    1.6160   -2.1810   -0.9940 C   0  0  0  0  0  0  0  0  0  0  0  0
    1.3650   -1.4560   -2.1410 C   0  0  0  0  0  0  0  0  0  0  0  0
    1.4390   -0.0410   -2.1900 C   0  0  0  0  0  0  0  0  0  0  0  0
    1.7690    0.7690   -1.1120 C   0  0  0  0  0  0  0  0  0  0  0  0
    1.7400    2.2140   -1.3240 N   0  0  0  0  0  0  0  0  0  0  0  0
    0.4900    2.9560   -1.1040 C   0  0  0  0  0  0  0  0  0  0  0  0
    0.1780    3.9590   -1.7770 O   0  0  0  0  0  0  0  0  0  0  0  0
   -0.4720    2.5400   -0.0580 C   0  0  0  0  0  0  0  0  0  0  0  0
   -1.9140    2.6750   -0.4100 C   0  0  0  0  0  0  0  0  0  0  0  0
   -2.7250    3.0880    0.7450 N   0  0  0  0  0  0  0  0  0  0  0  0
   -3.9940    3.3110    0.7280 C   0  0  0  0  0  0  0  0  0  0  0  0
   -4.4880    4.6270    1.3230 C   0  0  0  0  0  0  0  0  0  0  0  0
   -3.2190    5.6720    1.9130 Cl  0  0  0  0  0  0  0  0  0  0  0  0
   -4.9830    2.4320    0.1930 N   0  0  0  0  0  0  0  0  0  0  0  0
   -5.3620    1.1760    0.4940 N   0  0  0  0  0  0  0  0  0  0  0  0
   -5.0090    0.1680    1.1690 C   0  0  0  0  0  0  0  0  0  0  0  0
   -4.0140   -0.8000    0.5460 C   0  0  0  0  0  0  0  0  0  0  0  0
   -2.6560   -0.6580    0.6830 C   0  0  0  0  0  0  0  0  0  0  0  0
   -1.7160   -1.5410    0.0710 C   0  0  0  0  0  0  0  0  0  0  0  0
   -2.0930   -2.5980   -0.7010 C   0  0  0  0  0  0  0  0  0  0  0  0
   -3.4510   -2.7520   -0.8440 C   0  0  0  0  0  0  0  0  0  0  0  0
   -4.3880   -1.8720   -0.2340 C   0  0  0  0  0  0  0  0  0  0  0  0
   -1.0940   -3.4620   -1.3790 C   0  0  0  0  0  0  0  0  0  0  0  0
    0.0580   -4.0260   -0.6270 C   0  0  0  0  0  0  0  0  0  0  0  0
   -0.2210   -4.8650    0.2670 O   0  0  0  0  0  0  0  0  0  0  0  0
    1.4580   -3.6410   -0.8970 N   0  0  0  0  0  0  0  0  0  0  0  0
    2.2980   -4.8210   -0.9820 C   0  0  0  0  0  0  0  0  0  0  0  0
  1  2  1  0
  2  3  1  0
  3  4  2  0
  3  5  1  0
  5  6  1  0
  6  7  1  0
  7  8  2  0
  7 12  1  0
  8  9  1  0
  9 10  2  0
  9 34  1  0
 10 11  1  0
 11 12  2  0
 12 13  1  0
 13 14  1  0
 14 15  2  0
 14 16  1  0
 16 17  1  0
 17 18  1  0
 18 19  2  0
 19 20  1  0
 19 22  1  0
 20 21  1  0
 22 23  1  0
 23 24  2  0
 24 25  1  0
 25 26  2  0
 25 30  1  0
 26 27  1  0
 27 28  2  0
 28 29  1  0
 28 31  1  0
 29 30  2  0
 31 32  1  0
 32 33  2  0
 32 34  1  0
 34 35  1  0
M  CHG  1  18   1
M  END
