
     RDKit          3D

 34 39  0  0  0  0  0  0  0  0999 V2000
    8.7040    2.2240    0.8940 N   0  0  0  0  0  0  0  0  0  0  0  0
    7.9740    0.9890    0.7790 C   0  0  0  0  0  0  0  0  0  0  0  0
    8.6270   -0.2250    0.7950 C   0  0  0  0  0  0  0  0  0  0  0  0
    7.9310   -1.4040    0.6860 C   0  0  0  0  0  0  0  0  0  0  0  0
    8.7740   -2.9370    0.7080 Cl  0  0  0  0  0  0  0  0  0  0  0  0
    6.5510   -1.4310    0.5540 C   0  0  0  0  0  0  0  0  0  0  0  0
    5.9020   -0.2250    0.5380 C   0  0  0  0  0  0  0  0  0  0  0  0
    6.6020    0.9770    0.6490 C   0  0  0  0  0  0  0  0  0  0  0  0
    4.4430   -0.2330    0.4000 C   0  0  0  0  0  0  0  0  0  0  0  0
    3.7410   -1.3400    0.2920 C   0  0  0  0  0  0  0  0  0  0  0  0
    2.2550   -1.3150    0.1530 C   0  0  0  0  0  0  0  0  0  0  0  0
    1.7460   -2.4570    0.0620 O   0  0  0  0  0  0  0  0  0  0  0  0
    1.5220   -0.1250    0.1280 N   0  0  0  0  0  0  0  0  0  0  0  0
    0.1170   -0.0630   -0.0020 C   0  0  0  0  0  0  0  0  0  0  0  0
   -0.6760   -1.1830   -0.1190 C   0  0  0  0  0  0  0  0  0  0  0  0
   -2.0620   -1.0430   -0.2450 C   0  0  0  0  0  0  0  0  0  0  0  0
   -2.6490    0.1950   -0.2550 C   0  0  0  0  0  0  0  0  0  0  0  0
   -4.0700    0.2720   -0.3610 N   0  0  0  0  0  0  0  0  0  0  0  0
   -4.9320   -0.6210    0.3460 C   0  0  0  0  0  0  0  0  0  0  0  0
   -4.9980   -1.6140    1.1700 N   0  0  0  0  0  0  0  0  0  0  0  0
   -6.3560   -2.0120    1.4420 C   0  0  0  0  0  0  0  0  0  0  0  0
   -7.1840   -1.0730    0.6240 C   0  0  0  0  0  0  0  0  0  0  0  0
   -6.2390   -0.2330   -0.0360 N   0  0  0  0  0  0  0  0  0  0  0  0
   -6.1510    0.8750   -0.9560 C   0  0  0  0  0  0  0  0  0  0  0  0
   -7.1150    1.6060   -1.6170 C   0  0  0  0  0  0  0  0  0  0  0  0
   -6.7540    2.6300   -2.4660 C   0  0  0  0  0  0  0  0  0  0  0  0
   -5.4170    2.9140   -2.6460 C   0  0  0  0  0  0  0  0  0  0  0  0
   -4.4210    2.2110   -2.0070 C   0  0  0  0  0  0  0  0  0  0  0  0
   -4.8120    1.1800   -1.1530 C   0  0  0  0  0  0  0  0  0  0  0  0
   -1.8660    1.3010   -0.1380 C   0  0  0  0  0  0  0  0  0  0  0  0
   -0.4920    1.2060   -0.0120 C   0  0  0  0  0  0  0  0  0  0  0  0
    0.2340    2.3540    0.0990 O   0  0  0  0  0  0  0  0  0  0  0  0
    4.4390   -2.5280    0.3140 O   0  0  0  0  0  0  0  0  0  0  0  0
    5.8090   -2.7070    0.4360 C   0  0  0  0  0  0  0  0  0  0  0  0
  1  2  1  0
  2  3  2  0
  2  8  1  0
  3  4  1  0
  4  5  1  0
  4  6  2  0
  6  7  1  0
  6 34  1  0
  7  8  2  0
  7  9  1  0
  9 10  2  0
 10 11  1  0
 10 33  1  0
 11 12  2  0
 11 13  1  0
 13 14  1  0
 14 15  2  0
 14 31  1  0
 15 16  1  0
 16 17  2  0
 17 18  1  0
 17 30  1  0
 18 19  1  0
 18 29  1  0
 19 20  2  0
 19 23  1  0
 20 21  1  0
 21 22  1  0
 22 23  1  0
 23 24  1  0
 24 25  2  0
 24 29  1  0
 25 26  1  0
 26 27  2  0
 27 28  1  0
 28 29  2  0
 30 31  2  0
 31 32  1  0
 33 34  1  0
M  CHG  1  20   1
M  END
