
     RDKit          3D

 35 37  0  0  0  0  0  0  0  0999 V2000
   -2.7460    0.9520    1.9580 C   0  0  0  0  0  0  0  0  0  0  0  0
   -2.3880    1.2320    0.5310 C   0  0  1  0  0  0  0  0  0  0  0  0
   -1.7980    0.0650   -0.2250 C   0  0  0  0  0  0  0  0  0  0  0  0
   -0.5280   -0.5020    0.3290 C   0  0  2  0  0  0  0  0  0  0  0  0
   -0.9300   -0.9050    1.6530 O   0  0  0  0  0  0  0  0  0  0  0  0
    0.4210    0.5880    0.5800 C   0  0  2  0  0  0  0  0  0  0  0  0
    0.9630    1.2980   -0.5490 N   0  0  0  0  0  0  0  0  0  0  0  0
    2.0720    2.0270    0.0320 C   0  0  0  0  0  0  0  0  0  0  0  0
    2.4760    3.1260   -0.4390 O   0  0  0  0  0  0  0  0  0  0  0  0
    2.5240    1.2180    1.1780 C   0  0  2  0  0  0  0  0  0  0  0  0
    2.5840    2.0780    2.4470 C   0  0  0  0  0  0  0  0  0  0  0  0
    3.7560    0.4290    0.9830 C   0  0  0  0  0  0  0  0  0  0  0  0
    5.0300    1.0840    0.6670 C   0  0  2  0  0  0  0  0  0  0  0  0
    5.4690    2.0180    1.6270 O   0  0  0  0  0  0  0  0  0  0  0  0
    5.3130    1.4770   -0.7360 C   0  0  0  0  0  0  0  0  0  0  0  0
    6.7330    1.5850   -0.8290 O   0  0  0  0  0  0  0  0  0  0  0  0
    1.4900    0.3300    1.4060 O   0  0  0  0  0  0  0  0  0  0  0  0
   -0.1100   -1.8080   -0.2290 C   0  0  2  0  0  0  0  0  0  0  0  0
   -1.3110   -2.7580    0.0870 C   0  0  0  0  0  0  0  0  0  0  0  0
   -1.5760   -2.8800    1.4040 O   0  0  0  0  0  0  0  0  0  0  0  0
    0.9320   -2.3790    0.7730 C   0  0  0  0  0  0  0  0  0  0  0  0
    1.3580   -3.7800    0.5030 C   0  0  1  0  0  0  0  0  0  0  0  0
    2.7420   -3.9220    1.1870 C   0  0  0  0  0  0  0  0  0  0  0  0
    0.3980   -5.0290    1.3230 Cl  0  0  0  0  0  0  0  0  0  0  0  0
    1.6220   -4.0710   -0.9430 C   0  0  0  0  0  0  0  0  0  0  0  0
    1.7700   -2.7010   -1.5930 C   0  0  0  0  0  0  0  0  0  0  0  0
    0.3290   -2.1140   -1.5500 C   0  0  2  0  0  0  0  0  0  0  0  0
    0.3180   -1.1850   -2.6990 C   0  0  0  0  0  0  0  0  0  0  0  0
   -0.3900   -3.2550   -2.0660 O   0  0  0  0  0  0  0  0  0  0  0  0
   -3.6540    1.6730   -0.1750 C   0  0  1  0  0  0  0  0  0  0  0  0
   -4.1650    2.9390    0.4520 C   0  0  0  0  0  0  0  0  0  0  0  0
   -5.6880    2.9170    0.2950 C   0  0  0  0  0  0  0  0  0  0  0  0
   -5.9360    2.3410   -1.0940 C   0  0  0  0  0  0  0  0  0  0  0  0
   -4.8010    2.6620   -2.0430 C   0  0  0  0  0  0  0  0  0  0  0  0
   -3.5150    1.9160   -1.6370 C   0  0  0  0  0  0  0  0  0  0  0  0
  2  1  1  1
  2  3  1  0
  2 30  1  0
  3  4  1  0
  4  5  1  1
  4  6  1  0
  4 18  1  0
  6  7  1  6
  6 17  1  0
  7  8  1  0
  8  9  2  0
  8 10  1  0
 10 11  1  1
 10 12  1  0
 10 17  1  0
 12 13  1  0
 13 14  1  1
 13 15  1  0
 15 16  1  0
 18 19  1  1
 18 21  1  0
 18 27  1  0
 19 20  1  0
 21 22  1  0
 22 23  1  1
 22 24  1  0
 22 25  1  0
 25 26  1  0
 26 27  1  0
 27 28  1  6
 27 29  1  0
 30 31  1  1
 30 35  1  0
 31 32  1  0
 32 33  1  0
 33 34  1  0
 34 35  1  0
M  END
