
     RDKit          3D

 35 40  0  0  0  0  0  0  0  0999 V2000
    6.3130   -0.7650    2.9310 C   0  0  0  0  0  0  0  0  0  0  0  0
    5.6840   -0.6720    1.5940 C   0  0  0  0  0  0  0  0  0  0  0  0
    4.6340   -1.3880    1.4260 N   0  0  0  0  0  0  0  0  0  0  0  0
    3.7550   -1.5880    0.3380 C   0  0  0  0  0  0  0  0  0  0  0  0
    2.7690   -2.5530    0.4800 O   0  0  0  0  0  0  0  0  0  0  0  0
    1.4590   -2.1490    0.6210 C   0  0  0  0  0  0  0  0  0  0  0  0
    1.1220   -0.8190    0.6240 C   0  0  0  0  0  0  0  0  0  0  0  0
   -0.2010   -0.4240    0.7650 C   0  0  0  0  0  0  0  0  0  0  0  0
   -1.2140   -1.3660    0.9080 C   0  0  0  0  0  0  0  0  0  0  0  0
   -2.5340   -0.9650    1.0490 O   0  0  0  0  0  0  0  0  0  0  0  0
   -3.5480   -1.9380    1.1890 C   0  0  0  0  0  0  0  0  0  0  0  0
   -4.8690   -1.2270    1.3230 C   0  0  0  0  0  0  0  0  0  0  0  0
   -5.5270   -0.9330    2.4560 N   0  0  0  0  0  0  0  0  0  0  0  0
   -6.6800   -0.2900    2.1890 C   0  0  0  0  0  0  0  0  0  0  0  0
   -7.7120    0.2300    2.9260 C   0  0  0  0  0  0  0  0  0  0  0  0
   -8.8100    0.8610    2.3610 C   0  0  0  0  0  0  0  0  0  0  0  0
   -8.8200    0.9450    0.9850 C   0  0  0  0  0  0  0  0  0  0  0  0
   -7.7900    0.4270    0.2240 C   0  0  0  0  0  0  0  0  0  0  0  0
   -6.7060   -0.1960    0.7990 C   0  0  0  0  0  0  0  0  0  0  0  0
   -5.6060   -0.7700    0.3430 O   0  0  0  0  0  0  0  0  0  0  0  0
   -8.1380    0.7000   -1.1920 C   0  0  0  0  0  0  0  0  0  0  0  0
   -8.9930    1.8040   -1.0970 O   0  0  0  0  0  0  0  0  0  0  0  0
   -9.8100    1.5400    0.0160 C   0  0  0  0  0  0  0  0  0  0  0  0
   -0.8390   -2.6940    0.9000 C   0  0  0  0  0  0  0  0  0  0  0  0
    0.4730   -3.0900    0.7590 C   0  0  0  0  0  0  0  0  0  0  0  0
    3.7840   -0.9300   -0.8230 C   0  0  0  0  0  0  0  0  0  0  0  0
    4.6470    0.0930   -1.2750 N   0  0  0  0  0  0  0  0  0  0  0  0
    4.1230    0.6950   -2.4850 C   0  0  0  0  0  0  0  0  0  0  0  0
    4.9020    1.9320   -2.8730 C   0  0  1  0  0  0  0  0  0  0  0  0
    4.4200    3.3440   -1.9130 Cl  0  0  0  0  0  0  0  0  0  0  0  0
    6.3830    1.7200   -2.7570 C   0  0  1  0  0  0  0  0  0  0  0  0
    7.0970    2.9000   -3.1270 N   0  0  0  0  0  0  0  0  0  0  0  0
    6.6820    1.2830   -1.3620 C   0  0  0  0  0  0  0  0  0  0  0  0
    5.8700    0.5270   -0.6810 C   0  0  0  0  0  0  0  0  0  0  0  0
    6.3060    0.1930    0.6530 N   0  0  0  0  0  0  0  0  0  0  0  0
  1  2  1  0
  2  3  2  0
  2 35  1  0
  3  4  1  0
  4  5  1  0
  4 26  2  0
  5  6  1  0
  6  7  2  0
  6 25  1  0
  7  8  1  0
  8  9  2  0
  9 10  1  0
  9 24  1  0
 10 11  1  0
 11 12  1  0
 12 13  2  0
 12 20  1  0
 13 14  1  0
 14 15  2  0
 14 19  1  0
 15 16  1  0
 16 17  2  0
 17 18  1  0
 17 23  1  0
 18 19  2  0
 18 21  1  0
 19 20  1  0
 21 22  1  0
 22 23  1  0
 24 25  2  0
 26 27  1  0
 27 28  1  0
 27 34  1  0
 28 29  1  0
 29 30  1  1
 29 31  1  0
 31 32  1  1
 31 33  1  0
 33 34  2  0
 34 35  1  0
M  CHG  1  32   1
M  END
