
     RDKit          3D

 11 12  0  0  0  0  0  0  0  0999 V2000
    2.5960   -1.9140    0.2080 O   0  0  0  0  0  0  0  0  0  0  0  0
    1.6880   -1.0490    0.1140 C   0  0  0  0  0  0  0  0  0  0  0  0
    0.4040   -1.4180    0.1430 N   0  0  0  0  0  0  0  0  0  0  0  0
   -0.5640   -0.4440    0.0380 C   0  0  0  0  0  0  0  0  0  0  0  0
   -0.2180    0.8310   -0.0890 C   0  0  0  0  0  0  0  0  0  0  0  0
    1.1150    1.1790   -0.1160 N   0  0  0  0  0  0  0  0  0  0  0  0
    2.0870    0.2630   -0.0160 C   0  0  0  0  0  0  0  0  0  0  0  0
    3.3100    0.5720   -0.0400 O   0  0  0  0  0  0  0  0  0  0  0  0
   -1.2930    1.7870   -0.1960 N   0  0  0  0  0  0  0  0  0  0  0  0
   -2.6680    0.7660   -0.7160 S   0  0  0  0  0  0  0  0  0  0  0  0
   -2.0350   -0.7450    0.0650 C   0  0  0  0  0  0  0  0  0  0  0  0
  1  2  2  0
  2  3  1  0
  2  7  1  0
  3  4  1  0
  4  5  2  0
  4 11  1  0
  5  6  1  0
  5  9  1  0
  6  7  1  0
  7  8  2  0
  9 10  1  0
 10 11  1  0
M  END
