
     RDKit          3D

 11 11  0  0  0  0  0  0  0  0999 V2000
   -2.5980    0.3970   -0.5120 C   0  0  0  0  0  0  0  0  0  0  0  0
   -2.2220   -0.9930   -0.5800 N   0  0  0  0  0  0  0  0  0  0  0  0
   -1.0150   -1.3940    0.5860 S   0  0  2  0  0  0  0  0  0  0  0  0
   -0.7140   -2.8610    0.4360 O   0  0  0  0  0  0  0  0  0  0  0  0
   -1.5420   -1.2140    1.9940 O   0  0  0  0  0  0  0  0  0  0  0  0
    0.4520   -0.5020    0.3400 C   0  0  0  0  0  0  0  0  0  0  0  0
    0.6960    0.6730    0.9000 C   0  0  0  0  0  0  0  0  0  0  0  0
    1.9380    1.4490    0.7040 C   0  0  0  0  0  0  0  0  0  0  0  0
    2.8550    0.7600   -0.1780 N   0  0  0  0  0  0  0  0  0  0  0  0
    2.5860   -0.4780   -0.7610 N   0  0  0  0  0  0  0  0  0  0  0  0
    1.4710   -1.0770   -0.5290 C   0  0  0  0  0  0  0  0  0  0  0  0
  1  2  1  0
  3  2  1  6
  3  4  2  0
  3  5  2  0
  3  6  1  0
  6  7  2  0
  6 11  1  0
  7  8  1  0
  8  9  1  0
  9 10  1  0
 10 11  2  0
M  END
