
     RDKit          3D

 11 11  0  0  0  0  0  0  0  0999 V2000
   -2.4050   -1.3690   -0.7120 C   0  0  0  0  0  0  0  0  0  0  0  0
   -1.4920   -0.2690   -0.2540 C   0  0  0  0  0  0  0  0  0  0  0  0
   -1.9740    0.8710    0.3500 C   0  0  0  0  0  0  0  0  0  0  0  0
   -1.0440    1.8160    0.7300 C   0  0  0  0  0  0  0  0  0  0  0  0
    0.2480    1.5770    0.4950 N   0  0  0  0  0  0  0  0  0  0  0  0
    0.7130    0.4650   -0.0940 C   0  0  0  0  0  0  0  0  0  0  0  0
    2.4430    0.2270   -0.3690 S   0  0  2  0  0  0  0  0  0  0  0  0
    3.1380   -0.5630    0.9920 N   0  0  0  0  0  0  0  0  0  0  0  0
    3.1130    1.5590   -0.5280 O   0  0  0  0  0  0  0  0  0  0  0  0
    2.6230   -0.6170   -1.5990 O   0  0  0  0  0  0  0  0  0  0  0  0
   -0.1800   -0.4620   -0.4690 N   0  0  0  0  0  0  0  0  0  0  0  0
  1  2  1  0
  2  3  2  0
  2 11  1  0
  3  4  1  0
  4  5  2  0
  5  6  1  0
  6  7  1  0
  6 11  2  0
  7  8  1  1
  7  9  2  0
  7 10  2  0
M  END
