
     RDKit          3D

 11 11  0  0  0  0  0  0  0  0999 V2000
    1.5660    0.9570   -1.4660 O   0  0  0  0  0  0  0  0  0  0  0  0
    2.4490    0.3550   -0.8060 C   0  0  0  0  0  0  0  0  0  0  0  0
    3.6580    0.9970   -0.5820 O   0  0  0  0  0  0  0  0  0  0  0  0
    2.2930   -0.9470   -0.2730 N   0  0  0  0  0  0  0  0  0  0  0  0
    1.0800   -1.6080   -0.4900 N   0  0  0  0  0  0  0  0  0  0  0  0
   -0.0560   -1.0890   -0.1190 C   0  0  0  0  0  0  0  0  0  0  0  0
   -1.3110   -1.8370   -0.3760 C   0  0  0  0  0  0  0  0  0  0  0  0
   -2.4750   -0.6350   -1.1280 S   0  0  0  0  0  0  0  0  0  0  0  0
   -2.5180    0.7320    0.0960 C   0  0  0  0  0  0  0  0  0  0  0  0
   -1.1290    1.1600    0.3740 C   0  0  0  0  0  0  0  0  0  0  0  0
   -0.1350    0.1710    0.5260 N   0  0  0  0  0  0  0  0  0  0  0  0
  1  2  2  0
  2  3  1  0
  2  4  1  0
  4  5  1  0
  5  6  2  3
  6  7  1  0
  6 11  1  0
  7  8  1  0
  8  9  1  0
  9 10  1  0
 10 11  1  0
M  END
