
     RDKit          3D

 10 10  0  0  0  0  0  0  0  0999 V2000
   -2.9930   -0.2080   -0.2900 C   0  0  0  0  0  0  0  0  0  0  0  0
   -1.7820   -0.8390    0.9050 S   0  0  0  0  0  0  0  0  0  0  0  0
   -0.1250   -0.4320    0.4430 C   0  0  0  0  0  0  0  0  0  0  0  0
    0.5850   -1.2710   -0.3360 N   0  0  0  0  0  0  0  0  0  0  0  0
    1.8480   -0.9910   -0.7060 C   0  0  0  0  0  0  0  0  0  0  0  0
    2.5070   -1.7830   -1.4370 O   0  0  0  0  0  0  0  0  0  0  0  0
    2.3800    0.1650   -0.2660 N   0  0  0  0  0  0  0  0  0  0  0  0
    1.6600    1.0060    0.5180 C   0  0  0  0  0  0  0  0  0  0  0  0
    2.1680    2.0820    0.9220 O   0  0  0  0  0  0  0  0  0  0  0  0
    0.3970    0.7260    0.8870 N   0  0  0  0  0  0  0  0  0  0  0  0
  1  2  1  0
  2  3  1  0
  3  4  2  0
  3 10  1  0
  4  5  1  0
  5  6  2  0
  5  7  1  0
  7  8  1  0
  8  9  2  0
  8 10  1  0
M  END
