
     RDKit          3D

 11 11  0  0  0  0  0  0  0  0999 V2000
    3.5960    0.4740    0.2330 C   0  0  0  0  0  0  0  0  0  0  0  0
    2.0900    0.6630    0.0510 C   0  0  0  0  0  0  0  0  0  0  0  0
    1.2350   -0.8300    0.6020 S   0  0  0  0  0  0  0  0  0  0  0  0
   -0.5190   -0.5730    0.3740 C   0  0  0  0  0  0  0  0  0  0  0  0
   -1.2830   -0.0270    1.3540 N   0  0  0  0  0  0  0  0  0  0  0  0
   -2.5830    0.1680    1.1960 N   0  0  0  0  0  0  0  0  0  0  0  0
   -3.2300   -0.1600    0.0640 C   0  0  0  0  0  0  0  0  0  0  0  0
   -4.4770    0.0250   -0.0910 O   0  0  0  0  0  0  0  0  0  0  0  0
   -2.5080   -0.7060   -0.9330 N   0  0  0  0  0  0  0  0  0  0  0  0
   -1.1790   -0.9110   -0.7890 C   0  0  0  0  0  0  0  0  0  0  0  0
   -0.4820   -1.4190   -1.7050 O   0  0  0  0  0  0  0  0  0  0  0  0
  1  2  1  0
  2  3  1  0
  3  4  1  0
  4  5  2  0
  4 10  1  0
  5  6  1  0
  6  7  1  0
  7  8  2  0
  7  9  1  0
  9 10  1  0
 10 11  2  0
M  END
