
     RDKit          3D

 11 11  0  0  0  0  0  0  0  0999 V2000
    2.8220   -1.7390   -0.2080 C   0  0  0  0  0  0  0  0  0  0  0  0
    1.5480   -1.1230   -0.2500 O   0  0  0  0  0  0  0  0  0  0  0  0
    1.1980   -0.0230    0.4840 C   0  0  0  0  0  0  0  0  0  0  0  0
    2.1040    0.4570    1.2490 O   0  0  0  0  0  0  0  0  0  0  0  0
   -0.0870    0.6490    0.4830 C   0  0  0  0  0  0  0  0  0  0  0  0
   -1.0590    0.2020   -0.2840 C   0  0  0  0  0  0  0  0  0  0  0  0
   -0.8030   -0.9900   -1.1300 C   0  0  0  0  0  0  0  0  0  0  0  0
   -2.3380    0.8490   -0.3020 N   0  0  0  0  0  0  0  0  0  0  0  0
   -2.5680    1.9680    0.4970 N   0  0  0  0  0  0  0  0  0  0  0  0
   -1.5120    2.4100    1.2950 N   0  0  0  0  0  0  0  0  0  0  0  0
   -0.3620    1.8200    1.3060 C   0  0  0  0  0  0  0  0  0  0  0  0
  1  2  1  0
  2  3  1  0
  3  4  2  0
  3  5  1  0
  5  6  2  0
  5 11  1  0
  6  7  1  0
  6  8  1  0
  8  9  1  0
  9 10  1  0
 10 11  2  0
M  END
