
     RDKit          3D

 22 23  0  0  0  0  0  0  0  0999 V2000
    7.4230    0.6270    0.2610 C   0  0  0  0  0  0  0  0  0  0  0  0
    6.4660   -0.3440    0.4490 O   0  0  0  0  0  0  0  0  0  0  0  0
    5.1520    0.1420    0.2320 C   0  0  2  0  0  0  0  0  0  0  0  0
    4.5070   -0.0150    1.4510 O   0  0  0  0  0  0  0  0  0  0  0  0
    4.5740   -0.6910   -0.8470 C   0  0  0  0  0  0  0  0  0  0  0  0
    3.2930   -0.4350   -1.2740 O   0  0  0  0  0  0  0  0  0  0  0  0
    2.1190   -0.4750   -0.5810 C   0  0  0  0  0  0  0  0  0  0  0  0
    2.1590   -0.7840    0.6200 O   0  0  0  0  0  0  0  0  0  0  0  0
    0.8760   -0.1930   -1.1250 O   0  0  0  0  0  0  0  0  0  0  0  0
   -0.3150   -0.2350   -0.4130 C   0  0  2  0  0  0  0  0  0  0  0  0
   -1.3430   -1.1720   -0.9350 C   0  0  0  0  0  0  0  0  0  0  0  0
   -2.6480   -0.6490   -0.3940 C   0  0  2  0  0  0  0  0  0  0  0  0
   -3.2670   -1.6190    0.3910 O   0  0  0  0  0  0  0  0  0  0  0  0
   -3.5950   -0.2180   -1.4910 C   0  0  0  0  0  0  0  0  0  0  0  0
   -4.8590    0.2860   -0.8270 C   0  0  1  0  0  0  0  0  0  0  0  0
   -5.7520   -0.7820   -0.7310 O   0  0  0  0  0  0  0  0  0  0  0  0
   -4.5360    0.8830    0.5260 C   0  0  2  0  0  0  0  0  0  0  0  0
   -5.5390    1.8020    0.9000 O   0  0  0  0  0  0  0  0  0  0  0  0
   -3.3060    1.5350    0.3950 O   0  0  0  0  0  0  0  0  0  0  0  0
   -2.3100    0.5950    0.4110 C   0  0  1  0  0  0  0  0  0  0  0  0
   -1.8890    0.2620    1.7030 O   0  0  0  0  0  0  0  0  0  0  0  0
   -1.0510    1.0690   -0.3320 C   0  0  0  0  0  0  0  0  0  0  0  0
  1  2  1  0
  2  3  1  0
  3  4  1  1
  3  5  1  0
  5  6  1  0
  6  7  1  0
  7  8  2  0
  7  9  1  0
 10  9  1  6
 10 11  1  0
 10 22  1  0
 11 12  1  0
 12 13  1  1
 12 14  1  0
 12 20  1  0
 14 15  1  0
 15 16  1  1
 15 17  1  0
 17 18  1  6
 17 19  1  0
 19 20  1  0
 20 21  1  1
 20 22  1  0
M  END
