
     RDKit          3D

 15 15  0  0  0  0  0  0  0  0999 V2000
   -1.9420    0.8270   -2.0110 C   0  0  0  0  0  0  0  0  0  0  0  0
   -1.4250    1.7180   -1.1650 C   0  0  0  0  0  0  0  0  0  0  0  0
   -1.0350    1.3540    0.1870 C   0  0  0  0  0  0  0  0  0  0  0  0
   -0.5350    2.2440    0.9880 C   0  0  0  0  0  0  0  0  0  0  0  0
   -0.3600    3.6310    0.5280 C   0  0  0  0  0  0  0  0  0  0  0  0
   -1.2280   -0.0260    0.5920 N   0  0  0  0  0  0  0  0  0  0  0  0
   -2.4270   -0.4550    1.2490 C   0  0  0  0  0  0  0  0  0  0  0  0
   -2.4830   -1.9430    1.3190 C   0  0  0  0  0  0  0  0  0  0  0  0
   -1.7770   -2.5960    0.1600 C   0  0  0  0  0  0  0  0  0  0  0  0
   -0.3930   -2.1590    0.0780 N   0  0  0  0  0  0  0  0  0  0  0  0
   -0.1630   -0.8970    0.2950 C   0  0  0  0  0  0  0  0  0  0  0  0
    1.1820   -0.3410    0.2390 C   0  0  0  0  0  0  0  0  0  0  0  0
    2.2800   -1.0180   -0.0250 C   0  0  0  0  0  0  0  0  0  0  0  0
    3.6300   -0.4090   -0.0710 C   0  0  0  0  0  0  0  0  0  0  0  0
    4.1890   -0.6050   -1.3980 N   0  0  0  0  0  0  0  0  0  0  0  0
  1  2  2  0
  2  3  1  0
  3  4  2  3
  3  6  1  0
  4  5  1  0
  6  7  1  0
  6 11  1  0
  7  8  1  0
  8  9  1  0
  9 10  1  0
 10 11  2  0
 11 12  1  0
 12 13  2  3
 13 14  1  0
 14 15  1  0
M  CHG  2  10   1  15   1
M  END
