
     RDKit          3D

 22 22  0  0  0  0  0  0  0  0999 V2000
   -4.9200    1.6790   -0.9800 C   0  0  0  0  0  0  0  0  0  0  0  0
   -4.6090    1.7560    0.3600 O   0  0  0  0  0  0  0  0  0  0  0  0
   -3.8850    0.7130    0.8760 C   0  0  0  0  0  0  0  0  0  0  0  0
   -2.5620    0.6110    0.1760 C   0  0  0  0  0  0  0  0  0  0  0  0
   -1.7260   -0.5410    0.7560 C   0  0  1  0  0  0  0  0  0  0  0  0
   -2.5030   -1.6650    0.5530 O   0  0  0  0  0  0  0  0  0  0  0  0
   -0.4130   -0.5770    0.0160 C   0  0  1  0  0  0  0  0  0  0  0  0
    0.2830    0.7240    0.2000 C   0  0  2  0  0  0  0  0  0  0  0  0
   -0.0680    1.5760   -0.8780 O   0  0  0  0  0  0  0  0  0  0  0  0
    1.8010    0.6960    0.2100 C   0  0  2  0  0  0  0  0  0  0  0  0
    2.1520    1.6030    1.2470 O   0  0  0  0  0  0  0  0  0  0  0  0
    2.3630    1.3480   -1.0300 C   0  0  0  0  0  0  0  0  0  0  0  0
    3.6550    1.6750   -1.0810 O   0  0  0  0  0  0  0  0  0  0  0  0
    4.6950    0.8570   -0.9820 C   0  0  0  0  0  0  0  0  0  0  0  0
    5.8900    1.6570   -1.1090 O   0  0  0  0  0  0  0  0  0  0  0  0
    2.3750   -0.6190    0.5480 C   0  0  2  0  0  0  0  0  0  0  0  0
    2.8960   -1.2970   -0.5590 O   0  0  0  0  0  0  0  0  0  0  0  0
    1.4430   -1.4540    1.2170 O   0  0  0  0  0  0  0  0  0  0  0  0
    0.4410   -1.7490    0.3290 C   0  0  2  0  0  0  0  0  0  0  0  0
    0.9980   -2.1830   -0.8950 O   0  0  0  0  0  0  0  0  0  0  0  0
   -0.2640   -2.9720    0.8590 C   0  0  0  0  0  0  0  0  0  0  0  0
   -0.7980   -2.7960    2.1380 O   0  0  0  0  0  0  0  0  0  0  0  0
  1  2  1  0
  2  3  1  0
  3  4  1  0
  4  5  1  0
  5  6  1  6
  7  5  1  1
  7  8  1  0
  7 19  1  0
  8  9  1  6
  8 10  1  0
 10 11  1  1
 10 12  1  0
 10 16  1  0
 12 13  1  0
 13 14  1  0
 14 15  1  0
 16 17  1  6
 16 18  1  0
 18 19  1  0
 19 20  1  6
 19 21  1  0
 21 22  1  0
M  END
