
     RDKit          3D

 15 16  0  0  0  0  0  0  0  0999 V2000
    0.0310   -2.1630   -0.1460 C   0  0  0  0  0  0  0  0  0  0  0  0
   -0.6860   -0.8290   -0.4350 C   0  0  1  0  0  0  0  0  0  0  0  0
   -2.1500   -1.1810   -0.5330 C   0  0  0  0  0  0  0  0  0  0  0  0
   -3.0260   -0.0920   -0.8090 N   0  0  2  0  0  0  0  0  0  0  0  0
   -2.3810    1.1130   -1.2790 C   0  0  0  0  0  0  0  0  0  0  0  0
   -3.7600    0.2440    0.3980 C   0  0  0  0  0  0  0  0  0  0  0  0
   -0.4710   -0.0360    0.7480 N   0  0  0  0  0  0  0  0  0  0  0  0
    0.8110    0.3220    1.2290 C   0  0  0  0  0  0  0  0  0  0  0  0
    1.1050    0.6680    2.4780 C   0  0  0  0  0  0  0  0  0  0  0  0
    2.5110    0.9640    2.5900 C   0  0  0  0  0  0  0  0  0  0  0  0
    3.1140    0.8080    1.4130 C   0  0  0  0  0  0  0  0  0  0  0  0
    4.3790    0.8740    0.6490 C   0  0  0  0  0  0  0  0  0  0  0  0
    4.0020    0.4940   -0.6790 N   0  0  0  0  0  0  0  0  0  0  0  0
    2.6110    0.2200   -0.7040 C   0  0  0  0  0  0  0  0  0  0  0  0
    2.0630    0.3920    0.4920 C   0  0  0  0  0  0  0  0  0  0  0  0
  2  1  1  1
  2  3  1  0
  2  7  1  0
  3  4  1  0
  4  5  1  1
  4  6  1  0
  7  8  1  0
  8  9  2  0
  8 15  1  0
  9 10  1  0
 10 11  2  0
 11 12  1  0
 11 15  1  0
 12 13  1  0
 13 14  1  0
 14 15  2  0
M  CHG  1   4   1
M  END
