
     RDKit          3D

 15 16  0  0  0  0  0  0  0  0999 V2000
    3.9050   -0.8430    0.6070 C   0  0  0  0  0  0  0  0  0  0  0  0
    3.3870    0.4020   -0.0160 C   0  0  2  0  0  0  0  0  0  0  0  0
    4.3240    1.5880    0.2640 C   0  0  0  0  0  0  0  0  0  0  0  0
    2.0910    0.8000    0.3610 N   0  0  0  0  0  0  0  0  0  0  0  0
    1.1100   -0.2550    0.4780 C   0  0  2  0  0  0  0  0  0  0  0  0
    1.2840   -1.3520   -0.5050 C   0  0  0  0  0  0  0  0  0  0  0  0
   -0.0580   -1.8500   -1.0610 C   0  0  0  0  0  0  0  0  0  0  0  0
   -1.0220   -1.7690    0.0920 C   0  0  0  0  0  0  0  0  0  0  0  0
   -1.3550   -0.4020    0.3070 N   0  0  0  0  0  0  0  0  0  0  0  0
   -2.2430    0.1510   -0.6860 C   0  0  1  0  0  0  0  0  0  0  0  0
   -3.5870   -0.5180   -0.7320 C   0  0  0  0  0  0  0  0  0  0  0  0
   -4.2690    0.0200    0.4840 C   0  0  0  0  0  0  0  0  0  0  0  0
   -3.8500    1.3870    0.5620 N   0  0  0  0  0  0  0  0  0  0  0  0
   -2.6500    1.5500   -0.2030 C   0  0  0  0  0  0  0  0  0  0  0  0
   -0.2260    0.4290    0.4310 C   0  0  0  0  0  0  0  0  0  0  0  0
  2  1  1  1
  2  3  1  0
  2  4  1  0
  5  4  1  6
  5  6  1  0
  5 15  1  0
  6  7  1  0
  7  8  1  0
  8  9  1  0
 10  9  1  1
  9 15  1  0
 10 11  1  0
 10 14  1  0
 11 12  1  0
 12 13  1  0
 13 14  1  0
M  CHG  2   4   1  13   1
M  END
