
     RDKit          3D

 15 16  0  0  0  0  0  0  0  0999 V2000
    4.2800    0.0020   -1.7660 C   0  0  0  0  0  0  0  0  0  0  0  0
    3.4300   -0.1330   -0.7340 C   0  0  0  0  0  0  0  0  0  0  0  0
    1.9860    0.0430   -0.7590 C   0  0  0  0  0  0  0  0  0  0  0  0
    1.4830   -0.1670    0.4290 C   0  0  0  0  0  0  0  0  0  0  0  0
    0.0660   -0.0990    0.8730 C   0  0  0  0  0  0  0  0  0  0  0  0
   -0.7820    0.3030   -0.1690 N   0  0  0  0  0  0  0  0  0  0  0  0
   -0.7170    1.6690   -0.5950 C   0  0  0  0  0  0  0  0  0  0  0  0
   -1.7660    1.6370   -1.7200 C   0  0  0  0  0  0  0  0  0  0  0  0
   -2.7490    0.5450   -1.3090 C   0  0  0  0  0  0  0  0  0  0  0  0
   -2.2010    0.1470    0.0480 C   0  0  1  0  0  0  0  0  0  0  0  0
   -2.6040   -1.2430    0.4440 C   0  0  0  0  0  0  0  0  0  0  0  0
   -4.1220   -1.2280    0.6310 C   0  0  0  0  0  0  0  0  0  0  0  0
    2.5380   -0.4940    1.3220 N   0  0  0  0  0  0  0  0  0  0  0  0
    3.7750   -0.4830    0.6340 C   0  0  0  0  0  0  0  0  0  0  0  0
    4.9640   -0.7250    1.0880 N   0  0  0  0  0  0  0  0  0  0  0  0
  1  2  2  0
  2  3  1  0
  2 14  1  0
  3  4  2  0
  4  5  1  0
  4 13  1  0
  5  6  1  0
  6  7  1  0
  6 10  1  0
  7  8  1  0
  8  9  1  0
  9 10  1  0
 10 11  1  6
 11 12  1  0
 13 14  1  0
 14 15  2  0
M  CHG  1  15   1
M  END
