
     RDKit          3D

 15 16  0  0  0  0  0  0  0  0999 V2000
    5.2860   -0.5590   -0.1780 Cl  0  0  0  0  0  0  0  0  0  0  0  0
    3.5330   -0.4030   -0.2630 C   0  0  0  0  0  0  0  0  0  0  0  0
    2.9330   -0.3060   -1.5050 C   0  0  0  0  0  0  0  0  0  0  0  0
    1.5550   -0.1810   -1.6270 C   0  0  0  0  0  0  0  0  0  0  0  0
    0.7650   -0.1510   -0.5040 C   0  0  0  0  0  0  0  0  0  0  0  0
   -0.6150   -0.0270   -0.5760 O   0  0  0  0  0  0  0  0  0  0  0  0
   -1.3980   -0.0000    0.6150 C   0  0  0  0  0  0  0  0  0  0  0  0
   -2.8300    0.1350    0.3410 C   0  0  0  0  0  0  0  0  0  0  0  0
   -3.6890   -0.8770    0.1570 N   0  0  0  0  0  0  0  0  0  0  0  0
   -4.9030   -0.3540   -0.0670 N   0  0  0  0  0  0  0  0  0  0  0  0
   -4.8130    0.9830   -0.0260 N   0  0  0  0  0  0  0  0  0  0  0  0
   -3.5360    1.2730    0.2260 N   0  0  0  0  0  0  0  0  0  0  0  0
    1.3800   -0.2480    0.7240 C   0  0  0  0  0  0  0  0  0  0  0  0
    2.7450   -0.3730    0.8660 C   0  0  0  0  0  0  0  0  0  0  0  0
    3.5260   -0.4960    2.4250 Cl  0  0  0  0  0  0  0  0  0  0  0  0
  1  2  1  0
  2  3  2  0
  2 14  1  0
  3  4  1  0
  4  5  2  0
  5  6  1  0
  5 13  1  0
  6  7  1  0
  7  8  1  0
  8  9  2  0
  8 12  1  0
  9 10  1  0
 10 11  2  0
 11 12  1  0
 13 14  2  0
 14 15  1  0
M  END
