
     RDKit          3D

 23 25  0  0  0  0  0  0  0  0999 V2000
    6.4520    0.3530   -1.4920 C   0  0  0  0  0  0  0  0  0  0  0  0
    5.9880    0.2760   -0.0620 C   0  0  0  0  0  0  0  0  0  0  0  0
    4.3030   -0.3150    0.0620 S   0  0  0  0  0  0  0  0  0  0  0  0
    3.0980    0.7940   -0.6130 C   0  0  0  0  0  0  0  0  0  0  0  0
    3.4940    2.0880   -1.2660 C   0  0  0  0  0  0  0  0  0  0  0  0
    1.8230    0.4950   -0.5350 C   0  0  0  0  0  0  0  0  0  0  0  0
    1.4130   -0.7410    0.1050 C   0  0  0  0  0  0  0  0  0  0  0  0
    1.9310   -1.9780    0.0610 N   0  0  0  0  0  0  0  0  0  0  0  0
    1.2180   -2.8090    0.8360 N   0  0  0  0  0  0  0  0  0  0  0  0
    0.2080   -2.1380    1.4120 C   0  0  0  0  0  0  0  0  0  0  0  0
   -0.8340   -2.6660    2.3510 C   0  0  0  0  0  0  0  0  0  0  0  0
    0.3090   -0.8440    0.9690 C   0  0  0  0  0  0  0  0  0  0  0  0
   -0.5740    0.2750    1.3170 C   0  0  2  0  0  0  0  0  0  0  0  0
   -0.7740    0.4610    2.6720 O   0  0  0  0  0  0  0  0  0  0  0  0
   -1.9070    0.1710    0.6180 C   0  0  0  0  0  0  0  0  0  0  0  0
   -2.1620   -0.8050   -0.3210 C   0  0  0  0  0  0  0  0  0  0  0  0
   -3.3970   -0.8770   -0.9450 C   0  0  0  0  0  0  0  0  0  0  0  0
   -4.4120    0.0100   -0.6600 C   0  0  0  0  0  0  0  0  0  0  0  0
   -4.1740    0.9890    0.2730 C   0  0  0  0  0  0  0  0  0  0  0  0
   -2.9210    1.0570    0.9030 C   0  0  0  0  0  0  0  0  0  0  0  0
   -5.3230    1.7570    0.3960 O   0  0  0  0  0  0  0  0  0  0  0  0
   -6.4500    1.0910   -0.1320 C   0  0  0  0  0  0  0  0  0  0  0  0
   -5.8030    0.1650   -1.1580 C   0  0  0  0  0  0  0  0  0  0  0  0
  1  2  1  0
  2  3  1  0
  3  4  1  0
  4  5  1  0
  4  6  2  3
  6  7  1  0
  7  8  1  0
  7 12  2  0
  8  9  1  0
  9 10  2  0
 10 11  1  0
 10 12  1  0
 12 13  1  0
 13 14  1  1
 13 15  1  0
 15 16  2  0
 15 20  1  0
 16 17  1  0
 17 18  2  0
 18 19  1  0
 18 23  1  0
 19 20  2  0
 19 21  1  0
 21 22  1  0
 22 23  1  0
M  END
