
     RDKit          3D

 23 25  0  0  0  0  0  0  0  0999 V2000
    0.5180    1.7430   -1.6710 N   0  0  0  0  0  0  0  0  0  0  0  0
    1.6600    1.0570   -1.1960 C   0  0  0  0  0  0  0  0  0  0  0  0
    1.7450    0.2790   -0.1550 C   0  0  0  0  0  0  0  0  0  0  0  0
    0.6510   -0.0410    0.7330 C   0  0  0  0  0  0  0  0  0  0  0  0
   -0.6520    0.4050    0.4670 N   0  0  0  0  0  0  0  0  0  0  0  0
   -1.3880   -0.2180   -0.5810 C   0  0  0  0  0  0  0  0  0  0  0  0
   -2.5520    0.6840   -0.9580 C   0  0  0  0  0  0  0  0  0  0  0  0
   -3.5150    0.7970    0.2210 C   0  0  1  0  0  0  0  0  0  0  0  0
   -4.8230    0.1630   -0.1410 C   0  0  0  0  0  0  0  0  0  0  0  0
   -6.0550    0.8000   -0.1550 C   0  0  0  0  0  0  0  0  0  0  0  0
   -7.0140   -0.1360   -0.5450 C   0  0  0  0  0  0  0  0  0  0  0  0
   -6.2940   -1.2970   -0.7450 C   0  0  0  0  0  0  0  0  0  0  0  0
   -5.0180   -1.0680   -0.4950 O   0  0  0  0  0  0  0  0  0  0  0  0
   -2.8940    0.1670    1.4230 C   0  0  0  0  0  0  0  0  0  0  0  0
   -1.4920    0.6840    1.5830 C   0  0  0  0  0  0  0  0  0  0  0  0
    3.0600   -0.3220    0.1390 C   0  0  0  0  0  0  0  0  0  0  0  0
    3.1680   -1.0710    1.1310 O   0  0  0  0  0  0  0  0  0  0  0  0
    4.2350   -0.0610   -0.7010 C   0  0  0  0  0  0  0  0  0  0  0  0
    5.4460   -0.7400   -0.2510 C   0  0  0  0  0  0  0  0  0  0  0  0
    6.4390   -0.4070    0.5870 C   0  0  0  0  0  0  0  0  0  0  0  0
    7.4550   -1.2450    0.8220 C   0  0  0  0  0  0  0  0  0  0  0  0
    7.4590   -2.4660    0.1800 C   0  0  0  0  0  0  0  0  0  0  0  0
    5.9290   -2.3800   -0.7940 S   0  0  0  0  0  0  0  0  0  0  0  0
  1  2  1  0
  2  3  2  3
  3  4  1  0
  3 16  1  0
  4  5  1  0
  5  6  1  0
  5 15  1  0
  6  7  1  0
  7  8  1  0
  8  9  1  6
  8 14  1  0
  9 10  2  0
  9 13  1  0
 10 11  1  0
 11 12  2  0
 12 13  1  0
 14 15  1  0
 16 17  2  0
 16 18  1  0
 18 19  1  0
 19 20  2  0
 19 23  1  0
 20 21  1  0
 21 22  2  0
 22 23  1  0
M  END
