
     RDKit          3D

 14 14  0  0  0  0  0  0  0  0999 V2000
    4.8030    0.0170    0.1860 C   0  0  0  0  0  0  0  0  0  0  0  0
    3.8340   -0.9580   -0.0310 O   0  0  0  0  0  0  0  0  0  0  0  0
    2.4670   -0.7090   -0.0500 C   0  0  0  0  0  0  0  0  0  0  0  0
    1.9550    0.5450    0.1490 C   0  0  0  0  0  0  0  0  0  0  0  0
    0.5660    0.7120    0.1150 C   0  0  0  0  0  0  0  0  0  0  0  0
   -0.3240   -0.2960   -0.1040 C   0  0  0  0  0  0  0  0  0  0  0  0
   -1.7750   -0.0720   -0.1310 C   0  0  0  0  0  0  0  0  0  0  0  0
   -2.7410   -1.1580   -0.3640 C   0  0  0  0  0  0  0  0  0  0  0  0
   -2.2680    1.1410    0.0580 C   0  0  0  0  0  0  0  0  0  0  0  0
   -3.6970    1.4220    0.0410 C   0  0  0  0  0  0  0  0  0  0  0  0
   -4.5720    0.5730   -0.1470 O   0  0  0  0  0  0  0  0  0  0  0  0
   -4.0670    2.7710    0.2610 O   0  0  0  0  0  0  0  0  0  0  0  0
    0.2230   -1.5460   -0.3010 C   0  0  0  0  0  0  0  0  0  0  0  0
    1.6090   -1.7570   -0.2750 C   0  0  0  0  0  0  0  0  0  0  0  0
  1  2  1  0
  2  3  1  0
  3  4  2  0
  3 14  1  0
  4  5  1  0
  5  6  2  0
  6  7  1  0
  6 13  1  0
  7  8  1  0
  7  9  2  3
  9 10  1  0
 10 11  2  0
 10 12  1  0
 13 14  2  0
M  END
