
     RDKit          3D

 23 25  0  0  0  0  0  0  0  0999 V2000
    7.2470   -0.0500    1.1680 C   0  0  0  0  0  0  0  0  0  0  0  0
    5.8580    0.3980    0.8100 C   0  0  0  0  0  0  0  0  0  0  0  0
    4.8120   -0.6370    1.1190 C   0  0  0  0  0  0  0  0  0  0  0  0
    3.4900   -0.0580    0.7130 C   0  0  0  0  0  0  0  0  0  0  0  0
    3.0290    1.1140    1.2940 O   0  0  0  0  0  0  0  0  0  0  0  0
    2.7860   -0.6490   -0.1730 N   0  0  0  0  0  0  0  0  0  0  0  0
    1.5340   -0.1260   -0.5750 C   0  0  0  0  0  0  0  0  0  0  0  0
    1.3940    1.1320   -1.1240 C   0  0  0  0  0  0  0  0  0  0  0  0
    0.1700    1.5950   -1.4970 C   0  0  0  0  0  0  0  0  0  0  0  0
   -0.9480    0.7750   -1.3160 C   0  0  0  0  0  0  0  0  0  0  0  0
   -2.1940    1.2490   -1.6990 O   0  0  0  0  0  0  0  0  0  0  0  0
   -3.3240    0.4910   -1.4210 C   0  0  0  0  0  0  0  0  0  0  0  0
   -4.1180    0.0180   -2.4720 C   0  0  0  0  0  0  0  0  0  0  0  0
   -5.2440   -0.7340   -2.2420 C   0  0  0  0  0  0  0  0  0  0  0  0
   -5.5930   -1.0240   -0.9540 C   0  0  0  0  0  0  0  0  0  0  0  0
   -7.0550   -2.0010   -0.6450 S   0  0  0  0  0  0  0  0  0  0  0  0
   -4.8120   -0.5590    0.0970 C   0  0  0  0  0  0  0  0  0  0  0  0
   -4.9420   -0.7050    1.4800 C   0  0  0  0  0  0  0  0  0  0  0  0
   -3.8820   -0.0310    2.0470 C   0  0  0  0  0  0  0  0  0  0  0  0
   -3.1360    0.5030    1.0620 N   0  0  0  0  0  0  0  0  0  0  0  0
   -3.6850    0.1920   -0.1270 C   0  0  0  0  0  0  0  0  0  0  0  0
   -0.8030   -0.4740   -0.7720 C   0  0  0  0  0  0  0  0  0  0  0  0
    0.4250   -0.9580   -0.3890 C   0  0  0  0  0  0  0  0  0  0  0  0
  1  2  1  0
  2  3  1  0
  3  4  1  0
  4  5  1  0
  4  6  2  3
  6  7  1  0
  7  8  2  0
  7 23  1  0
  8  9  1  0
  9 10  2  0
 10 11  1  0
 10 22  1  0
 11 12  1  0
 12 13  2  0
 12 21  1  0
 13 14  1  0
 14 15  2  0
 15 16  1  0
 15 17  1  0
 17 18  1  0
 17 21  2  0
 18 19  2  0
 19 20  1  0
 20 21  1  0
 22 23  2  0
M  END
