
     RDKit          3D

 23 25  0  0  0  0  0  0  0  0999 V2000
   -0.3140   -2.3060    0.7390 C   0  0  0  0  0  0  0  0  0  0  0  0
   -0.6370   -1.1500   -0.1930 C   0  0  1  0  0  0  0  0  0  0  0  0
   -0.4190   -1.6800   -1.6140 C   0  0  0  0  0  0  0  0  0  0  0  0
   -2.0460   -0.7950   -0.0740 C   0  0  0  0  0  0  0  0  0  0  0  0
   -2.9880   -1.6540   -0.6100 C   0  0  0  0  0  0  0  0  0  0  0  0
   -4.3480   -1.3440   -0.5220 C   0  0  0  0  0  0  0  0  0  0  0  0
   -5.2860   -2.2170   -1.0660 O   0  0  0  0  0  0  0  0  0  0  0  0
   -4.6950   -0.1700    0.1100 C   0  0  0  0  0  0  0  0  0  0  0  0
   -3.7750    0.6910    0.6460 C   0  0  0  0  0  0  0  0  0  0  0  0
   -2.4200    0.3590    0.5450 C   0  0  0  0  0  0  0  0  0  0  0  0
   -1.4050    1.1780    1.0770 N   0  0  0  0  0  0  0  0  0  0  0  0
    0.0150    0.9360    0.8820 C   0  0  2  0  0  0  0  0  0  0  0  0
    0.4950    2.2860    0.3340 C   0  0  0  0  0  0  0  0  0  0  0  0
    1.4040    3.1440    0.8620 C   0  0  0  0  0  0  0  0  0  0  0  0
    1.6760    4.2780    0.1830 C   0  0  0  0  0  0  0  0  0  0  0  0
    1.0500    4.5170   -0.9710 C   0  0  0  0  0  0  0  0  0  0  0  0
   -0.0040    3.0470   -1.1280 S   0  0  0  0  0  0  0  0  0  0  0  0
    0.3040   -0.0670   -0.0430 N   0  0  0  0  0  0  0  0  0  0  0  0
    1.6000   -0.6660   -0.0750 C   0  0  0  0  0  0  0  0  0  0  0  0
    2.7290    0.1640   -0.5550 C   0  0  0  0  0  0  0  0  0  0  0  0
    4.0040   -0.6990   -0.5600 C   0  0  0  0  0  0  0  0  0  0  0  0
    4.3440   -1.2070    0.7810 C   0  0  0  0  0  0  0  0  0  0  0  0
    3.8560   -2.2150    1.2520 O   0  0  0  0  0  0  0  0  0  0  0  0
  2  1  1  1
  2  3  1  0
  2  4  1  0
  2 18  1  0
  4  5  2  0
  4 10  1  0
  5  6  1  0
  6  7  1  0
  6  8  2  0
  8  9  1  0
  9 10  2  0
 10 11  1  0
 11 12  1  0
 12 13  1  6
 12 18  1  0
 13 14  2  0
 13 17  1  0
 14 15  1  0
 15 16  2  0
 16 17  1  0
 18 19  1  0
 19 20  1  0
 20 21  1  0
 21 22  1  0
 22 23  2  0
M  END
