
     RDKit          3D

 14 14  0  0  0  0  0  0  0  0999 V2000
    4.0360   -1.1470    0.4970 C   0  0  0  0  0  0  0  0  0  0  0  0
    2.6950   -0.9850   -0.1010 C   0  0  0  0  0  0  0  0  0  0  0  0
    2.2930    0.1880   -0.4830 C   0  0  0  0  0  0  0  0  0  0  0  0
    3.1530    1.2960   -0.3170 O   0  0  0  0  0  0  0  0  0  0  0  0
    0.9860    0.5270   -1.0990 C   0  0  2  0  0  0  0  0  0  0  0  0
    1.3010    1.1270   -2.3440 O   0  0  0  0  0  0  0  0  0  0  0  0
    0.3510    1.5870   -0.2520 C   0  0  0  0  0  0  0  0  0  0  0  0
   -0.5020    1.0160    0.8530 C   0  0  0  0  0  0  0  0  0  0  0  0
   -1.5450    0.1520    0.1730 C   0  0  2  0  0  0  0  0  0  0  0  0
   -2.6280   -0.2110    1.1570 C   0  0  0  0  0  0  0  0  0  0  0  0
   -3.5980   -0.9950    0.5880 O   0  0  0  0  0  0  0  0  0  0  0  0
   -4.2360   -0.3990   -0.4700 C   0  0  0  0  0  0  0  0  0  0  0  0
   -0.7660   -1.0870   -0.2860 C   0  0  0  0  0  0  0  0  0  0  0  0
    0.1390   -0.6420   -1.3980 C   0  0  0  0  0  0  0  0  0  0  0  0
  1  2  1  0
  2  3  2  3
  3  4  1  0
  3  5  1  0
  5  6  1  6
  5  7  1  0
  5 14  1  0
  7  8  1  0
  8  9  1  0
  9 10  1  1
  9 13  1  0
 10 11  1  0
 11 12  1  0
 13 14  1  0
M  END
