
     RDKit          3D

 14 14  0  0  0  0  0  0  0  0999 V2000
    3.2910    1.3740    0.5370 C   0  0  0  0  0  0  0  0  0  0  0  0
    2.7190    0.1500   -0.1390 C   0  0  2  0  0  0  0  0  0  0  0  0
    3.0490   -1.1150    0.5870 C   0  0  0  0  0  0  0  0  0  0  0  0
    3.3260    0.0810   -1.5190 C   0  0  0  0  0  0  0  0  0  0  0  0
    1.2330    0.2550   -0.2810 C   0  0  0  0  0  0  0  0  0  0  0  0
    0.7770    0.2110   -1.4470 O   0  0  0  0  0  0  0  0  0  0  0  0
    0.3820    0.3890    0.7460 O   0  0  0  0  0  0  0  0  0  0  0  0
   -0.9630    0.4800    0.7810 C   0  0  0  0  0  0  0  0  0  0  0  0
   -1.8540   -0.6330    0.4200 C   0  0  1  0  0  0  0  0  0  0  0  0
   -1.6830   -1.7860    1.1780 O   0  0  0  0  0  0  0  0  0  0  0  0
   -3.3030   -0.1760    0.7810 C   0  0  0  0  0  0  0  0  0  0  0  0
   -3.7260    0.6220   -0.4350 C   0  0  0  0  0  0  0  0  0  0  0  0
   -2.7290    0.3090   -1.5430 C   0  0  0  0  0  0  0  0  0  0  0  0
   -2.0590   -0.9450   -1.0190 C   0  0  0  0  0  0  0  0  0  0  0  0
  2  1  1  1
  2  3  1  0
  2  4  1  0
  2  5  1  0
  5  6  2  0
  5  7  1  0
  7  8  1  0
  8  9  1  0
  9 10  1  1
  9 11  1  0
  9 14  1  0
 11 12  1  0
 12 13  1  0
 13 14  1  0
M  END
