
     RDKit          3D

 23 25  0  0  0  0  0  0  0  0999 V2000
    0.1570   -0.6780    0.5570 O   0  0  0  0  0  0  0  0  0  0  0  0
   -0.0470   -1.6080   -0.2510 C   0  0  0  0  0  0  0  0  0  0  0  0
    1.0610   -2.5230   -0.6410 C   0  0  0  0  0  0  0  0  0  0  0  0
    2.3680   -2.1860   -0.0330 C   0  0  0  0  0  0  0  0  0  0  0  0
    2.9360   -0.8490   -0.3560 C   0  0  0  0  0  0  0  0  0  0  0  0
    4.2810   -0.7530    0.3860 C   0  0  0  0  0  0  0  0  0  0  0  0
    4.9340    0.5530    0.1270 C   0  0  0  0  0  0  0  0  0  0  0  0
    5.8050    0.9040   -0.8570 C   0  0  0  0  0  0  0  0  0  0  0  0
    6.2680    2.1550   -0.8900 C   0  0  0  0  0  0  0  0  0  0  0  0
    5.8530    3.0540    0.0720 C   0  0  0  0  0  0  0  0  0  0  0  0
    4.7430    2.0390    1.0660 S   0  0  0  0  0  0  0  0  0  0  0  0
   -1.3560   -1.7630   -0.7780 N   0  0  0  0  0  0  0  0  0  0  0  0
   -2.4830   -0.9740   -0.4940 C   0  0  0  0  0  0  0  0  0  0  0  0
   -2.5430    0.0990    0.3460 C   0  0  0  0  0  0  0  0  0  0  0  0
   -3.7570    0.7710    0.5100 C   0  0  0  0  0  0  0  0  0  0  0  0
   -3.8560    1.8660    1.3550 C   0  0  0  0  0  0  0  0  0  0  0  0
   -5.0420    2.5440    1.5330 C   0  0  0  0  0  0  0  0  0  0  0  0
   -6.1880    2.1350    0.8520 C   0  0  0  0  0  0  0  0  0  0  0  0
   -6.1010    1.0390    0.0020 C   0  0  0  0  0  0  0  0  0  0  0  0
   -4.8980    0.3830   -0.1530 C   0  0  0  0  0  0  0  0  0  0  0  0
   -4.8240   -0.6580   -0.9620 N   0  0  0  0  0  0  0  0  0  0  0  0
   -3.6800   -1.3090   -1.1310 C   0  0  0  0  0  0  0  0  0  0  0  0
   -3.6730   -2.2850   -1.9100 O   0  0  0  0  0  0  0  0  0  0  0  0
  1  2  2  0
  2  3  1  0
  2 12  1  0
  3  4  1  0
  4  5  1  0
  5  6  1  0
  6  7  1  0
  7  8  2  0
  7 11  1  0
  8  9  1  0
  9 10  2  0
 10 11  1  0
 12 13  1  0
 13 14  2  0
 13 22  1  0
 14 15  1  0
 15 16  2  0
 15 20  1  0
 16 17  1  0
 17 18  2  0
 18 19  1  0
 19 20  2  0
 20 21  1  0
 21 22  1  0
 22 23  2  0
M  END
