
     RDKit          3D

 47 51  0  0  0  0  0  0  0  0999 V2000
    7.4350    1.3800   -2.8970 C   0  0  0  0  0  0  0  0  0  0  0  0
    6.8520    0.7740   -1.6240 C   0  0  1  0  0  0  0  0  0  0  0  0
    8.0470    0.6640   -0.6770 C   0  0  0  0  0  0  0  0  0  0  0  0
    5.8970    1.7180   -1.0180 C   0  0  0  0  0  0  0  0  0  0  0  0
    5.8980    2.9800   -1.5090 C   0  0  0  0  0  0  0  0  0  0  0  0
    5.0690    3.9350   -1.0340 C   0  0  0  0  0  0  0  0  0  0  0  0
    4.1740    3.6270   -0.0040 C   0  0  0  0  0  0  0  0  0  0  0  0
    3.3670    4.6790    0.4010 O   0  0  0  0  0  0  0  0  0  0  0  0
    4.1670    2.3290    0.5100 C   0  0  0  0  0  0  0  0  0  0  0  0
    5.0250    1.3560    0.0140 C   0  0  0  0  0  0  0  0  0  0  0  0
    5.1100    0.1050    0.4880 C   0  0  0  0  0  0  0  0  0  0  0  0
    4.5640   -0.8120    1.4320 C   0  0  0  0  0  0  0  0  0  0  0  0
    5.2290   -0.7490    2.5680 O   0  0  0  0  0  0  0  0  0  0  0  0
    3.4810   -1.7590    1.3730 N   0  0  0  0  0  0  0  0  0  0  0  0
    2.7050   -2.3500    0.3110 C   0  0  0  0  0  0  0  0  0  0  0  0
    2.7760   -3.7500    0.2230 C   0  0  0  0  0  0  0  0  0  0  0  0
    2.1650   -4.5150   -0.7400 C   0  0  0  0  0  0  0  0  0  0  0  0
    1.4260   -3.8580   -1.6920 C   0  0  0  0  0  0  0  0  0  0  0  0
    1.3450   -2.4830   -1.6160 C   0  0  0  0  0  0  0  0  0  0  0  0
    1.9490   -1.6980   -0.6550 C   0  0  0  0  0  0  0  0  0  0  0  0
    1.6570   -0.2870   -0.7830 N   0  0  0  0  0  0  0  0  0  0  0  0
    1.1370    0.6400    0.1470 C   0  0  0  0  0  0  0  0  0  0  0  0
    1.1290    1.8510   -0.1650 O   0  0  0  0  0  0  0  0  0  0  0  0
    0.5710    0.3040    1.5130 C   0  0  2  0  0  0  0  0  0  0  0  0
   -0.3280    1.3790    2.0170 C   0  0  0  0  0  0  0  0  0  0  0  0
   -1.5050    1.7520    1.2580 C   0  0  0  0  0  0  0  0  0  0  0  0
   -1.7540    3.0510    1.2380 O   0  0  0  0  0  0  0  0  0  0  0  0
   -2.4210    0.9680    0.5480 N   0  0  0  0  0  0  0  0  0  0  0  0
   -3.5920    1.5660   -0.1180 C   0  0  0  0  0  0  0  0  0  0  0  0
   -4.8930    0.8820    0.1910 C   0  0  2  0  0  0  0  0  0  0  0  0
   -5.5330    1.4890    1.3690 C   0  0  0  0  0  0  0  0  0  0  0  0
   -4.8190    1.4840    2.6630 C   0  0  0  0  0  0  0  0  0  0  0  0
   -5.7000    2.1160    3.5880 O   0  0  0  0  0  0  0  0  0  0  0  0
   -4.7600   -0.5900    0.1520 C   0  0  2  0  0  0  0  0  0  0  0  0
   -4.6780   -1.1030    1.4600 O   0  0  0  0  0  0  0  0  0  0  0  0
   -3.4290   -0.8930   -0.4930 C   0  0  2  0  0  0  0  0  0  0  0  0
   -3.2090   -2.3220   -0.8400 C   0  0  0  0  0  0  0  0  0  0  0  0
   -4.1040   -2.6770   -2.0050 C   0  0  0  0  0  0  0  0  0  0  0  0
   -5.2400   -1.6950   -2.0380 C   0  0  0  0  0  0  0  0  0  0  0  0
   -5.7760   -1.3340   -0.6670 C   0  0  2  0  0  0  0  0  0  0  0  0
   -7.0840   -0.6510   -0.8760 C   0  0  0  0  0  0  0  0  0  0  0  0
   -6.0850   -2.6470    0.0650 C   0  0  0  0  0  0  0  0  0  0  0  0
   -2.2730   -0.4480    0.4120 C   0  0  0  0  0  0  0  0  0  0  0  0
    1.7270    0.3090    2.4470 N   0  0  0  0  0  0  0  0  0  0  0  0
    2.7840    1.2670    2.4590 C   0  0  0  0  0  0  0  0  0  0  0  0
    3.3680    1.2580    3.6360 O   0  0  0  0  0  0  0  0  0  0  0  0
    3.3070    2.1810    1.5310 C   0  0  0  0  0  0  0  0  0  0  0  0
  2  1  1  6
  2  3  1  0
  2  4  1  0
  4  5  2  0
  4 10  1  0
  5  6  1  0
  6  7  2  0
  7  8  1  0
  7  9  1  0
  9 10  1  0
  9 47  2  0
 10 11  2  0
 11 12  1  0
 12 13  2  0
 12 14  1  0
 14 15  1  0
 15 16  2  0
 15 20  1  0
 16 17  1  0
 17 18  2  0
 18 19  1  0
 19 20  2  0
 20 21  1  0
 21 22  1  0
 22 23  2  0
 22 24  1  0
 24 25  1  1
 24 44  1  0
 25 26  1  0
 26 27  2  0
 26 28  1  0
 28 29  1  0
 28 43  1  0
 29 30  1  0
 30 31  1  1
 30 34  1  0
 31 32  1  0
 32 33  1  0
 34 35  1  1
 34 36  1  0
 34 40  1  0
 36 37  1  1
 36 43  1  0
 37 38  1  0
 38 39  1  0
 39 40  1  0
 40 41  1  6
 40 42  1  0
 44 45  1  0
 45 46  2  0
 45 47  1  0
M  END
