
     RDKit          3D

 48 52  0  0  0  0  0  0  0  0999 V2000
   12.9030    0.6030   -1.3050 C   0  0  0  0  0  0  0  0  0  0  0  0
   11.6550    0.1610   -0.6180 C   0  0  0  0  0  0  0  0  0  0  0  0
   10.4090    0.6150   -0.9940 C   0  0  0  0  0  0  0  0  0  0  0  0
    9.2490    0.2180   -0.3670 C   0  0  0  0  0  0  0  0  0  0  0  0
    9.3060   -0.6710    0.6830 C   0  0  0  0  0  0  0  0  0  0  0  0
    8.0550   -1.0890    1.3610 C   0  0  0  0  0  0  0  0  0  0  0  0
    7.9000   -1.9670    2.3980 C   0  0  0  0  0  0  0  0  0  0  0  0
    6.5420   -2.0570    2.7150 C   0  0  0  0  0  0  0  0  0  0  0  0
    5.9350   -1.2090    1.8330 C   0  0  0  0  0  0  0  0  0  0  0  0
    4.4760   -0.9470    1.7650 C   0  0  0  0  0  0  0  0  0  0  0  0
    3.7720   -1.5150    2.6400 O   0  0  0  0  0  0  0  0  0  0  0  0
    3.9510   -0.1020    0.7630 N   0  0  0  0  0  0  0  0  0  0  0  0
    2.5730    0.1450    0.7110 N   0  0  0  0  0  0  0  0  0  0  0  0
    1.5690   -0.8090    0.7320 C   0  0  0  0  0  0  0  0  0  0  0  0
    2.0310   -2.0340    0.8240 O   0  0  0  0  0  0  0  0  0  0  0  0
    0.1370   -0.7250    0.6800 C   0  0  0  0  0  0  0  0  0  0  0  0
   -0.5740   -1.6850    1.4710 C   0  0  0  0  0  0  0  0  0  0  0  0
   -1.9370   -1.7340    1.5320 C   0  0  0  0  0  0  0  0  0  0  0  0
   -2.6690   -0.8250    0.8050 C   0  0  0  0  0  0  0  0  0  0  0  0
   -4.1420   -0.8440    0.8650 C   0  0  0  0  0  0  0  0  0  0  0  0
   -4.7300   -1.8510   -0.0910 C   0  0  0  0  0  0  0  0  0  0  0  0
   -6.2240   -1.7920    0.0160 C   0  0  0  0  0  0  0  0  0  0  0  0
   -6.7650   -0.8150    0.5880 O   0  0  0  0  0  0  0  0  0  0  0  0
   -7.0410   -2.8120   -0.5090 N   0  0  0  0  0  0  0  0  0  0  0  0
   -8.4640   -2.8860   -0.4950 C   0  0  0  0  0  0  0  0  0  0  0  0
   -9.1950   -1.8930   -1.3010 C   0  0  1  0  0  0  0  0  0  0  0  0
  -10.7200   -2.1390   -1.1510 C   0  0  0  0  0  0  0  0  0  0  0  0
  -10.9840   -1.4150    0.1520 C   0  0  2  0  0  0  0  0  0  0  0  0
  -12.4360   -0.9930    0.1940 C   0  0  0  0  0  0  0  0  0  0  0  0
  -10.1280   -0.2040    0.0320 C   0  0  0  0  0  0  0  0  0  0  0  0
  -10.2990    0.8670    0.6360 O   0  0  0  0  0  0  0  0  0  0  0  0
   -9.0990   -0.5290   -0.9000 N   0  0  0  0  0  0  0  0  0  0  0  0
   -2.0180    0.1040    0.0410 C   0  0  0  0  0  0  0  0  0  0  0  0
   -0.6010    0.1430   -0.0130 C   0  0  0  0  0  0  0  0  0  0  0  0
   -0.0440    1.2170   -0.8690 C   0  0  0  0  0  0  0  0  0  0  0  0
   -0.0250    1.0110   -2.1030 O   0  0  0  0  0  0  0  0  0  0  0  0
    0.4360    2.4270   -0.3360 N   0  0  0  0  0  0  0  0  0  0  0  0
    0.9780    3.5030   -1.0700 C   0  0  0  0  0  0  0  0  0  0  0  0
    1.1160    3.4120   -2.4300 C   0  0  0  0  0  0  0  0  0  0  0  0
    1.6580    4.4460   -3.2010 C   0  0  0  0  0  0  0  0  0  0  0  0
    2.0610    5.5800   -2.5710 C   0  0  0  0  0  0  0  0  0  0  0  0
    1.9290    5.6850   -1.2140 C   0  0  0  0  0  0  0  0  0  0  0  0
    1.3930    4.6700   -0.4320 C   0  0  0  0  0  0  0  0  0  0  0  0
    1.2780    4.8510    0.9880 C   0  0  0  0  0  0  0  0  0  0  0  0
    0.8320    4.0880    1.8320 O   0  0  0  0  0  0  0  0  0  0  0  0
    6.8460   -0.6610    1.0570 O   0  0  0  0  0  0  0  0  0  0  0  0
   10.5310   -1.1390    1.0780 C   0  0  0  0  0  0  0  0  0  0  0  0
   11.6920   -0.7380    0.4480 C   0  0  0  0  0  0  0  0  0  0  0  0
  1  2  1  0
  2  3  2  0
  2 48  1  0
  3  4  1  0
  4  5  2  0
  5  6  1  0
  5 47  1  0
  6  7  2  0
  6 46  1  0
  7  8  1  0
  8  9  2  0
  9 10  1  0
  9 46  1  0
 10 11  2  0
 10 12  1  0
 12 13  1  0
 13 14  1  0
 14 15  2  0
 14 16  1  0
 16 17  2  0
 16 34  1  0
 17 18  1  0
 18 19  2  0
 19 20  1  0
 19 33  1  0
 20 21  1  0
 21 22  1  0
 22 23  2  0
 22 24  1  0
 24 25  1  0
 26 25  1  1
 26 27  1  0
 26 32  1  0
 27 28  1  0
 28 29  1  6
 28 30  1  0
 30 31  2  0
 30 32  1  0
 33 34  2  0
 34 35  1  0
 35 36  2  0
 35 37  1  0
 37 38  1  0
 38 39  2  0
 38 43  1  0
 39 40  1  0
 40 41  2  0
 41 42  1  0
 42 43  2  0
 43 44  1  0
 44 45  2  0
 47 48  2  0
M  END
