
     RDKit          3D

 47 50  0  0  0  0  0  0  0  0999 V2000
   12.7840   -0.1870   -0.3770 C   0  0  0  0  0  0  0  0  0  0  0  0
   11.5930   -0.3740   -1.1690 N   0  0  0  0  0  0  0  0  0  0  0  0
   10.3240   -0.6560   -0.5740 C   0  0  0  0  0  0  0  0  0  0  0  0
   10.3210   -0.7240    0.6760 O   0  0  0  0  0  0  0  0  0  0  0  0
    9.1680   -0.8340   -1.4650 C   0  0  0  0  0  0  0  0  0  0  0  0
    7.9250   -1.3900   -0.9080 C   0  0  2  0  0  0  0  0  0  0  0  0
    7.9150   -2.7640   -0.3650 C   0  0  0  0  0  0  0  0  0  0  0  0
    8.8070   -3.0730    0.7570 C   0  0  0  0  0  0  0  0  0  0  0  0
    8.5110   -2.7590    2.1060 N   0  0  0  0  0  0  0  0  0  0  0  0
    9.9310   -3.6610    0.5640 O   0  0  0  0  0  0  0  0  0  0  0  0
    6.7900   -1.1870   -1.8370 N   0  0  0  0  0  0  0  0  0  0  0  0
    5.6200   -0.4520   -1.4670 C   0  0  0  0  0  0  0  0  0  0  0  0
    5.6060    0.0010   -0.3140 O   0  0  0  0  0  0  0  0  0  0  0  0
    4.5500   -0.2510   -2.3420 N   0  0  0  0  0  0  0  0  0  0  0  0
    3.3800    0.4310   -2.0390 C   0  0  0  0  0  0  0  0  0  0  0  0
    2.5550    0.8660   -3.0850 C   0  0  0  0  0  0  0  0  0  0  0  0
    1.3710    1.5240   -2.8580 C   0  0  0  0  0  0  0  0  0  0  0  0
    0.9500    1.7830   -1.5380 C   0  0  0  0  0  0  0  0  0  0  0  0
   -0.3560    2.4420   -1.4230 C   0  0  0  0  0  0  0  0  0  0  0  0
   -1.5140    1.5640   -1.2660 C   0  0  0  0  0  0  0  0  0  0  0  0
   -2.4310    1.6280   -0.3360 C   0  0  0  0  0  0  0  0  0  0  0  0
   -2.3640    2.6530    0.6960 C   0  0  0  0  0  0  0  0  0  0  0  0
   -2.6120    3.9690    0.2440 C   0  0  0  0  0  0  0  0  0  0  0  0
   -2.6060    5.0360    1.0930 C   0  0  0  0  0  0  0  0  0  0  0  0
   -2.3530    4.8140    2.4090 C   0  0  0  0  0  0  0  0  0  0  0  0
   -2.1050    3.5500    2.8790 C   0  0  0  0  0  0  0  0  0  0  0  0
   -2.1100    2.4570    1.9970 C   0  0  0  0  0  0  0  0  0  0  0  0
   -1.6360    1.2130    2.5870 C   0  0  0  0  0  0  0  0  0  0  0  0
   -1.2940    0.1860    1.9910 O   0  0  0  0  0  0  0  0  0  0  0  0
   -3.6820    0.7900   -0.5400 C   0  0  2  0  0  0  0  0  0  0  0  0
   -4.6250    1.7730   -0.9220 O   0  0  0  0  0  0  0  0  0  0  0  0
   -4.0420   -0.0180    0.5820 C   0  0  0  0  0  0  0  0  0  0  0  0
   -5.3270   -0.8990    0.4540 C   0  0  2  0  0  0  0  0  0  0  0  0
   -6.4770   -0.0700    0.2170 C   0  0  0  0  0  0  0  0  0  0  0  0
   -7.8540   -0.4690    0.0810 C   0  0  2  0  0  0  0  0  0  0  0  0
   -8.5500    0.7870   -0.1410 O   0  0  0  0  0  0  0  0  0  0  0  0
   -8.6230   -1.0480    1.2140 C   0  0  0  0  0  0  0  0  0  0  0  0
   -9.9250   -1.3880    0.4860 C   0  0  0  0  0  0  0  0  0  0  0  0
   -9.6760   -1.5270   -0.8460 O   0  0  0  0  0  0  0  0  0  0  0  0
   -8.3090   -1.2850   -1.0960 C   0  0  0  0  0  0  0  0  0  0  0  0
   -5.2590   -1.7370    1.6780 C   0  0  0  0  0  0  0  0  0  0  0  0
   -5.4820   -3.1430    1.2110 C   0  0  0  0  0  0  0  0  0  0  0  0
   -5.2440   -3.2160   -0.2430 C   0  0  0  0  0  0  0  0  0  0  0  0
   -4.9810   -1.8270   -0.6950 C   0  0  0  0  0  0  0  0  0  0  0  0
    1.7420    1.3670   -0.5100 C   0  0  0  0  0  0  0  0  0  0  0  0
    1.3450    1.6560    0.8900 C   0  0  0  0  0  0  0  0  0  0  0  0
    2.9410    0.6990   -0.7810 C   0  0  0  0  0  0  0  0  0  0  0  0
  1  2  1  0
  2  3  1  0
  3  4  2  0
  3  5  1  0
  6  5  1  6
  6  7  1  0
  6 11  1  0
  7  8  1  0
  8  9  1  0
  8 10  2  0
 11 12  1  0
 12 13  2  0
 12 14  1  0
 14 15  1  0
 15 16  2  0
 15 47  1  0
 16 17  1  0
 17 18  2  0
 18 19  1  0
 18 45  1  0
 19 20  1  0
 20 21  2  3
 21 22  1  0
 21 30  1  0
 22 23  2  0
 22 27  1  0
 23 24  1  0
 24 25  2  0
 25 26  1  0
 26 27  2  0
 27 28  1  0
 28 29  2  0
 30 31  1  1
 30 32  1  0
 33 32  1  1
 33 34  1  0
 33 41  1  0
 33 44  1  0
 34 35  1  0
 35 36  1  6
 35 37  1  0
 35 40  1  0
 37 38  1  0
 38 39  1  0
 39 40  1  0
 41 42  1  0
 42 43  1  0
 43 44  1  0
 45 46  1  0
 45 47  2  0
M  END
