
     RDKit          3D

 47 51  0  0  0  0  0  0  0  0999 V2000
   -6.2140    9.4370   -0.6550 C   0  0  0  0  0  0  0  0  0  0  0  0
   -4.9360    9.4570   -0.0520 O   0  0  0  0  0  0  0  0  0  0  0  0
   -4.1460    8.3160    0.0270 C   0  0  0  0  0  0  0  0  0  0  0  0
   -4.5640    7.0840   -0.4850 C   0  0  0  0  0  0  0  0  0  0  0  0
   -3.7630    5.9580   -0.3990 C   0  0  0  0  0  0  0  0  0  0  0  0
   -2.5290    5.9980    0.1900 C   0  0  0  0  0  0  0  0  0  0  0  0
   -1.6290    4.8070    0.3090 C   0  0  0  0  0  0  0  0  0  0  0  0
   -0.7230    4.6980   -0.8790 C   0  0  0  0  0  0  0  0  0  0  0  0
    0.2010    3.5410   -0.7320 C   0  0  0  0  0  0  0  0  0  0  0  0
   -0.5150    2.2160   -0.6150 C   0  0  0  0  0  0  0  0  0  0  0  0
    0.5770    1.1720   -0.4620 C   0  0  0  0  0  0  0  0  0  0  0  0
    0.0720   -0.2330   -0.3290 C   0  0  2  0  0  0  0  0  0  0  0  0
   -0.8000   -0.3520    0.8370 N   0  0  0  0  0  0  0  0  0  0  0  0
   -1.4050   -1.5490    1.2400 C   0  0  0  0  0  0  0  0  0  0  0  0
   -1.1920   -2.5990    0.5780 O   0  0  0  0  0  0  0  0  0  0  0  0
   -2.3030   -1.6640    2.4240 C   0  0  0  0  0  0  0  0  0  0  0  0
   -2.7980   -2.9110    2.6830 O   0  0  0  0  0  0  0  0  0  0  0  0
   -3.5760   -3.7150    1.9020 C   0  0  0  0  0  0  0  0  0  0  0  0
   -4.0380   -3.3740    0.6500 C   0  0  0  0  0  0  0  0  0  0  0  0
   -4.8280   -4.1980   -0.1370 C   0  0  0  0  0  0  0  0  0  0  0  0
   -5.2620   -3.8020   -1.3960 C   0  0  0  0  0  0  0  0  0  0  0  0
   -6.0460   -4.6270   -2.1770 C   0  0  0  0  0  0  0  0  0  0  0  0
   -6.3830   -5.8610   -1.6620 C   0  0  0  0  0  0  0  0  0  0  0  0
   -5.9480   -6.2560   -0.4020 C   0  0  0  0  0  0  0  0  0  0  0  0
   -5.1630   -5.4300    0.3810 C   0  0  0  0  0  0  0  0  0  0  0  0
   -4.7100   -5.7910    1.6370 C   0  0  0  0  0  0  0  0  0  0  0  0
   -3.9280   -4.9770    2.4150 C   0  0  0  0  0  0  0  0  0  0  0  0
   -3.4430   -5.3750    3.7670 C   0  0  0  0  0  0  0  0  0  0  0  0
    1.2390   -1.1290   -0.1110 C   0  0  0  0  0  0  0  0  0  0  0  0
    2.0960   -1.3990   -1.3060 C   0  0  1  0  0  0  0  0  0  0  0  0
    3.0110   -2.4700   -0.9190 N   0  0  0  0  0  0  0  0  0  0  0  0
    4.4440   -2.2990   -1.0240 C   0  0  0  0  0  0  0  0  0  0  0  0
    4.8200   -1.2100   -1.4620 O   0  0  0  0  0  0  0  0  0  0  0  0
    5.3480   -3.2930   -0.6570 N   0  0  0  0  0  0  0  0  0  0  0  0
    6.7720   -3.2010   -0.7110 C   0  0  0  0  0  0  0  0  0  0  0  0
    7.4420   -2.1810    0.1290 C   0  0  1  0  0  0  0  0  0  0  0  0
    7.4740   -0.7760   -0.3600 C   0  0  0  0  0  0  0  0  0  0  0  0
    8.7730   -0.1610    0.2050 C   0  0  0  0  0  0  0  0  0  0  0  0
    9.0680   -0.7770    1.5560 C   0  0  0  0  0  0  0  0  0  0  0  0
    7.8140   -1.3100    2.2070 C   0  0  0  0  0  0  0  0  0  0  0  0
    7.1730   -2.2920    1.4960 O   0  0  0  0  0  0  0  0  0  0  0  0
    1.3180   -1.9170   -2.4860 C   0  0  0  0  0  0  0  0  0  0  0  0
   -0.0150   -1.3840   -2.5470 N   0  0  0  0  0  0  0  0  0  0  0  0
   -0.6420   -0.5980   -1.5640 C   0  0  0  0  0  0  0  0  0  0  0  0
   -1.8320   -0.2350   -1.8040 O   0  0  0  0  0  0  0  0  0  0  0  0
   -2.1140    7.2230    0.6990 C   0  0  0  0  0  0  0  0  0  0  0  0
   -2.9020    8.3490    0.6180 C   0  0  0  0  0  0  0  0  0  0  0  0
  1  2  1  0
  2  3  1  0
  3  4  2  0
  3 47  1  0
  4  5  1  0
  5  6  2  0
  6  7  1  0
  6 46  1  0
  7  8  1  0
  8  9  1  0
  9 10  1  0
 10 11  1  0
 12 11  1  6
 12 13  1  0
 12 29  1  0
 12 44  1  0
 13 14  1  0
 14 15  2  0
 14 16  1  0
 16 17  1  0
 17 18  1  0
 18 19  2  0
 18 27  1  0
 19 20  1  0
 20 21  2  0
 20 25  1  0
 21 22  1  0
 22 23  2  0
 23 24  1  0
 24 25  2  0
 25 26  1  0
 26 27  2  0
 27 28  1  0
 29 30  1  0
 30 31  1  1
 30 42  1  0
 31 32  1  0
 32 33  2  0
 32 34  1  0
 34 35  1  0
 36 35  1  6
 36 37  1  0
 36 41  1  0
 37 38  1  0
 38 39  1  0
 39 40  1  0
 40 41  1  0
 42 43  1  0
 43 44  1  0
 44 45  2  0
 46 47  2  0
M  END
