
     RDKit          3D

 43 48  0  0  0  0  0  0  0  0999 V2000
   -6.1860   -3.9290    1.0750 C   0  0  0  0  0  0  0  0  0  0  0  0
   -5.4130   -2.6560    1.1270 C   0  0  0  0  0  0  0  0  0  0  0  0
   -6.1110   -1.4680    1.0440 C   0  0  0  0  0  0  0  0  0  0  0  0
   -5.4450   -0.2660    1.0930 C   0  0  0  0  0  0  0  0  0  0  0  0
   -4.0600   -0.2980    1.2280 C   0  0  0  0  0  0  0  0  0  0  0  0
   -3.3530   -1.4560    1.3110 C   0  0  0  0  0  0  0  0  0  0  0  0
   -1.8580   -1.5430    1.4390 C   0  0  0  0  0  0  0  0  0  0  0  0
   -1.1710   -1.6890    0.1310 C   0  0  0  0  0  0  0  0  0  0  0  0
   -1.2170   -0.5600   -0.8160 C   0  0  0  0  0  0  0  0  0  0  0  0
   -2.1720   -0.5680   -1.8580 C   0  0  0  0  0  0  0  0  0  0  0  0
   -2.2760    0.4100   -2.8040 C   0  0  0  0  0  0  0  0  0  0  0  0
   -3.2720    0.3150   -3.8160 N   0  0  1  0  0  0  0  0  0  0  0  0
   -4.0500   -0.8880   -3.7090 C   0  0  0  0  0  0  0  0  0  0  0  0
   -4.1930    1.4440   -3.7360 C   0  0  0  0  0  0  0  0  0  0  0  0
   -1.3940    1.4490   -2.7190 C   0  0  0  0  0  0  0  0  0  0  0  0
   -0.4520    1.5130   -1.7380 C   0  0  0  0  0  0  0  0  0  0  0  0
   -0.3400    0.4900   -0.7430 C   0  0  0  0  0  0  0  0  0  0  0  0
    0.6990    0.7350    0.1630 N   0  0  0  0  0  0  0  0  0  0  0  0
    2.0250    0.1260   -0.0170 C   0  0  0  0  0  0  0  0  0  0  0  0
    2.2680   -0.9330    0.9360 C   0  0  0  0  0  0  0  0  0  0  0  0
    3.5890   -1.6050    0.7570 N   0  0  2  0  0  0  0  0  0  0  0  0
    4.5870   -0.6770    1.0730 C   0  0  0  0  0  0  0  0  0  0  0  0
    5.5620   -0.3330   -0.0150 C   0  0  0  0  0  0  0  0  0  0  0  0
    5.9110   -1.5400   -0.8550 C   0  0  2  0  0  0  0  0  0  0  0  0
    4.6390   -1.9920   -1.4670 C   0  0  0  0  0  0  0  0  0  0  0  0
    3.6260   -2.3260   -0.4400 C   0  0  0  0  0  0  0  0  0  0  0  0
    6.6520   -2.5940   -0.0760 C   0  0  0  0  0  0  0  0  0  0  0  0
    7.9340   -1.9500    0.1300 N   0  0  0  0  0  0  0  0  0  0  0  0
    8.1470   -1.0110   -0.9130 C   0  0  0  0  0  0  0  0  0  0  0  0
    9.1170   -0.2360   -1.0720 O   0  0  0  0  0  0  0  0  0  0  0  0
    6.9700   -1.0990   -1.8400 C   0  0  0  0  0  0  0  0  0  0  0  0
    0.6800    1.7320    1.1910 C   0  0  0  0  0  0  0  0  0  0  0  0
    1.7860    1.8040    1.9020 O   0  0  0  0  0  0  0  0  0  0  0  0
   -0.3230    2.6620    1.5770 C   0  0  0  0  0  0  0  0  0  0  0  0
   -1.5790    2.6850    1.0470 C   0  0  0  0  0  0  0  0  0  0  0  0
   -2.5390    3.6420    1.4120 C   0  0  0  0  0  0  0  0  0  0  0  0
   -2.1860    4.5820    2.3370 C   0  0  0  0  0  0  0  0  0  0  0  0
   -2.8850    5.6440    2.8990 C   0  0  0  0  0  0  0  0  0  0  0  0
   -2.0120    6.2460    3.7730 C   0  0  0  0  0  0  0  0  0  0  0  0
   -0.8350    5.6060    3.7670 N   0  0  0  0  0  0  0  0  0  0  0  0
   -0.9230    4.5770    2.8860 C   0  0  0  0  0  0  0  0  0  0  0  0
    0.0210    3.6380    2.5290 C   0  0  0  0  0  0  0  0  0  0  0  0
   -4.0460   -2.6800    1.2590 C   0  0  0  0  0  0  0  0  0  0  0  0
  1  2  1  0
  2  3  2  0
  2 43  1  0
  3  4  1  0
  4  5  2  0
  5  6  1  0
  6  7  1  0
  6 43  2  0
  7  8  1  0
  8  9  1  0
  9 10  2  0
  9 17  1  0
 10 11  1  0
 11 12  1  0
 11 15  2  0
 12 13  1  1
 12 14  1  0
 15 16  1  0
 16 17  2  0
 17 18  1  0
 18 19  1  0
 18 32  1  0
 19 20  1  0
 21 20  1  6
 21 22  1  0
 21 26  1  0
 22 23  1  0
 24 23  1  1
 24 25  1  0
 24 27  1  0
 24 31  1  0
 25 26  1  0
 27 28  1  0
 28 29  1  0
 29 30  2  0
 29 31  1  0
 32 33  2  0
 32 34  1  0
 34 35  2  0
 34 42  1  0
 35 36  1  0
 36 37  2  0
 37 38  1  0
 37 41  1  0
 38 39  2  0
 39 40  1  0
 40 41  1  0
 41 42  2  0
M  CHG  2  12   1  21   1
M  END
