
     RDKit          3D

 49 56  0  0  0  0  0  0  0  0999 V2000
   -5.2240    4.3870   -2.2050 N   0  0  0  0  0  0  0  0  0  0  0  0
   -5.3820    3.3450   -1.2500 C   0  0  0  0  0  0  0  0  0  0  0  0
   -6.0330    3.6330   -0.0760 C   0  0  0  0  0  0  0  0  0  0  0  0
   -6.2170    2.6440    0.9000 C   0  0  0  0  0  0  0  0  0  0  0  0
   -5.7400    1.3770    0.6750 C   0  0  0  0  0  0  0  0  0  0  0  0
   -5.0830    1.0760   -0.5030 C   0  0  0  0  0  0  0  0  0  0  0  0
   -4.9160    2.0750   -1.4500 C   0  0  0  0  0  0  0  0  0  0  0  0
   -4.5520   -0.2440   -0.8620 C   0  0  2  0  0  0  0  0  0  0  0  0
   -5.3460   -0.8470   -1.9900 C   0  0  0  0  0  0  0  0  0  0  0  0
   -6.6000   -1.3900   -1.7040 C   0  0  0  0  0  0  0  0  0  0  0  0
   -7.3740   -1.9530   -2.6940 C   0  0  0  0  0  0  0  0  0  0  0  0
   -6.8880   -1.9720   -3.9800 C   0  0  0  0  0  0  0  0  0  0  0  0
   -5.6470   -1.4390   -4.2790 C   0  0  0  0  0  0  0  0  0  0  0  0
   -4.8870   -0.8820   -3.2860 C   0  0  0  0  0  0  0  0  0  0  0  0
   -4.6620   -1.2190    0.2330 N   0  0  0  0  0  0  0  0  0  0  0  0
   -3.9750   -2.4530    0.0030 C   0  0  0  0  0  0  0  0  0  0  0  0
   -2.4650   -2.1400    0.0510 C   0  0  0  0  0  0  0  0  0  0  0  0
   -2.1640   -1.5970    1.4200 C   0  0  0  0  0  0  0  0  0  0  0  0
   -0.7190   -1.2520    1.6190 C   0  0  0  0  0  0  0  0  0  0  0  0
   -0.2500   -0.2040    0.6610 C   0  0  0  0  0  0  0  0  0  0  0  0
    1.1970    0.1270    0.8820 C   0  0  0  0  0  0  0  0  0  0  0  0
    2.2970   -0.4520    0.2910 C   0  0  0  0  0  0  0  0  0  0  0  0
    3.4230    0.1230    0.7680 N   0  0  0  0  0  0  0  0  0  0  0  0
    4.7960   -0.2360    0.3650 C   0  0  0  0  0  0  0  0  0  0  0  0
    5.1590    0.6400   -0.7880 C   0  0  0  0  0  0  0  0  0  0  0  0
    6.4720    0.4430   -1.3100 N   0  0  0  0  0  0  0  0  0  0  0  0
    7.6740    0.6000   -0.5590 C   0  0  0  0  0  0  0  0  0  0  0  0
    8.2250    1.8760   -0.4340 C   0  0  0  0  0  0  0  0  0  0  0  0
    7.6170    2.9540   -1.0410 C   0  0  0  0  0  0  0  0  0  0  0  0
    8.1910    4.2050   -0.9000 C   0  0  0  0  0  0  0  0  0  0  0  0
    9.3470    4.3580   -0.1670 C   0  0  0  0  0  0  0  0  0  0  0  0
    9.9300    3.2760    0.4240 C   0  0  0  0  0  0  0  0  0  0  0  0
    9.3820    2.0110    0.3040 C   0  0  0  0  0  0  0  0  0  0  0  0
    9.9800    0.9410    0.8960 N   0  0  0  0  0  0  0  0  0  0  0  0
    9.4820   -0.3020    0.7970 C   0  0  0  0  0  0  0  0  0  0  0  0
   10.1320   -1.3660    1.4060 C   0  0  0  0  0  0  0  0  0  0  0  0
    9.6230   -2.6400    1.2900 C   0  0  0  0  0  0  0  0  0  0  0  0
    8.4710   -2.8210    0.5620 C   0  0  0  0  0  0  0  0  0  0  0  0
    7.8330   -1.7370   -0.0430 C   0  0  0  0  0  0  0  0  0  0  0  0
    8.3200   -0.4530    0.0600 C   0  0  0  0  0  0  0  0  0  0  0  0
    3.0350    1.0380    1.6350 N   0  0  0  0  0  0  0  0  0  0  0  0
    1.6970    1.0540    1.7150 N   0  0  0  0  0  0  0  0  0  0  0  0
   -5.3760   -0.9220    1.4030 C   0  0  0  0  0  0  0  0  0  0  0  0
   -5.5570   -1.9020    2.3480 C   0  0  0  0  0  0  0  0  0  0  0  0
   -6.2260   -1.6920    3.5430 C   0  0  0  0  0  0  0  0  0  0  0  0
   -6.3770   -2.7510    4.4780 N   0  0  0  0  0  0  0  0  0  0  0  0
   -6.7330   -0.4260    3.7830 C   0  0  0  0  0  0  0  0  0  0  0  0
   -6.5630    0.5710    2.8470 C   0  0  0  0  0  0  0  0  0  0  0  0
   -5.8960    0.3390    1.6700 C   0  0  0  0  0  0  0  0  0  0  0  0
  1  2  1  0
  2  3  2  0
  2  7  1  0
  3  4  1  0
  4  5  2  0
  5  6  1  0
  5 49  1  0
  6  7  2  0
  6  8  1  0
  8  9  1  6
  8 15  1  0
  9 10  2  0
  9 14  1  0
 10 11  1  0
 11 12  2  0
 12 13  1  0
 13 14  2  0
 15 16  1  0
 15 43  1  0
 16 17  1  0
 17 18  1  0
 18 19  1  0
 19 20  1  0
 20 21  1  0
 21 22  2  0
 21 42  1  0
 22 23  1  0
 23 24  1  0
 23 41  1  0
 24 25  1  0
 25 26  1  0
 26 27  1  0
 27 28  1  0
 27 40  2  0
 28 29  2  0
 28 33  1  0
 29 30  1  0
 30 31  2  0
 31 32  1  0
 32 33  2  0
 33 34  1  0
 34 35  2  0
 35 36  1  0
 35 40  1  0
 36 37  2  0
 37 38  1  0
 38 39  2  0
 39 40  1  0
 41 42  2  0
 43 44  2  0
 43 49  1  0
 44 45  1  0
 45 46  1  0
 45 47  2  0
 47 48  1  0
 48 49  2  0
M  END
