
     RDKit          3D

 47 50  0  0  0  0  0  0  0  0999 V2000
    1.3530    1.2500   -3.3720 C   0  0  0  0  0  0  0  0  0  0  0  0
   -0.0530    1.4290   -3.7830 C   0  0  0  0  0  0  0  0  0  0  0  0
   -1.1790    1.0950   -3.2120 C   0  0  0  0  0  0  0  0  0  0  0  0
   -2.2400    1.4750   -3.9910 C   0  0  0  0  0  0  0  0  0  0  0  0
   -3.5240    1.1990   -3.6540 C   0  0  0  0  0  0  0  0  0  0  0  0
   -3.7550    0.5220   -2.5030 C   0  0  0  0  0  0  0  0  0  0  0  0
   -2.7420    0.0800   -1.6200 C   0  0  0  0  0  0  0  0  0  0  0  0
   -3.2090   -0.6460   -0.4190 C   0  0  1  0  0  0  0  0  0  0  0  0
   -4.4900   -0.0860    0.1030 C   0  0  0  0  0  0  0  0  0  0  0  0
   -4.4680    0.9890    0.9280 C   0  0  0  0  0  0  0  0  0  0  0  0
   -5.6050    1.5950    1.4030 C   0  0  0  0  0  0  0  0  0  0  0  0
   -6.8230    1.0250    0.9730 C   0  0  0  0  0  0  0  0  0  0  0  0
   -8.0860    1.5740    1.3970 C   0  0  0  0  0  0  0  0  0  0  0  0
   -9.0180    1.9350    0.3340 N   0  0  0  0  0  0  0  0  0  0  0  0
   -8.4440    1.7660    2.5660 O   0  0  0  0  0  0  0  0  0  0  0  0
   -6.8200   -0.0490    0.1570 C   0  0  0  0  0  0  0  0  0  0  0  0
   -5.6710   -0.6730   -0.3320 C   0  0  0  0  0  0  0  0  0  0  0  0
   -3.1040   -2.1000   -0.5090 C   0  0  0  0  0  0  0  0  0  0  0  0
   -2.5680   -2.8820    0.5380 C   0  0  0  0  0  0  0  0  0  0  0  0
   -2.4970   -4.2340    0.5020 C   0  0  0  0  0  0  0  0  0  0  0  0
   -2.9410   -4.9940   -0.5590 C   0  0  0  0  0  0  0  0  0  0  0  0
   -3.4830   -4.2500   -1.6310 C   0  0  0  0  0  0  0  0  0  0  0  0
   -3.5490   -2.8820   -1.5820 C   0  0  0  0  0  0  0  0  0  0  0  0
   -4.0910   -2.1710   -2.6730 O   0  0  0  0  0  0  0  0  0  0  0  0
   -1.4370    0.3610   -1.9660 C   0  0  0  0  0  0  0  0  0  0  0  0
   -0.4810    0.2020   -1.2540 C   0  0  0  0  0  0  0  0  0  0  0  0
    0.3780   -0.2330   -0.1220 C   0  0  0  0  0  0  0  0  0  0  0  0
   -0.0110   -1.0150    0.7320 O   0  0  0  0  0  0  0  0  0  0  0  0
    1.6980    0.2150    0.0150 N   0  0  0  0  0  0  0  0  0  0  0  0
    2.8780   -0.0490    0.7770 C   0  0  2  0  0  0  0  0  0  0  0  0
    2.9610    0.7240    2.0500 C   0  0  0  0  0  0  0  0  0  0  0  0
    4.2690    0.7060    2.7280 C   0  0  1  0  0  0  0  0  0  0  0  0
    4.9090   -0.5830    3.0720 C   0  0  0  0  0  0  0  0  0  0  0  0
    5.2130    1.6030    1.8830 C   0  0  0  0  0  0  0  0  0  0  0  0
    4.0740    1.5100    4.0550 C   0  0  2  0  0  0  0  0  0  0  0  0
    5.3390    1.5930    4.8040 C   0  0  0  0  0  0  0  0  0  0  0  0
    3.1050    0.7990    4.7690 O   0  0  0  0  0  0  0  0  0  0  0  0
    3.9360   -0.0440   -0.2030 C   0  0  0  0  0  0  0  0  0  0  0  0
    3.8830    1.0530   -0.9650 O   0  0  0  0  0  0  0  0  0  0  0  0
    4.9650   -0.8520   -0.5810 N   0  0  0  0  0  0  0  0  0  0  0  0
    5.3850   -2.0810    0.0610 C   0  0  0  0  0  0  0  0  0  0  0  0
    5.7210   -0.5510   -1.8340 C   0  0  0  0  0  0  0  0  0  0  0  0
    6.7980    0.1970   -1.8480 C   0  0  0  0  0  0  0  0  0  0  0  0
    7.8500    0.9460   -1.8440 N   0  0  0  0  0  0  0  0  0  0  0  0
   -1.7070    2.1490   -5.2180 C   0  0  0  0  0  0  0  0  0  0  0  0
   -2.3490    2.6280   -6.1550 O   0  0  0  0  0  0  0  0  0  0  0  0
   -0.3350    2.1090   -5.0520 N   0  0  0  0  0  0  0  0  0  0  0  0
  1  2  1  0
  2  3  2  0
  2 47  1  0
  3  4  1  0
  3 25  1  0
  4  5  2  0
  4 45  1  0
  5  6  1  0
  6  7  2  0
  8  7  1  6
  7 25  1  0
  8  9  1  0
  8 18  1  0
  9 10  2  0
  9 17  1  0
 10 11  1  0
 11 12  2  0
 12 13  1  0
 12 16  1  0
 13 14  1  0
 13 15  2  0
 16 17  2  0
 18 19  2  0
 18 23  1  0
 19 20  1  0
 20 21  2  0
 21 22  1  0
 22 23  2  0
 23 24  1  0
 25 26  2  3
 26 27  1  0
 27 28  2  0
 27 29  1  0
 29 30  1  0
 30 31  1  1
 30 38  1  0
 31 32  1  0
 32 33  1  1
 32 34  1  0
 32 35  1  0
 35 36  1  1
 35 37  1  0
 38 39  2  0
 38 40  1  0
 40 41  1  0
 40 42  1  0
 42 43  1  0
 43 44  3  0
 45 46  2  0
 45 47  1  0
M  END
