
     RDKit          3D

 23 25  0  0  0  0  0  0  0  0999 V2000
    5.2650   -0.4160   -0.6620 C   0  0  0  0  0  0  0  0  0  0  0  0
    4.0730    0.4480   -0.2930 C   0  0  1  0  0  0  0  0  0  0  0  0
    4.6200    1.7420    0.0870 N   0  0  0  0  0  0  0  0  0  0  0  0
    3.2150    0.6770   -1.4980 C   0  0  0  0  0  0  0  0  0  0  0  0
    2.1810   -0.3380   -1.7570 C   0  0  0  0  0  0  0  0  0  0  0  0
    1.4350   -0.5900   -0.5300 N   0  0  0  0  0  0  0  0  0  0  0  0
    0.0460   -0.3850   -0.3920 C   0  0  0  0  0  0  0  0  0  0  0  0
   -0.5870    0.5720   -1.1350 C   0  0  0  0  0  0  0  0  0  0  0  0
   -1.9390    0.7330   -1.0140 N   0  0  0  0  0  0  0  0  0  0  0  0
   -2.6750   -0.0460   -0.1630 C   0  0  0  0  0  0  0  0  0  0  0  0
   -4.1130    0.1270   -0.0590 C   0  0  0  0  0  0  0  0  0  0  0  0
   -4.7860    0.4080    1.1140 C   0  0  0  0  0  0  0  0  0  0  0  0
   -6.1520    0.5720    1.1550 C   0  0  0  0  0  0  0  0  0  0  0  0
   -6.8650    0.4530   -0.0080 C   0  0  0  0  0  0  0  0  0  0  0  0
   -6.1950    0.1710   -1.1980 C   0  0  0  0  0  0  0  0  0  0  0  0
   -7.1330    0.0260   -2.6560 Cl  0  0  0  0  0  0  0  0  0  0  0  0
   -4.8370    0.0060   -1.2440 C   0  0  0  0  0  0  0  0  0  0  0  0
   -4.0080   -0.3400   -2.7570 Cl  0  0  0  0  0  0  0  0  0  0  0  0
   -2.0240   -0.9930    0.5670 C   0  0  0  0  0  0  0  0  0  0  0  0
   -2.6990   -1.8580    1.4560 N   0  0  0  0  0  0  0  0  0  0  0  0
   -0.6630   -1.1440    0.4330 N   0  0  0  0  0  0  0  0  0  0  0  0
    2.2630   -1.0670    0.5760 C   0  0  0  0  0  0  0  0  0  0  0  0
    3.3430   -0.0840    0.9010 C   0  0  0  0  0  0  0  0  0  0  0  0
  2  1  1  6
  2  3  1  0
  2  4  1  0
  2 23  1  0
  4  5  1  0
  5  6  1  0
  6  7  1  0
  6 22  1  0
  7  8  2  0
  7 21  1  0
  8  9  1  0
  9 10  2  0
 10 11  1  0
 10 19  1  0
 11 12  2  0
 11 17  1  0
 12 13  1  0
 13 14  2  0
 14 15  1  0
 15 16  1  0
 15 17  2  0
 17 18  1  0
 19 20  1  0
 19 21  2  0
 22 23  1  0
M  CHG  1   3   1
M  END
