
     RDKit          3D

 19 20  0  0  0  0  0  0  0  0999 V2000
   -2.2280   -2.5120   -1.2370 N   0  0  0  0  0  0  0  0  0  0  0  0
   -1.5560   -1.1830   -0.9370 C   0  0  2  0  0  0  0  0  0  0  0  0
   -0.1700   -1.5300   -0.5580 C   0  0  0  0  0  0  0  0  0  0  0  0
    0.7690   -0.4460   -0.2680 C   0  0  0  0  0  0  0  0  0  0  0  0
    0.5530    0.7540   -0.5350 O   0  0  0  0  0  0  0  0  0  0  0  0
    2.0470   -0.7150    0.3670 N   0  0  0  0  0  0  0  0  0  0  0  0
    2.9570    0.3380    0.6480 C   0  0  0  0  0  0  0  0  0  0  0  0
    4.1840    0.4070    0.1540 C   0  0  0  0  0  0  0  0  0  0  0  0
    4.8190    1.6280    0.6640 C   0  0  0  0  0  0  0  0  0  0  0  0
    3.8340    2.2460    1.4950 N   0  0  0  0  0  0  0  0  0  0  0  0
    2.7900    1.5100    1.4780 C   0  0  0  0  0  0  0  0  0  0  0  0
   -2.3130   -0.6960    0.3080 C   0  0  1  0  0  0  0  0  0  0  0  0
   -1.8430    0.5780    0.7300 N   0  0  0  0  0  0  0  0  0  0  0  0
   -2.3320    1.7610    0.0980 C   0  0  0  0  0  0  0  0  0  0  0  0
   -1.6840    2.8390    0.1870 O   0  0  0  0  0  0  0  0  0  0  0  0
   -3.5450    1.7480   -0.6380 N   0  0  0  0  0  0  0  0  0  0  0  0
   -4.2010    0.5450   -0.6950 O   0  0  0  0  0  0  0  0  0  0  0  0
   -3.7380   -0.6030   -0.0870 C   0  0  0  0  0  0  0  0  0  0  0  0
   -4.5220   -1.5840    0.1390 O   0  0  0  0  0  0  0  0  0  0  0  0
  2  1  1  1
  2  3  1  0
  2 12  1  0
  3  4  1  0
  4  5  2  0
  4  6  1  0
  6  7  1  0
  7  8  2  0
  7 11  1  0
  8  9  1  0
  9 10  1  0
 10 11  2  0
 12 13  1  6
 12 18  1  0
 13 14  1  0
 14 15  2  0
 14 16  1  0
 16 17  1  0
 17 18  1  0
 18 19  2  0
M  END
