
     RDKit          3D

 18 19  0  0  0  0  0  0  0  0999 V2000
    2.7240    2.8730    0.9430 C   0  0  0  0  0  0  0  0  0  0  0  0
    2.0250    1.5360    0.7360 C   0  0  0  0  0  0  0  0  0  0  0  0
    2.8740    0.6630   -0.0840 C   0  0  0  0  0  0  0  0  0  0  0  0
    4.0020    1.0700   -0.5020 O   0  0  0  0  0  0  0  0  0  0  0  0
    2.4580   -0.6850   -0.4420 C   0  0  0  0  0  0  0  0  0  0  0  0
    1.3130   -1.2350   -0.0770 C   0  0  0  0  0  0  0  0  0  0  0  0
    0.3130   -0.6210    0.7120 N   0  0  0  0  0  0  0  0  0  0  0  0
   -0.8740   -0.3390    0.2910 C   0  0  0  0  0  0  0  0  0  0  0  0
   -1.1880   -0.6650   -1.0400 N   0  0  0  0  0  0  0  0  0  0  0  0
   -1.7970    0.2990    1.2350 C   0  0  1  0  0  0  0  0  0  0  0  0
   -2.1920    1.6490    0.6350 C   0  0  0  0  0  0  0  0  0  0  0  0
   -3.4420    1.4150   -0.1540 C   0  0  0  0  0  0  0  0  0  0  0  0
   -3.9380    0.0440    0.1620 C   0  0  0  0  0  0  0  0  0  0  0  0
   -3.1300   -0.3850    1.3420 C   0  0  1  0  0  0  0  0  0  0  0  0
   -2.9990   -2.2780    1.5510 Br  0  0  0  0  0  0  0  0  0  0  0  0
    1.2010   -2.6150   -0.6090 C   0  0  0  0  0  0  0  0  0  0  0  0
    2.1150   -2.5530   -1.8190 C   0  0  0  0  0  0  0  0  0  0  0  0
    3.2340   -1.6710   -1.2730 C   0  0  0  0  0  0  0  0  0  0  0  0
  1  2  1  0
  2  3  1  0
  3  4  2  0
  3  5  1  0
  5  6  2  0
  5 18  1  0
  6  7  1  0
  6 16  1  0
  7  8  2  3
  8  9  1  0
 10  8  1  6
 10 11  1  0
 10 14  1  0
 11 12  1  0
 12 13  1  0
 13 14  1  0
 14 15  1  6
 16 17  1  0
 17 18  1  0
M  END
