
     RDKit          3D

 18 18  0  0  0  0  0  0  0  0999 V2000
   -2.7800    1.3700    0.5660 C   0  0  0  0  0  0  0  0  0  0  0  0
   -1.7970    0.4360    0.4920 C   0  0  0  0  0  0  0  0  0  0  0  0
   -0.5710    0.9010    1.2070 C   0  0  0  0  0  0  0  0  0  0  0  0
   -0.0470    2.1170    0.5090 C   0  0  0  0  0  0  0  0  0  0  0  0
    1.2910    2.3470    1.0160 N   0  0  0  0  0  0  0  0  0  0  0  0
    2.4690    2.4580    0.2510 C   0  0  0  0  0  0  0  0  0  0  0  0
    3.2230    3.4560    0.5430 O   0  0  0  0  0  0  0  0  0  0  0  0
    2.9120    1.6180   -0.7810 N   0  0  0  0  0  0  0  0  0  0  0  0
    2.2210    0.4800   -1.2970 C   0  0  0  0  0  0  0  0  0  0  0  0
    2.1520   -0.6340   -0.3190 C   0  0  0  0  0  0  0  0  0  0  0  0
    3.2420   -0.5850    0.7330 C   0  0  0  0  0  0  0  0  0  0  0  0
    1.2540   -1.6040   -0.2960 C   0  0  0  0  0  0  0  0  0  0  0  0
    0.1310   -1.9070   -1.1180 C   0  0  0  0  0  0  0  0  0  0  0  0
   -1.1430   -1.5880   -1.0880 C   0  0  0  0  0  0  0  0  0  0  0  0
   -2.0820   -2.4190   -2.6410 Br  0  0  0  0  0  0  0  0  0  0  0  0
   -1.9920   -0.8390   -0.1860 C   0  0  0  0  0  0  0  0  0  0  0  0
   -3.2220   -1.3670    0.1070 C   0  0  0  0  0  0  0  0  0  0  0  0
   -3.7110   -2.6510   -0.4240 C   0  0  0  0  0  0  0  0  0  0  0  0
  1  2  2  0
  2  3  1  0
  2 16  1  0
  3  4  1  0
  4  5  1  0
  5  6  1  0
  6  7  2  0
  6  8  1  0
  8  9  1  0
  9 10  1  0
 10 11  1  0
 10 12  2  0
 12 13  1  0
 13 14  2  0
 14 15  1  0
 14 16  1  0
 16 17  2  3
 17 18  1  0
M  END
