
     RDKit          3D

 19 21  0  0  0  0  0  0  0  0999 V2000
   -4.4480   -0.5010   -1.0370 C   0  0  0  0  0  0  0  0  0  0  0  0
   -3.3060    0.2450   -0.4180 C   0  0  1  0  0  0  0  0  0  0  0  0
   -3.4800    0.4610    1.0720 C   0  0  0  0  0  0  0  0  0  0  0  0
   -2.1930   -0.0120    1.6070 N   0  0  0  0  0  0  0  0  0  0  0  0
   -1.3350    0.2030    0.4570 C   0  0  1  0  0  0  0  0  0  0  0  0
    0.0170   -0.4370    0.6330 C   0  0  2  0  0  0  0  0  0  0  0  0
    0.7090    0.2970    1.6730 N   0  0  0  0  0  0  0  0  0  0  0  0
    2.1060    0.5480    1.6590 C   0  0  0  0  0  0  0  0  0  0  0  0
    2.7460    0.9990    2.6370 O   0  0  0  0  0  0  0  0  0  0  0  0
    2.8450    0.2620    0.4310 C   0  0  0  0  0  0  0  0  0  0  0  0
    4.1820    0.4770    0.3490 N   0  0  0  0  0  0  0  0  0  0  0  0
    4.8790    0.2220   -0.7650 C   0  0  0  0  0  0  0  0  0  0  0  0
    6.1090    0.4360   -0.7970 O   0  0  0  0  0  0  0  0  0  0  0  0
    4.2540   -0.2600   -1.8400 N   0  0  0  0  0  0  0  0  0  0  0  0
    2.9090   -0.4960   -1.8130 C   0  0  0  0  0  0  0  0  0  0  0  0
    2.3020   -0.9500   -2.8140 O   0  0  0  0  0  0  0  0  0  0  0  0
    2.1720   -0.2360   -0.6610 C   0  0  0  0  0  0  0  0  0  0  0  0
    0.7850   -0.4600   -0.5780 N   0  0  0  0  0  0  0  0  0  0  0  0
   -2.0840   -0.4520   -0.5440 O   0  0  0  0  0  0  0  0  0  0  0  0
  2  1  1  1
  2  3  1  0
  2 19  1  0
  3  4  1  0
  5  4  1  1
  5  6  1  0
  5 19  1  0
  6  7  1  1
  6 18  1  0
  7  8  1  0
  8  9  2  0
  8 10  1  0
 10 11  1  0
 10 17  2  0
 11 12  1  0
 12 13  2  0
 12 14  1  0
 14 15  1  0
 15 16  2  0
 15 17  1  0
 17 18  1  0
M  END
