
     RDKit          3D

 18 19  0  0  0  0  0  0  0  0999 V2000
    4.5460    0.0370    1.9030 C   0  0  0  0  0  0  0  0  0  0  0  0
    3.6830   -0.2020    0.7140 C   0  0  0  0  0  0  0  0  0  0  0  0
    4.1660   -0.7920   -0.3930 N   0  0  0  0  0  0  0  0  0  0  0  0
    3.3950   -1.0710   -1.4510 C   0  0  0  0  0  0  0  0  0  0  0  0
    2.0580   -0.7350   -1.3890 C   0  0  0  0  0  0  0  0  0  0  0  0
    1.2640   -0.9700   -2.5480 N   0  0  0  0  0  0  0  0  0  0  0  0
    1.4610   -0.1250   -0.2960 C   0  0  0  0  0  0  0  0  0  0  0  0
    0.0250    0.0690   -0.1830 C   0  0  1  0  0  0  0  0  0  0  0  0
   -0.5510    1.2120   -0.9100 C   0  0  0  0  0  0  0  0  0  0  0  0
   -1.9240    1.5410   -0.4020 C   0  0  1  0  0  0  0  0  0  0  0  0
   -2.5810    2.4010   -1.4780 C   0  0  0  0  0  0  0  0  0  0  0  0
   -2.7090    0.4180   -0.2690 O   0  0  0  0  0  0  0  0  0  0  0  0
   -2.1900   -0.5590    0.5350 C   0  0  1  0  0  0  0  0  0  0  0  0
   -2.0340   -0.0990    1.9690 C   0  0  0  0  0  0  0  0  0  0  0  0
   -3.1380   -1.7380    0.5760 C   0  0  0  0  0  0  0  0  0  0  0  0
   -0.8690   -1.0980   -0.0490 C   0  0  0  0  0  0  0  0  0  0  0  0
    2.3430    0.1300    0.7560 C   0  0  0  0  0  0  0  0  0  0  0  0
    1.6900    0.9580    2.3490 Br  0  0  0  0  0  0  0  0  0  0  0  0
  1  2  1  0
  2  3  2  0
  2 17  1  0
  3  4  1  0
  4  5  2  0
  5  6  1  0
  5  7  1  0
  8  7  1  6
  7 17  2  0
  8  9  1  0
  8 16  1  0
  9 10  1  0
 10 11  1  6
 10 12  1  0
 12 13  1  0
 13 14  1  1
 13 15  1  0
 13 16  1  0
 17 18  1  0
M  END
