
     RDKit          3D

 23 24  0  0  0  0  0  0  0  0999 V2000
   -5.9530   -0.2180   -1.4110 C   0  0  0  0  0  0  0  0  0  0  0  0
   -4.8870    0.1840   -0.4570 C   0  0  0  0  0  0  0  0  0  0  0  0
   -5.0170    1.3000    0.3500 C   0  0  0  0  0  0  0  0  0  0  0  0
   -4.0430    1.6850    1.2350 C   0  0  0  0  0  0  0  0  0  0  0  0
   -2.8550    0.9380    1.3510 C   0  0  0  0  0  0  0  0  0  0  0  0
   -1.9080    1.3350    2.2360 O   0  0  0  0  0  0  0  0  0  0  0  0
   -0.6760    0.7580    2.4550 C   0  0  0  0  0  0  0  0  0  0  0  0
    0.2120    0.8940    1.2470 C   0  0  0  0  0  0  0  0  0  0  0  0
    1.4830    0.2910    1.4670 O   0  0  0  0  0  0  0  0  0  0  0  0
    2.4110    0.3360    0.4500 C   0  0  0  0  0  0  0  0  0  0  0  0
    2.1290    0.9430   -0.7450 C   0  0  0  0  0  0  0  0  0  0  0  0
    3.0970    0.9600   -1.7320 C   0  0  0  0  0  0  0  0  0  0  0  0
    4.3320    0.3840   -1.5460 C   0  0  0  0  0  0  0  0  0  0  0  0
    5.3050    0.4340   -2.6180 C   0  0  0  0  0  0  0  0  0  0  0  0
    5.0160    0.9970   -3.7000 O   0  0  0  0  0  0  0  0  0  0  0  0
    6.5730   -0.1190   -2.5180 O   0  0  0  0  0  0  0  0  0  0  0  0
    4.5990   -0.2220   -0.3380 C   0  0  0  0  0  0  0  0  0  0  0  0
    3.6490   -0.2560    0.6730 C   0  0  0  0  0  0  0  0  0  0  0  0
    3.9150   -0.9030    1.9780 C   0  0  0  0  0  0  0  0  0  0  0  0
    5.2190   -1.4130    1.9390 O   0  0  0  0  0  0  0  0  0  0  0  0
   -2.7140   -0.1690    0.5600 C   0  0  0  0  0  0  0  0  0  0  0  0
   -3.7300   -0.5340   -0.3350 C   0  0  0  0  0  0  0  0  0  0  0  0
   -3.5580   -1.7360   -1.1840 C   0  0  0  0  0  0  0  0  0  0  0  0
  1  2  1  0
  2  3  2  0
  2 22  1  0
  3  4  1  0
  4  5  2  0
  5  6  1  0
  5 21  1  0
  6  7  1  0
  7  8  1  0
  8  9  1  0
  9 10  1  0
 10 11  2  0
 10 18  1  0
 11 12  1  0
 12 13  2  0
 13 14  1  0
 13 17  1  0
 14 15  2  0
 14 16  1  0
 17 18  2  0
 18 19  1  0
 19 20  1  0
 21 22  2  0
 22 23  1  0
M  END
