
     RDKit          3D

 23 24  0  0  0  0  0  0  0  0999 V2000
   -7.6440   -0.3980   -0.7490 C   0  0  0  0  0  0  0  0  0  0  0  0
   -6.8860   -0.3490    0.4530 O   0  0  0  0  0  0  0  0  0  0  0  0
   -5.5320   -0.0490    0.3840 C   0  0  0  0  0  0  0  0  0  0  0  0
   -4.8270   -0.0100    1.5720 C   0  0  0  0  0  0  0  0  0  0  0  0
   -3.4930    0.2790    1.5660 C   0  0  0  0  0  0  0  0  0  0  0  0
   -2.8040    0.5420    0.3780 C   0  0  0  0  0  0  0  0  0  0  0  0
   -1.3840    0.8450    0.4180 C   0  0  0  0  0  0  0  0  0  0  0  0
   -0.5850    1.1120   -0.5610 C   0  0  0  0  0  0  0  0  0  0  0  0
    0.8300    1.3930   -0.3030 C   0  0  0  0  0  0  0  0  0  0  0  0
    1.6450    1.6580   -1.2330 O   0  0  0  0  0  0  0  0  0  0  0  0
    1.2640    1.3620    1.0100 O   0  0  0  0  0  0  0  0  0  0  0  0
    2.5910    1.6110    1.4100 C   0  0  0  0  0  0  0  0  0  0  0  0
    3.4710    0.6210    0.7680 C   0  0  0  0  0  0  0  0  0  0  0  0
    4.2920    0.9060   -0.3020 C   0  0  0  0  0  0  0  0  0  0  0  0
    5.0870   -0.0810   -0.8530 C   0  0  0  0  0  0  0  0  0  0  0  0
    5.1050   -1.3650   -0.3810 C   0  0  0  0  0  0  0  0  0  0  0  0
    5.9900   -2.3710   -1.0290 C   0  0  0  0  0  0  0  0  0  0  0  0
    7.2210   -2.3100   -0.3480 O   0  0  0  0  0  0  0  0  0  0  0  0
    4.2930   -1.6590    0.6830 C   0  0  0  0  0  0  0  0  0  0  0  0
    3.4930   -0.6880    1.2460 C   0  0  0  0  0  0  0  0  0  0  0  0
   -3.5370    0.4940   -0.7850 C   0  0  0  0  0  0  0  0  0  0  0  0
   -2.9510    0.7380   -2.0080 O   0  0  0  0  0  0  0  0  0  0  0  0
   -4.9050    0.2010   -0.8110 C   0  0  0  0  0  0  0  0  0  0  0  0
  1  2  1  0
  2  3  1  0
  3  4  2  0
  3 23  1  0
  4  5  1  0
  5  6  2  0
  6  7  1  0
  6 21  1  0
  7  8  2  3
  8  9  1  0
  9 10  2  0
  9 11  1  0
 11 12  1  0
 12 13  1  0
 13 14  2  0
 13 20  1  0
 14 15  1  0
 15 16  2  0
 16 17  1  0
 16 19  1  0
 17 18  1  0
 19 20  2  0
 21 22  1  0
 21 23  2  0
M  END
