
     RDKit          3D

 23 24  0  0  0  0  0  0  0  0999 V2000
    5.2650    1.5020   -0.4810 C   0  0  0  0  0  0  0  0  0  0  0  0
    4.0800    1.7870    0.3180 C   0  0  0  0  0  0  0  0  0  0  0  0
    3.3600    0.7990    0.9530 O   0  0  0  0  0  0  0  0  0  0  0  0
    2.5790   -0.2270    0.4870 C   0  0  0  0  0  0  0  0  0  0  0  0
    2.9860   -1.4900    0.2530 C   0  0  0  0  0  0  0  0  0  0  0  0
    4.3150   -1.9710    0.5500 C   0  0  0  0  0  0  0  0  0  0  0  0
    5.0710   -1.3140    1.3290 O   0  0  0  0  0  0  0  0  0  0  0  0
    4.7820   -3.1670   -0.0410 O   0  0  0  0  0  0  0  0  0  0  0  0
    2.0500   -2.4570   -0.2320 C   0  0  0  0  0  0  0  0  0  0  0  0
    0.7490   -2.1110   -0.4700 C   0  0  0  0  0  0  0  0  0  0  0  0
    0.2800   -0.8310   -0.2510 C   0  0  0  0  0  0  0  0  0  0  0  0
   -0.9300   -0.4060   -0.4570 O   0  0  0  0  0  0  0  0  0  0  0  0
   -2.1200    0.0300   -0.2160 C   0  0  0  0  0  0  0  0  0  0  0  0
   -2.4150    1.3680   -0.5470 C   0  0  0  0  0  0  0  0  0  0  0  0
   -3.6070    1.9800   -0.3660 C   0  0  0  0  0  0  0  0  0  0  0  0
   -4.6070    1.2350    0.1860 C   0  0  0  0  0  0  0  0  0  0  0  0
   -5.9040    1.8760    0.4760 C   0  0  0  0  0  0  0  0  0  0  0  0
   -4.3750   -0.1180    0.5310 C   0  0  0  0  0  0  0  0  0  0  0  0
   -3.1520   -0.7210    0.3400 C   0  0  0  0  0  0  0  0  0  0  0  0
   -2.8440   -2.1390    0.7670 C   0  0  0  0  0  0  0  0  0  0  0  0
   -3.5370   -3.0430   -0.0300 O   0  0  0  0  0  0  0  0  0  0  0  0
    1.2340    0.0860    0.2310 C   0  0  0  0  0  0  0  0  0  0  0  0
    0.7830    1.4420    0.4400 C   0  0  0  0  0  0  0  0  0  0  0  0
  1  2  1  0
  2  3  1  0
  3  4  1  0
  4  5  2  0
  4 22  1  0
  5  6  1  0
  5  9  1  0
  6  7  2  0
  6  8  1  0
  9 10  2  0
 10 11  1  0
 11 12  1  0
 11 22  2  0
 12 13  1  0
 13 14  2  0
 13 19  1  0
 14 15  1  0
 15 16  2  0
 16 17  1  0
 16 18  1  0
 18 19  2  0
 19 20  1  0
 20 21  1  0
 22 23  1  0
M  END
