
     RDKit          3D

 23 24  0  0  0  0  0  0  0  0999 V2000
    6.2180   -1.4110   -0.9980 C   0  0  0  0  0  0  0  0  0  0  0  0
    5.7630   -0.7960    0.3040 C   0  0  0  0  0  0  0  0  0  0  0  0
    4.4010   -0.2450    0.2300 C   0  0  0  0  0  0  0  0  0  0  0  0
    4.2130    1.1270    0.1280 C   0  0  0  0  0  0  0  0  0  0  0  0
    2.9470    1.6690    0.0550 C   0  0  0  0  0  0  0  0  0  0  0  0
    1.8160    0.8740    0.0800 C   0  0  0  0  0  0  0  0  0  0  0  0
    0.4950    1.5100   -0.0070 C   0  0  0  0  0  0  0  0  0  0  0  0
   -0.5660    0.6030    0.1800 O   0  0  0  0  0  0  0  0  0  0  0  0
   -1.8950    0.9960    0.1330 C   0  0  0  0  0  0  0  0  0  0  0  0
   -2.1700    2.3210   -0.1060 C   0  0  0  0  0  0  0  0  0  0  0  0
   -3.4780    2.7910   -0.1670 C   0  0  0  0  0  0  0  0  0  0  0  0
   -3.7610    4.1780   -0.4200 C   0  0  0  0  0  0  0  0  0  0  0  0
   -4.9620    4.5600   -0.4650 O   0  0  0  0  0  0  0  0  0  0  0  0
   -4.4700    1.8720    0.0230 C   0  0  0  0  0  0  0  0  0  0  0  0
   -4.2210    0.5320    0.2660 C   0  0  0  0  0  0  0  0  0  0  0  0
   -2.9320    0.0630    0.3270 C   0  0  0  0  0  0  0  0  0  0  0  0
   -2.6270   -1.2270    0.5580 O   0  0  0  0  0  0  0  0  0  0  0  0
   -3.3690   -2.3590    0.7620 C   0  0  0  0  0  0  0  0  0  0  0  0
   -4.2590   -2.8110   -0.3460 C   0  0  0  0  0  0  0  0  0  0  0  0
   -4.9530   -3.9820    0.0130 O   0  0  0  0  0  0  0  0  0  0  0  0
    1.9810   -0.4750    0.1790 C   0  0  0  0  0  0  0  0  0  0  0  0
    3.2620   -1.0250    0.2530 C   0  0  0  0  0  0  0  0  0  0  0  0
    3.4080   -2.3950    0.3530 O   0  0  0  0  0  0  0  0  0  0  0  0
  1  2  1  0
  2  3  1  0
  3  4  2  0
  3 22  1  0
  4  5  1  0
  5  6  2  0
  6  7  1  0
  6 21  1  0
  7  8  1  0
  8  9  1  0
  9 10  2  0
  9 16  1  0
 10 11  1  0
 11 12  1  0
 11 14  2  0
 12 13  2  0
 14 15  1  0
 15 16  2  0
 16 17  1  0
 17 18  1  0
 18 19  1  0
 19 20  1  0
 21 22  2  0
 22 23  1  0
M  END
