
     RDKit          3D

 23 24  0  0  0  0  0  0  0  0999 V2000
   -7.2940   -2.3160   -0.3550 O   0  0  0  0  0  0  0  0  0  0  0  0
   -7.4500   -1.0790   -0.2130 C   0  0  0  0  0  0  0  0  0  0  0  0
   -8.7430   -0.5830   -0.1980 O   0  0  0  0  0  0  0  0  0  0  0  0
   -6.2910   -0.1750   -0.0660 C   0  0  0  0  0  0  0  0  0  0  0  0
   -5.0610   -0.6030   -0.0760 C   0  0  0  0  0  0  0  0  0  0  0  0
   -3.8640    0.2240    0.0630 C   0  0  0  0  0  0  0  0  0  0  0  0
   -3.9110    1.5900    0.2240 C   0  0  0  0  0  0  0  0  0  0  0  0
   -2.7500    2.3540    0.3540 C   0  0  0  0  0  0  0  0  0  0  0  0
   -1.5290    1.7180    0.3200 C   0  0  0  0  0  0  0  0  0  0  0  0
   -1.4270    0.3470    0.1600 C   0  0  0  0  0  0  0  0  0  0  0  0
   -0.1880   -0.2770    0.1280 O   0  0  0  0  0  0  0  0  0  0  0  0
    0.9780    0.5120    0.2610 C   0  0  0  0  0  0  0  0  0  0  0  0
    2.2090   -0.2790    0.2090 C   0  0  0  0  0  0  0  0  0  0  0  0
    2.2350   -1.6460    0.0470 C   0  0  0  0  0  0  0  0  0  0  0  0
    3.4580   -2.2980    0.0100 C   0  0  0  0  0  0  0  0  0  0  0  0
    4.6530   -1.6080    0.1330 C   0  0  0  0  0  0  0  0  0  0  0  0
    4.6280   -0.2410    0.2950 C   0  0  0  0  0  0  0  0  0  0  0  0
    5.8830    0.5210    0.4280 C   0  0  0  0  0  0  0  0  0  0  0  0
    6.3990    0.9690   -0.8980 C   0  0  0  0  0  0  0  0  0  0  0  0
    5.7450    0.6670   -1.9270 O   0  0  0  0  0  0  0  0  0  0  0  0
    7.5610    1.6990   -1.0240 O   0  0  0  0  0  0  0  0  0  0  0  0
    3.4130    0.3830    0.3280 C   0  0  0  0  0  0  0  0  0  0  0  0
   -2.5960   -0.3650    0.0360 C   0  0  0  0  0  0  0  0  0  0  0  0
  1  2  2  0
  2  3  1  0
  2  4  1  0
  4  5  2  3
  5  6  1  0
  6  7  2  0
  6 23  1  0
  7  8  1  0
  8  9  2  0
  9 10  1  0
 10 11  1  0
 10 23  2  0
 11 12  1  0
 12 13  1  0
 13 14  2  0
 13 22  1  0
 14 15  1  0
 15 16  2  0
 16 17  1  0
 17 18  1  0
 17 22  2  0
 18 19  1  0
 19 20  2  0
 19 21  1  0
M  END
