
     RDKit          3D

 23 24  0  0  0  0  0  0  0  0999 V2000
   -6.1260    1.1600   -0.4810 C   0  0  0  0  0  0  0  0  0  0  0  0
   -5.5610    0.5930    0.8020 C   0  0  0  0  0  0  0  0  0  0  0  0
   -4.0600    0.5350    0.6710 C   0  0  0  0  0  0  0  0  0  0  0  0
   -3.2830    1.4810    1.3130 C   0  0  0  0  0  0  0  0  0  0  0  0
   -1.8970    1.4980    1.2410 C   0  0  0  0  0  0  0  0  0  0  0  0
   -1.2650    0.5270    0.4960 C   0  0  0  0  0  0  0  0  0  0  0  0
    0.2150    0.5370    0.4120 C   0  0  0  0  0  0  0  0  0  0  0  0
    0.6160   -0.5940   -0.3380 O   0  0  0  0  0  0  0  0  0  0  0  0
    1.9760   -0.7810   -0.5410 C   0  0  0  0  0  0  0  0  0  0  0  0
    2.9470    0.0670   -0.0560 C   0  0  0  0  0  0  0  0  0  0  0  0
    4.2900   -0.1300   -0.2630 C   0  0  0  0  0  0  0  0  0  0  0  0
    5.2620    0.8210    0.2870 C   0  0  0  0  0  0  0  0  0  0  0  0
    4.8550    1.8100    0.9450 O   0  0  0  0  0  0  0  0  0  0  0  0
    6.6190    0.6750    0.1100 O   0  0  0  0  0  0  0  0  0  0  0  0
    7.5900    1.5680    0.6230 C   0  0  0  0  0  0  0  0  0  0  0  0
    4.6810   -1.2320   -0.9930 C   0  0  0  0  0  0  0  0  0  0  0  0
    3.7490   -2.1210   -1.5060 C   0  0  0  0  0  0  0  0  0  0  0  0
    2.4140   -1.8740   -1.2670 C   0  0  0  0  0  0  0  0  0  0  0  0
    1.4670   -2.7440   -1.7670 O   0  0  0  0  0  0  0  0  0  0  0  0
   -2.0320   -0.4220   -0.1490 C   0  0  0  0  0  0  0  0  0  0  0  0
   -3.4260   -0.4300   -0.0710 C   0  0  0  0  0  0  0  0  0  0  0  0
   -4.2070   -1.4620   -0.7770 C   0  0  0  0  0  0  0  0  0  0  0  0
   -3.3220   -2.3130   -1.4490 O   0  0  0  0  0  0  0  0  0  0  0  0
  1  2  1  0
  2  3  1  0
  3  4  2  0
  3 21  1  0
  4  5  1  0
  5  6  2  0
  6  7  1  0
  6 20  1  0
  7  8  1  0
  8  9  1  0
  9 10  2  0
  9 18  1  0
 10 11  1  0
 11 12  1  0
 11 16  2  0
 12 13  2  0
 12 14  1  0
 14 15  1  0
 16 17  1  0
 17 18  2  0
 18 19  1  0
 20 21  2  0
 21 22  1  0
 22 23  1  0
M  END
