
     RDKit          3D

 23 24  0  0  0  0  0  0  0  0999 V2000
   -5.2300   -0.6840   -1.9460 C   0  0  0  0  0  0  0  0  0  0  0  0
   -4.7990    0.2190   -0.9810 O   0  0  0  0  0  0  0  0  0  0  0  0
   -3.5230    0.2420   -0.4500 C   0  0  0  0  0  0  0  0  0  0  0  0
   -2.5480    1.0150   -1.0920 C   0  0  0  0  0  0  0  0  0  0  0  0
   -2.9090    1.6770   -2.4010 C   0  0  0  0  0  0  0  0  0  0  0  0
   -3.2500    3.0480   -2.1720 O   0  0  0  0  0  0  0  0  0  0  0  0
   -1.2710    1.0430   -0.5850 C   0  0  0  0  0  0  0  0  0  0  0  0
   -0.9160    0.3090    0.5640 C   0  0  0  0  0  0  0  0  0  0  0  0
    0.4430    0.1740    1.0610 C   0  0  0  0  0  0  0  0  0  0  0  0
    1.4020    0.8800    0.2740 O   0  0  0  0  0  0  0  0  0  0  0  0
    2.7760    0.7400    0.6810 C   0  0  0  0  0  0  0  0  0  0  0  0
    2.9770    0.0550    1.6850 O   0  0  0  0  0  0  0  0  0  0  0  0
    3.8360    1.3990   -0.1230 C   0  0  0  0  0  0  0  0  0  0  0  0
    4.3470    0.5420   -1.2240 C   0  0  0  0  0  0  0  0  0  0  0  0
    4.9380   -0.7870   -0.8310 C   0  0  0  0  0  0  0  0  0  0  0  0
    6.1430   -0.7500    0.0460 C   0  0  0  0  0  0  0  0  0  0  0  0
    5.9220   -0.1180    1.2880 O   0  0  0  0  0  0  0  0  0  0  0  0
   -1.9100   -0.4360    1.1820 C   0  0  0  0  0  0  0  0  0  0  0  0
   -1.5780   -1.1100    2.3500 C   0  0  0  0  0  0  0  0  0  0  0  0
   -2.5600   -1.8200    3.0040 C   0  0  0  0  0  0  0  0  0  0  0  0
   -3.8610   -1.8510    2.4800 C   0  0  0  0  0  0  0  0  0  0  0  0
   -4.1760   -1.1840    1.3290 C   0  0  0  0  0  0  0  0  0  0  0  0
   -3.1890   -0.4530    0.6590 C   0  0  0  0  0  0  0  0  0  0  0  0
  1  2  1  0
  2  3  1  0
  3  4  2  0
  3 23  1  0
  4  5  1  0
  4  7  1  0
  5  6  1  0
  7  8  2  0
  8  9  1  0
  8 18  1  0
  9 10  1  0
 10 11  1  0
 11 12  2  0
 11 13  1  0
 13 14  1  0
 14 15  1  0
 15 16  1  0
 16 17  1  0
 18 19  2  0
 18 23  1  0
 19 20  1  0
 20 21  2  0
 21 22  1  0
 22 23  2  0
M  END
