
     RDKit          3D

 15 16  0  0  0  0  0  0  0  0999 V2000
   -3.6510    1.1190    0.1600 C   0  0  0  0  0  0  0  0  0  0  0  0
   -2.6990   -0.0480    0.1460 C   0  0  0  0  0  0  0  0  0  0  0  0
   -3.2260   -1.1640    0.2080 O   0  0  0  0  0  0  0  0  0  0  0  0
   -1.2730    0.1390    0.0650 C   0  0  0  0  0  0  0  0  0  0  0  0
   -0.5540   -0.9580    0.0630 C   0  0  0  0  0  0  0  0  0  0  0  0
   -1.1830   -2.2840    0.1390 C   0  0  0  0  0  0  0  0  0  0  0  0
    0.8800   -0.9620   -0.0120 N   0  0  0  0  0  0  0  0  0  0  0  0
    1.6390   -1.9720    0.4430 N   0  0  0  0  0  0  0  0  0  0  0  0
    2.9200   -1.6900    0.2340 N   0  0  0  0  0  0  0  0  0  0  0  0
    2.9930   -0.4720   -0.3690 C   0  0  0  0  0  0  0  0  0  0  0  0
    4.1800    0.2860   -0.8090 C   0  0  0  0  0  0  0  0  0  0  0  0
    1.6920   -0.0350   -0.5130 C   0  0  0  0  0  0  0  0  0  0  0  0
    1.3330    1.2540   -1.1290 C   0  0  0  0  0  0  0  0  0  0  0  0
    0.2290    1.8610   -0.8550 N   0  0  0  0  0  0  0  0  0  0  0  0
   -0.8770    1.5680    0.0010 C   0  0  0  0  0  0  0  0  0  0  0  0
  1  2  1  0
  2  3  2  0
  2  4  1  0
  4  5  2  0
  4 15  1  0
  5  6  1  0
  5  7  1  0
  7  8  1  0
  7 12  1  0
  8  9  2  0
  9 10  1  0
 10 11  1  0
 10 12  2  0
 12 13  1  0
 13 14  2  0
 14 15  1  0
M  END
