
     RDKit          3D

 26 28  0  0  0  0  0  0  0  0999 V2000
    0.0240    4.3100   -2.0540 C   0  0  0  0  0  0  0  0  0  0  0  0
   -1.0090    3.4490   -1.3710 C   0  0  0  0  0  0  0  0  0  0  0  0
   -2.2130    3.9830   -0.9810 C   0  0  0  0  0  0  0  0  0  0  0  0
   -3.1220    3.1770   -0.3670 C   0  0  0  0  0  0  0  0  0  0  0  0
   -4.3080    3.6950    0.0190 F   0  0  0  0  0  0  0  0  0  0  0  0
   -2.8070    1.8290   -0.1490 C   0  0  0  0  0  0  0  0  0  0  0  0
   -1.6050    1.3030   -0.5410 C   0  0  0  0  0  0  0  0  0  0  0  0
   -1.2530   -0.0830   -0.3330 C   0  0  0  0  0  0  0  0  0  0  0  0
   -2.1100   -0.8970    0.2500 C   0  0  0  0  0  0  0  0  0  0  0  0
   -1.7670   -2.3320    0.4750 C   0  0  0  0  0  0  0  0  0  0  0  0
   -2.6990   -3.2180   -0.2000 N   0  0  2  0  0  0  0  0  0  0  0  0
   -4.0720   -2.7820   -0.0150 C   0  0  0  0  0  0  0  0  0  0  0  0
   -2.5220   -4.5370    0.3770 C   0  0  0  0  0  0  0  0  0  0  0  0
    0.0100   -0.5410   -0.7670 N   0  0  0  0  0  0  0  0  0  0  0  0
    1.1350   -0.3810   -0.1810 C   0  0  0  0  0  0  0  0  0  0  0  0
    2.3960   -0.9400   -0.7880 C   0  0  0  0  0  0  0  0  0  0  0  0
    3.4290   -0.5610    0.1440 N   0  0  0  0  0  0  0  0  0  0  0  0
    4.8330   -0.7990    0.1220 C   0  0  0  0  0  0  0  0  0  0  0  0
    5.6310   -0.3710    1.0740 C   0  0  0  0  0  0  0  0  0  0  0  0
    7.3640   -0.7200    0.9510 Cl  0  0  0  0  0  0  0  0  0  0  0  0
    5.1440    0.3860    2.2360 C   0  0  0  0  0  0  0  0  0  0  0  0
    3.6870    0.6050    2.2110 C   0  0  0  0  0  0  0  0  0  0  0  0
    2.9170    0.1610    1.2390 C   0  0  0  0  0  0  0  0  0  0  0  0
    1.4970    0.2630    1.0220 N   0  0  0  0  0  0  0  0  0  0  0  0
    0.5740    0.9360    1.9200 C   0  0  0  0  0  0  0  0  0  0  0  0
   -0.6900    2.1310   -1.1630 C   0  0  0  0  0  0  0  0  0  0  0  0
  1  2  1  0
  2  3  2  0
  2 26  1  0
  3  4  1  0
  4  5  1  0
  4  6  2  0
  6  7  1  0
  7  8  1  0
  7 26  2  0
  8  9  2  3
  8 14  1  0
  9 10  1  0
 10 11  1  0
 11 12  1  1
 11 13  1  0
 14 15  2  3
 15 16  1  0
 15 24  1  0
 16 17  1  0
 17 18  1  0
 17 23  1  0
 18 19  2  0
 19 20  1  0
 19 21  1  0
 21 22  1  0
 22 23  2  0
 23 24  1  0
 24 25  1  0
M  CHG  1  11   1
M  END
