
     RDKit          3D

 13 13  0  0  0  0  0  0  0  0999 V2000
    3.7060   -0.5260    1.0310 O   0  0  0  0  0  0  0  0  0  0  0  0
    3.2990   -0.4370   -0.1670 C   0  0  0  0  0  0  0  0  0  0  0  0
    4.2620   -0.5440   -1.1580 O   0  0  0  0  0  0  0  0  0  0  0  0
    1.8640   -0.2300   -0.4700 C   0  0  0  0  0  0  0  0  0  0  0  0
    1.0120   -0.1390    0.5220 C   0  0  0  0  0  0  0  0  0  0  0  0
   -0.4020    0.0630    0.2810 C   0  0  0  0  0  0  0  0  0  0  0  0
   -0.9140    0.1690   -0.9860 C   0  0  0  0  0  0  0  0  0  0  0  0
   -2.2920    0.3650   -1.1810 C   0  0  0  0  0  0  0  0  0  0  0  0
   -3.1140    0.4490   -0.0840 C   0  0  0  0  0  0  0  0  0  0  0  0
   -4.8330    0.6950   -0.3730 Cl  0  0  0  0  0  0  0  0  0  0  0  0
   -2.6210    0.3450    1.2130 C   0  0  0  0  0  0  0  0  0  0  0  0
   -1.2600    0.1540    1.3350 C   0  0  0  0  0  0  0  0  0  0  0  0
   -0.6150    0.0200    2.9590 Cl  0  0  0  0  0  0  0  0  0  0  0  0
  1  2  2  0
  2  3  1  0
  2  4  1  0
  4  5  2  3
  5  6  1  0
  6  7  2  0
  6 12  1  0
  7  8  1  0
  8  9  2  0
  9 10  1  0
  9 11  1  0
 11 12  2  0
 12 13  1  0
M  END
