
     RDKit          3D

 26 29  0  0  0  0  0  0  0  0999 V2000
    5.3750   -0.1330   -1.5250 C   0  0  0  0  0  0  0  0  0  0  0  0
    3.9910    0.2330   -1.1110 C   0  0  0  0  0  0  0  0  0  0  0  0
    3.2960    1.2100   -1.7900 C   0  0  0  0  0  0  0  0  0  0  0  0
    2.0280    1.6040   -1.4720 C   0  0  0  0  0  0  0  0  0  0  0  0
    1.3960    0.9730   -0.3830 C   0  0  0  0  0  0  0  0  0  0  0  0
    0.1060    1.4740   -0.0140 C   0  0  0  0  0  0  0  0  0  0  0  0
   -1.0990    1.0890   -0.0340 C   0  0  0  0  0  0  0  0  0  0  0  0
   -2.1740    1.9750    0.4970 C   0  0  0  0  0  0  0  0  0  0  0  0
   -2.0770    3.1640    1.1330 N   0  0  0  0  0  0  0  0  0  0  0  0
   -3.3080    3.6230    1.4510 C   0  0  0  0  0  0  0  0  0  0  0  0
   -4.1840    2.6690    0.9860 C   0  0  0  0  0  0  0  0  0  0  0  0
   -5.9100    2.7660    1.1390 Cl  0  0  0  0  0  0  0  0  0  0  0  0
   -3.4670    1.6580    0.4000 N   0  0  0  0  0  0  0  0  0  0  0  0
   -3.9930    0.4460   -0.2190 C   0  0  0  0  0  0  0  0  0  0  0  0
   -2.9870   -0.1020   -1.1430 C   0  0  0  0  0  0  0  0  0  0  0  0
   -1.5990   -0.0870   -0.6340 N   0  0  0  0  0  0  0  0  0  0  0  0
   -0.8250   -1.2650   -0.7800 C   0  0  0  0  0  0  0  0  0  0  0  0
   -1.1590   -2.3710    0.1470 C   0  0  0  0  0  0  0  0  0  0  0  0
   -2.5180   -2.9560    0.0960 C   0  0  0  0  0  0  0  0  0  0  0  0
   -2.6020   -4.0220    1.0360 F   0  0  0  0  0  0  0  0  0  0  0  0
    2.0920   -0.0030    0.2960 C   0  0  0  0  0  0  0  0  0  0  0  0
    1.5440   -0.6520    1.3650 N   0  0  0  0  0  0  0  0  0  0  0  0
    2.1900   -1.5940    2.0400 C   0  0  0  0  0  0  0  0  0  0  0  0
    3.4780   -2.0030    1.7210 C   0  0  0  0  0  0  0  0  0  0  0  0
    4.0740   -1.3670    0.6390 C   0  0  0  0  0  0  0  0  0  0  0  0
    3.3730   -0.3940   -0.0350 C   0  0  0  0  0  0  0  0  0  0  0  0
  1  2  1  0
  2  3  2  0
  2 26  1  0
  3  4  1  0
  4  5  2  0
  5  6  1  0
  5 21  1  0
  6  7  2  3
  7  8  1  0
  7 16  1  0
  8  9  2  0
  8 13  1  0
  9 10  1  0
 10 11  2  0
 11 12  1  0
 11 13  1  0
 13 14  1  0
 14 15  1  0
 15 16  1  0
 16 17  1  0
 17 18  1  0
 18 19  1  0
 19 20  1  0
 21 22  2  0
 21 26  1  0
 22 23  1  0
 23 24  2  0
 24 25  1  0
 25 26  2  0
M  CHG  1   9   1
M  END
