
     RDKit          3D

 15 16  0  0  0  0  0  0  0  0999 V2000
   -3.7960   -0.0930    1.8060 C   0  0  0  0  0  0  0  0  0  0  0  0
   -3.0290    0.0630    0.5430 C   0  0  0  0  0  0  0  0  0  0  0  0
   -1.6970   -0.0610    0.3950 N   0  0  0  0  0  0  0  0  0  0  0  0
   -1.4210    0.1590   -0.9060 C   0  0  0  0  0  0  0  0  0  0  0  0
   -0.1620    0.1360   -1.5330 O   0  0  0  0  0  0  0  0  0  0  0  0
    0.9950   -0.1290   -0.8430 C   0  0  0  0  0  0  0  0  0  0  0  0
    1.5660   -1.3120   -0.8650 C   0  0  0  0  0  0  0  0  0  0  0  0
    2.8170   -1.4790   -0.0770 C   0  0  0  0  0  0  0  0  0  0  0  0
    3.7250   -0.3680   -0.1860 N   0  0  0  0  0  0  0  0  0  0  0  0
    4.5920   -0.2770    0.9740 C   0  0  0  0  0  0  0  0  0  0  0  0
    3.1050    0.9070   -0.3960 C   0  0  0  0  0  0  0  0  0  0  0  0
    1.6320    0.9380   -0.0450 C   0  0  0  0  0  0  0  0  0  0  0  0
   -2.5860    0.4070   -1.5060 N   0  0  0  0  0  0  0  0  0  0  0  0
   -3.5940    0.3570   -0.6510 N   0  0  0  0  0  0  0  0  0  0  0  0
   -5.0160    0.5740   -0.9330 C   0  0  0  0  0  0  0  0  0  0  0  0
  1  2  1  0
  2  3  2  0
  2 14  1  0
  3  4  1  0
  4  5  1  0
  4 13  2  0
  5  6  1  0
  6  7  2  0
  6 12  1  0
  7  8  1  0
  8  9  1  0
  9 10  1  0
  9 11  1  0
 11 12  1  0
 13 14  1  0
 14 15  1  0
M  END
