
     RDKit          3D

 15 16  0  0  0  0  0  0  0  0999 V2000
   -3.7400    1.6740    0.3380 C   0  0  0  0  0  0  0  0  0  0  0  0
   -2.7290    0.9970   -0.5700 C   0  0  0  0  0  0  0  0  0  0  0  0
   -2.1400   -0.2010    0.1060 C   0  0  0  0  0  0  0  0  0  0  0  0
   -1.1750   -0.9340   -0.6520 N   0  0  0  0  0  0  0  0  0  0  0  0
   -0.7990   -2.1650   -0.0170 C   0  0  0  0  0  0  0  0  0  0  0  0
    0.5860   -2.3220    0.4370 C   0  0  0  0  0  0  0  0  0  0  0  0
    1.4430   -1.1760    0.3330 N   0  0  0  0  0  0  0  0  0  0  0  0
    1.1390   -0.1550   -0.4680 C   0  0  0  0  0  0  0  0  0  0  0  0
    1.9590    0.9050   -0.5590 N   0  0  0  0  0  0  0  0  0  0  0  0
    3.1040    0.9870    0.1380 C   0  0  0  0  0  0  0  0  0  0  0  0
    3.9840    2.1830   -0.0060 C   0  0  0  0  0  0  0  0  0  0  0  0
    3.4170   -0.0370    0.9470 N   0  0  0  0  0  0  0  0  0  0  0  0
    2.6000   -1.0990    1.0420 C   0  0  0  0  0  0  0  0  0  0  0  0
    2.8980   -2.0480    1.7960 O   0  0  0  0  0  0  0  0  0  0  0  0
   -0.1290   -0.2230   -1.2640 C   0  0  0  0  0  0  0  0  0  0  0  0
  1  2  1  0
  2  3  1  0
  3  4  1  0
  4  5  1  0
  4 15  1  0
  5  6  1  0
  6  7  1  0
  7  8  1  0
  7 13  1  0
  8  9  2  0
  8 15  1  0
  9 10  1  0
 10 11  1  0
 10 12  2  0
 12 13  1  0
 13 14  2  0
M  END
