
     RDKit          3D

 26 27  0  0  0  0  0  0  0  0999 V2000
    1.0890    5.1560    0.8500 C   0  0  0  0  0  0  0  0  0  0  0  0
    0.5170    3.7970    0.8980 C   0  0  0  0  0  0  0  0  0  0  0  0
    1.2110    2.7830    0.4300 C   0  0  0  0  0  0  0  0  0  0  0  0
    0.6310    1.4560    0.4860 C   0  0  0  0  0  0  0  0  0  0  0  0
    1.2490    0.3710    0.0410 C   0  0  0  0  0  0  0  0  0  0  0  0
    2.5770    0.4180   -0.5500 C   0  0  0  0  0  0  0  0  0  0  0  0
    3.1800   -0.6910   -0.9940 C   0  0  0  0  0  0  0  0  0  0  0  0
    4.5270   -0.5710   -1.5820 C   0  0  0  0  0  0  0  0  0  0  0  0
    2.4680   -1.9110   -0.8610 N   0  0  0  0  0  0  0  0  0  0  0  0
    3.0980   -3.1130   -1.3310 C   0  0  0  0  0  0  0  0  0  0  0  0
    4.2980   -3.5090   -0.4940 C   0  0  0  0  0  0  0  0  0  0  0  0
    1.1910   -1.9680   -0.2950 N   0  0  0  0  0  0  0  0  0  0  0  0
    0.5780   -0.9410    0.1400 C   0  0  0  0  0  0  0  0  0  0  0  0
   -0.6920   -0.9880    0.7060 N   0  0  0  0  0  0  0  0  0  0  0  0
   -1.7980   -0.6950    0.1200 C   0  0  0  0  0  0  0  0  0  0  0  0
   -1.9140   -0.2480   -1.2870 C   0  0  0  0  0  0  0  0  0  0  0  0
   -2.8820    0.8650   -1.3150 N   0  0  0  0  0  0  0  0  0  0  0  0
   -2.6300    2.0550   -2.0860 C   0  0  0  0  0  0  0  0  0  0  0  0
   -4.0860    0.7650   -0.5710 C   0  0  0  0  0  0  0  0  0  0  0  0
   -4.2070   -0.0200    0.4890 C   0  0  0  0  0  0  0  0  0  0  0  0
   -3.0620   -0.8070    0.9060 C   0  0  0  0  0  0  0  0  0  0  0  0
   -3.0110   -1.6280    1.9260 C   0  0  0  0  0  0  0  0  0  0  0  0
   -4.1070   -1.8940    2.8210 C   0  0  0  0  0  0  0  0  0  0  0  0
   -5.3010   -1.3040    2.6750 F   0  0  0  0  0  0  0  0  0  0  0  0
   -3.9280   -2.7560    3.8310 C   0  0  0  0  0  0  0  0  0  0  0  0
   -5.2610   -3.0680    4.9060 Cl  0  0  0  0  0  0  0  0  0  0  0  0
  1  2  1  0
  2  3  2  3
  3  4  1  0
  4  5  2  3
  5  6  1  0
  5 13  1  0
  6  7  2  0
  7  8  1  0
  7  9  1  0
  9 10  1  0
  9 12  1  0
 10 11  1  0
 12 13  2  0
 13 14  1  0
 14 15  2  3
 15 16  1  0
 15 21  1  0
 16 17  1  0
 17 18  1  0
 17 19  1  0
 19 20  2  0
 20 21  1  0
 21 22  2  3
 22 23  1  0
 23 24  1  0
 23 25  2  3
 25 26  1  0
M  END
