
     RDKit          3D

 15 16  0  0  0  0  0  0  0  0999 V2000
    5.0820   -0.2000    0.8430 C   0  0  0  0  0  0  0  0  0  0  0  0
    3.6900   -0.1680    0.2520 C   0  0  0  0  0  0  0  0  0  0  0  0
    3.6620   -0.1980   -0.9900 O   0  0  0  0  0  0  0  0  0  0  0  0
    2.5700   -0.1070    1.1260 C   0  0  0  0  0  0  0  0  0  0  0  0
    1.3380   -0.0750    0.7310 C   0  0  0  0  0  0  0  0  0  0  0  0
    0.8520   -0.0920   -0.6120 C   0  0  0  0  0  0  0  0  0  0  0  0
   -0.4480   -0.0550   -0.9150 C   0  0  0  0  0  0  0  0  0  0  0  0
   -1.0390   -0.0660   -2.1590 C   0  0  0  0  0  0  0  0  0  0  0  0
   -2.3690   -0.0170   -2.0110 N   0  0  0  0  0  0  0  0  0  0  0  0
   -2.6310    0.0250   -0.7130 N   0  0  0  0  0  0  0  0  0  0  0  0
   -3.6230    0.0800    0.1670 C   0  0  0  0  0  0  0  0  0  0  0  0
   -5.0930    0.1230   -0.1270 C   0  0  0  0  0  0  0  0  0  0  0  0
   -3.0830    0.0930    1.3920 N   0  0  0  0  0  0  0  0  0  0  0  0
   -1.7710    0.0460    1.3080 N   0  0  0  0  0  0  0  0  0  0  0  0
   -1.4800    0.0030   -0.0100 C   0  0  0  0  0  0  0  0  0  0  0  0
  1  2  1  0
  2  3  2  0
  2  4  1  0
  4  5  2  3
  5  6  1  0
  6  7  2  3
  7  8  1  0
  7 15  1  0
  8  9  2  0
  9 10  1  0
 10 11  1  0
 10 15  1  0
 11 12  1  0
 11 13  2  0
 13 14  1  0
 14 15  2  0
M  END
