
     RDKit          3D

 15 16  0  0  0  0  0  0  0  0999 V2000
    4.1160   -0.7490    0.3000 C   0  0  0  0  0  0  0  0  0  0  0  0
    3.3350    0.2770   -0.3740 N   0  0  0  0  0  0  0  0  0  0  0  0
    3.8020    1.1590   -1.2690 C   0  0  0  0  0  0  0  0  0  0  0  0
    2.8020    1.9410   -1.6700 N   0  0  0  0  0  0  0  0  0  0  0  0
    1.7310    1.5330   -1.0200 N   0  0  0  0  0  0  0  0  0  0  0  0
    2.0200    0.5030   -0.2070 C   0  0  0  0  0  0  0  0  0  0  0  0
    1.1510   -0.2530    0.6900 C   0  0  0  0  0  0  0  0  0  0  0  0
   -0.1100   -0.6360    0.0890 N   0  0  0  0  0  0  0  0  0  0  0  0
   -0.8390   -1.3700    1.1090 C   0  0  0  0  0  0  0  0  0  0  0  0
   -1.7780   -0.3950    1.7710 C   0  0  0  0  0  0  0  0  0  0  0  0
   -2.8050   -0.1430    0.8640 O   0  0  0  0  0  0  0  0  0  0  0  0
   -2.3560    0.2030   -0.3910 C   0  0  1  0  0  0  0  0  0  0  0  0
   -2.7020   -0.8940   -1.3830 C   0  0  0  0  0  0  0  0  0  0  0  0
   -3.0990    1.4410   -0.8270 C   0  0  0  0  0  0  0  0  0  0  0  0
   -0.8560    0.4660   -0.4270 C   0  0  0  0  0  0  0  0  0  0  0  0
  1  2  1  0
  2  3  1  0
  2  6  1  0
  3  4  2  0
  4  5  1  0
  5  6  2  0
  6  7  1  0
  7  8  1  0
  8  9  1  0
  8 15  1  0
  9 10  1  0
 10 11  1  0
 11 12  1  0
 12 13  1  6
 12 14  1  0
 12 15  1  0
M  END
