
     RDKit          3D

 18 20  0  0  0  0  0  0  0  0999 V2000
    4.5090   -0.9130   -1.3920 C   0  0  0  0  0  0  0  0  0  0  0  0
    3.3600   -0.2560   -0.7530 C   0  0  0  0  0  0  0  0  0  0  0  0
    3.3880    0.8500    0.0510 C   0  0  0  0  0  0  0  0  0  0  0  0
    2.0690    1.1130    0.4250 C   0  0  0  0  0  0  0  0  0  0  0  0
    1.2610    0.1960   -0.1320 N   0  0  0  0  0  0  0  0  0  0  0  0
   -0.1390    0.1620    0.0370 C   0  0  0  0  0  0  0  0  0  0  0  0
   -1.1350    0.5010   -0.8820 C   0  0  0  0  0  0  0  0  0  0  0  0
   -2.3680    0.3180   -0.2970 C   0  0  0  0  0  0  0  0  0  0  0  0
   -3.6650    0.5620   -0.9290 C   0  0  0  0  0  0  0  0  0  0  0  0
   -3.7870    1.0280   -2.2580 N   0  0  0  0  0  0  0  0  0  0  0  0
   -4.7460    0.3620   -0.3000 O   0  0  0  0  0  0  0  0  0  0  0  0
   -2.1710   -0.1230    0.9560 N   0  0  0  0  0  0  0  0  0  0  0  0
   -0.8260   -0.2220    1.1730 C   0  0  0  0  0  0  0  0  0  0  0  0
   -0.6760   -0.7040    2.5430 C   0  0  0  0  0  0  0  0  0  0  0  0
    0.4560   -0.9060    3.0660 O   0  0  0  0  0  0  0  0  0  0  0  0
   -2.0050   -0.8690    3.0830 C   0  0  0  0  0  0  0  0  0  0  0  0
   -2.8510   -0.5230    2.1370 C   0  0  0  0  0  0  0  0  0  0  0  0
    2.0330   -0.6260   -0.8390 C   0  0  0  0  0  0  0  0  0  0  0  0
  1  2  1  0
  2  3  1  0
  2 18  2  0
  3  4  2  0
  4  5  1  0
  5  6  1  0
  5 18  1  0
  6  7  1  0
  6 13  2  0
  7  8  2  0
  8  9  1  0
  8 12  1  0
  9 10  1  0
  9 11  2  0
 12 13  1  0
 12 17  1  0
 13 14  1  0
 14 15  2  0
 14 16  1  0
 16 17  2  0
M  END
