
     RDKit          3D

 19 20  0  0  0  0  0  0  0  0999 V2000
    6.8100    0.8610   -0.5420 C   0  0  0  0  0  0  0  0  0  0  0  0
    5.3720    0.5700   -0.3170 C   0  0  0  0  0  0  0  0  0  0  0  0
    4.5320    1.4140    0.2550 C   0  0  0  0  0  0  0  0  0  0  0  0
    3.1280    1.0360    0.4330 C   0  0  0  0  0  0  0  0  0  0  0  0
    2.5980   -0.0850    0.0760 C   0  0  0  0  0  0  0  0  0  0  0  0
    1.2740   -0.5530    0.1960 C   0  0  0  0  0  0  0  0  0  0  0  0
    0.7600   -1.5700   -0.1260 O   0  0  0  0  0  0  0  0  0  0  0  0
    0.1860    0.5360    0.9480 N   0  0  0  0  0  0  0  0  0  0  0  0
   -0.9480   -0.2250    0.8660 C   0  0  0  0  0  0  0  0  0  0  0  0
   -1.2270   -1.3070    0.4190 O   0  0  0  0  0  0  0  0  0  0  0  0
   -2.0690    0.5420    1.5080 N   0  0  0  0  0  0  0  0  0  0  0  0
   -3.3910    0.1930    1.5830 C   0  0  0  0  0  0  0  0  0  0  0  0
   -4.1440    0.1970    0.3120 C   0  0  1  0  0  0  0  0  0  0  0  0
   -3.7300   -0.7980   -0.7000 C   0  0  0  0  0  0  0  0  0  0  0  0
   -4.9860   -0.8020   -1.6160 C   0  0  0  0  0  0  0  0  0  0  0  0
   -6.0210   -0.1320   -0.7460 C   0  0  0  0  0  0  0  0  0  0  0  0
   -5.4930   -0.1590    0.5350 O   0  0  0  0  0  0  0  0  0  0  0  0
    3.5160   -1.0930   -0.5860 C   0  0  0  0  0  0  0  0  0  0  0  0
    4.8490   -0.6680   -0.7190 N   0  0  0  0  0  0  0  0  0  0  0  0
  1  2  1  0
  2  3  2  0
  2 19  1  0
  3  4  1  0
  4  5  2  0
  5  6  1  0
  5 18  1  0
  6  7  2  0
  6  8  1  0
  8  9  1  0
  9 10  2  0
  9 11  1  0
 11 12  1  0
 13 12  1  1
 13 14  1  0
 13 17  1  0
 14 15  1  0
 15 16  1  0
 16 17  1  0
 18 19  1  0
M  END
