
     RDKit          3D

 21 22  0  0  0  0  0  0  0  0999 V2000
    6.1920    1.9750    0.6780 N   0  0  0  0  0  0  0  0  0  0  0  0
    5.6840    0.3480    0.5970 S   0  0  1  0  0  0  0  0  0  0  0  0
    6.5710   -0.4600   -0.3320 O   0  0  0  0  0  0  0  0  0  0  0  0
    5.8170   -0.2470    1.9790 O   0  0  0  0  0  0  0  0  0  0  0  0
    4.0430    0.1940   -0.0010 C   0  0  0  0  0  0  0  0  0  0  0  0
    3.7570    0.0590   -1.3380 C   0  0  0  0  0  0  0  0  0  0  0  0
    2.4520   -0.0600   -1.7690 C   0  0  0  0  0  0  0  0  0  0  0  0
    1.3970   -0.0460   -0.8810 C   0  0  0  0  0  0  0  0  0  0  0  0
    0.0790   -0.1680   -1.3900 N   0  0  0  0  0  0  0  0  0  0  0  0
   -1.0270   -0.2120   -0.4530 C   0  0  2  0  0  0  0  0  0  0  0  0
   -0.8580   -1.6710    0.6190 S   0  0  0  0  0  0  0  0  0  0  0  0
   -2.2580   -0.2320   -1.1890 N   0  0  0  0  0  0  0  0  0  0  0  0
   -3.5120   -0.2280   -0.5020 C   0  0  0  0  0  0  0  0  0  0  0  0
   -3.5440   -0.1390    0.8520 C   0  0  0  0  0  0  0  0  0  0  0  0
   -4.7180   -0.1340    1.5740 C   0  0  0  0  0  0  0  0  0  0  0  0
   -5.9090   -0.2240    0.8900 C   0  0  0  0  0  0  0  0  0  0  0  0
   -5.8800   -0.3150   -0.4850 C   0  0  0  0  0  0  0  0  0  0  0  0
   -7.6780   -0.4570   -1.6050 I   0  0  0  0  0  0  0  0  0  0  0  0
   -4.7060   -0.3190   -1.2000 C   0  0  0  0  0  0  0  0  0  0  0  0
    1.6830    0.0910    0.4550 C   0  0  0  0  0  0  0  0  0  0  0  0
    3.0090    0.2100    0.8920 C   0  0  0  0  0  0  0  0  0  0  0  0
  2  1  1  1
  2  3  2  0
  2  4  2  0
  2  5  1  0
  5  6  2  0
  5 21  1  0
  6  7  1  0
  7  8  2  0
  8  9  1  0
  8 20  1  0
  9 10  1  0
 10 11  1  6
 10 12  1  0
 12 13  1  0
 13 14  2  0
 13 19  1  0
 14 15  1  0
 15 16  2  0
 16 17  1  0
 17 18  1  0
 17 19  2  0
 20 21  2  0
M  END
