
     RDKit          3D

 19 21  0  0  0  0  0  0  0  0999 V2000
    0.1210    3.5320   -0.4120 C   0  0  0  0  0  0  0  0  0  0  0  0
   -0.0040    2.5490    0.5680 O   0  0  0  0  0  0  0  0  0  0  0  0
   -0.0210    1.1850    0.3400 C   0  0  0  0  0  0  0  0  0  0  0  0
   -1.2390    0.5630    0.1130 C   0  0  0  0  0  0  0  0  0  0  0  0
   -1.3440   -0.7840   -0.1210 C   0  0  0  0  0  0  0  0  0  0  0  0
   -0.2000   -1.5440   -0.1300 C   0  0  0  0  0  0  0  0  0  0  0  0
   -0.2520   -2.9440   -0.3670 N   0  0  0  0  0  0  0  0  0  0  0  0
    1.0310   -0.9380    0.0960 C   0  0  0  0  0  0  0  0  0  0  0  0
    1.1250    0.4220    0.3310 C   0  0  0  0  0  0  0  0  0  0  0  0
    2.2470    1.1960    0.5740 O   0  0  0  0  0  0  0  0  0  0  0  0
    3.5680    0.9860    0.1110 C   0  0  0  0  0  0  0  0  0  0  0  0
    4.0880   -0.3540    0.4390 C   0  0  0  0  0  0  0  0  0  0  0  0
    5.2290   -0.4320    1.0070 O   0  0  0  0  0  0  0  0  0  0  0  0
    3.4680   -1.5940    0.1990 N   0  0  0  0  0  0  0  0  0  0  0  0
    2.1070   -1.8710    0.0520 N   0  0  0  0  0  0  0  0  0  0  0  0
   -2.6190   -1.5010   -0.3700 C   0  0  0  0  0  0  0  0  0  0  0  0
   -3.8280   -0.6340   -0.3510 C   0  0  0  0  0  0  0  0  0  0  0  0
   -3.6040    0.7870   -0.0930 C   0  0  0  0  0  0  0  0  0  0  0  0
   -2.4580    1.3530    0.1180 C   0  0  0  0  0  0  0  0  0  0  0  0
  1  2  1  0
  2  3  1  0
  3  4  2  0
  3  9  1  0
  4  5  1  0
  4 19  1  0
  5  6  2  0
  5 16  1  0
  6  7  1  0
  6  8  1  0
  8  9  2  0
  8 15  1  0
  9 10  1  0
 10 11  1  0
 11 12  1  0
 12 13  2  0
 12 14  1  0
 14 15  1  0
 16 17  1  0
 17 18  1  0
 18 19  2  0
M  END
