
     RDKit          3D

 18 20  0  0  0  0  0  0  0  0999 V2000
    5.8650   -0.5150    0.4000 O   0  0  0  0  0  0  0  0  0  0  0  0
    4.6280   -0.2430    0.2410 C   0  0  0  0  0  0  0  0  0  0  0  0
    3.7020   -1.1880    0.4250 N   0  0  0  0  0  0  0  0  0  0  0  0
    2.4010   -0.9180    0.2620 C   0  0  0  0  0  0  0  0  0  0  0  0
    1.4300   -1.8920    0.4510 C   0  0  0  0  0  0  0  0  0  0  0  0
    0.1200   -1.5730    0.2740 C   0  0  0  0  0  0  0  0  0  0  0  0
   -0.3250   -0.3190   -0.0900 C   0  0  0  0  0  0  0  0  0  0  0  0
   -1.6980    0.0020   -0.2860 N   0  0  0  0  0  0  0  0  0  0  0  0
   -2.6900   -1.0010   -0.4550 C   0  0  0  0  0  0  0  0  0  0  0  0
   -3.9610   -0.7200   -0.6250 C   0  0  0  0  0  0  0  0  0  0  0  0
   -4.4860    0.6500   -0.6570 C   0  0  0  0  0  0  0  0  0  0  0  0
   -3.4410    1.6630   -0.4800 C   0  0  0  0  0  0  0  0  0  0  0  0
   -2.1710    1.3420   -0.3110 C   0  0  0  0  0  0  0  0  0  0  0  0
    0.6460    0.6350   -0.2740 C   0  0  0  0  0  0  0  0  0  0  0  0
    2.0110    0.3470   -0.1010 C   0  0  0  0  0  0  0  0  0  0  0  0
    2.9230    1.3310   -0.2970 N   0  0  0  0  0  0  0  0  0  0  0  0
    4.2270    1.0330   -0.1250 C   0  0  0  0  0  0  0  0  0  0  0  0
    5.1230    1.8940   -0.2900 O   0  0  0  0  0  0  0  0  0  0  0  0
  1  2  2  0
  2  3  1  0
  2 17  1  0
  3  4  1  0
  4  5  2  0
  4 15  1  0
  5  6  1  0
  6  7  2  0
  7  8  1  0
  7 14  1  0
  8  9  1  0
  8 13  1  0
  9 10  2  0
 10 11  1  0
 11 12  1  0
 12 13  2  0
 14 15  2  0
 15 16  1  0
 16 17  1  0
 17 18  2  0
M  END
