
     RDKit          3D

 18 20  0  0  0  0  0  0  0  0999 V2000
   -2.5550    1.6800   -1.5390 O   0  0  0  0  0  0  0  0  0  0  0  0
   -3.0020    0.9180   -0.6280 C   0  0  0  0  0  0  0  0  0  0  0  0
   -4.0350    1.3520    0.1750 C   0  0  0  0  0  0  0  0  0  0  0  0
   -4.5540    0.5930    1.1580 N   0  0  0  0  0  0  0  0  0  0  0  0
   -4.0610   -0.6380    1.3840 C   0  0  0  0  0  0  0  0  0  0  0  0
   -3.0240   -1.0670    0.5740 C   0  0  0  0  0  0  0  0  0  0  0  0
   -2.5090   -0.3080   -0.4050 N   0  0  0  0  0  0  0  0  0  0  0  0
   -1.4300   -0.8030   -1.2180 C   0  0  0  0  0  0  0  0  0  0  0  0
   -0.0980   -0.4770   -0.6600 C   0  0  0  0  0  0  0  0  0  0  0  0
    0.6190   -1.2620    0.2220 C   0  0  0  0  0  0  0  0  0  0  0  0
    1.7970   -0.6220    0.5040 C   0  0  0  0  0  0  0  0  0  0  0  0
    2.9040   -0.8950    1.2960 C   0  0  0  0  0  0  0  0  0  0  0  0
    3.9800   -0.0430    1.3930 C   0  0  0  0  0  0  0  0  0  0  0  0
    5.0740   -0.3750    2.2140 O   0  0  0  0  0  0  0  0  0  0  0  0
    3.9680    1.1320    0.6760 C   0  0  0  0  0  0  0  0  0  0  0  0
    2.8830    1.4350   -0.1230 C   0  0  0  0  0  0  0  0  0  0  0  0
    1.8080    0.5550   -0.2020 C   0  0  0  0  0  0  0  0  0  0  0  0
    0.6430    0.6080   -0.8950 N   0  0  0  0  0  0  0  0  0  0  0  0
  1  2  2  0
  2  3  1  0
  2  7  1  0
  3  4  2  0
  4  5  1  0
  5  6  2  0
  6  7  1  0
  7  8  1  0
  8  9  1  0
  9 10  2  0
  9 18  1  0
 10 11  1  0
 11 12  2  0
 11 17  1  0
 12 13  1  0
 13 14  1  0
 13 15  2  0
 15 16  1  0
 16 17  2  0
 17 18  1  0
M  END
