
     RDKit          3D

 20 22  0  0  0  0  0  0  0  0999 V2000
    7.5770   -0.4220   -0.0710 C   0  0  0  0  0  0  0  0  0  0  0  0
    6.0950   -0.3950   -0.0320 C   0  0  0  0  0  0  0  0  0  0  0  0
    5.4240    0.3600    0.8270 C   0  0  0  0  0  0  0  0  0  0  0  0
    4.0120    0.3950    0.8740 N   0  0  0  0  0  0  0  0  0  0  0  0
    3.2780    0.1930   -0.1690 C   0  0  0  0  0  0  0  0  0  0  0  0
    1.8060    0.2390   -0.0710 C   0  0  0  0  0  0  0  0  0  0  0  0
    1.1400    0.4920    1.0880 C   0  0  0  0  0  0  0  0  0  0  0  0
   -0.2120    0.4460    0.7530 C   0  0  0  0  0  0  0  0  0  0  0  0
   -0.2950    0.1680   -0.5900 C   0  0  0  0  0  0  0  0  0  0  0  0
   -1.4560    0.0070   -1.4510 C   0  0  0  0  0  0  0  0  0  0  0  0
   -1.2130   -0.2140   -2.6950 O   0  0  0  0  0  0  0  0  0  0  0  0
   -2.8040    0.0650   -1.0840 N   0  0  0  0  0  0  0  0  0  0  0  0
   -3.3100    0.2670    0.2190 C   0  0  0  0  0  0  0  0  0  0  0  0
   -4.7570   -0.0280    0.1240 C   0  0  0  0  0  0  0  0  0  0  0  0
   -5.9120   -0.1910    0.8670 C   0  0  0  0  0  0  0  0  0  0  0  0
   -6.9240   -0.4770    0.0330 N   0  0  0  0  0  0  0  0  0  0  0  0
   -6.4260   -0.4940   -1.1860 N   0  0  0  0  0  0  0  0  0  0  0  0
   -5.0920   -0.2220   -1.1800 C   0  0  0  0  0  0  0  0  0  0  0  0
   -3.8850   -0.0520   -2.0080 C   0  0  0  0  0  0  0  0  0  0  0  0
    0.9670    0.0570   -1.0210 O   0  0  0  0  0  0  0  0  0  0  0  0
  1  2  1  0
  2  3  2  3
  3  4  1  0
  4  5  2  3
  5  6  1  0
  6  7  2  0
  6 20  1  0
  7  8  1  0
  8  9  2  0
  9 10  1  0
  9 20  1  0
 10 11  2  0
 10 12  1  0
 12 13  1  0
 12 19  1  0
 13 14  1  0
 14 15  2  0
 14 18  1  0
 15 16  1  0
 16 17  1  0
 17 18  2  0
 18 19  1  0
M  END
