
     RDKit          3D

 21 23  0  0  0  0  0  0  0  0999 V2000
   -4.7790   -1.5250    0.3500 C   0  0  0  0  0  0  0  0  0  0  0  0
   -3.8990   -1.2450    1.5370 C   0  0  0  0  0  0  0  0  0  0  0  0
   -2.5570   -0.9760    1.1470 O   0  0  0  0  0  0  0  0  0  0  0  0
   -2.2940    0.1150    0.2940 C   0  0  0  0  0  0  0  0  0  0  0  0
   -3.2160    0.9600   -0.2080 N   0  0  0  0  0  0  0  0  0  0  0  0
   -2.5760    1.8530   -0.9660 C   0  0  0  0  0  0  0  0  0  0  0  0
   -1.2690    1.6030   -0.9630 N   0  0  0  0  0  0  0  0  0  0  0  0
   -0.1860    2.2930   -1.6310 C   0  0  0  0  0  0  0  0  0  0  0  0
   -1.0720    0.5110   -0.1740 C   0  0  0  0  0  0  0  0  0  0  0  0
    0.2530   -0.0940    0.0920 C   0  0  0  0  0  0  0  0  0  0  0  0
    1.3680    0.4340   -0.4600 N   0  0  0  0  0  0  0  0  0  0  0  0
    2.5920   -0.0490   -0.2710 C   0  0  0  0  0  0  0  0  0  0  0  0
    3.6660    0.5760   -0.8900 C   0  0  0  0  0  0  0  0  0  0  0  0
    4.9280    0.0640   -0.6840 C   0  0  0  0  0  0  0  0  0  0  0  0
    6.3440    0.8120   -1.4430 Cl  0  0  0  0  0  0  0  0  0  0  0  0
    5.0640   -1.0440    0.1250 C   0  0  0  0  0  0  0  0  0  0  0  0
    3.9970   -1.6620    0.7380 C   0  0  0  0  0  0  0  0  0  0  0  0
    2.7250   -1.1560    0.5380 C   0  0  0  0  0  0  0  0  0  0  0  0
    1.6120   -1.7090    1.1080 C   0  0  0  0  0  0  0  0  0  0  0  0
    1.7440   -2.7230    1.8480 O   0  0  0  0  0  0  0  0  0  0  0  0
    0.3860   -1.1580    0.8690 N   0  0  0  0  0  0  0  0  0  0  0  0
  1  2  1  0
  2  3  1  0
  3  4  1  0
  4  5  1  0
  4  9  2  0
  5  6  2  0
  6  7  1  0
  7  8  1  0
  7  9  1  0
  9 10  1  0
 10 11  2  0
 10 21  1  0
 11 12  1  0
 12 13  2  0
 12 18  1  0
 13 14  1  0
 14 15  1  0
 14 16  2  0
 16 17  1  0
 17 18  2  0
 18 19  1  0
 19 20  2  0
 19 21  1  0
M  END
