
     RDKit          3D

 10  9  0  0  0  0  0  0  0  0999 V2000
   -2.4600   -1.3070    0.5940 C   0  0  0  0  0  0  0  0  0  0  0  0
   -1.7630   -0.1170   -0.0040 C   0  0  0  0  0  0  0  0  0  0  0  0
   -0.3960   -0.1180    0.3340 O   0  0  0  0  0  0  0  0  0  0  0  0
    0.5130    0.8260   -0.0520 C   0  0  0  0  0  0  0  0  0  0  0  0
    1.7220    0.4430   -0.4400 C   0  0  0  0  0  0  0  0  0  0  0  0
    2.0990   -0.9940   -0.4600 C   0  0  0  0  0  0  0  0  0  0  0  0
    3.1860   -1.2180    0.3850 O   0  0  0  0  0  0  0  0  0  0  0  0
    0.1890    2.2760   -0.0510 C   0  0  1  0  0  0  0  0  0  0  0  0
   -1.1810    2.5350   -1.1500 Cl  0  0  0  0  0  0  0  0  0  0  0  0
   -0.1780    2.8540    1.5900 Cl  0  0  0  0  0  0  0  0  0  0  0  0
  1  2  1  0
  2  3  1  0
  3  4  1  0
  4  5  2  3
  4  8  1  0
  5  6  1  0
  6  7  1  0
  8  9  1  6
  8 10  1  0
M  END
