
     RDKit          3D

  9  9  0  0  0  0  0  0  0  0999 V2000
    0.4280    1.6350    0.3270 O   0  0  0  0  0  0  0  0  0  0  0  0
    0.2730    0.2430    0.3760 C   0  0  1  0  0  0  0  0  0  0  0  0
    1.4340   -0.3200    0.8880 O   0  0  0  0  0  0  0  0  0  0  0  0
    2.4860    0.0230    0.0440 C   0  0  0  0  0  0  0  0  0  0  0  0
    3.9670   -0.7060    0.7140 Cl  0  0  0  0  0  0  0  0  0  0  0  0
   -0.9390   -0.0720    1.2130 C   0  0  0  0  0  0  0  0  0  0  0  0
   -2.0740   -0.2390    0.2140 C   0  0  0  0  0  0  0  0  0  0  0  0
   -1.4630   -0.2760   -1.1460 C   0  0  0  0  0  0  0  0  0  0  0  0
    0.0350   -0.3320   -0.9820 C   0  0  0  0  0  0  0  0  0  0  0  0
  2  1  1  6
  2  3  1  0
  2  6  1  0
  2  9  1  0
  3  4  1  0
  4  5  1  0
  6  7  1  0
  7  8  1  0
  8  9  1  0
M  END
