
     RDKit          3D

 21 23  0  0  0  0  0  0  0  0999 V2000
    4.9390    0.1260   -0.3030 C   0  0  0  0  0  0  0  0  0  0  0  0
    3.8550    1.0530   -0.7630 C   0  0  0  0  0  0  0  0  0  0  0  0
    2.6080    0.6400   -0.1330 N   0  0  0  0  0  0  0  0  0  0  0  0
    2.1280    1.0670    1.0490 C   0  0  0  0  0  0  0  0  0  0  0  0
    0.9470    0.4640    1.3050 N   0  0  0  0  0  0  0  0  0  0  0  0
    0.6490   -0.3660    0.2830 C   0  0  0  0  0  0  0  0  0  0  0  0
    1.6990   -0.2400   -0.6020 C   0  0  0  0  0  0  0  0  0  0  0  0
    1.6830   -0.9720   -1.7600 C   0  0  0  0  0  0  0  0  0  0  0  0
    2.6260   -0.8780   -2.5860 O   0  0  0  0  0  0  0  0  0  0  0  0
    0.6290   -1.7830   -1.9680 N   0  0  0  0  0  0  0  0  0  0  0  0
   -0.3950   -1.8930   -1.0840 C   0  0  0  0  0  0  0  0  0  0  0  0
   -1.3730   -2.6630   -1.3040 O   0  0  0  0  0  0  0  0  0  0  0  0
   -0.4090   -1.1910    0.0570 N   0  0  0  0  0  0  0  0  0  0  0  0
   -1.4750   -1.2720    1.0300 C   0  0  0  0  0  0  0  0  0  0  0  0
   -2.5570   -0.2990    0.8000 C   0  0  0  0  0  0  0  0  0  0  0  0
   -3.6380   -0.6310    0.0130 C   0  0  0  0  0  0  0  0  0  0  0  0
   -4.6530    0.2920   -0.1990 C   0  0  0  0  0  0  0  0  0  0  0  0
   -4.5980    1.5440    0.3670 C   0  0  0  0  0  0  0  0  0  0  0  0
   -5.8990    2.6920    0.0800 Cl  0  0  0  0  0  0  0  0  0  0  0  0
   -3.5160    1.8790    1.1550 C   0  0  0  0  0  0  0  0  0  0  0  0
   -2.5050    0.9610    1.3670 C   0  0  0  0  0  0  0  0  0  0  0  0
  1  2  1  0
  2  3  1  0
  3  4  1  0
  3  7  1  0
  4  5  2  0
  5  6  1  0
  6  7  2  0
  6 13  1  0
  7  8  1  0
  8  9  2  0
  8 10  1  0
 10 11  1  0
 11 12  2  0
 11 13  1  0
 13 14  1  0
 14 15  1  0
 15 16  2  0
 15 21  1  0
 16 17  1  0
 17 18  2  0
 18 19  1  0
 18 20  1  0
 20 21  2  0
M  END
