
     RDKit          3D

  9  9  0  0  0  0  0  0  0  0999 V2000
   -0.2080   -1.1920   -1.7310 O   0  0  0  0  0  0  0  0  0  0  0  0
   -0.3820   -0.5870   -0.4760 C   0  0  2  0  0  0  0  0  0  0  0  0
    0.7270   -0.7910    0.3010 O   0  0  0  0  0  0  0  0  0  0  0  0
    1.8440   -0.2890   -0.2830 C   0  0  0  0  0  0  0  0  0  0  0  0
    1.9200    1.1620   -0.5810 C   0  0  0  0  0  0  0  0  0  0  0  0
    3.5570    1.4080   -1.3270 Cl  0  0  0  0  0  0  0  0  0  0  0  0
   -1.6770   -1.1190    0.1040 C   0  0  0  0  0  0  0  0  0  0  0  0
   -2.1670    0.2780    0.2390 C   0  0  0  0  0  0  0  0  0  0  0  0
   -0.9140    0.7850   -0.4250 C   0  0  0  0  0  0  0  0  0  0  0  0
  2  1  1  6
  2  3  1  0
  2  7  1  0
  2  9  1  0
  3  4  1  0
  4  5  1  0
  5  6  1  0
  7  8  1  0
  8  9  1  0
M  END
