
     RDKit          3D

  9  9  0  0  0  0  0  0  0  0999 V2000
   -0.9590   -0.4340    1.7560 O   0  0  0  0  0  0  0  0  0  0  0  0
   -0.6140   -0.2480    0.3950 C   0  0  1  0  0  0  0  0  0  0  0  0
   -1.8700   -0.6810   -0.3800 C   0  0  0  0  0  0  0  0  0  0  0  0
   -3.1630    0.4080    0.1890 Cl  0  0  0  0  0  0  0  0  0  0  0  0
   -0.3430    1.1750    0.1050 C   0  0  0  0  0  0  0  0  0  0  0  0
    1.0570    1.5740   -0.1090 C   0  0  0  0  0  0  0  0  0  0  0  0
    1.9970    0.5720   -0.0310 O   0  0  0  0  0  0  0  0  0  0  0  0
    1.6240   -0.5860   -0.6960 C   0  0  0  0  0  0  0  0  0  0  0  0
    0.4990   -1.1960    0.1130 C   0  0  0  0  0  0  0  0  0  0  0  0
  2  1  1  1
  2  3  1  0
  2  5  1  0
  2  9  1  0
  3  4  1  0
  5  6  1  0
  6  7  1  0
  7  8  1  0
  8  9  1  0
M  END
