
     RDKit          3D

 19 19  0  0  0  0  0  0  0  0999 V2000
   -5.0630    1.4380    0.7410 N   0  0  0  0  0  0  0  0  0  0  0  0
   -4.1260    0.5570   -0.0210 C   0  0  0  0  0  0  0  0  0  0  0  0
   -4.4410   -0.8190    0.4170 C   0  0  0  0  0  0  0  0  0  0  0  0
   -3.6870   -1.9190   -0.2320 C   0  0  0  0  0  0  0  0  0  0  0  0
   -2.2190   -1.8130   -0.0700 C   0  0  0  0  0  0  0  0  0  0  0  0
   -1.6010   -0.7030   -0.7420 N   0  0  0  0  0  0  0  0  0  0  0  0
   -0.1720   -0.5430   -0.5490 C   0  0  0  0  0  0  0  0  0  0  0  0
    0.4370   -1.3580    0.1740 O   0  0  0  0  0  0  0  0  0  0  0  0
    0.5450    0.5600   -1.1940 C   0  0  0  0  0  0  0  0  0  0  0  0
    1.9560    0.4850   -0.8350 N   0  0  0  0  0  0  0  0  0  0  0  0
    2.8390   -0.2100   -1.5690 C   0  0  0  0  0  0  0  0  0  0  0  0
    4.1670   -0.2780   -1.2280 C   0  0  0  0  0  0  0  0  0  0  0  0
    4.6870    0.3690   -0.0970 C   0  0  0  0  0  0  0  0  0  0  0  0
    6.0690    0.2550    0.1940 N   0  0  0  0  0  0  0  0  0  0  0  0
    6.7580    0.8330    1.2730 C   0  0  0  0  0  0  0  0  0  0  0  0
    6.1500    1.5350    2.1040 O   0  0  0  0  0  0  0  0  0  0  0  0
    3.7740    1.0710    0.6360 C   0  0  0  0  0  0  0  0  0  0  0  0
    2.4240    1.1160    0.2530 C   0  0  0  0  0  0  0  0  0  0  0  0
    1.5900    1.7710    0.9450 O   0  0  0  0  0  0  0  0  0  0  0  0
  1  2  1  0
  2  3  1  0
  3  4  1  0
  4  5  1  0
  5  6  1  0
  6  7  1  0
  7  8  2  0
  7  9  1  0
  9 10  1  0
 10 11  1  0
 10 18  1  0
 11 12  2  0
 12 13  1  0
 13 14  1  0
 13 17  2  0
 14 15  1  0
 15 16  2  0
 17 18  1  0
 18 19  2  0
M  CHG  1   1   1
M  END
