
     RDKit          3D

 19 19  0  0  0  0  0  0  0  0999 V2000
   -4.0730    2.7140   -0.4970 C   0  0  0  0  0  0  0  0  0  0  0  0
   -3.7220    1.6590    0.2270 C   0  0  0  0  0  0  0  0  0  0  0  0
   -2.6340    0.8020   -0.1910 C   0  0  0  0  0  0  0  0  0  0  0  0
   -1.8330    1.1330   -1.5560 S   0  0  0  0  0  0  0  0  0  0  0  0
   -2.2770   -0.3770    0.6280 C   0  0  2  0  0  0  0  0  0  0  0  0
   -1.9680    0.2470    2.0120 C   0  0  0  0  0  0  0  0  0  0  0  0
   -1.1540   -0.9720    0.0610 N   0  0  0  0  0  0  0  0  0  0  0  0
    0.2070   -0.3510    0.0730 C   0  0  0  0  0  0  0  0  0  0  0  0
    0.3090    0.6600    0.6180 O   0  0  0  0  0  0  0  0  0  0  0  0
    1.0840   -1.2410   -0.6420 N   0  0  0  0  0  0  0  0  0  0  0  0
    2.5300   -0.2980   -0.2820 C   0  0  0  0  0  0  0  0  0  0  0  0
    2.3870    0.6210    0.3970 O   0  0  0  0  0  0  0  0  0  0  0  0
    3.5660   -0.8840   -0.9130 O   0  0  0  0  0  0  0  0  0  0  0  0
    4.8750   -0.2950   -0.7750 C   0  0  0  0  0  0  0  0  0  0  0  0
    4.8250    1.1200   -1.2620 C   0  0  0  0  0  0  0  0  0  0  0  0
    6.1830    1.7020   -1.1090 N   0  0  0  0  0  0  0  0  0  0  0  0
   -3.4730   -1.2520    0.7550 C   0  0  2  0  0  0  0  0  0  0  0  0
   -3.4560   -2.5060    1.5390 C   0  0  0  0  0  0  0  0  0  0  0  0
   -3.5220   -2.5430   -0.0010 C   0  0  0  0  0  0  0  0  0  0  0  0
  1  2  2  0
  2  3  1  0
  3  4  2  0
  3  5  1  0
  5  6  1  1
  5  7  1  0
  5 17  1  0
  7  8  1  0
  8  9  2  0
  8 10  1  0
 10 11  1  0
 11 12  2  0
 11 13  1  0
 13 14  1  0
 14 15  1  0
 15 16  1  0
 17 18  1  1
 17 19  1  0
 18 19  1  0
M  CHG  1  16   1
M  END
