
     RDKit          3D

 19 19  0  0  0  0  0  0  0  0999 V2000
    4.8000    1.5000    1.6040 C   0  0  0  0  0  0  0  0  0  0  0  0
    4.4680    0.3650    0.6290 C   0  0  0  0  0  0  0  0  0  0  0  0
    3.0840   -0.1600    1.0260 C   0  0  0  0  0  0  0  0  0  0  0  0
    2.6660   -1.2850    0.1210 C   0  0  0  0  0  0  0  0  0  0  0  0
    2.5950   -0.8670   -1.2830 N   0  0  0  0  0  0  0  0  0  0  0  0
    1.7030   -1.7630   -1.9720 C   0  0  0  0  0  0  0  0  0  0  0  0
    0.2490   -1.4350   -1.7440 C   0  0  0  0  0  0  0  0  0  0  0  0
   -0.6300   -2.1600   -2.3060 O   0  0  0  0  0  0  0  0  0  0  0  0
   -0.1730   -0.3680   -0.9410 N   0  0  0  0  0  0  0  0  0  0  0  0
   -1.5080    0.0110   -0.6660 C   0  0  0  0  0  0  0  0  0  0  0  0
   -1.7500    1.2450   -0.0280 C   0  0  0  0  0  0  0  0  0  0  0  0
   -3.0140    1.6760    0.2840 C   0  0  0  0  0  0  0  0  0  0  0  0
   -4.1260    0.9190   -0.0120 C   0  0  0  0  0  0  0  0  0  0  0  0
   -5.7340    1.4930    0.3970 S   0  0  1  0  0  0  0  0  0  0  0  0
   -6.0900    0.9170    1.9920 N   0  0  0  0  0  0  0  0  0  0  0  0
   -5.7890    2.9920    0.4470 O   0  0  0  0  0  0  0  0  0  0  0  0
   -6.7540    0.9830   -0.5840 O   0  0  0  0  0  0  0  0  0  0  0  0
   -3.9140   -0.2860   -0.6330 C   0  0  0  0  0  0  0  0  0  0  0  0
   -2.6160   -0.7280   -0.9530 C   0  0  0  0  0  0  0  0  0  0  0  0
  1  2  1  0
  2  3  1  0
  3  4  1  0
  4  5  1  0
  5  6  1  0
  6  7  1  0
  7  8  2  0
  7  9  1  0
  9 10  1  0
 10 11  2  0
 10 19  1  0
 11 12  1  0
 12 13  2  0
 13 14  1  0
 13 18  1  0
 14 15  1  1
 14 16  2  0
 14 17  2  0
 18 19  2  0
M  CHG  1   5   1
M  END
