
     RDKit          3D

 19 19  0  0  0  0  0  0  0  0999 V2000
   -2.4990    2.1780   -0.7530 N   0  0  0  0  0  0  0  0  0  0  0  0
   -3.8020    1.7240   -0.4620 C   0  0  0  0  0  0  0  0  0  0  0  0
   -4.0670    0.3360   -0.1690 C   0  0  0  0  0  0  0  0  0  0  0  0
   -3.3370   -0.7340   -0.0930 C   0  0  0  0  0  0  0  0  0  0  0  0
   -3.9820   -2.0320    0.2450 C   0  0  0  0  0  0  0  0  0  0  0  0
   -3.2990   -3.1600    0.3380 C   0  0  0  0  0  0  0  0  0  0  0  0
   -1.8570   -3.1710    0.1080 C   0  0  0  0  0  0  0  0  0  0  0  0
   -1.2010   -2.0630   -0.1970 C   0  0  0  0  0  0  0  0  0  0  0  0
    0.2030   -2.0920   -0.4180 N   0  0  0  0  0  0  0  0  0  0  0  0
    1.0810   -1.3210    0.3890 C   0  0  0  0  0  0  0  0  0  0  0  0
    0.5630   -0.6210    1.2960 O   0  0  0  0  0  0  0  0  0  0  0  0
    2.5610   -1.3370    0.1750 C   0  0  0  0  0  0  0  0  0  0  0  0
    3.2350   -0.5130    1.0730 O   0  0  0  0  0  0  0  0  0  0  0  0
    3.0680    0.8410    1.2190 C   0  0  0  0  0  0  0  0  0  0  0  0
    2.1900    1.3920    2.4830 S   0  0  0  0  0  0  0  0  0  0  0  0
    3.6670    1.7700    0.2570 C   0  0  0  0  0  0  0  0  0  0  0  0
    5.1930    1.6090    0.2320 C   0  0  0  0  0  0  0  0  0  0  0  0
    5.7590    2.4830   -0.6730 O   0  0  0  0  0  0  0  0  0  0  0  0
   -1.9430   -0.8200   -0.3020 N   0  0  0  0  0  0  0  0  0  0  0  0
  1  2  1  0
  2  3  1  0
  3  4  2  3
  4  5  1  0
  4 19  1  0
  5  6  2  0
  6  7  1  0
  7  8  2  0
  8  9  1  0
  8 19  1  0
  9 10  1  0
 10 11  2  0
 10 12  1  0
 12 13  1  0
 13 14  1  0
 14 15  2  0
 14 16  1  0
 16 17  1  0
 17 18  1  0
M  CHG  1   1   1
M  END
