
     RDKit          3D

 19 19  0  0  0  0  0  0  0  0999 V2000
    7.3530    0.2940   -0.5200 C   0  0  0  0  0  0  0  0  0  0  0  0
    5.8400    0.2190   -0.6410 C   0  0  0  0  0  0  0  0  0  0  0  0
    5.3390    0.1810   -1.7830 O   0  0  0  0  0  0  0  0  0  0  0  0
    5.0290    0.1930    0.5040 N   0  0  0  0  0  0  0  0  0  0  0  0
    3.6160    0.1260    0.5240 C   0  0  0  0  0  0  0  0  0  0  0  0
    2.7950    0.1440   -0.5630 C   0  0  0  0  0  0  0  0  0  0  0  0
    1.4090    0.0680   -0.4650 C   0  0  0  0  0  0  0  0  0  0  0  0
    0.7980   -0.0280    0.7540 C   0  0  0  0  0  0  0  0  0  0  0  0
   -0.6100   -0.1040    0.8460 N   0  0  0  0  0  0  0  0  0  0  0  0
   -1.4180   -0.0800   -0.3560 C   0  0  0  0  0  0  0  0  0  0  0  0
   -2.8940   -0.1750    0.0290 C   0  0  2  0  0  0  0  0  0  0  0  0
   -3.1210   -1.4000    0.7390 N   0  0  0  0  0  0  0  0  0  0  0  0
   -3.6720   -0.1180   -1.2830 C   0  0  0  0  0  0  0  0  0  0  0  0
   -5.1710   -0.2060   -1.0090 C   0  0  0  0  0  0  0  0  0  0  0  0
   -5.6770    1.1480    0.0210 S   0  0  1  0  0  0  0  0  0  0  0  0
   -5.5540    0.7410    1.4680 O   0  0  0  0  0  0  0  0  0  0  0  0
   -4.9080    2.3900   -0.2770 O   0  0  0  0  0  0  0  0  0  0  0  0
    1.6040   -0.0480    1.8680 C   0  0  0  0  0  0  0  0  0  0  0  0
    2.9800    0.0270    1.7720 C   0  0  0  0  0  0  0  0  0  0  0  0
  1  2  1  0
  2  3  2  0
  2  4  1  0
  4  5  1  0
  5  6  2  0
  5 19  1  0
  6  7  1  0
  7  8  2  0
  8  9  1  0
  8 18  1  0
  9 10  1  0
 10 11  1  0
 11 12  1  6
 11 13  1  0
 13 14  1  0
 15 14  1  6
 15 16  2  0
 15 17  2  0
 18 19  2  0
M  CHG  1  12   1
M  END
