
     RDKit          3D

 19 19  0  0  0  0  0  0  0  0999 V2000
   -3.7870    2.9680   -0.9970 C   0  0  0  0  0  0  0  0  0  0  0  0
   -1.9970    3.0810   -0.9640 S   0  0  0  0  0  0  0  0  0  0  0  0
   -1.2960    1.4210   -1.1110 C   0  0  0  0  0  0  0  0  0  0  0  0
   -1.6810    0.6560    0.1510 C   0  0  0  0  0  0  0  0  0  0  0  0
   -1.1330   -0.7550    0.1140 C   0  0  1  0  0  0  0  0  0  0  0  0
    0.3530   -0.7350    0.0150 C   0  0  0  0  0  0  0  0  0  0  0  0
    0.9840   -1.2530   -0.9410 O   0  0  0  0  0  0  0  0  0  0  0  0
    1.1420   -0.1060    1.0350 N   0  0  0  0  0  0  0  0  0  0  0  0
    2.5260   -0.0940    0.9320 N   0  0  0  0  0  0  0  0  0  0  0  0
    3.2700    1.0590    0.4910 C   0  0  0  0  0  0  0  0  0  0  0  0
    2.6370    2.0880    0.1880 O   0  0  0  0  0  0  0  0  0  0  0  0
    4.7350    1.0390    0.3940 C   0  0  0  0  0  0  0  0  0  0  0  0
    5.2250    2.3670   -0.0900 C   0  0  0  0  0  0  0  0  0  0  0  0
    6.6030    2.4250   -0.2060 O   0  0  0  0  0  0  0  0  0  0  0  0
   -1.5920   -1.4490    1.3670 C   0  0  0  0  0  0  0  0  0  0  0  0
   -2.6940   -2.4510    1.1160 C   0  0  0  0  0  0  0  0  0  0  0  0
   -2.3560   -3.4560    0.0560 C   0  0  0  0  0  0  0  0  0  0  0  0
   -1.3440   -2.9270   -0.8490 N   0  0  0  0  0  0  0  0  0  0  0  0
   -1.6630   -1.5140   -1.0840 C   0  0  0  0  0  0  0  0  0  0  0  0
  1  2  1  0
  2  3  1  0
  3  4  1  0
  5  4  1  1
  5  6  1  0
  5 15  1  0
  5 19  1  0
  6  7  2  0
  6  8  1  0
  8  9  1  0
  9 10  1  0
 10 11  2  0
 10 12  1  0
 12 13  1  0
 13 14  1  0
 15 16  1  0
 16 17  1  0
 17 18  1  0
 18 19  1  0
M  CHG  1  18   1
M  END
