
     RDKit          3D

 19 19  0  0  0  0  0  0  0  0999 V2000
    3.6260    1.1830    0.1450 C   0  0  0  0  0  0  0  0  0  0  0  0
    3.6360   -0.0830   -0.1950 C   0  0  0  0  0  0  0  0  0  0  0  0
    2.4210   -0.8900   -0.3460 C   0  0  0  0  0  0  0  0  0  0  0  0
    1.1890   -0.2130   -0.0900 N   0  0  0  0  0  0  0  0  0  0  0  0
   -0.0690   -0.8910   -0.2050 C   0  0  0  0  0  0  0  0  0  0  0  0
   -0.0370   -2.0970   -0.5430 O   0  0  0  0  0  0  0  0  0  0  0  0
   -1.2910   -0.1730    0.0660 N   0  0  0  0  0  0  0  0  0  0  0  0
   -2.5400   -0.8490   -0.0480 C   0  0  0  0  0  0  0  0  0  0  0  0
   -3.7570   -0.0870    0.2420 C   0  0  0  0  0  0  0  0  0  0  0  0
   -3.7730    1.1640    0.5950 C   0  0  0  0  0  0  0  0  0  0  0  0
   -4.9190    2.0620    0.9180 C   0  0  0  0  0  0  0  0  0  0  0  0
   -5.7520    2.2470   -0.1690 O   0  0  0  0  0  0  0  0  0  0  0  0
   -6.9580    1.0660   -0.3020 S   0  0  0  0  0  0  0  0  0  0  0  0
   -6.2490   -0.5520   -0.1120 C   0  0  0  0  0  0  0  0  0  0  0  0
   -7.1360   -1.6440   -0.1910 O   0  0  0  0  0  0  0  0  0  0  0  0
   -5.0030   -0.8970    0.0940 C   0  0  0  0  0  0  0  0  0  0  0  0
    4.9020   -0.7120   -0.4310 N   0  0  0  0  0  0  0  0  0  0  0  0
    6.1470   -0.0200   -0.2910 C   0  0  0  0  0  0  0  0  0  0  0  0
    6.4180    0.3100    1.1560 C   0  0  0  0  0  0  0  0  0  0  0  0
  1  2  2  0
  2  3  1  0
  2 17  1  0
  3  4  1  0
  4  5  1  0
  5  6  2  0
  5  7  1  0
  7  8  1  0
  8  9  1  0
  9 10  2  0
  9 16  1  0
 10 11  1  0
 11 12  1  0
 12 13  1  0
 13 14  1  0
 14 15  1  0
 14 16  2  0
 17 18  1  0
 18 19  1  0
M  END
