
     RDKit          3D

 19 19  0  0  0  0  0  0  0  0999 V2000
    3.0290    0.2640   -2.2970 C   0  0  0  0  0  0  0  0  0  0  0  0
    3.0590   -0.3880   -0.9750 C   0  0  0  0  0  0  0  0  0  0  0  0
    4.1230   -1.1120   -0.6030 N   0  0  0  0  0  0  0  0  0  0  0  0
    4.1590   -1.7080    0.5930 C   0  0  0  0  0  0  0  0  0  0  0  0
    5.1650   -2.3860    0.9340 O   0  0  0  0  0  0  0  0  0  0  0  0
    3.1310   -1.5800    1.4180 N   0  0  0  0  0  0  0  0  0  0  0  0
    2.0240   -0.8440    1.0670 C   0  0  0  0  0  0  0  0  0  0  0  0
    1.1450   -0.8120    1.9300 O   0  0  0  0  0  0  0  0  0  0  0  0
    1.9360   -0.2150   -0.1440 C   0  0  0  0  0  0  0  0  0  0  0  0
    0.6110    0.7220   -0.7090 S   0  0  0  0  0  0  0  0  0  0  0  0
   -0.8140    1.0290    0.2360 C   0  0  2  0  0  0  0  0  0  0  0  0
   -0.5800    1.9040    1.4240 C   0  0  0  0  0  0  0  0  0  0  0  0
   -0.0520    3.2550    0.8990 C   0  0  0  0  0  0  0  0  0  0  0  0
   -1.0000    3.8840    0.0200 N   0  0  0  0  0  0  0  0  0  0  0  0
   -1.7650   -0.1210    0.4760 C   0  0  0  0  0  0  0  0  0  0  0  0
   -2.2980   -0.6670   -0.8410 C   0  0  0  0  0  0  0  0  0  0  0  0
   -3.2510   -1.8040   -0.6730 C   0  0  0  0  0  0  0  0  0  0  0  0
   -2.6470   -2.9940    0.0370 C   0  0  0  0  0  0  0  0  0  0  0  0
   -3.6450   -3.9890    0.1170 O   0  0  0  0  0  0  0  0  0  0  0  0
  1  2  1  0
  2  3  1  0
  2  9  2  0
  3  4  1  0
  4  5  2  0
  4  6  1  0
  6  7  1  0
  7  8  2  0
  7  9  1  0
  9 10  1  0
 10 11  1  0
 11 12  1  1
 11 15  1  0
 12 13  1  0
 13 14  1  0
 15 16  1  0
 16 17  1  0
 17 18  1  0
 18 19  1  0
M  CHG  1  14   1
M  END
