
     RDKit          3D

 19 19  0  0  0  0  0  0  0  0999 V2000
   -1.5030   -0.2830   -3.2710 C   0  0  0  0  0  0  0  0  0  0  0  0
   -2.2300   -0.5680   -1.9750 C   0  0  0  0  0  0  0  0  0  0  0  0
   -2.0060    0.6040   -1.0680 C   0  0  0  0  0  0  0  0  0  0  0  0
   -2.6690    0.4670    0.2620 C   0  0  0  0  0  0  0  0  0  0  0  0
   -1.9470    0.1870    1.3190 C   0  0  0  0  0  0  0  0  0  0  0  0
   -0.5470   -0.0570    1.5390 C   0  0  0  0  0  0  0  0  0  0  0  0
    0.4170   -0.1910    0.5460 N   0  0  0  0  0  0  0  0  0  0  0  0
    1.7940   -0.3640    1.0170 C   0  0  0  0  0  0  0  0  0  0  0  0
    2.0620   -0.3860    2.2350 O   0  0  0  0  0  0  0  0  0  0  0  0
    2.8440   -0.5080    0.0810 N   0  0  0  0  0  0  0  0  0  0  0  0
    4.2350   -0.6820    0.4860 C   0  0  2  0  0  0  0  0  0  0  0  0
    5.1280    0.3930   -0.0550 C   0  0  0  0  0  0  0  0  0  0  0  0
    4.7030   -2.0100   -0.0740 C   0  0  0  0  0  0  0  0  0  0  0  0
    4.5780   -1.9430   -1.4610 O   0  0  0  0  0  0  0  0  0  0  0  0
   -3.0410    0.1120    2.8410 S   0  0  0  0  0  0  0  0  0  0  0  0
   -4.1450    1.5140    2.5290 C   0  0  0  0  0  0  0  0  0  0  0  0
   -4.5060    2.1870    3.4260 O   0  0  0  0  0  0  0  0  0  0  0  0
   -4.5510    1.7660    1.1820 N   0  0  0  0  0  0  0  0  0  0  0  0
   -4.1650    0.6500    0.3350 C   0  0  0  0  0  0  0  0  0  0  0  0
  1  2  1  0
  2  3  1  0
  3  4  1  0
  4  5  2  0
  4 19  1  0
  5  6  1  0
  5 15  1  0
  6  7  1  0
  7  8  1  0
  8  9  2  0
  8 10  1  0
 10 11  1  0
 11 12  1  6
 11 13  1  0
 13 14  1  0
 15 16  1  0
 16 17  2  0
 16 18  1  0
 18 19  1  0
M  CHG  1  18   1
M  END
