
     RDKit          3D

 25 28  0  0  0  0  0  0  0  0999 V2000
   -4.7290    1.7740    1.8540 C   0  0  0  0  0  0  0  0  0  0  0  0
   -3.7390    0.8460    1.2220 C   0  0  0  0  0  0  0  0  0  0  0  0
   -2.4450    0.8260    1.6470 C   0  0  0  0  0  0  0  0  0  0  0  0
   -1.5610   -0.0250    1.0590 C   0  0  0  0  0  0  0  0  0  0  0  0
   -2.0000   -0.8620    0.0320 C   0  0  0  0  0  0  0  0  0  0  0  0
   -1.0630   -1.7700   -0.5770 N   0  0  0  0  0  0  0  0  0  0  0  0
    0.3270   -1.7590   -0.1580 C   0  0  0  0  0  0  0  0  0  0  0  0
    0.9410   -0.4920   -0.6220 C   0  0  0  0  0  0  0  0  0  0  0  0
    0.2810    0.4540   -1.3700 C   0  0  0  0  0  0  0  0  0  0  0  0
    0.9220    1.6190   -1.7940 C   0  0  0  0  0  0  0  0  0  0  0  0
    2.2350    1.8620   -1.4780 C   0  0  0  0  0  0  0  0  0  0  0  0
    2.8950    0.9310   -0.7390 C   0  0  0  0  0  0  0  0  0  0  0  0
    2.2820   -0.2280   -0.3100 C   0  0  0  0  0  0  0  0  0  0  0  0
    2.8250   -1.2790    0.4560 O   0  0  0  0  0  0  0  0  0  0  0  0
    4.2310   -1.4880    0.5850 C   0  0  0  0  0  0  0  0  0  0  0  0
    4.9000   -0.4200    1.3590 C   0  0  0  0  0  0  0  0  0  0  0  0
    4.6870    0.9730    0.9730 C   0  0  0  0  0  0  0  0  0  0  0  0
    4.3310    1.2700   -0.4360 C   0  0  1  0  0  0  0  0  0  0  0  0
    5.2190    0.7090   -1.4070 N   0  0  0  0  0  0  0  0  0  0  0  0
   -3.2940   -0.8590   -0.4110 C   0  0  0  0  0  0  0  0  0  0  0  0
   -3.8000   -1.6480   -1.4120 C   0  0  0  0  0  0  0  0  0  0  0  0
   -5.1300   -1.6030   -1.8220 C   0  0  0  0  0  0  0  0  0  0  0  0
   -5.9580   -0.7460   -1.2090 N   0  0  0  0  0  0  0  0  0  0  0  0
   -5.4950    0.0450   -0.2200 C   0  0  0  0  0  0  0  0  0  0  0  0
   -4.1890    0.0230    0.2060 C   0  0  0  0  0  0  0  0  0  0  0  0
  1  2  1  0
  2  3  2  0
  2 25  1  0
  3  4  1  0
  4  5  2  0
  5  6  1  0
  5 20  1  0
  6  7  1  0
  7  8  1  0
  8  9  2  0
  8 13  1  0
  9 10  1  0
 10 11  2  0
 11 12  1  0
 12 13  2  0
 12 18  1  0
 13 14  1  0
 14 15  1  0
 15 16  1  0
 16 17  1  0
 17 18  1  0
 18 19  1  6
 20 21  2  0
 20 25  1  0
 21 22  1  0
 22 23  2  0
 23 24  1  0
 24 25  2  0
M  CHG  1  23   1
M  END
