
     RDKit          3D

 25 28  0  0  0  0  0  0  0  0999 V2000
   -1.1560    0.9010   -2.8080 N   0  0  0  0  0  0  0  0  0  0  0  0
   -0.7800    0.1670   -1.6760 C   0  0  0  0  0  0  0  0  0  0  0  0
   -1.6640    0.0210   -0.6210 C   0  0  0  0  0  0  0  0  0  0  0  0
   -2.9800    0.6370   -0.6970 C   0  0  0  0  0  0  0  0  0  0  0  0
   -3.1600    1.9660   -0.4060 C   0  0  0  0  0  0  0  0  0  0  0  0
   -4.4050    2.5490   -0.4770 C   0  0  0  0  0  0  0  0  0  0  0  0
   -5.4990    1.7900   -0.8480 C   0  0  0  0  0  0  0  0  0  0  0  0
   -5.3200    0.4530   -1.1420 C   0  0  0  0  0  0  0  0  0  0  0  0
   -4.0660   -0.1150   -1.0650 C   0  0  0  0  0  0  0  0  0  0  0  0
   -1.3590   -0.6890    0.5240 C   0  0  0  0  0  0  0  0  0  0  0  0
   -2.2640   -0.8340    1.5600 C   0  0  0  0  0  0  0  0  0  0  0  0
   -1.9750   -1.5430    2.6790 C   0  0  0  0  0  0  0  0  0  0  0  0
   -0.7350   -2.1300    2.7670 C   0  0  0  0  0  0  0  0  0  0  0  0
    0.1730   -1.9900    1.7410 C   0  0  0  0  0  0  0  0  0  0  0  0
   -0.0890   -1.2770    0.5920 C   0  0  0  0  0  0  0  0  0  0  0  0
    0.7870   -1.1520   -0.4150 N   0  0  0  0  0  0  0  0  0  0  0  0
    2.1110   -1.7160   -0.3700 C   0  0  0  0  0  0  0  0  0  0  0  0
    3.1040   -0.7360    0.0720 C   0  0  0  0  0  0  0  0  0  0  0  0
    4.1240   -0.4220   -0.7420 C   0  0  0  0  0  0  0  0  0  0  0  0
    5.1840    0.5310   -0.4410 C   0  0  0  0  0  0  0  0  0  0  0  0
    5.1030    1.1570    0.8260 N   0  0  0  0  0  0  0  0  0  0  0  0
    4.0310    0.8170    1.6590 C   0  0  0  0  0  0  0  0  0  0  0  0
    3.0960   -0.0480    1.3450 C   0  0  0  0  0  0  0  0  0  0  0  0
    0.4440   -0.4370   -1.5370 C   0  0  0  0  0  0  0  0  0  0  0  0
    1.2600   -0.3150   -2.4850 O   0  0  0  0  0  0  0  0  0  0  0  0
  1  2  1  0
  2  3  2  0
  2 24  1  0
  3  4  1  0
  3 10  1  0
  4  5  2  0
  4  9  1  0
  5  6  1  0
  6  7  2  0
  7  8  1  0
  8  9  2  0
 10 11  2  0
 10 15  1  0
 11 12  1  0
 12 13  2  0
 13 14  1  0
 14 15  2  0
 15 16  1  0
 16 17  1  0
 16 24  1  0
 17 18  1  0
 18 19  2  0
 18 23  1  0
 19 20  1  0
 20 21  1  0
 21 22  1  0
 22 23  2  0
 24 25  2  0
M  CHG  1  21   1
M  END
