
     RDKit          3D

  9  9  0  0  0  0  0  0  0  0999 V2000
    2.6430    0.5780    0.3360 O   0  0  0  0  0  0  0  0  0  0  0  0
    1.8090   -0.3130   -0.2880 C   0  0  0  0  0  0  0  0  0  0  0  0
    0.3860   -0.2360    0.2100 C   0  0  2  0  0  0  0  0  0  0  0  0
   -0.4800   -1.2430   -0.5180 C   0  0  0  0  0  0  0  0  0  0  0  0
   -1.7360   -1.1940    0.0360 O   0  0  0  0  0  0  0  0  0  0  0  0
   -1.9680   -0.1210    0.8520 C   0  0  0  0  0  0  0  0  0  0  0  0
   -1.5290    1.0880    0.3980 O   0  0  0  0  0  0  0  0  0  0  0  0
   -0.2430    1.1090   -0.0860 C   0  0  2  0  0  0  0  0  0  0  0  0
   -0.3330    1.2400   -1.4850 O   0  0  0  0  0  0  0  0  0  0  0  0
  1  2  1  0
  3  2  1  6
  3  4  1  0
  3  8  1  0
  4  5  1  0
  5  6  1  0
  6  7  1  0
  7  8  1  0
  8  9  1  6
M  END
