
     RDKit          3D

 24 27  0  0  0  0  0  0  0  0999 V2000
   -6.6560    0.1200   -1.7030 N   0  0  0  0  0  0  0  0  0  0  0  0
   -5.4700    0.5980   -1.0800 C   0  0  0  0  0  0  0  0  0  0  0  0
   -4.7570    1.5930   -1.7260 C   0  0  0  0  0  0  0  0  0  0  0  0
   -3.5890    2.0850   -1.1450 C   0  0  0  0  0  0  0  0  0  0  0  0
   -3.1970    1.5470    0.0630 C   0  0  0  0  0  0  0  0  0  0  0  0
   -2.0480    2.0000    0.6800 O   0  0  0  0  0  0  0  0  0  0  0  0
   -0.8020    1.4570    0.4680 C   0  0  0  0  0  0  0  0  0  0  0  0
   -0.5790    0.4000   -0.3950 C   0  0  0  0  0  0  0  0  0  0  0  0
    0.6840   -0.1210   -0.5850 C   0  0  0  0  0  0  0  0  0  0  0  0
    1.7570    0.4180    0.0980 C   0  0  0  0  0  0  0  0  0  0  0  0
    3.1050   -0.1200   -0.0890 C   0  0  0  0  0  0  0  0  0  0  0  0
    3.4980   -1.4110   -0.3670 C   0  0  0  0  0  0  0  0  0  0  0  0
    4.8420   -1.4430   -0.4520 N   0  0  0  0  0  0  0  0  0  0  0  0
    5.3600   -0.2280   -0.2430 C   0  0  0  0  0  0  0  0  0  0  0  0
    6.7960    0.1500   -0.2520 C   0  0  1  0  0  0  0  0  0  0  0  0
    7.7210   -0.7850    0.5880 C   0  0  0  0  0  0  0  0  0  0  0  0
    7.7980   -0.7350   -0.8950 C   0  0  0  0  0  0  0  0  0  0  0  0
    4.2900    0.6100   -0.0150 C   0  0  0  0  0  0  0  0  0  0  0  0
    1.5330    1.4690    0.9550 C   0  0  0  0  0  0  0  0  0  0  0  0
    0.2780    1.9790    1.1370 C   0  0  0  0  0  0  0  0  0  0  0  0
   -3.9110    0.5570    0.7010 C   0  0  0  0  0  0  0  0  0  0  0  0
   -5.0610    0.0800    0.1180 C   0  0  0  0  0  0  0  0  0  0  0  0
   -5.8480   -0.9790    0.7750 C   0  0  0  0  0  0  0  0  0  0  0  0
   -5.2020   -1.3610    2.0400 N   0  0  0  0  0  0  0  0  0  0  0  0
  1  2  1  0
  2  3  2  0
  2 22  1  0
  3  4  1  0
  4  5  2  0
  5  6  1  0
  5 21  1  0
  6  7  1  0
  7  8  2  0
  7 20  1  0
  8  9  1  0
  9 10  2  0
 10 11  1  0
 10 19  1  0
 11 12  2  0
 11 18  1  0
 12 13  1  0
 13 14  1  0
 15 14  1  6
 14 18  2  0
 15 16  1  0
 15 17  1  0
 16 17  1  0
 19 20  2  0
 21 22  2  0
 22 23  1  0
 23 24  1  0
M  CHG  1  24   1
M  END
