
     RDKit          3D

 25 28  0  0  0  0  0  0  0  0999 V2000
   -5.0130    0.1110   -0.0260 C   0  0  0  0  0  0  0  0  0  0  0  0
   -3.5800   -0.0960   -0.1470 C   0  0  0  0  0  0  0  0  0  0  0  0
   -3.0750   -1.2470   -0.6650 C   0  0  0  0  0  0  0  0  0  0  0  0
   -3.8730   -2.2960   -1.1110 N   0  0  0  0  0  0  0  0  0  0  0  0
   -1.6890   -1.4290   -0.7790 C   0  0  0  0  0  0  0  0  0  0  0  0
   -1.1470   -2.6930   -1.3270 C   0  0  0  0  0  0  0  0  0  0  0  0
   -0.8220   -0.4480   -0.3700 C   0  0  0  0  0  0  0  0  0  0  0  0
    0.5940   -0.5270   -0.4750 N   0  0  0  0  0  0  0  0  0  0  0  0
    1.4230   -1.3090    0.3610 C   0  0  0  0  0  0  0  0  0  0  0  0
    0.7970   -2.0120    1.2330 O   0  0  0  0  0  0  0  0  0  0  0  0
    2.8780   -1.3740    0.3000 C   0  0  0  0  0  0  0  0  0  0  0  0
    3.6650   -2.4990    0.5130 C   0  0  0  0  0  0  0  0  0  0  0  0
    4.9640   -2.2100    0.3220 N   0  0  0  0  0  0  0  0  0  0  0  0
    5.0510   -0.9010   -0.0150 C   0  0  0  0  0  0  0  0  0  0  0  0
    6.1730   -0.1460   -0.2850 C   0  0  0  0  0  0  0  0  0  0  0  0
    5.9570    1.1970   -0.5820 C   0  0  0  0  0  0  0  0  0  0  0  0
    4.7170    1.7460   -0.6070 C   0  0  0  0  0  0  0  0  0  0  0  0
    3.5850    0.9550   -0.3270 C   0  0  0  0  0  0  0  0  0  0  0  0
    3.7660   -0.3740   -0.0330 C   0  0  0  0  0  0  0  0  0  0  0  0
   -1.3610    0.7340    0.1610 C   0  0  0  0  0  0  0  0  0  0  0  0
   -2.7190    0.9140    0.2740 C   0  0  0  0  0  0  0  0  0  0  0  0
   -3.2540    2.1860    0.8320 C   0  0  0  0  0  0  0  0  0  0  0  0
   -2.2910    2.7290    1.8480 C   0  0  0  0  0  0  0  0  0  0  0  0
   -0.9610    2.9730    1.2080 C   0  0  0  0  0  0  0  0  0  0  0  0
   -0.3680    1.7670    0.5610 C   0  0  0  0  0  0  0  0  0  0  0  0
  1  2  1  0
  2  3  2  0
  2 21  1  0
  3  4  1  0
  3  5  1  0
  5  6  1  0
  5  7  2  0
  7  8  1  0
  7 20  1  0
  8  9  1  0
  9 10  2  0
  9 11  1  0
 11 12  2  0
 11 19  1  0
 12 13  1  0
 13 14  1  0
 14 15  2  0
 14 19  1  0
 15 16  1  0
 16 17  2  0
 17 18  1  0
 18 19  2  0
 20 21  2  0
 20 25  1  0
 21 22  1  0
 22 23  1  0
 23 24  1  0
 24 25  1  0
M  CHG  1   4   1
M  END
