
     RDKit          3D

 25 28  0  0  0  0  0  0  0  0999 V2000
   -5.6820    1.1860   -0.6110 N   0  0  0  0  0  0  0  0  0  0  0  0
   -4.2590    1.0120   -0.7500 C   0  0  0  0  0  0  0  0  0  0  0  0
   -3.6560    1.8770   -1.4090 O   0  0  0  0  0  0  0  0  0  0  0  0
   -3.6040   -0.1160   -0.1440 C   0  0  0  0  0  0  0  0  0  0  0  0
   -4.4430   -1.0800    0.4570 C   0  0  0  0  0  0  0  0  0  0  0  0
   -3.9400   -2.1930    1.0690 C   0  0  0  0  0  0  0  0  0  0  0  0
   -2.5760   -2.3810    1.1000 C   0  0  0  0  0  0  0  0  0  0  0  0
   -1.7680   -1.4410    0.5150 C   0  0  0  0  0  0  0  0  0  0  0  0
   -2.2590   -0.2910   -0.1190 C   0  0  0  0  0  0  0  0  0  0  0  0
   -1.2730    0.6610   -0.6990 C   0  0  2  0  0  0  0  0  0  0  0  0
   -0.2990   -0.1280   -1.4680 N   0  0  0  0  0  0  0  0  0  0  0  0
    1.0340   -0.3360   -1.1030 C   0  0  0  0  0  0  0  0  0  0  0  0
    1.8710   -1.2020   -1.8050 C   0  0  0  0  0  0  0  0  0  0  0  0
    3.1820   -1.4090   -1.4440 C   0  0  0  0  0  0  0  0  0  0  0  0
    3.7020   -0.7560   -0.3690 C   0  0  0  0  0  0  0  0  0  0  0  0
    5.0910   -0.8870    0.1300 C   0  0  0  0  0  0  0  0  0  0  0  0
    5.8690   -1.8080   -0.6580 N   0  0  0  0  0  0  0  0  0  0  0  0
    2.8630    0.1190    0.3430 C   0  0  0  0  0  0  0  0  0  0  0  0
    1.5450    0.3380   -0.0050 C   0  0  0  0  0  0  0  0  0  0  0  0
    0.6980    1.2570    0.7700 C   0  0  0  0  0  0  0  0  0  0  0  0
    1.2470    1.9510    1.8140 C   0  0  0  0  0  0  0  0  0  0  0  0
    0.4490    2.8660    2.5190 C   0  0  0  0  0  0  0  0  0  0  0  0
   -0.8650    3.0720    2.1770 C   0  0  0  0  0  0  0  0  0  0  0  0
   -1.3800    2.3490    1.1150 C   0  0  0  0  0  0  0  0  0  0  0  0
   -0.6100    1.4330    0.3990 C   0  0  0  0  0  0  0  0  0  0  0  0
  1  2  1  0
  2  3  2  0
  2  4  1  0
  4  5  2  0
  4  9  1  0
  5  6  1  0
  6  7  2  0
  7  8  1  0
  8  9  2  0
 10  9  1  1
 10 11  1  0
 10 25  1  0
 11 12  1  0
 12 13  2  0
 12 19  1  0
 13 14  1  0
 14 15  2  0
 15 16  1  0
 15 18  1  0
 16 17  1  0
 18 19  2  0
 19 20  1  0
 20 21  2  0
 20 25  1  0
 21 22  1  0
 22 23  2  0
 23 24  1  0
 24 25  2  0
M  CHG  1  17   1
M  END
