
     RDKit          3D

 10 10  0  0  0  0  0  0  0  0999 V2000
   -2.4840   -1.0230   -0.4290 O   0  0  0  0  0  0  0  0  0  0  0  0
   -1.8430   -0.0070    0.2360 C   0  0  2  0  0  0  0  0  0  0  0  0
   -2.1850    1.2310   -0.2520 O   0  0  0  0  0  0  0  0  0  0  0  0
   -0.3430   -0.1920    0.2390 C   0  0  1  0  0  0  0  0  0  0  0  0
   -0.0780   -1.4050    0.8760 O   0  0  0  0  0  0  0  0  0  0  0  0
    0.2010   -0.3210   -1.1750 C   0  0  0  0  0  0  0  0  0  0  0  0
    1.5420   -0.7060   -1.0400 O   0  0  0  0  0  0  0  0  0  0  0  0
    2.2140    0.2630   -0.3320 C   0  0  0  0  0  0  0  0  0  0  0  0
    1.6220    0.5560    1.0150 C   0  0  0  0  0  0  0  0  0  0  0  0
    0.2760    0.8800    0.8530 O   0  0  0  0  0  0  0  0  0  0  0  0
  2  1  1  6
  2  3  1  0
  2  4  1  0
  4  5  1  1
  4  6  1  0
  4 10  1  0
  6  7  1  0
  7  8  1  0
  8  9  1  0
  9 10  1  0
M  END
