
     RDKit          3D

 28 31  0  0  0  0  0  0  0  0999 V2000
    7.9610    1.8410    1.6860 C   0  0  0  0  0  0  0  0  0  0  0  0
    6.8370    0.9060    1.3170 C   0  0  0  0  0  0  0  0  0  0  0  0
    6.0900    0.9140    0.1590 C   0  0  0  0  0  0  0  0  0  0  0  0
    5.1760   -0.0720    0.1870 N   0  0  0  0  0  0  0  0  0  0  0  0
    4.2090   -0.4170   -0.7950 C   0  0  0  0  0  0  0  0  0  0  0  0
    4.5760   -0.8250   -2.0570 C   0  0  0  0  0  0  0  0  0  0  0  0
    3.6650   -1.1670   -3.0320 C   0  0  0  0  0  0  0  0  0  0  0  0
    2.3130   -1.0950   -2.7190 C   0  0  0  0  0  0  0  0  0  0  0  0
    1.8910   -0.6920   -1.4680 C   0  0  0  0  0  0  0  0  0  0  0  0
    0.4460   -0.6200   -1.1510 C   0  0  0  0  0  0  0  0  0  0  0  0
   -0.3870   -0.9430   -2.0570 O   0  0  0  0  0  0  0  0  0  0  0  0
   -0.0530   -0.2140    0.0970 N   0  0  0  0  0  0  0  0  0  0  0  0
   -1.4270   -0.1290    0.4240 C   0  0  0  0  0  0  0  0  0  0  0  0
   -2.4510   -0.0460   -0.4830 C   0  0  0  0  0  0  0  0  0  0  0  0
   -3.7660    0.0030   -0.0030 C   0  0  0  0  0  0  0  0  0  0  0  0
   -4.0240   -0.0300    1.3510 C   0  0  0  0  0  0  0  0  0  0  0  0
   -5.3320    0.0190    1.8300 O   0  0  0  0  0  0  0  0  0  0  0  0
   -6.3960    0.1020    0.9640 C   0  0  0  0  0  0  0  0  0  0  0  0
   -6.9910   -1.0330    0.4880 C   0  0  0  0  0  0  0  0  0  0  0  0
   -8.0650   -0.9800   -0.3860 C   0  0  0  0  0  0  0  0  0  0  0  0
   -8.5210    0.2260   -0.7650 N   0  0  0  0  0  0  0  0  0  0  0  0
   -7.9650    1.3580   -0.3200 C   0  0  0  0  0  0  0  0  0  0  0  0
   -6.8770    1.3250    0.5650 C   0  0  0  0  0  0  0  0  0  0  0  0
   -2.9890   -0.1130    2.2540 C   0  0  0  0  0  0  0  0  0  0  0  0
   -1.7100   -0.1620    1.7970 C   0  0  0  0  0  0  0  0  0  0  0  0
    2.8320   -0.3630   -0.5370 C   0  0  0  0  0  0  0  0  0  0  0  0
    5.3540   -0.6920    1.3600 C   0  0  0  0  0  0  0  0  0  0  0  0
    6.3560   -0.1100    2.0520 N   0  0  0  0  0  0  0  0  0  0  0  0
  1  2  1  0
  2  3  2  0
  2 28  1  0
  3  4  1  0
  4  5  1  0
  4 27  1  0
  5  6  2  0
  5 26  1  0
  6  7  1  0
  7  8  2  0
  8  9  1  0
  9 10  1  0
  9 26  2  0
 10 11  2  0
 10 12  1  0
 12 13  1  0
 13 14  2  0
 13 25  1  0
 14 15  1  0
 15 16  2  0
 16 17  1  0
 16 24  1  0
 17 18  1  0
 18 19  2  0
 18 23  1  0
 19 20  1  0
 20 21  2  0
 21 22  1  0
 22 23  2  0
 24 25  2  0
 27 28  2  0
M  END
