
     RDKit          3D

 21 21  0  0  0  0  0  0  0  0999 V2000
   -1.4750    1.5270   -1.8460 O   0  0  0  0  0  0  0  0  0  0  0  0
   -1.2530    1.1280   -0.6860 C   0  0  0  0  0  0  0  0  0  0  0  0
   -2.3500    0.7020    0.1070 N   0  0  0  0  0  0  0  0  0  0  0  0
   -3.6780    0.7370   -0.4350 C   0  0  0  0  0  0  0  0  0  0  0  0
   -4.6420    0.2350    0.6080 C   0  0  1  0  0  0  0  0  0  0  0  0
   -6.3590    0.2820   -0.0960 P   0  0  0  0  0  0  0  0  0  0  0  0
   -6.9910    1.8750   -0.1570 O   0  0  0  0  0  0  0  0  0  0  0  0
   -6.4890   -0.5720   -1.5770 O   0  0  0  0  0  0  0  0  0  0  0  0
   -4.1530   -1.4590    1.1280 P   0  0  0  0  0  0  0  0  0  0  0  0
   -5.0750   -2.6850    0.3210 O   0  0  0  0  0  0  0  0  0  0  0  0
   -4.2260   -1.6510    2.8530 O   0  0  0  0  0  0  0  0  0  0  0  0
    0.0280    1.0950   -0.1650 O   0  0  0  0  0  0  0  0  0  0  0  0
    1.0780    1.5340   -1.0060 C   0  0  0  0  0  0  0  0  0  0  0  0
    2.2630    1.4240   -0.3100 O   0  0  0  0  0  0  0  0  0  0  0  0
    2.5330    0.1360    0.0860 C   0  0  0  0  0  0  0  0  0  0  0  0
    3.8690    0.1690    0.8410 C   0  0  1  0  0  0  0  0  0  0  0  0
    4.1050   -1.2000    1.3750 C   0  0  0  0  0  0  0  0  0  0  0  0
    5.4330   -1.4990    1.6220 O   0  0  0  0  0  0  0  0  0  0  0  0
    6.0980   -1.4080    0.3820 C   0  0  0  0  0  0  0  0  0  0  0  0
    6.1410    0.0670    0.0430 C   0  0  0  0  0  0  0  0  0  0  0  0
    4.8520    0.6570   -0.0580 N   0  0  0  0  0  0  0  0  0  0  0  0
  1  2  2  0
  2  3  1  0
  2 12  1  0
  3  4  1  0
  5  4  1  6
  5  6  1  0
  5  9  1  0
  6  7  1  0
  6  8  1  0
  9 10  1  0
  9 11  1  0
 12 13  1  0
 13 14  1  0
 14 15  1  0
 16 15  1  6
 16 17  1  0
 16 21  1  0
 17 18  1  0
 18 19  1  0
 19 20  1  0
 20 21  1  0
M  END
