
     RDKit          3D

 13 13  0  0  0  0  0  0  0  0999 V2000
   -0.0070   -0.4960    1.3110 O   0  0  0  0  0  0  0  0  0  0  0  0
    0.0560    0.0520    0.0300 C   0  0  1  0  0  0  0  0  0  0  0  0
    1.2220   -0.5710   -0.7020 C   0  0  0  0  0  0  0  0  0  0  0  0
    2.4720   -0.3280   -0.0370 N   0  0  0  0  0  0  0  0  0  0  0  0
    3.2560    0.7370   -0.2790 C   0  0  0  0  0  0  0  0  0  0  0  0
    4.3420    0.6530    0.5120 N   0  0  0  0  0  0  0  0  0  0  0  0
    4.2460   -0.4660    1.2550 C   0  0  0  0  0  0  0  0  0  0  0  0
    3.0920   -1.0370    0.8910 N   0  0  0  0  0  0  0  0  0  0  0  0
   -1.2560   -0.2240   -0.7090 C   0  0  0  0  0  0  0  0  0  0  0  0
   -2.7070    0.4050   -0.0090 P   0  0  0  0  0  0  0  0  0  0  0  0
   -3.8600   -0.6570    0.6330 O   0  0  0  0  0  0  0  0  0  0  0  0
   -2.9130    2.0180    0.2300 O   0  0  0  0  0  0  0  0  0  0  0  0
   -3.5840    0.4110   -1.2720 O   0  0  0  0  0  0  0  0  0  0  0  0
  2  1  1  1
  2  3  1  0
  2  9  1  0
  3  4  1  0
  4  5  1  0
  4  8  1  0
  5  6  2  0
  6  7  1  0
  7  8  2  0
  9 10  1  0
 10 11  1  0
 10 12  1  0
 10 13  1  0
M  END
