
     RDKit          3D

 22 22  0  0  0  0  0  0  0  0999 V2000
    2.4690   -3.5080   -3.0620 O   0  0  0  0  0  0  0  0  0  0  0  0
    2.3070   -3.6500   -1.8300 C   0  0  0  0  0  0  0  0  0  0  0  0
    2.9540   -4.6450   -1.0990 O   0  0  0  0  0  0  0  0  0  0  0  0
    1.4480   -2.7790   -1.1710 O   0  0  0  0  0  0  0  0  0  0  0  0
    0.7640   -1.7500   -1.8570 C   0  0  0  0  0  0  0  0  0  0  0  0
   -0.0720   -1.0100   -0.8330 C   0  0  2  0  0  0  0  0  0  0  0  0
   -0.9440   -0.0060   -1.5240 C   0  0  0  0  0  0  0  0  0  0  0  0
   -1.8230    0.7220   -0.5330 C   0  0  1  0  0  0  0  0  0  0  0  0
   -2.8330    1.9330   -1.5060 P   0  0  0  0  0  0  0  0  0  0  0  0
   -3.0710    3.4170   -0.6860 O   0  0  0  0  0  0  0  0  0  0  0  0
   -4.3030    1.2300   -2.0810 O   0  0  0  0  0  0  0  0  0  0  0  0
   -2.7460   -0.3150    0.1400 C   0  0  0  0  0  0  0  0  0  0  0  0
   -3.6160    0.4380    0.9240 O   0  0  0  0  0  0  0  0  0  0  0  0
   -2.9800    1.0210    2.0060 C   0  0  0  0  0  0  0  0  0  0  0  0
   -1.5090    1.2030    1.8290 C   0  0  0  0  0  0  0  0  0  0  0  0
   -1.0440    1.2860    0.4970 N   0  0  0  0  0  0  0  0  0  0  0  0
    0.7590   -0.4420    0.2030 N   0  0  0  0  0  0  0  0  0  0  0  0
    1.7380    0.4890   -0.2760 C   0  0  0  0  0  0  0  0  0  0  0  0
    2.4740    1.0310    0.9300 C   0  0  0  0  0  0  0  0  0  0  0  0
    3.3320   -0.2620    1.9140 P   0  0  0  0  0  0  0  0  0  0  0  0
    3.2570    0.1050    3.6300 O   0  0  0  0  0  0  0  0  0  0  0  0
    5.0420   -0.2520    1.5150 O   0  0  0  0  0  0  0  0  0  0  0  0
  1  2  2  0
  2  3  1  0
  2  4  1  0
  4  5  1  0
  6  5  1  6
  6  7  1  0
  6 17  1  0
  8  7  1  6
  8  9  1  0
  8 12  1  0
  8 16  1  0
  9 10  1  0
  9 11  1  0
 12 13  1  0
 13 14  1  0
 14 15  1  0
 15 16  1  0
 17 18  1  0
 18 19  1  0
 19 20  1  0
 20 21  1  0
 20 22  1  0
M  END
