
     RDKit          3D

 22 22  0  0  0  0  0  0  0  0999 V2000
   -3.5100    0.9100   -2.9290 O   0  0  0  0  0  0  0  0  0  0  0  0
   -3.0320    1.3770   -1.6780 C   0  0  0  0  0  0  0  0  0  0  0  0
   -3.9330    0.9810   -0.6220 C   0  0  0  0  0  0  0  0  0  0  0  0
   -3.8810    0.2630    0.4530 C   0  0  0  0  0  0  0  0  0  0  0  0
   -5.1100    0.1340    1.2890 C   0  0  0  0  0  0  0  0  0  0  0  0
   -5.1010   -0.5510    2.3680 N   0  0  0  0  0  0  0  0  0  0  0  0
   -3.9790   -1.2350    2.8740 C   0  0  0  0  0  0  0  0  0  0  0  0
   -4.0320   -1.9720    4.0720 O   0  0  0  0  0  0  0  0  0  0  0  0
   -2.8580   -1.1740    2.1970 C   0  0  0  0  0  0  0  0  0  0  0  0
   -2.7670   -0.4220    0.9550 N   0  0  0  0  0  0  0  0  0  0  0  0
   -1.4840   -0.4760    0.2930 C   0  0  0  0  0  0  0  0  0  0  0  0
   -0.4070    0.3070    0.9510 C   0  0  0  0  0  0  0  0  0  0  0  0
    0.7630    0.2130    0.2360 O   0  0  0  0  0  0  0  0  0  0  0  0
    1.1900   -1.0950    0.1500 C   0  0  0  0  0  0  0  0  0  0  0  0
    2.5120   -1.0510   -0.6110 C   0  0  0  0  0  0  0  0  0  0  0  0
    3.4670   -0.2780    0.0450 O   0  0  0  0  0  0  0  0  0  0  0  0
    4.9000   -0.3270   -0.9350 P   0  0  0  0  0  0  0  0  0  0  0  0
    4.9060   -1.8220   -1.8160 O   0  0  0  0  0  0  0  0  0  0  0  0
    4.7870    0.9780   -2.0730 O   0  0  0  0  0  0  0  0  0  0  0  0
    6.2890    1.8650   -1.9770 P   0  0  0  0  0  0  0  0  0  0  0  0
    6.1590    2.8880   -0.5660 O   0  0  0  0  0  0  0  0  0  0  0  0
    7.5330    0.6850   -1.6050 O   0  0  0  0  0  0  0  0  0  0  0  0
  1  2  1  0
  2  3  1  0
  3  4  2  3
  4  5  1  0
  4 10  1  0
  5  6  2  0
  6  7  1  0
  7  8  1  0
  7  9  2  0
  9 10  1  0
 10 11  1  0
 11 12  1  0
 12 13  1  0
 13 14  1  0
 14 15  1  0
 15 16  1  0
 16 17  1  0
 17 18  1  0
 17 19  1  0
 19 20  1  0
 20 21  1  0
 20 22  1  0
M  END
