
     RDKit          3D

 21 21  0  0  0  0  0  0  0  0999 V2000
   -3.9490   -1.9600    0.7310 C   0  0  0  0  0  0  0  0  0  0  0  0
   -2.7840   -1.1350    0.5740 O   0  0  0  0  0  0  0  0  0  0  0  0
   -2.6220   -0.3950   -0.5650 C   0  0  0  0  0  0  0  0  0  0  0  0
   -3.5180   -0.4660   -1.4480 O   0  0  0  0  0  0  0  0  0  0  0  0
   -1.4830    0.4950   -0.8680 C   0  0  2  0  0  0  0  0  0  0  0  0
   -0.9620    0.0780   -2.2370 C   0  0  0  0  0  0  0  0  0  0  0  0
   -0.1410   -1.5730   -2.0150 P   0  0  0  0  0  0  0  0  0  0  0  0
   -1.2990   -2.8180   -1.6800 O   0  0  0  0  0  0  0  0  0  0  0  0
    0.8460   -1.3860   -0.5740 O   0  0  0  0  0  0  0  0  0  0  0  0
    0.5100   -0.4470    0.3630 C   0  0  0  0  0  0  0  0  0  0  0  0
    1.1190   -0.4810    1.4880 N   0  0  0  0  0  0  0  0  0  0  0  0
    2.1010   -1.4660    1.7300 C   0  0  0  0  0  0  0  0  0  0  0  0
    3.3680   -1.1440    1.5560 C   0  0  0  0  0  0  0  0  0  0  0  0
    3.7510    0.2260    1.1150 C   0  0  0  0  0  0  0  0  0  0  0  0
    4.5080    0.1910   -0.2060 C   0  0  0  0  0  0  0  0  0  0  0  0
    3.7130   -0.3780   -1.1870 O   0  0  0  0  0  0  0  0  0  0  0  0
   -0.4900    0.5640    0.1310 N   0  0  0  0  0  0  0  0  0  0  0  0
   -0.4240    1.7120    1.0170 C   0  0  0  0  0  0  0  0  0  0  0  0
   -1.7330    2.9510    0.6550 P   0  0  0  0  0  0  0  0  0  0  0  0
   -3.3130    2.2810    0.6750 O   0  0  0  0  0  0  0  0  0  0  0  0
   -1.4050    3.8900   -0.7530 O   0  0  0  0  0  0  0  0  0  0  0  0
  1  2  1  0
  2  3  1  0
  3  4  2  0
  5  3  1  1
  5  6  1  0
  5 17  1  0
  6  7  1  0
  7  8  1  0
  7  9  1  0
  9 10  1  0
 10 11  2  3
 10 17  1  0
 11 12  1  0
 12 13  2  3
 13 14  1  0
 14 15  1  0
 15 16  1  0
 17 18  1  0
 18 19  1  0
 19 20  1  0
 19 21  1  0
M  END
