
     RDKit          3D

 22 22  0  0  0  0  0  0  0  0999 V2000
    6.0420    0.5180   -0.5570 C   0  0  0  0  0  0  0  0  0  0  0  0
    4.7120    0.3750    0.1450 C   0  0  0  0  0  0  0  0  0  0  0  0
    3.6960   -0.0150   -0.8640 C   0  0  0  0  0  0  0  0  0  0  0  0
    4.0040   -0.1710   -2.0690 O   0  0  0  0  0  0  0  0  0  0  0  0
    2.3220   -0.2100   -0.4000 C   0  0  0  0  0  0  0  0  0  0  0  0
    1.3740   -0.5740   -1.3430 O   0  0  0  0  0  0  0  0  0  0  0  0
    2.0030   -0.0440    0.8680 C   0  0  0  0  0  0  0  0  0  0  0  0
    0.6580   -0.2200    1.4000 C   0  0  0  0  0  0  0  0  0  0  0  0
   -0.3460   -0.5930    0.4260 N   0  0  0  0  0  0  0  0  0  0  0  0
   -1.0100    0.5510   -0.1660 C   0  0  0  0  0  0  0  0  0  0  0  0
   -2.4070    0.5530    0.4410 C   0  0  1  0  0  0  0  0  0  0  0  0
   -2.3830    0.2120    1.7710 O   0  0  0  0  0  0  0  0  0  0  0  0
   -3.0820    2.2920    0.2740 P   0  0  0  0  0  0  0  0  0  0  0  0
   -1.7600    3.3950    0.5300 O   0  0  0  0  0  0  0  0  0  0  0  0
   -3.7210    2.5610   -1.3110 O   0  0  0  0  0  0  0  0  0  0  0  0
   -4.8650    1.9640   -1.4640 O   0  0  0  0  0  0  0  0  0  0  0  0
   -3.4520   -0.5650   -0.5490 P   0  0  0  0  0  0  0  0  0  0  0  0
   -5.1370   -0.3920   -0.2120 O   0  0  0  0  0  0  0  0  0  0  0  0
   -2.9500   -2.2860   -0.6520 C   0  0  0  0  0  0  0  0  0  0  0  0
   -1.6000   -2.6170   -0.3850 N   0  0  0  0  0  0  0  0  0  0  0  0
   -0.5050   -1.9680    0.2360 C   0  0  0  0  0  0  0  0  0  0  0  0
    0.4010   -2.7320    0.6480 O   0  0  0  0  0  0  0  0  0  0  0  0
  1  2  1  0
  2  3  1  0
  3  4  2  0
  3  5  1  0
  5  6  1  0
  5  7  2  3
  7  8  1  0
  8  9  1  0
  9 10  1  0
  9 21  1  0
 10 11  1  0
 11 12  1  1
 11 13  1  0
 11 17  1  0
 13 14  1  0
 13 15  1  0
 15 16  1  0
 17 18  1  0
 17 19  1  0
 19 20  1  0
 20 21  1  0
 21 22  2  0
M  END
