
     RDKit          3D

 22 22  0  0  0  0  0  0  0  0999 V2000
   -2.4320   -2.8740    0.5480 C   0  0  0  0  0  0  0  0  0  0  0  0
   -2.5100   -2.3620   -0.8240 N   0  0  0  0  0  0  0  0  0  0  0  0
   -3.1040   -1.0930   -0.9010 C   0  0  0  0  0  0  0  0  0  0  0  0
   -2.3740    0.0920   -0.4390 C   0  0  0  0  0  0  0  0  0  0  0  0
   -3.1880    1.3390   -0.5010 C   0  0  0  0  0  0  0  0  0  0  0  0
   -4.3950    1.2030   -0.8510 O   0  0  0  0  0  0  0  0  0  0  0  0
   -2.7380    2.5870   -0.2200 O   0  0  0  0  0  0  0  0  0  0  0  0
   -3.5520    3.7370   -0.3010 C   0  0  0  0  0  0  0  0  0  0  0  0
   -1.1210    0.1870   -0.0570 C   0  0  0  0  0  0  0  0  0  0  0  0
   -0.4850    1.4720    0.4240 C   0  0  0  0  0  0  0  0  0  0  0  0
    0.5500    0.8920    1.3740 C   0  0  0  0  0  0  0  0  0  0  0  0
    0.9390    1.3800    2.4730 O   0  0  0  0  0  0  0  0  0  0  0  0
    1.0100   -0.3130    0.8000 N   0  0  0  0  0  0  0  0  0  0  0  0
    2.2630   -1.0070    1.0350 C   0  0  0  0  0  0  0  0  0  0  0  0
    3.6030   -0.4520   -0.1270 P   0  0  0  0  0  0  0  0  0  0  0  0
    3.4780   -1.4290   -1.5560 O   0  0  0  0  0  0  0  0  0  0  0  0
    5.1120   -0.8220    0.6300 O   0  0  0  0  0  0  0  0  0  0  0  0
    6.3910    0.2010    0.0930 P   0  0  0  0  0  0  0  0  0  0  0  0
    7.1450   -0.3770   -1.3490 O   0  0  0  0  0  0  0  0  0  0  0  0
    5.9270    1.8560    0.0100 O   0  0  0  0  0  0  0  0  0  0  0  0
   -0.0110   -0.7800   -0.1050 C   0  0  0  0  0  0  0  0  0  0  0  0
    0.0400   -1.8170   -0.8080 O   0  0  0  0  0  0  0  0  0  0  0  0
  1  2  1  0
  2  3  1  0
  3  4  1  0
  4  5  1  0
  4  9  2  3
  5  6  2  0
  5  7  1  0
  7  8  1  0
  9 10  1  0
  9 21  1  0
 10 11  1  0
 11 12  2  0
 11 13  1  0
 13 14  1  0
 13 21  1  0
 14 15  1  0
 15 16  1  0
 15 17  1  0
 17 18  1  0
 18 19  1  0
 18 20  1  0
 21 22  2  0
M  END
