
     RDKit          3D

 22 22  0  0  0  0  0  0  0  0999 V2000
   -1.1180   -1.4640    1.0450 O   0  0  0  0  0  0  0  0  0  0  0  0
   -1.8170   -0.7650    0.2660 C   0  0  0  0  0  0  0  0  0  0  0  0
   -1.1600    0.1780   -0.5490 N   0  0  0  0  0  0  0  0  0  0  0  0
    0.2560    0.3720   -0.5250 C   0  0  0  0  0  0  0  0  0  0  0  0
    1.0240   -0.3610    0.3050 N   0  0  0  0  0  0  0  0  0  0  0  0
    2.3600   -0.2170    0.3700 C   0  0  0  0  0  0  0  0  0  0  0  0
    3.1330   -1.0490    1.2960 C   0  0  1  0  0  0  0  0  0  0  0  0
    2.6970   -2.3810    1.2090 O   0  0  0  0  0  0  0  0  0  0  0  0
    4.6110   -1.0030    1.0920 C   0  0  0  0  0  0  0  0  0  0  0  0
    5.1840   -1.7940    2.1160 O   0  0  0  0  0  0  0  0  0  0  0  0
    2.9900    0.7050   -0.4320 C   0  0  0  0  0  0  0  0  0  0  0  0
    2.2510    1.4810   -1.2990 C   0  0  0  0  0  0  0  0  0  0  0  0
    0.8800    1.3000   -1.3320 C   0  0  0  0  0  0  0  0  0  0  0  0
    0.0600    2.1020   -2.2410 C   0  0  0  0  0  0  0  0  0  0  0  0
   -0.8740    3.4500   -1.3930 P   0  0  0  0  0  0  0  0  0  0  0  0
    0.0200    4.2500   -0.1800 O   0  0  0  0  0  0  0  0  0  0  0  0
   -1.4040    4.5890   -2.5790 O   0  0  0  0  0  0  0  0  0  0  0  0
   -3.1920   -0.9440    0.2370 O   0  0  0  0  0  0  0  0  0  0  0  0
   -3.8530   -1.9010    1.0640 C   0  0  0  0  0  0  0  0  0  0  0  0
   -5.6810   -1.8610    0.7570 P   0  0  0  0  0  0  0  0  0  0  0  0
   -6.0510   -1.0240   -0.7210 O   0  0  0  0  0  0  0  0  0  0  0  0
   -6.2530   -3.4960    0.6850 O   0  0  0  0  0  0  0  0  0  0  0  0
  1  2  2  0
  2  3  1  0
  2 18  1  0
  3  4  1  0
  4  5  2  0
  4 13  1  0
  5  6  1  0
  6  7  1  0
  6 11  2  0
  7  8  1  6
  7  9  1  0
  9 10  1  0
 11 12  1  0
 12 13  2  0
 13 14  1  0
 14 15  1  0
 15 16  1  0
 15 17  1  0
 18 19  1  0
 19 20  1  0
 20 21  1  0
 20 22  1  0
M  END
