
     RDKit          3D

 13 12  0  0  0  0  0  0  0  0999 V2000
    1.4480   -2.8740   -0.6950 O   0  0  0  0  0  0  0  0  0  0  0  0
    1.2850   -1.6800   -0.6370 C   0  0  0  0  0  0  0  0  0  0  0  0
   -0.0970   -1.1410   -0.7250 C   0  0  0  0  0  0  0  0  0  0  0  0
   -0.0720    0.2640   -0.6370 O   0  0  0  0  0  0  0  0  0  0  0  0
   -1.3010    0.7120   -0.7170 O   0  0  0  0  0  0  0  0  0  0  0  0
   -1.8570    0.8100    0.5790 C   0  0  0  0  0  0  0  0  0  0  0  0
   -3.2680    1.3220    0.5170 C   0  0  0  0  0  0  0  0  0  0  0  0
   -4.0800    0.4670   -0.2380 O   0  0  0  0  0  0  0  0  0  0  0  0
    2.4450   -0.7850   -0.4820 C   0  0  2  0  0  0  0  0  0  0  0  0
    3.6100   -1.5340   -0.4270 O   0  0  0  0  0  0  0  0  0  0  0  0
    2.2910   -0.0910    0.7140 O   0  0  0  0  0  0  0  0  0  0  0  0
    2.2810    1.2080    0.5260 O   0  0  0  0  0  0  0  0  0  0  0  0
    3.5020    1.5560    0.1540 O   0  0  0  0  0  0  0  0  0  0  0  0
  1  2  2  0
  2  3  1  0
  2  9  1  0
  3  4  1  0
  4  5  1  0
  5  6  1  0
  6  7  1  0
  7  8  1  0
  9 10  1  1
  9 11  1  0
 11 12  1  0
 12 13  1  0
M  END
