
     RDKit          3D

 11 11  0  0  0  0  0  0  0  0999 V2000
    3.8410   -0.0220   -0.7270 C   0  0  0  0  0  0  0  0  0  0  0  0
    2.7690    0.2080    0.2900 C   0  0  0  0  0  0  0  0  0  0  0  0
    1.8490   -0.8340    0.2570 O   0  0  0  0  0  0  0  0  0  0  0  0
    0.8720   -0.6870    1.1390 O   0  0  0  0  0  0  0  0  0  0  0  0
   -0.4570   -0.5080    0.6440 C   0  0  0  0  0  0  0  0  0  0  0  0
   -1.5140   -0.3480    1.5950 C   0  0  0  0  0  0  0  0  0  0  0  0
   -3.0070   -0.1540    0.6370 P   0  0  0  0  0  0  0  0  0  0  0  0
   -4.8870    0.7110    1.0730 P   0  0  0  0  0  0  0  0  0  0  0  0
   -2.1230   -0.2990   -1.0060 C   0  0  0  0  0  0  0  0  0  0  0  0
   -0.8470   -0.4710   -0.6350 C   0  0  0  0  0  0  0  0  0  0  0  0
    0.1390   -0.6220   -1.6750 O   0  0  0  0  0  0  0  0  0  0  0  0
  1  2  1  0
  2  3  1  0
  3  4  1  0
  4  5  1  0
  5  6  2  0
  5 10  1  0
  6  7  1  0
  7  8  1  0
  7  9  1  0
  9 10  2  0
 10 11  1  0
M  END
