
     RDKit          3D

 13 12  0  0  0  0  0  0  0  0999 V2000
   -0.9110   -0.3200    1.5880 C   0  0  0  0  0  0  0  0  0  0  0  0
   -0.9080   -0.6530    0.0930 C   0  0  1  0  0  0  0  0  0  0  0  0
   -1.2400   -1.9670   -0.1220 O   0  0  0  0  0  0  0  0  0  0  0  0
   -1.9930    0.2230   -0.5310 C   0  0  0  0  0  0  0  0  0  0  0  0
   -1.6770    1.5670   -0.3240 O   0  0  0  0  0  0  0  0  0  0  0  0
   -2.6060    2.3110   -0.8580 O   0  0  0  0  0  0  0  0  0  0  0  0
    0.4030   -0.2730   -0.4690 C   0  0  0  0  0  0  0  0  0  0  0  0
    0.7730    0.9220   -0.3080 O   0  0  0  0  0  0  0  0  0  0  0  0
    1.2350   -1.1500   -1.1540 O   0  0  0  0  0  0  0  0  0  0  0  0
    2.4230   -0.6730   -1.6240 O   0  0  0  0  0  0  0  0  0  0  0  0
    3.4490   -0.4210   -0.7430 C   0  0  0  0  0  0  0  0  0  0  0  0
    3.2440   -0.6450    0.4810 O   0  0  0  0  0  0  0  0  0  0  0  0
    4.6960    0.0670   -1.1290 O   0  0  0  0  0  0  0  0  0  0  0  0
  2  1  1  1
  2  3  1  0
  2  4  1  0
  2  7  1  0
  4  5  1  0
  5  6  1  0
  7  8  2  0
  7  9  1  0
  9 10  1  0
 10 11  1  0
 11 12  2  0
 11 13  1  0
M  END
