
     RDKit          3D

 13 13  0  0  0  0  0  0  0  0999 V2000
    4.0180   -0.8390   -1.0010 O   0  0  0  0  0  0  0  0  0  0  0  0
    4.0800    0.3440   -0.4050 O   0  0  0  0  0  0  0  0  0  0  0  0
    3.9130    0.1190    0.8760 O   0  0  0  0  0  0  0  0  0  0  0  0
    2.5530   -0.1890    1.0780 C   0  0  0  0  0  0  0  0  0  0  0  0
    1.7440    0.8610    0.6770 O   0  0  0  0  0  0  0  0  0  0  0  0
    0.4030    0.6310    0.8590 C   0  0  0  0  0  0  0  0  0  0  0  0
   -0.0500   -0.5540    0.0860 C   0  0  0  0  0  0  0  0  0  0  0  0
   -1.4120   -0.8170    0.2350 O   0  0  0  0  0  0  0  0  0  0  0  0
   -2.2470    0.1840   -0.1770 C   0  0  1  0  0  0  0  0  0  0  0  0
   -3.2130   -0.4390   -1.1930 C   0  0  0  0  0  0  0  0  0  0  0  0
   -4.4400    0.0050   -0.7680 O   0  0  0  0  0  0  0  0  0  0  0  0
   -4.2820    0.8190    0.2240 O   0  0  0  0  0  0  0  0  0  0  0  0
   -3.1500    0.5890    0.8020 O   0  0  0  0  0  0  0  0  0  0  0  0
  1  2  1  0
  2  3  1  0
  3  4  1  0
  4  5  1  0
  5  6  1  0
  6  7  1  0
  7  8  1  0
  9  8  1  1
  9 10  1  0
  9 13  1  0
 10 11  1  0
 11 12  1  0
 12 13  1  0
M  END
