
     RDKit          3D

 13 14  0  0  0  0  0  0  0  0999 V2000
    3.5110   -1.0010    1.0640 O   0  0  0  0  0  0  0  0  0  0  0  0
    3.0280   -1.2700   -0.1190 O   0  0  0  0  0  0  0  0  0  0  0  0
    2.1010   -0.3130   -0.4560 C   0  0  0  0  0  0  0  0  0  0  0  0
    1.0240   -0.2620    0.4580 O   0  0  0  0  0  0  0  0  0  0  0  0
    0.1730    0.7160    0.0270 C   0  0  2  0  0  0  0  0  0  0  0  0
   -0.0830    1.6940    1.0100 O   0  0  0  0  0  0  0  0  0  0  0  0
   -1.2950    2.2640    0.6700 C   0  0  0  0  0  0  0  0  0  0  0  0
   -1.9180    1.4470   -0.2450 O   0  0  0  0  0  0  0  0  0  0  0  0
   -1.2380    0.2350   -0.2270 C   0  0  1  0  0  0  0  0  0  0  0  0
   -1.3700   -0.4950   -1.3740 O   0  0  0  0  0  0  0  0  0  0  0  0
   -1.7970   -1.7400   -0.8990 C   0  0  0  0  0  0  0  0  0  0  0  0
   -2.5810   -1.3700    0.2180 O   0  0  0  0  0  0  0  0  0  0  0  0
   -1.7350   -0.5250    0.8110 O   0  0  0  0  0  0  0  0  0  0  0  0
  1  2  1  0
  2  3  1  0
  3  4  1  0
  5  4  1  1
  5  6  1  0
  5  9  1  0
  6  7  1  0
  7  8  1  0
  9  8  1  6
  9 10  1  0
  9 13  1  0
 10 11  1  0
 11 12  1  0
 12 13  1  0
M  END
