
     RDKit          3D

 13 12  0  0  0  0  0  0  0  0999 V2000
   -2.0000   -2.6340    0.3880 C   0  0  0  0  0  0  0  0  0  0  0  0
   -0.9830   -1.8040   -0.0330 O   0  0  0  0  0  0  0  0  0  0  0  0
   -1.2570   -0.5250    0.3830 C   0  0  0  0  0  0  0  0  0  0  0  0
   -0.1750    0.4640   -0.0440 C   0  0  2  0  0  0  0  0  0  0  0  0
    1.0120    0.0500    0.5200 O   0  0  0  0  0  0  0  0  0  0  0  0
    1.9530   -0.2210   -0.3950 O   0  0  0  0  0  0  0  0  0  0  0  0
    3.2290   -0.5530    0.0300 C   0  0  0  0  0  0  0  0  0  0  0  0
    3.5040   -0.6020    1.2570 O   0  0  0  0  0  0  0  0  0  0  0  0
    4.2270   -0.8400   -0.8950 O   0  0  0  0  0  0  0  0  0  0  0  0
   -0.5140    1.7390    0.4660 O   0  0  0  0  0  0  0  0  0  0  0  0
   -0.6900    2.7850   -0.4210 C   0  0  0  0  0  0  0  0  0  0  0  0
   -0.5450    2.5790   -1.6440 O   0  0  0  0  0  0  0  0  0  0  0  0
   -1.0230    4.0770   -0.0280 O   0  0  0  0  0  0  0  0  0  0  0  0
  1  2  1  0
  2  3  1  0
  4  3  1  1
  4  5  1  0
  4 10  1  0
  5  6  1  0
  6  7  1  0
  7  8  2  0
  7  9  1  0
 10 11  1  0
 11 12  2  0
 11 13  1  0
M  END
