
     RDKit          3D

 13 13  0  0  0  0  0  0  0  0999 V2000
   -0.0740   -0.1870    1.8620 O   0  0  0  0  0  0  0  0  0  0  0  0
   -0.1700   -0.9670    0.7140 C   0  0  2  0  0  0  0  0  0  0  0  0
    1.1420   -1.5690    0.3450 C   0  0  0  0  0  0  0  0  0  0  0  0
    2.0970   -0.5320    0.1010 N   0  0  0  0  0  0  0  0  0  0  0  0
    2.3290    0.0490   -1.0810 C   0  0  0  0  0  0  0  0  0  0  0  0
    3.2800    0.9570   -0.9030 N   0  0  0  0  0  0  0  0  0  0  0  0
    3.6460    0.9500    0.3820 C   0  0  0  0  0  0  0  0  0  0  0  0
    2.9030    0.0170    1.0020 N   0  0  0  0  0  0  0  0  0  0  0  0
   -0.7020   -0.1090   -0.4480 C   0  0  0  0  0  0  0  0  0  0  0  0
   -2.2680    0.5630   -0.1460 P   0  0  0  0  0  0  0  0  0  0  0  0
   -2.9640    0.2550   -1.4630 O   0  0  0  0  0  0  0  0  0  0  0  0
   -2.5590    2.1950   -0.4090 O   0  0  0  0  0  0  0  0  0  0  0  0
   -3.4170   -0.3160    0.6800 O   0  0  0  0  0  0  0  0  0  0  0  0
  2  1  1  1
  2  3  1  0
  2  9  1  0
  3  4  1  0
  4  5  1  0
  4  8  1  0
  5  6  2  0
  6  7  1  0
  7  8  2  0
  9 10  1  0
 10 11  1  0
 10 12  1  0
 10 13  1  0
M  END
