
     RDKit          3D

 13 12  0  0  0  0  0  0  0  0999 V2000
    1.3450    0.9350   -1.6760 O   0  0  0  0  0  0  0  0  0  0  0  0
    2.1920    0.2530   -1.1650 C   0  0  0  0  0  0  0  0  0  0  0  0
    3.7000    0.2190   -1.5350 C   0  0  0  0  0  0  0  0  0  0  0  0
    4.2940   -0.7480   -0.6540 O   0  0  0  0  0  0  0  0  0  0  0  0
    5.2720    0.0350   -0.0220 O   0  0  0  0  0  0  0  0  0  0  0  0
    1.9240   -0.6270   -0.1430 O   0  0  0  0  0  0  0  0  0  0  0  0
    0.7990   -0.8800    0.3600 O   0  0  0  0  0  0  0  0  0  0  0  0
   -0.0820    0.1490    0.5640 C   0  0  0  0  0  0  0  0  0  0  0  0
   -1.2260   -0.5220    1.1230 O   0  0  0  0  0  0  0  0  0  0  0  0
   -2.1960    0.4210    1.3610 C   0  0  0  0  0  0  0  0  0  0  0  0
   -3.5130   -0.3390    1.1300 C   0  0  0  0  0  0  0  0  0  0  0  0
   -3.3960   -0.7120   -0.2090 O   0  0  0  0  0  0  0  0  0  0  0  0
   -4.5750   -1.2200   -0.6780 O   0  0  0  0  0  0  0  0  0  0  0  0
  1  2  2  0
  2  3  1  0
  2  6  1  0
  3  4  1  0
  4  5  1  0
  6  7  1  0
  7  8  1  0
  8  9  1  0
  9 10  1  0
 10 11  1  0
 11 12  1  0
 12 13  1  0
M  END
