
     RDKit          3D

 19 21  0  0  0  0  0  0  0  0999 V2000
    5.8330    0.9820    1.0620 O   0  0  0  0  0  0  0  0  0  0  0  0
    4.4830    0.6510    1.0170 C   0  0  0  0  0  0  0  0  0  0  0  0
    3.9070    0.1410   -0.1260 C   0  0  0  0  0  0  0  0  0  0  0  0
    2.5450   -0.1890   -0.1590 C   0  0  0  0  0  0  0  0  0  0  0  0
    1.7280   -0.0250    0.9280 C   0  0  0  0  0  0  0  0  0  0  0  0
    0.3520   -0.3630    0.9460 N   0  0  0  0  0  0  0  0  0  0  0  0
   -0.2500   -1.1970   -0.0270 C   0  0  0  0  0  0  0  0  0  0  0  0
    0.4170   -2.2420   -0.3840 N   0  0  0  0  0  0  0  0  0  0  0  0
   -0.1130   -3.1560   -1.3610 C   0  0  0  0  0  0  0  0  0  0  0  0
   -1.2950   -2.9320   -1.9020 C   0  0  0  0  0  0  0  0  0  0  0  0
   -2.0630   -1.7880   -1.5300 N   0  0  0  0  0  0  0  0  0  0  0  0
   -1.5490   -0.8470   -0.5460 C   0  0  0  0  0  0  0  0  0  0  0  0
   -2.2310    0.2330   -0.2530 C   0  0  0  0  0  0  0  0  0  0  0  0
   -1.9410    1.3690    0.6200 C   0  0  0  0  0  0  0  0  0  0  0  0
   -2.7920    2.4940    0.0100 C   0  0  0  0  0  0  0  0  0  0  0  0
   -4.0130    1.7830   -0.3110 N   0  0  0  0  0  0  0  0  0  0  0  0
   -3.6160    0.5110   -0.8080 C   0  0  0  0  0  0  0  0  0  0  0  0
    2.3220    0.4950    2.0870 C   0  0  0  0  0  0  0  0  0  0  0  0
    3.6610    0.8170    2.1110 C   0  0  0  0  0  0  0  0  0  0  0  0
  1  2  1  0
  2  3  2  0
  2 19  1  0
  3  4  1  0
  4  5  2  0
  5  6  1  0
  5 18  1  0
  6  7  1  0
  7  8  2  0
  7 12  1  0
  8  9  1  0
  9 10  2  0
 10 11  1  0
 11 12  1  0
 12 13  2  3
 13 14  1  0
 13 17  1  0
 14 15  1  0
 15 16  1  0
 16 17  1  0
 18 19  2  0
M  CHG  1   8   1
M  END
