
     RDKit          3D

 20 22  0  0  0  0  0  0  0  0999 V2000
   -4.9450    1.5770    1.6640 C   0  0  0  0  0  0  0  0  0  0  0  0
   -3.5120    1.3060    1.3780 C   0  0  0  0  0  0  0  0  0  0  0  0
   -2.4840    2.0460    1.7110 N   0  0  0  0  0  0  0  0  0  0  0  0
   -1.3530    1.4750    1.2780 C   0  0  0  0  0  0  0  0  0  0  0  0
   -1.7230    0.3140    0.6420 C   0  0  0  0  0  0  0  0  0  0  0  0
   -0.8220   -0.6430    0.0030 C   0  0  0  0  0  0  0  0  0  0  0  0
    0.4520   -0.4560   -0.0390 N   0  0  0  0  0  0  0  0  0  0  0  0
    1.3830   -1.3280   -0.6360 C   0  0  0  0  0  0  0  0  0  0  0  0
    2.6860   -1.0240   -0.6450 C   0  0  0  0  0  0  0  0  0  0  0  0
    3.1050    0.2440   -0.0070 C   0  0  0  0  0  0  0  0  0  0  0  0
    3.9320    1.2010   -0.5960 C   0  0  0  0  0  0  0  0  0  0  0  0
    4.0560    2.2160    0.3630 C   0  0  0  0  0  0  0  0  0  0  0  0
    3.3090    1.8090    1.4510 C   0  0  0  0  0  0  0  0  0  0  0  0
    2.7700    0.6280    1.1630 O   0  0  0  0  0  0  0  0  0  0  0  0
    0.8970   -2.5510   -1.2660 C   0  0  0  0  0  0  0  0  0  0  0  0
   -0.4040   -2.8160   -1.2620 C   0  0  0  0  0  0  0  0  0  0  0  0
   -0.8630   -3.9720   -1.8540 O   0  0  0  0  0  0  0  0  0  0  0  0
   -1.3340   -1.8610   -0.6190 C   0  0  0  0  0  0  0  0  0  0  0  0
   -2.5630   -2.1300   -0.6300 O   0  0  0  0  0  0  0  0  0  0  0  0
   -3.0260    0.2470    0.7230 O   0  0  0  0  0  0  0  0  0  0  0  0
  1  2  1  0
  2  3  2  0
  2 20  1  0
  3  4  1  0
  4  5  2  0
  5  6  1  0
  5 20  1  0
  6  7  2  0
  6 18  1  0
  7  8  1  0
  8  9  2  3
  8 15  1  0
  9 10  1  0
 10 11  2  0
 10 14  1  0
 11 12  1  0
 12 13  2  0
 13 14  1  0
 15 16  2  0
 16 17  1  0
 16 18  1  0
 18 19  2  0
M  END
