
     RDKit          3D

 20 22  0  0  0  0  0  0  0  0999 V2000
    6.2760   -0.1680   -0.4700 C   0  0  0  0  0  0  0  0  0  0  0  0
    4.9810   -0.8150   -0.8020 C   0  0  0  0  0  0  0  0  0  0  0  0
    4.9360   -2.0530   -0.9260 O   0  0  0  0  0  0  0  0  0  0  0  0
    3.8110    0.0440   -0.9690 C   0  0  0  0  0  0  0  0  0  0  0  0
    2.6460   -0.5000   -1.2640 C   0  0  0  0  0  0  0  0  0  0  0  0
    1.5170    0.2740   -1.4310 O   0  0  0  0  0  0  0  0  0  0  0  0
    0.3600    0.0290   -0.6710 C   0  0  0  0  0  0  0  0  0  0  0  0
    0.3630   -0.9840    0.2350 C   0  0  0  0  0  0  0  0  0  0  0  0
   -0.7850   -1.2040    0.9680 C   0  0  0  0  0  0  0  0  0  0  0  0
   -1.9040   -0.4020    0.7720 C   0  0  0  0  0  0  0  0  0  0  0  0
   -3.0730   -0.5850    1.4820 C   0  0  0  0  0  0  0  0  0  0  0  0
   -3.1410   -1.4900    2.3240 O   0  0  0  0  0  0  0  0  0  0  0  0
   -4.1550    0.2440    1.2450 C   0  0  0  0  0  0  0  0  0  0  0  0
   -5.4370    0.3400    1.7570 C   0  0  0  0  0  0  0  0  0  0  0  0
   -6.0620    1.3580    1.1370 N   0  0  0  0  0  0  0  0  0  0  0  0
   -5.2540    1.9160    0.2600 N   0  0  0  0  0  0  0  0  0  0  0  0
   -4.0740    1.2620    0.2950 C   0  0  0  0  0  0  0  0  0  0  0  0
   -2.9500    1.3890   -0.3440 O   0  0  0  0  0  0  0  0  0  0  0  0
   -1.8960    0.6250   -0.1520 C   0  0  0  0  0  0  0  0  0  0  0  0
   -0.7390    0.8510   -0.8940 C   0  0  0  0  0  0  0  0  0  0  0  0
  1  2  1  0
  2  3  2  0
  2  4  1  0
  4  5  2  3
  5  6  1  0
  6  7  1  0
  7  8  2  0
  7 20  1  0
  8  9  1  0
  9 10  2  0
 10 11  1  0
 10 19  1  0
 11 12  2  0
 11 13  1  0
 13 14  1  0
 13 17  2  0
 14 15  2  0
 15 16  1  0
 16 17  1  0
 17 18  1  0
 18 19  1  0
 19 20  2  0
M  END
