
     RDKit          3D

 19 21  0  0  0  0  0  0  0  0999 V2000
    6.9280    0.0280    0.2640 N   0  0  0  0  0  0  0  0  0  0  0  0
    5.4870   -0.0160    0.2570 C   0  0  0  0  0  0  0  0  0  0  0  0
    4.8040    0.4030   -0.8670 C   0  0  0  0  0  0  0  0  0  0  0  0
    3.4260    0.3470   -0.8400 C   0  0  0  0  0  0  0  0  0  0  0  0
    2.7150   -0.1030    0.2490 C   0  0  0  0  0  0  0  0  0  0  0  0
    1.2720   -0.1400    0.2240 N   0  0  0  0  0  0  0  0  0  0  0  0
    0.5570    0.2940   -0.9430 C   0  0  0  0  0  0  0  0  0  0  0  0
   -0.8950    0.1480   -0.6920 C   0  0  0  0  0  0  0  0  0  0  0  0
   -1.7620    1.1460   -0.7190 C   0  0  0  0  0  0  0  0  0  0  0  0
   -3.0530    0.6300   -0.4320 N   0  0  0  0  0  0  0  0  0  0  0  0
   -4.3770    1.2510   -0.3270 C   0  0  0  0  0  0  0  0  0  0  0  0
   -5.0990    0.5230    0.6940 N   0  0  0  0  0  0  0  0  0  0  0  0
   -5.3610   -0.8010    0.1640 C   0  0  0  0  0  0  0  0  0  0  0  0
   -4.0590   -1.5120    0.0770 C   0  0  0  0  0  0  0  0  0  0  0  0
   -2.9800   -0.7730   -0.2140 C   0  0  0  0  0  0  0  0  0  0  0  0
   -1.5660   -1.1080   -0.3800 C   0  0  0  0  0  0  0  0  0  0  0  0
   -1.0910   -2.2670   -0.2650 O   0  0  0  0  0  0  0  0  0  0  0  0
    3.4140   -0.5160    1.3630 C   0  0  0  0  0  0  0  0  0  0  0  0
    4.7930   -0.4730    1.3670 C   0  0  0  0  0  0  0  0  0  0  0  0
  1  2  1  0
  2  3  2  0
  2 19  1  0
  3  4  1  0
  4  5  2  0
  5  6  1  0
  5 18  1  0
  6  7  1  0
  7  8  1  0
  8  9  2  0
  8 16  1  0
  9 10  1  0
 10 11  1  0
 10 15  1  0
 11 12  1  0
 12 13  1  0
 13 14  1  0
 14 15  2  0
 15 16  1  0
 16 17  2  0
 18 19  2  0
M  CHG  1  12   1
M  END
