
     RDKit          3D

 21 23  0  0  0  0  0  0  0  0999 V2000
   -2.4600   -1.7300    1.9930 O   0  0  0  0  0  0  0  0  0  0  0  0
   -1.9020   -0.9920    1.1500 C   0  0  0  0  0  0  0  0  0  0  0  0
   -0.5240   -0.9160    1.0640 C   0  0  0  0  0  0  0  0  0  0  0  0
    0.1020   -0.1280    0.1640 C   0  0  0  0  0  0  0  0  0  0  0  0
    1.5700   -0.0570    0.0840 C   0  0  0  0  0  0  0  0  0  0  0  0
    2.1410    0.7710   -0.8610 C   0  0  0  0  0  0  0  0  0  0  0  0
    3.4980    0.9100   -1.0190 C   0  0  0  0  0  0  0  0  0  0  0  0
    4.3740    0.1940   -0.2010 C   0  0  0  0  0  0  0  0  0  0  0  0
    5.7400    0.3240   -0.3490 O   0  0  0  0  0  0  0  0  0  0  0  0
    3.8090   -0.6320    0.7420 C   0  0  0  0  0  0  0  0  0  0  0  0
    4.6030   -1.3830    1.6000 O   0  0  0  0  0  0  0  0  0  0  0  0
    2.4140   -0.7610    0.8880 C   0  0  0  0  0  0  0  0  0  0  0  0
   -0.6310    0.5840   -0.6490 O   0  0  0  0  0  0  0  0  0  0  0  0
   -1.9400    0.5470   -0.6080 C   0  0  0  0  0  0  0  0  0  0  0  0
   -2.6580    1.3380   -1.5110 C   0  0  0  0  0  0  0  0  0  0  0  0
   -4.0250    1.3270   -1.4990 C   0  0  0  0  0  0  0  0  0  0  0  0
   -4.8760    2.3320   -2.6480 Cl  0  0  0  0  0  0  0  0  0  0  0  0
   -4.7130    0.5460   -0.6070 C   0  0  0  0  0  0  0  0  0  0  0  0
   -4.0500   -0.2690    0.3230 C   0  0  0  0  0  0  0  0  0  0  0  0
   -4.7530   -1.0290    1.1910 O   0  0  0  0  0  0  0  0  0  0  0  0
   -2.6620   -0.2380    0.2890 C   0  0  0  0  0  0  0  0  0  0  0  0
  1  2  2  0
  2  3  1  0
  2 21  1  0
  3  4  2  0
  4  5  1  0
  4 13  1  0
  5  6  2  0
  5 12  1  0
  6  7  1  0
  7  8  2  0
  8  9  1  0
  8 10  1  0
 10 11  1  0
 10 12  2  0
 13 14  1  0
 14 15  2  0
 14 21  1  0
 15 16  1  0
 16 17  1  0
 16 18  2  0
 18 19  1  0
 19 20  1  0
 19 21  2  0
M  END
