
     RDKit          3D

 19 21  0  0  0  0  0  0  0  0999 V2000
    5.3840    1.6230    0.4000 N   0  0  0  0  0  0  0  0  0  0  0  0
    4.1790    0.9500    0.0310 C   0  0  0  0  0  0  0  0  0  0  0  0
    4.1660    0.2010   -1.1110 C   0  0  0  0  0  0  0  0  0  0  0  0
    3.0140   -0.4640   -1.4970 C   0  0  0  0  0  0  0  0  0  0  0  0
    1.8430   -0.4090   -0.7680 C   0  0  0  0  0  0  0  0  0  0  0  0
    0.7600   -1.0980   -1.2290 O   0  0  0  0  0  0  0  0  0  0  0  0
   -0.4920   -1.1770   -0.6980 C   0  0  0  0  0  0  0  0  0  0  0  0
   -1.0100   -2.3950   -0.3100 C   0  0  0  0  0  0  0  0  0  0  0  0
   -2.2970   -2.4880    0.2380 C   0  0  0  0  0  0  0  0  0  0  0  0
   -3.0640   -1.3480    0.3930 C   0  0  0  0  0  0  0  0  0  0  0  0
   -4.3780   -1.3900    0.9450 N   0  0  0  0  0  0  0  0  0  0  0  0
   -2.5580   -0.1310    0.0100 C   0  0  0  0  0  0  0  0  0  0  0  0
   -1.2790   -0.0600   -0.5300 C   0  0  0  0  0  0  0  0  0  0  0  0
   -1.0730    1.3600   -0.8190 C   0  0  0  0  0  0  0  0  0  0  0  0
   -2.1010    2.0520   -0.4920 N   0  0  0  0  0  0  0  0  0  0  0  0
   -3.1190    1.2220    0.0490 C   0  0  0  0  0  0  0  0  0  0  0  0
   -4.2800    1.5900    0.4780 N   0  0  0  0  0  0  0  0  0  0  0  0
    1.8760    0.3540    0.3840 C   0  0  0  0  0  0  0  0  0  0  0  0
    3.0350    1.0280    0.7800 C   0  0  0  0  0  0  0  0  0  0  0  0
  1  2  1  0
  2  3  2  0
  2 19  1  0
  3  4  1  0
  4  5  2  0
  5  6  1  0
  5 18  1  0
  6  7  1  0
  7  8  2  0
  7 13  1  0
  8  9  1  0
  9 10  2  0
 10 11  1  0
 10 12  1  0
 12 13  2  0
 12 16  1  0
 13 14  1  0
 14 15  2  0
 15 16  1  0
 16 17  2  0
 18 19  2  0
M  CHG  1  17   1
M  END
