
     RDKit          3D

 20 22  0  0  0  0  0  0  0  0999 V2000
   -2.6550    2.1810    1.1030 C   0  0  0  0  0  0  0  0  0  0  0  0
   -1.6360    2.3560    0.0210 C   0  0  1  0  0  0  0  0  0  0  0  0
   -1.2090    3.8160    0.0160 C   0  0  0  0  0  0  0  0  0  0  0  0
   -0.5110    1.4800    0.0960 N   0  0  0  0  0  0  0  0  0  0  0  0
   -0.6320    0.0720   -0.0220 C   0  0  0  0  0  0  0  0  0  0  0  0
   -1.8940   -0.4710   -0.2140 C   0  0  0  0  0  0  0  0  0  0  0  0
   -2.1070   -1.8490   -0.3270 C   0  0  0  0  0  0  0  0  0  0  0  0
   -1.0140   -2.6810   -0.2420 C   0  0  0  0  0  0  0  0  0  0  0  0
    0.2420   -2.1550   -0.0530 C   0  0  0  0  0  0  0  0  0  0  0  0
    0.4530   -0.7730    0.0600 C   0  0  0  0  0  0  0  0  0  0  0  0
    1.7810   -0.2920    0.2320 N   0  0  0  0  0  0  0  0  0  0  0  0
    2.5610   -0.8710    1.3070 C   0  0  0  0  0  0  0  0  0  0  0  0
    4.0330   -0.7270    1.1670 C   0  0  0  0  0  0  0  0  0  0  0  0
    4.4680   -0.4690   -0.1460 O   0  0  0  0  0  0  0  0  0  0  0  0
    3.6550    0.0700   -1.1280 C   0  0  0  0  0  0  0  0  0  0  0  0
    3.9180    0.0430   -2.3580 O   0  0  0  0  0  0  0  0  0  0  0  0
    2.3860    0.7190   -0.6190 C   0  0  0  0  0  0  0  0  0  0  0  0
   -1.5070   -3.9690   -0.3840 O   0  0  0  0  0  0  0  0  0  0  0  0
   -2.9150   -3.9660   -0.2480 C   0  0  0  0  0  0  0  0  0  0  0  0
   -3.2360   -2.6310   -0.5170 O   0  0  0  0  0  0  0  0  0  0  0  0
  2  1  1  1
  2  3  1  0
  2  4  1  0
  4  5  1  0
  5  6  2  0
  5 10  1  0
  6  7  1  0
  7  8  2  0
  7 20  1  0
  8  9  1  0
  8 18  1  0
  9 10  2  0
 10 11  1  0
 11 12  1  0
 11 17  1  0
 12 13  1  0
 13 14  1  0
 14 15  1  0
 15 16  2  0
 15 17  1  0
 18 19  1  0
 19 20  1  0
M  END
