
     RDKit          3D

 20 22  0  0  0  0  0  0  0  0999 V2000
   -4.9500    1.1930   -0.8360 C   0  0  0  0  0  0  0  0  0  0  0  0
   -4.2040   -0.0350   -0.5750 C   0  0  0  0  0  0  0  0  0  0  0  0
   -4.8980   -1.1170   -0.5730 O   0  0  0  0  0  0  0  0  0  0  0  0
   -2.7770   -0.1670   -0.3200 C   0  0  0  0  0  0  0  0  0  0  0  0
   -2.1390   -1.3930   -0.0850 C   0  0  0  0  0  0  0  0  0  0  0  0
   -2.8020   -2.7190   -0.0570 C   0  0  0  0  0  0  0  0  0  0  0  0
   -0.8300   -1.1660    0.1090 N   0  0  0  0  0  0  0  0  0  0  0  0
   -0.5290    0.1380    0.0230 C   0  0  0  0  0  0  0  0  0  0  0  0
    0.7470    0.8270    0.1840 C   0  0  0  0  0  0  0  0  0  0  0  0
    0.6410    2.1270   -0.0420 O   0  0  0  0  0  0  0  0  0  0  0  0
    1.9930    0.3600    0.5170 N   0  0  0  0  0  0  0  0  0  0  0  0
    2.4380   -0.9350    0.8520 C   0  0  0  0  0  0  0  0  0  0  0  0
    3.2170   -1.4240   -0.3970 C   0  0  0  0  0  0  0  0  0  0  0  0
    4.4310   -0.5020   -0.4440 C   0  0  2  0  0  0  0  0  0  0  0  0
    4.0100    0.9110   -0.6590 C   0  0  0  0  0  0  0  0  0  0  0  0
    3.1080    1.3640    0.4920 C   0  0  0  0  0  0  0  0  0  0  0  0
    5.6550   -0.9650   -0.6680 O   0  0  0  0  0  0  0  0  0  0  0  0
    5.2900   -0.7020    0.6380 O   0  0  0  0  0  0  0  0  0  0  0  0
   -1.7700    0.7570   -0.2480 C   0  0  0  0  0  0  0  0  0  0  0  0
   -1.9270    2.2060   -0.4150 C   0  0  0  0  0  0  0  0  0  0  0  0
  1  2  1  0
  2  3  2  0
  2  4  1  0
  4  5  2  0
  4 19  1  0
  5  6  1  0
  5  7  1  0
  7  8  1  0
  8  9  1  0
  8 19  2  0
  9 10  2  0
  9 11  1  0
 11 12  1  0
 11 16  1  0
 12 13  1  0
 14 13  1  1
 14 15  1  0
 14 17  1  0
 14 18  1  0
 15 16  1  0
 17 18  1  0
 19 20  1  0
M  END
