
     RDKit          3D

 20 22  0  0  0  0  0  0  0  0999 V2000
    4.8220    1.4670   -0.0040 C   0  0  0  0  0  0  0  0  0  0  0  0
    4.3900    0.2270   -0.0270 C   0  0  0  0  0  0  0  0  0  0  0  0
    3.5760   -0.2690   -1.1340 C   0  0  0  0  0  0  0  0  0  0  0  0
    2.2690   -0.7300   -0.6680 N   0  0  0  0  0  0  0  0  0  0  0  0
    2.0430   -1.9990   -0.2810 C   0  0  0  0  0  0  0  0  0  0  0  0
    2.9860   -2.8240   -0.3190 O   0  0  0  0  0  0  0  0  0  0  0  0
    0.8300   -2.4110    0.1470 N   0  0  0  0  0  0  0  0  0  0  0  0
   -0.2290   -1.5850    0.2160 C   0  0  0  0  0  0  0  0  0  0  0  0
   -1.4720   -2.0070    0.6540 C   0  0  0  0  0  0  0  0  0  0  0  0
   -2.5520   -1.1500    0.7200 C   0  0  0  0  0  0  0  0  0  0  0  0
   -3.8800   -1.6310    1.1970 C   0  0  0  0  0  0  0  0  0  0  0  0
   -2.3330    0.1590    0.3250 C   0  0  0  0  0  0  0  0  0  0  0  0
   -1.0970    0.5940   -0.1150 C   0  0  0  0  0  0  0  0  0  0  0  0
   -0.0260   -0.2760   -0.1750 C   0  0  0  0  0  0  0  0  0  0  0  0
    1.2250    0.1130   -0.6070 C   0  0  0  0  0  0  0  0  0  0  0  0
    1.4010    1.3050   -0.9610 O   0  0  0  0  0  0  0  0  0  0  0  0
   -0.9470    1.9220   -0.4960 O   0  0  0  0  0  0  0  0  0  0  0  0
   -1.9390    2.8390   -0.0030 C   0  0  0  0  0  0  0  0  0  0  0  0
   -3.2760    2.2460   -0.3800 C   0  0  0  0  0  0  0  0  0  0  0  0
   -3.4180    1.0410    0.3870 O   0  0  0  0  0  0  0  0  0  0  0  0
  1  2  2  0
  2  3  1  0
  3  4  1  0
  4  5  1  0
  4 15  1  0
  5  6  2  0
  5  7  1  0
  7  8  1  0
  8  9  2  0
  8 14  1  0
  9 10  1  0
 10 11  1  0
 10 12  2  0
 12 13  1  0
 12 20  1  0
 13 14  2  0
 13 17  1  0
 14 15  1  0
 15 16  2  0
 17 18  1  0
 18 19  1  0
 19 20  1  0
M  END
