
     RDKit          3D

 31 33  0  0  0  0  0  0  0  0999 V2000
    1.4720   -0.2030    0.1220 O   0  0  0  0  0  0  0  0  0  0  0  0
    1.3610   -1.2600    0.8110 C   0  0  0  0  0  0  0  0  0  0  0  0
    0.0520   -1.8380    1.1710 C   0  0  0  0  0  0  0  0  0  0  0  0
   -1.0650   -1.0680    0.6520 N   0  0  0  0  0  0  0  0  0  0  0  0
   -1.2890   -1.0360   -0.7770 C   0  0  0  0  0  0  0  0  0  0  0  0
   -2.6800   -0.6680   -1.1860 C   0  0  1  0  0  0  0  0  0  0  0  0
   -3.3220   -1.8340   -2.5120 P   0  0  0  0  0  0  0  0  0  0  0  0
   -2.3540   -3.2590   -2.6140 O   0  0  0  0  0  0  0  0  0  0  0  0
   -4.9680   -2.1710   -2.1790 O   0  0  0  0  0  0  0  0  0  0  0  0
   -3.6360   -0.6170   -0.0980 N   0  0  0  0  0  0  0  0  0  0  0  0
   -3.1420    0.3480    0.8760 C   0  0  1  0  0  0  0  0  0  0  0  0
   -2.6820    1.8920    0.0040 P   0  0  0  0  0  0  0  0  0  0  0  0
   -1.2620    2.5970    0.7050 O   0  0  0  0  0  0  0  0  0  0  0  0
   -4.3320    3.3240   -0.1200 P   0  0  0  0  0  0  0  0  0  0  0  0
   -4.1650    4.1800   -1.6410 O   0  0  0  0  0  0  0  0  0  0  0  0
   -5.8720    2.5290   -0.1340 O   0  0  0  0  0  0  0  0  0  0  0  0
   -4.0010    0.5270    1.9520 O   0  0  0  0  0  0  0  0  0  0  0  0
   -3.1290    0.6830    2.9860 O   0  0  0  0  0  0  0  0  0  0  0  0
   -2.0020   -0.1070    2.7410 N   0  0  0  0  0  0  0  0  0  0  0  0
   -1.9480   -0.3450    1.4840 C   0  0  0  0  0  0  0  0  0  0  0  0
    2.5190   -1.9440    1.2720 N   0  0  0  0  0  0  0  0  0  0  0  0
    3.8170   -1.4770    0.9860 C   0  0  0  0  0  0  0  0  0  0  0  0
    4.0860   -0.3570    0.2640 N   0  0  0  0  0  0  0  0  0  0  0  0
    5.4260   -0.2050    0.1830 C   0  0  0  0  0  0  0  0  0  0  0  0
    6.1370    0.8650   -0.4980 C   0  0  0  0  0  0  0  0  0  0  0  0
    7.3820    0.8970   -0.5060 O   0  0  0  0  0  0  0  0  0  0  0  0
    5.4230    1.8620   -1.1470 O   0  0  0  0  0  0  0  0  0  0  0  0
    6.1220    2.8320   -1.7640 O   0  0  0  0  0  0  0  0  0  0  0  0
    7.3130    2.9330   -1.1980 O   0  0  0  0  0  0  0  0  0  0  0  0
    5.9660   -1.2730    0.8810 C   0  0  0  0  0  0  0  0  0  0  0  0
    4.9660   -1.9980    1.3380 O   0  0  0  0  0  0  0  0  0  0  0  0
  1  2  2  0
  2  3  1  0
  2 21  1  0
  3  4  1  0
  4  5  1  0
  4 20  1  0
  5  6  1  0
  6  7  1  6
  6 10  1  0
  7  8  1  0
  7  9  1  0
 10 11  1  0
 11 12  1  6
 11 17  1  0
 11 20  1  0
 12 13  1  0
 12 14  1  0
 14 15  1  0
 14 16  1  0
 17 18  1  0
 18 19  1  0
 19 20  2  0
 21 22  1  0
 22 23  2  0
 22 31  1  0
 23 24  1  0
 24 25  1  0
 24 30  2  0
 25 26  2  0
 25 27  1  0
 27 28  1  0
 28 29  1  0
 30 31  1  0
M  END
