
     RDKit          3D

 30 31  0  0  0  0  0  0  0  0999 V2000
   -4.6480   -1.7040   -3.6670 O   0  0  0  0  0  0  0  0  0  0  0  0
   -4.4320   -1.8830   -2.1270 P   0  0  0  0  0  0  0  0  0  0  0  0
   -3.2120   -0.8550   -1.3010 N   0  0  0  0  0  0  0  0  0  0  0  0
   -2.4360   -1.3290   -0.2100 C   0  0  0  0  0  0  0  0  0  0  0  0
   -2.6200   -2.5060    0.1800 O   0  0  0  0  0  0  0  0  0  0  0  0
   -1.4210   -0.4510    0.4670 C   0  0  1  0  0  0  0  0  0  0  0  0
   -2.1720    0.6780    1.1630 C   0  0  0  0  0  0  0  0  0  0  0  0
   -1.3560    1.5510    1.8460 O   0  0  0  0  0  0  0  0  0  0  0  0
   -2.3780    2.7550    2.5670 P   0  0  0  0  0  0  0  0  0  0  0  0
   -2.2390    4.2310    1.6480 O   0  0  0  0  0  0  0  0  0  0  0  0
   -4.0440    2.2720    2.5410 O   0  0  0  0  0  0  0  0  0  0  0  0
   -0.7160   -1.1470    1.5220 N   0  0  0  0  0  0  0  0  0  0  0  0
    0.6160   -0.6320    1.4350 C   0  0  0  0  0  0  0  0  0  0  0  0
    1.4260   -0.5450    2.3990 O   0  0  0  0  0  0  0  0  0  0  0  0
    0.7810   -0.2530    0.0070 C   0  0  1  0  0  0  0  0  0  0  0  0
    1.7080    0.9360   -0.1320 C   0  0  0  0  0  0  0  0  0  0  0  0
    1.3440    2.0650    0.5800 O   0  0  0  0  0  0  0  0  0  0  0  0
    2.1610    3.1820    0.4860 C   0  0  0  0  0  0  0  0  0  0  0  0
    3.2060    3.2020   -0.2160 O   0  0  0  0  0  0  0  0  0  0  0  0
    1.8680    4.3660    1.1730 O   0  0  0  0  0  0  0  0  0  0  0  0
    2.8840    5.7840    1.0670 P   0  0  0  0  0  0  0  0  0  0  0  0
    4.4320    5.6760    0.9140 O   0  0  0  0  0  0  0  0  0  0  0  0
    1.4600   -1.3730   -0.7040 C   0  0  0  0  0  0  0  0  0  0  0  0
    2.5020   -1.1210   -1.4110 N   0  0  0  0  0  0  0  0  0  0  0  0
    3.1770   -2.1540   -2.1020 C   0  0  0  0  0  0  0  0  0  0  0  0
    4.2080   -1.9610   -2.8130 O   0  0  0  0  0  0  0  0  0  0  0  0
    2.6890   -3.4860   -2.0080 N   0  0  0  0  0  0  0  0  0  0  0  0
    1.8810   -3.8550   -0.8710 C   0  0  0  0  0  0  0  0  0  0  0  0
    0.9900   -2.7100   -0.6320 N   0  0  0  0  0  0  0  0  0  0  0  0
   -0.4910    0.0070   -0.4120 O   0  0  0  0  0  0  0  0  0  0  0  0
  1  2  2  0
  2  3  1  0
  3  4  1  0
  4  5  2  0
  4  6  1  0
  6  7  1  1
  6 12  1  0
  6 30  1  0
  7  8  1  0
  8  9  1  0
  9 10  1  0
  9 11  1  0
 12 13  1  0
 13 14  2  0
 13 15  1  0
 15 16  1  1
 15 23  1  0
 15 30  1  0
 16 17  1  0
 17 18  1  0
 18 19  2  0
 18 20  1  0
 20 21  1  0
 21 22  2  0
 23 24  2  0
 23 29  1  0
 24 25  1  0
 25 26  2  0
 25 27  1  0
 27 28  1  0
 28 29  1  0
M  END
