
     RDKit          3D

 30 31  0  0  0  0  0  0  0  0999 V2000
    7.9650    0.7520    2.7070 O   0  0  0  0  0  0  0  0  0  0  0  0
    8.0610    1.3890    1.6160 C   0  0  0  0  0  0  0  0  0  0  0  0
    9.2080    2.0980    1.2880 O   0  0  0  0  0  0  0  0  0  0  0  0
    6.9520    1.3710    0.7050 N   0  0  0  0  0  0  0  0  0  0  0  0
    5.7850    0.6350    1.0650 C   0  0  0  0  0  0  0  0  0  0  0  0
    5.7260    0.0180    2.1490 O   0  0  0  0  0  0  0  0  0  0  0  0
    4.6500    0.6120    0.1400 C   0  0  0  0  0  0  0  0  0  0  0  0
    3.5870   -0.1750    0.6830 O   0  0  0  0  0  0  0  0  0  0  0  0
    2.3980   -0.3620    0.0160 C   0  0  0  0  0  0  0  0  0  0  0  0
    2.1950    0.1480   -1.0960 O   0  0  0  0  0  0  0  0  0  0  0  0
    1.3660   -1.1550    0.5960 N   0  0  0  0  0  0  0  0  0  0  0  0
    0.1060   -1.4000   -0.0260 C   0  0  2  0  0  0  0  0  0  0  0  0
    0.4060   -2.3650   -1.5840 P   0  0  0  0  0  0  0  0  0  0  0  0
    1.6870   -3.4950   -1.2530 O   0  0  0  0  0  0  0  0  0  0  0  0
    0.8670   -1.2900   -2.8820 O   0  0  0  0  0  0  0  0  0  0  0  0
   -0.6750   -0.1350   -0.2960 C   0  0  0  0  0  0  0  0  0  0  0  0
   -2.0660   -0.4220   -0.5350 N   0  0  0  0  0  0  0  0  0  0  0  0
   -2.9570    0.7020   -0.7900 C   0  0  0  0  0  0  0  0  0  0  0  0
   -4.3900    0.2390   -0.9460 C   0  0  1  0  0  0  0  0  0  0  0  0
   -5.1100    1.1140   -1.7600 O   0  0  0  0  0  0  0  0  0  0  0  0
   -6.4830    1.7440   -0.8900 P   0  0  0  0  0  0  0  0  0  0  0  0
   -7.3550    0.4670   -0.1050 O   0  0  0  0  0  0  0  0  0  0  0  0
   -5.7610    3.2310    0.5350 P   0  0  0  0  0  0  0  0  0  0  0  0
   -4.1910    3.8180    0.0520 O   0  0  0  0  0  0  0  0  0  0  0  0
   -5.7220    2.6160    2.1600 O   0  0  0  0  0  0  0  0  0  0  0  0
   -4.4580   -1.0410   -1.5460 O   0  0  0  0  0  0  0  0  0  0  0  0
   -3.7050   -2.0450   -1.0110 N   0  0  0  0  0  0  0  0  0  0  0  0
   -2.5540   -1.7560   -0.5230 C   0  0  0  0  0  0  0  0  0  0  0  0
   -1.7460   -2.8620    0.0570 C   0  0  0  0  0  0  0  0  0  0  0  0
   -0.6950   -2.2330    0.8480 N   0  0  0  0  0  0  0  0  0  0  0  0
  1  2  2  0
  2  3  1  0
  2  4  1  0
  4  5  1  0
  5  6  2  0
  5  7  1  0
  7  8  1  0
  8  9  1  0
  9 10  2  0
  9 11  1  0
 12 11  1  1
 12 13  1  0
 12 16  1  0
 12 30  1  0
 13 14  1  0
 13 15  1  0
 16 17  1  0
 17 18  1  0
 17 28  1  0
 18 19  1  0
 19 20  1  6
 19 26  1  0
 20 21  1  0
 21 22  1  0
 21 23  1  0
 23 24  1  0
 23 25  1  0
 26 27  1  0
 27 28  2  0
 28 29  1  0
 29 30  1  0
M  END
