
     RDKit          3D

 30 31  0  0  0  0  0  0  0  0999 V2000
    4.7150    0.5670    0.5090 N   0  0  0  0  0  0  0  0  0  0  0  0
    5.1720   -0.4140    1.0690 C   0  0  0  0  0  0  0  0  0  0  0  0
    4.4540   -1.1190    2.1280 N   0  0  0  0  0  0  0  0  0  0  0  0
    3.1580   -0.5820    2.3730 O   0  0  0  0  0  0  0  0  0  0  0  0
    2.2880   -0.9020    1.2400 C   0  0  0  0  0  0  0  0  0  0  0  0
    2.7140   -1.7410    0.4520 O   0  0  0  0  0  0  0  0  0  0  0  0
    0.9650   -0.2170    1.0630 C   0  0  1  0  0  0  0  0  0  0  0  0
    1.1540    1.2630    1.4230 C   0  0  0  0  0  0  0  0  0  0  0  0
    1.9610    1.9320    0.5340 O   0  0  0  0  0  0  0  0  0  0  0  0
    1.9290    1.4420   -0.7670 C   0  0  0  0  0  0  0  0  0  0  0  0
    0.7250    0.9050   -1.0420 O   0  0  0  0  0  0  0  0  0  0  0  0
    0.5710   -0.3820   -0.3920 C   0  0  2  0  0  0  0  0  0  0  0  0
   -0.8420   -0.6280   -0.6500 C   0  0  0  0  0  0  0  0  0  0  0  0
   -1.2690   -1.4540   -1.6830 N   0  0  0  0  0  0  0  0  0  0  0  0
   -2.5340   -1.3110   -1.8540 O   0  0  0  0  0  0  0  0  0  0  0  0
   -2.9900   -0.3970   -0.9380 C   0  0  0  0  0  0  0  0  0  0  0  0
   -4.3380    0.0500   -0.8070 C   0  0  1  0  0  0  0  0  0  0  0  0
   -5.2940   -0.9510   -0.1540 C   0  0  0  0  0  0  0  0  0  0  0  0
   -5.3270   -1.9740   -1.0720 O   0  0  0  0  0  0  0  0  0  0  0  0
   -6.5840   -2.2930   -1.4420 O   0  0  0  0  0  0  0  0  0  0  0  0
   -4.6280    1.8090   -0.4170 P   0  0  0  0  0  0  0  0  0  0  0  0
   -4.9270    2.7060   -1.9080 O   0  0  0  0  0  0  0  0  0  0  0  0
   -6.5060    2.0410    0.7570 P   0  0  0  0  0  0  0  0  0  0  0  0
   -6.1840    1.6360    2.4150 O   0  0  0  0  0  0  0  0  0  0  0  0
   -7.7710    1.0880    0.0940 O   0  0  0  0  0  0  0  0  0  0  0  0
   -1.9090   -0.0300   -0.2570 N   0  0  0  0  0  0  0  0  0  0  0  0
    6.4700   -0.8660    0.6800 N   0  0  0  0  0  0  0  0  0  0  0  0
    7.4360    0.1770   -0.4420 P   0  0  0  0  0  0  0  0  0  0  0  0
    7.0530   -0.2390   -2.0750 O   0  0  0  0  0  0  0  0  0  0  0  0
    9.1070    0.0900   -0.1220 O   0  0  0  0  0  0  0  0  0  0  0  0
  1  2  2  0
  2  3  1  0
  2 27  1  0
  3  4  1  0
  4  5  1  0
  5  6  2  0
  7  5  1  6
  7  8  1  0
  7 12  1  0
  8  9  1  0
  9 10  1  0
 10 11  1  0
 11 12  1  0
 12 13  1  1
 13 14  2  0
 13 26  1  0
 14 15  1  0
 15 16  1  0
 16 17  1  0
 16 26  2  0
 17 18  1  1
 17 21  1  0
 18 19  1  0
 19 20  1  0
 21 22  1  0
 21 23  1  0
 23 24  1  0
 23 25  1  0
 27 28  1  0
 28 29  1  0
 28 30  1  0
M  END
