
     RDKit          3D

 31 33  0  0  0  0  0  0  0  0999 V2000
   -7.2780   -1.8720    1.8190 N   0  0  0  0  0  0  0  0  0  0  0  0
   -6.2030   -1.8870    0.8150 C   0  0  0  0  0  0  0  0  0  0  0  0
   -6.1250   -2.8920   -0.0250 N   0  0  0  0  0  0  0  0  0  0  0  0
   -5.1680   -2.8770   -0.9990 C   0  0  0  0  0  0  0  0  0  0  0  0
   -4.3270   -1.8360   -1.0820 N   0  0  0  0  0  0  0  0  0  0  0  0
   -4.3680   -0.8060   -0.2360 C   0  0  0  0  0  0  0  0  0  0  0  0
   -5.3240   -0.8290    0.7380 C   0  0  0  0  0  0  0  0  0  0  0  0
   -5.1650    0.2940    1.5000 N   0  0  0  0  0  0  0  0  0  0  0  0
   -4.1100    0.9720    0.9570 C   0  0  0  0  0  0  0  0  0  0  0  0
   -3.6120    0.3340   -0.1070 N   0  0  0  0  0  0  0  0  0  0  0  0
   -2.5840    0.7530   -1.0010 C   0  0  2  0  0  0  0  0  0  0  0  0
   -1.5920   -0.2040   -0.9240 O   0  0  0  0  0  0  0  0  0  0  0  0
   -0.5790    0.3360   -0.2610 C   0  0  2  0  0  0  0  0  0  0  0  0
    0.4700   -0.4630    0.4030 C   0  0  0  0  0  0  0  0  0  0  0  0
    1.1200   -1.1730   -0.6940 O   0  0  0  0  0  0  0  0  0  0  0  0
    2.7190   -0.7740   -0.6840 P   0  0  1  0  0  0  0  0  0  0  0  0
    3.2300   -0.7760   -2.1600 O   0  0  0  0  0  0  0  0  0  0  0  0
    2.8260    0.9260   -0.2940 O   0  0  0  0  0  0  0  0  0  0  0  0
    3.8280   -1.5200    0.2620 O   0  0  0  0  0  0  0  0  0  0  0  0
    5.3230   -0.7200   -0.1420 P   0  0  2  0  0  0  0  0  0  0  0  0
    5.0410    0.7760   -0.2990 O   0  0  0  0  0  0  0  0  0  0  0  0
    5.7850   -1.2620   -1.6620 O   0  0  0  0  0  0  0  0  0  0  0  0
    6.4790   -0.9340    1.0110 O   0  0  0  0  0  0  0  0  0  0  0  0
    7.6830    0.2460    0.9500 P   0  0  2  0  0  0  0  0  0  0  0  0
    8.8360   -0.1860    1.8280 O   0  0  0  0  0  0  0  0  0  0  0  0
    7.0890    1.7040    1.5840 O   0  0  0  0  0  0  0  0  0  0  0  0
    8.2670    0.5040   -0.6030 O   0  0  0  0  0  0  0  0  0  0  0  0
   -1.0110    1.5820    0.4590 C   0  0  1  0  0  0  0  0  0  0  0  0
    0.0470    2.5230    0.5540 O   0  0  0  0  0  0  0  0  0  0  0  0
   -2.0090    2.0760   -0.5560 C   0  0  1  0  0  0  0  0  0  0  0  0
   -1.3270    2.7060   -1.5820 O   0  0  0  0  0  0  0  0  0  0  0  0
  1  2  1  0
  2  3  2  0
  2  7  1  0
  3  4  1  0
  4  5  2  0
  5  6  1  0
  6  7  2  0
  6 10  1  0
  7  8  1  0
  8  9  2  0
  9 10  1  0
 11 10  1  1
 11 12  1  0
 11 30  1  0
 12 13  1  0
 13 14  1  1
 13 28  1  0
 14 15  1  0
 15 16  1  0
 16 17  2  0
 16 18  1  1
 16 19  1  0
 19 20  1  0
 20 21  2  0
 20 22  1  6
 20 23  1  0
 23 24  1  0
 24 25  2  0
 24 26  1  1
 24 27  1  0
 28 29  1  6
 28 30  1  0
 30 31  1  6
M  END
