
     RDKit          3D

 30 31  0  0  0  0  0  0  0  0999 V2000
    2.1460   -1.7850    1.6830 N   0  0  0  0  0  0  0  0  0  0  0  0
    2.5270   -1.4580    0.4920 C   0  0  0  0  0  0  0  0  0  0  0  0
    3.1840   -2.4580   -0.2750 N   0  0  0  0  0  0  0  0  0  0  0  0
    3.9060   -3.8460    0.6040 P   0  0  0  0  0  0  0  0  0  0  0  0
    4.7900   -3.3250    1.9990 O   0  0  0  0  0  0  0  0  0  0  0  0
    4.8870   -4.8070   -0.4540 O   0  0  0  0  0  0  0  0  0  0  0  0
    2.2950   -0.1510   -0.0240 N   0  0  0  0  0  0  0  0  0  0  0  0
    1.0200    0.4630    0.2030 C   0  0  0  0  0  0  0  0  0  0  0  0
   -0.0790   -0.2050   -0.5300 C   0  0  0  0  0  0  0  0  0  0  0  0
    0.1880   -1.1920   -1.2460 O   0  0  0  0  0  0  0  0  0  0  0  0
   -1.4040    0.2520   -0.4320 N   0  0  0  0  0  0  0  0  0  0  0  0
   -1.8370    1.4020    0.3830 C   0  0  0  0  0  0  0  0  0  0  0  0
   -3.0300    0.8690    1.1080 C   0  0  1  0  0  0  0  0  0  0  0  0
   -2.6210    0.2200    2.2540 O   0  0  0  0  0  0  0  0  0  0  0  0
   -4.0260    1.9660    1.4250 C   0  0  0  0  0  0  0  0  0  0  0  0
   -4.4680    2.6580    0.2530 N   0  0  0  0  0  0  0  0  0  0  0  0
   -3.6190   -0.1390    0.1380 C   0  0  2  0  0  0  0  0  0  0  0  0
   -3.7640   -1.3510    0.7820 O   0  0  0  0  0  0  0  0  0  0  0  0
   -4.3360   -2.2530   -0.1120 C   0  0  0  0  0  0  0  0  0  0  0  0
   -3.2740   -2.5820   -1.0250 O   0  0  0  0  0  0  0  0  0  0  0  0
   -2.5930   -1.5360   -1.6190 C   0  0  0  0  0  0  0  0  0  0  0  0
   -1.9420   -1.7560   -2.6630 O   0  0  0  0  0  0  0  0  0  0  0  0
   -2.6390   -0.2070   -1.0330 C   0  0  2  0  0  0  0  0  0  0  0  0
    3.6290    0.6370   -0.9270 P   0  0  0  0  0  0  0  0  0  0  0  0
    4.1180   -0.2690   -2.3010 O   0  0  0  0  0  0  0  0  0  0  0  0
    3.6920    0.2780   -3.4330 O   0  0  0  0  0  0  0  0  0  0  0  0
    3.2780    2.2840   -1.2790 O   0  0  0  0  0  0  0  0  0  0  0  0
    3.5730    3.2010    0.1880 P   0  0  0  0  0  0  0  0  0  0  0  0
    5.0990    2.7650    0.8790 O   0  0  0  0  0  0  0  0  0  0  0  0
    3.5610    4.8920   -0.1090 O   0  0  0  0  0  0  0  0  0  0  0  0
  1  2  2  0
  2  3  1  0
  2  7  1  0
  3  4  1  0
  4  5  1  0
  4  6  1  0
  7  8  1  0
  7 24  1  0
  8  9  1  0
  9 10  2  0
  9 11  1  0
 11 12  1  0
 23 11  1  1
 12 13  1  0
 13 14  1  1
 13 15  1  0
 13 17  1  0
 15 16  1  0
 17 18  1  1
 17 23  1  0
 18 19  1  0
 19 20  1  0
 20 21  1  0
 21 22  2  0
 21 23  1  0
 24 25  1  0
 24 27  1  0
 25 26  1  0
 27 28  1  0
 28 29  1  0
 28 30  1  0
M  END
