
     RDKit          3D

 30 31  0  0  0  0  0  0  0  0999 V2000
    1.8330   -4.9800    0.6370 O   0  0  0  0  0  0  0  0  0  0  0  0
    1.7890   -3.4140    0.6770 P   0  0  0  0  0  0  0  0  0  0  0  0
    1.6500   -2.5560   -0.8010 O   0  0  0  0  0  0  0  0  0  0  0  0
    2.1700   -1.2470   -0.7260 C   0  0  1  0  0  0  0  0  0  0  0  0
    3.5720   -1.2880   -0.3800 N   0  0  0  0  0  0  0  0  0  0  0  0
    4.3070   -0.0740   -0.3430 C   0  0  0  0  0  0  0  0  0  0  0  0
    3.8240    1.0600   -0.5940 O   0  0  0  0  0  0  0  0  0  0  0  0
    5.7060   -0.1180    0.0030 N   0  0  0  0  0  0  0  0  0  0  0  0
    6.6900    1.3880    0.0690 P   0  0  0  0  0  0  0  0  0  0  0  0
    8.0320    1.1750   -1.0140 O   0  0  0  0  0  0  0  0  0  0  0  0
    5.7000    2.7100   -0.4460 O   0  0  0  0  0  0  0  0  0  0  0  0
    1.9750   -0.6770   -2.1280 C   0  0  0  0  0  0  0  0  0  0  0  0
    0.6500   -0.7950   -2.5100 O   0  0  0  0  0  0  0  0  0  0  0  0
   -0.2450   -0.5250   -1.4690 C   0  0  0  0  0  0  0  0  0  0  0  0
    0.5030    0.2430   -0.4280 C   0  0  1  0  0  0  0  0  0  0  0  0
   -0.4280    0.8930    0.5690 C   0  0  0  0  0  0  0  0  0  0  0  0
   -1.6770    0.7030    0.4980 N   0  0  0  0  0  0  0  0  0  0  0  0
   -2.6830    1.2300    1.3430 C   0  0  1  0  0  0  0  0  0  0  0  0
   -3.3880    0.1450    1.8880 O   0  0  0  0  0  0  0  0  0  0  0  0
   -4.6880    0.0580    1.4720 C   0  0  0  0  0  0  0  0  0  0  0  0
   -4.9000   -0.1180    0.0070 C   0  0  0  0  0  0  0  0  0  0  0  0
   -4.2820   -1.2920   -0.4100 O   0  0  0  0  0  0  0  0  0  0  0  0
   -4.5200   -1.5180   -2.1070 P   0  0  0  0  0  0  0  0  0  0  0  0
   -5.2660   -0.0890   -2.7440 O   0  0  0  0  0  0  0  0  0  0  0  0
   -5.6170   -2.8640   -2.3090 O   0  0  0  0  0  0  0  0  0  0  0  0
   -2.1260    2.0920    2.3920 C   0  0  0  0  0  0  0  0  0  0  0  0
   -2.8850    2.6690    3.2520 O   0  0  0  0  0  0  0  0  0  0  0  0
   -0.7430    2.3180    2.4950 N   0  0  0  0  0  0  0  0  0  0  0  0
    0.1180    1.7200    1.5840 N   0  0  0  0  0  0  0  0  0  0  0  0
    1.4290   -0.5710    0.2200 O   0  0  0  0  0  0  0  0  0  0  0  0
  1  2  2  0
  2  3  1  0
  3  4  1  0
  4  5  1  1
  4 12  1  0
  4 30  1  0
  5  6  1  0
  6  7  2  0
  6  8  1  0
  8  9  1  0
  9 10  1  0
  9 11  1  0
 12 13  1  0
 13 14  1  0
 14 15  1  0
 15 16  1  1
 15 30  1  0
 16 17  2  0
 16 29  1  0
 17 18  1  0
 18 19  1  1
 18 26  1  0
 19 20  1  0
 20 21  1  0
 21 22  1  0
 22 23  1  0
 23 24  1  0
 23 25  1  0
 26 27  2  0
 26 28  1  0
 28 29  1  0
M  END
