
     RDKit          3D

 30 32  0  0  0  0  0  0  0  0999 V2000
    2.4130   -2.3810    1.4550 C   0  0  0  0  0  0  0  0  0  0  0  0
    1.5410   -1.1700    1.1440 C   0  0  1  0  0  0  0  0  0  0  0  0
    0.3640   -1.6650    0.5340 O   0  0  0  0  0  0  0  0  0  0  0  0
   -0.6990   -0.9100    0.0990 C   0  0  0  0  0  0  0  0  0  0  0  0
   -0.6550    0.3330    0.2430 O   0  0  0  0  0  0  0  0  0  0  0  0
   -1.9100   -1.4900   -0.5370 C   0  0  0  0  0  0  0  0  0  0  0  0
   -2.8660   -0.4610   -0.8930 N   0  0  0  0  0  0  0  0  0  0  0  0
   -2.9650    0.2590   -2.1090 C   0  0  0  0  0  0  0  0  0  0  0  0
   -2.1980    0.1070   -3.1180 O   0  0  0  0  0  0  0  0  0  0  0  0
   -4.0470    1.1740   -2.0320 N   0  0  0  0  0  0  0  0  0  0  0  0
   -4.6330    1.0450   -0.7890 N   0  0  0  0  0  0  0  0  0  0  0  0
   -3.9360    0.0520   -0.0650 C   0  0  0  0  0  0  0  0  0  0  0  0
   -4.2320   -0.3070    1.1270 N   0  0  0  0  0  0  0  0  0  0  0  0
   -5.2620    0.1840    1.9310 C   0  0  0  0  0  0  0  0  0  0  0  0
   -5.4120   -0.2960    3.1090 O   0  0  0  0  0  0  0  0  0  0  0  0
   -6.1790    1.1660    1.6000 O   0  0  0  0  0  0  0  0  0  0  0  0
   -6.0420    1.8740    0.0060 P   0  0  0  0  0  0  0  0  0  0  0  0
   -7.4520    1.3930   -0.8960 O   0  0  0  0  0  0  0  0  0  0  0  0
    1.2170   -0.4160    2.3710 C   0  0  0  0  0  0  0  0  0  0  0  0
    0.9580   -0.9210    3.4960 O   0  0  0  0  0  0  0  0  0  0  0  0
    1.2650    0.9510    1.9980 N   0  0  0  0  0  0  0  0  0  0  0  0
    2.1010    1.1230    0.8450 C   0  0  0  0  0  0  0  0  0  0  0  0
    2.3410   -0.2440    0.3150 C   0  0  1  0  0  0  0  0  0  0  0  0
    3.7060   -0.5620    0.4720 O   0  0  0  0  0  0  0  0  0  0  0  0
    2.0420   -0.3450   -1.0550 O   0  0  0  0  0  0  0  0  0  0  0  0
    3.0540    0.7980   -1.8910 P   0  0  0  0  0  0  0  0  0  0  0  0
    3.4410    0.2450   -3.4880 O   0  0  0  0  0  0  0  0  0  0  0  0
    4.9270    1.1400   -0.8130 P   0  0  0  0  0  0  0  0  0  0  0  0
    5.6600    2.6350   -1.2240 O   0  0  0  0  0  0  0  0  0  0  0  0
    5.9780   -0.2150   -1.0260 O   0  0  0  0  0  0  0  0  0  0  0  0
  2  1  1  1
  2  3  1  0
  2 19  1  0
  2 23  1  0
  3  4  1  0
  4  5  2  0
  4  6  1  0
  6  7  1  0
  7  8  1  0
  7 12  1  0
  8  9  2  0
  8 10  1  0
 10 11  1  0
 11 12  1  0
 11 17  1  0
 12 13  2  0
 13 14  1  0
 14 15  2  0
 14 16  1  0
 16 17  1  0
 17 18  1  0
 19 20  2  0
 19 21  1  0
 21 22  1  0
 22 23  1  0
 23 24  1  6
 23 25  1  0
 25 26  1  0
 26 27  1  0
 26 28  1  0
 28 29  1  0
 28 30  1  0
M  END
