
     RDKit          3D

 20 21  0  0  0  0  0  0  0  0999 V2000
    2.1110   -0.2320   -3.7570 C   0  0  0  0  0  0  0  0  0  0  0  0
    2.7810   -1.3080   -3.4250 C   0  0  0  0  0  0  0  0  0  0  0  0
    2.3250   -2.0990   -2.2880 C   0  0  0  0  0  0  0  0  0  0  0  0
    2.9520   -3.2010   -1.9150 C   0  0  0  0  0  0  0  0  0  0  0  0
    4.1460   -3.6250   -2.6850 C   0  0  0  0  0  0  0  0  0  0  0  0
    1.1660   -1.7260   -1.5140 N   0  0  0  0  0  0  0  0  0  0  0  0
    1.2220   -0.5200   -0.7880 C   0  0  0  0  0  0  0  0  0  0  0  0
    2.2030    0.2620   -0.7530 O   0  0  0  0  0  0  0  0  0  0  0  0
    0.0280   -0.1210    0.0090 C   0  0  0  0  0  0  0  0  0  0  0  0
   -0.9470   -0.9050   -0.0310 O   0  0  0  0  0  0  0  0  0  0  0  0
    0.0050    1.0570    0.7530 N   0  0  0  0  0  0  0  0  0  0  0  0
   -1.0940    1.4870    1.5300 C   0  0  0  0  0  0  0  0  0  0  0  0
   -0.9710    2.7710    2.0780 C   0  0  0  0  0  0  0  0  0  0  0  0
   -1.9590    3.3020    2.8540 C   0  0  0  0  0  0  0  0  0  0  0  0
   -3.1130    2.6160    3.1390 C   0  0  0  0  0  0  0  0  0  0  0  0
   -3.2420    1.3520    2.6050 C   0  0  0  0  0  0  0  0  0  0  0  0
   -2.2290    0.8000    1.8040 C   0  0  0  0  0  0  0  0  0  0  0  0
   -4.4600    0.8320    3.0020 O   0  0  0  0  0  0  0  0  0  0  0  0
   -5.2280    1.9280    3.4380 C   0  0  0  0  0  0  0  0  0  0  0  0
   -4.2660    2.8620    3.8670 O   0  0  0  0  0  0  0  0  0  0  0  0
  1  2  2  0
  2  3  1  0
  3  4  2  3
  3  6  1  0
  4  5  1  0
  6  7  1  0
  7  8  2  0
  7  9  1  0
  9 10  2  0
  9 11  1  0
 11 12  1  0
 12 13  2  0
 12 17  1  0
 13 14  1  0
 14 15  2  0
 15 16  1  0
 15 20  1  0
 16 17  2  0
 16 18  1  0
 18 19  1  0
 19 20  1  0
M  END
