
     RDKit          3D

 20 21  0  0  0  0  0  0  0  0999 V2000
   -6.5990    0.4470    0.7290 C   0  0  0  0  0  0  0  0  0  0  0  0
   -5.1040    0.4120    0.5360 C   0  0  0  0  0  0  0  0  0  0  0  0
   -4.5480   -0.4080   -0.3150 C   0  0  0  0  0  0  0  0  0  0  0  0
   -3.0750   -0.4120   -0.4810 C   0  0  0  0  0  0  0  0  0  0  0  0
   -2.6250   -1.2140   -1.3030 O   0  0  0  0  0  0  0  0  0  0  0  0
   -2.2910    0.5020    0.3100 C   0  0  0  0  0  0  0  0  0  0  0  0
   -1.0210    0.4490    0.4490 C   0  0  0  0  0  0  0  0  0  0  0  0
   -0.0940   -0.4940   -0.1200 C   0  0  0  0  0  0  0  0  0  0  0  0
   -0.3350   -1.4690   -0.8600 O   0  0  0  0  0  0  0  0  0  0  0  0
    1.3420   -0.3540    0.1600 N   0  0  0  0  0  0  0  0  0  0  0  0
    2.2510   -1.2730   -0.4010 C   0  0  0  0  0  0  0  0  0  0  0  0
    3.6570   -0.8200   -0.2950 C   0  0  0  0  0  0  0  0  0  0  0  0
    4.6700   -1.6980   -0.6590 C   0  0  0  0  0  0  0  0  0  0  0  0
    5.9710   -1.3460   -0.5850 C   0  0  0  0  0  0  0  0  0  0  0  0
    6.2950   -0.1100   -0.1460 N   0  0  0  0  0  0  0  0  0  0  0  0
    5.3540    0.7780    0.2190 C   0  0  0  0  0  0  0  0  0  0  0  0
    5.7420    2.0240    0.6600 O   0  0  0  0  0  0  0  0  0  0  0  0
    4.0010    0.4160    0.1430 C   0  0  0  0  0  0  0  0  0  0  0  0
   -3.0260    1.6170    1.0410 C   0  0  0  0  0  0  0  0  0  0  0  0
   -4.3550    1.2740    1.2800 O   0  0  0  0  0  0  0  0  0  0  0  0
  1  2  1  0
  2  3  2  0
  2 20  1  0
  3  4  1  0
  4  5  2  0
  4  6  1  0
  6  7  2  3
  6 19  1  0
  7  8  1  0
  8  9  2  0
  8 10  1  0
 10 11  1  0
 11 12  1  0
 12 13  2  0
 12 18  1  0
 13 14  1  0
 14 15  2  0
 15 16  1  0
 16 17  1  0
 16 18  2  0
 19 20  1  0
M  END
