
     RDKit          3D

 20 21  0  0  0  0  0  0  0  0999 V2000
   -5.5110   -1.1620   -0.2920 C   0  0  0  0  0  0  0  0  0  0  0  0
   -4.3850   -0.2950    0.0360 N   0  0  0  0  0  0  0  0  0  0  0  0
   -3.1260   -0.6750   -0.1480 C   0  0  0  0  0  0  0  0  0  0  0  0
   -2.0020    0.0730    0.1320 C   0  0  0  0  0  0  0  0  0  0  0  0
   -0.6430   -0.4700   -0.1210 C   0  0  0  0  0  0  0  0  0  0  0  0
   -0.5910   -1.6310   -0.5910 O   0  0  0  0  0  0  0  0  0  0  0  0
    0.5230    0.2360    0.1350 N   0  0  0  0  0  0  0  0  0  0  0  0
    1.8450   -0.1990   -0.0690 C   0  0  0  0  0  0  0  0  0  0  0  0
    2.1830   -1.4680   -0.4060 C   0  0  0  0  0  0  0  0  0  0  0  0
    3.5050   -1.8600   -0.6110 C   0  0  0  0  0  0  0  0  0  0  0  0
    4.5170   -0.9340   -0.4690 C   0  0  0  0  0  0  0  0  0  0  0  0
    4.2190    0.3720   -0.1250 C   0  0  0  0  0  0  0  0  0  0  0  0
    5.2920    1.3340    0.0210 C   0  0  0  0  0  0  0  0  0  0  0  0
    5.0110    2.5280    0.3360 O   0  0  0  0  0  0  0  0  0  0  0  0
    6.6270    1.0250   -0.1650 O   0  0  0  0  0  0  0  0  0  0  0  0
    2.9050    0.7100    0.0660 C   0  0  0  0  0  0  0  0  0  0  0  0
   -2.2140    1.3300    0.6490 C   0  0  0  0  0  0  0  0  0  0  0  0
   -3.5380    1.7420    0.8470 C   0  0  0  0  0  0  0  0  0  0  0  0
   -4.6080    0.9290    0.5400 C   0  0  0  0  0  0  0  0  0  0  0  0
   -5.7960    1.3300    0.7310 O   0  0  0  0  0  0  0  0  0  0  0  0
  1  2  1  0
  2  3  1  0
  2 19  1  0
  3  4  2  0
  4  5  1  0
  4 17  1  0
  5  6  2  0
  5  7  1  0
  7  8  1  0
  8  9  2  0
  8 16  1  0
  9 10  1  0
 10 11  2  0
 11 12  1  0
 12 13  1  0
 12 16  2  0
 13 14  2  0
 13 15  1  0
 17 18  2  0
 18 19  1  0
 19 20  2  0
M  END
