
     RDKit          3D

 20 21  0  0  0  0  0  0  0  0999 V2000
   -1.3110   -1.9760    2.6690 C   0  0  0  0  0  0  0  0  0  0  0  0
   -1.7900   -1.1850    1.4850 C   0  0  0  0  0  0  0  0  0  0  0  0
   -0.9620    0.0820    1.3490 C   0  0  0  0  0  0  0  0  0  0  0  0
   -1.3740    0.9040    0.2140 C   0  0  0  0  0  0  0  0  0  0  0  0
   -2.7240    1.4950    0.3550 N   0  0  0  0  0  0  0  0  0  0  0  0
   -2.8150    2.7500    1.0370 C   0  0  0  0  0  0  0  0  0  0  0  0
   -0.7950    1.2180   -0.9050 C   0  0  0  0  0  0  0  0  0  0  0  0
   -1.3480    2.0810   -1.9720 C   0  0  0  0  0  0  0  0  0  0  0  0
   -2.4660    2.6520   -1.9000 O   0  0  0  0  0  0  0  0  0  0  0  0
   -0.4130    2.1180   -3.0120 N   0  0  0  0  0  0  0  0  0  0  0  0
    0.7040    1.3350   -2.6820 C   0  0  0  0  0  0  0  0  0  0  0  0
    1.8830    0.9450   -3.1690 O   0  0  0  0  0  0  0  0  0  0  0  0
    2.4790    0.1700   -2.3210 C   0  0  0  0  0  0  0  0  0  0  0  0
    3.8190   -0.4980   -2.4500 C   0  0  0  0  0  0  0  0  0  0  0  0
    1.6400    0.0450   -1.2080 C   0  0  0  0  0  0  0  0  0  0  0  0
    1.9710   -0.7580   -0.0740 C   0  0  0  0  0  0  0  0  0  0  0  0
    2.6360   -0.2620    0.8990 O   0  0  0  0  0  0  0  0  0  0  0  0
    1.6150   -2.0890    0.0630 O   0  0  0  0  0  0  0  0  0  0  0  0
    1.9710   -2.8300    1.2050 C   0  0  0  0  0  0  0  0  0  0  0  0
    0.4940    0.7920   -1.4310 C   0  0  0  0  0  0  0  0  0  0  0  0
  1  2  1  0
  2  3  1  0
  3  4  1  0
  4  5  1  0
  4  7  2  3
  5  6  1  0
  7  8  1  0
  7 20  1  0
  8  9  2  0
  8 10  1  0
 10 11  1  0
 11 12  1  0
 11 20  2  0
 12 13  1  0
 13 14  1  0
 13 15  2  0
 15 16  1  0
 15 20  1  0
 16 17  2  0
 16 18  1  0
 18 19  1  0
M  END
