
     RDKit          3D

 20 21  0  0  0  0  0  0  0  0999 V2000
   -6.0740    1.1340    0.5840 C   0  0  0  0  0  0  0  0  0  0  0  0
   -4.9210    0.4910    0.4770 C   0  0  0  0  0  0  0  0  0  0  0  0
   -3.9530    0.7800   -0.5530 C   0  0  0  0  0  0  0  0  0  0  0  0
   -2.9240   -0.0920   -0.7180 C   0  0  0  0  0  0  0  0  0  0  0  0
   -1.9560    0.2290   -1.7730 C   0  0  0  0  0  0  0  0  0  0  0  0
   -0.6120    0.4760   -1.3790 N   0  0  0  0  0  0  0  0  0  0  0  0
    0.2840   -0.4430   -0.7880 C   0  0  0  0  0  0  0  0  0  0  0  0
   -0.0080   -1.6280   -0.5570 O   0  0  0  0  0  0  0  0  0  0  0  0
    1.6180   -0.0510   -0.4090 N   0  0  0  0  0  0  0  0  0  0  0  0
    2.5310   -1.0010    0.1980 C   0  0  0  0  0  0  0  0  0  0  0  0
    3.8420   -0.3740    0.5010 C   0  0  0  0  0  0  0  0  0  0  0  0
    4.1980    0.2590    1.6740 C   0  0  0  0  0  0  0  0  0  0  0  0
    5.5150    0.6880    1.5070 C   0  0  0  0  0  0  0  0  0  0  0  0
    5.8880    0.2920    0.2460 C   0  0  0  0  0  0  0  0  0  0  0  0
    7.1860    0.5310   -0.3500 C   0  0  0  0  0  0  0  0  0  0  0  0
    8.0680    1.1380    0.2920 O   0  0  0  0  0  0  0  0  0  0  0  0
    4.8540   -0.3360   -0.3110 O   0  0  0  0  0  0  0  0  0  0  0  0
   -2.8590   -1.2920    0.1180 C   0  0  0  0  0  0  0  0  0  0  0  0
   -4.1230   -1.6540    0.6370 O   0  0  0  0  0  0  0  0  0  0  0  0
   -4.5730   -0.5930    1.4570 C   0  0  0  0  0  0  0  0  0  0  0  0
  1  2  2  0
  2  3  1  0
  2 20  1  0
  3  4  2  0
  4  5  1  0
  4 18  1  0
  5  6  1  0
  6  7  1  0
  7  8  2  0
  7  9  1  0
  9 10  1  0
 10 11  1  0
 11 12  2  0
 11 17  1  0
 12 13  1  0
 13 14  2  0
 14 15  1  0
 14 17  1  0
 15 16  2  0
 18 19  1  0
 19 20  1  0
M  END
