
     RDKit          3D

 20 21  0  0  0  0  0  0  0  0999 V2000
    5.5820    1.6750    0.5840 C   0  0  0  0  0  0  0  0  0  0  0  0
    4.5680    0.6840    0.7650 O   0  0  0  0  0  0  0  0  0  0  0  0
    3.2930    0.8440    0.2290 C   0  0  0  0  0  0  0  0  0  0  0  0
    3.0630    1.8770   -0.4120 O   0  0  0  0  0  0  0  0  0  0  0  0
    2.2630   -0.2100    0.4390 C   0  0  0  0  0  0  0  0  0  0  0  0
    2.5670   -1.2270    1.0980 O   0  0  0  0  0  0  0  0  0  0  0  0
    0.9920   -0.0060   -0.1190 N   0  0  0  0  0  0  0  0  0  0  0  0
   -0.0880   -0.9080   -0.0190 C   0  0  0  0  0  0  0  0  0  0  0  0
    0.0840   -2.2780    0.2280 C   0  0  0  0  0  0  0  0  0  0  0  0
   -0.9760   -3.1750    0.1780 C   0  0  0  0  0  0  0  0  0  0  0  0
   -2.2470   -2.7580   -0.1180 C   0  0  0  0  0  0  0  0  0  0  0  0
   -3.3840   -3.6740   -0.1810 C   0  0  0  0  0  0  0  0  0  0  0  0
   -4.5550   -3.3290   -0.4480 O   0  0  0  0  0  0  0  0  0  0  0  0
   -2.4290   -1.4370   -0.3570 C   0  0  0  0  0  0  0  0  0  0  0  0
   -1.3670   -0.4970   -0.3110 C   0  0  0  0  0  0  0  0  0  0  0  0
   -1.6960    0.9090   -0.4350 C   0  0  0  0  0  0  0  0  0  0  0  0
   -2.8350    1.3350   -1.1360 C   0  0  0  0  0  0  0  0  0  0  0  0
   -2.9000    2.7080   -1.1600 C   0  0  0  0  0  0  0  0  0  0  0  0
   -1.7920    3.1300   -0.4680 C   0  0  0  0  0  0  0  0  0  0  0  0
   -1.1130    2.0400   -0.0580 N   0  0  0  0  0  0  0  0  0  0  0  0
  1  2  1  0
  2  3  1  0
  3  4  2  0
  3  5  1  0
  5  6  2  0
  5  7  1  0
  7  8  1  0
  8  9  2  0
  8 15  1  0
  9 10  1  0
 10 11  2  0
 11 12  1  0
 11 14  1  0
 12 13  2  0
 14 15  2  0
 15 16  1  0
 16 17  2  0
 16 20  1  0
 17 18  1  0
 18 19  2  0
 19 20  1  0
M  END
