
     RDKit          3D

 20 21  0  0  0  0  0  0  0  0999 V2000
    4.4690    0.7200   -1.7310 C   0  0  0  0  0  0  0  0  0  0  0  0
    4.6090   -0.4700   -1.1940 C   0  0  0  0  0  0  0  0  0  0  0  0
    4.4050   -0.6860    0.2070 C   0  0  0  0  0  0  0  0  0  0  0  0
    4.5680   -1.9200    0.7120 C   0  0  0  0  0  0  0  0  0  0  0  0
    4.0270    0.3990    1.1160 C   0  0  0  0  0  0  0  0  0  0  0  0
    2.7460    0.9370    0.7110 N   0  0  0  0  0  0  0  0  0  0  0  0
    1.6410    0.0370    0.6830 C   0  0  0  0  0  0  0  0  0  0  0  0
    1.8050   -1.1700    1.0040 O   0  0  0  0  0  0  0  0  0  0  0  0
    0.3140    0.5190    0.2810 C   0  0  0  0  0  0  0  0  0  0  0  0
    0.2160    1.7130   -0.0220 O   0  0  0  0  0  0  0  0  0  0  0  0
   -0.7700   -0.3590    0.2530 N   0  0  0  0  0  0  0  0  0  0  0  0
   -2.0630   -0.0020   -0.1180 C   0  0  0  0  0  0  0  0  0  0  0  0
   -2.3770    1.1520   -0.7580 C   0  0  0  0  0  0  0  0  0  0  0  0
   -3.6860    1.4940   -1.1040 C   0  0  0  0  0  0  0  0  0  0  0  0
   -4.6940    0.6170   -0.7800 C   0  0  0  0  0  0  0  0  0  0  0  0
   -4.4290   -0.5690   -0.1310 C   0  0  0  0  0  0  0  0  0  0  0  0
   -3.1240   -0.8630    0.1900 C   0  0  0  0  0  0  0  0  0  0  0  0
   -5.6170   -1.2240    0.0550 O   0  0  0  0  0  0  0  0  0  0  0  0
   -6.6990   -0.4700   -0.4630 C   0  0  0  0  0  0  0  0  0  0  0  0
   -6.0750    0.6630   -0.9830 O   0  0  0  0  0  0  0  0  0  0  0  0
  1  2  2  0
  2  3  1  0
  3  4  2  0
  3  5  1  0
  5  6  1  0
  6  7  1  0
  7  8  2  0
  7  9  1  0
  9 10  2  0
  9 11  1  0
 11 12  1  0
 12 13  2  0
 12 17  1  0
 13 14  1  0
 14 15  2  0
 15 16  1  0
 15 20  1  0
 16 17  2  0
 16 18  1  0
 18 19  1  0
 19 20  1  0
M  END
