
     RDKit          3D

 22 23  0  0  0  0  0  0  0  0999 V2000
   -4.7840    1.8080    1.0440 C   0  0  0  0  0  0  0  0  0  0  0  0
   -3.6690    1.1640    0.2700 C   0  0  2  0  0  0  0  0  0  0  0  0
   -3.9090    1.3190   -1.2230 C   0  0  0  0  0  0  0  0  0  0  0  0
   -3.5680   -0.2290    0.5120 O   0  0  0  0  0  0  0  0  0  0  0  0
   -2.5870   -0.3950    1.4760 C   0  0  0  0  0  0  0  0  0  0  0  0
   -2.2780   -1.5170    1.9730 O   0  0  0  0  0  0  0  0  0  0  0  0
   -2.0190    0.8460    1.7920 O   0  0  0  0  0  0  0  0  0  0  0  0
   -2.3160    1.6580    0.6610 C   0  0  1  0  0  0  0  0  0  0  0  0
   -1.2920    1.5400   -0.3860 C   0  0  0  0  0  0  0  0  0  0  0  0
   -1.3560    2.1690   -1.4700 O   0  0  0  0  0  0  0  0  0  0  0  0
   -0.1880    0.6860   -0.1720 N   0  0  0  0  0  0  0  0  0  0  0  0
    0.8790    0.4910   -1.1310 C   0  0  2  0  0  0  0  0  0  0  0  0
    0.8090   -1.2120   -1.6890 S   0  0  0  0  0  0  0  0  0  0  0  0
    2.1450   -2.1020   -0.7940 C   0  0  0  0  0  0  0  0  0  0  0  0
    3.3720   -1.2170   -0.9730 C   0  0  2  0  0  0  0  0  0  0  0  0
    4.6110   -1.8550   -0.4590 C   0  0  0  0  0  0  0  0  0  0  0  0
    4.5800   -2.1830    0.9790 C   0  0  0  0  0  0  0  0  0  0  0  0
    3.6060   -1.9520    1.7390 O   0  0  0  0  0  0  0  0  0  0  0  0
    5.7000   -2.7860    1.5290 O   0  0  0  0  0  0  0  0  0  0  0  0
    3.1630    0.0090   -0.2990 O   0  0  0  0  0  0  0  0  0  0  0  0
    2.1840    0.9150   -0.6450 C   0  0  0  0  0  0  0  0  0  0  0  0
    2.4370    2.1390   -0.5330 O   0  0  0  0  0  0  0  0  0  0  0  0
  2  1  1  1
  2  3  1  0
  2  4  1  0
  2  8  1  0
  4  5  1  0
  5  6  2  0
  5  7  1  0
  7  8  1  0
  8  9  1  6
  9 10  2  0
  9 11  1  0
 12 11  1  1
 12 13  1  0
 12 21  1  0
 13 14  1  0
 14 15  1  0
 15 16  1  1
 15 20  1  0
 16 17  1  0
 17 18  2  0
 17 19  1  0
 20 21  1  0
 21 22  2  0
M  END
