
     RDKit          3D

 21 22  0  0  0  0  0  0  0  0999 V2000
    4.7130    1.5220    0.0770 C   0  0  0  0  0  0  0  0  0  0  0  0
    3.5390    1.4360    0.8180 O   0  0  0  0  0  0  0  0  0  0  0  0
    3.0600    0.1600    0.9770 C   0  0  0  0  0  0  0  0  0  0  0  0
    2.7240   -0.5700   -0.2760 C   0  0  1  0  0  0  0  0  0  0  0  0
    2.4430   -2.0170    0.0750 C   0  0  0  0  0  0  0  0  0  0  0  0
    0.7270   -2.3470    0.4650 S   0  0  0  0  0  0  0  0  0  0  0  0
   -0.3200   -2.3620   -0.9610 C   0  0  0  0  0  0  0  0  0  0  0  0
    0.1840   -2.5820   -2.0870 O   0  0  0  0  0  0  0  0  0  0  0  0
   -1.7090   -2.1300   -0.8320 N   0  0  0  0  0  0  0  0  0  0  0  0
   -2.2830   -1.5220    0.3310 C   0  0  0  0  0  0  0  0  0  0  0  0
   -2.7680   -0.1310    0.0210 C   0  0  1  0  0  0  0  0  0  0  0  0
   -4.0080   -0.2130   -0.8290 C   0  0  0  0  0  0  0  0  0  0  0  0
   -4.7940    0.8220   -0.3950 O   0  0  0  0  0  0  0  0  0  0  0  0
   -4.2780    1.2970    0.7920 C   0  0  0  0  0  0  0  0  0  0  0  0
   -3.2070    0.5170    1.1500 O   0  0  0  0  0  0  0  0  0  0  0  0
   -1.6820    0.7000   -0.6200 C   0  0  0  0  0  0  0  0  0  0  0  0
   -0.6130    0.7090    0.2730 O   0  0  0  0  0  0  0  0  0  0  0  0
    0.3250    1.6870   -0.0330 C   0  0  0  0  0  0  0  0  0  0  0  0
    1.2580    1.2750   -1.1130 C   0  0  0  0  0  0  0  0  0  0  0  0
    1.5220    2.1560   -1.9870 O   0  0  0  0  0  0  0  0  0  0  0  0
    1.7570   -0.0010   -1.0890 O   0  0  0  0  0  0  0  0  0  0  0  0
  1  2  1  0
  2  3  1  0
  4  3  1  1
  4  5  1  0
  4 21  1  0
  5  6  1  0
  6  7  1  0
  7  8  2  0
  7  9  1  0
  9 10  1  0
 11 10  1  1
 11 12  1  0
 11 15  1  0
 11 16  1  0
 12 13  1  0
 13 14  1  0
 14 15  1  0
 16 17  1  0
 17 18  1  0
 18 19  1  0
 19 20  2  0
 19 21  1  0
M  END
