
     RDKit          3D

 23 24  0  0  0  0  0  0  0  0999 V2000
   -4.7040    2.0230    0.3520 C   0  0  0  0  0  0  0  0  0  0  0  0
   -4.7620    0.6280    0.8810 C   0  0  1  0  0  0  0  0  0  0  0  0
   -5.9080   -0.0510    0.2690 N   0  0  0  0  0  0  0  0  0  0  0  0
   -5.5820   -1.4710    0.3720 C   0  0  0  0  0  0  0  0  0  0  0  0
   -4.0930   -1.4620    0.1830 C   0  0  0  0  0  0  0  0  0  0  0  0
   -3.2320   -2.4100   -0.2050 N   0  0  0  0  0  0  0  0  0  0  0  0
   -1.9230   -2.1820   -0.3060 C   0  0  0  0  0  0  0  0  0  0  0  0
   -1.2110   -3.1510   -0.6820 O   0  0  0  0  0  0  0  0  0  0  0  0
   -1.3830   -0.9550   -0.0160 N   0  0  0  0  0  0  0  0  0  0  0  0
   -0.0120   -0.8550   -0.1630 N   0  0  0  0  0  0  0  0  0  0  0  0
    0.8380    0.2370    0.0470 C   0  0  0  0  0  0  0  0  0  0  0  0
    0.3800    1.3230    0.4240 O   0  0  0  0  0  0  0  0  0  0  0  0
    2.2950    0.0940   -0.1810 C   0  0  0  0  0  0  0  0  0  0  0  0
    2.8210   -0.9690   -0.5610 O   0  0  0  0  0  0  0  0  0  0  0  0
    3.1040    1.1730    0.0300 O   0  0  0  0  0  0  0  0  0  0  0  0
    4.4540    1.2660   -0.1110 C   0  0  0  0  0  0  0  0  0  0  0  0
    5.3610    0.4410    0.7030 C   0  0  1  0  0  0  0  0  0  0  0  0
    5.1570   -0.9090    0.4960 O   0  0  0  0  0  0  0  0  0  0  0  0
    6.7910    0.7190    0.2080 C   0  0  0  0  0  0  0  0  0  0  0  0
    6.9380    0.4100   -1.1260 O   0  0  0  0  0  0  0  0  0  0  0  0
   -2.2330   -0.0080    0.3700 C   0  0  0  0  0  0  0  0  0  0  0  0
   -1.8780    1.1430    0.6610 O   0  0  0  0  0  0  0  0  0  0  0  0
   -3.6210   -0.2150    0.4880 C   0  0  0  0  0  0  0  0  0  0  0  0
  2  1  1  6
  2  3  1  0
  2 23  1  0
  3  4  1  0
  4  5  1  0
  5  6  1  0
  5 23  2  0
  6  7  1  0
  7  8  2  0
  7  9  1  0
  9 10  1  0
  9 21  1  0
 10 11  1  0
 11 12  2  0
 11 13  1  0
 13 14  2  0
 13 15  1  0
 15 16  1  0
 16 17  1  0
 17 18  1  6
 17 19  1  0
 19 20  1  0
 21 22  2  0
 21 23  1  0
M  END
