
     RDKit          3D

 21 22  0  0  0  0  0  0  0  0999 V2000
   -3.3410   -1.6600    0.2190 C   0  0  0  0  0  0  0  0  0  0  0  0
   -1.9610   -1.0490   -0.0620 C   0  0  2  0  0  0  0  0  0  0  0  0
   -2.1000   -0.0570   -1.0220 O   0  0  0  0  0  0  0  0  0  0  0  0
   -2.3510    1.2800   -0.8680 C   0  0  0  0  0  0  0  0  0  0  0  0
   -3.3840    1.8080   -1.4010 O   0  0  0  0  0  0  0  0  0  0  0  0
   -1.3850    2.1010   -0.0610 C   0  0  0  0  0  0  0  0  0  0  0  0
   -0.2660    2.2870   -0.8560 O   0  0  0  0  0  0  0  0  0  0  0  0
    0.9430    2.8900   -0.5800 C   0  0  0  0  0  0  0  0  0  0  0  0
    1.8750    2.3550    0.2280 C   0  0  0  0  0  0  0  0  0  0  0  0
    1.7390    1.0630    0.9250 C   0  0  0  0  0  0  0  0  0  0  0  0
    1.5790   -0.1060   -0.0080 C   0  0  1  0  0  0  0  0  0  0  0  0
    2.9360   -0.5420   -0.4520 C   0  0  0  0  0  0  0  0  0  0  0  0
    3.2680   -0.5420   -1.6670 O   0  0  0  0  0  0  0  0  0  0  0  0
    3.8990   -0.9700    0.4520 O   0  0  0  0  0  0  0  0  0  0  0  0
    0.8970   -1.2790    0.5960 C   0  0  2  0  0  0  0  0  0  0  0  0
    0.2890   -2.0460   -0.4830 N   0  0  0  0  0  0  0  0  0  0  0  0
   -1.1200   -2.1270   -0.6440 C   0  0  0  0  0  0  0  0  0  0  0  0
   -1.6350   -3.0900   -1.2660 O   0  0  0  0  0  0  0  0  0  0  0  0
   -0.1420   -0.9270    1.5870 C   0  0  0  0  0  0  0  0  0  0  0  0
    0.0830   -0.8620    2.8160 O   0  0  0  0  0  0  0  0  0  0  0  0
   -1.4420   -0.6480    1.1700 O   0  0  0  0  0  0  0  0  0  0  0  0
  2  1  1  1
  2  3  1  0
  2 17  1  0
  2 21  1  0
  3  4  1  0
  4  5  2  0
  4  6  1  0
  6  7  1  0
  7  8  1  0
  8  9  2  0
  9 10  1  0
 10 11  1  0
 11 12  1  1
 11 15  1  0
 12 13  2  0
 12 14  1  0
 15 16  1  0
 15 19  1  1
 16 17  1  0
 17 18  2  0
 19 20  2  0
 19 21  1  0
M  END
