
     RDKit          3D

 23 24  0  0  0  0  0  0  0  0999 V2000
    7.2520    1.6870   -0.3880 N   0  0  0  0  0  0  0  0  0  0  0  0
    6.1910    0.7460   -0.4680 C   0  0  0  0  0  0  0  0  0  0  0  0
    5.3160    0.8970   -1.3470 O   0  0  0  0  0  0  0  0  0  0  0  0
    6.1500   -0.4040    0.5050 C   0  0  0  0  0  0  0  0  0  0  0  0
    5.0140   -1.2070    0.2400 O   0  0  0  0  0  0  0  0  0  0  0  0
    3.7190   -0.7070    0.3040 C   0  0  0  0  0  0  0  0  0  0  0  0
    3.5750    0.4940    0.6070 O   0  0  0  0  0  0  0  0  0  0  0  0
    2.5670   -1.4920    0.0440 N   0  0  0  0  0  0  0  0  0  0  0  0
    1.2430   -0.9920    0.1060 C   0  0  0  0  0  0  0  0  0  0  0  0
    1.0700    0.2130    0.4090 O   0  0  0  0  0  0  0  0  0  0  0  0
    0.0420   -1.8200   -0.1680 C   0  0  0  0  0  0  0  0  0  0  0  0
   -1.1690   -1.0410   -0.0280 N   0  0  0  0  0  0  0  0  0  0  0  0
   -1.8380   -0.2950   -1.0340 C   0  0  0  0  0  0  0  0  0  0  0  0
   -1.2900    0.2030   -2.0750 O   0  0  0  0  0  0  0  0  0  0  0  0
   -3.2740   -0.1960   -0.6690 C   0  0  2  0  0  0  0  0  0  0  0  0
   -3.8190    1.1890   -0.9220 C   0  0  1  0  0  0  0  0  0  0  0  0
   -4.6210    1.2820   -2.1030 N   0  0  0  0  0  0  0  0  0  0  0  0
   -4.5940    1.4660    0.3490 C   0  0  0  0  0  0  0  0  0  0  0  0
   -3.6070    0.9390    1.4000 C   0  0  0  0  0  0  0  0  0  0  0  0
   -3.2730   -0.4160    0.8140 C   0  0  1  0  0  0  0  0  0  0  0  0
   -4.2590   -1.3460    1.1410 O   0  0  0  0  0  0  0  0  0  0  0  0
   -1.9230   -0.8790    1.1600 C   0  0  0  0  0  0  0  0  0  0  0  0
   -1.5270   -1.0900    2.3360 O   0  0  0  0  0  0  0  0  0  0  0  0
  1  2  1  0
  2  3  2  0
  2  4  1  0
  4  5  1  0
  5  6  1  0
  6  7  2  0
  6  8  1  0
  8  9  1  0
  9 10  2  0
  9 11  1  0
 11 12  1  0
 12 13  1  0
 12 22  1  0
 13 14  2  0
 15 13  1  1
 15 16  1  0
 15 20  1  0
 16 17  1  6
 16 18  1  0
 18 19  1  0
 19 20  1  0
 20 21  1  6
 20 22  1  0
 22 23  2  0
M  END
