
     RDKit          3D

 23 24  0  0  0  0  0  0  0  0999 V2000
    4.7680    1.5120    2.6090 C   0  0  0  0  0  0  0  0  0  0  0  0
    3.5070    1.5380    1.8480 N   0  0  0  0  0  0  0  0  0  0  0  0
    3.0580    0.3490    1.2220 C   0  0  0  0  0  0  0  0  0  0  0  0
    3.7510   -0.6940    1.3380 O   0  0  0  0  0  0  0  0  0  0  0  0
    1.8490    0.3690    0.4910 N   0  0  0  0  0  0  0  0  0  0  0  0
    1.3400   -0.7870   -0.1610 C   0  0  2  0  0  0  0  0  0  0  0  0
    1.4400   -0.7550   -1.6770 C   0  0  0  0  0  0  0  0  0  0  0  0
    1.3000   -2.1320   -2.1390 N   0  0  0  0  0  0  0  0  0  0  0  0
    0.4440   -2.9680   -1.3790 C   0  0  0  0  0  0  0  0  0  0  0  0
    0.5340   -4.2490   -1.4590 O   0  0  0  0  0  0  0  0  0  0  0  0
   -0.4730   -2.3330   -0.5690 O   0  0  0  0  0  0  0  0  0  0  0  0
    0.0150   -1.2840    0.2860 C   0  0  1  0  0  0  0  0  0  0  0  0
    0.3030   -2.0570    1.6130 C   0  0  0  0  0  0  0  0  0  0  0  0
   -1.0700   -0.3760    0.6240 C   0  0  0  0  0  0  0  0  0  0  0  0
   -1.6690    0.5770   -0.3140 C   0  0  2  0  0  0  0  0  0  0  0  0
   -0.8980    1.5420   -0.8910 O   0  0  0  0  0  0  0  0  0  0  0  0
   -2.7170    1.3790    0.5210 C   0  0  0  0  0  0  0  0  0  0  0  0
   -3.9800    1.6010   -0.2610 C   0  0  1  0  0  0  0  0  0  0  0  0
   -4.6850    2.6310    0.3110 O   0  0  0  0  0  0  0  0  0  0  0  0
   -3.6160    2.0290   -1.5590 O   0  0  0  0  0  0  0  0  0  0  0  0
   -3.2760    0.8600   -2.1940 N   0  0  0  0  0  0  0  0  0  0  0  0
   -2.4680   -0.0400   -1.4060 C   0  0  0  0  0  0  0  0  0  0  0  0
   -2.5010   -1.2370   -1.6920 O   0  0  0  0  0  0  0  0  0  0  0  0
  1  2  1  0
  2  3  1  0
  3  4  2  0
  3  5  1  0
  6  5  1  6
  6  7  1  0
  6 12  1  0
  7  8  1  0
  8  9  1  0
  9 10  2  0
  9 11  1  0
 11 12  1  0
 12 13  1  1
 12 14  1  0
 14 15  1  0
 15 16  1  6
 15 17  1  0
 15 22  1  0
 17 18  1  0
 18 19  1  1
 18 20  1  0
 20 21  1  0
 21 22  1  0
 22 23  2  0
M  END
