
     RDKit          3D

 23 24  0  0  0  0  0  0  0  0999 V2000
    6.8390   -0.2510    2.3340 C   0  0  0  0  0  0  0  0  0  0  0  0
    5.4440    0.0200    1.9970 N   0  0  0  0  0  0  0  0  0  0  0  0
    4.8830   -0.5310    0.8350 C   0  0  0  0  0  0  0  0  0  0  0  0
    5.6000   -1.2550    0.1000 O   0  0  0  0  0  0  0  0  0  0  0  0
    3.5010   -0.3140    0.4210 C   0  0  0  0  0  0  0  0  0  0  0  0
    2.7480    0.4150    1.1450 O   0  0  0  0  0  0  0  0  0  0  0  0
    2.9490   -0.8490   -0.7100 O   0  0  0  0  0  0  0  0  0  0  0  0
    1.5970   -0.6040   -1.0650 C   0  0  0  0  0  0  0  0  0  0  0  0
    1.1550    0.3810   -1.8060 C   0  0  0  0  0  0  0  0  0  0  0  0
    1.9940    1.3910   -2.3900 N   0  0  0  0  0  0  0  0  0  0  0  0
   -0.3100    0.3350   -1.9720 C   0  0  0  0  0  0  0  0  0  0  0  0
   -1.0350    1.2810   -2.7320 O   0  0  0  0  0  0  0  0  0  0  0  0
   -0.7400   -0.7020   -1.3120 C   0  0  0  0  0  0  0  0  0  0  0  0
   -2.1250   -1.2010   -1.1460 C   0  0  0  0  0  0  0  0  0  0  0  0
   -3.1120   -0.5160   -1.7130 O   0  0  0  0  0  0  0  0  0  0  0  0
   -3.5530    0.6600   -1.2090 C   0  0  0  0  0  0  0  0  0  0  0  0
   -4.1600    0.4840    0.1750 C   0  0  0  0  0  0  0  0  0  0  0  0
   -4.3500   -0.5840    0.8470 N   0  0  0  0  0  0  0  0  0  0  0  0
   -4.9500   -0.2520    2.0950 C   0  0  2  0  0  0  0  0  0  0  0  0
   -5.9710   -1.1330    2.4450 O   0  0  0  0  0  0  0  0  0  0  0  0
   -5.5250    0.9920    1.8940 O   0  0  0  0  0  0  0  0  0  0  0  0
   -4.6610    1.5320    0.9970 N   0  0  0  0  0  0  0  0  0  0  0  0
    0.4340   -1.4110   -0.6680 C   0  0  0  0  0  0  0  0  0  0  0  0
  1  2  1  0
  2  3  1  0
  3  4  2  0
  3  5  1  0
  5  6  2  0
  5  7  1  0
  7  8  1  0
  8  9  2  0
  8 23  1  0
  9 10  1  0
  9 11  1  0
 11 12  1  0
 11 13  2  0
 13 14  1  0
 13 23  1  0
 14 15  1  0
 15 16  1  0
 16 17  1  0
 17 18  2  0
 17 22  1  0
 18 19  1  0
 19 20  1  6
 19 21  1  0
 21 22  1  0
M  END
