
     RDKit          3D

 23 24  0  0  0  0  0  0  0  0999 V2000
   -2.1040    0.7060    1.2240 C   0  0  0  0  0  0  0  0  0  0  0  0
   -1.6450    0.8620   -0.2170 C   0  0  2  0  0  0  0  0  0  0  0  0
   -2.4020    2.0210   -0.6320 O   0  0  0  0  0  0  0  0  0  0  0  0
   -2.1730   -0.2160   -1.0880 C   0  0  2  0  0  0  0  0  0  0  0  0
   -3.6980   -0.1380   -1.0580 C   0  0  0  0  0  0  0  0  0  0  0  0
   -4.1520   -1.1100   -0.0240 C   0  0  0  0  0  0  0  0  0  0  0  0
   -5.3150   -1.2250    0.4280 O   0  0  0  0  0  0  0  0  0  0  0  0
   -2.9680   -1.8620    0.3200 N   0  0  0  0  0  0  0  0  0  0  0  0
   -1.9620   -1.5950   -0.6600 C   0  0  0  0  0  0  0  0  0  0  0  0
   -1.0870   -2.3910   -1.0600 O   0  0  0  0  0  0  0  0  0  0  0  0
   -0.2350    1.2700   -0.3860 C   0  0  1  0  0  0  0  0  0  0  0  0
    0.0010    1.8280   -1.6590 O   0  0  0  0  0  0  0  0  0  0  0  0
    0.1920    2.3450    0.6080 C   0  0  0  0  0  0  0  0  0  0  0  0
    0.6040    1.5420    1.7740 C   0  0  0  0  0  0  0  0  0  0  0  0
    0.9300    0.3750    1.3380 N   0  0  0  0  0  0  0  0  0  0  0  0
    0.7770    0.2990   -0.0460 N   0  0  0  0  0  0  0  0  0  0  0  0
    1.4960   -0.5500   -0.8960 C   0  0  0  0  0  0  0  0  0  0  0  0
    1.2600   -0.5260   -2.1490 O   0  0  0  0  0  0  0  0  0  0  0  0
    2.5410   -1.5010   -0.4510 C   0  0  1  0  0  0  0  0  0  0  0  0
    3.0640   -2.2350   -1.5140 O   0  0  0  0  0  0  0  0  0  0  0  0
    3.6350   -0.8080    0.3330 C   0  0  0  0  0  0  0  0  0  0  0  0
    4.5510   -1.8310    0.8600 N   0  0  0  0  0  0  0  0  0  0  0  0
    5.5420   -1.2550    1.5670 O   0  0  0  0  0  0  0  0  0  0  0  0
  2  1  1  1
  2  3  1  0
  2  4  1  0
  2 11  1  0
  4  5  1  1
  4  9  1  0
  5  6  1  0
  6  7  2  0
  6  8  1  0
  8  9  1  0
  9 10  2  0
 11 12  1  6
 11 13  1  0
 11 16  1  0
 13 14  1  0
 14 15  2  0
 15 16  1  0
 16 17  1  0
 17 18  2  0
 17 19  1  0
 19 20  1  6
 19 21  1  0
 21 22  1  0
 22 23  1  0
M  END
