
     RDKit          3D

 17 18  0  0  0  0  0  0  0  0999 V2000
   -5.8660   -0.3090    0.4010 C   0  0  0  0  0  0  0  0  0  0  0  0
   -4.7110    0.6110    0.0510 C   0  0  1  0  0  0  0  0  0  0  0  0
   -3.8820    0.9820    1.2400 C   0  0  0  0  0  0  0  0  0  0  0  0
   -2.5150    0.3440    1.2400 C   0  0  0  0  0  0  0  0  0  0  0  0
   -1.6970    0.7580    0.0460 C   0  0  1  0  0  0  0  0  0  0  0  0
   -0.5470   -0.1400   -0.0640 N   0  0  2  0  0  0  0  0  0  0  0  0
    0.1120   -0.2090    1.2040 C   0  0  0  0  0  0  0  0  0  0  0  0
    1.5250   -0.7310    1.1260 C   0  0  0  0  0  0  0  0  0  0  0  0
    2.4060    0.0550    0.2120 C   0  0  1  0  0  0  0  0  0  0  0  0
    3.0960   -0.7630   -0.7480 N   0  0  0  0  0  0  0  0  0  0  0  0
    4.1700   -1.5390   -0.1800 C   0  0  0  0  0  0  0  0  0  0  0  0
    5.1950   -0.7020    0.5290 C   0  0  0  0  0  0  0  0  0  0  0  0
    5.8290    0.2710   -0.3560 N   0  0  0  0  0  0  0  0  0  0  0  0
    1.5000    1.0080   -0.5750 C   0  0  0  0  0  0  0  0  0  0  0  0
    0.3220    0.2510   -1.1450 C   0  0  0  0  0  0  0  0  0  0  0  0
   -2.5750    0.7180   -1.1640 C   0  0  0  0  0  0  0  0  0  0  0  0
   -3.8320   -0.1260   -0.9250 C   0  0  0  0  0  0  0  0  0  0  0  0
  2  1  1  1
  2  3  1  0
  2 17  1  0
  3  4  1  0
  5  4  1  1
  5  6  1  0
  5 16  1  0
  6  7  1  1
  6 15  1  0
  7  8  1  0
  8  9  1  0
  9 10  1  6
  9 14  1  0
 10 11  1  0
 11 12  1  0
 12 13  1  0
 14 15  1  0
 16 17  1  0
M  CHG  3   6   1  10   1  13   1
M  END
