
     RDKit          3D

 17 18  0  0  0  0  0  0  0  0999 V2000
   -4.7900   -1.3110   -0.1780 C   0  0  0  0  0  0  0  0  0  0  0  0
   -4.0820   -0.1750   -0.6870 N   0  0  1  0  0  0  0  0  0  0  0  0
   -3.9770    0.9220    0.2230 C   0  0  0  0  0  0  0  0  0  0  0  0
   -2.9990    0.6740    1.3410 C   0  0  0  0  0  0  0  0  0  0  0  0
   -1.5710    0.9250    0.9460 C   0  0  0  0  0  0  0  0  0  0  0  0
   -0.9320   -0.2210    0.3650 N   0  0  2  0  0  0  0  0  0  0  0  0
   -0.0390    0.1540   -0.7130 C   0  0  0  0  0  0  0  0  0  0  0  0
    1.3750    0.1020   -0.3540 C   0  0  0  0  0  0  0  0  0  0  0  0
    1.9910    1.2150    0.1690 C   0  0  0  0  0  0  0  0  0  0  0  0
    3.3190    1.2120    0.5210 C   0  0  0  0  0  0  0  0  0  0  0  0
    4.0550    0.0760    0.3500 C   0  0  0  0  0  0  0  0  0  0  0  0
    5.4950    0.0320    0.7180 C   0  0  0  0  0  0  0  0  0  0  0  0
    6.2620    0.4270   -0.4380 N   0  0  0  0  0  0  0  0  0  0  0  0
    3.4750   -1.0480   -0.1670 C   0  0  0  0  0  0  0  0  0  0  0  0
    2.1410   -1.0300   -0.5160 C   0  0  0  0  0  0  0  0  0  0  0  0
   -1.8860   -1.1700   -0.1900 C   0  0  0  0  0  0  0  0  0  0  0  0
   -2.7670   -0.5000   -1.1910 C   0  0  0  0  0  0  0  0  0  0  0  0
  2  1  1  1
  2  3  1  0
  2 17  1  0
  3  4  1  0
  4  5  1  0
  5  6  1  0
  6  7  1  6
  6 16  1  0
  7  8  1  0
  8  9  2  0
  8 15  1  0
  9 10  1  0
 10 11  2  0
 11 12  1  0
 11 14  1  0
 12 13  1  0
 14 15  2  0
 16 17  1  0
M  CHG  3   2   1   6   1  13   1
M  END
