
     RDKit          3D

 17 18  0  0  0  0  0  0  0  0999 V2000
    5.0900    0.4530    1.1190 C   0  0  0  0  0  0  0  0  0  0  0  0
    4.2740    0.0170   -0.0500 C   0  0  0  0  0  0  0  0  0  0  0  0
    2.9200    0.6470   -0.0080 C   0  0  1  0  0  0  0  0  0  0  0  0
    2.0560    0.2320   -1.1750 C   0  0  0  0  0  0  0  0  0  0  0  0
    0.7010    0.9210   -0.9530 C   0  0  0  0  0  0  0  0  0  0  0  0
    0.0110    0.3540    0.1800 N   0  0  1  0  0  0  0  0  0  0  0  0
   -1.2190   -0.2920   -0.1680 C   0  0  2  0  0  0  0  0  0  0  0  0
   -2.1600    0.7670   -0.6610 C   0  0  0  0  0  0  0  0  0  0  0  0
   -2.4850    1.8080    0.2550 N   0  0  0  0  0  0  0  0  0  0  0  0
   -2.0190    3.1320   -0.2060 C   0  0  0  0  0  0  0  0  0  0  0  0
   -1.7240   -1.0500    1.0280 C   0  0  0  0  0  0  0  0  0  0  0  0
   -2.9890   -1.8040    0.7860 C   0  0  0  0  0  0  0  0  0  0  0  0
   -2.9400   -2.6550   -0.3780 N   0  0  0  0  0  0  0  0  0  0  0  0
   -2.3040   -2.0860   -1.5090 C   0  0  0  0  0  0  0  0  0  0  0  0
   -1.0400   -1.3420   -1.2450 C   0  0  0  0  0  0  0  0  0  0  0  0
    0.8930   -0.4650    0.9840 C   0  0  0  0  0  0  0  0  0  0  0  0
    2.1510    0.3560    1.2480 C   0  0  0  0  0  0  0  0  0  0  0  0
  1  2  1  0
  3  2  1  1
  3  4  1  0
  3 17  1  0
  4  5  1  0
  6  5  1  6
  6  7  1  0
  6 16  1  0
  7  8  1  6
  7 11  1  0
  7 15  1  0
  8  9  1  0
  9 10  1  0
 11 12  1  0
 12 13  1  0
 13 14  1  0
 14 15  1  0
 16 17  1  0
M  CHG  3   6   1   9   1  13   1
M  END
