
     RDKit          3D

 17 18  0  0  0  0  0  0  0  0999 V2000
   -1.7640   -2.1960    1.0120 C   0  0  0  0  0  0  0  0  0  0  0  0
   -2.3180   -0.9350    0.3290 C   0  0  1  0  0  0  0  0  0  0  0  0
   -3.4880   -1.4180   -0.5100 C   0  0  0  0  0  0  0  0  0  0  0  0
   -2.8470   -0.1090    1.3600 N   0  0  0  0  0  0  0  0  0  0  0  0
   -1.2610   -0.2790   -0.5250 C   0  0  0  0  0  0  0  0  0  0  0  0
   -0.1040    0.1400    0.1450 N   0  0  2  0  0  0  0  0  0  0  0  0
    0.3330    1.4770    0.0630 C   0  0  1  0  0  0  0  0  0  0  0  0
    0.0240    2.3240   -1.0660 C   0  0  0  0  0  0  0  0  0  0  0  0
   -0.7260    3.5610   -0.5600 C   0  0  0  0  0  0  0  0  0  0  0  0
    0.0150    3.7280    0.7760 C   0  0  0  0  0  0  0  0  0  0  0  0
   -0.1230    2.2850    1.2800 C   0  0  0  0  0  0  0  0  0  0  0  0
    0.9970   -0.7740   -0.1770 C   0  0  2  0  0  0  0  0  0  0  0  0
    2.0040   -0.8810    0.9150 C   0  0  0  0  0  0  0  0  0  0  0  0
    2.9650   -1.9920    0.5160 C   0  0  0  0  0  0  0  0  0  0  0  0
    3.5150   -1.7900   -0.8020 N   0  0  0  0  0  0  0  0  0  0  0  0
    2.4990   -1.6350   -1.8220 C   0  0  0  0  0  0  0  0  0  0  0  0
    1.7170   -0.3700   -1.4360 C   0  0  0  0  0  0  0  0  0  0  0  0
  2  1  1  1
  2  3  1  0
  2  4  1  0
  2  5  1  0
  6  5  1  6
  6  7  1  0
  6 12  1  0
  7  8  1  6
  7 11  1  0
  8  9  1  0
  9 10  1  0
 10 11  1  0
 12 13  1  1
 12 17  1  0
 13 14  1  0
 14 15  1  0
 15 16  1  0
 16 17  1  0
M  CHG  3   4   1   6   1  15   1
M  END
