
     RDKit          3D

 17 18  0  0  0  0  0  0  0  0999 V2000
    3.2970    2.5330   -0.2120 C   0  0  0  0  0  0  0  0  0  0  0  0
    2.5480    1.5280    0.6200 C   0  0  0  0  0  0  0  0  0  0  0  0
    2.2100    0.2660   -0.1450 C   0  0  1  0  0  0  0  0  0  0  0  0
    3.4480   -0.3840   -0.6180 C   0  0  0  0  0  0  0  0  0  0  0  0
    3.4740   -1.7840   -0.7800 N   0  0  0  0  0  0  0  0  0  0  0  0
    2.6940   -2.5440    0.1530 C   0  0  0  0  0  0  0  0  0  0  0  0
    1.2660   -1.9870    0.0390 C   0  0  0  0  0  0  0  0  0  0  0  0
    1.3450   -0.6190    0.6820 C   0  0  2  0  0  0  0  0  0  0  0  0
    0.0570   -0.0720    0.9970 N   0  0  0  0  0  0  0  0  0  0  0  0
   -1.0570   -0.8130    0.4960 C   0  0  0  0  0  0  0  0  0  0  0  0
   -2.2000    0.0570    0.1280 C   0  0  1  0  0  0  0  0  0  0  0  0
   -1.8600    1.0330   -0.9370 C   0  0  0  0  0  0  0  0  0  0  0  0
   -1.4220    0.2650   -2.1730 C   0  0  0  0  0  0  0  0  0  0  0  0
   -3.4360   -0.7150   -0.2880 C   0  0  0  0  0  0  0  0  0  0  0  0
   -4.5160    0.3220   -0.0400 C   0  0  0  0  0  0  0  0  0  0  0  0
   -4.0810    1.1340    1.0610 N   0  0  0  0  0  0  0  0  0  0  0  0
   -2.7310    0.7200    1.3900 C   0  0  0  0  0  0  0  0  0  0  0  0
  1  2  1  0
  3  2  1  1
  3  4  1  0
  3  8  1  0
  4  5  1  0
  5  6  1  0
  6  7  1  0
  7  8  1  0
  8  9  1  6
  9 10  1  0
 11 10  1  1
 11 12  1  0
 11 14  1  0
 11 17  1  0
 12 13  1  0
 14 15  1  0
 15 16  1  0
 16 17  1  0
M  CHG  3   5   1   9   1  16   1
M  END
