
     RDKit          3D

 17 18  0  0  0  0  0  0  0  0999 V2000
    6.4340    0.4930   -0.9780 C   0  0  0  0  0  0  0  0  0  0  0  0
    5.3440   -0.5510   -1.0370 C   0  0  0  0  0  0  0  0  0  0  0  0
    4.0390    0.1040   -0.9150 N   0  0  2  0  0  0  0  0  0  0  0  0
    4.1320    1.0320    0.1690 C   0  0  0  0  0  0  0  0  0  0  0  0
    2.7150    1.0520    0.7300 C   0  0  0  0  0  0  0  0  0  0  0  0
    2.3920   -0.4200    0.6900 C   0  0  1  0  0  0  0  0  0  0  0  0
    0.9470   -0.7160    0.8630 C   0  0  0  0  0  0  0  0  0  0  0  0
    0.0580   -0.1060   -0.1800 C   0  0  0  0  0  0  0  0  0  0  0  0
   -1.3200   -0.4650    0.0950 N   0  0  0  0  0  0  0  0  0  0  0  0
   -2.1230    0.7100    0.4440 C   0  0  0  0  0  0  0  0  0  0  0  0
   -3.5630    0.3190    0.2570 C   0  0  0  0  0  0  0  0  0  0  0  0
   -4.2980    0.9870   -0.6050 C   0  0  0  0  0  0  0  0  0  0  0  0
   -5.7370    0.6740   -0.8610 C   0  0  0  0  0  0  0  0  0  0  0  0
   -6.1890   -0.5470   -0.1080 C   0  0  0  0  0  0  0  0  0  0  0  0
   -5.5580   -0.5420    1.2060 N   0  0  0  0  0  0  0  0  0  0  0  0
   -4.1340   -0.7980    1.0310 C   0  0  0  0  0  0  0  0  0  0  0  0
    3.0050   -0.8590   -0.5840 C   0  0  0  0  0  0  0  0  0  0  0  0
  1  2  1  0
  3  2  1  1
  3  4  1  0
  3 17  1  0
  4  5  1  0
  5  6  1  0
  6  7  1  6
  6 17  1  0
  7  8  1  0
  8  9  1  0
  9 10  1  0
 10 11  1  0
 11 12  2  0
 11 16  1  0
 12 13  1  0
 13 14  1  0
 14 15  1  0
 15 16  1  0
M  CHG  3   3   1   9   1  15   1
M  END
