
     RDKit          3D

 16 17  0  0  0  0  0  0  0  0999 V2000
   -1.2530    0.9520    1.3850 C   0  0  0  0  0  0  0  0  0  0  0  0
   -1.2270    0.2120    0.0390 C   0  0  2  0  0  0  0  0  0  0  0  0
   -0.5860    1.1640   -0.9490 C   0  0  0  0  0  0  0  0  0  0  0  0
   -2.6600   -0.0020   -0.3090 C   0  0  0  0  0  0  0  0  0  0  0  0
   -3.2670    0.7740   -1.1240 O   0  0  0  0  0  0  0  0  0  0  0  0
   -3.3260   -1.0920    0.2930 N   0  0  0  0  0  0  0  0  0  0  0  0
   -2.5730   -2.3130    0.4890 C   0  0  0  0  0  0  0  0  0  0  0  0
   -1.2730   -2.1660   -0.2660 C   0  0  0  0  0  0  0  0  0  0  0  0
   -0.5150   -1.0040    0.2300 N   0  0  0  0  0  0  0  0  0  0  0  0
    0.7730   -1.1030   -0.3700 C   0  0  0  0  0  0  0  0  0  0  0  0
    1.7490   -0.0740   -0.0200 C   0  0  0  0  0  0  0  0  0  0  0  0
    1.9650    0.3550    1.2620 C   0  0  0  0  0  0  0  0  0  0  0  0
    2.8940    1.3260    1.5860 C   0  0  0  0  0  0  0  0  0  0  0  0
    3.6200    1.8690    0.5460 C   0  0  0  0  0  0  0  0  0  0  0  0
    3.4070    1.4390   -0.7630 C   0  0  0  0  0  0  0  0  0  0  0  0
    2.4850    0.4900   -0.9920 N   0  0  0  0  0  0  0  0  0  0  0  0
  2  1  1  1
  2  3  1  0
  2  4  1  0
  2  9  1  0
  4  5  2  0
  4  6  1  0
  6  7  1  0
  7  8  1  0
  8  9  1  0
  9 10  1  0
 10 11  1  0
 11 12  2  0
 11 16  1  0
 12 13  1  0
 13 14  2  0
 14 15  1  0
 15 16  2  0
M  CHG  1  16   1
M  END
