
     RDKit          3D

 16 17  0  0  0  0  0  0  0  0999 V2000
   -4.7120    0.4870   -1.5720 C   0  0  0  0  0  0  0  0  0  0  0  0
   -3.9220    0.1520   -0.5520 C   0  0  0  0  0  0  0  0  0  0  0  0
   -2.4710    0.2590   -0.6690 C   0  0  0  0  0  0  0  0  0  0  0  0
   -1.6370    0.1700    0.3510 C   0  0  0  0  0  0  0  0  0  0  0  0
   -0.2350    0.2840    0.1620 N   0  0  0  0  0  0  0  0  0  0  0  0
    0.4900   -0.3640   -0.9140 C   0  0  0  0  0  0  0  0  0  0  0  0
    1.6920   -1.0350   -0.3240 C   0  0  0  0  0  0  0  0  0  0  0  0
    2.5830   -0.0750    0.2600 N   0  0  1  0  0  0  0  0  0  0  0  0
    3.7490    0.0630   -0.5850 C   0  0  0  0  0  0  0  0  0  0  0  0
    4.7620   -1.0430   -0.2660 C   0  0  0  0  0  0  0  0  0  0  0  0
    1.9780    1.2280    0.4540 C   0  0  0  0  0  0  0  0  0  0  0  0
    0.5830    1.0790    1.0600 C   0  0  0  0  0  0  0  0  0  0  0  0
   -2.1790   -0.0470    1.6780 C   0  0  0  0  0  0  0  0  0  0  0  0
   -1.4060   -0.1390    2.6950 O   0  0  0  0  0  0  0  0  0  0  0  0
   -3.5890   -0.1540    1.8180 N   0  0  0  0  0  0  0  0  0  0  0  0
   -4.5100   -0.3360    0.7220 C   0  0  0  0  0  0  0  0  0  0  0  0
  1  2  2  0
  2  3  1  0
  2 16  1  0
  3  4  2  0
  4  5  1  0
  4 13  1  0
  5  6  1  0
  5 12  1  0
  6  7  1  0
  7  8  1  0
  8  9  1  6
  8 11  1  0
  9 10  1  0
 11 12  1  0
 13 14  2  0
 13 15  1  0
 15 16  1  0
M  CHG  1   8   1
M  END
