
     RDKit          3D

 19 21  0  0  0  0  0  0  0  0999 V2000
   -5.1970   -0.2480    0.6900 C   0  0  0  0  0  0  0  0  0  0  0  0
   -3.7980   -0.4340    0.3610 N   0  0  1  0  0  0  0  0  0  0  0  0
   -3.7050   -0.4830   -1.0950 C   0  0  0  0  0  0  0  0  0  0  0  0
   -2.2770   -0.9160   -1.4050 C   0  0  0  0  0  0  0  0  0  0  0  0
   -1.4180    0.3290   -1.2690 C   0  0  0  0  0  0  0  0  0  0  0  0
   -0.7080    0.2480   -0.0260 N   0  0  1  0  0  0  0  0  0  0  0  0
    0.2910    1.3000    0.0760 C   0  0  0  0  0  0  0  0  0  0  0  0
    1.6650    0.7720    0.1790 C   0  0  0  0  0  0  0  0  0  0  0  0
    2.1870    0.5100    1.4340 C   0  0  0  0  0  0  0  0  0  0  0  0
    3.4650    0.0140    1.6200 C   0  0  0  0  0  0  0  0  0  0  0  0
    4.2410   -0.2250    0.5000 C   0  0  0  0  0  0  0  0  0  0  0  0
    5.4920   -0.7120    0.7100 N   0  0  0  0  0  0  0  0  0  0  0  0
    6.3170   -0.9740   -0.3170 C   0  0  0  0  0  0  0  0  0  0  0  0
    5.8660   -0.7380   -1.5930 C   0  0  0  0  0  0  0  0  0  0  0  0
    4.5830   -0.2370   -1.8330 C   0  0  0  0  0  0  0  0  0  0  0  0
    3.7510    0.0250   -0.7630 C   0  0  0  0  0  0  0  0  0  0  0  0
    2.4680    0.5220   -0.9190 C   0  0  0  0  0  0  0  0  0  0  0  0
   -1.5500    0.1840    1.1310 C   0  0  0  0  0  0  0  0  0  0  0  0
   -2.9610    0.6230    0.8920 C   0  0  0  0  0  0  0  0  0  0  0  0
  2  1  1  6
  2  3  1  0
  2 19  1  0
  3  4  1  0
  4  5  1  0
  5  6  1  0
  6  7  1  1
  6 18  1  0
  7  8  1  0
  8  9  2  0
  8 17  1  0
  9 10  1  0
 10 11  2  0
 11 12  1  0
 11 16  1  0
 12 13  2  0
 13 14  1  0
 14 15  2  0
 15 16  1  0
 16 17  2  0
 18 19  1  0
M  CHG  2   2   1   6   1
M  END
