
     RDKit          3D

 16 17  0  0  0  0  0  0  0  0999 V2000
    5.3140   -1.9270    1.0310 C   0  0  0  0  0  0  0  0  0  0  0  0
    4.3770   -1.1960    0.4520 C   0  0  0  0  0  0  0  0  0  0  0  0
    4.5820   -0.2700   -0.6900 C   0  0  0  0  0  0  0  0  0  0  0  0
    3.4590    0.6350   -0.5480 N   0  0  0  0  0  0  0  0  0  0  0  0
    3.3080    1.9870   -1.0350 C   0  0  0  0  0  0  0  0  0  0  0  0
    2.4690   -0.0660    0.1930 C   0  0  0  0  0  0  0  0  0  0  0  0
    1.0430    0.3350    0.3010 C   0  0  0  0  0  0  0  0  0  0  0  0
    0.2630   -0.6320    1.1690 C   0  0  0  0  0  0  0  0  0  0  0  0
   -1.1250   -0.2200    1.2590 N   0  0  0  0  0  0  0  0  0  0  0  0
   -1.5820    0.1980   -0.0260 C   0  0  0  0  0  0  0  0  0  0  0  0
   -3.0670    0.3260   -0.1540 C   0  0  1  0  0  0  0  0  0  0  0  0
   -3.8260   -0.9300    0.1080 C   0  0  0  0  0  0  0  0  0  0  0  0
   -5.2550   -0.3950    0.2800 C   0  0  0  0  0  0  0  0  0  0  0  0
   -5.0000    1.0850    0.4800 C   0  0  0  0  0  0  0  0  0  0  0  0
   -3.6380    1.2330    0.7080 O   0  0  0  0  0  0  0  0  0  0  0  0
    2.9960   -1.1180    0.7680 N   0  0  0  0  0  0  0  0  0  0  0  0
  1  2  2  0
  2  3  1  0
  2 16  1  0
  3  4  1  0
  4  5  1  0
  4  6  1  0
  6  7  1  0
  6 16  2  0
  7  8  1  0
  8  9  1  0
  9 10  1  0
 11 10  1  1
 11 12  1  0
 11 15  1  0
 12 13  1  0
 13 14  1  0
 14 15  1  0
M  CHG  1   9   1
M  END
