
     RDKit          3D

 19 21  0  0  0  0  0  0  0  0999 V2000
    3.2570   -1.4190   -0.8790 N   0  0  0  0  0  0  0  0  0  0  0  0
    3.1940   -0.1110   -0.3000 C   0  0  0  0  0  0  0  0  0  0  0  0
    2.1240    0.4490    0.1760 C   0  0  0  0  0  0  0  0  0  0  0  0
    0.8270   -0.1910    0.1740 C   0  0  0  0  0  0  0  0  0  0  0  0
   -0.3850    0.3800    0.2830 N   0  0  0  0  0  0  0  0  0  0  0  0
   -1.3550   -0.5520    0.2490 C   0  0  0  0  0  0  0  0  0  0  0  0
   -2.7810   -0.4740    0.3860 C   0  0  1  0  0  0  0  0  0  0  0  0
   -3.2740   -1.4570    1.2920 O   0  0  0  0  0  0  0  0  0  0  0  0
   -3.2770    0.8470    0.9480 C   0  0  0  0  0  0  0  0  0  0  0  0
   -4.7840    0.6200    0.9000 C   0  0  0  0  0  0  0  0  0  0  0  0
   -5.0090   -0.2800   -0.2970 C   0  0  0  0  0  0  0  0  0  0  0  0
   -3.6100   -0.5760   -0.8790 C   0  0  0  0  0  0  0  0  0  0  0  0
   -0.6970   -1.7330    0.1100 N   0  0  0  0  0  0  0  0  0  0  0  0
    0.6080   -1.5110    0.0640 N   0  0  0  0  0  0  0  0  0  0  0  0
    4.4940    0.5830   -0.3020 C   0  0  0  0  0  0  0  0  0  0  0  0
    5.5930    0.3750   -0.5570 N   0  0  0  0  0  0  0  0  0  0  0  0
    6.6490    1.1580   -0.5310 C   0  0  0  0  0  0  0  0  0  0  0  0
    6.3740    2.4570   -0.1190 C   0  0  0  0  0  0  0  0  0  0  0  0
    4.5720    2.3920    0.1900 S   0  0  0  0  0  0  0  0  0  0  0  0
  1  2  1  0
  2  3  2  3
  2 15  1  0
  3  4  1  0
  4  5  2  0
  4 14  1  0
  5  6  1  0
  6  7  1  0
  6 13  2  0
  7  8  1  1
  7  9  1  0
  7 12  1  0
  9 10  1  0
 10 11  1  0
 11 12  1  0
 13 14  1  0
 15 16  2  0
 15 19  1  0
 16 17  1  0
 17 18  2  0
 18 19  1  0
M  END
