
     RDKit          3D

 16 17  0  0  0  0  0  0  0  0999 V2000
    5.8440    0.0700    0.1830 C   0  0  0  0  0  0  0  0  0  0  0  0
    5.0780    1.2100    0.3430 O   0  0  0  0  0  0  0  0  0  0  0  0
    3.7540    1.0090    0.5940 C   0  0  0  0  0  0  0  0  0  0  0  0
    3.0100    0.2550   -0.4880 C   0  0  0  0  0  0  0  0  0  0  0  0
    1.6280    0.0830   -0.1720 N   0  0  0  0  0  0  0  0  0  0  0  0
    0.8460    1.2820   -0.1850 C   0  0  0  0  0  0  0  0  0  0  0  0
   -0.5570    1.0190    0.2680 C   0  0  0  0  0  0  0  0  0  0  0  0
   -1.1720   -0.1480   -0.3140 N   0  0  1  0  0  0  0  0  0  0  0  0
   -2.4620    0.1890   -0.9010 C   0  0  0  0  0  0  0  0  0  0  0  0
   -3.5850   -0.0700    0.0510 C   0  0  0  0  0  0  0  0  0  0  0  0
   -4.4370    0.8330    0.5010 C   0  0  0  0  0  0  0  0  0  0  0  0
   -5.3760    0.1570    1.4080 C   0  0  0  0  0  0  0  0  0  0  0  0
   -4.9180   -1.2480    1.3960 C   0  0  0  0  0  0  0  0  0  0  0  0
   -3.9150   -1.3320    0.6240 N   0  0  0  0  0  0  0  0  0  0  0  0
   -0.3190   -0.6250   -1.3890 C   0  0  0  0  0  0  0  0  0  0  0  0
    1.0050   -1.0560   -0.7750 C   0  0  0  0  0  0  0  0  0  0  0  0
  1  2  1  0
  2  3  1  0
  3  4  1  0
  4  5  1  0
  5  6  1  0
  5 16  1  0
  6  7  1  0
  7  8  1  0
  8  9  1  6
  8 15  1  0
  9 10  1  0
 10 11  2  0
 10 14  1  0
 11 12  1  0
 12 13  1  0
 13 14  2  0
 15 16  1  0
M  CHG  1   8   1
M  END
