
     RDKit          3D

 16 17  0  0  0  0  0  0  0  0999 V2000
   -4.3220   -0.8910    1.6710 C   0  0  0  0  0  0  0  0  0  0  0  0
   -3.8430   -0.3060    0.3560 C   0  0  0  0  0  0  0  0  0  0  0  0
   -3.1990   -1.2650   -0.4780 N   0  0  0  0  0  0  0  0  0  0  0  0
   -1.7740   -1.3760   -0.2950 C   0  0  0  0  0  0  0  0  0  0  0  0
   -1.0930   -0.0630   -0.1400 C   0  0  1  0  0  0  0  0  0  0  0  0
    0.4300   -0.2340   -0.1640 C   0  0  0  0  0  0  0  0  0  0  0  0
    1.0810    1.0080   -0.4020 N   0  0  0  0  0  0  0  0  0  0  0  0
    2.2580    1.2240    0.3720 C   0  0  0  0  0  0  0  0  0  0  0  0
    3.4010    0.3650    0.0080 C   0  0  0  0  0  0  0  0  0  0  0  0
    4.5450    0.8310   -0.3510 N   0  0  0  0  0  0  0  0  0  0  0  0
    5.4620   -0.2140   -0.6460 C   0  0  0  0  0  0  0  0  0  0  0  0
    4.6970   -1.4750   -0.4090 C   0  0  0  0  0  0  0  0  0  0  0  0
    3.5000   -1.0900   -0.0280 C   0  0  0  0  0  0  0  0  0  0  0  0
    0.2540    2.1810   -0.3220 C   0  0  0  0  0  0  0  0  0  0  0  0
   -1.0880    2.0100   -0.9850 C   0  0  0  0  0  0  0  0  0  0  0  0
   -1.3630    0.6910   -1.3050 O   0  0  0  0  0  0  0  0  0  0  0  0
  1  2  1  0
  2  3  1  0
  3  4  1  0
  5  4  1  6
  5  6  1  0
  5 16  1  0
  6  7  1  0
  7  8  1  0
  7 14  1  0
  8  9  1  0
  9 10  2  0
  9 13  1  0
 10 11  1  0
 11 12  1  0
 12 13  2  0
 14 15  1  0
 15 16  1  0
M  CHG  1   3   1
M  END
