
     RDKit          3D

 33 35  0  0  0  0  0  0  0  0999 V2000
    2.5430   -4.1940   -0.1640 C   0  0  0  0  0  0  0  0  0  0  0  0
    2.3130   -3.5100   -1.4930 C   0  0  0  0  0  0  0  0  0  0  0  0
    2.3840   -2.0250   -1.3940 C   0  0  2  0  0  0  0  0  0  0  0  0
    2.1440   -1.4520   -2.7960 C   0  0  0  0  0  0  0  0  0  0  0  0
    3.6850   -1.5440   -0.9610 N   0  0  0  0  0  0  0  0  0  0  0  0
    3.8430   -0.1280   -0.8130 C   0  0  0  0  0  0  0  0  0  0  0  0
    2.8700    0.6630   -1.0610 O   0  0  0  0  0  0  0  0  0  0  0  0
    5.0500    0.4840   -0.3920 N   0  0  0  0  0  0  0  0  0  0  0  0
    5.2130    1.9190   -0.2340 C   0  0  0  0  0  0  0  0  0  0  0  0
    4.9650    2.6580   -1.5440 C   0  0  1  0  0  0  0  0  0  0  0  0
    5.3770    4.0960   -1.3920 C   0  0  0  0  0  0  0  0  0  0  0  0
    6.8810    4.0140   -1.4170 C   0  0  0  0  0  0  0  0  0  0  0  0
    7.1210    2.6830   -2.1040 C   0  0  0  0  0  0  0  0  0  0  0  0
    5.8770    2.2200   -2.5180 O   0  0  0  0  0  0  0  0  0  0  0  0
    1.3070   -1.4720   -0.5050 C   0  0  0  0  0  0  0  0  0  0  0  0
    1.4410   -1.1760    0.8550 C   0  0  0  0  0  0  0  0  0  0  0  0
    0.2640   -0.6880    1.2800 N   0  0  0  0  0  0  0  0  0  0  0  0
   -0.6290   -0.6450    0.2970 C   0  0  0  0  0  0  0  0  0  0  0  0
   -1.9930   -0.1320    0.4600 C   0  0  0  0  0  0  0  0  0  0  0  0
   -2.3570    0.3520    1.5870 O   0  0  0  0  0  0  0  0  0  0  0  0
   -2.9710   -0.1270   -0.5620 N   0  0  0  0  0  0  0  0  0  0  0  0
   -4.2290    0.3990   -0.2920 N   0  0  0  0  0  0  0  0  0  0  0  0
   -5.2630   -0.2630    0.4400 C   0  0  0  0  0  0  0  0  0  0  0  0
   -5.0060   -1.4340    0.8460 O   0  0  0  0  0  0  0  0  0  0  0  0
   -6.5050    0.3040    0.7250 N   0  0  0  0  0  0  0  0  0  0  0  0
   -7.5430   -0.4000    1.4820 C   0  0  2  0  0  0  0  0  0  0  0  0
   -8.9180   -0.0940    1.0140 C   0  0  0  0  0  0  0  0  0  0  0  0
   -9.8020   -0.8330    1.8270 O   0  0  0  0  0  0  0  0  0  0  0  0
   -7.3650   -0.0100    2.9290 C   0  0  0  0  0  0  0  0  0  0  0  0
   -8.0540    0.3990    4.0250 C   0  0  0  0  0  0  0  0  0  0  0  0
   -6.8970    0.4450    4.7570 N   0  0  0  0  0  0  0  0  0  0  0  0
   -6.2810    0.0470    3.6640 O   0  0  0  0  0  0  0  0  0  0  0  0
    0.0090   -1.1300   -0.8180 C   0  0  0  0  0  0  0  0  0  0  0  0
  1  2  1  0
  2  3  1  0
  3  4  1  6
  3  5  1  0
  3 15  1  0
  5  6  1  0
  6  7  2  0
  6  8  1  0
  8  9  1  0
 10  9  1  1
 10 11  1  0
 10 14  1  0
 11 12  1  0
 12 13  1  0
 13 14  1  0
 15 16  2  0
 15 33  1  0
 16 17  1  0
 17 18  1  0
 18 19  1  0
 18 33  2  0
 19 20  2  0
 19 21  1  0
 21 22  1  0
 22 23  1  0
 23 24  2  0
 23 25  1  0
 25 26  1  0
 26 27  1  6
 26 29  1  0
 27 28  1  0
 29 30  2  0
 29 32  1  0
 30 31  1  0
 31 32  1  0
M  END
