
     RDKit          3D

 33 34  0  0  0  0  0  0  0  0999 V2000
    7.9080    2.3390    0.1090 C   0  0  0  0  0  0  0  0  0  0  0  0
    8.0750    1.1370   -0.4020 C   0  0  0  0  0  0  0  0  0  0  0  0
    7.5570   -0.0910    0.1670 C   0  0  0  0  0  0  0  0  0  0  0  0
    7.7790   -1.2490   -0.4040 C   0  0  0  0  0  0  0  0  0  0  0  0
    7.2750   -2.5400    0.1280 C   0  0  0  0  0  0  0  0  0  0  0  0
    6.7870   -0.0200    1.3660 N   0  0  0  0  0  0  0  0  0  0  0  0
    5.4360    0.3260    1.3910 N   0  0  0  0  0  0  0  0  0  0  0  0
    4.6210    0.3430    0.2400 C   0  0  0  0  0  0  0  0  0  0  0  0
    5.0870    0.0290   -0.8810 O   0  0  0  0  0  0  0  0  0  0  0  0
    3.1620    0.7380    0.2700 C   0  0  0  0  0  0  0  0  0  0  0  0
    2.5910    0.7250   -1.0970 C   0  0  0  0  0  0  0  0  0  0  0  0
    1.2630    1.1750   -1.2760 N   0  0  0  0  0  0  0  0  0  0  0  0
    0.1010    0.6370   -0.6090 C   0  0  0  0  0  0  0  0  0  0  0  0
    0.3000   -0.2490    0.2010 O   0  0  0  0  0  0  0  0  0  0  0  0
   -1.1720    1.0950   -0.8730 N   0  0  0  0  0  0  0  0  0  0  0  0
   -2.5000    0.8220   -0.5070 C   0  0  0  0  0  0  0  0  0  0  0  0
   -2.9720   -0.0880    0.2600 C   0  0  0  0  0  0  0  0  0  0  0  0
   -2.0450   -1.0340    0.8630 N   0  0  0  0  0  0  0  0  0  0  0  0
   -2.3330   -1.5200    2.1640 C   0  0  0  0  0  0  0  0  0  0  0  0
   -1.5040   -2.3380    2.6830 O   0  0  0  0  0  0  0  0  0  0  0  0
   -3.5190   -1.0900    2.8360 N   0  0  0  0  0  0  0  0  0  0  0  0
   -4.4170   -0.1760    2.1910 C   0  0  0  0  0  0  0  0  0  0  0  0
   -5.1340    0.5960    2.8090 O   0  0  0  0  0  0  0  0  0  0  0  0
   -4.3960   -0.2540    0.6790 C   0  0  1  0  0  0  0  0  0  0  0  0
   -5.3450    0.6650    0.0860 C   0  0  0  0  0  0  0  0  0  0  0  0
   -6.7980    0.6010    0.3760 C   0  0  0  0  0  0  0  0  0  0  0  0
   -7.4990   -0.6500    0.0040 C   0  0  0  0  0  0  0  0  0  0  0  0
   -7.4200   -0.9880   -1.4520 C   0  0  0  0  0  0  0  0  0  0  0  0
   -8.1770   -2.0570   -1.9880 N   0  0  0  0  0  0  0  0  0  0  0  0
   -6.6870   -0.3470   -2.2480 O   0  0  0  0  0  0  0  0  0  0  0  0
   -4.8850    1.5910   -0.7240 C   0  0  0  0  0  0  0  0  0  0  0  0
   -3.5120    1.7760   -1.0880 C   0  0  0  0  0  0  0  0  0  0  0  0
   -3.1410    2.6860   -1.8550 O   0  0  0  0  0  0  0  0  0  0  0  0
  1  2  2  0
  2  3  1  0
  3  4  2  3
  3  6  1  0
  4  5  1  0
  6  7  1  0
  7  8  1  0
  8  9  2  0
  8 10  1  0
 10 11  1  0
 11 12  1  0
 12 13  1  0
 13 14  2  0
 13 15  1  0
 15 16  1  0
 16 17  2  0
 16 32  1  0
 17 18  1  0
 17 24  1  0
 18 19  1  0
 19 20  2  0
 19 21  1  0
 21 22  1  0
 22 23  2  0
 24 22  1  1
 24 25  1  0
 25 26  1  0
 25 31  2  0
 26 27  1  0
 27 28  1  0
 28 29  1  0
 28 30  2  0
 31 32  1  0
 32 33  2  0
M  END
