
     RDKit          3D

 33 35  0  0  0  0  0  0  0  0999 V2000
   -7.3640   -1.7810    1.2630 C   0  0  0  0  0  0  0  0  0  0  0  0
   -6.9480   -0.6330    0.7380 C   0  0  0  0  0  0  0  0  0  0  0  0
   -6.2870   -0.6340   -0.4950 O   0  0  0  0  0  0  0  0  0  0  0  0
   -6.2880    0.6170   -1.2080 C   0  0  2  0  0  0  0  0  0  0  0  0
   -5.7920    0.4220   -2.5730 C   0  0  0  0  0  0  0  0  0  0  0  0
   -4.4760   -0.1180   -2.7190 N   0  0  0  0  0  0  0  0  0  0  0  0
   -3.2600    0.4780   -2.3190 C   0  0  0  0  0  0  0  0  0  0  0  0
   -3.2260    1.5980   -1.7870 O   0  0  0  0  0  0  0  0  0  0  0  0
   -1.9640   -0.2430   -2.5340 C   0  0  0  0  0  0  0  0  0  0  0  0
   -0.8270    0.5820   -2.0290 C   0  0  0  0  0  0  0  0  0  0  0  0
   -0.8620    0.9170   -0.6450 N   0  0  0  0  0  0  0  0  0  0  0  0
    0.3320    1.7190   -0.3650 C   0  0  0  0  0  0  0  0  0  0  0  0
    0.8180    1.4640    1.0390 C   0  0  0  0  0  0  0  0  0  0  0  0
    1.4020    0.0650    1.0830 C   0  0  2  0  0  0  0  0  0  0  0  0
    2.6610    0.1100    0.3700 N   0  0  0  0  0  0  0  0  0  0  0  0
    3.8520   -0.2460    1.1100 C   0  0  0  0  0  0  0  0  0  0  0  0
    3.7570   -0.5710    2.3070 O   0  0  0  0  0  0  0  0  0  0  0  0
    5.1190   -0.2310    0.4950 N   0  0  0  0  0  0  0  0  0  0  0  0
    6.3670   -0.5540    1.0960 C   0  0  0  0  0  0  0  0  0  0  0  0
    6.5400   -0.9200    2.3390 C   0  0  0  0  0  0  0  0  0  0  0  0
    7.8320   -1.2530    2.9560 C   0  0  0  0  0  0  0  0  0  0  0  0
    7.9100   -1.5980    4.1650 O   0  0  0  0  0  0  0  0  0  0  0  0
    9.0000   -1.1810    2.1630 N   0  0  0  0  0  0  0  0  0  0  0  0
    8.8350   -0.7880    0.8190 C   0  0  0  0  0  0  0  0  0  0  0  0
    9.9070   -0.7220    0.1170 O   0  0  0  0  0  0  0  0  0  0  0  0
    7.5530   -0.4580    0.1870 C   0  0  1  0  0  0  0  0  0  0  0  0
    7.3910   -1.3460   -0.9540 N   0  0  0  0  0  0  0  0  0  0  0  0
    0.4180   -0.8510    0.3640 C   0  0  0  0  0  0  0  0  0  0  0  0
   -0.9500   -0.1990    0.2610 C   0  0  0  0  0  0  0  0  0  0  0  0
   -5.6960    1.6200   -0.3060 C   0  0  0  0  0  0  0  0  0  0  0  0
   -6.6800    1.7890    0.7650 O   0  0  0  0  0  0  0  0  0  0  0  0
   -7.1600    0.6340    1.4090 C   0  0  0  0  0  0  0  0  0  0  0  0
   -7.7620    0.7420    2.5540 N   0  0  0  0  0  0  0  0  0  0  0  0
  1  2  2  0
  2  3  1  0
  2 32  1  0
  3  4  1  0
  4  5  1  6
  4 30  1  0
  5  6  1  0
  6  7  1  0
  7  8  2  0
  7  9  1  0
  9 10  1  0
 10 11  1  0
 11 12  1  0
 11 29  1  0
 12 13  1  0
 13 14  1  0
 14 15  1  6
 14 28  1  0
 15 16  1  0
 16 17  2  0
 16 18  1  0
 18 19  1  0
 19 20  2  0
 19 26  1  0
 20 21  1  0
 21 22  2  0
 21 23  1  0
 23 24  1  0
 24 25  2  0
 24 26  1  0
 26 27  1  6
 28 29  1  0
 30 31  1  0
 31 32  1  0
 32 33  2  0
M  END
