
     RDKit          3D

 33 37  0  0  0  0  0  0  0  0999 V2000
   -8.5500    2.3210    1.7130 C   0  0  0  0  0  0  0  0  0  0  0  0
   -7.6590    1.2860    1.1250 C   0  0  0  0  0  0  0  0  0  0  0  0
   -8.1500    0.3280    0.2660 C   0  0  0  0  0  0  0  0  0  0  0  0
   -7.2400   -0.6010   -0.2360 C   0  0  0  0  0  0  0  0  0  0  0  0
   -5.9050   -0.5650    0.1110 C   0  0  0  0  0  0  0  0  0  0  0  0
   -5.4480    0.4060    0.9710 C   0  0  0  0  0  0  0  0  0  0  0  0
   -6.3180    1.3500    1.4940 C   0  0  0  0  0  0  0  0  0  0  0  0
   -4.0110    0.4170    1.3240 C   0  0  0  0  0  0  0  0  0  0  0  0
   -3.1920    0.0560    0.1380 C   0  0  0  0  0  0  0  0  0  0  0  0
   -1.9800    0.6530   -0.1470 C   0  0  0  0  0  0  0  0  0  0  0  0
   -1.2490    0.2850   -1.2610 C   0  0  0  0  0  0  0  0  0  0  0  0
   -1.6780   -0.6840   -2.1430 C   0  0  0  0  0  0  0  0  0  0  0  0
   -0.9480   -1.0510   -3.2600 O   0  0  0  0  0  0  0  0  0  0  0  0
    0.2690   -0.5650   -3.6790 C   0  0  0  0  0  0  0  0  0  0  0  0
    1.4140   -0.7870   -2.7480 C   0  0  0  0  0  0  0  0  0  0  0  0
    2.5140   -0.2380   -3.0750 O   0  0  0  0  0  0  0  0  0  0  0  0
    1.3610   -1.5320   -1.5860 N   0  0  0  0  0  0  0  0  0  0  0  0
    2.4740   -1.7370   -0.6960 C   0  0  0  0  0  0  0  0  0  0  0  0
    3.6970   -1.3440   -0.7040 N   0  0  0  0  0  0  0  0  0  0  0  0
    4.5440   -1.6660    0.2390 C   0  0  0  0  0  0  0  0  0  0  0  0
    6.0160   -1.2250    0.2810 C   0  0  0  0  0  0  0  0  0  0  0  0
    6.1220   -0.0610    1.0940 N   0  0  0  0  0  0  0  0  0  0  0  0
    5.3890    1.0840    0.6740 C   0  0  0  0  0  0  0  0  0  0  0  0
    6.1260    2.3660    1.0550 C   0  0  0  0  0  0  0  0  0  0  0  0
    7.4080    2.3060    0.5160 O   0  0  0  0  0  0  0  0  0  0  0  0
    8.1620    1.3370    1.1350 C   0  0  0  0  0  0  0  0  0  0  0  0
    7.3930    0.1840    1.6880 C   0  0  0  0  0  0  0  0  0  0  0  0
    4.0690   -2.4680    1.2800 C   0  0  0  0  0  0  0  0  0  0  0  0
    2.3530   -2.6840    0.7580 S   0  0  0  0  0  0  0  0  0  0  0  0
   -2.9000   -1.2830   -1.8530 C   0  0  0  0  0  0  0  0  0  0  0  0
   -3.4810   -2.5170   -2.9460 Cl  0  0  0  0  0  0  0  0  0  0  0  0
   -3.6320   -0.9210   -0.7440 C   0  0  0  0  0  0  0  0  0  0  0  0
   -4.9410   -1.5570   -0.4300 C   0  0  0  0  0  0  0  0  0  0  0  0
  1  2  1  0
  2  3  2  0
  2  7  1  0
  3  4  1  0
  4  5  2  0
  5  6  1  0
  5 33  1  0
  6  7  2  0
  6  8  1  0
  8  9  1  0
  9 10  2  0
  9 32  1  0
 10 11  1  0
 11 12  2  0
 12 13  1  0
 12 30  1  0
 13 14  1  0
 14 15  1  0
 15 16  2  0
 15 17  1  0
 17 18  1  0
 18 19  2  0
 18 29  1  0
 19 20  1  0
 20 21  1  0
 20 28  2  0
 21 22  1  0
 22 23  1  0
 22 27  1  0
 23 24  1  0
 24 25  1  0
 25 26  1  0
 26 27  1  0
 28 29  1  0
 30 31  1  0
 30 32  2  0
 32 33  1  0
M  CHG  1  19   1
M  END
