
     RDKit          3D

 33 35  0  0  0  0  0  0  0  0999 V2000
    7.1370    1.2420    1.0820 C   0  0  0  0  0  0  0  0  0  0  0  0
    6.9610    0.6980   -0.3250 C   0  0  2  0  0  0  0  0  0  0  0  0
    8.3720    0.6380   -0.9130 C   0  0  0  0  0  0  0  0  0  0  0  0
    9.2130   -0.2650   -0.1030 C   0  0  0  0  0  0  0  0  0  0  0  0
    8.8740   -1.4290    0.1180 O   0  0  0  0  0  0  0  0  0  0  0  0
    6.1480    1.5750   -1.2130 C   0  0  0  0  0  0  0  0  0  0  0  0
    4.7570    1.1430   -1.1650 N   0  0  0  0  0  0  0  0  0  0  0  0
    3.6900    1.6240   -1.8040 N   0  0  0  0  0  0  0  0  0  0  0  0
    2.5790    0.9060   -1.4490 C   0  0  0  0  0  0  0  0  0  0  0  0
    2.9550   -0.0640   -0.5530 C   0  0  0  0  0  0  0  0  0  0  0  0
    2.2050   -0.9840    0.0570 O   0  0  0  0  0  0  0  0  0  0  0  0
    0.9140   -1.3870    0.0810 C   0  0  0  0  0  0  0  0  0  0  0  0
    0.2950   -1.9560   -1.1470 C   0  0  2  0  0  0  0  0  0  0  0  0
    0.3250   -1.0560   -2.1970 O   0  0  0  0  0  0  0  0  0  0  0  0
   -1.1360   -2.4130   -0.9220 C   0  0  0  0  0  0  0  0  0  0  0  0
   -2.0090   -1.3420   -0.5920 N   0  0  0  0  0  0  0  0  0  0  0  0
   -3.4140   -1.5710   -0.3700 C   0  0  0  0  0  0  0  0  0  0  0  0
   -3.8890   -2.7240   -0.4700 O   0  0  0  0  0  0  0  0  0  0  0  0
   -4.2850   -0.5090   -0.0390 N   0  0  0  0  0  0  0  0  0  0  0  0
   -5.6670   -0.5370    0.1730 C   0  0  0  0  0  0  0  0  0  0  0  0
   -6.4340   -1.5760   -0.2750 C   0  0  0  0  0  0  0  0  0  0  0  0
   -7.8350   -1.6090   -0.1660 C   0  0  0  0  0  0  0  0  0  0  0  0
   -8.4690   -0.5480    0.4170 C   0  0  0  0  0  0  0  0  0  0  0  0
   -9.8760   -0.5460    0.5420 N   0  0  0  0  0  0  0  0  0  0  0  0
   -7.6810    0.5020    0.8690 C   0  0  0  0  0  0  0  0  0  0  0  0
   -6.3130    0.5460    0.7700 C   0  0  0  0  0  0  0  0  0  0  0  0
   -5.5130    1.5790    1.2960 N   0  0  0  0  0  0  0  0  0  0  0  0
   -5.9580    2.8330    1.8000 C   0  0  0  0  0  0  0  0  0  0  0  0
   -5.0100    3.7910    2.3180 N   0  0  0  0  0  0  0  0  0  0  0  0
   -7.1540    3.1080    1.7970 O   0  0  0  0  0  0  0  0  0  0  0  0
    4.3410    0.1250   -0.4040 C   0  0  0  0  0  0  0  0  0  0  0  0
    5.2690   -0.6640    0.4490 C   0  0  0  0  0  0  0  0  0  0  0  0
    6.5170   -0.6010   -0.2100 O   0  0  0  0  0  0  0  0  0  0  0  0
  2  1  1  1
  2  3  1  0
  2  6  1  0
  2 33  1  0
  3  4  1  0
  4  5  2  0
  6  7  1  0
  7  8  1  0
  7 31  1  0
  8  9  2  0
  9 10  1  0
 10 11  1  0
 10 31  2  0
 11 12  1  0
 12 13  1  0
 13 14  1  6
 13 15  1  0
 15 16  1  0
 16 17  1  0
 17 18  2  0
 17 19  1  0
 19 20  1  0
 20 21  2  0
 20 26  1  0
 21 22  1  0
 22 23  2  0
 23 24  1  0
 23 25  1  0
 25 26  2  0
 26 27  1  0
 27 28  1  0
 28 29  1  0
 28 30  2  0
 31 32  1  0
 32 33  1  0
M  END
