
     RDKit          3D

 33 35  0  0  0  0  0  0  0  0999 V2000
   -2.1910    1.3110   -2.4390 C   0  0  0  0  0  0  0  0  0  0  0  0
   -2.4160   -0.1360   -2.1550 C   0  0  0  0  0  0  0  0  0  0  0  0
   -2.7040   -0.8230   -3.1820 O   0  0  0  0  0  0  0  0  0  0  0  0
   -2.3230   -0.7260   -0.8410 C   0  0  0  0  0  0  0  0  0  0  0  0
   -2.5680   -2.0240   -0.7280 C   0  0  0  0  0  0  0  0  0  0  0  0
   -2.9340   -2.9130   -1.8610 C   0  0  0  0  0  0  0  0  0  0  0  0
   -2.4650   -2.6800    0.5410 N   0  0  0  0  0  0  0  0  0  0  0  0
   -2.1000   -1.9830    1.7110 C   0  0  0  0  0  0  0  0  0  0  0  0
   -2.0230   -2.6490    2.9730 N   0  0  0  0  0  0  0  0  0  0  0  0
   -1.8470   -0.6770    1.6110 C   0  0  0  0  0  0  0  0  0  0  0  0
   -1.4690    0.0340    2.8210 C   0  0  0  0  0  0  0  0  0  0  0  0
   -1.4160   -0.6680    4.0780 N   0  0  0  0  0  0  0  0  0  0  0  0
   -1.1920    1.2440    2.7920 O   0  0  0  0  0  0  0  0  0  0  0  0
   -2.0080    0.0840    0.3350 C   0  0  1  0  0  0  0  0  0  0  0  0
   -1.1240    1.1990    0.2440 C   0  0  0  0  0  0  0  0  0  0  0  0
   -1.6800    2.3360    0.6980 O   0  0  0  0  0  0  0  0  0  0  0  0
    0.1750    1.4510   -0.1910 N   0  0  0  0  0  0  0  0  0  0  0  0
    0.6330    2.8950   -0.0380 C   0  0  0  0  0  0  0  0  0  0  0  0
    0.2410    3.6790   -1.2820 C   0  0  0  0  0  0  0  0  0  0  0  0
    0.6900    4.9820   -1.0830 O   0  0  0  0  0  0  0  0  0  0  0  0
    0.3490    5.7010   -2.1880 N   0  0  0  0  0  0  0  0  0  0  0  0
    1.1160    0.5860   -0.7630 C   0  0  0  0  0  0  0  0  0  0  0  0
    2.1350   -0.1460   -0.0190 C   0  0  2  0  0  0  0  0  0  0  0  0
    2.9700   -0.8740   -1.1540 C   0  0  0  0  0  0  0  0  0  0  0  0
    2.1980   -2.1060   -1.4680 C   0  0  0  0  0  0  0  0  0  0  0  0
    1.1940   -2.2480   -0.3300 C   0  0  0  0  0  0  0  0  0  0  0  0
    1.7730   -1.3520    0.6860 N   0  0  0  0  0  0  0  0  0  0  0  0
    2.0300   -1.5490    2.0780 C   0  0  0  0  0  0  0  0  0  0  0  0
    1.2810   -2.2510    2.7830 O   0  0  0  0  0  0  0  0  0  0  0  0
    3.1800   -0.9130    2.6230 N   0  0  0  0  0  0  0  0  0  0  0  0
    3.9480   -0.1420    1.7080 C   0  0  0  0  0  0  0  0  0  0  0  0
    5.2180   -0.1420    1.7410 O   0  0  0  0  0  0  0  0  0  0  0  0
    3.1660    0.6630    0.7110 C   0  0  0  0  0  0  0  0  0  0  0  0
  1  2  1  0
  2  3  2  0
  2  4  1  0
  4  5  2  0
  4 14  1  0
  5  6  1  0
  5  7  1  0
  7  8  1  0
  8  9  1  0
  8 10  2  0
 10 11  1  0
 10 14  1  0
 11 12  1  0
 11 13  2  0
 14 15  1  6
 15 16  2  0
 15 17  1  0
 17 18  1  0
 17 22  1  0
 18 19  1  0
 19 20  1  0
 20 21  1  0
 23 22  1  6
 23 24  1  0
 23 27  1  0
 23 33  1  0
 24 25  1  0
 25 26  1  0
 26 27  1  0
 27 28  1  0
 28 29  2  0
 28 30  1  0
 30 31  1  0
 31 32  2  0
 31 33  1  0
M  END
