
     RDKit          3D

 33 35  0  0  0  0  0  0  0  0999 V2000
   -8.5420    1.2780    1.9480 C   0  0  0  0  0  0  0  0  0  0  0  0
   -7.0970    1.3930    1.4980 C   0  0  0  0  0  0  0  0  0  0  0  0
   -7.0290    1.0610    0.1220 N   0  0  0  0  0  0  0  0  0  0  0  0
   -5.8070    1.0920   -0.4910 N   0  0  0  0  0  0  0  0  0  0  0  0
   -4.6510    0.3730   -0.1310 C   0  0  0  0  0  0  0  0  0  0  0  0
   -4.7180   -0.3800    0.8680 O   0  0  0  0  0  0  0  0  0  0  0  0
   -3.3720    0.4550   -0.8650 C   0  0  2  0  0  0  0  0  0  0  0  0
   -3.5610    0.1000   -2.3350 C   0  0  0  0  0  0  0  0  0  0  0  0
   -3.3670   -1.3320   -2.6360 C   0  0  0  0  0  0  0  0  0  0  0  0
   -3.5170   -2.2540   -1.4530 C   0  0  1  0  0  0  0  0  0  0  0  0
   -3.2140   -3.5700   -1.7890 O   0  0  0  0  0  0  0  0  0  0  0  0
   -2.6570   -1.8220   -0.2910 C   0  0  0  0  0  0  0  0  0  0  0  0
   -2.3360   -0.4110   -0.3870 N   0  0  0  0  0  0  0  0  0  0  0  0
   -1.0490    0.0430   -0.0770 C   0  0  0  0  0  0  0  0  0  0  0  0
   -0.2070   -0.8790    0.2530 O   0  0  0  0  0  0  0  0  0  0  0  0
   -0.5140    1.3890   -0.0600 C   0  0  0  0  0  0  0  0  0  0  0  0
    0.8240    1.4550   -0.7700 C   0  0  0  0  0  0  0  0  0  0  0  0
    1.8450    0.7620   -0.4670 O   0  0  0  0  0  0  0  0  0  0  0  0
    2.8930    0.0440   -0.1570 C   0  0  0  0  0  0  0  0  0  0  0  0
    4.0670    0.5830    0.3310 N   0  0  0  0  0  0  0  0  0  0  0  0
    4.9830   -0.3340    0.5680 C   0  0  0  0  0  0  0  0  0  0  0  0
    6.3820   -0.2460    1.0070 C   0  0  0  0  0  0  0  0  0  0  0  0
    7.0920    0.9040    0.9130 C   0  0  0  0  0  0  0  0  0  0  0  0
    6.5940    2.1410    0.2620 C   0  0  0  0  0  0  0  0  0  0  0  0
    8.3760    0.9910    1.3870 N   0  0  0  0  0  0  0  0  0  0  0  0
    8.9550   -0.0690    1.9550 C   0  0  0  0  0  0  0  0  0  0  0  0
   10.1420   -0.0380    2.4070 O   0  0  0  0  0  0  0  0  0  0  0  0
    8.2720   -1.2170    2.0570 N   0  0  0  0  0  0  0  0  0  0  0  0
    7.0000   -1.3370    1.6010 C   0  0  0  0  0  0  0  0  0  0  0  0
    6.4290   -2.4330    1.7350 O   0  0  0  0  0  0  0  0  0  0  0  0
    4.4100   -1.5800    0.2260 C   0  0  0  0  0  0  0  0  0  0  0  0
    3.1350   -1.2990   -0.2110 C   0  0  0  0  0  0  0  0  0  0  0  0
    2.2520   -2.3320   -0.6570 N   0  0  0  0  0  0  0  0  0  0  0  0
  1  2  1  0
  2  3  1  0
  3  4  1  0
  4  5  1  0
  5  6  2  0
  7  5  1  1
  7  8  1  0
  7 13  1  0
  8  9  1  0
  9 10  1  0
 10 11  1  6
 10 12  1  0
 12 13  1  0
 13 14  1  0
 14 15  2  0
 14 16  1  0
 16 17  1  0
 17 18  1  0
 18 19  1  0
 19 20  1  0
 19 32  2  0
 20 21  1  0
 21 22  1  0
 21 31  2  0
 22 23  2  0
 22 29  1  0
 23 24  1  0
 23 25  1  0
 25 26  1  0
 26 27  2  0
 26 28  1  0
 28 29  1  0
 29 30  2  0
 31 32  1  0
 32 33  1  0
M  END
