
     RDKit          3D

 36 39  0  0  0  0  0  0  0  0999 V2000
   -5.0340    0.7630   -2.6500 C   0  0  0  0  0  0  0  0  0  0  0  0
   -6.1510    0.8620   -1.7490 C   0  0  0  0  0  0  0  0  0  0  0  0
   -6.5130    0.4970   -0.5600 C   0  0  0  0  0  0  0  0  0  0  0  0
   -7.9330    0.9720   -0.2080 C   0  0  0  0  0  0  0  0  0  0  0  0
   -5.8030   -0.2200    0.4440 C   0  0  0  0  0  0  0  0  0  0  0  0
   -6.3920   -0.5200    1.6150 C   0  0  0  0  0  0  0  0  0  0  0  0
   -5.6070   -1.2840    2.6630 C   0  0  0  0  0  0  0  0  0  0  0  0
   -7.7010   -0.2210    2.0050 N   0  0  0  0  0  0  0  0  0  0  0  0
   -4.3890   -0.6870    0.3930 C   0  0  2  0  0  0  0  0  0  0  0  0
   -3.3750    0.4020    0.3110 C   0  0  0  0  0  0  0  0  0  0  0  0
   -2.2120   -0.0010   -0.4190 N   0  0  0  0  0  0  0  0  0  0  0  0
   -2.3190   -1.0590   -1.2170 C   0  0  0  0  0  0  0  0  0  0  0  0
   -1.2570   -1.5130   -1.9510 C   0  0  0  0  0  0  0  0  0  0  0  0
   -0.0170   -0.8700   -1.8810 C   0  0  0  0  0  0  0  0  0  0  0  0
    0.9710   -1.2580   -2.5360 O   0  0  0  0  0  0  0  0  0  0  0  0
    0.0760    0.1960   -1.0720 N   0  0  0  0  0  0  0  0  0  0  0  0
    1.3760    0.8960   -0.9770 C   0  0  0  0  0  0  0  0  0  0  0  0
    2.1530    0.2560    0.1390 C   0  0  2  0  0  0  0  0  0  0  0  0
    3.5010    0.8330    0.3760 C   0  0  0  0  0  0  0  0  0  0  0  0
    4.5890   -0.0900    0.3250 N   0  0  0  0  0  0  0  0  0  0  0  0
    5.9200    0.3690    0.1050 C   0  0  0  0  0  0  0  0  0  0  0  0
    7.0540   -0.2520    0.4130 C   0  0  0  0  0  0  0  0  0  0  0  0
    8.2010    0.5480    0.0240 C   0  0  0  0  0  0  0  0  0  0  0  0
    9.6230    0.2140    0.1920 C   0  0  0  0  0  0  0  0  0  0  0  0
   10.0580   -0.8900    0.7340 C   0  0  0  0  0  0  0  0  0  0  0  0
    9.1960   -1.8180    1.1860 F   0  0  0  0  0  0  0  0  0  0  0  0
    7.7350    1.6580   -0.5210 C   0  0  0  0  0  0  0  0  0  0  0  0
    6.2650    1.6570   -0.5250 C   0  0  2  0  0  0  0  0  0  0  0  0
    5.8020    2.7270    0.2440 F   0  0  0  0  0  0  0  0  0  0  0  0
    5.7420    1.7160   -1.8070 F   0  0  0  0  0  0  0  0  0  0  0  0
    4.3950   -1.5040    0.4940 C   0  0  0  0  0  0  0  0  0  0  0  0
    2.9620   -1.7650    0.8740 C   0  0  0  0  0  0  0  0  0  0  0  0
    2.1550   -1.1220   -0.0700 O   0  0  0  0  0  0  0  0  0  0  0  0
   -0.9690    0.6070   -0.3780 C   0  0  0  0  0  0  0  0  0  0  0  0
   -0.8170    1.6150    0.3650 O   0  0  0  0  0  0  0  0  0  0  0  0
   -3.9900   -1.6600   -1.0830 S   0  0  0  0  0  0  0  0  0  0  0  0
  1  2  1  0
  2  3  2  3
  3  4  1  0
  3  5  1  0
  5  6  2  3
  9  5  1  6
  6  7  1  0
  6  8  1  0
  9 10  1  0
  9 36  1  0
 10 11  1  0
 11 12  1  0
 11 34  1  0
 12 13  2  0
 12 36  1  0
 13 14  1  0
 14 15  2  0
 14 16  1  0
 16 17  1  0
 16 34  1  0
 18 17  1  6
 18 19  1  0
 18 33  1  0
 19 20  1  0
 20 21  1  0
 20 31  1  0
 21 22  2  0
 21 28  1  0
 22 23  1  0
 23 24  1  0
 23 27  2  0
 24 25  2  3
 25 26  1  0
 27 28  1  0
 28 29  1  1
 28 30  1  0
 31 32  1  0
 32 33  1  0
 34 35  2  0
M  END
