
     RDKit          3D

 36 40  0  0  0  0  0  0  0  0999 V2000
   -5.9450   -3.4850    1.0240 C   0  0  0  0  0  0  0  0  0  0  0  0
   -5.6360   -2.8250   -0.0500 C   0  0  0  0  0  0  0  0  0  0  0  0
   -6.4790   -2.8270   -1.2670 C   0  0  0  0  0  0  0  0  0  0  0  0
   -4.3990   -2.0650   -0.1470 C   0  0  0  0  0  0  0  0  0  0  0  0
   -4.4830   -0.7920   -0.6720 C   0  0  0  0  0  0  0  0  0  0  0  0
   -3.3170   -0.0640   -0.8060 C   0  0  0  0  0  0  0  0  0  0  0  0
   -2.1040   -0.6290   -0.4150 C   0  0  0  0  0  0  0  0  0  0  0  0
   -0.9230    0.1430   -0.5120 C   0  0  0  0  0  0  0  0  0  0  0  0
   -1.1400    1.4440   -1.1490 C   0  0  0  0  0  0  0  0  0  0  0  0
   -0.9030    2.6140   -0.3040 N   0  0  0  0  0  0  0  0  0  0  0  0
   -1.8440    3.6820   -0.4340 C   0  0  0  0  0  0  0  0  0  0  0  0
   -2.7650    3.4880   -1.3400 O   0  0  0  0  0  0  0  0  0  0  0  0
   -1.9660    4.9200    0.2760 C   0  0  2  0  0  0  0  0  0  0  0  0
   -0.8290    5.9480    0.1560 C   0  0  0  0  0  0  0  0  0  0  0  0
   -1.1610    5.3120    1.4790 C   0  0  0  0  0  0  0  0  0  0  0  0
    0.2900   -0.3380   -0.1070 C   0  0  0  0  0  0  0  0  0  0  0  0
    1.4690    0.2770   -0.1930 N   0  0  0  0  0  0  0  0  0  0  0  0
    2.3780    0.9450   -0.4970 C   0  0  0  0  0  0  0  0  0  0  0  0
    2.4760    2.1470   -1.8960 S   0  0  0  0  0  0  0  0  0  0  0  0
    3.4350    3.3570   -0.9410 C   0  0  0  0  0  0  0  0  0  0  0  0
    4.0000    2.5060    0.1230 C   0  0  0  0  0  0  0  0  0  0  0  0
    4.7310    3.0740    1.0400 O   0  0  0  0  0  0  0  0  0  0  0  0
    3.7010    1.1380    0.0610 N   0  0  0  0  0  0  0  0  0  0  0  0
    4.6020    0.0960    0.4520 C   0  0  0  0  0  0  0  0  0  0  0  0
    5.4900   -0.4760   -0.5970 C   0  0  2  0  0  0  0  0  0  0  0  0
    4.7690   -1.0270   -1.6820 O   0  0  0  0  0  0  0  0  0  0  0  0
    6.2540   -1.6700   -0.0210 C   0  0  0  0  0  0  0  0  0  0  0  0
    5.4010   -2.7050    0.3620 O   0  0  0  0  0  0  0  0  0  0  0  0
    0.2580   -1.6680    0.4190 C   0  0  0  0  0  0  0  0  0  0  0  0
    1.4820   -2.2090    0.8280 C   0  0  0  0  0  0  0  0  0  0  0  0
    1.5410   -3.4840    1.3310 C   0  0  0  0  0  0  0  0  0  0  0  0
    0.3790   -4.2620    1.4430 C   0  0  0  0  0  0  0  0  0  0  0  0
   -0.8270   -3.7270    1.0350 C   0  0  0  0  0  0  0  0  0  0  0  0
   -0.8490   -2.4410    0.5360 C   0  0  0  0  0  0  0  0  0  0  0  0
   -2.0520   -1.8970    0.1050 C   0  0  0  0  0  0  0  0  0  0  0  0
   -3.1990   -2.6440    0.2510 C   0  0  0  0  0  0  0  0  0  0  0  0
  1  2  2  0
  2  3  1  0
  2  4  1  0
  4  5  2  0
  4 36  1  0
  5  6  1  0
  6  7  2  0
  7  8  1  0
  7 35  1  0
  8  9  1  0
  8 16  2  0
  9 10  1  0
 10 11  1  0
 11 12  2  0
 13 11  1  6
 13 14  1  0
 13 15  1  0
 14 15  1  0
 16 17  1  0
 16 29  1  0
 17 18  2  3
 18 19  1  0
 18 23  1  0
 19 20  1  0
 20 21  1  0
 21 22  2  0
 21 23  1  0
 23 24  1  0
 24 25  1  0
 25 26  1  6
 25 27  1  0
 27 28  1  0
 29 30  2  0
 29 34  1  0
 30 31  1  0
 31 32  2  0
 32 33  1  0
 33 34  2  0
 34 35  1  0
 35 36  2  0
M  END
