
     RDKit          3D

 36 40  0  0  0  0  0  0  0  0999 V2000
   -9.2150    2.2290    0.4440 C   0  0  0  0  0  0  0  0  0  0  0  0
   -8.6100    1.1890    1.3240 C   0  0  0  0  0  0  0  0  0  0  0  0
   -8.5730   -0.1680    0.7240 C   0  0  0  0  0  0  0  0  0  0  0  0
   -7.5490   -0.8190    0.2620 C   0  0  0  0  0  0  0  0  0  0  0  0
   -6.1250   -0.5110    0.1420 C   0  0  0  0  0  0  0  0  0  0  0  0
   -5.3680   -1.4490   -0.3210 O   0  0  0  0  0  0  0  0  0  0  0  0
   -5.4490    0.6630    0.4510 N   0  0  0  0  0  0  0  0  0  0  0  0
   -4.0690    0.9500    0.3520 C   0  0  0  0  0  0  0  0  0  0  0  0
   -3.6060    2.2710    0.3370 C   0  0  0  0  0  0  0  0  0  0  0  0
   -2.2720    2.5860    0.2640 C   0  0  0  0  0  0  0  0  0  0  0  0
   -1.3280    1.5530    0.2030 C   0  0  0  0  0  0  0  0  0  0  0  0
   -1.7530    0.2550    0.2170 C   0  0  0  0  0  0  0  0  0  0  0  0
   -0.7920   -0.8730    0.1480 C   0  0  0  0  0  0  0  0  0  0  0  0
   -1.1680   -2.0240    0.5000 O   0  0  0  0  0  0  0  0  0  0  0  0
    0.5260   -0.6860   -0.3010 N   0  0  0  0  0  0  0  0  0  0  0  0
    1.5370   -1.6500   -0.4160 C   0  0  0  0  0  0  0  0  0  0  0  0
    1.4130   -2.9770   -0.1000 C   0  0  0  0  0  0  0  0  0  0  0  0
    2.4810   -3.8870   -0.2410 C   0  0  0  0  0  0  0  0  0  0  0  0
    3.6840   -3.4220   -0.7120 C   0  0  0  0  0  0  0  0  0  0  0  0
    3.8570   -2.0770   -1.0470 C   0  0  0  0  0  0  0  0  0  0  0  0
    4.9520   -1.3970   -1.5290 C   0  0  0  0  0  0  0  0  0  0  0  0
    4.5330   -0.0920   -1.6720 C   0  0  0  0  0  0  0  0  0  0  0  0
    5.4480    1.3170   -2.2490 S   0  0  0  0  0  0  0  0  0  0  0  0
    6.2400    2.1430   -0.8510 C   0  0  0  0  0  0  0  0  0  0  0  0
    7.3020    1.2570   -0.2270 C   0  0  2  0  0  0  0  0  0  0  0  0
    7.9710    1.9350    0.9400 C   0  0  0  0  0  0  0  0  0  0  0  0
    8.7910    0.8780    1.6550 C   0  0  0  0  0  0  0  0  0  0  0  0
    8.8370   -0.4020    0.8480 C   0  0  0  0  0  0  0  0  0  0  0  0
    9.0180   -0.1640   -0.6210 C   0  0  0  0  0  0  0  0  0  0  0  0
    8.2860    0.8830   -1.1260 O   0  0  0  0  0  0  0  0  0  0  0  0
    3.2340   -0.0220   -1.2840 N   0  0  0  0  0  0  0  0  0  0  0  0
    2.7900   -1.2290   -0.8930 C   0  0  0  0  0  0  0  0  0  0  0  0
   -3.1230   -0.0230    0.2920 C   0  0  0  0  0  0  0  0  0  0  0  0
   -7.9890   -2.1050   -0.2150 O   0  0  0  0  0  0  0  0  0  0  0  0
   -9.3710   -1.9780   -0.5300 C   0  0  0  0  0  0  0  0  0  0  0  0
   -9.8040   -1.0360    0.5620 C   0  0  0  0  0  0  0  0  0  0  0  0
  1  2  1  0
  2  3  1  0
  3  4  2  0
  3 36  1  0
  4  5  1  0
  4 34  1  0
  5  6  2  0
  5  7  1  0
  7  8  1  0
  8  9  2  0
  8 33  1  0
  9 10  1  0
 10 11  2  0
 11 12  1  0
 12 13  1  0
 12 33  2  0
 13 14  2  0
 13 15  1  0
 15 16  1  0
 16 17  2  0
 16 32  1  0
 17 18  1  0
 18 19  2  0
 19 20  1  0
 20 21  1  0
 20 32  2  0
 21 22  2  0
 22 23  1  0
 22 31  1  0
 23 24  1  0
 25 24  1  6
 25 26  1  0
 25 30  1  0
 26 27  1  0
 27 28  1  0
 28 29  1  0
 29 30  1  0
 31 32  1  0
 34 35  1  0
 35 36  1  0
M  END
