
     RDKit          3D

 36 40  0  0  0  0  0  0  0  0999 V2000
   -5.6130    2.9460    2.1930 C   0  0  0  0  0  0  0  0  0  0  0  0
   -5.9800    2.0040    1.2340 O   0  0  0  0  0  0  0  0  0  0  0  0
   -5.0810    1.1960    0.5520 C   0  0  0  0  0  0  0  0  0  0  0  0
   -3.7290    1.3430    0.8540 C   0  0  0  0  0  0  0  0  0  0  0  0
   -2.7990    0.5650    0.2050 C   0  0  0  0  0  0  0  0  0  0  0  0
   -1.0210    0.6900    0.5350 S   0  0  0  0  0  0  0  0  0  0  0  0
   -0.2950   -0.5200   -0.5590 C   0  0  0  0  0  0  0  0  0  0  0  0
    1.1770   -0.6520   -0.5150 C   0  0  0  0  0  0  0  0  0  0  0  0
    1.8410    0.0980    0.2930 C   0  0  0  0  0  0  0  0  0  0  0  0
    3.2010    0.3040    0.6480 C   0  0  0  0  0  0  0  0  0  0  0  0
    3.3590    1.2060    1.6210 O   0  0  0  0  0  0  0  0  0  0  0  0
    4.3560   -0.2890    0.1410 N   0  0  0  0  0  0  0  0  0  0  0  0
    4.4340   -1.0250   -1.0900 C   0  0  0  0  0  0  0  0  0  0  0  0
    5.3240   -0.1330   -2.0510 C   0  0  0  0  0  0  0  0  0  0  0  0
    6.5830    0.0940   -1.3080 C   0  0  0  0  0  0  0  0  0  0  0  0
    7.8220    0.2940   -1.7890 C   0  0  0  0  0  0  0  0  0  0  0  0
    8.7270    0.4610   -0.6740 C   0  0  0  0  0  0  0  0  0  0  0  0
    8.0730    0.3660    0.4630 C   0  0  0  0  0  0  0  0  0  0  0  0
    6.6750    0.1300    0.1510 C   0  0  0  0  0  0  0  0  0  0  0  0
    5.5810   -0.1530    0.9120 C   0  0  0  0  0  0  0  0  0  0  0  0
    5.7210   -0.2690    2.3160 C   0  0  0  0  0  0  0  0  0  0  0  0
    4.8350   -0.6090    3.2000 C   0  0  0  0  0  0  0  0  0  0  0  0
    5.1850   -0.6500    4.5410 F   0  0  0  0  0  0  0  0  0  0  0  0
    3.5850   -1.0390    2.9700 F   0  0  0  0  0  0  0  0  0  0  0  0
   -0.9910   -1.2670   -1.3680 C   0  0  0  0  0  0  0  0  0  0  0  0
   -2.4560   -1.1890   -1.4630 C   0  0  0  0  0  0  0  0  0  0  0  0
   -3.3190   -1.8890   -2.2460 N   0  0  0  0  0  0  0  0  0  0  0  0
   -4.5680   -1.4720   -1.9860 N   0  0  0  0  0  0  0  0  0  0  0  0
   -4.5320   -0.5110   -1.0460 C   0  0  0  0  0  0  0  0  0  0  0  0
   -5.4820    0.2750   -0.3910 C   0  0  0  0  0  0  0  0  0  0  0  0
   -6.8520    0.1230   -0.6990 N   0  0  0  0  0  0  0  0  0  0  0  0
   -7.6260   -0.8020    0.0230 C   0  0  0  0  0  0  0  0  0  0  0  0
   -7.0900   -1.4810    0.9320 O   0  0  0  0  0  0  0  0  0  0  0  0
   -9.0700   -1.0280   -0.2310 C   0  0  0  0  0  0  0  0  0  0  0  0
   -9.5460   -0.2290   -1.2490 F   0  0  0  0  0  0  0  0  0  0  0  0
   -3.2050   -0.3380   -0.7220 C   0  0  0  0  0  0  0  0  0  0  0  0
  1  2  1  0
  2  3  1  0
  3  4  2  0
  3 30  1  0
  4  5  1  0
  5  6  1  0
  5 36  2  0
  6  7  1  0
  7  8  1  0
  7 25  2  0
  8  9  2  3
  9 10  1  0
 10 11  2  0
 10 12  1  0
 12 13  1  0
 12 20  1  0
 13 14  1  0
 14 15  1  0
 15 16  2  0
 15 19  1  0
 16 17  1  0
 17 18  2  0
 18 19  1  0
 19 20  2  0
 20 21  1  0
 21 22  2  3
 22 23  1  0
 22 24  1  0
 25 26  1  0
 26 27  2  0
 26 36  1  0
 27 28  1  0
 28 29  1  0
 29 30  2  0
 29 36  1  0
 30 31  1  0
 31 32  1  0
 32 33  2  0
 32 34  1  0
 34 35  1  0
M  END
