
     RDKit          3D

 36 40  0  0  0  0  0  0  0  0999 V2000
   -6.9470    2.8300   -2.4340 O   0  0  0  0  0  0  0  0  0  0  0  0
   -6.6400    1.7780   -3.5150 S   0  0  0  0  0  0  0  0  0  0  0  0
   -6.1060    0.2390   -2.7480 C   0  0  1  0  0  0  0  0  0  0  0  0
   -4.6390    0.2310   -2.6460 C   0  0  0  0  0  0  0  0  0  0  0  0
   -4.2680    0.0960   -1.3610 C   0  0  0  0  0  0  0  0  0  0  0  0
   -2.8580    0.0700   -1.0070 C   0  0  0  0  0  0  0  0  0  0  0  0
   -1.8590    0.5290   -1.8460 N   0  0  0  0  0  0  0  0  0  0  0  0
   -0.6800    0.3910   -1.2510 C   0  0  0  0  0  0  0  0  0  0  0  0
    0.6130    0.7780   -1.8460 C   0  0  0  0  0  0  0  0  0  0  0  0
    1.7990    0.5990   -1.1480 C   0  0  0  0  0  0  0  0  0  0  0  0
    3.0360    0.9390   -1.6480 C   0  0  0  0  0  0  0  0  0  0  0  0
    4.2660    0.7630   -0.9780 N   0  0  0  0  0  0  0  0  0  0  0  0
    4.5140    0.0610    0.2110 C   0  0  0  0  0  0  0  0  0  0  0  0
    3.5550   -0.4990    0.7840 O   0  0  0  0  0  0  0  0  0  0  0  0
    5.8530   -0.0550    0.8290 C   0  0  0  0  0  0  0  0  0  0  0  0
    5.9640   -0.8130    1.9720 C   0  0  0  0  0  0  0  0  0  0  0  0
    7.1590   -0.9790    2.6170 C   0  0  0  0  0  0  0  0  0  0  0  0
    7.2300   -1.7370    3.7480 F   0  0  0  0  0  0  0  0  0  0  0  0
    8.2880   -0.3900    2.1360 C   0  0  0  0  0  0  0  0  0  0  0  0
    8.1790    0.3700    0.9910 C   0  0  0  0  0  0  0  0  0  0  0  0
    9.2940    0.9670    0.4960 F   0  0  0  0  0  0  0  0  0  0  0  0
    6.9720    0.5490    0.3240 C   0  0  0  0  0  0  0  0  0  0  0  0
    3.0810    1.4940   -2.9310 C   0  0  0  0  0  0  0  0  0  0  0  0
    1.9240    1.6840   -3.6480 C   0  0  0  0  0  0  0  0  0  0  0  0
    0.6880    1.3240   -3.1030 C   0  0  0  0  0  0  0  0  0  0  0  0
   -0.4380    1.5120   -3.8080 F   0  0  0  0  0  0  0  0  0  0  0  0
   -0.9040   -0.1310   -0.0950 O   0  0  0  0  0  0  0  0  0  0  0  0
   -2.2050   -0.3540    0.1120 C   0  0  0  0  0  0  0  0  0  0  0  0
   -2.6490   -0.9580    1.3370 C   0  0  0  0  0  0  0  0  0  0  0  0
   -1.8340   -0.9170    2.4260 C   0  0  0  0  0  0  0  0  0  0  0  0
   -2.2740   -1.5290    3.6850 C   0  0  0  0  0  0  0  0  0  0  0  0
   -3.6850   -1.3820    3.9550 N   0  0  0  0  0  0  0  0  0  0  0  0
   -4.5130   -1.1550    2.8160 C   0  0  0  0  0  0  0  0  0  0  0  0
   -3.8480   -1.7690    1.6020 C   0  0  0  0  0  0  0  0  0  0  0  0
   -5.4850    0.0550   -0.6040 C   0  0  0  0  0  0  0  0  0  0  0  0
   -6.5330    0.1410   -1.3830 N   0  0  0  0  0  0  0  0  0  0  0  0
  1  2  2  0
  3  2  1  1
  3  4  1  0
  3 36  1  0
  4  5  2  0
  5  6  1  0
  5 35  1  0
  6  7  1  0
  6 28  2  0
  7  8  2  0
  8  9  1  0
  8 27  1  0
  9 10  2  0
  9 25  1  0
 10 11  1  0
 11 12  1  0
 11 23  2  0
 12 13  1  0
 13 14  2  0
 13 15  1  0
 15 16  2  0
 15 22  1  0
 16 17  1  0
 17 18  1  0
 17 19  2  0
 19 20  1  0
 20 21  1  0
 20 22  2  0
 23 24  1  0
 24 25  2  0
 25 26  1  0
 27 28  1  0
 28 29  1  0
 29 30  2  0
 29 34  1  0
 30 31  1  0
 31 32  1  0
 32 33  1  0
 33 34  1  0
 35 36  2  0
M  END
