
     RDKit          3D

 36 40  0  0  0  0  0  0  0  0999 V2000
    7.0980    2.0020   -2.0930 C   0  0  0  0  0  0  0  0  0  0  0  0
    7.3510    1.5600   -0.6690 C   0  0  1  0  0  0  0  0  0  0  0  0
    7.1100    2.6590    0.3120 C   0  0  0  0  0  0  0  0  0  0  0  0
    6.4980    0.3700   -0.3650 C   0  0  0  0  0  0  0  0  0  0  0  0
    5.1240    0.4250   -0.3100 C   0  0  0  0  0  0  0  0  0  0  0  0
    4.6720   -0.8430   -0.0090 C   0  0  0  0  0  0  0  0  0  0  0  0
    5.7900   -1.6310    0.1090 C   0  0  0  0  0  0  0  0  0  0  0  0
    5.7740   -2.9730    0.4050 C   0  0  0  0  0  0  0  0  0  0  0  0
    4.5200   -3.5430    0.5920 C   0  0  0  0  0  0  0  0  0  0  0  0
    4.3740   -4.9760    0.9140 C   0  0  2  0  0  0  0  0  0  0  0  0
    5.6130   -5.5420    0.9770 F   0  0  0  0  0  0  0  0  0  0  0  0
    3.5850   -5.6310   -0.0160 F   0  0  0  0  0  0  0  0  0  0  0  0
    3.8160   -5.0590    2.1890 F   0  0  0  0  0  0  0  0  0  0  0  0
    3.3880   -2.7740    0.4790 C   0  0  0  0  0  0  0  0  0  0  0  0
    1.6290   -3.0960    0.6370 S   0  0  0  0  0  0  0  0  0  0  0  0
    1.1490   -1.3050    0.2660 C   0  0  0  0  0  0  0  0  0  0  0  0
   -0.2490   -0.9490    0.2580 N   0  0  0  0  0  0  0  0  0  0  0  0
   -0.6330    0.3640   -0.0130 C   0  0  0  0  0  0  0  0  0  0  0  0
    0.3820    1.1610   -0.2440 O   0  0  0  0  0  0  0  0  0  0  0  0
   -1.9320    0.9300   -0.0670 C   0  0  0  0  0  0  0  0  0  0  0  0
   -3.1140    0.4630    0.1280 C   0  0  0  0  0  0  0  0  0  0  0  0
   -3.4220   -0.9010    0.4930 C   0  0  1  0  0  0  0  0  0  0  0  0
   -4.8380   -1.0310    1.0860 C   0  0  0  0  0  0  0  0  0  0  0  0
   -5.1670   -2.4300    1.3300 N   0  0  0  0  0  0  0  0  0  0  0  0
   -5.1730   -3.1810    0.0860 C   0  0  0  0  0  0  0  0  0  0  0  0
   -4.5290   -2.3280   -0.9860 C   0  0  0  0  0  0  0  0  0  0  0  0
   -3.3630   -1.7460   -0.5840 O   0  0  0  0  0  0  0  0  0  0  0  0
   -4.1980    1.4230   -0.1030 N   0  0  0  0  0  0  0  0  0  0  0  0
   -4.7600    2.2180    0.9590 C   0  0  0  0  0  0  0  0  0  0  0  0
   -5.4870    3.4320    0.4140 C   0  0  0  0  0  0  0  0  0  0  0  0
   -4.7460    4.0140   -0.7510 C   0  0  0  0  0  0  0  0  0  0  0  0
   -4.4210    3.0350   -1.8410 C   0  0  0  0  0  0  0  0  0  0  0  0
   -4.7680    1.6380   -1.4020 C   0  0  0  0  0  0  0  0  0  0  0  0
    2.2320   -0.8440    0.1110 N   0  0  0  0  0  0  0  0  0  0  0  0
    3.4060   -1.4050    0.1770 C   0  0  0  0  0  0  0  0  0  0  0  0
    6.8450   -0.8480   -0.1150 O   0  0  0  0  0  0  0  0  0  0  0  0
  2  1  1  6
  2  3  1  0
  2  4  1  0
  4  5  2  0
  4 36  1  0
  5  6  1  0
  6  7  2  0
  6 35  1  0
  7  8  1  0
  7 36  1  0
  8  9  2  0
  9 10  1  0
  9 14  1  0
 10 11  1  1
 10 12  1  0
 10 13  1  0
 14 15  1  0
 14 35  2  0
 15 16  1  0
 16 17  1  0
 16 34  2  0
 17 18  1  0
 18 19  2  0
 18 20  1  0
 20 21  2  3
 22 21  1  6
 21 28  1  0
 22 23  1  0
 22 27  1  0
 23 24  1  0
 24 25  1  0
 25 26  1  0
 26 27  1  0
 28 29  1  0
 28 33  1  0
 29 30  1  0
 30 31  1  0
 31 32  1  0
 32 33  1  0
 34 35  1  0
M  END
