
     RDKit          3D

 36 39  0  0  0  0  0  0  0  0999 V2000
   -1.4160    4.1010    1.8330 C   0  0  0  0  0  0  0  0  0  0  0  0
   -1.5200    2.9800    1.1560 C   0  0  0  0  0  0  0  0  0  0  0  0
   -2.7780    2.5950    0.5150 C   0  0  0  0  0  0  0  0  0  0  0  0
   -3.7720    3.4410    0.6670 N   0  0  0  0  0  0  0  0  0  0  0  0
   -2.9420    1.4230   -0.2050 N   0  0  0  0  0  0  0  0  0  0  0  0
   -3.9040    0.4250    0.1890 C   0  0  0  0  0  0  0  0  0  0  0  0
   -4.9510    0.7890    0.7790 O   0  0  0  0  0  0  0  0  0  0  0  0
   -3.6700   -0.9780   -0.0860 C   0  0  0  0  0  0  0  0  0  0  0  0
   -4.5970   -2.0760    0.2700 C   0  0  0  0  0  0  0  0  0  0  0  0
   -5.7240   -1.8510    0.8690 C   0  0  0  0  0  0  0  0  0  0  0  0
   -6.7900   -2.7550    1.3170 C   0  0  0  0  0  0  0  0  0  0  0  0
   -6.4560   -4.4650    0.9690 S   0  0  0  0  0  0  0  0  0  0  0  0
   -4.8820   -4.5290    0.1590 C   0  0  0  0  0  0  0  0  0  0  0  0
   -4.1800   -3.4270   -0.0840 C   0  0  0  0  0  0  0  0  0  0  0  0
   -2.5020   -1.2340   -0.7120 C   0  0  0  0  0  0  0  0  0  0  0  0
   -1.5360   -0.1950   -1.0740 C   0  0  0  0  0  0  0  0  0  0  0  0
   -0.2230   -0.4530   -1.0180 C   0  0  0  0  0  0  0  0  0  0  0  0
    0.2230   -1.7570   -0.5840 C   0  0  0  0  0  0  0  0  0  0  0  0
   -0.8670   -2.5290   -0.0380 F   0  0  0  0  0  0  0  0  0  0  0  0
    1.3120   -2.3990   -0.4330 C   0  0  0  0  0  0  0  0  0  0  0  0
    1.0790   -3.7430    0.0620 F   0  0  0  0  0  0  0  0  0  0  0  0
    2.6050   -2.2410   -0.5770 F   0  0  0  0  0  0  0  0  0  0  0  0
    0.6680    0.5890   -1.3390 N   0  0  0  0  0  0  0  0  0  0  0  0
    2.0920    0.4270   -1.3370 C   0  0  0  0  0  0  0  0  0  0  0  0
    2.7340    0.6840   -0.0580 C   0  0  0  0  0  0  0  0  0  0  0  0
    2.0620    1.0180    0.9360 O   0  0  0  0  0  0  0  0  0  0  0  0
    4.1310    0.5550    0.0600 N   0  0  0  0  0  0  0  0  0  0  0  0
    4.9860    0.1710   -1.0480 C   0  0  0  0  0  0  0  0  0  0  0  0
    6.4010    0.5900   -0.6820 C   0  0  0  0  0  0  0  0  0  0  0  0
    6.9030   -0.2180    0.4960 C   0  0  0  0  0  0  0  0  0  0  0  0
    5.8180   -0.2720    1.5260 C   0  0  0  0  0  0  0  0  0  0  0  0
    4.7740    0.8110    1.3310 C   0  0  0  0  0  0  0  0  0  0  0  0
    0.1480    1.8820   -1.7040 C   0  0  0  0  0  0  0  0  0  0  0  0
    0.9700    2.8350   -1.9190 O   0  0  0  0  0  0  0  0  0  0  0  0
   -1.2620    2.1830   -1.8450 C   0  0  0  0  0  0  0  0  0  0  0  0
   -2.1670    1.1120   -1.4010 C   0  0  2  0  0  0  0  0  0  0  0  0
  1  2  2  0
  2  3  1  0
  3  4  2  0
  3  5  1  0
  5  6  1  0
  5 36  1  0
  6  7  2  0
  6  8  1  0
  8  9  1  0
  8 15  2  0
  9 10  2  0
  9 14  1  0
 10 11  1  0
 11 12  1  0
 12 13  1  0
 13 14  2  0
 15 16  1  0
 16 17  2  0
 16 36  1  0
 17 18  1  0
 17 23  1  0
 18 19  1  0
 18 20  2  3
 20 21  1  0
 20 22  1  0
 23 24  1  0
 23 33  1  0
 24 25  1  0
 25 26  2  0
 25 27  1  0
 27 28  1  0
 27 32  1  0
 28 29  1  0
 29 30  1  0
 30 31  1  0
 31 32  1  0
 33 34  2  0
 33 35  1  0
 36 35  1  1
M  END
