
     RDKit          3D

 18 19  0  0  0  0  0  0  0  0999 V2000
    2.1850    0.4020    1.3410 O   0  0  0  0  0  0  0  0  0  0  0  0
    2.6590    0.4440    0.1650 C   0  0  0  0  0  0  0  0  0  0  0  0
    1.7390    0.7440   -0.8650 N   0  0  0  0  0  0  0  0  0  0  0  0
    0.3360    0.9850   -0.5970 C   0  0  0  0  0  0  0  0  0  0  0  0
   -0.3320   -0.1970    0.0210 C   0  0  0  0  0  0  0  0  0  0  0  0
   -1.8170    0.0810    0.2940 C   0  0  2  0  0  0  0  0  0  0  0  0
   -1.8610    1.1670    1.1670 O   0  0  0  0  0  0  0  0  0  0  0  0
   -2.3800   -1.1190    0.9560 C   0  0  0  0  0  0  0  0  0  0  0  0
   -3.6850   -1.5970    0.3940 C   0  0  0  0  0  0  0  0  0  0  0  0
   -4.5300   -0.3780    0.1380 C   0  0  0  0  0  0  0  0  0  0  0  0
   -3.9400    0.3520   -1.0380 C   0  0  0  0  0  0  0  0  0  0  0  0
   -2.4530    0.4660   -0.9980 C   0  0  0  0  0  0  0  0  0  0  0  0
    4.0980    0.1920   -0.1100 C   0  0  0  0  0  0  0  0  0  0  0  0
    4.9310   -0.0760    0.8310 C   0  0  0  0  0  0  0  0  0  0  0  0
    6.3440   -0.3120    0.4640 C   0  0  0  0  0  0  0  0  0  0  0  0
    6.3880    0.4990   -1.1850 S   0  0  0  0  0  0  0  0  0  0  0  0
    4.6070    0.2400   -1.4630 C   0  0  0  0  0  0  0  0  0  0  0  0
    4.1220    0.1480   -2.5920 O   0  0  0  0  0  0  0  0  0  0  0  0
  1  2  2  0
  2  3  1  0
  2 13  1  0
  3  4  1  0
  4  5  1  0
  5  6  1  0
  6  7  1  1
  6  8  1  0
  6 12  1  0
  8  9  1  0
  9 10  1  0
 10 11  1  0
 11 12  1  0
 13 14  2  0
 13 17  1  0
 14 15  1  0
 15 16  1  0
 16 17  1  0
 17 18  2  0
M  END
