
     RDKit          3D

 20 22  0  0  0  0  0  0  0  0999 V2000
   -2.1400    2.4950   -0.4470 C   0  0  0  0  0  0  0  0  0  0  0  0
   -3.1210    1.7100   -0.2960 C   0  0  0  0  0  0  0  0  0  0  0  0
   -3.4130    0.3350    0.0310 C   0  0  0  0  0  0  0  0  0  0  0  0
   -4.7280   -0.0700    0.0710 C   0  0  0  0  0  0  0  0  0  0  0  0
   -4.8060   -1.4850    0.4160 C   0  0  0  0  0  0  0  0  0  0  0  0
   -3.4220   -1.8580    0.5710 C   0  0  0  0  0  0  0  0  0  0  0  0
   -2.5740   -0.7960    0.3470 C   0  0  0  0  0  0  0  0  0  0  0  0
   -1.1530   -0.9740    0.4480 C   0  0  0  0  0  0  0  0  0  0  0  0
   -0.0970   -0.2550    0.3240 C   0  0  0  0  0  0  0  0  0  0  0  0
    1.3020   -0.6410    0.4760 C   0  0  0  0  0  0  0  0  0  0  0  0
    1.7190   -1.8010    0.9900 C   0  0  0  0  0  0  0  0  0  0  0  0
    0.8870   -2.7730    1.5740 N   0  0  0  0  0  0  0  0  0  0  0  0
    3.1130   -2.0620    1.0000 C   0  0  0  0  0  0  0  0  0  0  0  0
    4.0150   -1.1550    0.5000 C   0  0  0  0  0  0  0  0  0  0  0  0
    3.5630    0.0310   -0.0210 C   0  0  0  0  0  0  0  0  0  0  0  0
    2.2180    0.3080   -0.0430 C   0  0  0  0  0  0  0  0  0  0  0  0
    1.7950    1.5130   -0.5760 O   0  0  0  0  0  0  0  0  0  0  0  0
    2.6870    2.6200   -0.7300 C   0  0  0  0  0  0  0  0  0  0  0  0
    4.0740    2.1750   -1.1120 C   0  0  0  0  0  0  0  0  0  0  0  0
    4.4480    0.9600   -0.5290 O   0  0  0  0  0  0  0  0  0  0  0  0
  1  2  2  0
  2  3  1  0
  3  4  2  0
  3  7  1  0
  4  5  1  0
  5  6  1  0
  6  7  2  0
  7  8  1  0
  8  9  2  3
  9 10  1  0
 10 11  2  0
 10 16  1  0
 11 12  1  0
 11 13  1  0
 13 14  2  0
 14 15  1  0
 15 16  2  0
 15 20  1  0
 16 17  1  0
 17 18  1  0
 18 19  1  0
 19 20  1  0
M  END
