
     RDKit          3D

 20 23  0  0  0  0  0  0  0  0999 V2000
   -2.9320    2.3010    0.3030 C   0  0  0  0  0  0  0  0  0  0  0  0
   -2.4570    0.9590    0.5340 N   0  0  0  0  0  0  0  0  0  0  0  0
   -3.3360   -0.0550    1.0210 C   0  0  0  0  0  0  0  0  0  0  0  0
   -3.1140   -1.3830    0.3370 C   0  0  0  0  0  0  0  0  0  0  0  0
   -1.6700   -1.6230    0.0700 C   0  0  0  0  0  0  0  0  0  0  0  0
   -1.3230   -2.9340   -0.1570 C   0  0  0  0  0  0  0  0  0  0  0  0
   -0.0250   -3.2620   -0.4110 C   0  0  0  0  0  0  0  0  0  0  0  0
    0.9990   -2.3000   -0.4510 C   0  0  0  0  0  0  0  0  0  0  0  0
    0.6360   -1.0000   -0.2220 C   0  0  0  0  0  0  0  0  0  0  0  0
   -0.6990   -0.6540    0.0390 C   0  0  0  0  0  0  0  0  0  0  0  0
   -1.1050    0.6490    0.2750 C   0  0  0  0  0  0  0  0  0  0  0  0
   -0.1490    1.6340    0.2480 C   0  0  0  0  0  0  0  0  0  0  0  0
    1.1540    1.3550    0.0000 C   0  0  0  0  0  0  0  0  0  0  0  0
    2.0690    2.3920   -0.0130 C   0  0  0  0  0  0  0  0  0  0  0  0
    3.3860    2.1130   -0.2630 C   0  0  0  0  0  0  0  0  0  0  0  0
    3.7840    0.8200   -0.4960 C   0  0  0  0  0  0  0  0  0  0  0  0
    5.1110    0.4860   -0.7550 O   0  0  0  0  0  0  0  0  0  0  0  0
    2.8740   -0.2480   -0.4880 C   0  0  0  0  0  0  0  0  0  0  0  0
    3.3810   -1.4900   -0.7320 O   0  0  0  0  0  0  0  0  0  0  0  0
    1.5600    0.0340   -0.2380 C   0  0  0  0  0  0  0  0  0  0  0  0
  1  2  1  0
  2  3  1  0
  2 11  1  0
  3  4  1  0
  4  5  1  0
  5  6  2  0
  5 10  1  0
  6  7  1  0
  7  8  2  0
  8  9  1  0
  9 10  1  0
  9 20  2  0
 10 11  2  0
 11 12  1  0
 12 13  2  0
 13 14  1  0
 13 20  1  0
 14 15  2  0
 15 16  1  0
 16 17  1  0
 16 18  2  0
 18 19  1  0
 18 20  1  0
M  END
