
     RDKit          3D

 18 19  0  0  0  0  0  0  0  0999 V2000
   -0.4950   -0.4020    0.4180 O   0  0  0  0  0  0  0  0  0  0  0  0
   -0.3670    0.3090   -0.5980 C   0  0  0  0  0  0  0  0  0  0  0  0
   -1.4620    0.8570   -1.3360 C   0  0  0  0  0  0  0  0  0  0  0  0
   -2.7270    0.8370   -1.2280 C   0  0  0  0  0  0  0  0  0  0  0  0
   -3.6210    0.2340   -0.2800 C   0  0  0  0  0  0  0  0  0  0  0  0
   -4.9780    0.2780   -0.3220 C   0  0  0  0  0  0  0  0  0  0  0  0
   -5.4690   -0.4680    0.8300 C   0  0  0  0  0  0  0  0  0  0  0  0
   -4.4480   -0.4880    1.7190 O   0  0  0  0  0  0  0  0  0  0  0  0
   -3.2710   -0.4780    0.9590 C   0  0  0  0  0  0  0  0  0  0  0  0
    1.0030    0.5430   -0.9830 N   0  0  0  0  0  0  0  0  0  0  0  0
    2.1540    0.0390   -0.3270 C   0  0  0  0  0  0  0  0  0  0  0  0
    2.1620   -1.0310    0.5340 C   0  0  0  0  0  0  0  0  0  0  0  0
    3.3390   -1.4520    1.1620 C   0  0  0  0  0  0  0  0  0  0  0  0
    4.4970   -0.7780    0.9050 C   0  0  0  0  0  0  0  0  0  0  0  0
    6.0470   -1.2480    1.6640 S   0  0  0  0  0  0  0  0  0  0  0  0
    4.5260    0.3070    0.0400 C   0  0  0  0  0  0  0  0  0  0  0  0
    5.7270    0.9820   -0.2070 O   0  0  0  0  0  0  0  0  0  0  0  0
    3.3760    0.6910   -0.5510 C   0  0  0  0  0  0  0  0  0  0  0  0
  1  2  2  0
  2  3  1  0
  2 10  1  0
  3  4  2  3
  4  5  1  0
  5  6  2  0
  5  9  1  0
  6  7  1  0
  7  8  1  0
  8  9  1  0
 10 11  1  0
 11 12  2  0
 11 18  1  0
 12 13  1  0
 13 14  2  0
 14 15  1  0
 14 16  1  0
 16 17  1  0
 16 18  2  0
M  END
