
     RDKit          3D

 18 19  0  0  0  0  0  0  0  0999 V2000
    4.7810    1.4360    0.2520 C   0  0  0  0  0  0  0  0  0  0  0  0
    3.5800    0.6100   -0.0760 C   0  0  0  0  0  0  0  0  0  0  0  0
    3.7610   -0.5850   -0.7350 C   0  0  0  0  0  0  0  0  0  0  0  0
    2.6610   -1.3060   -1.0170 N   0  0  0  0  0  0  0  0  0  0  0  0
    1.4160   -0.9260   -0.6930 C   0  0  0  0  0  0  0  0  0  0  0  0
    0.3170   -1.6940   -1.0000 C   0  0  0  0  0  0  0  0  0  0  0  0
   -0.9660   -1.2850   -0.6570 C   0  0  0  0  0  0  0  0  0  0  0  0
   -2.0260   -2.0870   -0.9870 O   0  0  0  0  0  0  0  0  0  0  0  0
   -1.1940   -0.1020    0.0000 C   0  0  0  0  0  0  0  0  0  0  0  0
   -2.5250    0.3750    0.3840 C   0  0  0  0  0  0  0  0  0  0  0  0
   -3.6660   -0.5090    0.0360 C   0  0  0  0  0  0  0  0  0  0  0  0
   -4.9270    0.1750    0.5210 C   0  0  0  0  0  0  0  0  0  0  0  0
   -5.9640   -0.4280    0.3080 O   0  0  0  0  0  0  0  0  0  0  0  0
   -4.8800    1.7580    1.3470 S   0  0  0  0  0  0  0  0  0  0  0  0
   -0.0870    0.6770    0.3120 C   0  0  0  0  0  0  0  0  0  0  0  0
    1.1850    0.2640   -0.0320 C   0  0  0  0  0  0  0  0  0  0  0  0
    2.3020    1.0250    0.2700 C   0  0  0  0  0  0  0  0  0  0  0  0
    2.1240    2.1190    0.8750 O   0  0  0  0  0  0  0  0  0  0  0  0
  1  2  1  0
  2  3  2  0
  2 17  1  0
  3  4  1  0
  4  5  1  0
  5  6  2  0
  5 16  1  0
  6  7  1  0
  7  8  1  0
  7  9  2  0
  9 10  1  0
  9 15  1  0
 10 11  1  0
 11 12  1  0
 12 13  2  0
 12 14  1  0
 15 16  2  0
 16 17  1  0
 17 18  2  0
M  END
