
     RDKit          3D

 18 19  0  0  0  0  0  0  0  0999 V2000
   -0.8100   -0.9020    1.5110 O   0  0  0  0  0  0  0  0  0  0  0  0
   -0.4870   -0.2240    0.5330 C   0  0  0  0  0  0  0  0  0  0  0  0
   -1.4650    0.3360   -0.3170 N   0  0  0  0  0  0  0  0  0  0  0  0
   -2.8710    0.2020   -0.1680 C   0  0  0  0  0  0  0  0  0  0  0  0
   -3.4940   -0.4920    0.8250 C   0  0  0  0  0  0  0  0  0  0  0  0
   -4.8760   -0.5800    0.9070 C   0  0  0  0  0  0  0  0  0  0  0  0
   -5.6450    0.0470   -0.0330 C   0  0  0  0  0  0  0  0  0  0  0  0
   -5.0690    0.7580   -1.0520 C   0  0  0  0  0  0  0  0  0  0  0  0
   -3.6800    0.8360   -1.1200 C   0  0  0  0  0  0  0  0  0  0  0  0
   -3.1910    1.5710   -2.1770 O   0  0  0  0  0  0  0  0  0  0  0  0
    0.8840   -0.0210    0.2810 O   0  0  0  0  0  0  0  0  0  0  0  0
    1.8140   -0.6110    1.1730 C   0  0  0  0  0  0  0  0  0  0  0  0
    3.2260   -0.2760    0.7300 C   0  0  0  0  0  0  0  0  0  0  0  0
    4.0240   -1.2520    0.4330 C   0  0  0  0  0  0  0  0  0  0  0  0
    5.4170   -1.2280   -0.0160 C   0  0  0  0  0  0  0  0  0  0  0  0
    6.0300    0.4540   -0.1460 S   0  0  0  0  0  0  0  0  0  0  0  0
    4.7250    1.5660    0.3200 C   0  0  0  0  0  0  0  0  0  0  0  0
    3.5450    1.1270    0.6830 C   0  0  0  0  0  0  0  0  0  0  0  0
  1  2  2  0
  2  3  1  0
  2 11  1  0
  3  4  1  0
  4  5  2  0
  4  9  1  0
  5  6  1  0
  6  7  2  0
  7  8  1  0
  8  9  2  0
  9 10  1  0
 11 12  1  0
 12 13  1  0
 13 14  2  0
 13 18  1  0
 14 15  1  0
 15 16  1  0
 16 17  1  0
 17 18  2  0
M  END
