
     RDKit          3D

 18 19  0  0  0  0  0  0  0  0999 V2000
   -4.3010   -0.3890   -1.5200 C   0  0  0  0  0  0  0  0  0  0  0  0
   -2.9690   -0.2370   -0.8480 C   0  0  0  0  0  0  0  0  0  0  0  0
   -2.8360   -0.3440    0.4480 C   0  0  0  0  0  0  0  0  0  0  0  0
   -4.0690   -0.6260    1.2400 C   0  0  0  0  0  0  0  0  0  0  0  0
   -1.5380   -0.1970    1.1570 C   0  0  0  0  0  0  0  0  0  0  0  0
   -1.4290   -0.3180    2.5350 C   0  0  0  0  0  0  0  0  0  0  0  0
    0.2990   -0.0620    2.8610 S   0  0  0  0  0  0  0  0  0  0  0  0
    0.7680    0.1900    1.1430 C   0  0  0  0  0  0  0  0  0  0  0  0
    2.1490    0.4570    0.7730 C   0  0  0  0  0  0  0  0  0  0  0  0
    2.9910    0.4960    1.7490 O   0  0  0  0  0  0  0  0  0  0  0  0
    2.6880    0.6770   -0.4850 N   0  0  0  0  0  0  0  0  0  0  0  0
    4.0830    0.9170   -0.7030 C   0  0  0  0  0  0  0  0  0  0  0  0
    5.0440   -0.1480   -0.3610 C   0  0  0  0  0  0  0  0  0  0  0  0
    5.0820   -0.5630    0.9420 O   0  0  0  0  0  0  0  0  0  0  0  0
   -0.4140    0.0590    0.4720 C   0  0  0  0  0  0  0  0  0  0  0  0
   -0.4810    0.1990   -1.0380 C   0  0  0  0  0  0  0  0  0  0  0  0
   -1.7950    0.0330   -1.6300 C   0  0  0  0  0  0  0  0  0  0  0  0
   -1.8980    0.1360   -2.9190 O   0  0  0  0  0  0  0  0  0  0  0  0
  1  2  1  0
  2  3  2  0
  2 17  1  0
  3  4  1  0
  3  5  1  0
  5  6  2  0
  5 15  1  0
  6  7  1  0
  7  8  1  0
  8  9  1  0
  8 15  2  0
  9 10  2  0
  9 11  1  0
 11 12  1  0
 12 13  1  0
 13 14  1  0
 15 16  1  0
 16 17  1  0
 17 18  2  0
M  END
