
     RDKit          3D

 15 14  0  0  0  0  0  0  0  0999 V2000
    3.0540    2.4290   -0.1600 C   0  0  0  0  0  0  0  0  0  0  0  0
    3.1730    0.9150   -0.0880 C   0  0  2  0  0  0  0  0  0  0  0  0
    4.6290    0.5780   -0.0560 C   0  0  0  0  0  0  0  0  0  0  0  0
    2.3990    0.2340   -0.9410 O   0  0  0  0  0  0  0  0  0  0  0  0
    1.3690   -0.5520   -0.4360 C   0  0  2  0  0  0  0  0  0  0  0  0
    1.6270   -1.9940   -0.7170 C   0  0  0  0  0  0  0  0  0  0  0  0
    0.6910   -2.9540   -0.2290 N   0  0  0  0  0  0  0  0  0  0  0  0
    0.0280   -0.0140   -0.8550 C   0  0  0  0  0  0  0  0  0  0  0  0
   -1.1320   -0.6670   -0.3950 N   0  0  0  0  0  0  0  0  0  0  0  0
   -2.2140    0.2240   -0.0020 C   0  0  1  0  0  0  0  0  0  0  0  0
   -1.7450    1.5410    0.5130 C   0  0  0  0  0  0  0  0  0  0  0  0
   -3.1600    0.4810   -1.1590 C   0  0  0  0  0  0  0  0  0  0  0  0
   -4.2030    1.3670   -0.7020 N   0  0  0  0  0  0  0  0  0  0  0  0
   -3.0540   -0.4400    1.0810 C   0  0  0  0  0  0  0  0  0  0  0  0
   -3.5550   -1.6310    0.5040 O   0  0  0  0  0  0  0  0  0  0  0  0
  2  1  1  6
  2  3  1  0
  2  4  1  0
  4  5  1  0
  5  6  1  6
  5  8  1  0
  6  7  1  0
  8  9  1  0
  9 10  1  0
 10 11  1  1
 10 12  1  0
 10 14  1  0
 12 13  1  0
 14 15  1  0
M  CHG  2   7   1   9   1
M  END
