
     RDKit          3D

 15 14  0  0  0  0  0  0  0  0999 V2000
   -4.0570   -2.6710   -0.1580 C   0  0  0  0  0  0  0  0  0  0  0  0
   -2.7180   -2.2200    0.2430 C   0  0  0  0  0  0  0  0  0  0  0  0
   -2.3920   -0.9550    0.2690 C   0  0  0  0  0  0  0  0  0  0  0  0
   -1.0810   -0.5800    0.6660 O   0  0  0  0  0  0  0  0  0  0  0  0
   -0.1400   -0.4500   -0.3890 C   0  0  0  0  0  0  0  0  0  0  0  0
    1.1730   -0.0490    0.2500 C   0  0  0  0  0  0  0  0  0  0  0  0
    2.1880    0.1130   -0.6810 O   0  0  0  0  0  0  0  0  0  0  0  0
    3.3340    0.4780    0.0250 C   0  0  2  0  0  0  0  0  0  0  0  0
    3.7360    1.8490   -0.4590 C   0  0  0  0  0  0  0  0  0  0  0  0
    4.3850   -0.5610   -0.2400 C   0  0  0  0  0  0  0  0  0  0  0  0
    5.6280   -0.2850    0.4460 N   0  0  0  0  0  0  0  0  0  0  0  0
   -3.2600    0.1320   -0.0750 C   0  0  0  0  0  0  0  0  0  0  0  0
   -4.5910   -0.0580   -0.4870 N   0  0  0  0  0  0  0  0  0  0  0  0
   -2.7830    1.3820    0.0010 C   0  0  0  0  0  0  0  0  0  0  0  0
   -3.6220    2.4610   -0.3340 N   0  0  0  0  0  0  0  0  0  0  0  0
  1  2  1  0
  2  3  2  3
  3  4  1  0
  3 12  1  0
  4  5  1  0
  5  6  1  0
  6  7  1  0
  7  8  1  0
  8  9  1  6
  8 10  1  0
 10 11  1  0
 12 13  1  0
 12 14  2  3
 14 15  1  0
M  CHG  2  11   1  15   1
M  END
