
     RDKit          3D

 15 14  0  0  0  0  0  0  0  0999 V2000
    1.9730   -1.4440   -1.5730 C   0  0  0  0  0  0  0  0  0  0  0  0
    1.8830   -0.4960   -0.3840 C   0  0  1  0  0  0  0  0  0  0  0  0
    2.2830   -1.1460    0.7860 O   0  0  0  0  0  0  0  0  0  0  0  0
    2.9300    0.5610   -0.6550 C   0  0  0  0  0  0  0  0  0  0  0  0
    2.9680    1.5850    0.4480 C   0  0  0  0  0  0  0  0  0  0  0  0
    3.9950    2.5880    0.1920 N   0  0  0  0  0  0  0  0  0  0  0  0
    0.5660    0.1650   -0.2770 C   0  0  0  0  0  0  0  0  0  0  0  0
   -0.6180   -0.7360   -0.1250 C   0  0  1  0  0  0  0  0  0  0  0  0
   -0.5640   -1.6060    1.1040 C   0  0  0  0  0  0  0  0  0  0  0  0
   -1.7570   -2.3880    1.2650 N   0  0  0  0  0  0  0  0  0  0  0  0
   -1.7270    0.1130    0.0430 O   0  0  0  0  0  0  0  0  0  0  0  0
   -2.6890   -0.0960   -0.9360 C   0  0  0  0  0  0  0  0  0  0  0  0
   -3.8240    0.8670   -0.6520 C   0  0  0  0  0  0  0  0  0  0  0  0
   -4.3610    0.5710    0.7050 C   0  0  0  0  0  0  0  0  0  0  0  0
   -4.8170    1.5530    1.4160 N   0  0  0  0  0  0  0  0  0  0  0  0
  2  1  1  6
  2  3  1  0
  2  4  1  0
  2  7  1  0
  4  5  1  0
  5  6  1  0
  8  7  1  1
  8  9  1  0
  8 11  1  0
  9 10  1  0
 11 12  1  0
 12 13  1  0
 13 14  1  0
 14 15  2  0
M  CHG  2   6   1  10   1
M  END
