
     RDKit          3D

 15 14  0  0  0  0  0  0  0  0999 V2000
    5.4130    0.6340   -0.4960 C   0  0  0  0  0  0  0  0  0  0  0  0
    4.4960   -0.5280   -0.2810 C   0  0  0  0  0  0  0  0  0  0  0  0
    3.1160    0.0120    0.1090 C   0  0  2  0  0  0  0  0  0  0  0  0
    3.2920    0.7850    1.3410 N   0  0  0  0  0  0  0  0  0  0  0  0
    2.1570   -1.0960    0.2740 C   0  0  0  0  0  0  0  0  0  0  0  0
    0.8680   -0.8770    0.3970 C   0  0  0  0  0  0  0  0  0  0  0  0
    0.3420    0.5060    0.3710 C   0  0  0  0  0  0  0  0  0  0  0  0
   -0.6310    0.6970   -0.7700 C   0  0  0  0  0  0  0  0  0  0  0  0
   -1.7690   -0.1610   -0.7040 N   0  0  0  0  0  0  0  0  0  0  0  0
   -2.7970    0.3150    0.2000 C   0  0  1  0  0  0  0  0  0  0  0  0
   -3.4710    1.5680   -0.2420 C   0  0  0  0  0  0  0  0  0  0  0  0
   -4.4300    1.8840    0.7360 O   0  0  0  0  0  0  0  0  0  0  0  0
   -3.8240   -0.7740    0.3670 C   0  0  0  0  0  0  0  0  0  0  0  0
   -4.4300   -1.1320   -0.8790 N   0  0  0  0  0  0  0  0  0  0  0  0
   -5.3520   -2.1140   -0.7480 O   0  0  0  0  0  0  0  0  0  0  0  0
  1  2  1  0
  2  3  1  0
  3  4  1  1
  3  5  1  0
  5  6  2  3
  6  7  1  0
  7  8  1  0
  8  9  1  0
  9 10  1  0
 10 11  1  6
 10 13  1  0
 11 12  1  0
 13 14  1  0
 14 15  1  0
M  CHG  2   4   1   9   1
M  END
