
     RDKit          3D

 15 16  0  0  0  0  0  0  0  0999 V2000
    2.3670    0.5880    2.4270 C   0  0  0  0  0  0  0  0  0  0  0  0
    2.7730   -0.0240    1.1370 C   0  0  0  0  0  0  0  0  0  0  0  0
    4.1170   -0.4080    0.9800 N   0  0  0  0  0  0  0  0  0  0  0  0
    1.8960   -0.1970    0.1800 C   0  0  0  0  0  0  0  0  0  0  0  0
    0.4940    0.1800    0.2860 C   0  0  0  0  0  0  0  0  0  0  0  0
   -0.4070   -0.0900   -0.6310 C   0  0  0  0  0  0  0  0  0  0  0  0
   -1.7970    0.2770   -0.5390 C   0  0  0  0  0  0  0  0  0  0  0  0
   -2.6550   -0.0240   -1.4950 C   0  0  0  0  0  0  0  0  0  0  0  0
   -4.0040    0.3230   -1.4240 O   0  0  0  0  0  0  0  0  0  0  0  0
   -4.4980    1.0960   -0.3570 C   0  0  0  0  0  0  0  0  0  0  0  0
   -3.6520    0.8790    0.8710 C   0  0  0  0  0  0  0  0  0  0  0  0
   -2.2740    0.9610    0.5650 O   0  0  0  0  0  0  0  0  0  0  0  0
    0.0640   -0.7870   -1.7620 O   0  0  0  0  0  0  0  0  0  0  0  0
    1.1700   -1.6820   -1.5730 C   0  0  0  0  0  0  0  0  0  0  0  0
    2.3220   -0.8160   -1.1160 C   0  0  0  0  0  0  0  0  0  0  0  0
  1  2  1  0
  2  3  1  0
  2  4  2  3
  4  5  1  0
  4 15  1  0
  5  6  2  0
  6  7  1  0
  6 13  1  0
  7  8  2  0
  7 12  1  0
  8  9  1  0
  9 10  1  0
 10 11  1  0
 11 12  1  0
 13 14  1  0
 14 15  1  0
M  END
