
     RDKit          3D

 19 20  0  0  0  0  0  0  0  0999 V2000
   -2.3470    1.9030    0.0150 C   0  0  0  0  0  0  0  0  0  0  0  0
   -3.0380    0.5840    0.1180 C   0  0  0  0  0  0  0  0  0  0  0  0
   -4.2400    0.4000   -0.3550 N   0  0  0  0  0  0  0  0  0  0  0  0
   -4.6510   -0.9130   -0.1230 N   0  0  0  0  0  0  0  0  0  0  0  0
   -3.6250   -1.5990    0.5530 C   0  0  0  0  0  0  0  0  0  0  0  0
   -3.6190   -2.7740    0.9510 O   0  0  0  0  0  0  0  0  0  0  0  0
   -2.4980   -0.6380    0.7170 C   0  0  1  0  0  0  0  0  0  0  0  0
   -1.3440   -1.2630   -0.0400 C   0  0  2  0  0  0  0  0  0  0  0  0
   -0.9420   -2.4580    0.7350 N   0  0  0  0  0  0  0  0  0  0  0  0
   -0.3930   -1.9670    1.9230 N   0  0  0  0  0  0  0  0  0  0  0  0
    0.7750   -1.1300    1.7830 C   0  0  0  0  0  0  0  0  0  0  0  0
    1.6760   -1.1370    2.6730 O   0  0  0  0  0  0  0  0  0  0  0  0
    0.8180   -0.3150    0.5820 C   0  0  0  0  0  0  0  0  0  0  0  0
    1.8640    0.5080    0.3330 O   0  0  0  0  0  0  0  0  0  0  0  0
    3.2000    0.1550    0.1360 C   0  0  0  0  0  0  0  0  0  0  0  0
    3.9650    1.4600   -0.1070 C   0  0  0  0  0  0  0  0  0  0  0  0
    5.3610    1.2190   -0.3240 N   0  0  0  0  0  0  0  0  0  0  0  0
   -0.1920   -0.3990   -0.2620 C   0  0  0  0  0  0  0  0  0  0  0  0
   -0.1020    0.4140   -1.5080 C   0  0  0  0  0  0  0  0  0  0  0  0
  1  2  1  0
  2  3  2  0
  7  2  1  6
  3  4  1  0
  4  5  1  0
  5  6  2  0
  5  7  1  0
  7  8  1  0
  8  9  1  1
  8 18  1  0
  9 10  1  0
 10 11  1  0
 11 12  2  0
 11 13  1  0
 13 14  1  0
 13 18  2  0
 14 15  1  0
 15 16  1  0
 16 17  1  0
 18 19  1  0
M  CHG  2   3   1  17   1
M  END
