
     RDKit          3D

 16 17  0  0  0  0  0  0  0  0999 V2000
    4.1030    1.1470   -0.0810 C   0  0  0  0  0  0  0  0  0  0  0  0
    3.5550   -0.1490   -0.1160 O   0  0  0  0  0  0  0  0  0  0  0  0
    2.1870   -0.3230   -0.0520 C   0  0  0  0  0  0  0  0  0  0  0  0
    1.3830    0.7850    0.0450 C   0  0  0  0  0  0  0  0  0  0  0  0
    0.0060    0.6220    0.1100 C   0  0  0  0  0  0  0  0  0  0  0  0
   -0.7970    1.7220    0.2080 N   0  0  0  0  0  0  0  0  0  0  0  0
   -2.1200    1.5880    0.2710 C   0  0  0  0  0  0  0  0  0  0  0  0
   -2.8540    2.5880    0.3600 O   0  0  0  0  0  0  0  0  0  0  0  0
   -2.7140    0.3480    0.2410 C   0  0  0  0  0  0  0  0  0  0  0  0
   -4.1960    0.1730    0.3110 C   0  0  0  0  0  0  0  0  0  0  0  0
   -1.8880   -0.7800    0.1420 C   0  0  0  0  0  0  0  0  0  0  0  0
   -2.5360   -1.9990    0.1160 O   0  0  0  0  0  0  0  0  0  0  0  0
   -0.5090   -0.6570    0.0750 C   0  0  0  0  0  0  0  0  0  0  0  0
    0.3010   -1.7680   -0.0230 C   0  0  0  0  0  0  0  0  0  0  0  0
    1.6670   -1.5950   -0.0870 C   0  0  0  0  0  0  0  0  0  0  0  0
    2.4880   -2.7060   -0.1860 O   0  0  0  0  0  0  0  0  0  0  0  0
  1  2  1  0
  2  3  1  0
  3  4  2  0
  3 15  1  0
  4  5  1  0
  5  6  1  0
  5 13  2  0
  6  7  1  0
  7  8  2  0
  7  9  1  0
  9 10  1  0
  9 11  2  0
 11 12  1  0
 11 13  1  0
 13 14  1  0
 14 15  2  0
 15 16  1  0
M  END
