
     RDKit          3D

 20 21  0  0  0  0  0  0  0  0999 V2000
    0.0040    2.4070    0.8250 C   0  0  0  0  0  0  0  0  0  0  0  0
    0.0540    1.2170    0.0220 N   0  0  0  0  0  0  0  0  0  0  0  0
    0.6670    1.1460   -1.2840 C   0  0  0  0  0  0  0  0  0  0  0  0
    0.9200    2.2580   -2.1320 N   0  0  0  0  0  0  0  0  0  0  0  0
    0.9580   -0.0800   -1.5830 N   0  0  0  0  0  0  0  0  0  0  0  0
    0.5540   -0.9590   -0.4690 C   0  0  1  0  0  0  0  0  0  0  0  0
    1.7670   -1.3180    0.3490 C   0  0  0  0  0  0  0  0  0  0  0  0
    2.4950   -0.1650    0.9440 C   0  0  0  0  0  0  0  0  0  0  0  0
    3.7150   -0.6300    1.7530 C   0  0  0  0  0  0  0  0  0  0  0  0
    4.5750   -1.3180    0.9040 O   0  0  0  0  0  0  0  0  0  0  0  0
   -0.4520   -0.1290    0.2570 C   0  0  1  0  0  0  0  0  0  0  0  0
   -0.4850   -0.3940    1.6730 N   0  0  0  0  0  0  0  0  0  0  0  0
   -1.4800    0.2720    2.4410 C   0  0  0  0  0  0  0  0  0  0  0  0
   -1.3160    0.5170    3.6700 O   0  0  0  0  0  0  0  0  0  0  0  0
   -2.7420    0.6950    1.8020 C   0  0  0  0  0  0  0  0  0  0  0  0
   -2.8460    0.4150    0.5470 N   0  0  0  0  0  0  0  0  0  0  0  0
   -1.8520   -0.2540   -0.2300 C   0  0  0  0  0  0  0  0  0  0  0  0
   -2.1590   -0.9190   -1.3220 C   0  0  0  0  0  0  0  0  0  0  0  0
   -3.5220   -1.0930   -1.8740 C   0  0  0  0  0  0  0  0  0  0  0  0
   -3.7460   -2.4930   -1.8930 O   0  0  0  0  0  0  0  0  0  0  0  0
  1  2  1  0
  2  3  1  0
  2 11  1  0
  3  4  1  0
  3  5  2  0
  5  6  1  0
  6  7  1  1
  6 11  1  0
  7  8  1  0
  8  9  1  0
  9 10  1  0
 11 12  1  1
 11 17  1  0
 12 13  1  0
 13 14  2  0
 13 15  1  0
 15 16  2  0
 16 17  1  0
 17 18  2  3
 18 19  1  0
 19 20  1  0
M  CHG  2   5   1  16   1
M  END
