
     RDKit          3D

 16 17  0  0  0  0  0  0  0  0999 V2000
    0.1050   -2.0340   -1.8160 O   0  0  0  0  0  0  0  0  0  0  0  0
   -0.8760   -1.4330   -1.3720 C   0  0  0  0  0  0  0  0  0  0  0  0
   -2.1480   -1.6930   -1.8800 C   0  0  0  0  0  0  0  0  0  0  0  0
   -3.2470   -1.0460   -1.3950 C   0  0  0  0  0  0  0  0  0  0  0  0
   -3.0580   -0.1870   -0.4520 O   0  0  0  0  0  0  0  0  0  0  0  0
   -1.8560    0.1130    0.0840 C   0  0  0  0  0  0  0  0  0  0  0  0
   -1.8840    1.1410    1.1570 C   0  0  0  0  0  0  0  0  0  0  0  0
   -3.2510    1.5170    1.3410 O   0  0  0  0  0  0  0  0  0  0  0  0
   -0.7140   -0.4900   -0.3470 C   0  0  0  0  0  0  0  0  0  0  0  0
    0.6170   -0.1280    0.1620 C   0  0  0  0  0  0  0  0  0  0  0  0
    1.6330   -0.3510   -0.6970 C   0  0  0  0  0  0  0  0  0  0  0  0
    3.0370   -0.0850   -0.3930 C   0  0  0  0  0  0  0  0  0  0  0  0
    4.0480   -0.3230   -1.3230 O   0  0  0  0  0  0  0  0  0  0  0  0
    3.3670    0.3890    0.7820 C   0  0  0  0  0  0  0  0  0  0  0  0
    2.3400    0.6140    1.7070 N   0  0  0  0  0  0  0  0  0  0  0  0
    0.9310    0.4180    1.4620 C   0  0  0  0  0  0  0  0  0  0  0  0
  1  2  2  0
  2  3  1  0
  2  9  1  0
  3  4  2  0
  4  5  1  0
  5  6  1  0
  6  7  1  0
  6  9  2  0
  7  8  1  0
  9 10  1  0
 10 11  2  0
 10 16  1  0
 11 12  1  0
 12 13  1  0
 12 14  2  0
 14 15  1  0
 15 16  1  0
M  END
