
     RDKit          3D

 16 17  0  0  0  0  0  0  0  0999 V2000
   -3.9360    0.3580   -1.2050 C   0  0  0  0  0  0  0  0  0  0  0  0
   -2.8920    0.3780   -0.3900 C   0  0  0  0  0  0  0  0  0  0  0  0
   -2.8830    0.6690    1.0290 C   0  0  0  0  0  0  0  0  0  0  0  0
   -3.8910    0.9600    1.7480 O   0  0  0  0  0  0  0  0  0  0  0  0
   -1.5290    0.5680    1.4740 C   0  0  0  0  0  0  0  0  0  0  0  0
   -1.1350    0.7530    2.6470 O   0  0  0  0  0  0  0  0  0  0  0  0
   -0.7030    0.2090    0.3040 C   0  0  0  0  0  0  0  0  0  0  0  0
    0.7520    0.0250    0.4150 C   0  0  0  0  0  0  0  0  0  0  0  0
    1.5100    0.1400    1.5010 C   0  0  0  0  0  0  0  0  0  0  0  0
    2.9130   -0.1260    1.1790 C   0  0  0  0  0  0  0  0  0  0  0  0
    3.0400   -0.4080   -0.1030 C   0  0  0  0  0  0  0  0  0  0  0  0
    4.1910   -0.7290   -0.8680 N   0  0  0  0  0  0  0  0  0  0  0  0
    1.6680   -0.3250   -0.6490 C   0  0  0  0  0  0  0  0  0  0  0  0
    1.4220   -0.5400   -1.8600 O   0  0  0  0  0  0  0  0  0  0  0  0
   -1.4900    0.1090   -0.7260 C   0  0  0  0  0  0  0  0  0  0  0  0
   -1.0920   -0.2150   -2.0210 O   0  0  0  0  0  0  0  0  0  0  0  0
  1  2  2  0
  2  3  1  0
  2 15  1  0
  3  4  2  0
  3  5  1  0
  5  6  2  0
  5  7  1  0
  7  8  1  0
  7 15  2  0
  8  9  2  0
  8 13  1  0
  9 10  1  0
 10 11  2  0
 11 12  1  0
 11 13  1  0
 13 14  2  0
 15 16  1  0
M  END
