
     RDKit          3D

 25 27  0  0  0  0  0  0  0  0999 V2000
   -5.2680    2.5560    0.3940 C   0  0  0  0  0  0  0  0  0  0  0  0
   -4.7130    1.5190    1.1510 O   0  0  0  0  0  0  0  0  0  0  0  0
   -3.5000    0.9050    0.8810 C   0  0  0  0  0  0  0  0  0  0  0  0
   -2.7840    1.3900   -0.2230 C   0  0  0  0  0  0  0  0  0  0  0  0
   -1.5910    0.8680   -0.5970 C   0  0  0  0  0  0  0  0  0  0  0  0
   -1.1150   -0.2170    0.2050 C   0  0  0  0  0  0  0  0  0  0  0  0
   -1.8150   -0.6650    1.2610 C   0  0  0  0  0  0  0  0  0  0  0  0
   -3.0340   -0.1210    1.6420 C   0  0  0  0  0  0  0  0  0  0  0  0
   -3.7190   -0.6190    2.7690 O   0  0  0  0  0  0  0  0  0  0  0  0
   -3.1410   -1.6220    3.5810 C   0  0  0  0  0  0  0  0  0  0  0  0
    0.0390   -1.0000   -0.0020 N   0  0  0  0  0  0  0  0  0  0  0  0
    0.4520   -2.0800    0.7640 C   0  0  0  0  0  0  0  0  0  0  0  0
    0.2310   -3.5040    0.2070 C   0  0  0  0  0  0  0  0  0  0  0  0
    1.2040   -4.3280    1.0410 C   0  0  0  0  0  0  0  0  0  0  0  0
    1.9960   -4.9950    1.6940 N   0  0  0  0  0  0  0  0  0  0  0  0
    0.9460   -0.6790   -1.1940 C   0  0  0  0  0  0  0  0  0  0  0  0
    1.3130    0.7800   -0.9180 C   0  0  1  0  0  0  0  0  0  0  0  0
    2.7560    0.9790   -1.1130 C   0  0  0  0  0  0  0  0  0  0  0  0
    3.2930    2.0550   -1.7760 C   0  0  0  0  0  0  0  0  0  0  0  0
    4.6400    2.2860   -1.9320 C   0  0  0  0  0  0  0  0  0  0  0  0
    5.4990    1.4060   -1.4040 N   0  0  0  0  0  0  0  0  0  0  0  0
    5.0220    0.3310   -0.7470 C   0  0  0  0  0  0  0  0  0  0  0  0
    3.6630    0.0720   -0.5740 C   0  0  0  0  0  0  0  0  0  0  0  0
    0.4910    1.6970   -1.7370 C   0  0  0  0  0  0  0  0  0  0  0  0
   -0.9310    1.4010   -1.6710 O   0  0  0  0  0  0  0  0  0  0  0  0
  1  2  1  0
  2  3  1  0
  3  4  2  0
  3  8  1  0
  4  5  1  0
  5  6  2  0
  5 25  1  0
  6  7  1  0
  6 11  1  0
  7  8  2  0
  8  9  1  0
  9 10  1  0
 11 12  1  0
 11 16  1  0
 12 13  1  0
 13 14  1  0
 14 15  3  0
 16 17  1  0
 17 18  1  6
 17 24  1  0
 18 19  2  0
 18 23  1  0
 19 20  1  0
 20 21  2  0
 21 22  1  0
 22 23  2  0
 24 25  1  0
M  CHG  1  21   1
M  END
