
     RDKit          3D

 26 28  0  0  0  0  0  0  0  0999 V2000
   -6.5080   -0.8340   -0.8420 C   0  0  0  0  0  0  0  0  0  0  0  0
   -5.1560   -1.4330   -0.7080 C   0  0  0  0  0  0  0  0  0  0  0  0
   -4.0720   -0.6390   -0.7520 O   0  0  0  0  0  0  0  0  0  0  0  0
   -3.8610    0.3380    0.1450 C   0  0  1  0  0  0  0  0  0  0  0  0
   -4.9310    1.4030    0.1080 C   0  0  0  0  0  0  0  0  0  0  0  0
   -3.8080   -0.1350    1.5850 C   0  0  0  0  0  0  0  0  0  0  0  0
   -2.5550    1.0460   -0.1490 C   0  0  0  0  0  0  0  0  0  0  0  0
   -1.4020    0.2080   -0.1110 N   0  0  1  0  0  0  0  0  0  0  0  0
   -0.7040    0.3290   -1.3690 C   0  0  0  0  0  0  0  0  0  0  0  0
    0.7280    0.8510   -1.1460 C   0  0  0  0  0  0  0  0  0  0  0  0
    1.4000   -0.2360   -0.3020 C   0  0  1  0  0  0  0  0  0  0  0  0
    2.8120   -0.0860   -0.1870 N   0  0  0  0  0  0  0  0  0  0  0  0
    3.4890    1.0420   -0.3870 C   0  0  0  0  0  0  0  0  0  0  0  0
    2.8610    2.0730   -0.7060 O   0  0  0  0  0  0  0  0  0  0  0  0
    4.8670    1.1890   -0.2730 C   0  0  0  0  0  0  0  0  0  0  0  0
    5.4590    2.3180   -0.4830 O   0  0  0  0  0  0  0  0  0  0  0  0
    6.0790    3.4260   -0.6850 C   0  0  0  0  0  0  0  0  0  0  0  0
    5.5560    0.0760    0.0720 N   0  0  0  0  0  0  0  0  0  0  0  0
    4.9350   -1.0680    0.2820 C   0  0  0  0  0  0  0  0  0  0  0  0
    5.7020   -2.1700    0.6320 C   0  0  0  0  0  0  0  0  0  0  0  0
    5.1210   -3.3910    0.8630 C   0  0  0  0  0  0  0  0  0  0  0  0
    3.7780   -3.5070    0.7450 C   0  0  0  0  0  0  0  0  0  0  0  0
    3.0230   -2.4050    0.3970 C   0  0  0  0  0  0  0  0  0  0  0  0
    3.5520   -1.1570    0.1540 C   0  0  0  0  0  0  0  0  0  0  0  0
    0.7640   -0.1000    1.0580 C   0  0  0  0  0  0  0  0  0  0  0  0
   -0.5800    0.5830    1.0170 C   0  0  0  0  0  0  0  0  0  0  0  0
  1  2  1  0
  2  3  1  0
  3  4  1  0
  4  5  1  1
  4  6  1  0
  4  7  1  0
  8  7  1  6
  8  9  1  0
  8 26  1  0
  9 10  1  0
 10 11  1  0
 11 12  1  1
 11 25  1  0
 12 13  1  0
 12 24  1  0
 13 14  2  0
 13 15  1  0
 15 16  1  0
 15 18  2  0
 16 17  1  0
 18 19  1  0
 19 20  2  0
 19 24  1  0
 20 21  1  0
 21 22  2  0
 22 23  1  0
 23 24  2  0
 25 26  1  0
M  CHG  1   8   1
M  END
