
     RDKit          3D

 26 28  0  0  0  0  0  0  0  0999 V2000
    2.1950    2.0910    1.9100 C   0  0  0  0  0  0  0  0  0  0  0  0
    1.5240    0.8680    1.7000 O   0  0  0  0  0  0  0  0  0  0  0  0
    0.4180    0.7180    0.9060 C   0  0  0  0  0  0  0  0  0  0  0  0
    0.4000    0.3860   -0.3450 C   0  0  0  0  0  0  0  0  0  0  0  0
    1.3690    0.0670   -1.3180 C   0  0  0  0  0  0  0  0  0  0  0  0
    0.9130   -0.1220   -2.5360 O   0  0  0  0  0  0  0  0  0  0  0  0
    2.7860   -0.0910   -1.2340 C   0  0  0  0  0  0  0  0  0  0  0  0
    3.5840    0.0420   -2.3920 C   0  0  0  0  0  0  0  0  0  0  0  0
    4.9310   -0.1750   -2.4320 C   0  0  0  0  0  0  0  0  0  0  0  0
    5.5850   -0.5490   -1.2780 C   0  0  0  0  0  0  0  0  0  0  0  0
    4.8640   -0.6960   -0.1210 C   0  0  0  0  0  0  0  0  0  0  0  0
    5.5460   -1.0990    1.1380 C   0  0  0  0  0  0  0  0  0  0  0  0
    3.4740   -0.4650   -0.1180 C   0  0  0  0  0  0  0  0  0  0  0  0
   -0.9490    0.9730    1.5810 C   0  0  0  0  0  0  0  0  0  0  0  0
   -2.0200    0.7870    0.6590 N   0  0  0  0  0  0  0  0  0  0  0  0
   -2.4950    1.8900   -0.1260 C   0  0  0  0  0  0  0  0  0  0  0  0
   -1.7630    2.9140   -0.1700 O   0  0  0  0  0  0  0  0  0  0  0  0
   -3.7840    1.8550   -0.8620 C   0  0  0  0  0  0  0  0  0  0  0  0
   -4.1720    0.5160   -1.2220 N   0  0  0  0  0  0  0  0  0  0  0  0
   -5.0160    0.3070   -2.3560 C   0  0  0  0  0  0  0  0  0  0  0  0
   -3.7210   -0.5940   -0.4560 C   0  0  0  0  0  0  0  0  0  0  0  0
   -4.3150   -1.7950   -0.6190 N   0  0  0  0  0  0  0  0  0  0  0  0
   -3.9200   -2.8800    0.0880 C   0  0  0  0  0  0  0  0  0  0  0  0
   -2.8740   -2.7460    1.0010 C   0  0  0  0  0  0  0  0  0  0  0  0
   -2.2430   -1.5420    1.1960 C   0  0  0  0  0  0  0  0  0  0  0  0
   -2.6710   -0.4630    0.4620 C   0  0  0  0  0  0  0  0  0  0  0  0
  1  2  1  0
  2  3  1  0
  3  4  2  3
  3 14  1  0
  4  5  1  0
  5  6  2  0
  5  7  1  0
  7  8  2  0
  7 13  1  0
  8  9  1  0
  9 10  2  0
 10 11  1  0
 11 12  1  0
 11 13  2  0
 14 15  1  0
 15 16  1  0
 15 26  1  0
 16 17  2  0
 16 18  1  0
 18 19  1  0
 19 20  1  0
 19 21  1  0
 21 22  2  0
 21 26  1  0
 22 23  1  0
 23 24  2  0
 24 25  1  0
 25 26  2  0
M  CHG  1  22   1
M  END
