
     RDKit          3D

 25 27  0  0  0  0  0  0  0  0999 V2000
    8.3920    0.0780   -0.1340 C   0  0  0  0  0  0  0  0  0  0  0  0
    7.9860   -0.1850    1.1510 O   0  0  0  0  0  0  0  0  0  0  0  0
    6.8010   -0.8810    1.2660 C   0  0  0  0  0  0  0  0  0  0  0  0
    5.6260   -0.1830    0.6550 C   0  0  0  0  0  0  0  0  0  0  0  0
    4.4850   -0.9990    0.8430 O   0  0  0  0  0  0  0  0  0  0  0  0
    3.2600   -0.4710    0.3110 C   0  0  0  0  0  0  0  0  0  0  0  0
    2.6070    0.4130    1.0200 C   0  0  0  0  0  0  0  0  0  0  0  0
    1.3690    0.9920    0.5550 C   0  0  0  0  0  0  0  0  0  0  0  0
    0.9110    0.6030   -0.6140 C   0  0  0  0  0  0  0  0  0  0  0  0
   -0.3300    1.1820   -1.0810 N   0  0  0  0  0  0  0  0  0  0  0  0
   -1.4240    0.6610   -0.5440 C   0  0  0  0  0  0  0  0  0  0  0  0
   -1.3360   -0.4150    0.4400 C   0  0  0  0  0  0  0  0  0  0  0  0
   -2.5980   -0.8610    0.9160 N   0  0  0  0  0  0  0  0  0  0  0  0
   -3.7250   -0.4050    0.5570 C   0  0  0  0  0  0  0  0  0  0  0  0
   -4.9430   -0.9970    1.1650 C   0  0  0  0  0  0  0  0  0  0  0  0
   -6.0980   -0.5020    0.7710 C   0  0  0  0  0  0  0  0  0  0  0  0
   -7.3500   -1.0660    1.3550 C   0  0  0  0  0  0  0  0  0  0  0  0
   -6.2430    0.5570   -0.1950 C   0  0  0  0  0  0  0  0  0  0  0  0
   -5.1730    1.1040   -0.7530 C   0  0  0  0  0  0  0  0  0  0  0  0
   -5.2630    2.1950   -1.7510 C   0  0  0  0  0  0  0  0  0  0  0  0
   -3.8810    0.6410   -0.3950 N   0  0  0  0  0  0  0  0  0  0  0  0
   -2.7070    1.1910   -0.9630 C   0  0  0  0  0  0  0  0  0  0  0  0
   -2.7420    2.1220   -1.8160 O   0  0  0  0  0  0  0  0  0  0  0  0
    1.5550   -0.3640   -1.4940 C   0  0  0  0  0  0  0  0  0  0  0  0
    2.8140   -0.9530   -0.9910 C   0  0  0  0  0  0  0  0  0  0  0  0
  1  2  1  0
  2  3  1  0
  3  4  1  0
  4  5  1  0
  5  6  1  0
  6  7  2  0
  6 25  1  0
  7  8  1  0
  8  9  2  0
  9 10  1  0
  9 24  1  0
 10 11  2  3
 11 12  1  0
 11 22  1  0
 12 13  1  0
 13 14  2  0
 14 15  1  0
 14 21  1  0
 15 16  2  0
 16 17  1  0
 16 18  1  0
 18 19  2  0
 19 20  1  0
 19 21  1  0
 21 22  1  0
 22 23  2  0
 24 25  1  0
M  CHG  1  13   1
M  END
