
     RDKit          3D

 26 28  0  0  0  0  0  0  0  0999 V2000
    4.6260   -1.5670    0.2090 C   0  0  0  0  0  0  0  0  0  0  0  0
    4.9520   -0.7970   -0.8020 C   0  0  0  0  0  0  0  0  0  0  0  0
    3.9800   -0.0470   -1.5560 C   0  0  0  0  0  0  0  0  0  0  0  0
    4.4120    0.7090   -2.5860 C   0  0  0  0  0  0  0  0  0  0  0  0
    3.4230    1.4750   -3.3550 C   0  0  0  0  0  0  0  0  0  0  0  0
    2.5900   -0.0710   -1.2840 N   0  0  0  0  0  0  0  0  0  0  0  0
    2.1460    0.4870   -0.0410 C   0  0  0  0  0  0  0  0  0  0  0  0
    0.9960   -0.2590    0.5920 C   0  0  0  0  0  0  0  0  0  0  0  0
   -0.1780   -0.2490   -0.2500 N   0  0  0  0  0  0  0  0  0  0  0  0
   -1.3080   -0.8870    0.3770 C   0  0  0  0  0  0  0  0  0  0  0  0
   -1.6340   -2.1770    0.0050 C   0  0  0  0  0  0  0  0  0  0  0  0
   -2.6700   -2.8530    0.6030 C   0  0  0  0  0  0  0  0  0  0  0  0
   -3.3980   -2.2310    1.5910 C   0  0  0  0  0  0  0  0  0  0  0  0
   -3.0840   -0.9330    1.9760 C   0  0  0  0  0  0  0  0  0  0  0  0
   -2.0310   -0.2540    1.3640 C   0  0  0  0  0  0  0  0  0  0  0  0
   -1.7050    1.1170    1.7000 C   0  0  0  0  0  0  0  0  0  0  0  0
   -2.3250    1.7520    2.6570 C   0  0  0  0  0  0  0  0  0  0  0  0
   -1.9620    3.1240    2.9550 N   0  0  0  0  0  0  0  0  0  0  0  0
   -2.7880    4.0230    2.1350 C   0  0  0  0  0  0  0  0  0  0  0  0
   -4.3860   -3.1240    2.0330 O   0  0  0  0  0  0  0  0  0  0  0  0
   -4.5490   -4.0430    0.9430 C   0  0  0  0  0  0  0  0  0  0  0  0
   -3.2210   -4.1140    0.4520 O   0  0  0  0  0  0  0  0  0  0  0  0
   -0.4480    0.2620   -1.5680 C   0  0  0  0  0  0  0  0  0  0  0  0
    0.3380   -0.4530   -2.6370 C   0  0  0  0  0  0  0  0  0  0  0  0
    1.7610   -0.6210   -2.2970 C   0  0  0  0  0  0  0  0  0  0  0  0
    2.3670   -1.4150   -3.0630 O   0  0  0  0  0  0  0  0  0  0  0  0
  1  2  2  0
  2  3  1  0
  3  4  2  3
  3  6  1  0
  4  5  1  0
  6  7  1  0
  6 25  1  0
  7  8  1  0
  8  9  1  0
  9 10  1  0
  9 23  1  0
 10 11  2  0
 10 15  1  0
 11 12  1  0
 12 13  2  0
 12 22  1  0
 13 14  1  0
 13 20  1  0
 14 15  2  0
 15 16  1  0
 16 17  2  3
 17 18  1  0
 18 19  1  0
 20 21  1  0
 21 22  1  0
 23 24  1  0
 24 25  1  0
 25 26  2  0
M  CHG  1  18   1
M  END
