
     RDKit          3D

 26 28  0  0  0  0  0  0  0  0999 V2000
    6.9570   -2.2700    0.4750 C   0  0  0  0  0  0  0  0  0  0  0  0
    5.7490   -3.0340    0.0840 C   0  0  0  0  0  0  0  0  0  0  0  0
    4.5640   -2.3960   -0.0420 C   0  0  0  0  0  0  0  0  0  0  0  0
    4.5200   -0.9710    0.2130 C   0  0  0  0  0  0  0  0  0  0  0  0
    3.4250   -0.2280    0.1260 C   0  0  0  0  0  0  0  0  0  0  0  0
    2.1740   -0.7850   -0.2330 C   0  0  0  0  0  0  0  0  0  0  0  0
    0.9960   -0.1850   -0.3630 C   0  0  0  0  0  0  0  0  0  0  0  0
   -0.1580   -0.9680   -0.7440 N   0  0  0  0  0  0  0  0  0  0  0  0
   -1.3340   -0.5150   -0.8990 C   0  0  0  0  0  0  0  0  0  0  0  0
   -2.4810   -1.4110   -1.3010 C   0  0  0  0  0  0  0  0  0  0  0  0
   -3.5190   -1.4000   -0.2320 C   0  0  1  0  0  0  0  0  0  0  0  0
   -4.6780   -2.3080   -0.6460 C   0  0  0  0  0  0  0  0  0  0  0  0
   -4.5750   -3.4050    0.3970 C   0  0  0  0  0  0  0  0  0  0  0  0
   -3.1730   -3.4830    0.5620 O   0  0  0  0  0  0  0  0  0  0  0  0
   -2.9190   -2.1550    0.9620 C   0  0  0  0  0  0  0  0  0  0  0  0
   -1.5830    0.9060   -0.6840 C   0  0  0  0  0  0  0  0  0  0  0  0
   -2.7290    1.3980   -0.8260 O   0  0  0  0  0  0  0  0  0  0  0  0
   -0.5530    1.8100   -0.3050 N   0  0  0  0  0  0  0  0  0  0  0  0
   -0.7550    3.2010   -0.0850 C   0  0  0  0  0  0  0  0  0  0  0  0
   -0.3350    3.8470    1.0510 C   0  0  0  0  0  0  0  0  0  0  0  0
   -0.5690    5.2000    1.1870 C   0  0  0  0  0  0  0  0  0  0  0  0
   -1.2080    5.9050    0.2160 N   0  0  0  0  0  0  0  0  0  0  0  0
   -1.6260    5.2920   -0.9000 C   0  0  0  0  0  0  0  0  0  0  0  0
   -1.4030    3.9600   -1.0500 C   0  0  0  0  0  0  0  0  0  0  0  0
    0.7620    1.2250   -0.1470 C   0  0  0  0  0  0  0  0  0  0  0  0
    1.6760    2.0080    0.1860 O   0  0  0  0  0  0  0  0  0  0  0  0
  1  2  1  0
  2  3  2  3
  3  4  1  0
  4  5  2  3
  5  6  1  0
  6  7  2  3
  7  8  1  0
  7 25  1  0
  8  9  2  0
  9 10  1  0
  9 16  1  0
 11 10  1  6
 11 12  1  0
 11 15  1  0
 12 13  1  0
 13 14  1  0
 14 15  1  0
 16 17  2  0
 16 18  1  0
 18 19  1  0
 18 25  1  0
 19 20  2  0
 19 24  1  0
 20 21  1  0
 21 22  2  0
 22 23  1  0
 23 24  2  0
 25 26  2  0
M  CHG  1  22   1
M  END
