
     RDKit          3D

 26 28  0  0  0  0  0  0  0  0999 V2000
   -5.7780    2.3870   -1.2090 C   0  0  0  0  0  0  0  0  0  0  0  0
   -6.3320    1.9680    0.0310 O   0  0  0  0  0  0  0  0  0  0  0  0
   -5.4930    1.3980    0.9940 C   0  0  0  0  0  0  0  0  0  0  0  0
   -6.0110    0.9870    2.2010 C   0  0  0  0  0  0  0  0  0  0  0  0
   -5.1840    0.4200    3.1600 C   0  0  0  0  0  0  0  0  0  0  0  0
   -3.8310    0.2740    2.8880 C   0  0  0  0  0  0  0  0  0  0  0  0
   -3.3030    0.6860    1.6740 C   0  0  0  0  0  0  0  0  0  0  0  0
   -1.9520    0.5430    1.3940 O   0  0  0  0  0  0  0  0  0  0  0  0
   -1.4660   -0.6170    0.7990 C   0  0  0  0  0  0  0  0  0  0  0  0
   -2.3430   -1.6290    0.4900 C   0  0  0  0  0  0  0  0  0  0  0  0
   -1.8720   -2.7790   -0.0970 C   0  0  0  0  0  0  0  0  0  0  0  0
   -0.5030   -2.8550   -0.3520 C   0  0  0  0  0  0  0  0  0  0  0  0
    0.3440   -1.8290   -0.0310 C   0  0  0  0  0  0  0  0  0  0  0  0
    1.7890   -1.9630   -0.3230 C   0  0  0  0  0  0  0  0  0  0  0  0
    1.9970   -1.5040   -1.6830 N   0  0  0  0  0  0  0  0  0  0  0  0
    1.2950   -2.2020   -2.7390 C   0  0  0  0  0  0  0  0  0  0  0  0
    2.7740   -0.5180   -1.9370 C   0  0  0  0  0  0  0  0  0  0  0  0
    3.4370    0.1310   -0.8770 N   0  0  0  0  0  0  0  0  0  0  0  0
    4.6650   -0.4010   -0.3620 C   0  0  0  0  0  0  0  0  0  0  0  0
    4.9000   -0.0520    1.0830 C   0  0  0  0  0  0  0  0  0  0  0  0
    4.5730    1.3560    1.4500 C   0  0  0  0  0  0  0  0  0  0  0  0
    4.1060    2.0990    0.2430 C   0  0  2  0  0  0  0  0  0  0  0  0
    3.8290    3.4240    0.4640 O   0  0  0  0  0  0  0  0  0  0  0  0
    2.8920    1.3310   -0.3030 C   0  0  0  0  0  0  0  0  0  0  0  0
   -0.1570   -0.7350    0.5360 N   0  0  0  0  0  0  0  0  0  0  0  0
   -4.1360    1.2470    0.7300 C   0  0  0  0  0  0  0  0  0  0  0  0
  1  2  1  0
  2  3  1  0
  3  4  2  0
  3 26  1  0
  4  5  1  0
  5  6  2  0
  6  7  1  0
  7  8  1  0
  7 26  2  0
  8  9  1  0
  9 10  2  0
  9 25  1  0
 10 11  1  0
 11 12  2  0
 12 13  1  0
 13 14  1  0
 13 25  2  0
 14 15  1  0
 15 16  1  0
 15 17  2  3
 17 18  1  0
 18 19  1  0
 18 24  1  0
 19 20  1  0
 20 21  1  0
 21 22  1  0
 22 23  1  1
 22 24  1  0
M  CHG  1  15   1
M  END
