
     RDKit          3D

 13 14  0  0  0  0  0  0  0  0999 V2000
   -1.8200   -1.8640   -0.6550 C   0  0  0  0  0  0  0  0  0  0  0  0
   -1.2600   -0.5480   -0.9410 N   0  0  0  0  0  0  0  0  0  0  0  0
   -0.7650   -0.0120    0.2960 C   0  0  2  0  0  0  0  0  0  0  0  0
   -2.1310    0.5880    1.3240 S   0  0  0  0  0  0  0  0  0  0  0  0
   -2.8920    2.0090    0.4930 C   0  0  0  0  0  0  0  0  0  0  0  0
    0.3840    1.3620    0.0390 S   0  0  0  0  0  0  0  0  0  0  0  0
    1.9800    0.5270    0.1660 C   0  0  0  0  0  0  0  0  0  0  0  0
    1.9370   -0.6380    0.6990 C   0  0  0  0  0  0  0  0  0  0  0  0
    0.2930   -1.1700    1.1970 S   0  0  0  0  0  0  0  0  0  0  0  0
    3.3110   -1.2120    0.7440 C   0  0  0  0  0  0  0  0  0  0  0  0
    3.6490   -2.3360    1.1990 O   0  0  0  0  0  0  0  0  0  0  0  0
    4.1260   -0.2640    0.1890 O   0  0  0  0  0  0  0  0  0  0  0  0
    3.4060    0.8420   -0.2000 C   0  0  0  0  0  0  0  0  0  0  0  0
  1  2  1  0
  3  2  1  6
  3  4  1  0
  3  6  1  0
  3  9  1  0
  4  5  1  0
  6  7  1  0
  7  8  2  0
  7 13  1  0
  8  9  1  0
  8 10  1  0
 10 11  2  0
 10 12  1  0
 12 13  1  0
M  CHG  1   2   1
M  END
