
     RDKit          3D

 12 13  0  0  0  0  0  0  0  0999 V2000
    4.3110    0.8190    0.2570 C   0  0  0  0  0  0  0  0  0  0  0  0
    2.9990    0.8200    0.7740 O   0  0  0  0  0  0  0  0  0  0  0  0
    2.0480   -0.0360    0.3020 C   0  0  0  0  0  0  0  0  0  0  0  0
    2.3580   -0.8450   -0.6190 O   0  0  0  0  0  0  0  0  0  0  0  0
    0.6490   -0.1000    0.7900 C   0  0  2  0  0  0  0  0  0  0  0  0
   -0.1710   -1.1190    0.1060 C   0  0  0  0  0  0  0  0  0  0  0  0
   -1.3350   -0.5460   -0.5780 C   0  0  1  0  0  0  0  0  0  0  0  0
   -2.8400   -1.5960   -0.3970 S   0  0  0  0  0  0  0  0  0  0  0  0
   -3.9520   -0.1260   -0.3000 C   0  0  0  0  0  0  0  0  0  0  0  0
   -3.0380    0.8350    0.2210 N   0  0  0  0  0  0  0  0  0  0  0  0
   -1.8230    0.6470    0.0970 C   0  0  0  0  0  0  0  0  0  0  0  0
   -0.2350    1.4630    0.5380 S   0  0  0  0  0  0  0  0  0  0  0  0
  1  2  1  0
  2  3  1  0
  3  4  2  0
  5  3  1  6
  5  6  1  0
  5 12  1  0
  7  6  1  1
  7  8  1  0
  7 11  1  0
  8  9  1  0
  9 10  1  0
 10 11  2  0
 11 12  1  0
M  CHG  1  10   1
M  END
