
     RDKit          3D

 13 14  0  0  0  0  0  0  0  0999 V2000
   -4.0650   -1.0360    1.5450 O   0  0  0  0  0  0  0  0  0  0  0  0
   -3.9710    0.1740    0.6580 S   0  0  2  0  0  0  0  0  0  0  0  0
   -5.2270    0.2440   -0.1580 O   0  0  0  0  0  0  0  0  0  0  0  0
   -2.6080    0.0630   -0.4290 C   0  0  1  0  0  0  0  0  0  0  0  0
   -1.2740    0.3200    0.2750 C   0  0  0  0  0  0  0  0  0  0  0  0
   -0.3010   -0.0980   -0.8080 C   0  0  1  0  0  0  0  0  0  0  0  0
    1.0360    0.3170   -0.5770 N   0  0  0  0  0  0  0  0  0  0  0  0
    1.8300   -0.5660    0.2160 C   0  0  0  0  0  0  0  0  0  0  0  0
    3.2300   -0.0120    0.3190 C   0  0  2  0  0  0  0  0  0  0  0  0
    3.4540    1.3340    0.9270 C   0  0  0  0  0  0  0  0  0  0  0  0
    3.6170    1.2860   -0.8870 S   0  0  0  0  0  0  0  0  0  0  0  0
   -0.4650   -1.6030   -0.9210 C   0  0  0  0  0  0  0  0  0  0  0  0
   -2.3060   -1.6760   -0.9570 S   0  0  0  0  0  0  0  0  0  0  0  0
  1  2  2  0
  2  3  2  0
  2  4  1  6
  4  5  1  1
  4 13  1  0
  5  6  1  0
  6  7  1  1
  6 12  1  0
  7  8  1  0
  9  8  1  6
  9 10  1  0
  9 11  1  0
 10 11  1  0
 12 13  1  0
M  CHG  1   7   1
M  END
