
     RDKit          3D

 12 12  0  0  0  0  0  0  0  0999 V2000
   -1.6630    2.1320   -0.7750 N   0  0  0  0  0  0  0  0  0  0  0  0
   -1.0620    0.8390   -0.5660 C   0  0  1  0  0  0  0  0  0  0  0  0
    0.2450    0.9170    0.1150 C   0  0  0  0  0  0  0  0  0  0  0  0
    0.3550   -0.1240    0.9190 C   0  0  0  0  0  0  0  0  0  0  0  0
    1.4400   -0.4190    1.7410 O   0  0  0  0  0  0  0  0  0  0  0  0
    2.6170   -1.0460    1.2130 C   0  0  0  0  0  0  0  0  0  0  0  0
    3.2370   -0.1800    0.1340 C   0  0  0  0  0  0  0  0  0  0  0  0
    4.3680   -0.8160   -0.3510 O   0  0  0  0  0  0  0  0  0  0  0  0
   -0.8110   -0.9130    0.8270 O   0  0  0  0  0  0  0  0  0  0  0  0
   -1.8540   -0.0710    0.3060 C   0  0  2  0  0  0  0  0  0  0  0  0
   -2.7620   -0.9090   -0.5970 C   0  0  0  0  0  0  0  0  0  0  0  0
   -3.3430   -1.9590    0.0950 O   0  0  0  0  0  0  0  0  0  0  0  0
  2  1  1  1
  2  3  1  0
  2 10  1  0
  3  4  2  0
  4  5  1  0
  4  9  1  0
  5  6  1  0
  6  7  1  0
  7  8  1  0
  9 10  1  0
 10 11  1  6
 11 12  1  0
M  CHG  1   1   1
M  END
