
     RDKit          3D

 12 12  0  0  0  0  0  0  0  0999 V2000
   -4.2040    0.6580   -0.2520 C   0  0  0  0  0  0  0  0  0  0  0  0
   -3.3250   -0.4260   -0.2650 O   0  0  0  0  0  0  0  0  0  0  0  0
   -2.1370   -0.1490    0.3680 C   0  0  1  0  0  0  0  0  0  0  0  0
   -2.0080   -0.9700    1.4980 O   0  0  0  0  0  0  0  0  0  0  0  0
   -1.0240   -0.3630   -0.6150 C   0  0  0  0  0  0  0  0  0  0  0  0
    0.3020   -0.0900   -0.0350 N   0  0  1  0  0  0  0  0  0  0  0  0
    0.4980   -0.9820    1.0360 C   0  0  0  0  0  0  0  0  0  0  0  0
    2.3190   -1.1360    1.0530 S   0  0  0  0  0  0  0  0  0  0  0  0
    2.4380   -0.9280   -0.7690 C   0  0  2  0  0  0  0  0  0  0  0  0
    4.0030   -0.1960   -1.2550 S   0  0  0  0  0  0  0  0  0  0  0  0
    4.1640    1.4900   -0.6740 C   0  0  0  0  0  0  0  0  0  0  0  0
    1.2420   -0.1240   -1.0440 C   0  0  0  0  0  0  0  0  0  0  0  0
  1  2  1  0
  2  3  1  0
  3  4  1  1
  3  5  1  0
  6  5  1  6
  6  7  1  0
  6 12  1  0
  7  8  1  0
  8  9  1  0
  9 10  1  1
  9 12  1  0
 10 11  1  0
M  CHG  1   6   1
M  END
