
     RDKit          3D

 12 13  0  0  0  0  0  0  0  0999 V2000
    4.3740    0.6630   -0.3980 C   0  0  0  0  0  0  0  0  0  0  0  0
    3.0370    0.9320   -0.1120 O   0  0  0  0  0  0  0  0  0  0  0  0
    2.0670   -0.0270    0.1240 C   0  0  0  0  0  0  0  0  0  0  0  0
    2.4260   -1.2310    0.0750 O   0  0  0  0  0  0  0  0  0  0  0  0
    0.6630    0.2720    0.4230 C   0  0  2  0  0  0  0  0  0  0  0  0
   -0.1980   -0.8960    0.6400 C   0  0  0  0  0  0  0  0  0  0  0  0
   -1.4540   -0.8860   -0.0700 C   0  0  1  0  0  0  0  0  0  0  0  0
   -2.8870   -1.2240    1.0000 S   0  0  0  0  0  0  0  0  0  0  0  0
   -3.9830   -0.0720    0.0510 C   0  0  0  0  0  0  0  0  0  0  0  0
   -2.9940    0.8360   -0.4240 N   0  0  0  0  0  0  0  0  0  0  0  0
   -1.8170    0.4880   -0.4910 C   0  0  0  0  0  0  0  0  0  0  0  0
   -0.1600    1.1310   -0.9560 S   0  0  0  0  0  0  0  0  0  0  0  0
  1  2  1  0
  2  3  1  0
  3  4  2  0
  5  3  1  6
  5  6  1  0
  5 12  1  0
  7  6  1  1
  7  8  1  0
  7 11  1  0
  8  9  1  0
  9 10  1  0
 10 11  2  0
 11 12  1  0
M  CHG  1  10   1
M  END
