
     RDKit          3D

 13 14  0  0  0  0  0  0  0  0999 V2000
    0.0060   -2.6830    1.4700 O   0  0  0  0  0  0  0  0  0  0  0  0
   -0.7050   -1.9150    0.7350 C   0  0  0  0  0  0  0  0  0  0  0  0
   -1.9940   -2.4300    0.2060 C   0  0  0  0  0  0  0  0  0  0  0  0
   -2.9070   -0.8510    0.0230 S   0  0  0  0  0  0  0  0  0  0  0  0
   -1.4050    0.1650   -0.0770 C   0  0  0  0  0  0  0  0  0  0  0  0
   -0.4280   -0.5770    0.3300 C   0  0  0  0  0  0  0  0  0  0  0  0
    0.9390    0.0890    0.3350 C   0  0  1  0  0  0  0  0  0  0  0  0
    1.4880    0.0550   -1.0470 C   0  0  0  0  0  0  0  0  0  0  0  0
    1.6640   -1.6490   -1.6450 S   0  0  0  0  0  0  0  0  0  0  0  0
    0.7790    1.4730    0.8970 C   0  0  0  0  0  0  0  0  0  0  0  0
    0.2770    2.4210   -0.0370 N   0  0  0  0  0  0  0  0  0  0  0  0
   -1.2520    1.8590   -0.6320 S   0  0  0  0  0  0  0  0  0  0  0  0
   -2.4220    2.6800   -0.1160 O   0  0  0  0  0  0  0  0  0  0  0  0
  1  2  2  0
  2  3  1  0
  2  6  1  0
  3  4  1  0
  4  5  1  0
  5  6  2  0
  5 12  1  0
  6  7  1  0
  7  8  1  6
  7 10  1  0
  8  9  1  0
 10 11  1  0
 12 11  1  1
 12 13  2  0
M  CHG  1  11   1
M  END
