
     RDKit          3D

 13 13  0  0  0  0  0  0  0  0999 V2000
   -3.2900    0.8640   -0.1290 C   0  0  0  0  0  0  0  0  0  0  0  0
   -2.8460    0.0380   -1.6450 S   0  0  0  0  0  0  0  0  0  0  0  0
   -1.1490   -0.4430   -1.8120 C   0  0  1  0  0  0  0  0  0  0  0  0
    0.0170    0.9820   -1.9030 S   0  0  0  0  0  0  0  0  0  0  0  0
    0.9110    0.5550   -0.4140 C   0  0  0  0  0  0  0  0  0  0  0  0
    2.1020    0.8480    0.0120 C   0  0  0  0  0  0  0  0  0  0  0  0
    3.0690    1.6560   -0.6720 C   0  0  0  0  0  0  0  0  0  0  0  0
    2.8030    2.1540   -1.7820 O   0  0  0  0  0  0  0  0  0  0  0  0
    4.6580    1.9670    0.0420 S   0  0  0  0  0  0  0  0  0  0  0  0
    4.8250    1.1930    1.5760 O   0  0  0  0  0  0  0  0  0  0  0  0
   -0.0900   -0.2790    0.2850 C   0  0  0  0  0  0  0  0  0  0  0  0
   -0.5880   -1.1780   -0.7070 N   0  0  1  0  0  0  0  0  0  0  0  0
   -1.5250   -2.1420   -0.1860 C   0  0  0  0  0  0  0  0  0  0  0  0
  1  2  1  0
  3  2  1  1
  3  4  1  0
  3 12  1  0
  4  5  1  0
  5  6  2  3
  5 11  1  0
  6  7  1  0
  7  8  2  0
  7  9  1  0
  9 10  1  0
 11 12  1  0
 12 13  1  1
M  CHG  1  12   1
M  END
