
     RDKit          3D

 13 14  0  0  0  0  0  0  0  0999 V2000
   -1.7070   -0.6460   -1.8830 C   0  0  0  0  0  0  0  0  0  0  0  0
   -1.5790   -0.9180   -0.4650 N   0  0  0  0  0  0  0  0  0  0  0  0
   -0.7260    0.1090    0.1040 C   0  0  2  0  0  0  0  0  0  0  0  0
   -1.7690    1.4690    0.6640 S   0  0  0  0  0  0  0  0  0  0  0  0
   -2.8330    1.0330    2.0270 C   0  0  0  0  0  0  0  0  0  0  0  0
    0.4180    0.6640   -1.1690 S   0  0  0  0  0  0  0  0  0  0  0  0
    2.0090    0.2770   -0.4870 C   0  0  0  0  0  0  0  0  0  0  0  0
    1.9990   -0.2650    0.6810 C   0  0  0  0  0  0  0  0  0  0  0  0
    0.3720   -0.5110    1.3630 S   0  0  0  0  0  0  0  0  0  0  0  0
    3.4140   -0.5070    1.0720 C   0  0  0  0  0  0  0  0  0  0  0  0
    3.8300   -1.0160    2.1310 O   0  0  0  0  0  0  0  0  0  0  0  0
    4.2490   -0.0710    0.0590 O   0  0  0  0  0  0  0  0  0  0  0  0
    3.4440    0.4370   -0.9630 C   0  0  0  0  0  0  0  0  0  0  0  0
  1  2  1  0
  3  2  1  6
  3  4  1  0
  3  6  1  0
  3  9  1  0
  4  5  1  0
  6  7  1  0
  7  8  2  0
  7 13  1  0
  8  9  1  0
  8 10  1  0
 10 11  2  0
 10 12  1  0
 12 13  1  0
M  CHG  1   2   1
M  END
