
     RDKit          3D

 13 14  0  0  0  0  0  0  0  0999 V2000
    4.3450    0.8100   -0.4700 O   0  0  0  0  0  0  0  0  0  0  0  0
    4.2280   -0.5310    0.1590 S   0  0  2  0  0  0  0  0  0  0  0  0
    5.0230   -1.5070   -0.6890 O   0  0  0  0  0  0  0  0  0  0  0  0
    2.5320   -1.0430    0.0740 C   0  0  1  0  0  0  0  0  0  0  0  0
    1.5940    0.0580    0.5010 C   0  0  0  0  0  0  0  0  0  0  0  0
    0.2450   -0.2450   -0.0850 C   0  0  1  0  0  0  0  0  0  0  0  0
   -0.6020    0.9110    0.1510 N   0  0  0  0  0  0  0  0  0  0  0  0
   -1.9160    0.5560    0.5870 C   0  0  0  0  0  0  0  0  0  0  0  0
   -2.9300    0.5310   -0.5330 C   0  0  2  0  0  0  0  0  0  0  0  0
   -4.3390    0.1490   -0.0550 C   0  0  0  0  0  0  0  0  0  0  0  0
   -3.6230   -0.8820   -1.2130 S   0  0  0  0  0  0  0  0  0  0  0  0
    0.4180   -0.4220   -1.5700 C   0  0  0  0  0  0  0  0  0  0  0  0
    2.1030   -1.1400   -1.7090 S   0  0  0  0  0  0  0  0  0  0  0  0
  1  2  2  0
  2  3  2  0
  2  4  1  6
  4  5  1  1
  4 13  1  0
  5  6  1  0
  6  7  1  6
  6 12  1  0
  7  8  1  0
  9  8  1  1
  9 10  1  0
  9 11  1  0
 10 11  1  0
 12 13  1  0
M  CHG  1   7   1
M  END
