
     RDKit          3D

 20 20  0  0  0  0  0  0  0  0999 V2000
    5.5350   -1.3060    1.3500 C   0  0  0  0  0  0  0  0  0  0  0  0
    4.6590   -0.6970    0.5750 C   0  0  0  0  0  0  0  0  0  0  0  0
    3.4000   -1.3610    0.1540 C   0  0  0  0  0  0  0  0  0  0  0  0
    2.1760   -0.6020    0.6430 C   0  0  0  0  0  0  0  0  0  0  0  0
    2.1870    0.7790    0.0750 C   0  0  0  0  0  0  0  0  0  0  0  0
    1.0470    1.6550    0.4600 C   0  0  0  0  0  0  0  0  0  0  0  0
   -0.3100    1.2310    0.0530 C   0  0  2  0  0  0  0  0  0  0  0  0
   -1.3140    2.2840    0.5760 C   0  0  0  0  0  0  0  0  0  0  0  0
   -1.0370    3.6460    0.0070 C   0  0  0  0  0  0  0  0  0  0  0  0
   -2.0120    4.5190    0.5200 O   0  0  0  0  0  0  0  0  0  0  0  0
   -1.8200    5.8100    0.0340 C   0  0  0  0  0  0  0  0  0  0  0  0
   -0.7300   -0.0430    0.3900 O   0  0  0  0  0  0  0  0  0  0  0  0
   -1.3810   -0.9660   -0.3850 C   0  0  0  0  0  0  0  0  0  0  0  0
   -1.7390   -0.7490   -1.6900 C   0  0  0  0  0  0  0  0  0  0  0  0
   -2.4040   -1.7220   -2.4460 C   0  0  0  0  0  0  0  0  0  0  0  0
   -2.7190   -2.9370   -1.8920 C   0  0  0  0  0  0  0  0  0  0  0  0
   -2.3680   -3.1820   -0.5770 C   0  0  0  0  0  0  0  0  0  0  0  0
   -2.7290   -4.5080   -0.0230 C   0  0  0  0  0  0  0  0  0  0  0  0
   -1.7200   -2.2150    0.1390 C   0  0  0  0  0  0  0  0  0  0  0  0
   -1.3490   -2.4900    1.5480 C   0  0  0  0  0  0  0  0  0  0  0  0
  1  2  2  0
  2  3  1  0
  3  4  1  0
  4  5  1  0
  5  6  1  0
  7  6  1  1
  7  8  1  0
  7 12  1  0
  8  9  1  0
  9 10  1  0
 10 11  1  0
 12 13  1  0
 13 14  2  0
 13 19  1  0
 14 15  1  0
 15 16  2  0
 16 17  1  0
 17 18  1  0
 17 19  2  0
 19 20  1  0
M  END
