
     RDKit          3D

 15 16  0  0  0  0  0  0  0  0999 V2000
    0.0220    0.1380   -1.5060 C   0  0  0  0  0  0  0  0  0  0  0  0
    1.1290   -0.8430   -1.3170 C   0  0  0  0  0  0  0  0  0  0  0  0
    2.2270   -0.2020   -0.6180 N   0  0  1  0  0  0  0  0  0  0  0  0
    1.7480    0.8980    0.1250 C   0  0  0  0  0  0  0  0  0  0  0  0
    2.4380    1.2310    1.3960 C   0  0  0  0  0  0  0  0  0  0  0  0
    3.7670    0.8160    1.3580 N   0  0  0  0  0  0  0  0  0  0  0  0
    4.0260   -0.5450    1.0360 C   0  0  0  0  0  0  0  0  0  0  0  0
    3.0590   -1.1470    0.0660 C   0  0  0  0  0  0  0  0  0  0  0  0
   -1.1990   -0.0080   -1.0410 C   0  0  0  0  0  0  0  0  0  0  0  0
   -2.1240    1.1060   -1.3590 C   0  0  0  0  0  0  0  0  0  0  0  0
   -3.4280    1.0530   -0.6410 C   0  0  0  0  0  0  0  0  0  0  0  0
   -3.2620    0.8780    0.8370 C   0  0  0  0  0  0  0  0  0  0  0  0
   -2.9910   -0.5200    1.2630 C   0  0  0  0  0  0  0  0  0  0  0  0
   -2.7580   -1.4380    0.1940 N   0  0  0  0  0  0  0  0  0  0  0  0
   -1.3970   -1.2760   -0.2870 C   0  0  0  0  0  0  0  0  0  0  0  0
  1  2  1  0
  1  9  2  3
  3  2  1  1
  3  4  1  0
  3  8  1  0
  4  5  1  0
  5  6  1  0
  6  7  1  0
  7  8  1  0
  9 10  1  0
  9 15  1  0
 10 11  1  0
 11 12  1  0
 12 13  1  0
 13 14  1  0
 14 15  1  0
M  CHG  2   3   1  14   1
M  END
