
     RDKit          3D

 20 20  0  0  0  0  0  0  0  0999 V2000
   -5.6660   -0.8930   -0.1490 C   0  0  0  0  0  0  0  0  0  0  0  0
   -4.2540   -0.4680    0.1530 C   0  0  0  0  0  0  0  0  0  0  0  0
   -3.3000   -1.2660   -0.7090 C   0  0  0  0  0  0  0  0  0  0  0  0
   -1.8820   -0.8770   -0.4460 C   0  0  0  0  0  0  0  0  0  0  0  0
   -1.1650   -1.5260    0.5130 C   0  0  0  0  0  0  0  0  0  0  0  0
    0.1590   -1.2190    0.8310 C   0  0  0  0  0  0  0  0  0  0  0  0
    0.8750   -2.0400    1.8110 C   0  0  0  0  0  0  0  0  0  0  0  0
    1.7040   -3.1520    1.2740 C   0  0  0  0  0  0  0  0  0  0  0  0
    2.8520   -2.8260    0.4040 C   0  0  0  0  0  0  0  0  0  0  0  0
    3.8500   -2.0790    1.0100 O   0  0  0  0  0  0  0  0  0  0  0  0
    0.7610   -0.1950    0.1290 C   0  0  0  0  0  0  0  0  0  0  0  0
    2.0680    0.1820    0.4000 O   0  0  0  0  0  0  0  0  0  0  0  0
    2.2790    1.0700    1.4770 C   0  0  0  0  0  0  0  0  0  0  0  0
    3.7420    1.4440    1.6450 C   0  0  0  0  0  0  0  0  0  0  0  0
    0.0770    0.5040   -0.8740 C   0  0  0  0  0  0  0  0  0  0  0  0
    0.7000    1.4830   -1.7380 C   0  0  1  0  0  0  0  0  0  0  0  0
   -0.2510    1.7660   -2.9310 C   0  0  0  0  0  0  0  0  0  0  0  0
    1.2240    2.7650   -1.2250 C   0  0  0  0  0  0  0  0  0  0  0  0
    0.1800    3.5940   -0.5220 C   0  0  0  0  0  0  0  0  0  0  0  0
   -1.2600    0.1290   -1.1310 C   0  0  0  0  0  0  0  0  0  0  0  0
  1  2  1  0
  2  3  1  0
  3  4  1  0
  4  5  2  0
  4 20  1  0
  5  6  1  0
  6  7  1  0
  6 11  2  0
  7  8  1  0
  8  9  1  0
  9 10  1  0
 11 12  1  0
 11 15  1  0
 12 13  1  0
 13 14  1  0
 15 16  1  0
 15 20  2  0
 16 17  1  6
 16 18  1  0
 18 19  1  0
M  END
