
     RDKit          3D

 15 16  0  0  0  0  0  0  0  0999 V2000
   -2.8460   -0.7120   -0.4600 C   0  0  0  0  0  0  0  0  0  0  0  0
   -1.6000    0.1150   -0.6490 C   0  0  2  0  0  0  0  0  0  0  0  0
   -1.8900    1.5880   -0.7920 C   0  0  0  0  0  0  0  0  0  0  0  0
   -0.7530   -0.5300   -2.1340 S   0  0  0  0  0  0  0  0  0  0  0  0
    0.8190   -0.9620   -1.2760 C   0  0  2  0  0  0  0  0  0  0  0  0
    0.7230   -2.3720   -0.7410 C   0  0  0  0  0  0  0  0  0  0  0  0
    1.7310   -2.1640    0.7850 S   0  0  0  0  0  0  0  0  0  0  0  0
    1.8010   -0.3260    0.7290 C   0  0  1  0  0  0  0  0  0  0  0  0
    3.1130    0.1300    0.1350 C   0  0  0  0  0  0  0  0  0  0  0  0
    3.1220    1.9270    0.1060 S   0  0  0  0  0  0  0  0  0  0  0  0
    0.7360   -0.0500   -0.1780 N   0  0  2  0  0  0  0  0  0  0  0  0
   -0.5570   -0.1560    0.4140 C   0  0  1  0  0  0  0  0  0  0  0  0
   -0.7250    0.9420    1.4270 C   0  0  0  0  0  0  0  0  0  0  0  0
    0.1600    1.7990    1.6640 O   0  0  0  0  0  0  0  0  0  0  0  0
   -1.9090    1.0480    2.1610 O   0  0  0  0  0  0  0  0  0  0  0  0
  2  1  1  1
  2  3  1  0
  2  4  1  0
  2 12  1  0
  4  5  1  0
  5  6  1  1
  5 11  1  0
  6  7  1  0
  7  8  1  0
  8  9  1  6
 11  8  1  1
  9 10  1  0
 11 12  1  0
 12 13  1  1
 13 14  2  0
 13 15  1  0
M  CHG  1  11   1
M  END
