
     RDKit          3D

 20 20  0  0  0  0  0  0  0  0999 V2000
    7.4200    0.3480   -0.1880 C   0  0  0  0  0  0  0  0  0  0  0  0
    6.0250    0.8600    0.1570 C   0  0  0  0  0  0  0  0  0  0  0  0
    5.1480    0.8950   -1.0600 C   0  0  0  0  0  0  0  0  0  0  0  0
    4.9520   -0.3090   -1.6790 O   0  0  0  0  0  0  0  0  0  0  0  0
    4.3370   -1.2870   -0.9340 C   0  0  0  0  0  0  0  0  0  0  0  0
    2.9630   -0.9320   -0.4850 C   0  0  0  0  0  0  0  0  0  0  0  0
    2.7490   -0.6160    0.8170 C   0  0  0  0  0  0  0  0  0  0  0  0
    1.4800   -0.2830    1.2370 C   0  0  0  0  0  0  0  0  0  0  0  0
    0.3830   -0.2480    0.4010 C   0  0  0  0  0  0  0  0  0  0  0  0
   -0.9620    0.1160    0.9130 C   0  0  2  0  0  0  0  0  0  0  0  0
   -1.1330   -0.6150    2.1090 O   0  0  0  0  0  0  0  0  0  0  0  0
   -1.9760   -0.2330   -0.0890 C   0  0  0  0  0  0  0  0  0  0  0  0
   -3.4080    0.0790    0.3030 C   0  0  2  0  0  0  0  0  0  0  0  0
   -3.6250    1.5250    0.5680 C   0  0  0  0  0  0  0  0  0  0  0  0
   -3.8270   -0.6920    1.5380 C   0  0  0  0  0  0  0  0  0  0  0  0
   -4.2090   -0.4480   -0.8490 C   0  0  0  0  0  0  0  0  0  0  0  0
   -5.6680   -0.3360   -0.8150 C   0  0  0  0  0  0  0  0  0  0  0  0
   -6.2650    1.0410   -0.7540 C   0  0  0  0  0  0  0  0  0  0  0  0
    0.6210   -0.5730   -0.9170 C   0  0  0  0  0  0  0  0  0  0  0  0
    1.8950   -0.9120   -1.3610 C   0  0  0  0  0  0  0  0  0  0  0  0
  1  2  1  0
  2  3  1  0
  3  4  1  0
  4  5  1  0
  5  6  1  0
  6  7  2  0
  6 20  1  0
  7  8  1  0
  8  9  2  0
  9 10  1  0
  9 19  1  0
 10 11  1  1
 10 12  1  0
 12 13  1  0
 13 14  1  1
 13 15  1  0
 13 16  1  0
 16 17  1  0
 17 18  1  0
 19 20  2  0
M  END
