
     RDKit          3D

 20 20  0  0  0  0  0  0  0  0999 V2000
   -6.9250   -0.7760    1.2570 C   0  0  0  0  0  0  0  0  0  0  0  0
   -6.8340    0.4680    0.4380 C   0  0  0  0  0  0  0  0  0  0  0  0
   -6.9370    0.2840   -1.0310 C   0  0  0  0  0  0  0  0  0  0  0  0
   -6.1560   -0.4880   -1.7330 O   0  0  0  0  0  0  0  0  0  0  0  0
   -4.8390   -0.3630   -1.8190 C   0  0  0  0  0  0  0  0  0  0  0  0
   -4.0940   -0.6640   -0.5520 C   0  0  0  0  0  0  0  0  0  0  0  0
   -2.7300   -0.4840   -0.8670 O   0  0  0  0  0  0  0  0  0  0  0  0
   -1.9790   -0.7530    0.2860 C   0  0  0  0  0  0  0  0  0  0  0  0
   -0.5220   -0.5440   -0.1070 C   0  0  0  0  0  0  0  0  0  0  0  0
    0.3900   -0.8050    1.0560 C   0  0  0  0  0  0  0  0  0  0  0  0
    1.7880   -0.5850    0.6060 C   0  0  0  0  0  0  0  0  0  0  0  0
    2.4760   -1.6560    0.0860 C   0  0  0  0  0  0  0  0  0  0  0  0
    3.7590   -1.4520   -0.3270 C   0  0  0  0  0  0  0  0  0  0  0  0
    4.3530   -0.1970   -0.2250 C   0  0  0  0  0  0  0  0  0  0  0  0
    5.7480   -0.0040   -0.6900 C   0  0  1  0  0  0  0  0  0  0  0  0
    5.8050    1.2100   -1.5680 C   0  0  0  0  0  0  0  0  0  0  0  0
    6.7050    0.0870    0.4800 C   0  0  0  0  0  0  0  0  0  0  0  0
    6.4120    1.2230    1.4140 C   0  0  0  0  0  0  0  0  0  0  0  0
    3.6710    0.8740    0.2930 C   0  0  0  0  0  0  0  0  0  0  0  0
    2.3640    0.6490    0.7100 C   0  0  0  0  0  0  0  0  0  0  0  0
  1  2  1  0
  2  3  1  0
  3  4  1  0
  4  5  1  0
  5  6  1  0
  6  7  1  0
  7  8  1  0
  8  9  1  0
  9 10  1  0
 10 11  1  0
 11 12  2  0
 11 20  1  0
 12 13  1  0
 13 14  2  0
 14 15  1  0
 14 19  1  0
 15 16  1  1
 15 17  1  0
 17 18  1  0
 19 20  2  0
M  END
