
     RDKit          3D

 20 20  0  0  0  0  0  0  0  0999 V2000
    5.8360    1.1880   -1.2030 C   0  0  0  0  0  0  0  0  0  0  0  0
    4.9550    1.9370   -0.5680 C   0  0  0  0  0  0  0  0  0  0  0  0
    3.5050    1.6420   -0.7440 C   0  0  0  0  0  0  0  0  0  0  0  0
    2.8880    1.3270    0.4860 O   0  0  0  0  0  0  0  0  0  0  0  0
    1.5430    1.0170    0.5850 C   0  0  0  0  0  0  0  0  0  0  0  0
    0.6790    2.0940    0.8020 C   0  0  0  0  0  0  0  0  0  0  0  0
    1.1940    3.4420    0.9210 C   0  0  0  0  0  0  0  0  0  0  0  0
    0.4200    4.4020    1.1110 O   0  0  0  0  0  0  0  0  0  0  0  0
   -0.6950    1.8860    0.9160 C   0  0  0  0  0  0  0  0  0  0  0  0
   -1.2040    0.6100    0.8130 C   0  0  0  0  0  0  0  0  0  0  0  0
   -2.6620    0.3610    0.9300 C   0  0  0  0  0  0  0  0  0  0  0  0
   -3.3510    0.4340   -0.4110 C   0  0  1  0  0  0  0  0  0  0  0  0
   -2.8040   -0.5810   -1.3630 C   0  0  0  0  0  0  0  0  0  0  0  0
   -4.8430    0.3400   -0.2910 C   0  0  0  0  0  0  0  0  0  0  0  0
   -5.3450   -0.9200    0.3340 C   0  0  0  0  0  0  0  0  0  0  0  0
   -0.3140   -0.4430    0.5960 C   0  0  0  0  0  0  0  0  0  0  0  0
    1.0320   -0.2550    0.4830 C   0  0  0  0  0  0  0  0  0  0  0  0
    1.9510   -1.3760    0.2590 C   0  0  0  0  0  0  0  0  0  0  0  0
    1.2350   -2.7100    0.2090 C   0  0  0  0  0  0  0  0  0  0  0  0
    2.2220   -3.8330   -0.0230 C   0  0  0  0  0  0  0  0  0  0  0  0
  1  2  2  0
  2  3  1  0
  3  4  1  0
  4  5  1  0
  5  6  2  0
  5 17  1  0
  6  7  1  0
  6  9  1  0
  7  8  2  0
  9 10  2  0
 10 11  1  0
 10 16  1  0
 11 12  1  0
 12 13  1  6
 12 14  1  0
 14 15  1  0
 16 17  2  0
 17 18  1  0
 18 19  1  0
 19 20  1  0
M  END
