
     RDKit          3D

 22 22  0  0  0  0  0  0  0  0999 V2000
   -2.8950    2.9680   -0.6690 N   0  0  0  0  0  0  0  0  0  0  0  0
   -1.8640    2.1600   -1.1900 C   0  0  0  0  0  0  0  0  0  0  0  0
   -1.4400    2.3950   -2.3420 O   0  0  0  0  0  0  0  0  0  0  0  0
   -1.3060    1.0630   -0.3770 C   0  0  2  0  0  0  0  0  0  0  0  0
   -0.2730    0.3690   -1.0620 O   0  0  0  0  0  0  0  0  0  0  0  0
    1.0530    0.3860   -0.7060 C   0  0  0  0  0  0  0  0  0  0  0  0
    1.3740    1.0680    0.3020 O   0  0  0  0  0  0  0  0  0  0  0  0
    2.0580   -0.2810   -1.3600 O   0  0  0  0  0  0  0  0  0  0  0  0
    3.4220   -0.2090   -0.9180 C   0  0  0  0  0  0  0  0  0  0  0  0
    4.3180   -1.0330   -1.8130 C   0  0  2  0  0  0  0  0  0  0  0  0
    3.8880   -2.3580   -1.7690 O   0  0  0  0  0  0  0  0  0  0  0  0
    5.7020   -1.0150   -1.1620 C   0  0  0  0  0  0  0  0  0  0  0  0
    5.5910   -1.4690    0.1470 O   0  0  0  0  0  0  0  0  0  0  0  0
   -2.3320    0.1490    0.2010 C   0  0  2  0  0  0  0  0  0  0  0  0
   -3.2700    0.9040    1.1070 C   0  0  0  0  0  0  0  0  0  0  0  0
   -3.9050   -0.2100    2.3670 S   0  0  2  0  0  0  0  0  0  0  0  0
   -5.2670    0.2830    2.7460 O   0  0  0  0  0  0  0  0  0  0  0  0
   -3.0430   -0.1850    3.5920 O   0  0  0  0  0  0  0  0  0  0  0  0
   -3.9730   -1.8230    1.6290 C   0  0  0  0  0  0  0  0  0  0  0  0
   -2.6420   -2.0990    1.1730 O   0  0  0  0  0  0  0  0  0  0  0  0
   -1.7930   -1.0660    0.8040 C   0  0  0  0  0  0  0  0  0  0  0  0
   -0.5670   -1.2240    1.0080 O   0  0  0  0  0  0  0  0  0  0  0  0
  1  2  1  0
  2  3  2  0
  2  4  1  0
  4  5  1  6
  4 14  1  0
  5  6  1  0
  6  7  2  0
  6  8  1  0
  8  9  1  0
  9 10  1  0
 10 11  1  1
 10 12  1  0
 12 13  1  0
 14 15  1  1
 14 21  1  0
 16 15  1  6
 16 17  2  0
 16 18  2  0
 16 19  1  0
 19 20  1  0
 20 21  1  0
 21 22  2  0
M  END
