
     RDKit          3D

 22 22  0  0  0  0  0  0  0  0999 V2000
   -3.7480   -1.3150   -1.2910 C   0  0  0  0  0  0  0  0  0  0  0  0
   -3.0280   -0.2930   -0.3950 C   0  0  1  0  0  0  0  0  0  0  0  0
   -1.6050   -0.7360   -0.3120 C   0  0  2  0  0  0  0  0  0  0  0  0
   -1.0050   -0.7750   -1.6760 C   0  0  0  0  0  0  0  0  0  0  0  0
   -1.6300   -2.0630    0.1850 O   0  0  0  0  0  0  0  0  0  0  0  0
   -0.7510    0.0440    0.6330 C   0  0  2  0  0  0  0  0  0  0  0  0
   -0.6250    1.3630    0.2870 O   0  0  0  0  0  0  0  0  0  0  0  0
    0.6050   -0.5970    0.6230 C   0  0  0  0  0  0  0  0  0  0  0  0
    0.7250   -1.8270    0.9160 O   0  0  0  0  0  0  0  0  0  0  0  0
    1.7800    0.1390    0.2900 N   0  0  0  0  0  0  0  0  0  0  0  0
    3.0410   -0.5380    0.3000 C   0  0  0  0  0  0  0  0  0  0  0  0
    4.1640    0.3280   -0.0590 C   0  0  0  0  0  0  0  0  0  0  0  0
    4.0670    1.5460   -0.3520 O   0  0  0  0  0  0  0  0  0  0  0  0
    5.4440   -0.2170   -0.0850 O   0  0  0  0  0  0  0  0  0  0  0  0
    6.7970    0.7320   -0.4930 S   0  0  2  0  0  0  0  0  0  0  0  0
    6.4350    1.4880   -1.7530 O   0  0  0  0  0  0  0  0  0  0  0  0
    7.9710   -0.1300   -0.7980 O   0  0  0  0  0  0  0  0  0  0  0  0
    7.1840    1.7460    0.7660 O   0  0  0  0  0  0  0  0  0  0  0  0
   -3.2640    1.0400   -0.9860 C   0  0  0  0  0  0  0  0  0  0  0  0
   -4.0510    1.7320   -0.0350 O   0  0  0  0  0  0  0  0  0  0  0  0
   -4.6680    0.6790    0.6420 C   0  0  0  0  0  0  0  0  0  0  0  0
   -3.6930   -0.2990    0.8060 O   0  0  0  0  0  0  0  0  0  0  0  0
  2  1  1  6
  2  3  1  0
  2 19  1  0
  2 22  1  0
  3  4  1  6
  3  5  1  0
  3  6  1  0
  6  7  1  6
  6  8  1  0
  8  9  2  0
  8 10  1  0
 10 11  1  0
 11 12  1  0
 12 13  2  0
 12 14  1  0
 14 15  1  0
 15 16  2  0
 15 17  2  0
 15 18  1  1
 19 20  1  0
 20 21  1  0
 21 22  1  0
M  END
