
     RDKit          3D

 13 14  0  0  0  0  0  0  0  0999 V2000
   -3.5800    0.0720    0.3590 C   0  0  0  0  0  0  0  0  0  0  0  0
   -2.0480   -0.6240    0.9010 S   0  0  1  0  0  0  0  0  0  0  0  0
   -2.1800   -1.2720    2.3110 N   0  0  0  0  0  0  0  0  0  0  0  0
   -1.7450   -1.8340    0.0450 O   0  0  0  0  0  0  0  0  0  0  0  0
   -0.7600    0.5740    0.8190 C   0  0  1  0  0  0  0  0  0  0  0  0
    0.8660   -0.1560    1.1130 S   0  0  0  0  0  0  0  0  0  0  0  0
    1.9030    0.7600   -0.0700 C   0  0  1  0  0  0  0  0  0  0  0  0
    3.1310   -0.0110   -0.4490 C   0  0  0  0  0  0  0  0  0  0  0  0
    2.5760   -1.1560   -1.2530 C   0  0  0  0  0  0  0  0  0  0  0  0
    1.1980   -0.7680   -1.6650 C   0  0  0  0  0  0  0  0  0  0  0  0
    0.4120   -1.5310   -2.1600 O   0  0  0  0  0  0  0  0  0  0  0  0
    1.0690    0.6770   -1.3310 C   0  0  1  0  0  0  0  0  0  0  0  0
   -0.6100    1.1480   -0.8950 S   0  0  0  0  0  0  0  0  0  0  0  0
  2  1  1  6
  2  3  2  0
  2  4  2  0
  2  5  1  0
  5  6  1  6
  5 13  1  0
  6  7  1  0
  7  8  1  6
  7 12  1  0
  8  9  1  0
  9 10  1  0
 10 11  2  0
 10 12  1  0
 12 13  1  1
M  CHG  1   3   1
M  END
