
     RDKit          3D

 21 21  0  0  0  0  0  0  0  0999 V2000
   -4.5390    0.7730   -0.8430 C   0  0  0  0  0  0  0  0  0  0  0  0
   -3.6160    0.1040    0.1530 C   0  0  2  0  0  0  0  0  0  0  0  0
   -2.2880    0.7820    0.2190 C   0  0  0  0  0  0  0  0  0  0  0  0
   -2.2280    2.0000    0.5250 O   0  0  0  0  0  0  0  0  0  0  0  0
   -1.1090    0.1190   -0.0460 O   0  0  0  0  0  0  0  0  0  0  0  0
    0.1110    0.8100    0.0320 C   0  0  0  0  0  0  0  0  0  0  0  0
    1.2690   -0.0730   -0.2870 C   0  0  0  0  0  0  0  0  0  0  0  0
    1.1010   -1.2760   -0.5800 O   0  0  0  0  0  0  0  0  0  0  0  0
    2.5760    0.3700   -0.2790 O   0  0  0  0  0  0  0  0  0  0  0  0
    3.6920   -0.4050   -0.5670 C   0  0  2  0  0  0  0  0  0  0  0  0
    4.6140   -0.5620    0.5920 C   0  0  0  0  0  0  0  0  0  0  0  0
    4.3930    0.0110    1.8590 N   0  0  0  0  0  0  0  0  0  0  0  0
    5.6540   -1.2500    0.4240 O   0  0  0  0  0  0  0  0  0  0  0  0
    4.4670    0.0410   -1.7780 C   0  0  2  0  0  0  0  0  0  0  0  0
    5.5470   -0.8410   -1.9220 O   0  0  0  0  0  0  0  0  0  0  0  0
    4.9900    1.3080   -1.6710 O   0  0  0  0  0  0  0  0  0  0  0  0
   -3.4930   -1.2210   -0.1950 O   0  0  0  0  0  0  0  0  0  0  0  0
   -3.7010   -1.9210    0.9900 C   0  0  0  0  0  0  0  0  0  0  0  0
   -4.7210   -1.2140    1.6070 O   0  0  0  0  0  0  0  0  0  0  0  0
   -4.2710    0.1210    1.4960 C   0  0  2  0  0  0  0  0  0  0  0  0
   -5.2960    1.0290    1.6210 O   0  0  0  0  0  0  0  0  0  0  0  0
  2  1  1  6
  2  3  1  0
  2 17  1  0
  2 20  1  0
  3  4  2  0
  3  5  1  0
  5  6  1  0
  6  7  1  0
  7  8  2  0
  7  9  1  0
 10  9  1  1
 10 11  1  0
 10 14  1  0
 11 12  1  0
 11 13  2  0
 14 15  1  1
 14 16  1  0
 17 18  1  0
 18 19  1  0
 19 20  1  0
 20 21  1  6
M  END
