
     RDKit          3D

 22 22  0  0  0  0  0  0  0  0999 V2000
    7.2790    0.0580    1.7320 C   0  0  0  0  0  0  0  0  0  0  0  0
    6.3740   -0.3170    0.7080 O   0  0  0  0  0  0  0  0  0  0  0  0
    5.0450    0.1210    0.6870 C   0  0  0  0  0  0  0  0  0  0  0  0
    4.6290    0.8720    1.6010 O   0  0  0  0  0  0  0  0  0  0  0  0
    4.1440   -0.2570   -0.3400 N   0  0  0  0  0  0  0  0  0  0  0  0
    2.7910    0.1770   -0.3790 C   0  0  0  0  0  0  0  0  0  0  0  0
    2.3410    0.9210    0.5070 O   0  0  0  0  0  0  0  0  0  0  0  0
    1.9410   -0.2700   -1.4840 C   0  0  0  0  0  0  0  0  0  0  0  0
    0.6220    0.2360   -1.3970 O   0  0  0  0  0  0  0  0  0  0  0  0
   -0.2330    0.0050   -0.3540 C   0  0  0  0  0  0  0  0  0  0  0  0
    0.1520   -0.7050    0.6100 O   0  0  0  0  0  0  0  0  0  0  0  0
   -1.6190    0.5760   -0.3300 C   0  0  1  0  0  0  0  0  0  0  0  0
   -2.3410    0.0520   -1.5220 C   0  0  0  0  0  0  0  0  0  0  0  0
   -3.7130    0.1110   -1.4420 O   0  0  0  0  0  0  0  0  0  0  0  0
   -4.1740    0.9370   -0.4270 C   0  0  0  0  0  0  0  0  0  0  0  0
   -3.7980    0.2870    0.8850 C   0  0  1  0  0  0  0  0  0  0  0  0
   -4.3930   -1.3990    0.9510 S   0  0  1  0  0  0  0  0  0  0  0  0
   -3.7860   -2.2230   -0.1410 O   0  0  0  0  0  0  0  0  0  0  0  0
   -4.1230   -1.9810    2.3070 O   0  0  0  0  0  0  0  0  0  0  0  0
   -6.0520   -1.4070    0.7270 O   0  0  0  0  0  0  0  0  0  0  0  0
   -2.2860    0.3190    0.9760 C   0  0  2  0  0  0  0  0  0  0  0  0
   -1.9740    1.3730    1.8620 O   0  0  0  0  0  0  0  0  0  0  0  0
  1  2  1  0
  2  3  1  0
  3  4  2  0
  3  5  1  0
  5  6  1  0
  6  7  2  0
  6  8  1  0
  8  9  1  0
  9 10  1  0
 10 11  2  0
 12 10  1  1
 12 13  1  0
 12 21  1  0
 13 14  1  0
 14 15  1  0
 16 15  1  6
 16 17  1  0
 16 21  1  0
 17 18  2  0
 17 19  2  0
 17 20  1  6
 21 22  1  1
M  END
