
     RDKit          3D

 22 22  0  0  0  0  0  0  0  0999 V2000
   -3.6940    1.6840   -0.7760 C   0  0  0  0  0  0  0  0  0  0  0  0
   -3.0830    0.3110   -0.4750 C   0  0  1  0  0  0  0  0  0  0  0  0
   -2.0050    0.4010    0.3930 O   0  0  0  0  0  0  0  0  0  0  0  0
   -0.7540   -0.0390    0.0000 C   0  0  0  0  0  0  0  0  0  0  0  0
   -0.6500   -0.5140   -1.1590 O   0  0  0  0  0  0  0  0  0  0  0  0
    0.4400    0.0300    0.8830 C   0  0  0  0  0  0  0  0  0  0  0  0
    1.6330   -0.5250    0.1590 C   0  0  1  0  0  0  0  0  0  0  0  0
    1.8620    0.2180   -0.9870 O   0  0  0  0  0  0  0  0  0  0  0  0
    2.5550    1.3810   -0.7460 C   0  0  0  0  0  0  0  0  0  0  0  0
    3.6920    1.2260    0.0270 O   0  0  0  0  0  0  0  0  0  0  0  0
    3.8950   -0.1010    0.3010 C   0  0  2  0  0  0  0  0  0  0  0  0
    5.0570   -0.3290    1.2510 C   0  0  0  0  0  0  0  0  0  0  0  0
    4.2010   -0.8280   -0.9420 C   0  0  0  0  0  0  0  0  0  0  0  0
    4.2430   -0.1150   -2.1650 N   0  0  0  0  0  0  0  0  0  0  0  0
    4.4300   -2.0860   -0.9500 O   0  0  0  0  0  0  0  0  0  0  0  0
    2.7610   -0.5960    0.9400 O   0  0  0  0  0  0  0  0  0  0  0  0
   -4.1960   -0.5250    0.0440 C   0  0  0  0  0  0  0  0  0  0  0  0
   -4.1790   -1.0970    1.1460 O   0  0  0  0  0  0  0  0  0  0  0  0
   -5.3160   -0.6690   -0.7610 O   0  0  0  0  0  0  0  0  0  0  0  0
   -6.6840   -1.6080   -0.2940 S   0  0  0  0  0  0  0  0  0  0  0  0
   -6.1900   -2.7390    0.6100 O   0  0  0  0  0  0  0  0  0  0  0  0
   -7.6580   -0.5960    0.6980 O   0  0  0  0  0  0  0  0  0  0  0  0
  2  1  1  1
  2  3  1  0
  2 17  1  0
  3  4  1  0
  4  5  2  0
  4  6  1  0
  7  6  1  1
  7  8  1  0
  7 16  1  0
  8  9  1  0
  9 10  1  0
 10 11  1  0
 11 12  1  1
 11 13  1  0
 11 16  1  0
 13 14  1  0
 13 15  2  0
 17 18  2  0
 17 19  1  0
 19 20  1  0
 20 21  2  0
 20 22  1  1
M  END
