
     RDKit          3D

 13 14  0  0  0  0  0  0  0  0999 V2000
    1.8950   -1.7760    0.5480 O   0  0  0  0  0  0  0  0  0  0  0  0
    2.0170   -0.8900   -0.3260 C   0  0  0  0  0  0  0  0  0  0  0  0
    3.1350   -0.9910   -1.1560 O   0  0  0  0  0  0  0  0  0  0  0  0
    1.0340    0.2380   -0.5050 C   0  0  2  0  0  0  0  0  0  0  0  0
    1.8270    1.4940   -0.4380 C   0  0  0  0  0  0  0  0  0  0  0  0
    0.8150    2.6250    0.5530 S   0  0  0  0  0  0  0  0  0  0  0  0
   -0.5720    1.4250    0.7440 C   0  0  1  0  0  0  0  0  0  0  0  0
   -1.6520    1.8790   -0.1360 C   0  0  0  0  0  0  0  0  0  0  0  0
   -2.4230    0.3200   -0.6440 S   0  0  0  0  0  0  0  0  0  0  0  0
   -1.0400   -0.7150   -0.0870 C   0  0  2  0  0  0  0  0  0  0  0  0
   -1.5190   -1.6760    0.9700 C   0  0  0  0  0  0  0  0  0  0  0  0
   -2.8150   -2.7470    0.3260 S   0  0  0  0  0  0  0  0  0  0  0  0
   -0.0250    0.1900    0.4000 N   0  0  1  0  0  0  0  0  0  0  0  0
  1  2  2  0
  2  3  1  0
  4  2  1  1
  4  5  1  0
 13  4  1  6
  5  6  1  0
  6  7  1  0
  7  8  1  6
  7 13  1  0
  8  9  1  0
  9 10  1  0
 10 11  1  1
 10 13  1  0
 11 12  1  0
M  CHG  1  13   1
M  END
