
     RDKit          3D

 20 21  0  0  0  0  0  0  0  0999 V2000
   -2.5870    0.5120   -3.5430 N   0  0  0  0  0  0  0  0  0  0  0  0
   -2.5040    0.3520   -2.2370 C   0  0  0  0  0  0  0  0  0  0  0  0
   -1.1710    0.3600   -1.6830 N   0  0  0  0  0  0  0  0  0  0  0  0
   -0.7410    0.4640   -0.4730 C   0  0  0  0  0  0  0  0  0  0  0  0
    0.6770    0.4280   -0.2200 C   0  0  0  0  0  0  0  0  0  0  0  0
    1.5390    0.2610   -1.2050 C   0  0  0  0  0  0  0  0  0  0  0  0
    2.7940    0.2610   -0.6910 O   0  0  0  0  0  0  0  0  0  0  0  0
    2.7050    0.4170    0.7030 C   0  0  2  0  0  0  0  0  0  0  0  0
    3.1900   -0.9490    1.2880 C   0  0  0  0  0  0  0  0  0  0  0  0
    4.1900   -1.2900    0.3940 O   0  0  0  0  0  0  0  0  0  0  0  0
    5.8040   -1.1630    1.0490 P   0  0  0  0  0  0  0  0  0  0  0  0
    6.7340   -0.3910   -0.3170 O   0  0  0  0  0  0  0  0  0  0  0  0
    5.7510    0.1100    2.2930 O   0  0  0  0  0  0  0  0  0  0  0  0
    1.3530    0.5500    0.9640 O   0  0  0  0  0  0  0  0  0  0  0  0
   -1.6280    0.6110    0.6000 O   0  0  0  0  0  0  0  0  0  0  0  0
   -2.7640   -0.2020    0.8560 C   0  0  0  0  0  0  0  0  0  0  0  0
   -3.8570   -0.1070   -0.1100 C   0  0  1  0  0  0  0  0  0  0  0  0
   -4.9930    0.7920    0.3740 C   0  0  0  0  0  0  0  0  0  0  0  0
   -6.1690    0.4870   -0.3280 O   0  0  0  0  0  0  0  0  0  0  0  0
   -3.5980    0.1850   -1.4480 O   0  0  0  0  0  0  0  0  0  0  0  0
  1  2  2  0
  2  3  1  0
  2 20  1  0
  3  4  2  0
  4  5  1  0
  4 15  1  0
  5  6  2  0
  5 14  1  0
  6  7  1  0
  7  8  1  0
  8  9  1  1
  8 14  1  0
  9 10  1  0
 10 11  1  0
 11 12  1  0
 11 13  1  0
 15 16  1  0
 16 17  1  0
 17 18  1  1
 17 20  1  0
 18 19  1  0
M  END
