
     RDKit          3D

 21 22  0  0  0  0  0  0  0  0999 V2000
    5.1150    0.5080    2.3340 O   0  0  0  0  0  0  0  0  0  0  0  0
    5.2870    0.5080    0.7170 P   0  0  0  0  0  0  0  0  0  0  0  0
    3.6670    0.9630    0.0260 O   0  0  0  0  0  0  0  0  0  0  0  0
    3.6030    0.2730   -1.1950 C   0  0  0  0  0  0  0  0  0  0  0  0
    2.4840   -0.6590   -1.1350 C   0  0  0  0  0  0  0  0  0  0  0  0
    1.1290   -0.3630   -0.9580 N   0  0  0  0  0  0  0  0  0  0  0  0
    0.3610    0.0640   -2.0880 C   0  0  0  0  0  0  0  0  0  0  0  0
    0.9650    0.5430   -3.0590 O   0  0  0  0  0  0  0  0  0  0  0  0
   -1.0210   -0.0450   -2.0960 O   0  0  0  0  0  0  0  0  0  0  0  0
   -1.6180   -0.6470   -0.9700 C   0  0  0  0  0  0  0  0  0  0  0  0
   -2.6260   -1.3820   -1.1130 O   0  0  0  0  0  0  0  0  0  0  0  0
   -1.0050   -0.3840    0.3620 C   0  0  2  0  0  0  0  0  0  0  0  0
   -1.6910   -1.1480    1.4650 C   0  0  0  0  0  0  0  0  0  0  0  0
   -2.2030   -0.1530    2.3180 O   0  0  0  0  0  0  0  0  0  0  0  0
   -2.4690    0.8760    1.4460 C   0  0  2  0  0  0  0  0  0  0  0  0
   -3.6040    0.5400    0.5710 C   0  0  0  0  0  0  0  0  0  0  0  0
   -3.7980    1.0700   -0.5840 O   0  0  0  0  0  0  0  0  0  0  0  0
   -4.5710   -0.4130    0.9470 O   0  0  0  0  0  0  0  0  0  0  0  0
   -1.2220    0.9760    0.6650 N   0  0  0  0  0  0  0  0  0  0  0  0
    0.4330   -0.8360    0.1990 C   0  0  0  0  0  0  0  0  0  0  0  0
    0.8830   -1.5760    1.0890 O   0  0  0  0  0  0  0  0  0  0  0  0
  1  2  2  0
  2  3  1  0
  3  4  1  0
  4  5  1  0
  5  6  1  0
  6  7  1  0
  6 20  1  0
  7  8  2  0
  7  9  1  0
  9 10  1  0
 10 11  2  0
 10 12  1  0
 12 13  1  1
 12 19  1  0
 12 20  1  0
 13 14  1  0
 14 15  1  0
 15 16  1  6
 15 19  1  0
 16 17  2  0
 16 18  1  0
 20 21  2  0
M  END
