
     RDKit          3D

 27 29  0  0  0  0  0  0  0  0999 V2000
   -7.4480    1.8150   -1.2160 N   0  0  0  0  0  0  0  0  0  0  0  0
   -6.4730    0.7790   -1.1580 C   0  0  0  0  0  0  0  0  0  0  0  0
   -6.8050   -0.4890   -1.4650 N   0  0  0  0  0  0  0  0  0  0  0  0
   -5.8910   -1.5000   -1.4180 C   0  0  0  0  0  0  0  0  0  0  0  0
   -4.6200   -1.2490   -1.0590 N   0  0  0  0  0  0  0  0  0  0  0  0
   -4.2160   -0.0130   -0.7390 C   0  0  0  0  0  0  0  0  0  0  0  0
   -5.1620    1.0070   -0.7930 C   0  0  0  0  0  0  0  0  0  0  0  0
   -4.5110    2.1110   -0.4360 N   0  0  0  0  0  0  0  0  0  0  0  0
   -3.2280    1.7960   -0.1740 C   0  0  0  0  0  0  0  0  0  0  0  0
   -3.0350    0.4790   -0.3600 N   0  0  0  0  0  0  0  0  0  0  0  0
   -1.8080   -0.2280   -0.1810 C   0  0  2  0  0  0  0  0  0  0  0  0
   -1.0370    0.3410    0.8290 O   0  0  0  0  0  0  0  0  0  0  0  0
    0.1730   -0.3200    0.7190 C   0  0  2  0  0  0  0  0  0  0  0  0
    1.2590    0.5590    1.2900 C   0  0  0  0  0  0  0  0  0  0  0  0
    2.4840   -0.0430    1.2090 O   0  0  0  0  0  0  0  0  0  0  0  0
    3.6820    0.8780    1.8210 P   0  0  0  0  0  0  0  0  0  0  0  0
    3.5550    2.5080    1.8310 O   0  0  0  0  0  0  0  0  0  0  0  0
    4.9460    0.1450    2.6610 O   0  0  0  0  0  0  0  0  0  0  0  0
    4.4970    0.7520    0.5560 O   0  0  0  0  0  0  0  0  0  0  0  0
    5.5030   -0.4060    0.0920 P   0  0  0  0  0  0  0  0  0  0  0  0
    7.1100   -0.4110    0.4530 O   0  0  0  0  0  0  0  0  0  0  0  0
    5.0860   -1.4030    1.1510 O   0  0  0  0  0  0  0  0  0  0  0  0
    5.0190   -1.5320   -1.1120 O   0  0  0  0  0  0  0  0  0  0  0  0
    0.4250   -0.5650   -0.7480 C   0  0  1  0  0  0  0  0  0  0  0  0
    0.4860   -1.9540   -0.9780 O   0  0  0  0  0  0  0  0  0  0  0  0
   -0.8830   -0.0900   -1.3710 C   0  0  1  0  0  0  0  0  0  0  0  0
   -1.2610   -0.9070   -2.4260 O   0  0  0  0  0  0  0  0  0  0  0  0
  1  2  1  0
  2  3  2  0
  2  7  1  0
  3  4  1  0
  4  5  2  0
  5  6  1  0
  6  7  2  0
  6 10  1  0
  7  8  1  0
  8  9  2  0
  9 10  1  0
 11 10  1  6
 11 12  1  0
 11 26  1  0
 12 13  1  0
 13 14  1  6
 13 24  1  0
 14 15  1  0
 15 16  1  0
 16 17  1  0
 16 18  1  0
 16 19  1  0
 19 20  1  0
 20 21  1  0
 20 22  1  0
 20 23  1  0
 24 25  1  1
 24 26  1  0
 26 27  1  6
M  END
