
     RDKit          3D

 21 21  0  0  0  0  0  0  0  0999 V2000
    1.0390   -1.5380    0.2640 O   0  0  0  0  0  0  0  0  0  0  0  0
    1.0530   -0.2890    0.0800 C   0  0  0  0  0  0  0  0  0  0  0  0
    2.2720    0.4260   -0.1500 N   0  0  0  0  0  0  0  0  0  0  0  0
    3.4880   -0.3760   -0.1570 C   0  0  0  0  0  0  0  0  0  0  0  0
    4.7090    0.4730   -0.4070 C   0  0  0  0  0  0  0  0  0  0  0  0
    5.8120   -0.3890   -0.3940 O   0  0  0  0  0  0  0  0  0  0  0  0
    7.2970    0.4360   -0.6670 P   0  0  0  0  0  0  0  0  0  0  0  0
    7.6650    1.5970    0.5450 O   0  0  0  0  0  0  0  0  0  0  0  0
    7.3240    1.0980   -2.2560 O   0  0  0  0  0  0  0  0  0  0  0  0
   -0.2070    0.3730    0.1120 N   0  0  0  0  0  0  0  0  0  0  0  0
   -1.4580   -0.3460    0.3460 C   0  0  2  0  0  0  0  0  0  0  0  0
   -2.3570   -0.2550   -0.8720 C   0  0  0  0  0  0  0  0  0  0  0  0
   -3.2020    0.8240   -0.8380 O   0  0  0  0  0  0  0  0  0  0  0  0
   -4.4370    0.6200   -0.3270 C   0  0  0  0  0  0  0  0  0  0  0  0
   -4.5630   -0.4670    0.6940 C   0  0  1  0  0  0  0  0  0  0  0  0
   -5.7500   -0.1910    1.4180 O   0  0  0  0  0  0  0  0  0  0  0  0
   -4.7670   -1.7280    0.1310 O   0  0  0  0  0  0  0  0  0  0  0  0
   -5.8600   -1.7420   -0.5770 O   0  0  0  0  0  0  0  0  0  0  0  0
   -3.4720   -0.5090    1.6720 C   0  0  0  0  0  0  0  0  0  0  0  0
   -3.6790   -1.1470    2.6810 O   0  0  0  0  0  0  0  0  0  0  0  0
   -2.1430    0.1270    1.5940 C   0  0  0  0  0  0  0  0  0  0  0  0
  1  2  2  0
  2  3  1  0
  2 10  1  0
  3  4  1  0
  4  5  1  0
  5  6  1  0
  6  7  1  0
  7  8  1  0
  7  9  1  0
 11 10  1  6
 11 12  1  0
 11 21  1  0
 12 13  1  0
 13 14  1  0
 14 15  1  0
 15 16  1  1
 15 17  1  0
 15 19  1  0
 17 18  1  0
 19 20  2  0
 19 21  1  0
M  END
