
     RDKit          3D

 20 21  0  0  0  0  0  0  0  0999 V2000
   -3.3460    0.8650    1.2620 N   0  0  0  0  0  0  0  0  0  0  0  0
   -2.4690    0.5570    0.0730 C   0  0  2  0  0  0  0  0  0  0  0  0
   -1.8360   -0.7260    0.2620 C   0  0  0  0  0  0  0  0  0  0  0  0
   -0.6420   -1.2040    0.2560 C   0  0  0  0  0  0  0  0  0  0  0  0
    0.5970   -0.4840    0.0240 C   0  0  0  0  0  0  0  0  0  0  0  0
    0.6700    0.7070   -0.2020 O   0  0  0  0  0  0  0  0  0  0  0  0
    1.8220   -1.2100    0.0590 N   0  0  0  0  0  0  0  0  0  0  0  0
    3.0910   -0.4980   -0.1740 C   0  0  0  0  0  0  0  0  0  0  0  0
    4.1590   -1.3500   -0.1030 O   0  0  0  0  0  0  0  0  0  0  0  0
    5.6010   -0.4330   -0.3880 P   0  0  0  0  0  0  0  0  0  0  0  0
    5.3930    0.7240   -1.6560 O   0  0  0  0  0  0  0  0  0  0  0  0
    5.9710    0.4500    1.0640 O   0  0  0  0  0  0  0  0  0  0  0  0
   -0.6560   -2.6870    0.5290 C   0  0  0  0  0  0  0  0  0  0  0  0
   -1.9640   -3.0060    0.7220 O   0  0  0  0  0  0  0  0  0  0  0  0
   -2.7330   -1.8940    0.5670 C   0  0  0  0  0  0  0  0  0  0  0  0
   -3.9730   -1.8390    0.6600 O   0  0  0  0  0  0  0  0  0  0  0  0
   -1.7980    1.7940   -0.2490 C   0  0  0  0  0  0  0  0  0  0  0  0
   -2.9850    2.6290   -0.4310 O   0  0  0  0  0  0  0  0  0  0  0  0
   -3.8530    1.8050   -1.1040 C   0  0  0  0  0  0  0  0  0  0  0  0
   -3.4390    0.5000   -0.9690 O   0  0  0  0  0  0  0  0  0  0  0  0
  2  1  1  1
  2  3  1  0
  2 17  1  0
  2 20  1  0
  3  4  2  0
  3 15  1  0
  4  5  1  0
  4 13  1  0
  5  6  2  0
  5  7  1  0
  7  8  1  0
  8  9  1  0
  9 10  1  0
 10 11  1  0
 10 12  1  0
 13 14  1  0
 14 15  1  0
 15 16  2  0
 17 18  1  0
 18 19  1  0
 19 20  1  0
M  END
