
     RDKit          3D

 20 21  0  0  0  0  0  0  0  0999 V2000
   -3.5780   -3.1370    1.7090 O   0  0  0  0  0  0  0  0  0  0  0  0
   -3.7270   -2.1790    0.9100 C   0  0  0  0  0  0  0  0  0  0  0  0
   -3.5740   -0.7500    1.2770 C   0  0  0  0  0  0  0  0  0  0  0  0
   -3.1740   -0.1430   -0.0320 C   0  0  2  0  0  0  0  0  0  0  0  0
   -3.9890   -0.9370   -1.0170 C   0  0  0  0  0  0  0  0  0  0  0  0
   -4.0520   -2.2220   -0.4310 O   0  0  0  0  0  0  0  0  0  0  0  0
   -1.8210   -0.1820   -0.2860 O   0  0  0  0  0  0  0  0  0  0  0  0
   -1.3110    0.8460    0.5030 C   0  0  1  0  0  0  0  0  0  0  0  0
   -0.0190    1.3570   -0.0160 C   0  0  0  0  0  0  0  0  0  0  0  0
    0.1000    2.5540   -0.4300 O   0  0  0  0  0  0  0  0  0  0  0  0
    1.1530    0.5610   -0.0840 N   0  0  0  0  0  0  0  0  0  0  0  0
    2.4180    1.0430   -0.5860 C   0  0  0  0  0  0  0  0  0  0  0  0
    3.4370   -0.0690   -0.5120 C   0  0  0  0  0  0  0  0  0  0  0  0
    4.6600    0.4360   -1.0090 O   0  0  0  0  0  0  0  0  0  0  0  0
    5.8360   -0.8260   -0.9300 P   0  0  0  0  0  0  0  0  0  0  0  0
    5.2650   -2.1310    0.0910 O   0  0  0  0  0  0  0  0  0  0  0  0
    7.3630   -0.2510   -0.3900 O   0  0  0  0  0  0  0  0  0  0  0  0
   -2.2850    1.9270    0.4260 N   0  0  0  0  0  0  0  0  0  0  0  0
   -3.4830    1.2940   -0.0390 C   0  0  0  0  0  0  0  0  0  0  0  0
   -4.5190    1.8940   -0.3600 O   0  0  0  0  0  0  0  0  0  0  0  0
  1  2  2  0
  2  3  1  0
  2  6  1  0
  4  3  1  1
  4  5  1  0
  4  7  1  0
  4 19  1  0
  5  6  1  0
  7  8  1  0
  8  9  1  6
  8 18  1  0
  9 10  2  0
  9 11  1  0
 11 12  1  0
 12 13  1  0
 13 14  1  0
 14 15  1  0
 15 16  1  0
 15 17  1  0
 18 19  1  0
 19 20  2  0
M  END
