
     RDKit          3D

 21 22  0  0  0  0  0  0  0  0999 V2000
    0.2710   -2.1570    1.8770 O   0  0  0  0  0  0  0  0  0  0  0  0
    0.2220   -1.0580    1.3440 C   0  0  0  0  0  0  0  0  0  0  0  0
    1.4250   -0.3350    1.0790 O   0  0  0  0  0  0  0  0  0  0  0  0
    2.7130   -0.5250    1.2530 C   0  0  0  0  0  0  0  0  0  0  0  0
    3.5830   -1.0480    0.1230 C   0  0  0  0  0  0  0  0  0  0  0  0
    4.9100   -1.0440    0.6990 O   0  0  0  0  0  0  0  0  0  0  0  0
    5.8120    0.1320   -0.2100 P   0  0  0  0  0  0  0  0  0  0  0  0
    6.7560   -0.4630   -1.4650 O   0  0  0  0  0  0  0  0  0  0  0  0
    4.6760    1.3740   -0.7980 O   0  0  0  0  0  0  0  0  0  0  0  0
   -0.9600   -0.3680    0.9290 N   0  0  0  0  0  0  0  0  0  0  0  0
   -2.0870   -0.5180    1.8120 C   0  0  0  0  0  0  0  0  0  0  0  0
   -2.9040    0.7980    1.4820 C   0  0  0  0  0  0  0  0  0  0  0  0
   -3.4420    0.4950    0.1210 C   0  0  1  0  0  0  0  0  0  0  0  0
   -4.5640    1.1900   -0.2820 O   0  0  0  0  0  0  0  0  0  0  0  0
   -4.9090    0.9400   -1.4940 O   0  0  0  0  0  0  0  0  0  0  0  0
   -4.2790   -0.0910   -2.0850 N   0  0  0  0  0  0  0  0  0  0  0  0
   -2.8660   -0.1640   -2.0200 C   0  0  0  0  0  0  0  0  0  0  0  0
   -2.1400   -0.7970   -2.7840 O   0  0  0  0  0  0  0  0  0  0  0  0
   -2.3030    0.6530   -0.8660 C   0  0  1  0  0  0  0  0  0  0  0  0
   -2.2600    1.9830   -1.3730 O   0  0  0  0  0  0  0  0  0  0  0  0
   -1.0050    0.2580   -0.3510 C   0  0  0  0  0  0  0  0  0  0  0  0
  1  2  2  0
  2  3  1  0
  2 10  1  0
  3  4  1  0
  4  5  1  0
  5  6  1  0
  6  7  1  0
  7  8  1  0
  7  9  1  0
 10 11  1  0
 10 21  1  0
 11 12  1  0
 13 12  1  1
 13 14  1  0
 13 19  1  0
 14 15  1  0
 15 16  1  0
 16 17  1  0
 17 18  2  0
 17 19  1  0
 19 20  1  6
 19 21  1  0
M  END
