
     RDKit          3D

 20 20  0  0  0  0  0  0  0  0999 V2000
    0.6290    1.5250    0.5630 N   0  0  0  0  0  0  0  0  0  0  0  0
    1.8660    0.8540    0.1280 C   0  0  2  0  0  0  0  0  0  0  0  0
    1.9820    1.0920   -1.3470 C   0  0  0  0  0  0  0  0  0  0  0  0
    3.3330    1.4450   -1.5780 O   0  0  0  0  0  0  0  0  0  0  0  0
    4.2840    0.1610   -0.9940 P   0  0  0  0  0  0  0  0  0  0  0  0
    5.4950    0.5730    0.1070 O   0  0  0  0  0  0  0  0  0  0  0  0
    3.6120   -1.3440   -0.9170 O   0  0  0  0  0  0  0  0  0  0  0  0
    2.3810   -1.5460   -0.4290 C   0  0  0  0  0  0  0  0  0  0  0  0
    1.8370   -0.5620    0.5410 C   0  0  1  0  0  0  0  0  0  0  0  0
    2.5650   -0.7180    1.7450 O   0  0  0  0  0  0  0  0  0  0  0  0
    0.4300   -0.9450    0.8510 C   0  0  0  0  0  0  0  0  0  0  0  0
    0.0630   -1.3240    2.0040 O   0  0  0  0  0  0  0  0  0  0  0  0
   -0.5940   -0.9070   -0.1400 N   0  0  0  0  0  0  0  0  0  0  0  0
   -1.9640   -1.2780    0.1510 C   0  0  0  0  0  0  0  0  0  0  0  0
   -2.8460   -1.1530   -1.0510 C   0  0  0  0  0  0  0  0  0  0  0  0
   -2.8220    0.2960   -1.5130 C   0  0  0  0  0  0  0  0  0  0  0  0
   -3.2910    1.1500   -0.4900 O   0  0  0  0  0  0  0  0  0  0  0  0
   -4.5310    1.1100    0.0840 C   0  0  0  0  0  0  0  0  0  0  0  0
   -5.3480    0.2610   -0.3040 O   0  0  0  0  0  0  0  0  0  0  0  0
   -4.9360    1.9850    1.0960 O   0  0  0  0  0  0  0  0  0  0  0  0
  2  1  1  6
  2  3  1  0
  2  9  1  0
  3  4  1  0
  4  5  1  0
  5  6  1  0
  5  7  1  0
  7  8  1  0
  8  9  1  0
  9 10  1  1
  9 11  1  0
 11 12  2  0
 11 13  1  0
 13 14  1  0
 14 15  1  0
 15 16  1  0
 16 17  1  0
 17 18  1  0
 18 19  2  0
 18 20  1  0
M  END
