
     RDKit          3D

 20 21  0  0  0  0  0  0  0  0999 V2000
   -4.5630    0.7500   -1.2130 O   0  0  0  0  0  0  0  0  0  0  0  0
   -4.3280    0.7100    0.0090 C   0  0  0  0  0  0  0  0  0  0  0  0
   -4.8130   -0.1510    1.0290 N   0  0  0  0  0  0  0  0  0  0  0  0
   -3.9990    0.0210    2.2170 C   0  0  0  0  0  0  0  0  0  0  0  0
   -2.9310    0.9810    1.7920 C   0  0  1  0  0  0  0  0  0  0  0  0
   -1.6240    0.3180    1.5330 C   0  0  0  0  0  0  0  0  0  0  0  0
   -1.0620   -0.2600    2.4990 O   0  0  0  0  0  0  0  0  0  0  0  0
   -0.9920    0.2950    0.3180 O   0  0  0  0  0  0  0  0  0  0  0  0
    0.2430   -0.3300    0.0710 C   0  0  1  0  0  0  0  0  0  0  0  0
    0.1580   -1.4160   -0.9280 C   0  0  0  0  0  0  0  0  0  0  0  0
   -0.8090   -2.0710   -1.2430 O   0  0  0  0  0  0  0  0  0  0  0  0
    1.5230   -1.5560   -1.4890 C   0  0  0  0  0  0  0  0  0  0  0  0
    2.0400   -0.1800   -1.4140 N   0  0  0  0  0  0  0  0  0  0  0  0
    3.1830    0.2400   -2.1990 C   0  0  0  0  0  0  0  0  0  0  0  0
    4.7840   -0.0160   -1.3100 P   0  0  0  0  0  0  0  0  0  0  0  0
    4.4350   -0.7750    0.2070 O   0  0  0  0  0  0  0  0  0  0  0  0
    5.4670    1.5670   -1.0080 O   0  0  0  0  0  0  0  0  0  0  0  0
    1.2540    0.5650   -0.5000 C   0  0  0  0  0  0  0  0  0  0  0  0
    1.3870    1.7760   -0.2190 O   0  0  0  0  0  0  0  0  0  0  0  0
   -3.4610    1.5890    0.6530 O   0  0  0  0  0  0  0  0  0  0  0  0
  1  2  2  0
  2  3  1  0
  2 20  1  0
  3  4  1  0
  4  5  1  0
  5  6  1  6
  5 20  1  0
  6  7  2  0
  6  8  1  0
  9  8  1  6
  9 10  1  0
  9 18  1  0
 10 11  2  0
 10 12  1  0
 12 13  1  0
 13 14  1  0
 13 18  1  0
 14 15  1  0
 15 16  1  0
 15 17  1  0
 18 19  2  0
M  END
