
     RDKit          3D

 20 20  0  0  0  0  0  0  0  0999 V2000
    5.8610    2.6960   -0.5190 C   0  0  0  0  0  0  0  0  0  0  0  0
    4.4530    2.5220   -0.7380 O   0  0  0  0  0  0  0  0  0  0  0  0
    3.7860    1.4050   -0.2620 C   0  0  0  0  0  0  0  0  0  0  0  0
    4.4460    0.5560    0.3630 O   0  0  0  0  0  0  0  0  0  0  0  0
    2.4270    1.2010   -0.4530 O   0  0  0  0  0  0  0  0  0  0  0  0
    1.7660    0.0630    0.0360 C   0  0  0  0  0  0  0  0  0  0  0  0
    2.4630   -0.7650    0.6580 O   0  0  0  0  0  0  0  0  0  0  0  0
    0.3840   -0.0990   -0.1840 N   0  0  0  0  0  0  0  0  0  0  0  0
   -0.4850    0.8130   -0.8910 C   0  0  0  0  0  0  0  0  0  0  0  0
   -1.7880    0.5700   -0.1590 C   0  0  1  0  0  0  0  0  0  0  0  0
   -3.2230    1.2830   -1.0560 P   0  0  0  0  0  0  0  0  0  0  0  0
   -4.6800    0.5600   -0.5110 O   0  0  0  0  0  0  0  0  0  0  0  0
   -3.3000    2.9870   -0.6460 O   0  0  0  0  0  0  0  0  0  0  0  0
   -1.8170   -0.9460   -0.1060 C   0  0  2  0  0  0  0  0  0  0  0  0
   -2.7480   -1.4310    0.9840 C   0  0  0  0  0  0  0  0  0  0  0  0
   -2.7400   -2.8740    0.9860 N   0  0  0  0  0  0  0  0  0  0  0  0
   -0.3880   -1.2460    0.2860 C   0  0  1  0  0  0  0  0  0  0  0  0
    0.1350   -2.5020   -0.3050 C   0  0  0  0  0  0  0  0  0  0  0  0
   -0.3970   -3.5840    0.0200 O   0  0  0  0  0  0  0  0  0  0  0  0
    1.1920   -2.5000   -1.2020 O   0  0  0  0  0  0  0  0  0  0  0  0
  1  2  1  0
  2  3  1  0
  3  4  2  0
  3  5  1  0
  5  6  1  0
  6  7  2  0
  6  8  1  0
  8  9  1  0
  8 17  1  0
  9 10  1  0
 10 11  1  6
 10 14  1  0
 11 12  1  0
 11 13  1  0
 14 15  1  1
 14 17  1  0
 15 16  1  0
 17 18  1  6
 18 19  2  0
 18 20  1  0
M  END
