
     RDKit          3D

 20 21  0  0  0  0  0  0  0  0999 V2000
   -2.1560   -1.8090    1.5750 O   0  0  0  0  0  0  0  0  0  0  0  0
   -2.5550   -0.9590    0.7700 C   0  0  0  0  0  0  0  0  0  0  0  0
   -3.6350   -1.2830   -0.1210 N   0  0  0  0  0  0  0  0  0  0  0  0
   -4.3020   -0.1330   -0.7440 C   0  0  0  0  0  0  0  0  0  0  0  0
   -4.3270    1.0260    0.2250 C   0  0  2  0  0  0  0  0  0  0  0  0
   -4.8430    2.1210   -0.4720 O   0  0  0  0  0  0  0  0  0  0  0  0
   -2.9870    1.4270    0.7610 C   0  0  0  0  0  0  0  0  0  0  0  0
   -1.9950    0.3340    0.6880 N   0  0  0  0  0  0  0  0  0  0  0  0
   -0.6440    0.6290    0.6170 C   0  0  0  0  0  0  0  0  0  0  0  0
   -0.3420    1.8950    0.7440 O   0  0  0  0  0  0  0  0  0  0  0  0
    0.5100   -0.2330    0.4210 C   0  0  0  0  0  0  0  0  0  0  0  0
    0.6420   -1.5140    0.2100 C   0  0  0  0  0  0  0  0  0  0  0  0
    1.9720   -1.8630    0.0900 O   0  0  0  0  0  0  0  0  0  0  0  0
    2.7040   -0.8250    0.7070 C   0  0  1  0  0  0  0  0  0  0  0  0
    4.0050   -0.6870   -0.0590 C   0  0  0  0  0  0  0  0  0  0  0  0
    3.6830   -0.3750   -1.3720 O   0  0  0  0  0  0  0  0  0  0  0  0
    5.1500   -0.2040   -2.3000 P   0  0  0  0  0  0  0  0  0  0  0  0
    5.6380    1.4600   -2.2280 O   0  0  0  0  0  0  0  0  0  0  0  0
    6.4020   -1.1790   -1.6020 O   0  0  0  0  0  0  0  0  0  0  0  0
    1.8380    0.2790    0.4350 O   0  0  0  0  0  0  0  0  0  0  0  0
  1  2  2  0
  2  3  1  0
  2  8  1  0
  3  4  1  0
  4  5  1  0
  5  6  1  6
  5  7  1  0
  7  8  1  0
  8  9  1  0
  9 10  2  0
  9 11  1  0
 11 12  2  0
 11 20  1  0
 12 13  1  0
 13 14  1  0
 14 15  1  6
 14 20  1  0
 15 16  1  0
 16 17  1  0
 17 18  1  0
 17 19  1  0
M  END
