
     RDKit          3D

 31 34  0  0  0  0  0  0  0  0999 V2000
   -0.1930   -0.4580    2.9730 O   0  0  0  0  0  0  0  0  0  0  0  0
    0.3190   -0.1620    1.8760 C   0  0  0  0  0  0  0  0  0  0  0  0
    1.4530    0.6170    1.8520 O   0  0  0  0  0  0  0  0  0  0  0  0
   -0.3020   -0.6560    0.6030 C   0  0  1  0  0  0  0  0  0  0  0  0
    0.6620   -1.5240   -0.1620 C   0  0  0  0  0  0  0  0  0  0  0  0
    1.9180   -0.8320   -0.5360 C   0  0  0  0  0  0  0  0  0  0  0  0
    1.9310   -0.1790   -1.7460 C   0  0  0  0  0  0  0  0  0  0  0  0
    3.0200    0.4980   -2.2160 C   0  0  0  0  0  0  0  0  0  0  0  0
    4.1590    0.5070   -1.4030 C   0  0  0  0  0  0  0  0  0  0  0  0
    4.1090   -0.1580   -0.1990 C   0  0  0  0  0  0  0  0  0  0  0  0
    5.2540   -0.1650    0.6490 N   0  0  0  0  0  0  0  0  0  0  0  0
    6.4610    0.5000    0.2850 C   0  0  0  0  0  0  0  0  0  0  0  0
    6.9890    1.1500   -0.5430 N   0  0  0  0  0  0  0  0  0  0  0  0
    8.1830    1.6450   -0.5980 C   0  0  0  0  0  0  0  0  0  0  0  0
    9.0240    1.4010    0.4700 C   0  0  0  0  0  0  0  0  0  0  0  0
    7.9030    0.4060    1.5130 S   0  0  0  0  0  0  0  0  0  0  0  0
    3.0110   -0.8120    0.2230 N   0  0  0  0  0  0  0  0  0  0  0  0
   -1.5050   -1.4970    0.9440 C   0  0  0  0  0  0  0  0  0  0  0  0
   -2.3040   -1.8190   -0.2700 C   0  0  0  0  0  0  0  0  0  0  0  0
   -2.9200   -0.5160   -0.7860 C   0  0  1  0  0  0  0  0  0  0  0  0
   -3.5670    0.0790    0.2880 O   0  0  0  0  0  0  0  0  0  0  0  0
   -4.8890    0.4390    0.3260 C   0  0  0  0  0  0  0  0  0  0  0  0
   -5.7850    0.2630   -0.7100 C   0  0  0  0  0  0  0  0  0  0  0  0
   -7.1070    0.6640   -0.5690 C   0  0  0  0  0  0  0  0  0  0  0  0
   -7.5580    1.2440    0.5980 C   0  0  0  0  0  0  0  0  0  0  0  0
   -6.6550    1.4170    1.6290 C   0  0  0  0  0  0  0  0  0  0  0  0
   -7.1450    2.1490    3.1520 Cl  0  0  0  0  0  0  0  0  0  0  0  0
   -5.3400    1.0260    1.5090 C   0  0  0  0  0  0  0  0  0  0  0  0
   -4.4750    1.2120    2.5490 F   0  0  0  0  0  0  0  0  0  0  0  0
   -1.7350    0.3150   -1.2420 C   0  0  0  0  0  0  0  0  0  0  0  0
   -0.7500    0.5560   -0.1530 C   0  0  0  0  0  0  0  0  0  0  0  0
  1  2  2  0
  2  3  1  0
  2  4  1  0
  4  5  1  6
  4 18  1  0
  4 31  1  0
  5  6  1  0
  6  7  2  0
  6 17  1  0
  7  8  1  0
  8  9  2  0
  9 10  1  0
 10 11  1  0
 10 17  2  0
 11 12  1  0
 12 13  2  0
 12 16  1  0
 13 14  1  0
 14 15  2  0
 15 16  1  0
 18 19  1  0
 19 20  1  0
 20 21  1  1
 20 30  1  0
 21 22  1  0
 22 23  2  0
 22 28  1  0
 23 24  1  0
 24 25  2  0
 25 26  1  0
 26 27  1  0
 26 28  2  0
 28 29  1  0
 30 31  1  0
M  END
