
     RDKit          3D

 31 33  0  0  0  0  0  0  0  0999 V2000
   -1.4750   -2.5870    1.6290 C   0  0  0  0  0  0  0  0  0  0  0  0
   -1.8960   -1.3310    2.2110 N   0  0  0  0  0  0  0  0  0  0  0  0
   -1.5440   -1.0640    3.5880 C   0  0  0  0  0  0  0  0  0  0  0  0
   -2.6340   -0.3930    1.4430 C   0  0  0  0  0  0  0  0  0  0  0  0
   -3.7450    0.2060    1.6970 N   0  0  0  0  0  0  0  0  0  0  0  0
   -4.1300    1.0990    0.6040 C   0  0  0  0  0  0  0  0  0  0  0  0
   -2.9190    1.2550   -0.1010 N   0  0  0  0  0  0  0  0  0  0  0  0
   -2.8400    2.0390   -1.2400 C   0  0  0  0  0  0  0  0  0  0  0  0
   -3.6300    1.4240   -2.3760 C   0  0  1  0  0  0  0  0  0  0  0  0
   -3.5610    2.2070   -3.5170 F   0  0  0  0  0  0  0  0  0  0  0  0
   -3.3290    0.1220   -2.6310 F   0  0  0  0  0  0  0  0  0  0  0  0
   -2.2040    0.0730    0.0810 C   0  0  1  0  0  0  0  0  0  0  0  0
   -0.7620    0.1490   -0.0500 N   0  0  0  0  0  0  0  0  0  0  0  0
    0.0630    0.9810    0.6910 C   0  0  0  0  0  0  0  0  0  0  0  0
   -0.5070    1.8450    1.5880 C   0  0  0  0  0  0  0  0  0  0  0  0
    0.2330    2.7110    2.3520 C   0  0  0  0  0  0  0  0  0  0  0  0
   -0.3720    3.5650    3.2430 F   0  0  0  0  0  0  0  0  0  0  0  0
    1.5780    2.7260    2.2280 C   0  0  0  0  0  0  0  0  0  0  0  0
    2.1990    1.8690    1.3320 C   0  0  0  0  0  0  0  0  0  0  0  0
    1.4410    0.9840    0.5520 C   0  0  0  0  0  0  0  0  0  0  0  0
    2.0890    0.1100   -0.3430 N   0  0  0  0  0  0  0  0  0  0  0  0
    3.4570   -0.0010   -0.6500 C   0  0  0  0  0  0  0  0  0  0  0  0
    4.2810    0.7490   -0.0920 O   0  0  0  0  0  0  0  0  0  0  0  0
    3.9790   -0.9780   -1.6180 C   0  0  0  0  0  0  0  0  0  0  0  0
    5.3280   -0.9710   -1.8180 N   0  0  0  0  0  0  0  0  0  0  0  0
    5.9520   -1.7970   -2.6630 C   0  0  0  0  0  0  0  0  0  0  0  0
    5.1650   -2.6910   -3.3540 C   0  0  0  0  0  0  0  0  0  0  0  0
    5.9250   -3.7960   -4.4740 Cl  0  0  0  0  0  0  0  0  0  0  0  0
    3.8100   -2.7060   -3.1600 C   0  0  0  0  0  0  0  0  0  0  0  0
    3.1000   -3.5200   -3.7900 O   0  0  0  0  0  0  0  0  0  0  0  0
    3.2350   -1.8420   -2.2880 N   0  0  0  0  0  0  0  0  0  0  0  0
  1  2  1  0
  2  3  1  0
  2  4  1  0
  4  5  2  0
  4 12  1  0
  5  6  1  0
  6  7  1  0
  7  8  1  0
  7 12  1  0
  8  9  1  0
  9 10  1  6
  9 11  1  0
 12 13  1  1
 13 14  1  0
 14 15  2  0
 14 20  1  0
 15 16  1  0
 16 17  1  0
 16 18  2  0
 18 19  1  0
 19 20  2  0
 20 21  1  0
 21 22  1  0
 22 23  2  0
 22 24  1  0
 24 25  2  0
 24 31  1  0
 25 26  1  0
 26 27  2  0
 27 28  1  0
 27 29  1  0
 29 30  2  0
 29 31  1  0
M  END
