
     RDKit          3D

 29 29  0  0  0  0  0  0  0  0999 V2000
   -3.1900    0.6890    1.6650 O   0  0  0  0  0  0  0  0  0  0  0  0
   -3.3080    0.2340    0.4390 C   0  0  0  0  0  0  0  0  0  0  0  0
   -2.1940    0.0080   -0.2140 O   0  0  0  0  0  0  0  0  0  0  0  0
   -0.8130    0.1980    0.1450 C   0  0  0  0  0  0  0  0  0  0  0  0
   -0.0840   -0.5390   -0.9790 C   0  0  1  0  0  0  0  0  0  0  0  0
    1.4050   -0.3720   -0.8480 C   0  0  0  0  0  0  0  0  0  0  0  0
    2.1980   -1.1080   -1.5400 O   0  0  0  0  0  0  0  0  0  0  0  0
    1.9990    0.5720    0.0250 N   0  0  0  0  0  0  0  0  0  0  0  0
    3.3720    0.8080    0.0640 C   0  0  0  0  0  0  0  0  0  0  0  0
    4.4660    0.6860   -0.4220 N   0  0  0  0  0  0  0  0  0  0  0  0
    5.6250    0.9110    0.0360 C   0  0  0  0  0  0  0  0  0  0  0  0
    6.9490    0.7720   -0.7600 C   0  0  2  0  0  0  0  0  0  0  0  0
    6.9250   -0.4390   -1.4040 F   0  0  0  0  0  0  0  0  0  0  0  0
    8.0240    0.8830    0.0810 F   0  0  0  0  0  0  0  0  0  0  0  0
    7.0960    1.7890   -1.6970 F   0  0  0  0  0  0  0  0  0  0  0  0
    5.7450    1.4150    1.4190 C   0  0  0  0  0  0  0  0  0  0  0  0
    3.9750    1.4640    1.7650 S   0  0  0  0  0  0  0  0  0  0  0  0
   -0.3690   -2.0430   -0.6950 C   0  0  1  0  0  0  0  0  0  0  0  0
    0.0520   -2.4520    0.5000 F   0  0  0  0  0  0  0  0  0  0  0  0
   -1.6980   -2.2640   -0.8500 F   0  0  0  0  0  0  0  0  0  0  0  0
    0.2580   -2.7160   -1.7110 F   0  0  0  0  0  0  0  0  0  0  0  0
   -4.6570   -0.0210   -0.1360 C   0  0  0  0  0  0  0  0  0  0  0  0
   -5.9790   -0.0150    0.1020 C   0  0  0  0  0  0  0  0  0  0  0  0
   -6.8120    0.3980    1.0670 C   0  0  0  0  0  0  0  0  0  0  0  0
   -6.4670    1.0310    2.1710 F   0  0  0  0  0  0  0  0  0  0  0  0
   -8.1700    0.1590    0.8170 F   0  0  0  0  0  0  0  0  0  0  0  0
   -4.3090   -0.6410   -1.4560 C   0  0  0  0  0  0  0  0  0  0  0  0
   -4.2200   -1.0650   -2.3480 F   0  0  0  0  0  0  0  0  0  0  0  0
   -5.7020   -1.6250   -1.1130 F   0  0  0  0  0  0  0  0  0  0  0  0
  1  2  2  0
  2  3  1  0
  2 22  1  0
  3  4  1  0
  5  4  1  1
  5  6  1  0
  5 18  1  0
  6  7  2  0
  6  8  1  0
  8  9  1  0
  9 10  2  0
  9 17  1  0
 10 11  1  0
 11 12  1  0
 11 16  2  0
 12 13  1  6
 12 14  1  0
 12 15  1  0
 16 17  1  0
 18 19  1  1
 18 20  1  0
 18 21  1  0
 22 23  1  0
 22 27  2  3
 23 24  2  3
 24 25  1  0
 24 26  1  0
 27 28  1  0
 27 29  1  0
M  END
