
     RDKit          3D

 30 30  0  0  0  0  0  0  0  0999 V2000
    0.2040    0.5120    0.2250 O   0  0  0  0  0  0  0  0  0  0  0  0
    0.1850   -0.4980   -0.5220 C   0  0  0  0  0  0  0  0  0  0  0  0
    1.4510   -1.0930   -0.9880 C   0  0  0  0  0  0  0  0  0  0  0  0
    2.5680   -0.3610   -0.4710 N   0  0  0  0  0  0  0  0  0  0  0  0
    3.8760   -0.7600   -0.7940 C   0  0  0  0  0  0  0  0  0  0  0  0
    4.0480   -1.7550   -1.5330 O   0  0  0  0  0  0  0  0  0  0  0  0
    5.0910   -0.0410   -0.2870 C   0  0  1  0  0  0  0  0  0  0  0  0
    6.2150   -0.6600   -0.7700 F   0  0  0  0  0  0  0  0  0  0  0  0
    4.9910    1.2630   -0.7680 F   0  0  0  0  0  0  0  0  0  0  0  0
    4.9980   -0.0850    1.2100 C   0  0  0  0  0  0  0  0  0  0  0  0
    6.0350    0.5010    1.8610 O   0  0  0  0  0  0  0  0  0  0  0  0
    6.2540    1.8220    1.6290 C   0  0  0  0  0  0  0  0  0  0  0  0
    7.3260    2.2870    2.4290 F   0  0  0  0  0  0  0  0  0  0  0  0
   -1.0790   -1.0280   -0.8870 N   0  0  0  0  0  0  0  0  0  0  0  0
   -2.2770   -0.4310   -0.4200 C   0  0  0  0  0  0  0  0  0  0  0  0
   -2.3040    1.0040    0.6650 S   0  0  0  0  0  0  0  0  0  0  0  0
   -4.1230    1.0580    0.7470 C   0  0  0  0  0  0  0  0  0  0  0  0
   -4.8510    2.0750    1.5090 C   0  0  1  0  0  0  0  0  0  0  0  0
   -4.4970    1.9500    2.8450 F   0  0  0  0  0  0  0  0  0  0  0  0
   -4.3610    3.3210    1.1020 F   0  0  0  0  0  0  0  0  0  0  0  0
   -4.5420   -0.0020   -0.0420 C   0  0  0  0  0  0  0  0  0  0  0  0
   -6.0610   -0.1800   -0.0850 C   0  0  2  0  0  0  0  0  0  0  0  0
   -6.5900    0.9510   -0.6410 F   0  0  0  0  0  0  0  0  0  0  0  0
   -6.5020   -0.1220    1.2760 F   0  0  0  0  0  0  0  0  0  0  0  0
   -6.4890   -1.3560   -0.5260 F   0  0  0  0  0  0  0  0  0  0  0  0
   -3.6050   -0.7550   -0.6350 C   0  0  0  0  0  0  0  0  0  0  0  0
   -3.8310   -1.9400   -1.5760 C   0  0  2  0  0  0  0  0  0  0  0  0
   -3.2720   -3.0660   -1.0300 F   0  0  0  0  0  0  0  0  0  0  0  0
   -2.9910   -1.6570   -2.7010 F   0  0  0  0  0  0  0  0  0  0  0  0
   -5.0520   -2.0330   -2.0900 F   0  0  0  0  0  0  0  0  0  0  0  0
  1  2  2  0
  2  3  1  0
  2 14  1  0
  3  4  1  0
  4  5  1  0
  5  6  2  0
  5  7  1  0
  7  8  1  1
  7  9  1  0
  7 10  1  0
 10 11  1  0
 11 12  1  0
 12 13  1  0
 14 15  1  0
 15 16  1  0
 15 26  2  0
 16 17  1  0
 17 18  1  0
 17 21  2  0
 18 19  1  1
 18 20  1  0
 21 22  1  0
 21 26  1  0
 22 23  1  6
 22 24  1  0
 22 25  1  0
 26 27  1  0
 27 28  1  1
 27 29  1  0
 27 30  1  0
M  END
