
     RDKit          3D

 29 29  0  0  0  0  0  0  0  0999 V2000
   -0.0580   -2.1370   -2.6020 N   0  0  0  0  0  0  0  0  0  0  0  0
   -0.4060   -0.9130   -2.0230 C   0  0  0  0  0  0  0  0  0  0  0  0
   -1.4710   -0.3970   -2.5020 O   0  0  0  0  0  0  0  0  0  0  0  0
    0.3460   -0.2120   -0.9310 C   0  0  0  0  0  0  0  0  0  0  0  0
   -0.3990    0.6490   -0.1370 C   0  0  0  0  0  0  0  0  0  0  0  0
   -1.7740    1.0100   -0.0280 C   0  0  0  0  0  0  0  0  0  0  0  0
   -2.0450    1.9040    0.8690 O   0  0  0  0  0  0  0  0  0  0  0  0
   -2.8480    0.5650   -0.7140 O   0  0  0  0  0  0  0  0  0  0  0  0
   -4.1880    0.8940   -0.6250 C   0  0  0  0  0  0  0  0  0  0  0  0
   -4.8760    0.6190    0.6640 C   0  0  2  0  0  0  0  0  0  0  0  0
   -6.2040    1.0250    0.5070 F   0  0  0  0  0  0  0  0  0  0  0  0
   -4.3630    1.3220    1.7050 F   0  0  0  0  0  0  0  0  0  0  0  0
   -4.8640   -0.8710    0.9280 C   0  0  1  0  0  0  0  0  0  0  0  0
   -5.5190   -1.4930   -0.0980 F   0  0  0  0  0  0  0  0  0  0  0  0
   -3.5820   -1.3370    1.0120 F   0  0  0  0  0  0  0  0  0  0  0  0
   -5.5160   -1.0590    2.1420 F   0  0  0  0  0  0  0  0  0  0  0  0
    0.9120    1.3150    0.9530 S   0  0  0  0  0  0  0  0  0  0  0  0
    2.2330    0.4180    0.2640 C   0  0  0  0  0  0  0  0  0  0  0  0
    3.5960    0.5450    0.7540 N   0  0  0  0  0  0  0  0  0  0  0  0
    3.8150    1.4790    1.8670 C   0  0  0  0  0  0  0  0  0  0  0  0
    5.2800    1.4470    2.2000 C   0  0  2  0  0  0  0  0  0  0  0  0
    6.0300    1.8290    1.1120 F   0  0  0  0  0  0  0  0  0  0  0  0
    5.6510    0.1870    2.6250 F   0  0  0  0  0  0  0  0  0  0  0  0
    5.5150    2.3730    3.1980 F   0  0  0  0  0  0  0  0  0  0  0  0
    1.6600   -0.3240   -0.7260 C   0  0  0  0  0  0  0  0  0  0  0  0
    2.5310   -1.2310   -1.5740 C   0  0  2  0  0  0  0  0  0  0  0  0
    3.8300   -1.1370   -1.1930 F   0  0  0  0  0  0  0  0  0  0  0  0
    2.4570   -0.8400   -2.8970 F   0  0  0  0  0  0  0  0  0  0  0  0
    2.1440   -2.5470   -1.4290 F   0  0  0  0  0  0  0  0  0  0  0  0
  1  2  1  0
  2  3  2  0
  2  4  1  0
  4  5  2  0
  4 25  1  0
  5  6  1  0
  5 17  1  0
  6  7  2  0
  6  8  1  0
  8  9  1  0
  9 10  1  0
 10 11  1  6
 10 12  1  0
 10 13  1  0
 13 14  1  6
 13 15  1  0
 13 16  1  0
 17 18  1  0
 18 19  1  0
 18 25  2  0
 19 20  1  0
 20 21  1  0
 21 22  1  6
 21 23  1  0
 21 24  1  0
 25 26  1  0
 26 27  1  1
 26 28  1  0
 26 29  1  0
M  END
