
     RDKit          3D

 29 29  0  0  0  0  0  0  0  0999 V2000
    1.2030   -2.0490   -1.6030 O   0  0  0  0  0  0  0  0  0  0  0  0
    1.7320   -0.9370   -1.7230 C   0  0  0  0  0  0  0  0  0  0  0  0
    2.9150   -0.8250   -2.6810 C   0  0  0  0  0  0  0  0  0  0  0  0
    3.1840   -2.1570   -3.2940 C   0  0  2  0  0  0  0  0  0  0  0  0
    2.0870   -2.6250   -4.0050 F   0  0  0  0  0  0  0  0  0  0  0  0
    3.5000   -3.1270   -2.3670 F   0  0  0  0  0  0  0  0  0  0  0  0
    4.2200   -2.0620   -4.2010 F   0  0  0  0  0  0  0  0  0  0  0  0
    1.2860    0.1900   -1.0220 N   0  0  0  0  0  0  0  0  0  0  0  0
    0.2010    0.2000   -0.1210 C   0  0  0  0  0  0  0  0  0  0  0  0
   -0.6780   -0.8690   -0.0540 C   0  0  0  0  0  0  0  0  0  0  0  0
   -1.7930   -0.8500    0.8010 C   0  0  0  0  0  0  0  0  0  0  0  0
   -2.6690   -1.9710    0.8310 N   0  0  0  0  0  0  0  0  0  0  0  0
   -2.4550   -3.1510    0.0210 C   0  0  2  0  0  0  0  0  0  0  0  0
   -2.4510   -2.8650   -1.3340 F   0  0  0  0  0  0  0  0  0  0  0  0
   -3.3850   -4.1100    0.3400 F   0  0  0  0  0  0  0  0  0  0  0  0
   -1.2120   -3.7390    0.2940 F   0  0  0  0  0  0  0  0  0  0  0  0
   -2.0570    0.2230    1.6010 C   0  0  0  0  0  0  0  0  0  0  0  0
   -3.2370    0.2480    2.5160 C   0  0  1  0  0  0  0  0  0  0  0  0
   -4.3920    0.1110    1.8070 F   0  0  0  0  0  0  0  0  0  0  0  0
   -3.1170   -0.8260    3.3730 F   0  0  0  0  0  0  0  0  0  0  0  0
   -3.2310    1.4100    3.2820 F   0  0  0  0  0  0  0  0  0  0  0  0
   -1.1920    1.2780    1.5370 C   0  0  0  0  0  0  0  0  0  0  0  0
   -0.0640    1.2980    0.6950 C   0  0  0  0  0  0  0  0  0  0  0  0
    0.8000    2.4420    0.7280 C   0  0  0  0  0  0  0  0  0  0  0  0
    1.8380    2.6070    0.0880 O   0  0  0  0  0  0  0  0  0  0  0  0
    0.4540    3.5210    1.5780 O   0  0  0  0  0  0  0  0  0  0  0  0
    1.3140    4.6330    1.5970 C   0  0  2  0  0  0  0  0  0  0  0  0
    1.7200    4.7890    2.9300 F   0  0  0  0  0  0  0  0  0  0  0  0
    0.5420    5.7430    1.2950 F   0  0  0  0  0  0  0  0  0  0  0  0
  1  2  2  0
  2  3  1  0
  2  8  1  0
  3  4  1  0
  4  5  1  6
  4  6  1  0
  4  7  1  0
  8  9  1  0
  9 10  2  0
  9 23  1  0
 10 11  1  0
 11 12  1  0
 11 17  2  0
 12 13  1  0
 13 14  1  6
 13 15  1  0
 13 16  1  0
 17 18  1  0
 17 22  1  0
 18 19  1  6
 18 20  1  0
 18 21  1  0
 22 23  2  0
 23 24  1  0
 24 25  2  0
 24 26  1  0
 26 27  1  0
 27 28  1  1
 27 29  1  0
M  END
