
     RDKit          3D

 29 28  0  0  0  0  0  0  0  0999 V2000
   -4.7530   -0.0610   -3.9610 N   0  0  0  0  0  0  0  0  0  0  0  0
   -5.5310   -0.4270   -2.8590 C   0  0  0  0  0  0  0  0  0  0  0  0
   -6.8990   -0.5460   -3.1130 F   0  0  0  0  0  0  0  0  0  0  0  0
   -5.0980   -0.6570   -1.6710 C   0  0  0  0  0  0  0  0  0  0  0  0
   -6.0500   -1.0150   -0.6890 F   0  0  0  0  0  0  0  0  0  0  0  0
   -3.7250   -0.6010   -1.2280 C   0  0  0  0  0  0  0  0  0  0  0  0
   -3.5980   -0.8700    0.0370 O   0  0  0  0  0  0  0  0  0  0  0  0
   -2.5680   -0.2970   -1.9990 C   0  0  0  0  0  0  0  0  0  0  0  0
   -1.3420   -0.2420   -1.6010 C   0  0  0  0  0  0  0  0  0  0  0  0
   -0.8390   -0.4770   -0.2620 C   0  0  0  0  0  0  0  0  0  0  0  0
   -0.1990    0.6930    0.3330 N   0  0  0  0  0  0  0  0  0  0  0  0
    0.2870    0.4920    1.6740 C   0  0  0  0  0  0  0  0  0  0  0  0
    0.1270   -0.6390    2.1860 O   0  0  0  0  0  0  0  0  0  0  0  0
    0.9410    1.5850    2.3960 C   0  0  0  0  0  0  0  0  0  0  0  0
    2.5480    1.9870    1.7460 S   0  0  0  0  0  0  0  0  0  0  0  0
    3.7240    0.7070    2.0630 C   0  0  0  0  0  0  0  0  0  0  0  0
    3.4460   -0.2830    2.8560 C   0  0  0  0  0  0  0  0  0  0  0  0
    4.3000   -1.4330    3.2250 C   0  0  1  0  0  0  0  0  0  0  0  0
    3.5760   -2.3290    4.0390 F   0  0  0  0  0  0  0  0  0  0  0  0
    4.6990   -2.1540    2.1290 F   0  0  0  0  0  0  0  0  0  0  0  0
    5.3440   -0.9540    3.9970 F   0  0  0  0  0  0  0  0  0  0  0  0
    5.0540    0.8590    1.4400 C   0  0  2  0  0  0  0  0  0  0  0  0
    5.0040    0.9830    0.0540 F   0  0  0  0  0  0  0  0  0  0  0  0
    5.9730   -0.0860    1.7490 F   0  0  0  0  0  0  0  0  0  0  0  0
    5.4900    2.1410    1.8690 F   0  0  0  0  0  0  0  0  0  0  0  0
   -0.2810    0.0800   -2.6500 C   0  0  2  0  0  0  0  0  0  0  0  0
    0.6350   -0.9310   -2.6090 F   0  0  0  0  0  0  0  0  0  0  0  0
    0.2370    1.3060   -2.3280 F   0  0  0  0  0  0  0  0  0  0  0  0
   -0.8820    0.1790   -3.9020 F   0  0  0  0  0  0  0  0  0  0  0  0
  1  2  1  0
  2  3  1  0
  2  4  2  3
  4  5  1  0
  4  6  1  0
  6  7  2  0
  6  8  1  0
  8  9  2  3
  9 10  1  0
  9 26  1  0
 10 11  1  0
 11 12  1  0
 12 13  2  0
 12 14  1  0
 14 15  1  0
 15 16  1  0
 16 17  2  3
 16 22  1  0
 17 18  1  0
 18 19  1  1
 18 20  1  0
 18 21  1  0
 22 23  1  6
 22 24  1  0
 22 25  1  0
 26 27  1  6
 26 28  1  0
 26 29  1  0
M  END
