
     RDKit          3D

 15 16  0  0  0  0  0  0  0  0999 V2000
   -3.4670    2.0730   -0.4500 C   0  0  0  0  0  0  0  0  0  0  0  0
   -2.5740    0.8810   -0.7610 C   0  0  1  0  0  0  0  0  0  0  0  0
   -1.1250    1.2280   -0.5610 C   0  0  0  0  0  0  0  0  0  0  0  0
   -0.2800   -0.0100   -0.6610 C   0  0  1  0  0  0  0  0  0  0  0  0
    1.4090    0.4050   -0.2050 S   0  0  0  0  0  0  0  0  0  0  0  0
    2.5100   -1.0260   -0.1880 C   0  0  2  0  0  0  0  0  0  0  0  0
    2.6810   -1.5220    1.2450 C   0  0  0  0  0  0  0  0  0  0  0  0
    2.9470    0.0800    2.0930 S   0  0  0  0  0  0  0  0  0  0  0  0
    4.0310    0.9200    0.4850 S   0  0  2  0  0  0  0  0  0  0  0  0
    5.4300    1.1740    0.9130 O   0  0  0  0  0  0  0  0  0  0  0  0
    3.3380    2.1010   -0.0860 O   0  0  0  0  0  0  0  0  0  0  0  0
    3.8970   -0.5200   -0.5730 C   0  0  0  0  0  0  0  0  0  0  0  0
   -0.8060   -1.0120    0.3400 C   0  0  0  0  0  0  0  0  0  0  0  0
   -2.2140   -1.3740   -0.1200 C   0  0  0  0  0  0  0  0  0  0  0  0
   -3.0260   -0.2010    0.0810 N   0  0  0  0  0  0  0  0  0  0  0  0
  2  1  1  1
  2  3  1  0
  2 15  1  0
  3  4  1  0
  4  5  1  1
  4 13  1  0
  6  5  1  1
  6  7  1  0
  6 12  1  0
  7  8  1  0
  8  9  1  0
  9 10  2  0
  9 11  2  0
  9 12  1  6
 13 14  1  0
 14 15  1  0
M  CHG  1  15   1
M  END
