
     RDKit          3D

 24 26  0  0  0  0  0  0  0  0999 V2000
   -6.2500   -1.8920    1.4700 C   0  0  0  0  0  0  0  0  0  0  0  0
   -5.5000   -0.9690    0.5350 C   0  0  1  0  0  0  0  0  0  0  0  0
   -6.1010    0.4140    0.6490 C   0  0  0  0  0  0  0  0  0  0  0  0
   -4.0210   -0.9870    0.7780 C   0  0  0  0  0  0  0  0  0  0  0  0
   -3.4530   -1.0970   -0.5550 N   0  0  0  0  0  0  0  0  0  0  0  0
   -2.0480   -1.1420   -0.9020 C   0  0  0  0  0  0  0  0  0  0  0  0
   -1.4690    0.2090   -1.1400 C   0  0  0  0  0  0  0  0  0  0  0  0
   -0.0620    0.2370   -1.4950 C   0  0  0  0  0  0  0  0  0  0  0  0
    0.5570   -0.8650   -1.5690 O   0  0  0  0  0  0  0  0  0  0  0  0
    0.6920    1.4020   -1.7700 N   0  0  0  0  0  0  0  0  0  0  0  0
    2.0970    1.3690   -2.1200 C   0  0  0  0  0  0  0  0  0  0  0  0
    2.8540    1.1190   -0.8490 C   0  0  0  0  0  0  0  0  0  0  0  0
    2.3650    0.9590    0.4300 C   0  0  0  0  0  0  0  0  0  0  0  0
    3.4320    0.7560    1.2350 N   0  0  0  0  0  0  0  0  0  0  0  0
    4.5590    0.7850    0.5100 C   0  0  0  0  0  0  0  0  0  0  0  0
    5.9300    0.6010    1.0500 C   0  0  0  0  0  0  0  0  0  0  0  0
    6.2170    0.3890    2.3140 C   0  0  0  0  0  0  0  0  0  0  0  0
    7.6810    0.2610    2.4430 C   0  0  0  0  0  0  0  0  0  0  0  0
    8.1580    0.4350    1.0570 C   0  0  0  0  0  0  0  0  0  0  0  0
    7.1330    0.6240    0.3120 N   0  0  0  0  0  0  0  0  0  0  0  0
    4.2040    1.0060   -0.7590 N   0  0  0  0  0  0  0  0  0  0  0  0
   -4.5140   -1.1520   -1.4930 C   0  0  0  0  0  0  0  0  0  0  0  0
   -4.4430   -0.9680   -2.7570 O   0  0  0  0  0  0  0  0  0  0  0  0
   -5.6670   -1.4470   -0.7730 O   0  0  0  0  0  0  0  0  0  0  0  0
  2  1  1  1
  2  3  1  0
  2  4  1  0
  2 24  1  0
  4  5  1  0
  5  6  1  0
  5 22  1  0
  6  7  1  0
  7  8  1  0
  8  9  2  0
  8 10  1  0
 10 11  1  0
 11 12  1  0
 12 13  2  0
 12 21  1  0
 13 14  1  0
 14 15  1  0
 15 16  1  0
 15 21  2  0
 16 17  2  0
 16 20  1  0
 17 18  1  0
 18 19  1  0
 19 20  2  0
 22 23  2  0
 22 24  1  0
M  END
