
     RDKit          3D

 15 16  0  0  0  0  0  0  0  0999 V2000
   -0.0870    0.9270    1.2300 O   0  0  0  0  0  0  0  0  0  0  0  0
    0.1400    0.1260    0.2870 C   0  0  0  0  0  0  0  0  0  0  0  0
   -0.9400   -0.1340   -0.5370 O   0  0  0  0  0  0  0  0  0  0  0  0
   -2.2070    0.4070   -0.4000 C   0  0  1  0  0  0  0  0  0  0  0  0
   -2.6850    1.2380   -1.5440 C   0  0  0  0  0  0  0  0  0  0  0  0
   -4.4020    1.5530   -0.9440 S   0  0  0  0  0  0  0  0  0  0  0  0
   -4.5800   -0.1130   -0.1880 C   0  0  0  0  0  0  0  0  0  0  0  0
   -3.2030   -0.6590   -0.1130 C   0  0  2  0  0  0  0  0  0  0  0  0
   -2.9430   -1.2180    1.6090 S   0  0  0  0  0  0  0  0  0  0  0  0
    1.4790   -0.4580    0.1260 C   0  0  1  0  0  0  0  0  0  0  0  0
    1.9540   -0.1750   -1.2840 C   0  0  0  0  0  0  0  0  0  0  0  0
    3.6380   -0.8870   -1.4750 S   0  0  0  0  0  0  0  0  0  0  0  0
    4.5200   -0.3360    0.0410 C   0  0  0  0  0  0  0  0  0  0  0  0
    3.5440    0.6650    0.6750 C   0  0  0  0  0  0  0  0  0  0  0  0
    2.3570    0.0160    1.1400 N   0  0  0  0  0  0  0  0  0  0  0  0
  1  2  2  0
  2  3  1  0
 10  2  1  1
  4  3  1  6
  4  5  1  0
  4  8  1  0
  5  6  1  0
  6  7  1  0
  7  8  1  0
  8  9  1  1
 10 11  1  0
 10 15  1  0
 11 12  1  0
 12 13  1  0
 13 14  1  0
 14 15  1  0
M  CHG  1  15   1
M  END
