
     RDKit          3D

 15 16  0  0  0  0  0  0  0  0999 V2000
   -4.9490   -0.6620    1.0810 C   0  0  0  0  0  0  0  0  0  0  0  0
   -4.1440   -0.2650   -0.5070 S   0  0  0  0  0  0  0  0  0  0  0  0
   -2.7000    0.7700   -0.1750 C   0  0  1  0  0  0  0  0  0  0  0  0
   -1.6310    0.0850    0.5670 C   0  0  0  0  0  0  0  0  0  0  0  0
   -0.2680    0.4490    0.1590 C   0  0  1  0  0  0  0  0  0  0  0  0
    0.5070   -0.7540    0.0060 N   0  0  0  0  0  0  0  0  0  0  0  0
    1.9160   -0.6280   -0.0160 C   0  0  2  0  0  0  0  0  0  0  0  0
    2.4210    0.6520    0.5450 C   0  0  0  0  0  0  0  0  0  0  0  0
    3.7970    0.8170    0.5810 O   0  0  0  0  0  0  0  0  0  0  0  0
    4.7530    0.2540   -0.1940 C   0  0  0  0  0  0  0  0  0  0  0  0
    5.9250    0.6730   -0.3440 O   0  0  0  0  0  0  0  0  0  0  0  0
    4.2960   -1.2290   -1.0860 S   0  0  0  0  0  0  0  0  0  0  0  0
    2.4970   -0.9860   -1.3850 C   0  0  0  0  0  0  0  0  0  0  0  0
   -0.2350    1.3700   -1.0030 C   0  0  0  0  0  0  0  0  0  0  0  0
   -1.8840    1.1370   -1.7790 S   0  0  0  0  0  0  0  0  0  0  0  0
  1  2  1  0
  3  2  1  6
  3  4  1  0
  3 15  1  0
  4  5  1  0
  5  6  1  6
  5 14  1  0
  7  6  1  6
  7  8  1  0
  7 13  1  0
  8  9  1  0
  9 10  1  0
 10 11  2  0
 10 12  1  0
 12 13  1  0
 14 15  1  0
M  CHG  1   6   1
M  END
