
     RDKit          3D

 15 16  0  0  0  0  0  0  0  0999 V2000
   -1.5580    2.0330   -1.4170 O   0  0  0  0  0  0  0  0  0  0  0  0
   -1.9150    1.3770   -0.4650 C   0  0  0  0  0  0  0  0  0  0  0  0
   -3.6320    1.3940    0.0130 S   0  0  0  0  0  0  0  0  0  0  0  0
   -4.1020   -0.3550    0.3110 C   0  0  0  0  0  0  0  0  0  0  0  0
   -2.7970   -1.1500    0.1800 C   0  0  0  0  0  0  0  0  0  0  0  0
   -1.7130   -0.5640    1.0590 C   0  0  0  0  0  0  0  0  0  0  0  0
   -0.9690    0.5550    0.3240 C   0  0  1  0  0  0  0  0  0  0  0  0
    0.0430   -0.0770   -0.4760 N   0  0  0  0  0  0  0  0  0  0  0  0
    1.3740    0.2260    0.0420 C   0  0  2  0  0  0  0  0  0  0  0  0
    2.1270    1.1300   -0.8700 C   0  0  0  0  0  0  0  0  0  0  0  0
    3.7850    0.5960   -1.2580 S   0  0  0  0  0  0  0  0  0  0  0  0
    4.7420    0.0720    0.1550 C   0  0  0  0  0  0  0  0  0  0  0  0
    3.6330   -0.8920    1.2520 S   0  0  0  0  0  0  0  0  0  0  0  0
    2.0830   -1.0410    0.3560 C   0  0  0  0  0  0  0  0  0  0  0  0
    1.6430   -2.1270    0.0280 O   0  0  0  0  0  0  0  0  0  0  0  0
  1  2  2  0
  2  3  1  0
  2  7  1  0
  3  4  1  0
  4  5  1  0
  5  6  1  0
  6  7  1  0
  7  8  1  6
  9  8  1  6
  9 10  1  0
  9 14  1  0
 10 11  1  0
 11 12  1  0
 12 13  1  0
 13 14  1  0
 14 15  2  0
M  CHG  1   8   1
M  END
