
     RDKit          3D

 15 16  0  0  0  0  0  0  0  0999 V2000
    1.9770   -0.2680    2.0680 O   0  0  0  0  0  0  0  0  0  0  0  0
    2.5860    0.0940    1.0380 C   0  0  0  0  0  0  0  0  0  0  0  0
    3.7170    0.8820    1.1150 O   0  0  0  0  0  0  0  0  0  0  0  0
    4.6330    0.9970    0.0120 C   0  0  0  0  0  0  0  0  0  0  0  0
    4.7530   -0.6630   -0.7130 S   0  0  0  0  0  0  0  0  0  0  0  0
    3.0730   -1.3440   -0.8230 C   0  0  0  0  0  0  0  0  0  0  0  0
    2.1240   -0.3050   -0.3070 C   0  0  1  0  0  0  0  0  0  0  0  0
    0.7470   -0.7150   -0.3420 N   0  0  0  0  0  0  0  0  0  0  0  0
   -0.0670    0.0020    0.5860 C   0  0  0  0  0  0  0  0  0  0  0  0
   -1.4340    0.3660    0.0290 C   0  0  2  0  0  0  0  0  0  0  0  0
   -2.1370    1.1160    1.1590 C   0  0  0  0  0  0  0  0  0  0  0  0
   -3.7790    1.6490    0.7010 S   0  0  0  0  0  0  0  0  0  0  0  0
   -4.6520    0.4720   -0.3300 C   0  0  0  0  0  0  0  0  0  0  0  0
   -4.1230   -0.9430   -0.1550 C   0  0  0  0  0  0  0  0  0  0  0  0
   -2.3610   -1.0600   -0.5270 S   0  0  0  0  0  0  0  0  0  0  0  0
  1  2  2  0
  2  3  1  0
  2  7  1  0
  3  4  1  0
  4  5  1  0
  5  6  1  0
  6  7  1  0
  7  8  1  1
  8  9  1  0
 10  9  1  1
 10 11  1  0
 10 15  1  0
 11 12  1  0
 12 13  1  0
 13 14  1  0
 14 15  1  0
M  CHG  1   8   1
M  END
