
     RDKit          3D

 15 16  0  0  0  0  0  0  0  0999 V2000
   -3.7950   -0.2650    0.4050 C   0  0  0  0  0  0  0  0  0  0  0  0
   -2.7930    0.2800   -0.5860 C   0  0  2  0  0  0  0  0  0  0  0  0
   -1.7460   -0.6620   -0.8710 N   0  0  0  0  0  0  0  0  0  0  0  0
   -0.8090   -0.8150    0.1800 C   0  0  0  0  0  0  0  0  0  0  0  0
   -0.8040   -1.7740    0.9330 O   0  0  0  0  0  0  0  0  0  0  0  0
    0.2210    0.2740    0.3560 C   0  0  2  0  0  0  0  0  0  0  0  0
    1.0540    0.4710   -0.8780 C   0  0  0  0  0  0  0  0  0  0  0  0
    2.4660    0.5510   -0.3200 C   0  0  0  0  0  0  0  0  0  0  0  0
    2.3710   -0.5580    0.7300 C   0  0  1  0  0  0  0  0  0  0  0  0
    3.8390   -0.5710    1.7500 S   0  0  0  0  0  0  0  0  0  0  0  0
    5.5620   -1.1410    0.6660 S   0  0  0  0  0  0  0  0  0  0  0  0
    1.1490   -0.1090    1.4880 C   0  0  0  0  0  0  0  0  0  0  0  0
   -0.7190    1.7870    0.7060 S   0  0  0  0  0  0  0  0  0  0  0  0
   -2.3060    1.5730   -0.0930 C   0  0  0  0  0  0  0  0  0  0  0  0
   -3.0090    2.5510   -0.2300 O   0  0  0  0  0  0  0  0  0  0  0  0
  2  1  1  1
  2  3  1  0
  2 14  1  0
  3  4  1  0
  4  5  2  0
  4  6  1  0
  6  7  1  6
  6 12  1  0
  6 13  1  0
  7  8  1  0
  8  9  1  0
  9 10  1  1
  9 12  1  0
 10 11  1  0
 13 14  1  0
 14 15  2  0
M  CHG  1   3   1
M  END
