
     RDKit          3D

 28 31  0  0  0  0  0  0  0  0999 V2000
   -5.9860    2.3200    0.6310 C   0  0  0  0  0  0  0  0  0  0  0  0
   -5.1650    2.6780   -0.3250 C   0  0  0  0  0  0  0  0  0  0  0  0
   -4.0100    1.9380   -0.5930 N   0  0  0  0  0  0  0  0  0  0  0  0
   -3.2550    1.3100    0.5020 C   0  0  0  0  0  0  0  0  0  0  0  0
   -1.7930    1.4290    0.1200 C   0  0  0  0  0  0  0  0  0  0  0  0
   -1.5540    0.4070   -0.9970 C   0  0  1  0  0  0  0  0  0  0  0  0
   -1.2480   -0.9010   -0.3620 C   0  0  0  0  0  0  0  0  0  0  0  0
   -2.0860   -1.5730    0.4600 N   0  0  0  0  0  0  0  0  0  0  0  0
   -1.5150   -2.7100    0.8620 C   0  0  0  0  0  0  0  0  0  0  0  0
   -1.9070   -3.7350    1.6750 C   0  0  0  0  0  0  0  0  0  0  0  0
   -1.0620   -4.8270    1.9120 C   0  0  0  0  0  0  0  0  0  0  0  0
    0.1760   -4.8600    1.3160 C   0  0  0  0  0  0  0  0  0  0  0  0
    0.5640   -3.8150    0.4930 C   0  0  0  0  0  0  0  0  0  0  0  0
   -0.2740   -2.7580    0.2720 C   0  0  0  0  0  0  0  0  0  0  0  0
   -0.1230   -1.6300   -0.4830 N   0  0  0  0  0  0  0  0  0  0  0  0
    1.0050   -1.2490   -1.2730 C   0  0  0  0  0  0  0  0  0  0  0  0
    1.9990   -0.4430   -0.5150 C   0  0  0  0  0  0  0  0  0  0  0  0
    1.7610   -0.1900    0.6670 O   0  0  0  0  0  0  0  0  0  0  0  0
    3.1870    0.0300   -1.1120 N   0  0  0  0  0  0  0  0  0  0  0  0
    4.1450    0.8000   -0.4080 C   0  0  0  0  0  0  0  0  0  0  0  0
    4.1760    1.2210    0.8200 C   0  0  0  0  0  0  0  0  0  0  0  0
    5.3740    1.9980    1.1370 C   0  0  0  0  0  0  0  0  0  0  0  0
    5.6060    2.7440    2.1950 C   0  0  0  0  0  0  0  0  0  0  0  0
    6.3130    1.7900    0.0170 C   0  0  0  0  0  0  0  0  0  0  0  0
    5.4020    1.3000   -1.0310 C   0  0  0  0  0  0  0  0  0  0  0  0
    5.6660    1.3130   -2.2600 O   0  0  0  0  0  0  0  0  0  0  0  0
   -2.7890    0.3440   -1.8720 C   0  0  0  0  0  0  0  0  0  0  0  0
   -3.4610    1.7230   -1.9260 C   0  0  0  0  0  0  0  0  0  0  0  0
  1  2  2  0
  2  3  1  0
  3  4  1  0
  3 28  1  0
  4  5  1  0
  5  6  1  0
  6  7  1  1
  6 27  1  0
  7  8  2  0
  7 15  1  0
  8  9  1  0
  9 10  2  0
  9 14  1  0
 10 11  1  0
 11 12  2  0
 12 13  1  0
 13 14  2  0
 14 15  1  0
 15 16  1  0
 16 17  1  0
 17 18  2  0
 17 19  1  0
 19 20  1  0
 20 21  2  0
 20 25  1  0
 21 22  1  0
 22 23  2  0
 22 24  1  0
 24 25  1  0
 25 26  2  0
 27 28  1  0
M  END
