
     RDKit          3D

 28 31  0  0  0  0  0  0  0  0999 V2000
   -5.1650   -2.2040   -0.8090 C   0  0  0  0  0  0  0  0  0  0  0  0
   -3.8710   -2.4820   -0.8380 C   0  0  0  0  0  0  0  0  0  0  0  0
   -2.8730   -1.4370   -0.5010 C   0  0  0  0  0  0  0  0  0  0  0  0
   -1.5780   -1.6550   -0.5130 C   0  0  0  0  0  0  0  0  0  0  0  0
   -0.6000   -0.6360   -0.1840 C   0  0  0  0  0  0  0  0  0  0  0  0
    0.7470   -0.9440   -0.2210 N   0  0  0  0  0  0  0  0  0  0  0  0
    1.4520    0.1390    0.1150 C   0  0  0  0  0  0  0  0  0  0  0  0
    2.9110    0.2230    0.1950 C   0  0  0  0  0  0  0  0  0  0  0  0
    3.5560    1.3870    0.5520 C   0  0  0  0  0  0  0  0  0  0  0  0
    4.9200    1.4950    0.6350 C   0  0  0  0  0  0  0  0  0  0  0  0
    5.6880    0.4000    0.3520 C   0  0  0  0  0  0  0  0  0  0  0  0
    7.0650    0.5060    0.4350 O   0  0  0  0  0  0  0  0  0  0  0  0
    7.6280    1.7420    0.8100 C   0  0  0  0  0  0  0  0  0  0  0  0
    5.0770   -0.7970   -0.0130 C   0  0  0  0  0  0  0  0  0  0  0  0
    3.7030   -0.8640   -0.0850 C   0  0  0  0  0  0  0  0  0  0  0  0
    0.5560    1.0960    0.3550 N   0  0  0  0  0  0  0  0  0  0  0  0
   -0.6890    0.6360    0.1760 N   0  0  0  0  0  0  0  0  0  0  0  0
   -1.8790    1.3830    0.3450 C   0  0  0  0  0  0  0  0  0  0  0  0
   -2.3510    2.0660   -0.7580 C   0  0  0  0  0  0  0  0  0  0  0  0
   -3.4300    2.9220   -0.8560 C   0  0  0  0  0  0  0  0  0  0  0  0
   -4.2500    3.4190    0.1620 C   0  0  0  0  0  0  0  0  0  0  0  0
   -4.3640    2.9400    1.4160 N   0  0  0  0  0  0  0  0  0  0  0  0
   -3.5390    2.0900    2.0930 C   0  0  0  0  0  0  0  0  0  0  0  0
   -3.8520    1.9650    3.2980 O   0  0  0  0  0  0  0  0  0  0  0  0
   -2.4430    1.3820    1.6150 C   0  0  0  0  0  0  0  0  0  0  0  0
   -1.1410   -2.9890   -0.8780 C   0  0  0  0  0  0  0  0  0  0  0  0
   -1.9670   -3.9790   -1.1930 C   0  0  0  0  0  0  0  0  0  0  0  0
   -3.4270   -3.8330   -1.2070 C   0  0  0  0  0  0  0  0  0  0  0  0
  1  2  2  0
  2  3  1  0
  2 28  1  0
  3  4  2  0
  4  5  1  0
  4 26  1  0
  5  6  2  0
  5 17  1  0
  6  7  1  0
  7  8  1  0
  7 16  2  0
  8  9  2  0
  8 15  1  0
  9 10  1  0
 10 11  2  0
 11 12  1  0
 11 14  1  0
 12 13  1  0
 14 15  2  0
 16 17  1  0
 17 18  1  0
 18 19  1  0
 18 25  2  0
 19 20  2  0
 20 21  1  0
 21 22  2  0
 22 23  1  0
 23 24  2  0
 23 25  1  0
 26 27  2  0
 27 28  1  0
M  END
