
     RDKit          3D

 22 24  0  0  0  0  0  0  0  0999 V2000
    5.8450    0.6870   -1.8930 C   0  0  0  0  0  0  0  0  0  0  0  0
    4.9110    0.0890   -0.9590 N   0  0  1  0  0  0  0  0  0  0  0  0
    5.5430    0.0660    0.3590 C   0  0  0  0  0  0  0  0  0  0  0  0
    3.6670    0.8060   -0.9400 C   0  0  0  0  0  0  0  0  0  0  0  0
    2.5400   -0.0730   -0.4520 C   0  0  0  0  0  0  0  0  0  0  0  0
    2.8270   -1.2480   -0.1460 O   0  0  0  0  0  0  0  0  0  0  0  0
    1.2320    0.4070   -0.3490 N   0  0  0  0  0  0  0  0  0  0  0  0
    0.1000   -0.3270    0.0990 C   0  0  0  0  0  0  0  0  0  0  0  0
    0.1150   -1.5750    0.6480 C   0  0  0  0  0  0  0  0  0  0  0  0
   -1.0480   -2.2220    1.0470 C   0  0  0  0  0  0  0  0  0  0  0  0
   -2.2790   -1.6220    0.9030 C   0  0  0  0  0  0  0  0  0  0  0  0
   -3.4080   -2.2430    1.2860 N   0  0  0  0  0  0  0  0  0  0  0  0
   -4.5790   -1.6280    1.1290 C   0  0  0  0  0  0  0  0  0  0  0  0
   -5.6550   -2.2050    1.4890 O   0  0  0  0  0  0  0  0  0  0  0  0
   -4.6990   -0.3730    0.5880 C   0  0  0  0  0  0  0  0  0  0  0  0
   -5.9270    0.2450    0.4350 C   0  0  0  0  0  0  0  0  0  0  0  0
   -6.0280    1.4920   -0.1040 C   0  0  0  0  0  0  0  0  0  0  0  0
   -4.8900    2.1310   -0.4970 C   0  0  0  0  0  0  0  0  0  0  0  0
   -3.6160    1.5530   -0.3660 C   0  0  0  0  0  0  0  0  0  0  0  0
   -3.5390    0.2940    0.1810 C   0  0  0  0  0  0  0  0  0  0  0  0
   -2.3190   -0.3410    0.3420 C   0  0  0  0  0  0  0  0  0  0  0  0
   -1.1610    0.2860   -0.0480 C   0  0  0  0  0  0  0  0  0  0  0  0
  2  1  1  6
  2  3  1  0
  2  4  1  0
  4  5  1  0
  5  6  2  0
  5  7  1  0
  7  8  1  0
  8  9  2  0
  8 22  1  0
  9 10  1  0
 10 11  2  0
 11 12  1  0
 11 21  1  0
 12 13  1  0
 13 14  2  0
 13 15  1  0
 15 16  2  0
 15 20  1  0
 16 17  1  0
 17 18  2  0
 18 19  1  0
 19 20  2  0
 20 21  1  0
 21 22  2  0
M  CHG  1   2   1
M  END
