
     RDKit          3D

 25 28  0  0  0  0  0  0  0  0999 V2000
    5.0490    1.0920   -0.6310 C   0  0  0  0  0  0  0  0  0  0  0  0
    3.9310    0.4330   -0.2910 C   0  0  0  0  0  0  0  0  0  0  0  0
    2.7550    0.9790   -0.3530 O   0  0  0  0  0  0  0  0  0  0  0  0
    1.7720    0.1920    0.0160 C   0  0  0  0  0  0  0  0  0  0  0  0
    0.3490    0.6040    0.0350 C   0  0  0  0  0  0  0  0  0  0  0  0
    0.1410    1.9940    0.1270 C   0  0  0  0  0  0  0  0  0  0  0  0
   -1.1230    2.5400    0.1650 C   0  0  0  0  0  0  0  0  0  0  0  0
   -1.3460    3.9790    0.2580 C   0  0  0  0  0  0  0  0  0  0  0  0
   -2.3710    4.6560    0.8520 C   0  0  0  0  0  0  0  0  0  0  0  0
   -2.1250    5.9980    0.6670 C   0  0  0  0  0  0  0  0  0  0  0  0
   -0.9900    6.1210   -0.0160 N   0  0  0  0  0  0  0  0  0  0  0  0
   -0.4970    4.9130   -0.2760 C   0  0  0  0  0  0  0  0  0  0  0  0
   -2.2010    1.6980    0.1120 C   0  0  0  0  0  0  0  0  0  0  0  0
   -1.9760    0.3390    0.0200 C   0  0  0  0  0  0  0  0  0  0  0  0
   -0.7120   -0.2390   -0.0230 C   0  0  0  0  0  0  0  0  0  0  0  0
   -0.5980   -1.6090   -0.2460 N   0  0  0  0  0  0  0  0  0  0  0  0
   -1.5620   -2.6440   -0.1820 C   0  0  1  0  0  0  0  0  0  0  0  0
   -2.4500   -2.7600    1.0190 C   0  0  0  0  0  0  0  0  0  0  0  0
   -3.6040   -3.0120    0.0530 C   0  0  2  0  0  0  0  0  0  0  0  0
   -4.0440   -4.3860   -0.0190 N   0  0  0  0  0  0  0  0  0  0  0  0
   -2.6950   -2.6880   -1.1350 C   0  0  0  0  0  0  0  0  0  0  0  0
    2.3740   -0.9800    0.3530 C   0  0  0  0  0  0  0  0  0  0  0  0
    3.7750   -0.8430    0.1580 C   0  0  0  0  0  0  0  0  0  0  0  0
    4.6410   -1.7800    0.3840 C   0  0  0  0  0  0  0  0  0  0  0  0
    6.0890   -1.7170    0.2080 C   0  0  0  0  0  0  0  0  0  0  0  0
  1  2  2  0
  2  3  1  0
  2 23  1  0
  3  4  1  0
  4  5  1  0
  4 22  2  0
  5  6  2  0
  5 15  1  0
  6  7  1  0
  7  8  1  0
  7 13  2  0
  8  9  1  0
  8 12  2  0
  9 10  2  0
 10 11  1  0
 11 12  1  0
 13 14  1  0
 14 15  2  0
 15 16  1  0
 17 16  1  1
 17 18  1  0
 17 21  1  0
 18 19  1  0
 19 20  1  6
 19 21  1  0
 22 23  1  0
 23 24  2  3
 24 25  1  0
M  CHG  1  20   1
M  END
