
     RDKit          3D

 25 28  0  0  0  0  0  0  0  0999 V2000
   -1.7730   -1.2310    2.6980 C   0  0  0  0  0  0  0  0  0  0  0  0
   -1.8360   -1.7420    1.2950 C   0  0  0  0  0  0  0  0  0  0  0  0
   -1.2800   -1.1860    0.2770 C   0  0  0  0  0  0  0  0  0  0  0  0
   -1.4990   -1.8910   -0.9590 N   0  0  0  0  0  0  0  0  0  0  0  0
   -2.3190   -3.0520   -0.8540 C   0  0  0  0  0  0  0  0  0  0  0  0
   -0.7360    0.1100    0.0480 C   0  0  0  0  0  0  0  0  0  0  0  0
   -1.7250    1.1400    0.0340 C   0  0  0  0  0  0  0  0  0  0  0  0
   -1.3500    2.4250   -0.2620 C   0  0  0  0  0  0  0  0  0  0  0  0
   -0.0340    2.7050   -0.5420 C   0  0  0  0  0  0  0  0  0  0  0  0
    0.8960    1.7000   -0.5190 C   0  0  0  0  0  0  0  0  0  0  0  0
    2.1850    2.0500   -0.8100 C   0  0  0  0  0  0  0  0  0  0  0  0
    3.1750    1.1160   -0.8070 C   0  0  0  0  0  0  0  0  0  0  0  0
    2.8470   -0.1460   -0.5070 C   0  0  0  0  0  0  0  0  0  0  0  0
    1.5090   -0.6110   -0.1840 C   0  0  0  0  0  0  0  0  0  0  0  0
    1.4670   -1.9850    0.2090 C   0  0  0  0  0  0  0  0  0  0  0  0
    0.5830   -2.8770    0.6720 N   0  0  0  0  0  0  0  0  0  0  0  0
    0.5760    0.3700   -0.2190 C   0  0  0  0  0  0  0  0  0  0  0  0
    4.0840   -0.9640   -0.5690 C   0  0  0  0  0  0  0  0  0  0  0  0
    5.1450    0.0520   -0.2090 C   0  0  0  0  0  0  0  0  0  0  0  0
    4.6660    1.2190   -1.0870 C   0  0  0  0  0  0  0  0  0  0  0  0
   -2.3380    3.5110   -0.2920 C   0  0  0  0  0  0  0  0  0  0  0  0
   -3.6460    3.2490    0.3450 C   0  0  0  0  0  0  0  0  0  0  0  0
   -4.0480    1.8260    0.2860 C   0  0  0  0  0  0  0  0  0  0  0  0
   -5.2620    1.5540    0.2120 O   0  0  0  0  0  0  0  0  0  0  0  0
   -3.0560    0.7770    0.3150 N   0  0  0  0  0  0  0  0  0  0  0  0
  1  2  1  0
  2  3  2  3
  3  4  1  0
  3  6  1  0
  4  5  1  0
  6  7  2  0
  6 17  1  0
  7  8  1  0
  7 25  1  0
  8  9  2  0
  8 21  1  0
  9 10  1  0
 10 11  2  0
 10 17  1  0
 11 12  1  0
 12 13  2  0
 12 20  1  0
 13 14  1  0
 13 18  1  0
 14 15  1  0
 14 17  2  0
 15 16  1  0
 18 19  1  0
 19 20  1  0
 21 22  1  0
 22 23  1  0
 23 24  2  0
 23 25  1  0
M  CHG  1   4   1
M  END
