
     RDKit          3D

 25 28  0  0  0  0  0  0  0  0999 V2000
   -4.2500    1.4730    2.0950 C   0  0  0  0  0  0  0  0  0  0  0  0
   -4.8270    0.8590    0.8660 C   0  0  1  0  0  0  0  0  0  0  0  0
   -5.7830    1.8290    0.3360 N   0  0  0  0  0  0  0  0  0  0  0  0
   -3.8910    0.4090   -0.1450 C   0  0  0  0  0  0  0  0  0  0  0  0
   -4.3240    0.0560   -1.4500 C   0  0  0  0  0  0  0  0  0  0  0  0
   -5.6710    0.1000   -1.9310 N   0  0  0  0  0  0  0  0  0  0  0  0
   -3.2190   -0.3110   -2.0920 N   0  0  0  0  0  0  0  0  0  0  0  0
   -2.1390   -0.2190   -1.3050 C   0  0  0  0  0  0  0  0  0  0  0  0
   -0.7970   -0.4850   -1.5070 C   0  0  0  0  0  0  0  0  0  0  0  0
    0.1400   -0.3130   -0.5140 C   0  0  0  0  0  0  0  0  0  0  0  0
   -0.2160    0.1330    0.7270 C   0  0  0  0  0  0  0  0  0  0  0  0
   -1.5770    0.4010    0.9260 C   0  0  0  0  0  0  0  0  0  0  0  0
   -2.5320    0.2380   -0.0490 C   0  0  0  0  0  0  0  0  0  0  0  0
    0.7550    0.3150    1.8100 C   0  0  0  0  0  0  0  0  0  0  0  0
    2.1700    0.0630    1.5360 C   0  0  0  0  0  0  0  0  0  0  0  0
    2.4960   -0.4190    0.1800 C   0  0  0  0  0  0  0  0  0  0  0  0
    3.9000   -0.7200   -0.1460 C   0  0  0  0  0  0  0  0  0  0  0  0
    4.8650   -0.5310    0.8480 C   0  0  0  0  0  0  0  0  0  0  0  0
    6.1840   -0.8040    0.5770 C   0  0  0  0  0  0  0  0  0  0  0  0
    6.6120   -1.2610   -0.6420 C   0  0  0  0  0  0  0  0  0  0  0  0
    8.0060   -1.5470   -0.9270 C   0  0  0  0  0  0  0  0  0  0  0  0
    8.8680   -1.3710   -0.0420 O   0  0  0  0  0  0  0  0  0  0  0  0
    5.6620   -1.4460   -1.6190 C   0  0  0  0  0  0  0  0  0  0  0  0
    4.3170   -1.1720   -1.3570 C   0  0  0  0  0  0  0  0  0  0  0  0
    1.5650   -0.5800   -0.7290 C   0  0  0  0  0  0  0  0  0  0  0  0
  2  1  1  1
  2  3  1  0
  2  4  1  0
  4  5  2  0
  4 13  1  0
  5  6  1  0
  5  7  1  0
  7  8  1  0
  8  9  2  0
  8 13  1  0
  9 10  1  0
 10 11  2  0
 10 25  1  0
 11 12  1  0
 11 14  1  0
 12 13  2  0
 14 15  1  0
 15 16  1  0
 16 17  1  0
 16 25  2  0
 17 18  2  0
 17 24  1  0
 18 19  1  0
 19 20  2  0
 20 21  1  0
 20 23  1  0
 21 22  2  0
 23 24  2  0
M  CHG  1   3   1
M  END
