
     RDKit          3D

 28 31  0  0  0  0  0  0  0  0999 V2000
    5.0140    3.4150    1.8100 C   0  0  0  0  0  0  0  0  0  0  0  0
    5.4050    3.0160    0.6030 C   0  0  0  0  0  0  0  0  0  0  0  0
    5.9320    1.6740    0.3230 C   0  0  0  0  0  0  0  0  0  0  0  0
    5.1730    0.9200   -0.6400 N   0  0  0  0  0  0  0  0  0  0  0  0
    5.3270    0.8720   -2.0040 N   0  0  0  0  0  0  0  0  0  0  0  0
    4.5070    0.1160   -2.5630 N   0  0  0  0  0  0  0  0  0  0  0  0
    3.6270   -0.4920   -1.5920 C   0  0  0  0  0  0  0  0  0  0  0  0
    2.6340   -1.3120   -1.8360 C   0  0  0  0  0  0  0  0  0  0  0  0
    1.7580   -1.9230   -0.8420 C   0  0  0  0  0  0  0  0  0  0  0  0
    2.2320   -2.5950    0.2610 C   0  0  0  0  0  0  0  0  0  0  0  0
    1.3700   -3.1330    1.1920 C   0  0  0  0  0  0  0  0  0  0  0  0
    0.0120   -3.0440    1.0930 C   0  0  0  0  0  0  0  0  0  0  0  0
   -0.8840   -3.6390    2.1160 C   0  0  0  0  0  0  0  0  0  0  0  0
   -0.5130   -2.3640   -0.0230 C   0  0  0  0  0  0  0  0  0  0  0  0
   -1.7860   -2.2390   -0.1880 O   0  0  0  0  0  0  0  0  0  0  0  0
   -3.0530   -2.0870   -0.3980 C   0  0  0  0  0  0  0  0  0  0  0  0
   -3.5290   -0.6520   -0.4450 C   0  0  0  0  0  0  0  0  0  0  0  0
   -2.8610    0.3020   -1.1780 C   0  0  0  0  0  0  0  0  0  0  0  0
   -3.2780    1.6250   -1.2410 C   0  0  0  0  0  0  0  0  0  0  0  0
   -4.4050    1.9790   -0.5390 C   0  0  0  0  0  0  0  0  0  0  0  0
   -5.0710    1.0300    0.1910 C   0  0  0  0  0  0  0  0  0  0  0  0
   -4.6250   -0.2350    0.2190 N   0  0  0  0  0  0  0  0  0  0  0  0
   -6.2070    1.7000    0.8130 C   0  0  0  0  0  0  0  0  0  0  0  0
   -6.2480    2.9660    0.4970 C   0  0  0  0  0  0  0  0  0  0  0  0
   -5.1100    3.2980   -0.3990 C   0  0  0  0  0  0  0  0  0  0  0  0
    0.3880   -1.8270   -0.9510 C   0  0  0  0  0  0  0  0  0  0  0  0
    4.0700    0.0420   -0.3220 C   0  0  0  0  0  0  0  0  0  0  0  0
    3.6460   -0.1580    0.8370 O   0  0  0  0  0  0  0  0  0  0  0  0
  1  2  2  0
  2  3  1  0
  3  4  1  0
  4  5  1  0
  4 27  1  0
  5  6  2  0
  6  7  1  0
  7  8  2  3
  7 27  1  0
  8  9  1  0
  9 10  2  0
  9 26  1  0
 10 11  1  0
 11 12  2  0
 12 13  1  0
 12 14  1  0
 14 15  1  0
 14 26  2  0
 15 16  1  0
 16 17  1  0
 17 18  2  0
 17 22  1  0
 18 19  1  0
 19 20  2  0
 20 21  1  0
 20 25  1  0
 21 22  2  0
 21 23  1  0
 23 24  2  0
 24 25  1  0
 27 28  2  0
M  END
