
     RDKit          3D

 28 31  0  0  0  0  0  0  0  0999 V2000
    6.1050   -0.8840   -0.6140 C   0  0  0  0  0  0  0  0  0  0  0  0
    4.9400   -0.0520   -1.0700 C   0  0  0  0  0  0  0  0  0  0  0  0
    3.6800   -0.3690   -0.2740 C   0  0  0  0  0  0  0  0  0  0  0  0
    3.8620   -0.1070    1.1870 C   0  0  0  0  0  0  0  0  0  0  0  0
    2.6650   -0.3710    1.9770 C   0  0  0  0  0  0  0  0  0  0  0  0
    1.4650    0.3260    1.7090 N   0  0  0  0  0  0  0  0  0  0  0  0
    1.2390    1.5470    2.2400 C   0  0  0  0  0  0  0  0  0  0  0  0
    2.1270    2.0200    2.9550 O   0  0  0  0  0  0  0  0  0  0  0  0
    0.1270    2.2280    2.0210 N   0  0  0  0  0  0  0  0  0  0  0  0
   -0.8730    1.7340    1.2350 C   0  0  0  0  0  0  0  0  0  0  0  0
   -1.8360    2.4710    1.1230 O   0  0  0  0  0  0  0  0  0  0  0  0
   -0.6840    0.5000    0.6800 C   0  0  0  0  0  0  0  0  0  0  0  0
   -1.6650   -0.0750   -0.1190 C   0  0  0  0  0  0  0  0  0  0  0  0
   -1.4670   -1.3470   -0.6700 C   0  0  0  0  0  0  0  0  0  0  0  0
   -0.3080   -2.0380   -0.4280 C   0  0  0  0  0  0  0  0  0  0  0  0
   -0.0940   -3.4060   -1.0200 C   0  0  0  0  0  0  0  0  0  0  0  0
    0.6560   -1.4610    0.3620 C   0  0  0  0  0  0  0  0  0  0  0  0
    0.5110   -0.2120    0.9270 C   0  0  0  0  0  0  0  0  0  0  0  0
   -2.5900   -1.6680   -1.4120 C   0  0  0  0  0  0  0  0  0  0  0  0
   -2.8280   -2.9340   -2.1830 C   0  0  0  0  0  0  0  0  0  0  0  0
   -3.3920   -0.6280   -1.2920 N   0  0  0  0  0  0  0  0  0  0  0  0
   -2.8350    0.3440   -0.5070 N   0  0  0  0  0  0  0  0  0  0  0  0
   -3.6200    1.4840   -0.3290 C   0  0  0  0  0  0  0  0  0  0  0  0
   -4.5480    1.4550    0.7210 C   0  0  0  0  0  0  0  0  0  0  0  0
   -5.4340    2.4450    0.9670 C   0  0  0  0  0  0  0  0  0  0  0  0
   -5.4210    3.5460    0.1340 C   0  0  0  0  0  0  0  0  0  0  0  0
   -4.5100    3.5990   -0.9140 C   0  0  0  0  0  0  0  0  0  0  0  0
   -3.6160    2.5880   -1.1530 C   0  0  0  0  0  0  0  0  0  0  0  0
  1  2  1  0
  2  3  1  0
  3  4  1  0
  4  5  1  0
  5  6  1  0
  6  7  1  0
  6 18  1  0
  7  8  2  0
  7  9  1  0
  9 10  1  0
 10 11  2  0
 10 12  1  0
 12 13  2  0
 12 18  1  0
 13 14  1  0
 13 22  1  0
 14 15  2  0
 14 19  1  0
 15 16  1  0
 15 17  1  0
 17 18  2  0
 19 20  1  0
 19 21  2  0
 21 22  1  0
 22 23  1  0
 23 24  2  0
 23 28  1  0
 24 25  1  0
 25 26  2  0
 26 27  1  0
 27 28  2  0
M  END
