
     RDKit          3D

 22 24  0  0  0  0  0  0  0  0999 V2000
   -2.7900    3.2860   -0.6370 O   0  0  0  0  0  0  0  0  0  0  0  0
   -3.6160    2.3140   -0.5200 C   0  0  0  0  0  0  0  0  0  0  0  0
   -4.9270    2.6350   -0.6440 O   0  0  0  0  0  0  0  0  0  0  0  0
   -5.8860    1.6990   -0.1780 C   0  0  0  0  0  0  0  0  0  0  0  0
   -5.3950    0.3630   -0.2930 N   0  0  0  0  0  0  0  0  0  0  0  0
   -4.0000   -0.0090   -0.1540 C   0  0  0  0  0  0  0  0  0  0  0  0
   -3.7550   -1.4410    0.0950 C   0  0  0  0  0  0  0  0  0  0  0  0
   -2.5340   -1.9200    0.2360 F   0  0  0  0  0  0  0  0  0  0  0  0
   -3.1020    0.9390   -0.2630 C   0  0  0  0  0  0  0  0  0  0  0  0
   -1.6700    0.7680   -0.1550 C   0  0  0  0  0  0  0  0  0  0  0  0
   -1.0330   -0.2970    0.0600 N   0  0  0  0  0  0  0  0  0  0  0  0
    0.3810   -0.3520    0.1480 C   0  0  0  0  0  0  0  0  0  0  0  0
    1.1270   -0.7550   -0.9390 C   0  0  0  0  0  0  0  0  0  0  0  0
    2.5040   -0.8200   -0.8890 C   0  0  0  0  0  0  0  0  0  0  0  0
    3.2090   -0.4800    0.2690 C   0  0  0  0  0  0  0  0  0  0  0  0
    4.6610   -0.5500    0.3170 C   0  0  0  0  0  0  0  0  0  0  0  0
    5.4900   -0.9320   -0.6920 C   0  0  0  0  0  0  0  0  0  0  0  0
    6.7760   -0.8390   -0.1790 C   0  0  0  0  0  0  0  0  0  0  0  0
    6.6380   -0.4020    1.1210 C   0  0  0  0  0  0  0  0  0  0  0  0
    5.3630   -0.2410    1.3800 O   0  0  0  0  0  0  0  0  0  0  0  0
    2.4600   -0.0770    1.3550 C   0  0  0  0  0  0  0  0  0  0  0  0
    1.0760   -0.0160    1.2910 C   0  0  0  0  0  0  0  0  0  0  0  0
  1  2  2  0
  2  3  1  0
  2  9  1  0
  3  4  1  0
  4  5  1  0
  5  6  1  0
  6  7  1  0
  6  9  2  0
  7  8  1  0
  9 10  1  0
 10 11  2  3
 11 12  1  0
 12 13  2  0
 12 22  1  0
 13 14  1  0
 14 15  2  0
 15 16  1  0
 15 21  1  0
 16 17  2  0
 16 20  1  0
 17 18  1  0
 18 19  2  0
 19 20  1  0
 21 22  2  0
M  END
