
     RDKit          3D

 22 24  0  0  0  0  0  0  0  0999 V2000
    7.4320    0.6100   -1.4560 C   0  0  0  0  0  0  0  0  0  0  0  0
    6.3460    0.1660   -0.6630 O   0  0  0  0  0  0  0  0  0  0  0  0
    5.0290    0.3620   -0.9700 C   0  0  0  0  0  0  0  0  0  0  0  0
    4.7590    0.9810   -2.0330 O   0  0  0  0  0  0  0  0  0  0  0  0
    3.9220   -0.1010   -0.1420 C   0  0  0  0  0  0  0  0  0  0  0  0
    2.6100    0.1250   -0.5010 C   0  0  0  0  0  0  0  0  0  0  0  0
    1.5540   -0.3070    0.2710 C   0  0  0  0  0  0  0  0  0  0  0  0
    0.2410   -0.0800   -0.0900 O   0  0  0  0  0  0  0  0  0  0  0  0
   -0.7690   -0.5570    0.7590 C   0  0  0  0  0  0  0  0  0  0  0  0
   -2.1250   -0.2780    0.3100 C   0  0  0  0  0  0  0  0  0  0  0  0
   -2.8520    0.8420    0.6250 C   0  0  0  0  0  0  0  0  0  0  0  0
   -4.0860    0.7460    0.0160 C   0  0  0  0  0  0  0  0  0  0  0  0
   -5.1890    1.5920    0.0050 C   0  0  0  0  0  0  0  0  0  0  0  0
   -6.3190    1.2270   -0.7110 C   0  0  0  0  0  0  0  0  0  0  0  0
   -6.3200    0.0200   -1.4020 C   0  0  0  0  0  0  0  0  0  0  0  0
   -7.4310   -0.3190   -2.0940 F   0  0  0  0  0  0  0  0  0  0  0  0
   -5.2180   -0.8060   -1.3800 C   0  0  0  0  0  0  0  0  0  0  0  0
   -4.0790   -0.4520   -0.6660 C   0  0  0  0  0  0  0  0  0  0  0  0
   -2.8820   -1.0540   -0.4730 N   0  0  0  0  0  0  0  0  0  0  0  0
    1.8850   -0.9830    1.4320 C   0  0  0  0  0  0  0  0  0  0  0  0
    3.1850   -1.2150    1.8020 C   0  0  0  0  0  0  0  0  0  0  0  0
    4.1710   -0.7750    1.0170 N   0  0  0  0  0  0  0  0  0  0  0  0
  1  2  1  0
  2  3  1  0
  3  4  2  0
  3  5  1  0
  5  6  2  0
  5 22  1  0
  6  7  1  0
  7  8  1  0
  7 20  2  0
  8  9  1  0
  9 10  1  0
 10 11  2  0
 10 19  1  0
 11 12  1  0
 12 13  2  0
 12 18  1  0
 13 14  1  0
 14 15  2  0
 15 16  1  0
 15 17  1  0
 17 18  2  0
 18 19  1  0
 20 21  1  0
 21 22  2  0
M  END
