
     RDKit          3D

 21 23  0  0  0  0  0  0  0  0999 V2000
    7.3500    0.3000    1.2480 C   0  0  0  0  0  0  0  0  0  0  0  0
    6.1460   -0.0380    0.4000 C   0  0  0  0  0  0  0  0  0  0  0  0
    6.2140   -0.6220   -0.8450 C   0  0  0  0  0  0  0  0  0  0  0  0
    4.9160   -0.7620   -1.2770 C   0  0  0  0  0  0  0  0  0  0  0  0
    4.1190   -0.2580   -0.2780 C   0  0  0  0  0  0  0  0  0  0  0  0
    2.6350   -0.1950   -0.2920 C   0  0  0  0  0  0  0  0  0  0  0  0
    1.9670   -0.6420   -1.3200 C   0  0  0  0  0  0  0  0  0  0  0  0
    0.5100   -0.6390   -1.4600 C   0  0  0  0  0  0  0  0  0  0  0  0
   -0.0360   -1.0970   -2.4990 O   0  0  0  0  0  0  0  0  0  0  0  0
   -0.3130   -0.1250   -0.4420 N   0  0  0  0  0  0  0  0  0  0  0  0
   -1.7260   -0.0520   -0.4280 C   0  0  0  0  0  0  0  0  0  0  0  0
   -2.5410   -0.4830   -1.4360 C   0  0  0  0  0  0  0  0  0  0  0  0
   -3.9330   -0.3920   -1.3820 C   0  0  0  0  0  0  0  0  0  0  0  0
   -4.5110    0.1570   -0.2640 C   0  0  0  0  0  0  0  0  0  0  0  0
   -3.7190    0.5800    0.7240 N   0  0  0  0  0  0  0  0  0  0  0  0
   -2.3910    0.4960    0.6800 C   0  0  0  0  0  0  0  0  0  0  0  0
   -1.6440    0.8990    1.6190 O   0  0  0  0  0  0  0  0  0  0  0  0
   -4.5510    1.1170    1.8140 C   0  0  0  0  0  0  0  0  0  0  0  0
   -5.8860    0.4120    1.6020 C   0  0  0  0  0  0  0  0  0  0  0  0
   -5.9560    0.4040    0.1000 C   0  0  0  0  0  0  0  0  0  0  0  0
    4.9000    0.1510    0.6790 O   0  0  0  0  0  0  0  0  0  0  0  0
  1  2  1  0
  2  3  2  0
  2 21  1  0
  3  4  1  0
  4  5  2  0
  5  6  1  0
  5 21  1  0
  6  7  2  3
  7  8  1  0
  8  9  2  0
  8 10  1  0
 10 11  1  0
 11 12  2  0
 11 16  1  0
 12 13  1  0
 13 14  2  0
 14 15  1  0
 14 20  1  0
 15 16  1  0
 15 18  1  0
 16 17  2  0
 18 19  1  0
 19 20  1  0
M  END
