
     RDKit          3D

 22 24  0  0  0  0  0  0  0  0999 V2000
    4.7040    1.7310   -0.6000 C   0  0  0  0  0  0  0  0  0  0  0  0
    3.4130    1.2650   -0.4390 O   0  0  0  0  0  0  0  0  0  0  0  0
    3.0390    0.0660    0.1200 C   0  0  0  0  0  0  0  0  0  0  0  0
    4.0890   -0.7450    0.5610 C   0  0  0  0  0  0  0  0  0  0  0  0
    3.8140   -1.9690    1.1370 C   0  0  0  0  0  0  0  0  0  0  0  0
    4.8210   -2.7790    1.5760 F   0  0  0  0  0  0  0  0  0  0  0  0
    2.5120   -2.3470    1.2560 C   0  0  0  0  0  0  0  0  0  0  0  0
    1.4740   -1.5540    0.8230 C   0  0  0  0  0  0  0  0  0  0  0  0
    1.7300   -0.3090    0.2370 C   0  0  0  0  0  0  0  0  0  0  0  0
    0.5870    0.4680   -0.1930 C   0  0  0  0  0  0  0  0  0  0  0  0
    0.6370    1.7020   -0.7850 C   0  0  0  0  0  0  0  0  0  0  0  0
   -0.5300    2.3840   -1.1700 C   0  0  0  0  0  0  0  0  0  0  0  0
   -0.4090    3.5320   -1.7160 O   0  0  0  0  0  0  0  0  0  0  0  0
   -1.7280    1.8240   -0.9590 N   0  0  0  0  0  0  0  0  0  0  0  0
   -1.7850    0.6220   -0.3830 C   0  0  0  0  0  0  0  0  0  0  0  0
   -3.0780   -0.0070   -0.1440 C   0  0  0  0  0  0  0  0  0  0  0  0
   -3.1320   -1.2160    0.4350 C   0  0  0  0  0  0  0  0  0  0  0  0
   -4.3670   -1.9340    0.7200 C   0  0  0  0  0  0  0  0  0  0  0  0
   -5.5170   -1.2370    0.3280 O   0  0  0  0  0  0  0  0  0  0  0  0
   -5.4950    0.0010   -0.2660 C   0  0  0  0  0  0  0  0  0  0  0  0
   -4.3350    0.6090   -0.5010 C   0  0  0  0  0  0  0  0  0  0  0  0
   -0.6660   -0.0220   -0.0190 N   0  0  0  0  0  0  0  0  0  0  0  0
  1  2  1  0
  2  3  1  0
  3  4  2  0
  3  9  1  0
  4  5  1  0
  5  6  1  0
  5  7  2  0
  7  8  1  0
  8  9  2  0
  9 10  1  0
 10 11  2  0
 10 22  1  0
 11 12  1  0
 12 13  2  0
 12 14  1  0
 14 15  1  0
 15 16  1  0
 15 22  2  0
 16 17  2  0
 16 21  1  0
 17 18  1  0
 18 19  1  0
 19 20  1  0
 20 21  2  0
M  END
