
     RDKit          3D

 22 24  0  0  0  0  0  0  0  0999 V2000
    4.8920    0.2070    2.0080 O   0  0  0  0  0  0  0  0  0  0  0  0
    5.1110    0.8160    0.9420 C   0  0  0  0  0  0  0  0  0  0  0  0
    6.3050    1.5090    0.8080 O   0  0  0  0  0  0  0  0  0  0  0  0
    4.1760    0.8560   -0.2100 C   0  0  0  0  0  0  0  0  0  0  0  0
    2.9160    0.0630    0.0630 C   0  0  0  0  0  0  0  0  0  0  0  0
    2.0430    0.1740   -1.1710 C   0  0  0  0  0  0  0  0  0  0  0  0
    0.8010   -0.5550   -1.0160 N   0  0  0  0  0  0  0  0  0  0  0  0
    0.7000   -1.8380   -1.3740 C   0  0  0  0  0  0  0  0  0  0  0  0
   -0.4620   -2.5620   -1.2420 C   0  0  0  0  0  0  0  0  0  0  0  0
   -1.5780   -1.9280   -0.7120 C   0  0  0  0  0  0  0  0  0  0  0  0
   -2.7450   -2.5810   -0.5570 N   0  0  0  0  0  0  0  0  0  0  0  0
   -3.7700   -1.8910   -0.0370 C   0  0  0  0  0  0  0  0  0  0  0  0
   -4.9000   -2.4670    0.1300 O   0  0  0  0  0  0  0  0  0  0  0  0
   -3.7150   -0.5810    0.3430 C   0  0  0  0  0  0  0  0  0  0  0  0
   -4.8100    0.0800    0.8750 C   0  0  0  0  0  0  0  0  0  0  0  0
   -4.7730    1.3980    1.2630 C   0  0  0  0  0  0  0  0  0  0  0  0
   -5.8930    2.0010    1.7850 F   0  0  0  0  0  0  0  0  0  0  0  0
   -3.6060    2.1110    1.1260 C   0  0  0  0  0  0  0  0  0  0  0  0
   -2.4920    1.4510    0.5890 C   0  0  0  0  0  0  0  0  0  0  0  0
   -2.5260    0.1340    0.2000 C   0  0  0  0  0  0  0  0  0  0  0  0
   -1.4390   -0.5290   -0.3300 C   0  0  0  0  0  0  0  0  0  0  0  0
   -0.2430    0.1280   -0.4930 C   0  0  0  0  0  0  0  0  0  0  0  0
  1  2  2  0
  2  3  1  0
  2  4  1  0
  4  5  1  0
  5  6  1  0
  6  7  1  0
  7  8  1  0
  7 22  1  0
  8  9  2  0
  9 10  1  0
 10 11  2  0
 10 21  1  0
 11 12  1  0
 12 13  2  0
 12 14  1  0
 14 15  2  0
 14 20  1  0
 15 16  1  0
 16 17  1  0
 16 18  2  0
 18 19  1  0
 19 20  2  0
 20 21  1  0
 21 22  2  0
M  END
