
     RDKit          3D

 22 24  0  0  0  0  0  0  0  0999 V2000
    6.2590   -0.2280    0.0020 C   0  0  0  0  0  0  0  0  0  0  0  0
    4.9510    0.4490   -0.0410 C   0  0  0  0  0  0  0  0  0  0  0  0
    4.8350    1.6510   -0.5470 C   0  0  0  0  0  0  0  0  0  0  0  0
    5.9230    2.2840   -1.0380 F   0  0  0  0  0  0  0  0  0  0  0  0
    3.7720   -0.2250    0.4750 C   0  0  0  0  0  0  0  0  0  0  0  0
    3.7940   -1.4880    1.0660 C   0  0  0  0  0  0  0  0  0  0  0  0
    2.4910   -1.7530    1.4100 C   0  0  0  0  0  0  0  0  0  0  0  0
    1.7160   -0.6550    1.0230 C   0  0  0  0  0  0  0  0  0  0  0  0
    0.2700   -0.5750    1.2300 C   0  0  0  0  0  0  0  0  0  0  0  0
   -0.5650   -0.1840    0.2870 C   0  0  0  0  0  0  0  0  0  0  0  0
   -0.0830    0.1860   -1.0170 N   0  0  0  0  0  0  0  0  0  0  0  0
   -0.9030    1.0360   -1.8620 C   0  0  0  0  0  0  0  0  0  0  0  0
   -2.3460    0.6800   -1.8510 C   0  0  0  0  0  0  0  0  0  0  0  0
   -2.8930    0.3130   -0.5700 N   0  0  0  0  0  0  0  0  0  0  0  0
   -4.3240    0.3650   -0.3930 C   0  0  2  0  0  0  0  0  0  0  0  0
   -4.8590    0.9030    0.8840 C   0  0  0  0  0  0  0  0  0  0  0  0
   -5.2610   -0.4490    1.3640 C   0  0  0  0  0  0  0  0  0  0  0  0
   -5.6980   -0.9880    2.3600 O   0  0  0  0  0  0  0  0  0  0  0  0
   -4.8950   -0.9850    0.0320 C   0  0  0  0  0  0  0  0  0  0  0  0
   -2.0120   -0.0990    0.4560 C   0  0  0  0  0  0  0  0  0  0  0  0
   -2.4620   -0.4160    1.5910 O   0  0  0  0  0  0  0  0  0  0  0  0
    2.5250    0.2160    0.4750 O   0  0  0  0  0  0  0  0  0  0  0  0
  1  2  1  0
  2  3  2  3
  2  5  1  0
  3  4  1  0
  5  6  2  0
  5 22  1  0
  6  7  1  0
  7  8  2  0
  8  9  1  0
  8 22  1  0
  9 10  2  3
 10 11  1  0
 10 20  1  0
 11 12  1  0
 12 13  1  0
 13 14  1  0
 15 14  1  1
 14 20  1  0
 15 16  1  0
 15 19  1  0
 16 17  1  0
 17 18  2  0
 17 19  1  0
 20 21  2  0
M  END
