
     RDKit          3D

 22 24  0  0  0  0  0  0  0  0999 V2000
    5.1220    0.3040   -1.9130 C   0  0  0  0  0  0  0  0  0  0  0  0
    4.9370    0.0960   -0.4380 C   0  0  0  0  0  0  0  0  0  0  0  0
    3.5150    0.2140   -0.0150 C   0  0  0  0  0  0  0  0  0  0  0  0
    2.7730   -0.9360    0.2770 C   0  0  0  0  0  0  0  0  0  0  0  0
    1.4510   -0.7830    0.6690 C   0  0  0  0  0  0  0  0  0  0  0  0
    0.6830   -1.8520    0.9640 N   0  0  0  0  0  0  0  0  0  0  0  0
   -0.5890   -1.7360    1.3420 C   0  0  0  0  0  0  0  0  0  0  0  0
   -1.2880   -2.7490    1.6120 O   0  0  0  0  0  0  0  0  0  0  0  0
   -1.2420   -0.5390    1.4690 N   0  0  0  0  0  0  0  0  0  0  0  0
   -2.5680   -0.4520    1.9500 C   0  0  0  0  0  0  0  0  0  0  0  0
   -3.7220   -0.7800    1.1480 C   0  0  0  0  0  0  0  0  0  0  0  0
   -4.0410   -0.1270   -0.1050 C   0  0  0  0  0  0  0  0  0  0  0  0
   -3.4000    0.7960   -0.8590 C   0  0  0  0  0  0  0  0  0  0  0  0
   -4.1720    1.0920   -2.0060 C   0  0  0  0  0  0  0  0  0  0  0  0
   -5.2700    0.2890   -1.8500 C   0  0  0  0  0  0  0  0  0  0  0  0
   -5.1810   -0.4020   -0.7590 O   0  0  0  0  0  0  0  0  0  0  0  0
   -0.4990    0.5410    1.1830 C   0  0  0  0  0  0  0  0  0  0  0  0
   -0.9650    1.7170    1.2650 O   0  0  0  0  0  0  0  0  0  0  0  0
    0.8410    0.4460    0.7820 C   0  0  0  0  0  0  0  0  0  0  0  0
    1.5830    1.5770    0.4910 C   0  0  0  0  0  0  0  0  0  0  0  0
    2.8960    1.4420    0.1010 C   0  0  0  0  0  0  0  0  0  0  0  0
    3.6370    2.5370   -0.1880 F   0  0  0  0  0  0  0  0  0  0  0  0
  1  2  1  0
  2  3  1  0
  3  4  2  0
  3 21  1  0
  4  5  1  0
  5  6  1  0
  5 19  2  0
  6  7  1  0
  7  8  2  0
  7  9  1  0
  9 10  1  0
  9 17  1  0
 10 11  1  0
 11 12  1  0
 12 13  2  0
 12 16  1  0
 13 14  1  0
 14 15  2  0
 15 16  1  0
 17 18  2  0
 17 19  1  0
 19 20  1  0
 20 21  2  0
 21 22  1  0
M  END
