
     RDKit          3D

 22 23  0  0  0  0  0  0  0  0999 V2000
   -1.9550    4.0080   -2.4780 C   0  0  0  0  0  0  0  0  0  0  0  0
   -1.4060    3.1680   -1.5150 O   0  0  0  0  0  0  0  0  0  0  0  0
   -0.8980    1.9910   -2.0940 C   0  0  0  0  0  0  0  0  0  0  0  0
   -0.3460    1.1910   -0.9680 C   0  0  0  0  0  0  0  0  0  0  0  0
   -1.2350    0.8010    0.0720 N   0  0  0  0  0  0  0  0  0  0  0  0
   -2.0280   -0.3500    0.0380 C   0  0  0  0  0  0  0  0  0  0  0  0
   -2.9060   -0.7820    1.0100 C   0  0  0  0  0  0  0  0  0  0  0  0
   -3.1910   -0.1060    2.3030 C   0  0  0  0  0  0  0  0  0  0  0  0
   -3.4550   -1.9280    0.5680 N   0  0  0  0  0  0  0  0  0  0  0  0
   -4.4380   -2.6920    1.3200 C   0  0  0  0  0  0  0  0  0  0  0  0
   -2.9690   -2.2040   -0.5890 O   0  0  0  0  0  0  0  0  0  0  0  0
   -2.1020   -1.2980   -0.9730 C   0  0  0  0  0  0  0  0  0  0  0  0
   -1.4340   -1.2400   -2.0380 O   0  0  0  0  0  0  0  0  0  0  0  0
    0.9280    0.8890   -0.9920 C   0  0  0  0  0  0  0  0  0  0  0  0
    1.6720    1.3120   -2.0260 F   0  0  0  0  0  0  0  0  0  0  0  0
    1.5560    0.1100    0.0660 C   0  0  0  0  0  0  0  0  0  0  0  0
    2.8240   -0.2330    0.1120 C   0  0  0  0  0  0  0  0  0  0  0  0
    3.8730    0.0720   -0.8500 C   0  0  0  0  0  0  0  0  0  0  0  0
    5.0150   -0.4780   -0.3970 C   0  0  0  0  0  0  0  0  0  0  0  0
    4.7640   -1.1600    0.8670 C   0  0  0  0  0  0  0  0  0  0  0  0
    5.7790   -1.8990    1.6940 C   0  0  0  0  0  0  0  0  0  0  0  0
    3.4940   -1.0110    1.1510 C   0  0  0  0  0  0  0  0  0  0  0  0
  1  2  1  0
  2  3  1  0
  3  4  1  0
  4  5  1  0
  4 14  2  3
  5  6  1  0
  6  7  2  0
  6 12  1  0
  7  8  1  0
  7  9  1  0
  9 10  1  0
  9 11  1  0
 11 12  1  0
 12 13  2  0
 14 15  1  0
 14 16  1  0
 16 17  2  3
 17 18  1  0
 17 22  1  0
 18 19  2  0
 19 20  1  0
 20 21  1  0
 20 22  2  0
M  END
