
     RDKit          3D

 22 24  0  0  0  0  0  0  0  0999 V2000
    4.8680   -1.1880    1.2000 C   0  0  0  0  0  0  0  0  0  0  0  0
    3.8440   -1.6260    0.1930 C   0  0  2  0  0  0  0  0  0  0  0  0
    4.5220   -1.9680   -1.0900 C   0  0  0  0  0  0  0  0  0  0  0  0
    2.7900   -0.7020    0.0490 O   0  0  0  0  0  0  0  0  0  0  0  0
    1.4650   -0.9890    0.3400 C   0  0  0  0  0  0  0  0  0  0  0  0
    1.2410   -2.1680    0.7570 O   0  0  0  0  0  0  0  0  0  0  0  0
    0.3990   -0.0120    0.1800 C   0  0  0  0  0  0  0  0  0  0  0  0
   -0.8890   -0.1550    0.4190 C   0  0  0  0  0  0  0  0  0  0  0  0
   -1.5380   -1.3250    0.8970 N   0  0  0  0  0  0  0  0  0  0  0  0
   -2.9380   -1.5490    0.6840 C   0  0  0  0  0  0  0  0  0  0  0  0
   -3.5280   -1.6940   -0.4840 C   0  0  0  0  0  0  0  0  0  0  0  0
   -4.9650   -1.9020   -0.2400 C   0  0  0  0  0  0  0  0  0  0  0  0
   -5.0950   -1.8530    1.2290 C   0  0  0  0  0  0  0  0  0  0  0  0
   -3.9060   -1.6460    1.7680 C   0  0  0  0  0  0  0  0  0  0  0  0
   -3.7120   -1.5540    3.1040 F   0  0  0  0  0  0  0  0  0  0  0  0
   -1.6030    1.0810    0.1220 C   0  0  0  0  0  0  0  0  0  0  0  0
   -2.8490    1.3020    0.2360 O   0  0  0  0  0  0  0  0  0  0  0  0
   -0.6430    2.0170   -0.3250 N   0  0  0  0  0  0  0  0  0  0  0  0
   -0.9510    3.3620   -0.7180 C   0  0  2  0  0  0  0  0  0  0  0  0
   -0.1640    3.9230   -1.8750 C   0  0  0  0  0  0  0  0  0  0  0  0
    0.0820    4.4510   -0.5170 C   0  0  0  0  0  0  0  0  0  0  0  0
    0.6310    1.3680   -0.3040 C   0  0  0  0  0  0  0  0  0  0  0  0
  2  1  1  1
  2  3  1  0
  2  4  1  0
  4  5  1  0
  5  6  2  0
  5  7  1  0
  7  8  2  0
  7 22  1  0
  8  9  1  0
  8 16  1  0
  9 10  1  0
 10 11  2  0
 10 14  1  0
 11 12  1  0
 12 13  1  0
 13 14  2  0
 14 15  1  0
 16 17  2  0
 16 18  1  0
 19 18  1  1
 18 22  1  0
 19 20  1  0
 19 21  1  0
 20 21  1  0
M  END
