
     RDKit          3D

 35 38  0  0  0  0  0  0  0  0999 V2000
   -6.1330    0.8140   -2.1620 C   0  0  0  0  0  0  0  0  0  0  0  0
   -6.3440    0.8340   -0.6590 C   0  0  1  0  0  0  0  0  0  0  0  0
   -6.6720   -0.5540   -0.1850 C   0  0  0  0  0  0  0  0  0  0  0  0
   -6.8920   -0.5760    1.3030 C   0  0  2  0  0  0  0  0  0  0  0  0
   -7.8190   -1.6870    1.5700 N   0  0  0  0  0  0  0  0  0  0  0  0
   -7.5700    0.6750    1.7460 C   0  0  0  0  0  0  0  0  0  0  0  0
   -6.6920    1.8750    1.8500 C   0  0  0  0  0  0  0  0  0  0  0  0
   -5.2640    1.6530    1.4490 C   0  0  0  0  0  0  0  0  0  0  0  0
   -5.0770    1.3130    0.0140 C   0  0  1  0  0  0  0  0  0  0  0  0
   -4.0870    0.2420   -0.2000 N   0  0  0  0  0  0  0  0  0  0  0  0
   -2.9750    0.4180   -1.0450 C   0  0  0  0  0  0  0  0  0  0  0  0
   -2.8530    1.5540   -1.6240 O   0  0  0  0  0  0  0  0  0  0  0  0
   -1.9700   -0.5960   -1.2960 C   0  0  0  0  0  0  0  0  0  0  0  0
   -2.0150   -1.7930   -0.7410 C   0  0  0  0  0  0  0  0  0  0  0  0
   -0.9670   -2.8070   -1.0200 C   0  0  0  0  0  0  0  0  0  0  0  0
    0.4210   -2.1390   -0.9230 C   0  0  0  0  0  0  0  0  0  0  0  0
    0.3950   -0.8370   -1.5030 N   0  0  0  0  0  0  0  0  0  0  0  0
    1.4680    0.0560   -1.4710 C   0  0  0  0  0  0  0  0  0  0  0  0
    1.2150    1.2300   -2.0350 O   0  0  0  0  0  0  0  0  0  0  0  0
    2.7750   -0.1240   -0.9230 C   0  0  0  0  0  0  0  0  0  0  0  0
    3.2960   -1.1510   -0.3350 C   0  0  0  0  0  0  0  0  0  0  0  0
    4.6910   -1.1920    0.1920 C   0  0  0  0  0  0  0  0  0  0  0  0
    5.0770   -2.2440    0.7390 O   0  0  0  0  0  0  0  0  0  0  0  0
    5.5530   -0.1190    0.0950 N   0  0  0  0  0  0  0  0  0  0  0  0
    6.9070   -0.0280    0.5570 C   0  0  0  0  0  0  0  0  0  0  0  0
    7.5480   -1.0220    1.2340 C   0  0  0  0  0  0  0  0  0  0  0  0
    8.8810   -0.8890    1.6630 C   0  0  0  0  0  0  0  0  0  0  0  0
    9.5950    0.2580    1.4150 C   0  0  0  0  0  0  0  0  0  0  0  0
   10.9080    0.3870    1.8390 C   0  0  0  0  0  0  0  0  0  0  0  0
   11.5590    1.5640    1.5540 C   0  0  0  0  0  0  0  0  0  0  0  0
   10.9290    2.5870    0.8690 C   0  0  0  0  0  0  0  0  0  0  0  0
    9.6280    2.4400    0.4570 C   0  0  0  0  0  0  0  0  0  0  0  0
    8.9380    1.2580    0.7300 C   0  0  0  0  0  0  0  0  0  0  0  0
    7.6370    1.1330    0.3080 C   0  0  0  0  0  0  0  0  0  0  0  0
   -0.8210   -0.3710   -2.2120 C   0  0  0  0  0  0  0  0  0  0  0  0
  2  1  1  6
  2  3  1  0
  2  9  1  0
  3  4  1  0
  4  5  1  6
  4  6  1  0
  6  7  1  0
  7  8  1  0
  8  9  1  0
  9 10  1  1
 10 11  1  0
 11 12  2  0
 11 13  1  0
 13 14  2  0
 13 35  1  0
 14 15  1  0
 15 16  1  0
 16 17  1  0
 17 18  1  0
 17 35  1  0
 18 19  2  0
 18 20  1  0
 20 21  2  3
 21 22  1  0
 22 23  2  0
 22 24  1  0
 24 25  1  0
 25 26  2  0
 25 34  1  0
 26 27  1  0
 27 28  2  0
 28 29  1  0
 28 33  1  0
 29 30  2  0
 30 31  1  0
 31 32  2  0
 32 33  1  0
 33 34  2  0
M  CHG  1   5   1
M  END
