
     RDKit          3D

 35 38  0  0  0  0  0  0  0  0999 V2000
    7.2860   -1.7370   -1.7550 C   0  0  0  0  0  0  0  0  0  0  0  0
    7.6590   -0.5840   -0.8800 C   0  0  0  0  0  0  0  0  0  0  0  0
    7.1680   -0.7960    0.5190 C   0  0  0  0  0  0  0  0  0  0  0  0
    5.6870   -0.9410    0.6490 C   0  0  0  0  0  0  0  0  0  0  0  0
    4.9350    0.2680    0.1440 C   0  0  1  0  0  0  0  0  0  0  0  0
    3.4540   -0.0030    0.3350 C   0  0  0  0  0  0  0  0  0  0  0  0
    2.7420    1.3110    0.4750 C   0  0  2  0  0  0  0  0  0  0  0  0
    1.3570    1.3070    0.2230 N   0  0  0  0  0  0  0  0  0  0  0  0
    0.5420    0.5270    1.0790 C   0  0  2  0  0  0  0  0  0  0  0  0
    0.7820   -0.9240    1.0890 C   0  0  0  0  0  0  0  0  0  0  0  0
    0.5500   -1.8020    0.1510 C   0  0  0  0  0  0  0  0  0  0  0  0
   -0.0240   -1.5680   -1.1900 C   0  0  0  0  0  0  0  0  0  0  0  0
   -1.4660   -2.0610   -1.2740 C   0  0  2  0  0  0  0  0  0  0  0  0
   -2.2460   -1.1150   -2.1240 C   0  0  0  0  0  0  0  0  0  0  0  0
   -1.9340   -2.1890    0.0500 O   0  0  0  0  0  0  0  0  0  0  0  0
   -3.1980   -2.2660    0.5350 C   0  0  0  0  0  0  0  0  0  0  0  0
   -3.5710   -3.4220    1.0100 O   0  0  0  0  0  0  0  0  0  0  0  0
   -4.2170   -1.2080    0.5960 C   0  0  0  0  0  0  0  0  0  0  0  0
   -5.3250   -1.4670   -0.1770 N   0  0  0  0  0  0  0  0  0  0  0  0
   -6.3730   -0.6640   -0.2790 C   0  0  0  0  0  0  0  0  0  0  0  0
   -7.4650   -0.9970   -1.0870 C   0  0  0  0  0  0  0  0  0  0  0  0
   -8.5530   -0.1640   -1.1920 C   0  0  0  0  0  0  0  0  0  0  0  0
   -8.5350    1.0110   -0.4750 C   0  0  0  0  0  0  0  0  0  0  0  0
   -9.7180    1.9060   -0.5920 C   0  0  0  0  0  0  0  0  0  0  0  0
   -7.4420    1.3460    0.3340 C   0  0  0  0  0  0  0  0  0  0  0  0
   -6.3520    0.5100    0.4380 C   0  0  0  0  0  0  0  0  0  0  0  0
   -5.2550    0.8120    1.2310 C   0  0  0  0  0  0  0  0  0  0  0  0
   -4.1490   -0.0520    1.3290 C   0  0  0  0  0  0  0  0  0  0  0  0
   -3.1040    0.3590    2.1980 N   0  0  0  0  0  0  0  0  0  0  0  0
   -1.7120    0.2840    1.9910 C   0  0  0  0  0  0  0  0  0  0  0  0
   -1.0370   -0.3870    2.8490 O   0  0  0  0  0  0  0  0  0  0  0  0
   -0.9350    0.8950    0.8890 C   0  0  0  0  0  0  0  0  0  0  0  0
    3.5070    2.3430   -0.3290 C   0  0  0  0  0  0  0  0  0  0  0  0
    4.7700    2.6650    0.4320 C   0  0  0  0  0  0  0  0  0  0  0  0
    5.3620    1.4270    0.8770 N   0  0  0  0  0  0  0  0  0  0  0  0
  1  2  1  0
  2  3  1  0
  3  4  1  0
  5  4  1  1
  5  6  1  0
  5 35  1  0
  6  7  1  0
  7  8  1  6
  7 33  1  0
  9  8  1  6
  9 10  1  0
  9 32  1  0
 10 11  2  0
 11 12  1  0
 12 13  1  0
 13 14  1  6
 13 15  1  0
 15 16  1  0
 16 17  2  0
 16 18  1  0
 18 19  2  0
 18 28  1  0
 19 20  1  0
 20 21  2  0
 20 26  1  0
 21 22  1  0
 22 23  2  0
 23 24  1  0
 23 25  1  0
 25 26  2  0
 26 27  1  0
 27 28  2  0
 28 29  1  0
 29 30  1  0
 30 31  2  0
 30 32  1  0
 33 34  1  0
 34 35  1  0
M  CHG  1  35   1
M  END
