
     RDKit          3D

 35 38  0  0  0  0  0  0  0  0999 V2000
   -9.5870    1.1860    1.4000 C   0  0  0  0  0  0  0  0  0  0  0  0
   -8.0950    1.3130    1.0610 C   0  0  0  0  0  0  0  0  0  0  0  0
   -7.8190    0.3390    0.0540 N   0  0  0  0  0  0  0  0  0  0  0  0
   -6.4430   -0.1800    0.1030 C   0  0  1  0  0  0  0  0  0  0  0  0
   -6.2170   -0.8250   -1.2340 C   0  0  0  0  0  0  0  0  0  0  0  0
   -4.9460   -1.6390   -1.3150 C   0  0  0  0  0  0  0  0  0  0  0  0
   -3.8010   -0.9560   -0.6040 C   0  0  1  0  0  0  0  0  0  0  0  0
   -2.5290   -1.7470   -0.7520 C   0  0  0  0  0  0  0  0  0  0  0  0
   -1.3990   -1.0920   -0.0490 C   0  0  0  0  0  0  0  0  0  0  0  0
   -0.5540   -0.1970   -0.6590 C   0  0  0  0  0  0  0  0  0  0  0  0
    0.4980    0.4030    0.0340 C   0  0  0  0  0  0  0  0  0  0  0  0
    0.6650    0.0660    1.3620 C   0  0  0  0  0  0  0  0  0  0  0  0
    1.7700    0.6880    2.1180 C   0  0  2  0  0  0  0  0  0  0  0  0
    1.5100    2.1150    2.4990 C   0  0  0  0  0  0  0  0  0  0  0  0
    2.9560    0.6560    1.2680 N   0  0  0  0  0  0  0  0  0  0  0  0
    4.1310   -0.0420    1.5970 C   0  0  0  0  0  0  0  0  0  0  0  0
    4.1910   -0.6800    2.6750 O   0  0  0  0  0  0  0  0  0  0  0  0
    5.3220   -0.0600    0.7220 C   0  0  0  0  0  0  0  0  0  0  0  0
    5.2430    0.5850   -0.3450 O   0  0  0  0  0  0  0  0  0  0  0  0
    6.4820   -0.7670    1.0720 N   0  0  0  0  0  0  0  0  0  0  0  0
    7.6510   -0.8390    0.3200 C   0  0  0  0  0  0  0  0  0  0  0  0
    8.6170   -1.7700    0.6830 C   0  0  0  0  0  0  0  0  0  0  0  0
    9.7980   -1.8750   -0.0130 C   0  0  0  0  0  0  0  0  0  0  0  0
   10.0780   -1.0690   -1.0950 C   0  0  0  0  0  0  0  0  0  0  0  0
    9.1440   -0.1420   -1.4750 C   0  0  0  0  0  0  0  0  0  0  0  0
    7.9550   -0.0500   -0.7580 C   0  0  0  0  0  0  0  0  0  0  0  0
    9.6520    0.6200   -2.6590 C   0  0  0  0  0  0  0  0  0  0  0  0
   11.0990    0.1770   -2.7260 C   0  0  0  0  0  0  0  0  0  0  0  0
   11.1690   -1.0050   -1.9160 O   0  0  0  0  0  0  0  0  0  0  0  0
   -0.1680   -0.8310    2.0030 C   0  0  0  0  0  0  0  0  0  0  0  0
   -1.2040   -1.4150    1.3030 C   0  0  0  0  0  0  0  0  0  0  0  0
   -3.5800    0.3790   -1.0820 N   0  0  0  0  0  0  0  0  0  0  0  0
   -3.4180    0.3920   -2.5230 C   0  0  0  0  0  0  0  0  0  0  0  0
   -4.5960    1.3110   -0.6530 C   0  0  0  0  0  0  0  0  0  0  0  0
   -5.4430    0.8630    0.4810 C   0  0  0  0  0  0  0  0  0  0  0  0
  1  2  1  0
  2  3  1  0
  4  3  1  6
  4  5  1  0
  4 35  1  0
  5  6  1  0
  6  7  1  0
  7  8  1  6
  7 32  1  0
  8  9  1  0
  9 10  2  0
  9 31  1  0
 10 11  1  0
 11 12  2  0
 12 13  1  0
 12 30  1  0
 13 14  1  6
 13 15  1  0
 15 16  1  0
 16 17  2  0
 16 18  1  0
 18 19  2  0
 18 20  1  0
 20 21  1  0
 21 22  2  0
 21 26  1  0
 22 23  1  0
 23 24  2  0
 24 25  1  0
 24 29  1  0
 25 26  2  0
 25 27  1  0
 27 28  1  0
 28 29  1  0
 30 31  2  0
 32 33  1  0
 32 34  1  0
 34 35  1  0
M  CHG  1   3   1
M  END
