
     RDKit          3D

 35 39  0  0  0  0  0  0  0  0999 V2000
    7.9140    0.6450   -1.1670 N   0  0  0  0  0  0  0  0  0  0  0  0
    7.2120   -0.5590   -0.8460 C   0  0  0  0  0  0  0  0  0  0  0  0
    5.7240   -0.4680   -1.2380 C   0  0  1  0  0  0  0  0  0  0  0  0
    5.1130   -1.7620   -0.8540 C   0  0  0  0  0  0  0  0  0  0  0  0
    3.6620   -1.6750   -0.4790 C   0  0  0  0  0  0  0  0  0  0  0  0
    3.5790   -0.6000    0.5860 C   0  0  2  0  0  0  0  0  0  0  0  0
    2.2930   -0.6690    1.3310 C   0  0  0  0  0  0  0  0  0  0  0  0
    2.3110   -1.0590    2.5080 O   0  0  0  0  0  0  0  0  0  0  0  0
    1.0620   -0.3120    0.7510 N   0  0  0  0  0  0  0  0  0  0  0  0
   -0.2430   -0.3630    1.4030 C   0  0  1  0  0  0  0  0  0  0  0  0
   -0.5780    0.9560    1.9940 C   0  0  0  0  0  0  0  0  0  0  0  0
   -0.5980    2.1110    1.0850 C   0  0  0  0  0  0  0  0  0  0  0  0
    0.5840    2.8210    0.8080 C   0  0  0  0  0  0  0  0  0  0  0  0
    0.6110    3.9230   -0.0070 C   0  0  0  0  0  0  0  0  0  0  0  0
   -0.5390    4.3900   -0.6010 C   0  0  0  0  0  0  0  0  0  0  0  0
   -1.7050    3.7150   -0.3480 C   0  0  0  0  0  0  0  0  0  0  0  0
   -1.7210    2.5930    0.4850 C   0  0  0  0  0  0  0  0  0  0  0  0
   -1.2340   -1.1320    0.7040 C   0  0  0  0  0  0  0  0  0  0  0  0
   -2.5680   -0.9280    0.5580 C   0  0  0  0  0  0  0  0  0  0  0  0
   -3.4130   -1.7450   -0.1640 C   0  0  0  0  0  0  0  0  0  0  0  0
   -4.8470   -1.4540   -0.2890 C   0  0  0  0  0  0  0  0  0  0  0  0
   -5.5360   -1.8150   -1.4290 C   0  0  0  0  0  0  0  0  0  0  0  0
   -6.8780   -1.5650   -1.5800 C   0  0  0  0  0  0  0  0  0  0  0  0
   -7.5750   -0.9290   -0.5640 C   0  0  0  0  0  0  0  0  0  0  0  0
   -8.8720   -0.5560   -0.4240 N   0  0  0  0  0  0  0  0  0  0  0  0
   -9.0410    0.0200    0.7380 N   0  0  0  0  0  0  0  0  0  0  0  0
   -7.8730    0.0550    1.4170 C   0  0  0  0  0  0  0  0  0  0  0  0
   -7.6080    0.5630    2.6600 O   0  0  0  0  0  0  0  0  0  0  0  0
   -6.9320   -0.5500    0.5890 C   0  0  0  0  0  0  0  0  0  0  0  0
   -5.5770   -0.8290    0.6900 C   0  0  0  0  0  0  0  0  0  0  0  0
   -2.8880   -2.8640   -0.8000 C   0  0  0  0  0  0  0  0  0  0  0  0
   -1.5290   -3.0610   -0.6440 C   0  0  0  0  0  0  0  0  0  0  0  0
   -0.7470   -2.2580    0.0580 N   0  0  0  0  0  0  0  0  0  0  0  0
    3.7710    0.6910   -0.1230 C   0  0  0  0  0  0  0  0  0  0  0  0
    5.1940    0.7570   -0.6070 C   0  0  0  0  0  0  0  0  0  0  0  0
  1  2  1  0
  3  2  1  1
  3  4  1  0
  3 35  1  0
  4  5  1  0
  5  6  1  0
  6  7  1  6
  6 34  1  0
  7  8  2  0
  7  9  1  0
  9 10  1  0
 10 11  1  6
 10 18  1  0
 11 12  1  0
 12 13  2  0
 12 17  1  0
 13 14  1  0
 14 15  2  0
 15 16  1  0
 16 17  2  0
 18 19  2  0
 18 33  1  0
 19 20  1  0
 20 21  1  0
 20 31  2  0
 21 22  2  0
 21 30  1  0
 22 23  1  0
 23 24  2  0
 24 25  1  0
 24 29  1  0
 25 26  1  0
 26 27  2  0
 27 28  1  0
 27 29  1  0
 29 30  2  0
 31 32  1  0
 32 33  2  0
 34 35  1  0
M  CHG  1   1   1
M  END
