
     RDKit          3D

 35 39  0  0  0  0  0  0  0  0999 V2000
    6.2190   -0.7950    2.9380 C   0  0  0  0  0  0  0  0  0  0  0  0
    6.2650    0.1020    1.7490 C   0  0  0  0  0  0  0  0  0  0  0  0
    5.6460   -0.1700    0.6220 C   0  0  0  0  0  0  0  0  0  0  0  0
    4.8860   -1.4460    0.6100 C   0  0  0  0  0  0  0  0  0  0  0  0
    4.1220   -1.7460   -0.6130 C   0  0  1  0  0  0  0  0  0  0  0  0
    2.8020   -2.1550   -0.3070 N   0  0  0  0  0  0  0  0  0  0  0  0
    1.8510   -1.3130    0.2270 C   0  0  1  0  0  0  0  0  0  0  0  0
    2.0770    0.1000    0.5250 C   0  0  0  0  0  0  0  0  0  0  0  0
    0.6500    0.6230    0.7700 C   0  0  0  0  0  0  0  0  0  0  0  0
   -0.2870   -0.4940    0.3790 C   0  0  1  0  0  0  0  0  0  0  0  0
   -1.5480    0.0220   -0.1880 N   0  0  0  0  0  0  0  0  0  0  0  0
   -2.0310   -1.0190   -1.1200 C   0  0  0  0  0  0  0  0  0  0  0  0
   -2.4470   -2.2740   -0.3870 C   0  0  2  0  0  0  0  0  0  0  0  0
   -2.9470   -3.3480   -1.3410 C   0  0  0  0  0  0  0  0  0  0  0  0
   -3.8540   -2.7290   -0.3670 C   0  0  0  0  0  0  0  0  0  0  0  0
   -2.4790    0.0140    0.9130 C   0  0  0  0  0  0  0  0  0  0  0  0
   -3.6970    0.8620    0.8190 C   0  0  2  0  0  0  0  0  0  0  0  0
   -4.5210    0.6030    2.0650 C   0  0  0  0  0  0  0  0  0  0  0  0
   -5.2950   -0.5700    1.9070 O   0  0  0  0  0  0  0  0  0  0  0  0
   -6.0490   -0.8120    3.0500 C   0  0  0  0  0  0  0  0  0  0  0  0
   -4.3550    1.0930   -0.3760 N   0  0  0  0  0  0  0  0  0  0  0  0
   -3.6560    1.8620   -1.3700 C   0  0  0  0  0  0  0  0  0  0  0  0
   -4.2030    3.2610   -1.4720 C   0  0  0  0  0  0  0  0  0  0  0  0
   -5.5350    3.1250   -1.8660 O   0  0  0  0  0  0  0  0  0  0  0  0
   -6.3080    2.5340   -0.9010 C   0  0  0  0  0  0  0  0  0  0  0  0
   -5.7650    1.2550   -0.3550 C   0  0  0  0  0  0  0  0  0  0  0  0
    0.5510   -1.2410   -0.6230 C   0  0  0  0  0  0  0  0  0  0  0  0
    4.2490   -0.7900   -1.7070 C   0  0  0  0  0  0  0  0  0  0  0  0
    4.9430    0.3100   -1.7020 C   0  0  0  0  0  0  0  0  0  0  0  0
    4.9820    1.1650   -2.8530 N   0  0  0  0  0  0  0  0  0  0  0  0
    5.7410    2.3580   -2.8340 C   0  0  0  0  0  0  0  0  0  0  0  0
    5.7650    3.0880   -3.8570 O   0  0  0  0  0  0  0  0  0  0  0  0
    6.5100    2.7780   -1.6480 C   0  0  0  0  0  0  0  0  0  0  0  0
    6.4130    1.8370   -0.5110 C   0  0  0  0  0  0  0  0  0  0  0  0
    5.7100    0.7300   -0.5360 C   0  0  0  0  0  0  0  0  0  0  0  0
  1  2  1  0
  2  3  2  3
  3  4  1  0
  3 35  1  0
  4  5  1  0
  5  6  1  1
  5 28  1  0
  7  6  1  6
  7  8  1  0
  7 27  1  0
  8  9  1  0
  9 10  1  0
 10 11  1  6
 10 27  1  0
 11 12  1  0
 11 16  1  0
 13 12  1  6
 13 14  1  0
 13 15  1  0
 14 15  1  0
 17 16  1  6
 17 18  1  0
 17 21  1  0
 18 19  1  0
 19 20  1  0
 21 22  1  0
 21 26  1  0
 22 23  1  0
 23 24  1  0
 24 25  1  0
 25 26  1  0
 28 29  2  0
 29 30  1  0
 29 35  1  0
 30 31  1  0
 31 32  2  0
 31 33  1  0
 33 34  1  0
 34 35  2  0
M  CHG  1   6   1
M  END
