
     RDKit          3D

 34 36  0  0  0  0  0  0  0  0999 V2000
    3.4240   -0.6600    1.5190 C   0  0  0  0  0  0  0  0  0  0  0  0
    2.9880    0.8370    1.5320 C   0  0  0  0  0  0  0  0  0  0  0  0
    2.1710    1.0050    0.2630 C   0  0  0  0  0  0  0  0  0  0  0  0
    0.9220    0.8430    0.1650 N   0  0  0  0  0  0  0  0  0  0  0  0
    0.2620    0.7570   -0.8790 C   0  0  0  0  0  0  0  0  0  0  0  0
   -1.1760    0.5330   -1.0300 N   0  0  0  0  0  0  0  0  0  0  0  0
   -1.8890    0.3410    0.1840 C   0  0  0  0  0  0  0  0  0  0  0  0
   -1.1450    0.4090    1.2410 O   0  0  0  0  0  0  0  0  0  0  0  0
   -3.2780    0.0710    0.4710 C   0  0  1  0  0  0  0  0  0  0  0  0
   -3.1450   -0.4170    1.9290 N   0  0  0  0  0  0  0  0  0  0  0  0
   -4.0900    1.2800    0.6660 C   0  0  0  0  0  0  0  0  0  0  0  0
   -4.1780    2.2890   -0.3960 C   0  0  0  0  0  0  0  0  0  0  0  0
   -4.0110    2.0130   -1.6080 O   0  0  0  0  0  0  0  0  0  0  0  0
   -4.4910    3.6550   -0.0370 N   0  0  0  0  0  0  0  0  0  0  0  0
   -4.6310    4.7500   -0.9480 C   0  0  2  0  0  0  0  0  0  0  0  0
   -3.4230    5.3610   -1.2130 F   0  0  0  0  0  0  0  0  0  0  0  0
   -5.3980    5.7200   -0.2810 F   0  0  0  0  0  0  0  0  0  0  0  0
   -5.2850    4.5050   -2.1120 F   0  0  0  0  0  0  0  0  0  0  0  0
   -3.8980   -1.0300   -0.2870 C   0  0  1  0  0  0  0  0  0  0  0  0
   -4.1690   -0.6350   -1.5900 O   0  0  0  0  0  0  0  0  0  0  0  0
   -2.9340   -2.2360   -0.3240 C   0  0  0  0  0  0  0  0  0  0  0  0
   -3.5900   -3.4490   -0.8720 C   0  0  0  0  0  0  0  0  0  0  0  0
   -4.5110   -3.9310    0.1590 N   0  0  0  0  0  0  0  0  0  0  0  0
   -4.9330   -2.8910    1.0390 C   0  0  0  0  0  0  0  0  0  0  0  0
   -5.1450   -1.5470    0.3510 C   0  0  0  0  0  0  0  0  0  0  0  0
    1.5520    0.9300   -2.1160 S   0  0  0  0  0  0  0  0  0  0  0  0
    2.8960    1.1000   -0.9750 C   0  0  0  0  0  0  0  0  0  0  0  0
    4.2800    1.5230   -1.0540 C   0  0  0  0  0  0  0  0  0  0  0  0
    5.1080    0.5330   -1.7080 N   0  0  0  0  0  0  0  0  0  0  0  0
    6.3610    0.2630   -0.9720 C   0  0  0  0  0  0  0  0  0  0  0  0
    7.0680    1.2250   -0.5930 N   0  0  0  0  0  0  0  0  0  0  0  0
    8.2550    0.7720    0.1200 C   0  0  0  0  0  0  0  0  0  0  0  0
    8.3380   -0.7130   -0.1210 C   0  0  0  0  0  0  0  0  0  0  0  0
    6.9310   -1.0260   -0.5690 C   0  0  0  0  0  0  0  0  0  0  0  0
  1  2  1  0
  2  3  1  0
  3  4  1  0
  3 27  2  0
  4  5  2  0
  5  6  1  0
  5 26  1  0
  6  7  1  0
  7  8  2  0
  7  9  1  0
  9 10  1  1
  9 11  1  0
  9 19  1  0
 11 12  1  0
 12 13  2  0
 12 14  1  0
 14 15  1  0
 15 16  1  6
 15 17  1  0
 15 18  1  0
 19 20  1  6
 19 21  1  0
 19 25  1  0
 21 22  1  0
 22 23  1  0
 23 24  1  0
 24 25  1  0
 26 27  1  0
 27 28  1  0
 28 29  1  0
 29 30  1  0
 30 31  2  0
 30 34  1  0
 31 32  1  0
 32 33  1  0
 33 34  1  0
M  CHG  3  10   1  23   1  31   1
M  END
