
     RDKit          3D

 34 37  0  0  0  0  0  0  0  0999 V2000
    8.6740    3.2590    1.1550 C   0  0  0  0  0  0  0  0  0  0  0  0
    7.3190    3.3350    0.8100 O   0  0  0  0  0  0  0  0  0  0  0  0
    6.9720    2.1440    0.1300 C   0  0  2  0  0  0  0  0  0  0  0  0
    6.4470    2.5640   -1.1820 C   0  0  0  0  0  0  0  0  0  0  0  0
    5.2060    2.1800   -1.3730 C   0  0  0  0  0  0  0  0  0  0  0  0
    4.6980    1.4350   -0.2060 C   0  0  1  0  0  0  0  0  0  0  0  0
    4.4350    0.0750   -0.6270 N   0  0  2  0  0  0  0  0  0  0  0  0
    4.8550   -0.1470   -2.0020 C   0  0  0  0  0  0  0  0  0  0  0  0
    3.1070   -0.3840   -0.4610 C   0  0  2  0  0  0  0  0  0  0  0  0
    2.9560   -1.6920   -1.2530 C   0  0  0  0  0  0  0  0  0  0  0  0
    3.8500   -2.6540   -0.7930 O   0  0  0  0  0  0  0  0  0  0  0  0
    2.1240    0.6210   -0.9830 C   0  0  0  0  0  0  0  0  0  0  0  0
    1.1450    1.0320    0.1200 C   0  0  0  0  0  0  0  0  0  0  0  0
    0.4050   -0.2380    0.5190 C   0  0  2  0  0  0  0  0  0  0  0  0
   -0.7130    0.0600    1.3870 N   0  0  0  0  0  0  0  0  0  0  0  0
   -2.0480   -0.2820    0.9930 C   0  0  0  0  0  0  0  0  0  0  0  0
   -2.1740   -0.8360   -0.1150 O   0  0  0  0  0  0  0  0  0  0  0  0
   -3.1670   -0.0180    1.7940 N   0  0  0  0  0  0  0  0  0  0  0  0
   -4.5230   -0.3150    1.4960 C   0  0  0  0  0  0  0  0  0  0  0  0
   -4.9830   -0.9090    0.3530 C   0  0  0  0  0  0  0  0  0  0  0  0
   -6.3220   -1.1870    0.0850 C   0  0  0  0  0  0  0  0  0  0  0  0
   -6.7120   -1.8080   -1.1330 N   0  0  0  0  0  0  0  0  0  0  0  0
   -6.2380   -2.9370   -1.6630 C   0  0  0  0  0  0  0  0  0  0  0  0
   -6.8640   -3.2200   -2.8580 C   0  0  0  0  0  0  0  0  0  0  0  0
   -7.7750   -2.1960   -3.0620 C   0  0  0  0  0  0  0  0  0  0  0  0
   -7.6630   -1.3410   -1.9880 C   0  0  0  0  0  0  0  0  0  0  0  0
   -8.4620   -0.0950   -1.7940 C   0  0  0  0  0  0  0  0  0  0  0  0
   -7.2510   -0.8400    1.0380 C   0  0  0  0  0  0  0  0  0  0  0  0
   -6.8460   -0.2380    2.2110 C   0  0  0  0  0  0  0  0  0  0  0  0
   -5.5160    0.0180    2.4360 C   0  0  0  0  0  0  0  0  0  0  0  0
   -5.1180    0.6670    3.7080 C   0  0  0  0  0  0  0  0  0  0  0  0
    1.3960   -1.1530    1.1880 C   0  0  0  0  0  0  0  0  0  0  0  0
    2.8340   -0.7290    0.9930 C   0  0  0  0  0  0  0  0  0  0  0  0
    5.8000    1.4710    0.7860 C   0  0  0  0  0  0  0  0  0  0  0  0
  1  2  1  0
  3  2  1  1
  3  4  1  0
  3 34  1  0
  4  5  2  0
  5  6  1  0
  6  7  1  0
  6 34  1  1
  7  8  1  6
  7  9  1  0
  9 10  1  6
  9 12  1  0
  9 33  1  0
 10 11  1  0
 12 13  1  0
 13 14  1  0
 14 15  1  1
 14 32  1  0
 15 16  1  0
 16 17  2  0
 16 18  1  0
 18 19  1  0
 19 20  2  0
 19 30  1  0
 20 21  1  0
 21 22  1  0
 21 28  2  0
 22 23  1  0
 22 26  1  0
 23 24  2  0
 24 25  1  0
 25 26  2  0
 26 27  1  0
 28 29  1  0
 29 30  2  0
 30 31  1  0
 32 33  1  0
M  CHG  1   7   1
M  END
