
     RDKit          3D

 35 38  0  0  0  0  0  0  0  0999 V2000
   -3.9290    3.4160   -0.3390 C   0  0  0  0  0  0  0  0  0  0  0  0
   -5.1720    2.9760   -1.0560 C   0  0  0  0  0  0  0  0  0  0  0  0
   -5.1600    1.6180   -1.6270 C   0  0  0  0  0  0  0  0  0  0  0  0
   -5.0040    0.5070   -0.7450 N   0  0  2  0  0  0  0  0  0  0  0  0
   -5.7990    0.6050    0.4510 C   0  0  0  0  0  0  0  0  0  0  0  0
   -5.9180   -0.7680    1.0860 C   0  0  2  0  0  0  0  0  0  0  0  0
   -7.3520   -0.9980    1.5830 C   0  0  0  0  0  0  0  0  0  0  0  0
   -5.0480   -0.7490    2.3180 C   0  0  0  0  0  0  0  0  0  0  0  0
   -3.7320   -0.0960    1.9250 C   0  0  0  0  0  0  0  0  0  0  0  0
   -3.3130   -0.6660    0.6170 C   0  0  0  0  0  0  0  0  0  0  0  0
   -3.6530    0.1400   -0.5990 C   0  0  1  0  0  0  0  0  0  0  0  0
   -3.2250   -0.6600   -1.8110 C   0  0  2  0  0  0  0  0  0  0  0  0
   -3.9760   -1.9170   -2.0400 C   0  0  0  0  0  0  0  0  0  0  0  0
   -3.0410   -2.6760   -2.8710 N   0  0  0  0  0  0  0  0  0  0  0  0
   -1.7480   -2.2920   -2.4190 C   0  0  0  0  0  0  0  0  0  0  0  0
   -0.5510   -2.9800   -2.5700 C   0  0  0  0  0  0  0  0  0  0  0  0
    0.5980   -2.3890   -2.0360 C   0  0  0  0  0  0  0  0  0  0  0  0
    0.6040   -1.1880   -1.3830 C   0  0  0  0  0  0  0  0  0  0  0  0
    1.7510   -0.5680   -0.8400 N   0  0  0  0  0  0  0  0  0  0  0  0
    3.0730   -0.9960   -0.9040 C   0  0  0  0  0  0  0  0  0  0  0  0
    3.3570   -2.0510   -1.5010 O   0  0  0  0  0  0  0  0  0  0  0  0
    4.1850   -0.2410   -0.2830 C   0  0  0  0  0  0  0  0  0  0  0  0
    3.9370    0.8220    0.3250 O   0  0  0  0  0  0  0  0  0  0  0  0
    5.5180   -0.6910   -0.3590 N   0  0  0  0  0  0  0  0  0  0  0  0
    6.6630   -0.0760    0.1810 C   0  0  0  0  0  0  0  0  0  0  0  0
    6.6900    1.1190    0.8350 C   0  0  0  0  0  0  0  0  0  0  0  0
    7.8860    1.6190    1.3280 C   0  0  0  0  0  0  0  0  0  0  0  0
    7.8840    2.9250    2.0370 C   0  0  0  0  0  0  0  0  0  0  0  0
    9.0560    0.9270    1.1680 C   0  0  0  0  0  0  0  0  0  0  0  0
    9.0710   -0.2860    0.5110 C   0  0  0  0  0  0  0  0  0  0  0  0
   10.2610   -0.9830    0.3510 O   0  0  0  0  0  0  0  0  0  0  0  0
   11.4950   -0.5340    0.8240 C   0  0  0  0  0  0  0  0  0  0  0  0
    7.8710   -0.7450    0.0400 C   0  0  0  0  0  0  0  0  0  0  0  0
   -0.6470   -0.5680   -1.2790 C   0  0  0  0  0  0  0  0  0  0  0  0
   -1.8110   -1.0790   -1.7710 C   0  0  0  0  0  0  0  0  0  0  0  0
  1  2  1  0
  2  3  1  0
  4  3  1  1
  4  5  1  0
  4 11  1  0
  5  6  1  0
  6  7  1  1
  6  8  1  0
  8  9  1  0
  9 10  1  0
 11 10  1  1
 11 12  1  0
 12 13  1  1
 12 35  1  0
 13 14  1  0
 14 15  1  0
 15 16  2  0
 15 35  1  0
 16 17  1  0
 17 18  2  0
 18 19  1  0
 18 34  1  0
 19 20  1  0
 20 21  2  0
 20 22  1  0
 22 23  2  0
 22 24  1  0
 24 25  1  0
 25 26  2  0
 25 33  1  0
 26 27  1  0
 27 28  1  0
 27 29  2  0
 29 30  1  0
 30 31  1  0
 30 33  2  0
 31 32  1  0
 34 35  2  0
M  CHG  1   4   1
M  END
