
     RDKit          3D

 36 39  0  0  0  0  0  0  0  0999 V2000
   -6.8940   -4.2220   -0.2660 C   0  0  0  0  0  0  0  0  0  0  0  0
   -5.9870   -3.1280   -0.2680 O   0  0  0  0  0  0  0  0  0  0  0  0
   -6.6870   -1.7080   -0.1500 C   0  0  0  0  0  0  0  0  0  0  0  0
   -7.6470   -1.6630   -0.0740 O   0  0  0  0  0  0  0  0  0  0  0  0
   -5.4130   -0.8820   -0.2040 N   0  0  0  0  0  0  0  0  0  0  0  0
   -5.5800    0.5500   -0.1340 C   0  0  0  0  0  0  0  0  0  0  0  0
   -6.8240    1.1250   -0.2170 C   0  0  0  0  0  0  0  0  0  0  0  0
   -6.8020    2.5600   -0.2260 C   0  0  0  0  0  0  0  0  0  0  0  0
   -5.6610    3.3120   -0.1480 C   0  0  0  0  0  0  0  0  0  0  0  0
   -4.4640    2.5870   -0.0590 C   0  0  0  0  0  0  0  0  0  0  0  0
   -4.4050    1.2160   -0.0490 C   0  0  0  0  0  0  0  0  0  0  0  0
   -3.1570    0.4700    0.2840 C   0  0  0  0  0  0  0  0  0  0  0  0
   -2.2010    0.2520   -0.7260 N   0  0  0  0  0  0  0  0  0  0  0  0
   -1.0590   -0.5260   -0.2500 C   0  0  0  0  0  0  0  0  0  0  0  0
    0.0280    0.1390    0.2280 C   0  0  0  0  0  0  0  0  0  0  0  0
    1.2350   -0.5670    0.5970 C   0  0  0  0  0  0  0  0  0  0  0  0
    2.3450    0.2100    1.0970 C   0  0  0  0  0  0  0  0  0  0  0  0
    3.5950   -0.4320    0.7880 O   0  0  0  0  0  0  0  0  0  0  0  0
    4.5440    0.6010    1.0780 C   0  0  0  0  0  0  0  0  0  0  0  0
    5.7980    0.3580    0.3540 C   0  0  0  0  0  0  0  0  0  0  0  0
    6.6740   -0.6710    0.4210 C   0  0  0  0  0  0  0  0  0  0  0  0
    7.8680   -0.7110   -0.2500 C   0  0  0  0  0  0  0  0  0  0  0  0
    8.8220   -1.7020   -0.2220 O   0  0  0  0  0  0  0  0  0  0  0  0
    8.9350   -2.8670    0.4820 C   0  0  0  0  0  0  0  0  0  0  0  0
    8.2530    0.3600   -1.0790 C   0  0  0  0  0  0  0  0  0  0  0  0
    7.3230    1.4140   -1.1320 C   0  0  0  0  0  0  0  0  0  0  0  0
    6.2100    1.4170   -0.4890 C   0  0  0  0  0  0  0  0  0  0  0  0
    5.2970    2.5170   -0.6090 O   0  0  0  0  0  0  0  0  0  0  0  0
    5.6930    3.5180   -1.5420 C   0  0  0  0  0  0  0  0  0  0  0  0
    1.2210   -1.9080    0.4250 C   0  0  0  0  0  0  0  0  0  0  0  0
    0.1530   -2.6280   -0.0520 C   0  0  0  0  0  0  0  0  0  0  0  0
   -1.0170   -1.8810   -0.3860 C   0  0  0  0  0  0  0  0  0  0  0  0
   -2.1840   -2.7070   -0.7050 C   0  0  0  0  0  0  0  0  0  0  0  0
   -6.1000    4.6180   -0.1620 O   0  0  0  0  0  0  0  0  0  0  0  0
   -7.4780    4.6510    0.2590 C   0  0  0  0  0  0  0  0  0  0  0  0
   -7.9110    3.4090   -0.3310 O   0  0  0  0  0  0  0  0  0  0  0  0
  1  2  1  0
  2  3  1  0
  3  4  2  0
  3  5  1  0
  5  6  1  0
  6  7  2  0
  6 11  1  0
  7  8  1  0
  8  9  2  0
  8 36  1  0
  9 10  1  0
  9 34  1  0
 10 11  2  0
 11 12  1  0
 12 13  1  0
 13 14  1  0
 14 15  2  0
 14 32  1  0
 15 16  1  0
 16 17  1  0
 16 30  2  0
 17 18  1  0
 18 19  1  0
 19 20  1  0
 20 21  2  0
 20 27  1  0
 21 22  1  0
 22 23  1  0
 22 25  2  0
 23 24  1  0
 25 26  1  0
 26 27  2  0
 27 28  1  0
 28 29  1  0
 30 31  1  0
 31 32  2  0
 32 33  1  0
 34 35  1  0
 35 36  1  0
M  CHG  1  13   1
M  END
