
     RDKit          3D

 36 40  0  0  0  0  0  0  0  0999 V2000
    6.5640    0.3130    1.5410 C   0  0  0  0  0  0  0  0  0  0  0  0
    5.0920    0.4070    1.4150 N   0  0  0  0  0  0  0  0  0  0  0  0
    4.4270   -0.3580    0.4190 C   0  0  0  0  0  0  0  0  0  0  0  0
    5.2660   -1.1560   -0.3760 C   0  0  0  0  0  0  0  0  0  0  0  0
    4.7440   -1.9410   -1.3730 C   0  0  0  0  0  0  0  0  0  0  0  0
    3.3880   -1.9290   -1.5770 C   0  0  0  0  0  0  0  0  0  0  0  0
    2.5440   -1.1360   -0.7890 C   0  0  0  0  0  0  0  0  0  0  0  0
    3.0640   -0.3460    0.2140 C   0  0  0  0  0  0  0  0  0  0  0  0
    2.2500    0.4730    1.0380 N   0  0  0  0  0  0  0  0  0  0  0  0
    0.8550    0.6150    0.9730 C   0  0  0  0  0  0  0  0  0  0  0  0
    0.1920   -0.0090    0.1300 O   0  0  0  0  0  0  0  0  0  0  0  0
    0.1330    1.4900    1.8790 C   0  0  0  0  0  0  0  0  0  0  0  0
    0.7100    2.2060    2.8150 C   0  0  0  0  0  0  0  0  0  0  0  0
   -0.0230    3.0990    3.7400 C   0  0  0  0  0  0  0  0  0  0  0  0
   -1.3170    3.1800    3.6200 C   0  0  0  0  0  0  0  0  0  0  0  0
   -2.1030    3.9990    4.4500 O   0  0  0  0  0  0  0  0  0  0  0  0
   -1.4180    4.8630    5.3690 C   0  0  0  0  0  0  0  0  0  0  0  0
   -2.0140    2.4090    2.5990 C   0  0  0  0  0  0  0  0  0  0  0  0
   -3.3500    2.5020    2.4860 C   0  0  0  0  0  0  0  0  0  0  0  0
   -4.0930    1.7600    1.4910 C   0  0  0  0  0  0  0  0  0  0  0  0
   -5.3380    1.8940    1.4400 O   0  0  0  0  0  0  0  0  0  0  0  0
   -3.5050    0.8990    0.5780 O   0  0  0  0  0  0  0  0  0  0  0  0
   -4.1830    0.1670   -0.3940 C   0  0  1  0  0  0  0  0  0  0  0  0
   -3.5660    0.5600   -1.7370 C   0  0  0  0  0  0  0  0  0  0  0  0
   -4.4030   -0.0400   -2.8170 C   0  0  1  0  0  0  0  0  0  0  0  0
   -3.6350   -0.0870   -4.1440 C   0  0  0  0  0  0  0  0  0  0  0  0
   -5.0000   -1.3670   -2.5010 C   0  0  0  0  0  0  0  0  0  0  0  0
   -4.2480   -2.0630   -1.3490 C   0  0  0  0  0  0  0  0  0  0  0  0
   -3.9520   -3.4390   -1.3060 C   0  0  0  0  0  0  0  0  0  0  0  0
   -3.1100   -3.6170    0.2240 S   0  0  0  0  0  0  0  0  0  0  0  0
   -3.1880   -1.9010    0.7220 C   0  0  0  0  0  0  0  0  0  0  0  0
   -3.8420   -1.3310   -0.3030 C   0  0  0  0  0  0  0  0  0  0  0  0
   -1.2780    1.5980    1.7700 O   0  0  0  0  0  0  0  0  0  0  0  0
    3.0940   -2.8540   -2.7010 C   0  0  0  0  0  0  0  0  0  0  0  0
    4.2790   -3.8060   -2.6790 C   0  0  0  0  0  0  0  0  0  0  0  0
    5.4080   -2.8580   -2.3350 C   0  0  0  0  0  0  0  0  0  0  0  0
  1  2  1  0
  2  3  1  0
  3  4  2  0
  3  8  1  0
  4  5  1  0
  5  6  2  0
  5 36  1  0
  6  7  1  0
  6 34  1  0
  7  8  2  0
  8  9  1  0
  9 10  1  0
 10 11  2  0
 10 12  1  0
 12 13  2  0
 12 33  1  0
 13 14  1  0
 14 15  2  0
 15 16  1  0
 15 18  1  0
 16 17  1  0
 18 19  2  3
 18 33  1  0
 19 20  1  0
 20 21  2  0
 20 22  1  0
 23 22  1  1
 23 24  1  0
 23 32  1  0
 24 25  1  0
 25 26  1  6
 25 27  1  0
 27 28  1  0
 28 29  2  0
 28 32  1  0
 29 30  1  0
 30 31  1  0
 31 32  2  0
 34 35  1  0
 35 36  1  0
M  END
