
     RDKit          3D

 36 40  0  0  0  0  0  0  0  0999 V2000
   -7.7620   -2.2330   -1.7160 C   0  0  0  0  0  0  0  0  0  0  0  0
   -6.8000   -1.1180   -1.4340 C   0  0  0  0  0  0  0  0  0  0  0  0
   -5.7140   -1.3280   -0.6310 C   0  0  0  0  0  0  0  0  0  0  0  0
   -4.7760   -0.3090   -0.3290 C   0  0  0  0  0  0  0  0  0  0  0  0
   -3.5910   -0.6730    0.4310 C   0  0  0  0  0  0  0  0  0  0  0  0
   -3.7060   -1.4360    1.4680 O   0  0  0  0  0  0  0  0  0  0  0  0
   -2.2610   -0.2830    0.1530 N   0  0  0  0  0  0  0  0  0  0  0  0
   -1.1420   -0.6930    0.9820 C   0  0  1  0  0  0  0  0  0  0  0  0
   -0.0430   -1.2250    0.0940 C   0  0  0  0  0  0  0  0  0  0  0  0
    1.0470   -1.3020    1.0830 N   0  0  0  0  0  0  0  0  0  0  0  0
    1.8810   -2.4140    1.1970 C   0  0  0  0  0  0  0  0  0  0  0  0
    1.7260   -3.4290    0.3890 O   0  0  0  0  0  0  0  0  0  0  0  0
    2.9810   -2.6120    2.1690 C   0  0  0  0  0  0  0  0  0  0  0  0
    4.5270   -2.9540    1.3160 S   0  0  0  0  0  0  0  0  0  0  0  0
    5.1790   -1.4510    0.6180 C   0  0  0  0  0  0  0  0  0  0  0  0
    4.6600   -0.2170    0.9220 C   0  0  0  0  0  0  0  0  0  0  0  0
    5.2130    0.8980    0.3540 C   0  0  0  0  0  0  0  0  0  0  0  0
    6.2890    0.8610   -0.5300 C   0  0  0  0  0  0  0  0  0  0  0  0
    6.7990   -0.3660   -0.8290 C   0  0  0  0  0  0  0  0  0  0  0  0
    6.2620   -1.5060   -0.2710 C   0  0  0  0  0  0  0  0  0  0  0  0
    7.9340   -0.4910   -1.7640 C   0  0  0  0  0  0  0  0  0  0  0  0
    7.9070    0.6760   -2.7260 C   0  0  0  0  0  0  0  0  0  0  0  0
    7.8840    1.9440   -1.9480 C   0  0  0  0  0  0  0  0  0  0  0  0
    8.7080    2.8590   -2.0110 O   0  0  0  0  0  0  0  0  0  0  0  0
    6.7970    2.0630   -1.0670 O   0  0  0  0  0  0  0  0  0  0  0  0
    1.0030   -0.0650    1.7910 C   0  0  0  0  0  0  0  0  0  0  0  0
   -0.4350    0.4760    1.6360 C   0  0  2  0  0  0  0  0  0  0  0  0
   -0.9590    0.7740    3.0180 C   0  0  0  0  0  0  0  0  0  0  0  0
   -4.9850    0.9290   -0.8680 C   0  0  0  0  0  0  0  0  0  0  0  0
   -4.1280    1.9580   -0.5640 C   0  0  0  0  0  0  0  0  0  0  0  0
   -4.3580    3.2150   -1.0810 C   0  0  0  0  0  0  0  0  0  0  0  0
   -3.5080    4.2750   -0.7920 O   0  0  0  0  0  0  0  0  0  0  0  0
   -5.4550    3.4190   -1.9000 C   0  0  0  0  0  0  0  0  0  0  0  0
   -6.3020    2.4020   -2.1950 C   0  0  0  0  0  0  0  0  0  0  0  0
   -6.1020    1.1440   -1.6970 C   0  0  0  0  0  0  0  0  0  0  0  0
   -7.0020    0.1290   -1.9790 C   0  0  0  0  0  0  0  0  0  0  0  0
  1  2  1  0
  2  3  2  0
  2 36  1  0
  3  4  1  0
  4  5  1  0
  4 29  2  0
  5  6  2  0
  5  7  1  0
  8  7  1  6
  8  9  1  0
  8 27  1  0
  9 10  1  0
 10 11  1  0
 10 26  1  0
 11 12  2  0
 11 13  1  0
 13 14  1  0
 14 15  1  0
 15 16  2  0
 15 20  1  0
 16 17  1  0
 17 18  2  0
 18 19  1  0
 18 25  1  0
 19 20  2  0
 19 21  1  0
 21 22  1  0
 22 23  1  0
 23 24  2  0
 23 25  1  0
 26 27  1  0
 27 28  1  1
 29 30  1  0
 29 35  1  0
 30 31  2  0
 31 32  1  0
 31 33  1  0
 33 34  2  0
 34 35  1  0
 35 36  2  0
M  END
