
     RDKit          3D

 36 40  0  0  0  0  0  0  0  0999 V2000
   -5.5600   -1.7960   -2.5540 C   0  0  0  0  0  0  0  0  0  0  0  0
   -5.2230   -0.5280   -1.8470 C   0  0  0  0  0  0  0  0  0  0  0  0
   -5.4680    0.6570   -2.4800 C   0  0  0  0  0  0  0  0  0  0  0  0
   -5.1810    1.8370   -1.8800 C   0  0  0  0  0  0  0  0  0  0  0  0
   -4.6250    1.8000   -0.5870 C   0  0  0  0  0  0  0  0  0  0  0  0
   -4.3720    0.6060    0.0690 C   0  0  0  0  0  0  0  0  0  0  0  0
   -4.6600   -0.5910   -0.5360 C   0  0  0  0  0  0  0  0  0  0  0  0
   -4.4500   -1.9330   -0.0810 C   0  0  0  0  0  0  0  0  0  0  0  0
   -3.8090   -2.4110    1.4270 S   0  0  2  0  0  0  0  0  0  0  0  0
   -3.6250   -3.9840    1.3170 O   0  0  0  0  0  0  0  0  0  0  0  0
   -4.7260   -2.3470    2.6210 O   0  0  0  0  0  0  0  0  0  0  0  0
   -2.2580   -1.8620    1.8490 N   0  0  0  0  0  0  0  0  0  0  0  0
   -1.0710   -2.1580    1.1200 C   0  0  0  0  0  0  0  0  0  0  0  0
   -0.7180   -3.4050    0.6640 C   0  0  0  0  0  0  0  0  0  0  0  0
    0.4510   -3.6420   -0.0370 C   0  0  0  0  0  0  0  0  0  0  0  0
    1.3280   -2.6150   -0.3140 C   0  0  0  0  0  0  0  0  0  0  0  0
    2.5220   -2.8630   -1.0350 N   0  0  0  0  0  0  0  0  0  0  0  0
    3.4350   -1.7690   -1.2630 C   0  0  0  0  0  0  0  0  0  0  0  0
    3.8710   -1.2960   -0.0030 O   0  0  0  0  0  0  0  0  0  0  0  0
    4.7640   -0.2380    0.1300 C   0  0  0  0  0  0  0  0  0  0  0  0
    4.8000    0.7510   -0.7430 C   0  0  0  0  0  0  0  0  0  0  0  0
    5.7370    1.8470   -0.5910 C   0  0  0  0  0  0  0  0  0  0  0  0
    5.7710    2.8940   -1.5190 C   0  0  0  0  0  0  0  0  0  0  0  0
    6.6460    3.9490   -1.4060 C   0  0  0  0  0  0  0  0  0  0  0  0
    7.5020    3.9510   -0.3410 C   0  0  0  0  0  0  0  0  0  0  0  0
    7.4780    2.9340    0.5700 C   0  0  0  0  0  0  0  0  0  0  0  0
    6.5990    1.8620    0.4690 C   0  0  0  0  0  0  0  0  0  0  0  0
    6.6390    0.8150    1.4880 C   0  0  0  0  0  0  0  0  0  0  0  0
    5.6560   -0.2680    1.2680 C   0  0  0  0  0  0  0  0  0  0  0  0
    5.6010   -1.2270    2.0880 O   0  0  0  0  0  0  0  0  0  0  0  0
    1.0020   -1.3440    0.1330 C   0  0  0  0  0  0  0  0  0  0  0  0
   -0.1660   -1.1310    0.8290 C   0  0  0  0  0  0  0  0  0  0  0  0
   -3.7950    0.7020    1.4290 C   0  0  0  0  0  0  0  0  0  0  0  0
   -4.2550    2.0630    2.0150 C   0  0  0  0  0  0  0  0  0  0  0  0
   -3.6170    3.0080    1.1960 O   0  0  0  0  0  0  0  0  0  0  0  0
   -4.3070    3.1090    0.0250 C   0  0  0  0  0  0  0  0  0  0  0  0
  1  2  1  0
  2  3  2  0
  2  7  1  0
  3  4  1  0
  4  5  2  0
  5  6  1  0
  5 36  1  0
  6  7  2  0
  6 33  1  0
  7  8  1  0
  9  8  1  6
  9 10  2  0
  9 11  2  0
  9 12  1  0
 12 13  1  0
 13 14  2  0
 13 32  1  0
 14 15  1  0
 15 16  2  0
 16 17  1  0
 16 31  1  0
 17 18  1  0
 18 19  1  0
 19 20  1  0
 20 21  2  0
 20 29  1  0
 21 22  1  0
 22 23  2  0
 22 27  1  0
 23 24  1  0
 24 25  2  0
 25 26  1  0
 26 27  2  0
 27 28  1  0
 28 29  1  0
 29 30  2  0
 31 32  2  0
 33 34  1  0
 34 35  1  0
 35 36  1  0
M  END
