
     RDKit          3D

 36 39  0  0  0  0  0  0  0  0999 V2000
   -6.6880   -4.0610    0.0340 C   0  0  0  0  0  0  0  0  0  0  0  0
   -6.3900   -2.6780    0.0200 O   0  0  0  0  0  0  0  0  0  0  0  0
   -5.7200   -2.0830   -1.0220 C   0  0  0  0  0  0  0  0  0  0  0  0
   -5.3900   -2.8810   -1.9760 O   0  0  0  0  0  0  0  0  0  0  0  0
   -5.3730   -0.6590   -1.1130 C   0  0  0  0  0  0  0  0  0  0  0  0
   -5.6650    0.2270   -0.2040 C   0  0  0  0  0  0  0  0  0  0  0  0
   -6.3690    0.0650    1.0670 C   0  0  0  0  0  0  0  0  0  0  0  0
   -5.4180    0.4600    2.2090 C   0  0  0  0  0  0  0  0  0  0  0  0
   -6.0870    0.3090    3.4970 N   0  0  0  0  0  0  0  0  0  0  0  0
   -4.6640   -0.2550   -2.3460 C   0  0  1  0  0  0  0  0  0  0  0  0
   -4.3510    1.1840   -2.5050 C   0  0  0  0  0  0  0  0  0  0  0  0
   -2.9680    1.3080   -1.9240 C   0  0  0  0  0  0  0  0  0  0  0  0
   -2.3950   -0.0010   -1.7920 N   0  0  0  0  0  0  0  0  0  0  0  0
   -1.1780   -0.3900   -1.1550 C   0  0  0  0  0  0  0  0  0  0  0  0
   -0.8310   -1.5970   -1.1380 O   0  0  0  0  0  0  0  0  0  0  0  0
   -0.3720    0.7090   -0.5300 C   0  0  0  0  0  0  0  0  0  0  0  0
    0.8350    0.2650    0.0210 O   0  0  0  0  0  0  0  0  0  0  0  0
    1.7990   -0.2970   -0.8000 C   0  0  0  0  0  0  0  0  0  0  0  0
    1.6640   -0.4300   -2.1520 C   0  0  0  0  0  0  0  0  0  0  0  0
    2.6530   -1.0060   -2.9630 C   0  0  0  0  0  0  0  0  0  0  0  0
    3.7960   -1.4450   -2.3340 C   0  0  0  0  0  0  0  0  0  0  0  0
    3.9940   -1.3400   -0.9740 C   0  0  0  0  0  0  0  0  0  0  0  0
    3.0000   -0.7670   -0.2050 C   0  0  0  0  0  0  0  0  0  0  0  0
    3.0690   -0.6000    1.1330 O   0  0  0  0  0  0  0  0  0  0  0  0
    3.9490   -0.8170    2.1190 C   0  0  0  0  0  0  0  0  0  0  0  0
    5.2380   -0.0860    2.1840 C   0  0  2  0  0  0  0  0  0  0  0  0
    4.9720    1.3920    2.5240 C   0  0  0  0  0  0  0  0  0  0  0  0
    6.1780    2.1160    2.5500 O   0  0  0  0  0  0  0  0  0  0  0  0
    7.2340    1.8170    1.6770 C   0  0  0  0  0  0  0  0  0  0  0  0
    8.2950    2.6750    1.5170 C   0  0  0  0  0  0  0  0  0  0  0  0
    9.3500    2.3980    0.6590 C   0  0  0  0  0  0  0  0  0  0  0  0
    9.2760    1.2130   -0.0250 C   0  0  0  0  0  0  0  0  0  0  0  0
    8.2270    0.3280    0.1100 C   0  0  0  0  0  0  0  0  0  0  0  0
    7.2090    0.6470    0.9700 C   0  0  0  0  0  0  0  0  0  0  0  0
    6.1310   -0.2090    1.1430 O   0  0  0  0  0  0  0  0  0  0  0  0
   -3.3080   -0.9510   -2.4490 C   0  0  0  0  0  0  0  0  0  0  0  0
  1  2  1  0
  2  3  1  0
  3  4  2  0
  3  5  1  0
  5  6  2  3
 10  5  1  1
  6  7  1  0
  7  8  1  0
  8  9  1  0
 10 11  1  0
 10 36  1  0
 11 12  1  0
 12 13  1  0
 13 14  1  0
 13 36  1  0
 14 15  2  0
 14 16  1  0
 16 17  1  0
 17 18  1  0
 18 19  2  0
 18 23  1  0
 19 20  1  0
 20 21  2  0
 21 22  1  0
 22 23  2  0
 23 24  1  0
 24 25  1  0
 26 25  1  6
 26 27  1  0
 26 35  1  0
 27 28  1  0
 28 29  1  0
 29 30  2  0
 29 34  1  0
 30 31  1  0
 31 32  2  0
 32 33  1  0
 33 34  2  0
 34 35  1  0
M  CHG  1   9   1
M  END
