
     RDKit          3D

 36 39  0  0  0  0  0  0  0  0999 V2000
   11.6380    2.2700   -0.7920 C   0  0  0  0  0  0  0  0  0  0  0  0
   10.7400    1.2380   -0.4330 O   0  0  0  0  0  0  0  0  0  0  0  0
    9.3720    1.5290   -0.2580 C   0  0  0  0  0  0  0  0  0  0  0  0
    9.0400    2.7100   -0.4360 O   0  0  0  0  0  0  0  0  0  0  0  0
    8.4420    0.5460    0.0970 N   0  0  0  0  0  0  0  0  0  0  0  0
    7.0610    0.7720    0.2860 C   0  0  0  0  0  0  0  0  0  0  0  0
    6.3960    1.9510    0.1030 C   0  0  0  0  0  0  0  0  0  0  0  0
    5.0180    2.0830    0.3200 C   0  0  0  0  0  0  0  0  0  0  0  0
    4.2740    1.0090    0.7320 C   0  0  0  0  0  0  0  0  0  0  0  0
    2.8600    1.1490    0.9540 C   0  0  0  0  0  0  0  0  0  0  0  0
    2.3290    2.3410    1.4000 C   0  0  0  0  0  0  0  0  0  0  0  0
    0.9710    2.4690    1.6100 C   0  0  0  0  0  0  0  0  0  0  0  0
    0.1540    1.4250    1.3790 N   0  0  0  0  0  0  0  0  0  0  0  0
    0.6160    0.2440    0.9450 C   0  0  0  0  0  0  0  0  0  0  0  0
   -0.2830   -0.9120    0.6860 C   0  0  2  0  0  0  0  0  0  0  0  0
    0.4820   -2.0390    0.0540 C   0  0  0  0  0  0  0  0  0  0  0  0
   -0.4610   -3.1540   -0.1790 C   0  0  0  0  0  0  0  0  0  0  0  0
   -1.1680   -3.2790   -1.3490 C   0  0  0  0  0  0  0  0  0  0  0  0
   -2.0620   -4.3250   -1.5830 C   0  0  0  0  0  0  0  0  0  0  0  0
   -2.2150   -5.2600   -0.5650 C   0  0  0  0  0  0  0  0  0  0  0  0
   -1.5240   -5.1660    0.6190 C   0  0  0  0  0  0  0  0  0  0  0  0
   -0.6560   -4.1120    0.7940 C   0  0  0  0  0  0  0  0  0  0  0  0
   -1.4540   -0.5360   -0.0490 N   0  0  0  0  0  0  0  0  0  0  0  0
   -2.7380   -0.6530    0.5500 C   0  0  0  0  0  0  0  0  0  0  0  0
   -2.7880   -1.0950    1.7270 O   0  0  0  0  0  0  0  0  0  0  0  0
   -3.9790   -0.2610   -0.2090 C   0  0  1  0  0  0  0  0  0  0  0  0
   -5.1420   -0.4970    0.6930 C   0  0  0  0  0  0  0  0  0  0  0  0
   -6.4600   -0.0620    0.1520 C   0  0  0  0  0  0  0  0  0  0  0  0
   -6.4110    1.3200   -0.4020 C   0  0  2  0  0  0  0  0  0  0  0  0
   -7.6230    1.7020   -1.1910 C   0  0  0  0  0  0  0  0  0  0  0  0
   -8.8480    1.6550   -0.4350 N   0  0  0  0  0  0  0  0  0  0  0  0
   -5.1990    1.5690   -1.2730 C   0  0  0  0  0  0  0  0  0  0  0  0
   -3.9150    1.1860   -0.5740 C   0  0  0  0  0  0  0  0  0  0  0  0
    1.9680    0.1070    0.7330 C   0  0  0  0  0  0  0  0  0  0  0  0
    4.9030   -0.1890    0.9250 C   0  0  0  0  0  0  0  0  0  0  0  0
    6.2680   -0.3060    0.7070 C   0  0  0  0  0  0  0  0  0  0  0  0
  1  2  1  0
  2  3  1  0
  3  4  2  0
  3  5  1  0
  5  6  1  0
  6  7  2  0
  6 36  1  0
  7  8  1  0
  8  9  2  0
  9 10  1  0
  9 35  1  0
 10 11  2  0
 10 34  1  0
 11 12  1  0
 12 13  2  0
 13 14  1  0
 14 15  1  0
 14 34  2  0
 15 16  1  6
 15 23  1  0
 16 17  1  0
 17 18  2  0
 17 22  1  0
 18 19  1  0
 19 20  2  0
 20 21  1  0
 21 22  2  0
 23 24  1  0
 24 25  2  0
 26 24  1  1
 26 27  1  0
 26 33  1  0
 27 28  1  0
 28 29  1  0
 29 30  1  6
 29 32  1  0
 30 31  1  0
 32 33  1  0
 35 36  2  0
M  CHG  1  31   1
M  END
