
     RDKit          3D

 42 46  0  0  0  0  0  0  0  0999 V2000
   -5.8560   -1.1640   -0.6610 C   0  0  0  0  0  0  0  0  0  0  0  0
   -6.5220   -1.4980    0.6260 C   0  0  2  0  0  0  0  0  0  0  0  0
   -7.7830   -0.7190    0.9200 C   0  0  0  0  0  0  0  0  0  0  0  0
   -7.4320    0.5820    1.5590 C   0  0  0  0  0  0  0  0  0  0  0  0
   -7.2410    1.5670    0.4220 C   0  0  0  0  0  0  0  0  0  0  0  0
   -5.9500    1.6960   -0.0020 O   0  0  0  0  0  0  0  0  0  0  0  0
   -4.8390    2.3840    0.3520 C   0  0  0  0  0  0  0  0  0  0  0  0
   -4.5760    3.4000   -0.4740 O   0  0  0  0  0  0  0  0  0  0  0  0
   -3.9120    2.2030    1.4510 C   0  0  0  0  0  0  0  0  0  0  0  0
   -4.0080    3.2670    2.4110 O   0  0  0  0  0  0  0  0  0  0  0  0
   -3.0190    1.2600    1.7100 C   0  0  0  0  0  0  0  0  0  0  0  0
   -2.6210    0.0580    1.0300 C   0  0  0  0  0  0  0  0  0  0  0  0
   -1.3940    0.1180    0.1570 C   0  0  0  0  0  0  0  0  0  0  0  0
   -0.6850    1.1860   -0.0700 C   0  0  0  0  0  0  0  0  0  0  0  0
    0.4900    1.1480   -0.9270 C   0  0  0  0  0  0  0  0  0  0  0  0
    1.1240    2.2470   -1.1170 O   0  0  0  0  0  0  0  0  0  0  0  0
    1.0200    0.0310   -1.5790 N   0  0  0  0  0  0  0  0  0  0  0  0
    2.1700   -0.0020   -2.4210 C   0  0  2  0  0  0  0  0  0  0  0  0
    1.9980   -1.1950   -3.8120 S   0  0  0  0  0  0  0  0  0  0  0  0
    2.3210   -2.6400   -2.7570 C   0  0  0  0  0  0  0  0  0  0  0  0
    1.9830   -3.9470   -2.8920 C   0  0  0  0  0  0  0  0  0  0  0  0
    2.3300   -4.8290   -1.8890 C   0  0  0  0  0  0  0  0  0  0  0  0
    3.0050   -4.3780   -0.7810 C   0  0  0  0  0  0  0  0  0  0  0  0
    3.3320   -3.0410   -0.6800 C   0  0  0  0  0  0  0  0  0  0  0  0
    2.9980   -2.1130   -1.6780 C   0  0  0  0  0  0  0  0  0  0  0  0
    3.2740   -0.7500   -1.7370 N   0  0  0  0  0  0  0  0  0  0  0  0
    4.4050   -0.0490   -1.2540 C   0  0  0  0  0  0  0  0  0  0  0  0
    4.4750    1.2200   -1.5040 O   0  0  0  0  0  0  0  0  0  0  0  0
    5.5230   -0.6210   -0.4900 C   0  0  0  0  0  0  0  0  0  0  0  0
    6.6070    0.3870   -0.2680 C   0  0  0  0  0  0  0  0  0  0  0  0
    7.8170    0.5000   -0.8960 C   0  0  0  0  0  0  0  0  0  0  0  0
    8.4580    1.5580   -0.3770 N   0  0  0  0  0  0  0  0  0  0  0  0
    7.6940    2.1360    0.5760 C   0  0  0  0  0  0  0  0  0  0  0  0
    7.9260    3.2460    1.3830 C   0  0  0  0  0  0  0  0  0  0  0  0
    6.9640    3.6270    2.2840 C   0  0  0  0  0  0  0  0  0  0  0  0
    5.7880    2.9240    2.3890 C   0  0  0  0  0  0  0  0  0  0  0  0
    5.5860    1.8250    1.5720 C   0  0  0  0  0  0  0  0  0  0  0  0
    6.5210    1.3990    0.6480 C   0  0  0  0  0  0  0  0  0  0  0  0
   -3.1700   -1.1660    1.1170 C   0  0  0  0  0  0  0  0  0  0  0  0
   -4.2720   -1.6850    1.8730 C   0  0  0  0  0  0  0  0  0  0  0  0
   -3.9850   -2.5280    2.8680 O   0  0  0  0  0  0  0  0  0  0  0  0
   -5.6670   -1.4860    1.7860 N   0  0  0  0  0  0  0  0  0  0  0  0
  2  1  1  6
  2  3  1  0
  2 42  1  0
  3  4  1  0
  4  5  1  0
  5  6  1  0
  6  7  1  0
  7  8  2  0
  7  9  1  0
  9 10  1  0
  9 11  2  0
 11 12  1  0
 12 13  1  0
 12 39  2  0
 13 14  2  3
 14 15  1  0
 15 16  2  0
 15 17  1  0
 18 17  1  1
 18 19  1  0
 18 26  1  0
 19 20  1  0
 20 21  2  0
 20 25  1  0
 21 22  1  0
 22 23  2  0
 23 24  1  0
 24 25  2  0
 25 26  1  0
 26 27  1  0
 27 28  2  0
 27 29  1  0
 29 30  1  0
 30 31  2  0
 30 38  1  0
 31 32  1  0
 32 33  1  0
 33 34  2  0
 33 38  1  0
 34 35  1  0
 35 36  2  0
 36 37  1  0
 37 38  2  0
 39 40  1  0
 40 41  2  0
 40 42  1  0
M  END
