
     RDKit          3D

 42 44  0  0  0  0  0  0  0  0999 V2000
    8.6700    1.1280   -3.7050 C   0  0  0  0  0  0  0  0  0  0  0  0
    8.3250    1.1760   -2.1980 C   0  0  0  0  0  0  0  0  0  0  0  0
    8.2760   -0.1830   -1.6260 C   0  0  0  0  0  0  0  0  0  0  0  0
    8.0360   -0.2370   -0.1650 C   0  0  0  0  0  0  0  0  0  0  0  0
    6.9330    0.2550    0.3250 O   0  0  0  0  0  0  0  0  0  0  0  0
    6.5090    1.5200    0.3790 C   0  0  1  0  0  0  0  0  0  0  0  0
    5.1910    1.7760   -0.3280 C   0  0  0  0  0  0  0  0  0  0  0  0
    4.0640    1.3570    0.4640 N   0  0  0  0  0  0  0  0  0  0  0  0
    3.1080    0.4670   -0.0600 C   0  0  0  0  0  0  0  0  0  0  0  0
    3.2670    0.0370   -1.2460 O   0  0  0  0  0  0  0  0  0  0  0  0
    1.9200    0.0010    0.7000 C   0  0  0  0  0  0  0  0  0  0  0  0
    1.2080   -1.0230   -0.1080 C   0  0  0  0  0  0  0  0  0  0  0  0
   -0.0320   -1.6020    0.5220 C   0  0  2  0  0  0  0  0  0  0  0  0
    0.0600   -2.2730    1.8010 C   0  0  0  0  0  0  0  0  0  0  0  0
    0.8050   -3.4210    2.1950 C   0  0  0  0  0  0  0  0  0  0  0  0
    2.2590   -3.5910    2.1610 C   0  0  0  0  0  0  0  0  0  0  0  0
    2.9120   -3.5140    0.9600 O   0  0  0  0  0  0  0  0  0  0  0  0
   -0.7990   -2.2310   -0.5290 N   0  0  1  0  0  0  0  0  0  0  0  0
   -0.9230   -3.6690   -0.4110 C   0  0  0  0  0  0  0  0  0  0  0  0
   -1.7500   -3.9430   -1.6820 C   0  0  0  0  0  0  0  0  0  0  0  0
   -2.6200   -2.7200   -1.8280 C   0  0  0  0  0  0  0  0  0  0  0  0
   -2.1780   -1.8800   -0.6190 C   0  0  2  0  0  0  0  0  0  0  0  0
   -2.5310   -0.4700   -0.8250 C   0  0  0  0  0  0  0  0  0  0  0  0
   -4.0760   -0.3590   -0.9130 C   0  0  2  0  0  0  0  0  0  0  0  0
   -4.3950    1.1270   -1.1330 C   0  0  0  0  0  0  0  0  0  0  0  0
   -5.8180    1.3450   -1.3260 C   0  0  0  0  0  0  0  0  0  0  0  0
   -6.6660    0.3360   -1.3700 C   0  0  0  0  0  0  0  0  0  0  0  0
   -8.1300    0.4590   -1.5610 C   0  0  0  0  0  0  0  0  0  0  0  0
   -8.9360    1.4840   -1.6860 C   0  0  0  0  0  0  0  0  0  0  0  0
   -8.5630    2.9170   -1.6670 C   0  0  0  0  0  0  0  0  0  0  0  0
   -7.2850    3.0240   -2.3360 N   0  0  0  0  0  0  0  0  0  0  0  0
   -6.1740    2.8070   -1.4620 C   0  0  0  0  0  0  0  0  0  0  0  0
   -4.6540   -0.8280    0.2940 N   0  0  0  0  0  0  0  0  0  0  0  0
   -5.2540   -0.0690    1.3050 C   0  0  0  0  0  0  0  0  0  0  0  0
   -5.3730    1.1820    1.3250 O   0  0  0  0  0  0  0  0  0  0  0  0
   -5.8070   -0.6920    2.4570 O   0  0  0  0  0  0  0  0  0  0  0  0
   -6.4170    0.0570    3.4900 C   0  0  0  0  0  0  0  0  0  0  0  0
   -7.5760    0.8150    2.8800 C   0  0  0  0  0  0  0  0  0  0  0  0
    3.9490    1.8590    1.7890 C   0  0  0  0  0  0  0  0  0  0  0  0
    5.2320    1.7150    2.5760 C   0  0  0  0  0  0  0  0  0  0  0  0
    6.4530    2.0290    1.8210 C   0  0  2  0  0  0  0  0  0  0  0  0
    6.7670    3.4430    1.8970 N   0  0  0  0  0  0  0  0  0  0  0  0
  1  2  1  0
  2  3  1  0
  3  4  1  0
  4  5  1  0
  6  5  1  1
  6  7  1  0
  6 41  1  0
  7  8  1  0
  8  9  1  0
  8 39  1  0
  9 10  2  0
  9 11  1  0
 11 12  1  0
 13 12  1  6
 13 14  1  0
 13 18  1  0
 14 15  1  0
 15 16  1  0
 16 17  1  0
 18 19  1  1
 18 22  1  0
 19 20  1  0
 20 21  1  0
 21 22  1  0
 22 23  1  6
 24 23  1  1
 24 25  1  0
 24 33  1  0
 25 26  1  0
 26 27  2  0
 26 32  1  0
 27 28  1  0
 28 29  2  0
 29 30  1  0
 30 31  1  0
 31 32  1  0
 33 34  1  0
 34 35  2  0
 34 36  1  0
 36 37  1  0
 37 38  1  0
 39 40  1  0
 40 41  1  0
 41 42  1  6
M  CHG  3  18   1  31   1  42   1
M  END
