
     RDKit          3D

 42 44  0  0  0  0  0  0  0  0999 V2000
   -3.8840   -3.6870    0.6280 C   0  0  0  0  0  0  0  0  0  0  0  0
   -4.6660   -2.4200    0.8680 C   0  0  0  0  0  0  0  0  0  0  0  0
   -3.8380   -1.1670    0.5410 C   0  0  0  0  0  0  0  0  0  0  0  0
   -3.6490   -0.4150    1.6140 C   0  0  0  0  0  0  0  0  0  0  0  0
   -4.2330   -0.8210    2.9630 C   0  0  0  0  0  0  0  0  0  0  0  0
   -2.9130    0.8490    1.7060 C   0  0  0  0  0  0  0  0  0  0  0  0
   -1.7150    0.8840    2.5900 C   0  0  2  0  0  0  0  0  0  0  0  0
   -1.9210    0.7960    4.0560 C   0  0  0  0  0  0  0  0  0  0  0  0
   -0.9600    2.0370    2.2860 O   0  0  0  0  0  0  0  0  0  0  0  0
    0.2100    2.1290    3.0240 C   0  0  0  0  0  0  0  0  0  0  0  0
    1.2740    2.8470    2.2210 C   0  0  0  0  0  0  0  0  0  0  0  0
    1.8470    3.8560    2.6910 O   0  0  0  0  0  0  0  0  0  0  0  0
    1.5760    2.3060    0.9160 N   0  0  0  0  0  0  0  0  0  0  0  0
    2.0480    3.2220   -0.0800 C   0  0  0  0  0  0  0  0  0  0  0  0
    0.9690    3.8780   -0.8880 C   0  0  0  0  0  0  0  0  0  0  0  0
    1.5900    4.7900   -1.8640 N   0  0  1  0  0  0  0  0  0  0  0  0
    0.5700    5.3810   -2.6800 C   0  0  0  0  0  0  0  0  0  0  0  0
    0.9490    6.8180   -2.9050 C   0  0  0  0  0  0  0  0  0  0  0  0
    2.0680    7.1160   -1.9620 C   0  0  0  0  0  0  0  0  0  0  0  0
    2.3290    5.8270   -1.2190 C   0  0  0  0  0  0  0  0  0  0  0  0
    1.4200    0.8960    0.6410 C   0  0  2  0  0  0  0  0  0  0  0  0
    2.7840    0.3400    0.2520 C   0  0  0  0  0  0  0  0  0  0  0  0
    2.7010   -1.1180   -0.0440 C   0  0  0  0  0  0  0  0  0  0  0  0
    2.2600   -1.5230   -1.1490 O   0  0  0  0  0  0  0  0  0  0  0  0
    3.1020   -2.0920    0.8740 O   0  0  0  0  0  0  0  0  0  0  0  0
    3.0150   -3.4720    0.5710 C   0  0  0  0  0  0  0  0  0  0  0  0
    3.5290   -4.2420    1.7690 C   0  0  2  0  0  0  0  0  0  0  0  0
    4.9080   -3.8320    1.9870 N   0  0  0  0  0  0  0  0  0  0  0  0
    3.5180   -5.7330    1.5200 C   0  0  2  0  0  0  0  0  0  0  0  0
    2.2530   -6.4450    1.2110 C   0  0  0  0  0  0  0  0  0  0  0  0
    2.8520   -6.5620    2.5800 C   0  0  0  0  0  0  0  0  0  0  0  0
    0.3570    0.6030   -0.3560 C   0  0  0  0  0  0  0  0  0  0  0  0
   -0.1950   -0.7190   -0.2020 N   0  0  0  0  0  0  0  0  0  0  0  0
   -1.0850   -1.4230   -1.0390 C   0  0  0  0  0  0  0  0  0  0  0  0
   -0.6230   -2.6100   -1.3470 O   0  0  0  0  0  0  0  0  0  0  0  0
   -2.3810   -1.0470   -1.5840 C   0  0  0  0  0  0  0  0  0  0  0  0
   -2.4970   -0.8600   -3.0200 C   0  0  0  0  0  0  0  0  0  0  0  0
   -3.9060   -0.5840   -3.5800 C   0  0  0  0  0  0  0  0  0  0  0  0
   -1.6030   -0.8990   -3.9550 C   0  0  0  0  0  0  0  0  0  0  0  0
   -0.1710   -1.1590   -3.7840 C   0  0  0  0  0  0  0  0  0  0  0  0
   -2.0190   -0.6720   -5.3460 N   0  0  0  0  0  0  0  0  0  0  0  0
   -3.5060   -0.9570   -0.8500 C   0  0  0  0  0  0  0  0  0  0  0  0
  1  2  1  0
  2  3  1  0
  3  4  2  0
  3 42  1  0
  4  5  1  0
  4  6  1  0
  6  7  1  0
  7  8  1  1
  7  9  1  0
  9 10  1  0
 10 11  1  0
 11 12  2  0
 11 13  1  0
 13 14  1  0
 13 21  1  0
 14 15  1  0
 16 15  1  1
 16 17  1  0
 16 20  1  0
 17 18  1  0
 18 19  1  0
 19 20  1  0
 21 22  1  6
 21 32  1  0
 22 23  1  0
 23 24  2  0
 23 25  1  0
 25 26  1  0
 26 27  1  0
 27 28  1  6
 27 29  1  0
 29 30  1  6
 29 31  1  0
 30 31  1  0
 32 33  1  0
 33 34  1  0
 34 35  2  0
 34 36  1  0
 36 37  1  0
 36 42  2  0
 37 38  1  0
 37 39  2  3
 39 40  1  0
 39 41  1  0
M  CHG  2  16   1  28   1
M  END
