
     RDKit          3D

 42 44  0  0  0  0  0  0  0  0999 V2000
   -8.0640   -1.6140    1.4540 C   0  0  0  0  0  0  0  0  0  0  0  0
   -7.6430   -1.4150    0.0030 C   0  0  0  0  0  0  0  0  0  0  0  0
   -6.2390   -0.7550   -0.0260 C   0  0  0  0  0  0  0  0  0  0  0  0
   -5.3550   -1.5290   -0.5670 C   0  0  0  0  0  0  0  0  0  0  0  0
   -3.9230   -1.4880   -0.8640 C   0  0  0  0  0  0  0  0  0  0  0  0
   -3.4920   -1.4840   -2.0930 C   0  0  0  0  0  0  0  0  0  0  0  0
   -4.2500   -1.5160   -3.3310 C   0  0  0  0  0  0  0  0  0  0  0  0
   -5.2320   -2.3820   -3.6860 C   0  0  0  0  0  0  0  0  0  0  0  0
   -5.9040   -2.2880   -4.8860 C   0  0  0  0  0  0  0  0  0  0  0  0
   -5.5900   -1.3020   -5.7690 N   0  0  0  0  0  0  0  0  0  0  0  0
   -4.6190   -0.4290   -5.4440 C   0  0  0  0  0  0  0  0  0  0  0  0
   -3.9430   -0.5070   -4.2580 C   0  0  0  0  0  0  0  0  0  0  0  0
   -2.9050   -1.4710    0.2480 C   0  0  0  0  0  0  0  0  0  0  0  0
   -1.5560   -1.0230   -0.0850 C   0  0  0  0  0  0  0  0  0  0  0  0
   -1.2140    0.1860    0.6670 N   0  0  1  0  0  0  0  0  0  0  0  0
    0.0980    0.0190    1.3250 C   0  0  0  0  0  0  0  0  0  0  0  0
    1.1760   -0.3050    0.3600 C   0  0  0  0  0  0  0  0  0  0  0  0
    2.5300   -0.4820    1.0240 C   0  0  0  0  0  0  0  0  0  0  0  0
    2.8830    0.8380    1.6940 C   0  0  0  0  0  0  0  0  0  0  0  0
    4.2580    0.7090    2.3560 C   0  0  0  0  0  0  0  0  0  0  0  0
    5.2020    0.3980    1.3990 O   0  0  0  0  0  0  0  0  0  0  0  0
    6.4900    0.2810    1.8700 C   0  0  0  0  0  0  0  0  0  0  0  0
    7.4130   -0.0650    0.7600 C   0  0  0  0  0  0  0  0  0  0  0  0
    6.9500   -0.2470   -0.3880 O   0  0  0  0  0  0  0  0  0  0  0  0
    8.8130   -0.1840    1.0140 N   0  0  0  0  0  0  0  0  0  0  0  0
    9.3280    0.0350    2.3390 C   0  0  0  0  0  0  0  0  0  0  0  0
   10.3180   -1.0260    2.6920 C   0  0  0  0  0  0  0  0  0  0  0  0
   10.6270   -1.9070    1.6860 O   0  0  0  0  0  0  0  0  0  0  0  0
   10.8420   -1.3550    0.4520 C   0  0  2  0  0  0  0  0  0  0  0  0
   12.1210   -0.5880    0.3900 C   0  0  0  0  0  0  0  0  0  0  0  0
   12.9510   -0.4870    1.5210 N   0  0  0  0  0  0  0  0  0  0  0  0
   12.4780   -0.0190   -0.6770 O   0  0  0  0  0  0  0  0  0  0  0  0
    9.7080   -0.5120   -0.0630 C   0  0  0  0  0  0  0  0  0  0  0  0
   -1.0830    1.3320   -0.1630 C   0  0  0  0  0  0  0  0  0  0  0  0
   -2.3770    1.9020   -0.7140 C   0  0  2  0  0  0  0  0  0  0  0  0
   -1.9020    2.9010   -1.6190 O   0  0  0  0  0  0  0  0  0  0  0  0
   -3.2000    2.6410    0.2930 C   0  0  0  0  0  0  0  0  0  0  0  0
   -4.3100    1.9810    0.8600 N   0  0  0  0  0  0  0  0  0  0  0  0
   -5.4320    1.6880    0.0460 C   0  0  1  0  0  0  0  0  0  0  0  0
   -5.3210    1.7850   -1.4340 C   0  0  0  0  0  0  0  0  0  0  0  0
   -6.3090    0.5730    0.5270 C   0  0  1  0  0  0  0  0  0  0  0  0
   -7.7330    1.1960    0.4570 C   0  0  0  0  0  0  0  0  0  0  0  0
  1  2  1  0
  2  3  1  0
  3  4  2  0
  3 41  1  0
  4  5  1  0
  5  6  2  3
  5 13  1  0
  6  7  1  0
  7  8  2  0
  7 12  1  0
  8  9  1  0
  9 10  2  0
 10 11  1  0
 11 12  2  0
 13 14  1  0
 14 15  1  0
 15 16  1  6
 15 34  1  0
 16 17  1  0
 17 18  1  0
 18 19  1  0
 19 20  1  0
 20 21  1  0
 21 22  1  0
 22 23  1  0
 23 24  2  0
 23 25  1  0
 25 26  1  0
 25 33  1  0
 26 27  1  0
 27 28  1  0
 28 29  1  0
 29 30  1  1
 29 33  1  0
 30 31  1  0
 30 32  2  0
 34 35  1  0
 35 36  1  6
 35 37  1  0
 37 38  1  0
 38 39  1  0
 39 40  1  6
 39 41  1  0
 41 42  1  6
M  CHG  3  10   1  15   1  38   1
M  END
