
     RDKit          3D

 42 44  0  0  0  0  0  0  0  0999 V2000
  -13.2420    1.4960   -1.3420 C   0  0  0  0  0  0  0  0  0  0  0  0
  -11.7870    1.1430   -1.4730 C   0  0  0  0  0  0  0  0  0  0  0  0
  -11.4020    0.2780   -0.3810 N   0  0  0  0  0  0  0  0  0  0  0  0
   -9.9880    0.4030   -0.2030 C   0  0  0  0  0  0  0  0  0  0  0  0
   -9.4170   -0.6060    0.7830 C   0  0  2  0  0  0  0  0  0  0  0  0
  -10.0860   -0.3950    2.1350 C   0  0  0  0  0  0  0  0  0  0  0  0
   -7.9850   -0.4770    0.8810 N   0  0  0  0  0  0  0  0  0  0  0  0
   -7.1590   -1.5980    0.6370 C   0  0  0  0  0  0  0  0  0  0  0  0
   -7.6560   -2.7090    0.3410 O   0  0  0  0  0  0  0  0  0  0  0  0
   -5.6660   -1.4840    0.7250 C   0  0  1  0  0  0  0  0  0  0  0  0
   -5.0370   -2.8540    0.5090 C   0  0  0  0  0  0  0  0  0  0  0  0
   -5.2210   -0.6420   -0.4170 C   0  0  0  0  0  0  0  0  0  0  0  0
   -6.0970   -0.2480   -1.2280 O   0  0  0  0  0  0  0  0  0  0  0  0
   -3.8180   -0.3160   -0.5480 C   0  0  0  0  0  0  0  0  0  0  0  0
   -3.4000    0.4180   -1.5550 C   0  0  0  0  0  0  0  0  0  0  0  0
   -4.3510    0.9140   -2.5590 C   0  0  0  0  0  0  0  0  0  0  0  0
   -2.0200    0.7200   -1.6490 O   0  0  0  0  0  0  0  0  0  0  0  0
   -1.2260    0.7860   -0.4720 C   0  0  2  0  0  0  0  0  0  0  0  0
   -1.8710    1.8720    0.3870 C   0  0  0  0  0  0  0  0  0  0  0  0
   -1.4530    3.1870   -0.2000 C   0  0  0  0  0  0  0  0  0  0  0  0
   -0.2620    2.8920   -1.0490 C   0  0  0  0  0  0  0  0  0  0  0  0
    0.1090    1.4270   -0.8060 C   0  0  1  0  0  0  0  0  0  0  0  0
    1.0740    1.3210    0.1690 O   0  0  0  0  0  0  0  0  0  0  0  0
    2.3820    0.9070    0.0350 C   0  0  0  0  0  0  0  0  0  0  0  0
    3.2150    0.8580    1.1600 C   0  0  0  0  0  0  0  0  0  0  0  0
    4.5440    0.4510    1.0800 C   0  0  0  0  0  0  0  0  0  0  0  0
    5.1320    0.0730   -0.0880 C   0  0  0  0  0  0  0  0  0  0  0  0
    6.4680   -0.3490   -0.2630 N   0  0  0  0  0  0  0  0  0  0  0  0
    7.3800   -0.5150    0.7740 C   0  0  0  0  0  0  0  0  0  0  0  0
    7.1060   -0.3100    1.9740 O   0  0  0  0  0  0  0  0  0  0  0  0
    8.7820   -0.9650    0.4730 C   0  0  1  0  0  0  0  0  0  0  0  0
    9.5320   -1.0770    1.7680 C   0  0  0  0  0  0  0  0  0  0  0  0
    8.7430   -2.3440   -0.1510 C   0  0  0  0  0  0  0  0  0  0  0  0
    9.4730   -0.0260   -0.4500 C   0  0  0  0  0  0  0  0  0  0  0  0
   10.8210   -0.3890   -0.7980 N   0  0  0  0  0  0  0  0  0  0  0  0
   11.9020   -0.3300    0.1350 C   0  0  0  0  0  0  0  0  0  0  0  0
   12.0290    0.5620    1.0650 N   0  0  0  0  0  0  0  0  0  0  0  0
   13.2320    0.3420    1.8380 C   0  0  0  0  0  0  0  0  0  0  0  0
   13.8420   -0.8650    1.2140 C   0  0  0  0  0  0  0  0  0  0  0  0
   13.0420   -1.2180    0.2370 C   0  0  0  0  0  0  0  0  0  0  0  0
    4.2910    0.1240   -1.2160 C   0  0  0  0  0  0  0  0  0  0  0  0
    2.9830    0.5240   -1.1400 C   0  0  0  0  0  0  0  0  0  0  0  0
  1  2  1  0
  2  3  1  0
  3  4  1  0
  4  5  1  0
  5  6  1  1
  5  7  1  0
  7  8  1  0
  8  9  2  0
  8 10  1  0
 10 11  1  6
 10 12  1  0
 12 13  2  0
 12 14  1  0
 14 15  2  3
 15 16  1  0
 15 17  1  0
 18 17  1  6
 18 19  1  0
 18 22  1  0
 19 20  1  0
 20 21  1  0
 21 22  1  0
 22 23  1  1
 23 24  1  0
 24 25  2  0
 24 42  1  0
 25 26  1  0
 26 27  2  0
 27 28  1  0
 27 41  1  0
 28 29  1  0
 29 30  2  0
 29 31  1  0
 31 32  1  1
 31 33  1  0
 31 34  1  0
 34 35  1  0
 35 36  1  0
 36 37  2  0
 36 40  1  0
 37 38  1  0
 38 39  1  0
 39 40  2  0
 41 42  2  0
M  CHG  2   3   1  37   1
M  END
