
     RDKit          3D

 42 45  0  0  0  0  0  0  0  0999 V2000
   -5.8430   -0.3420   -2.6410 C   0  0  0  0  0  0  0  0  0  0  0  0
   -4.4120    0.0250   -2.5730 C   0  0  0  0  0  0  0  0  0  0  0  0
   -4.0680    1.0480   -1.7520 C   0  0  0  0  0  0  0  0  0  0  0  0
   -5.0640    1.7450   -0.9810 C   0  0  0  0  0  0  0  0  0  0  0  0
   -5.0750    2.2940    0.1910 C   0  0  0  0  0  0  0  0  0  0  0  0
   -4.0160    2.4090    1.2120 C   0  0  0  0  0  0  0  0  0  0  0  0
   -4.0630    1.2370    2.1630 C   0  0  0  0  0  0  0  0  0  0  0  0
   -5.1510    0.5440    2.4560 C   0  0  0  0  0  0  0  0  0  0  0  0
   -4.7720   -0.4960    3.4050 C   0  0  0  0  0  0  0  0  0  0  0  0
   -3.3340   -0.3120    3.6160 C   0  0  0  0  0  0  0  0  0  0  0  0
   -2.9110    0.7260    2.8720 C   0  0  0  0  0  0  0  0  0  0  0  0
   -1.5400    1.2410    2.8030 C   0  0  0  0  0  0  0  0  0  0  0  0
   -0.5100    0.2250    2.3620 C   0  0  0  0  0  0  0  0  0  0  0  0
    0.5600    0.9220    1.6880 N   0  0  0  0  0  0  0  0  0  0  0  0
    1.1840    0.5510    0.4790 C   0  0  0  0  0  0  0  0  0  0  0  0
    1.9230    1.4760   -0.0410 O   0  0  0  0  0  0  0  0  0  0  0  0
    1.1190   -0.6820   -0.2490 C   0  0  0  0  0  0  0  0  0  0  0  0
    2.2720   -1.3360   -0.5480 C   0  0  0  0  0  0  0  0  0  0  0  0
    3.5130   -0.7950   -0.1340 N   0  0  0  0  0  0  0  0  0  0  0  0
    4.7840   -1.3630   -0.3900 C   0  0  0  0  0  0  0  0  0  0  0  0
    4.8640   -2.4260   -1.0250 O   0  0  0  0  0  0  0  0  0  0  0  0
    6.0770   -0.7720    0.0560 C   0  0  0  0  0  0  0  0  0  0  0  0
    5.9550    0.4770    0.7330 N   0  0  0  0  0  0  0  0  0  0  0  0
    5.4430    1.6580    0.1470 C   0  0  0  0  0  0  0  0  0  0  0  0
    5.0670    1.6570   -1.0510 O   0  0  0  0  0  0  0  0  0  0  0  0
    5.3430    2.8800    0.9030 C   0  0  0  0  0  0  0  0  0  0  0  0
    5.6560    3.1950    2.1710 C   0  0  0  0  0  0  0  0  0  0  0  0
    5.4700    4.4200    2.6570 C   0  0  0  0  0  0  0  0  0  0  0  0
    4.9260    5.3690    1.7680 C   0  0  0  0  0  0  0  0  0  0  0  0
    4.7120    4.4390    0.2750 S   0  0  0  0  0  0  0  0  0  0  0  0
    2.2180   -2.5760   -1.3110 C   0  0  0  0  0  0  0  0  0  0  0  0
    1.5350   -2.7350   -2.4900 C   0  0  0  0  0  0  0  0  0  0  0  0
    1.7120   -4.0500   -2.9130 C   0  0  0  0  0  0  0  0  0  0  0  0
    1.1840   -4.6010   -4.0550 O   0  0  0  0  0  0  0  0  0  0  0  0
    1.4530   -5.9580   -4.3530 C   0  0  0  0  0  0  0  0  0  0  0  0
    2.5150   -4.6170   -1.9340 C   0  0  0  0  0  0  0  0  0  0  0  0
    2.7740   -3.7060   -1.0290 O   0  0  0  0  0  0  0  0  0  0  0  0
   -0.1480   -1.3000   -0.6830 C   0  0  0  0  0  0  0  0  0  0  0  0
   -0.2270   -2.5670   -0.4630 O   0  0  0  0  0  0  0  0  0  0  0  0
   -1.2560   -0.6820   -1.2940 N   0  0  0  0  0  0  0  0  0  0  0  0
   -1.7530    0.5750   -0.8700 C   0  0  0  0  0  0  0  0  0  0  0  0
   -2.6220    1.3460   -1.7790 C   0  0  0  0  0  0  0  0  0  0  0  0
  1  2  1  0
  2  3  2  3
  3  4  1  0
  3 42  1  0
  4  5  2  0
  5  6  1  0
  6  7  1  0
  7  8  2  0
  7 11  1  0
  8  9  1  0
  9 10  1  0
 10 11  2  0
 11 12  1  0
 12 13  1  0
 13 14  1  0
 14 15  1  0
 15 16  2  0
 15 17  1  0
 17 18  2  3
 17 38  1  0
 18 19  1  0
 18 31  1  0
 19 20  1  0
 20 21  2  0
 20 22  1  0
 22 23  1  0
 23 24  1  0
 24 25  2  0
 24 26  1  0
 26 27  2  0
 26 30  1  0
 27 28  1  0
 28 29  2  0
 29 30  1  0
 31 32  2  0
 31 37  1  0
 32 33  1  0
 33 34  1  0
 33 36  2  0
 34 35  1  0
 36 37  1  0
 38 39  2  0
 38 40  1  0
 40 41  1  0
 41 42  1  0
M  END
