
     RDKit          3D

 30 30  0  0  0  0  0  0  0  0999 V2000
    3.3610   -3.6050    1.6050 O   0  0  0  0  0  0  0  0  0  0  0  0
    3.4930   -3.5060    0.4040 C   0  0  0  0  0  0  0  0  0  0  0  0
    4.1420   -4.4790   -0.3280 O   0  0  0  0  0  0  0  0  0  0  0  0
    2.9800   -2.3180   -0.2380 N   0  0  0  0  0  0  0  0  0  0  0  0
    2.6490   -1.2180    0.6070 C   0  0  0  0  0  0  0  0  0  0  0  0
    2.3320   -1.3650    1.7790 O   0  0  0  0  0  0  0  0  0  0  0  0
    2.6810    0.1680   -0.0170 C   0  0  2  0  0  0  0  0  0  0  0  0
    1.7380    0.4870   -0.8430 O   0  0  0  0  0  0  0  0  0  0  0  0
    1.3100    1.7110   -0.6110 O   0  0  0  0  0  0  0  0  0  0  0  0
    0.0840    1.4870    0.1360 C   0  0  0  0  0  0  0  0  0  0  0  0
   -0.6320    0.6410   -0.9390 C   0  0  0  0  0  0  0  0  0  0  0  0
   -1.9200    0.3670   -0.6280 N   0  0  0  0  0  0  0  0  0  0  0  0
   -2.6710   -0.4100    0.2210 C   0  0  0  0  0  0  0  0  0  0  0  0
   -2.2120   -1.1710    1.0630 O   0  0  0  0  0  0  0  0  0  0  0  0
   -4.1120   -0.2320    0.0170 N   0  0  0  0  0  0  0  0  0  0  0  0
   -4.7390    0.3400   -1.1170 C   0  0  0  0  0  0  0  0  0  0  0  0
   -5.4850    1.6090   -0.8000 C   0  0  0  0  0  0  0  0  0  0  0  0
   -5.8920    1.6350    0.5400 O   0  0  0  0  0  0  0  0  0  0  0  0
   -6.2190    0.4050    1.0690 C   0  0  1  0  0  0  0  0  0  0  0  0
   -7.3700   -0.2550    0.3700 C   0  0  0  0  0  0  0  0  0  0  0  0
   -7.4890   -1.5640    0.8580 O   0  0  0  0  0  0  0  0  0  0  0  0
   -5.0010   -0.4060    1.1620 C   0  0  0  0  0  0  0  0  0  0  0  0
   -4.6740   -1.1840    2.0400 O   0  0  0  0  0  0  0  0  0  0  0  0
    3.9960    0.1660   -0.8370 C   0  0  0  0  0  0  0  0  0  0  0  0
    4.0050    0.3960   -2.0220 O   0  0  0  0  0  0  0  0  0  0  0  0
    5.1170   -0.0810   -0.0890 N   0  0  0  0  0  0  0  0  0  0  0  0
    6.4700   -0.1010   -0.5430 C   0  0  0  0  0  0  0  0  0  0  0  0
    6.3850    1.3790   -1.3650 C   0  0  0  0  0  0  0  0  0  0  0  0
    5.7540    1.9670   -0.3670 O   0  0  0  0  0  0  0  0  0  0  0  0
    5.8710    2.9880    0.2800 O   0  0  0  0  0  0  0  0  0  0  0  0
  1  2  2  0
  2  3  1  0
  2  4  1  0
  4  5  1  0
  5  6  2  0
  5  7  1  0
  7  8  1  6
  7 24  1  0
  8  9  1  0
  9 10  1  0
 10 11  1  0
 11 12  1  0
 12 13  1  0
 13 14  2  0
 13 15  1  0
 15 16  1  0
 15 22  1  0
 16 17  1  0
 17 18  1  0
 18 19  1  0
 19 20  1  6
 19 22  1  0
 20 21  1  0
 22 23  2  0
 24 25  2  0
 24 26  1  0
 26 27  1  0
 27 28  1  0
 28 29  1  0
 29 30  1  0
M  END
