
     RDKit          3D

 30 32  0  0  0  0  0  0  0  0999 V2000
   -3.6390    2.5180    3.7230 O   0  0  0  0  0  0  0  0  0  0  0  0
   -4.4940    2.4710    2.7960 C   0  0  0  0  0  0  0  0  0  0  0  0
   -5.6520    3.2370    2.8220 O   0  0  0  0  0  0  0  0  0  0  0  0
   -4.2660    1.6290    1.7210 O   0  0  0  0  0  0  0  0  0  0  0  0
   -3.1000    0.8170    1.6310 C   0  0  0  0  0  0  0  0  0  0  0  0
   -3.1260    0.0160    0.3660 C   0  0  1  0  0  0  0  0  0  0  0  0
   -2.0370   -0.8430    0.1330 O   0  0  0  0  0  0  0  0  0  0  0  0
   -0.7320   -0.3870    0.0240 C   0  0  0  0  0  0  0  0  0  0  0  0
   -0.5510    0.8630    0.1440 O   0  0  0  0  0  0  0  0  0  0  0  0
    0.3800   -1.2040   -0.2070 N   0  0  0  0  0  0  0  0  0  0  0  0
    1.6870   -0.6350   -0.3030 C   0  0  2  0  0  0  0  0  0  0  0  0
    2.3220   -0.8620   -1.6300 C   0  0  0  0  0  0  0  0  0  0  0  0
    1.6580   -1.3890   -2.5610 O   0  0  0  0  0  0  0  0  0  0  0  0
    3.6740   -0.4570   -1.7560 N   0  0  0  0  0  0  0  0  0  0  0  0
    4.4920   -0.4010   -0.7490 C   0  0  0  0  0  0  0  0  0  0  0  0
    5.9020    0.0270   -0.9150 C   0  0  0  0  0  0  0  0  0  0  0  0
    6.8100   -0.3550    0.1940 C   0  0  0  0  0  0  0  0  0  0  0  0
    6.1940   -0.3240    1.4640 O   0  0  0  0  0  0  0  0  0  0  0  0
    4.8830   -0.7160    1.6740 C   0  0  0  0  0  0  0  0  0  0  0  0
    4.4360   -1.0350    2.8110 O   0  0  0  0  0  0  0  0  0  0  0  0
    4.0110   -0.7560    0.5390 N   0  0  0  0  0  0  0  0  0  0  0  0
    2.6380   -1.1640    0.6960 C   0  0  0  0  0  0  0  0  0  0  0  0
    2.3600   -1.9230    1.6490 O   0  0  0  0  0  0  0  0  0  0  0  0
   -4.4730   -0.5360   -0.0270 C   0  0  0  0  0  0  0  0  0  0  0  0
   -4.1020   -0.2040   -1.3740 N   0  0  0  0  0  0  0  0  0  0  0  0
   -4.3650   -0.6990   -2.6600 C   0  0  0  0  0  0  0  0  0  0  0  0
   -5.1170   -1.7120   -2.8610 O   0  0  0  0  0  0  0  0  0  0  0  0
   -3.8280   -0.1250   -3.8050 O   0  0  0  0  0  0  0  0  0  0  0  0
   -3.3370    0.8620   -0.8610 C   0  0  0  0  0  0  0  0  0  0  0  0
   -2.9720    2.0050   -1.2210 O   0  0  0  0  0  0  0  0  0  0  0  0
  1  2  2  0
  2  3  1  0
  2  4  1  0
  4  5  1  0
  6  5  1  1
  6  7  1  0
  6 24  1  0
  6 29  1  0
  7  8  1  0
  8  9  2  0
  8 10  1  0
 11 10  1  6
 11 12  1  0
 11 22  1  0
 12 13  2  0
 12 14  1  0
 14 15  2  0
 15 16  1  0
 15 21  1  0
 16 17  1  0
 17 18  1  0
 18 19  1  0
 19 20  2  0
 19 21  1  0
 21 22  1  0
 22 23  2  0
 24 25  1  0
 25 26  1  0
 25 29  1  0
 26 27  2  0
 26 28  1  0
 29 30  2  0
M  END
