
     RDKit          3D

 29 30  0  0  0  0  0  0  0  0999 V2000
   -1.5410    4.3870   -0.7920 O   0  0  0  0  0  0  0  0  0  0  0  0
   -1.8880    3.2180   -1.1150 C   0  0  0  0  0  0  0  0  0  0  0  0
   -1.6590    2.1430   -0.1090 C   0  0  0  0  0  0  0  0  0  0  0  0
   -1.9070    0.8370   -0.6390 N   0  0  0  0  0  0  0  0  0  0  0  0
   -1.6040   -0.2960    0.1590 C   0  0  0  0  0  0  0  0  0  0  0  0
   -2.6220   -0.7560    1.0360 N   0  0  0  0  0  0  0  0  0  0  0  0
   -2.6890   -0.3190    2.7660 P   0  0  0  0  0  0  0  0  0  0  0  0
   -3.2760   -1.6310    3.6890 O   0  0  0  0  0  0  0  0  0  0  0  0
   -3.5360    1.1450    3.0550 O   0  0  0  0  0  0  0  0  0  0  0  0
   -0.4570   -0.9470    0.1430 C   0  0  0  0  0  0  0  0  0  0  0  0
   -0.1810   -2.3980    1.2170 P   0  0  0  0  0  0  0  0  0  0  0  0
   -1.2370   -3.7030    0.8560 O   0  0  0  0  0  0  0  0  0  0  0  0
   -0.1330   -1.9940    2.8820 O   0  0  0  0  0  0  0  0  0  0  0  0
    0.6640   -0.5310   -0.7480 C   0  0  2  0  0  0  0  0  0  0  0  0
    0.4020    0.5570   -1.5270 O   0  0  0  0  0  0  0  0  0  0  0  0
    1.0990   -1.7560   -1.5680 C   0  0  0  0  0  0  0  0  0  0  0  0
    2.0730   -2.3890   -0.8320 O   0  0  0  0  0  0  0  0  0  0  0  0
    2.1790   -1.7950    0.3560 N   0  0  0  0  0  0  0  0  0  0  0  0
    1.9590   -0.3700    0.0630 C   0  0  2  0  0  0  0  0  0  0  0  0
    1.7790    0.3760    1.1900 O   0  0  0  0  0  0  0  0  0  0  0  0
    2.9270    0.1200   -0.8260 O   0  0  0  0  0  0  0  0  0  0  0  0
    4.2210    0.3730   -0.3900 C   0  0  0  0  0  0  0  0  0  0  0  0
    4.4650    0.1400    0.8240 O   0  0  0  0  0  0  0  0  0  0  0  0
    5.2170    0.8640   -1.2490 O   0  0  0  0  0  0  0  0  0  0  0  0
    6.4440    1.0980   -0.8130 O   0  0  0  0  0  0  0  0  0  0  0  0
    7.2320    1.2270   -1.8520 O   0  0  0  0  0  0  0  0  0  0  0  0
   -2.4590    0.5870   -1.9530 C   0  0  0  0  0  0  0  0  0  0  0  0
   -2.2860    1.7040   -2.9240 C   0  0  0  0  0  0  0  0  0  0  0  0
   -2.4510    2.9700   -2.3450 O   0  0  0  0  0  0  0  0  0  0  0  0
  1  2  2  0
  2  3  1  0
  2 29  1  0
  3  4  1  0
  4  5  1  0
  4 27  1  0
  5  6  1  0
  5 10  2  3
  6  7  1  0
  7  8  1  0
  7  9  1  0
 10 11  1  0
 10 14  1  0
 11 12  1  0
 11 13  1  0
 14 15  1  6
 14 16  1  0
 14 19  1  0
 16 17  1  0
 17 18  1  0
 18 19  1  0
 19 20  1  1
 19 21  1  0
 21 22  1  0
 22 23  2  0
 22 24  1  0
 24 25  1  0
 25 26  1  0
 27 28  1  0
 28 29  1  0
M  END
