
     RDKit          3D

 31 32  0  0  0  0  0  0  0  0999 V2000
    2.4600   -2.4940   -0.5160 O   0  0  0  0  0  0  0  0  0  0  0  0
    1.3010   -2.4440    0.0570 C   0  0  0  0  0  0  0  0  0  0  0  0
    1.3170   -1.7310    1.3520 C   0  0  0  0  0  0  0  0  0  0  0  0
    1.6870   -0.3290    1.1270 N   0  0  0  0  0  0  0  0  0  0  0  0
    2.9960   -0.3130    0.5230 N   0  0  0  0  0  0  0  0  0  0  0  0
    3.0730    0.4040   -0.6930 C   0  0  0  0  0  0  0  0  0  0  0  0
    4.3660    0.3310   -1.2140 O   0  0  0  0  0  0  0  0  0  0  0  0
    5.4810    0.7900   -0.5850 C   0  0  0  0  0  0  0  0  0  0  0  0
    5.3960    1.3290    0.5470 O   0  0  0  0  0  0  0  0  0  0  0  0
    6.7720    0.6950   -1.1470 O   0  0  0  0  0  0  0  0  0  0  0  0
    1.0300    0.8530    1.4420 C   0  0  0  0  0  0  0  0  0  0  0  0
    1.6550    1.4930    2.4350 O   0  0  0  0  0  0  0  0  0  0  0  0
   -0.1150    1.5320    0.9730 N   0  0  0  0  0  0  0  0  0  0  0  0
   -0.0480    2.9780    0.9900 C   0  0  0  0  0  0  0  0  0  0  0  0
    1.0100    3.5280    1.4960 O   0  0  0  0  0  0  0  0  0  0  0  0
   -1.0330    3.7980    0.5060 O   0  0  0  0  0  0  0  0  0  0  0  0
   -2.1800    3.2890   -0.0680 C   0  0  1  0  0  0  0  0  0  0  0  0
   -2.4530    3.8280   -1.3470 O   0  0  0  0  0  0  0  0  0  0  0  0
   -3.6180    4.5450   -1.5230 C   0  0  0  0  0  0  0  0  0  0  0  0
   -4.4430    4.7300   -0.5700 O   0  0  0  0  0  0  0  0  0  0  0  0
   -3.9720    5.1180   -2.7590 O   0  0  0  0  0  0  0  0  0  0  0  0
   -2.2580    1.8030   -0.0770 C   0  0  0  0  0  0  0  0  0  0  0  0
   -1.3150    0.9670    0.4010 C   0  0  0  0  0  0  0  0  0  0  0  0
   -1.5160   -0.3820    0.3390 O   0  0  0  0  0  0  0  0  0  0  0  0
   -2.1880   -1.3780    1.0070 C   0  0  0  0  0  0  0  0  0  0  0  0
   -3.1460   -2.0140   -0.0030 C   0  0  0  0  0  0  0  0  0  0  0  0
   -4.3470   -1.7170    0.1230 O   0  0  0  0  0  0  0  0  0  0  0  0
   -2.5650   -2.8240   -0.9130 O   0  0  0  0  0  0  0  0  0  0  0  0
   -1.9420   -4.0500   -0.8180 C   0  0  0  0  0  0  0  0  0  0  0  0
   -0.6210   -4.1120   -0.1400 C   0  0  0  0  0  0  0  0  0  0  0  0
    0.2230   -3.0450   -0.5950 N   0  0  0  0  0  0  0  0  0  0  0  0
  1  2  2  0
  2  3  1  0
  2 31  1  0
  3  4  1  0
  4  5  1  0
  4 11  1  0
  5  6  1  0
  6  7  1  0
  7  8  1  0
  8  9  2  0
  8 10  1  0
 11 12  2  0
 11 13  1  0
 13 14  1  0
 13 23  1  0
 14 15  2  0
 14 16  1  0
 16 17  1  0
 17 18  1  6
 17 22  1  0
 18 19  1  0
 19 20  2  0
 19 21  1  0
 22 23  2  0
 23 24  1  0
 24 25  1  0
 25 26  1  0
 26 27  2  0
 26 28  1  0
 28 29  1  0
 29 30  1  0
 30 31  1  0
M  END
