
     RDKit          3D

 30 32  0  0  0  0  0  0  0  0999 V2000
    3.6380   -1.5830    0.7270 O   0  0  0  0  0  0  0  0  0  0  0  0
    4.3150   -0.7520    1.3730 C   0  0  0  0  0  0  0  0  0  0  0  0
    3.7040    0.5500    1.8040 C   0  0  0  0  0  0  0  0  0  0  0  0
    2.3840    0.6580    1.4000 O   0  0  0  0  0  0  0  0  0  0  0  0
    2.2670    0.5860    0.0300 C   0  0  1  0  0  0  0  0  0  0  0  0
    1.2520   -0.4720   -0.3260 C   0  0  0  0  0  0  0  0  0  0  0  0
    0.0660    0.3260   -0.7910 N   0  0  0  0  0  0  0  0  0  0  0  0
   -1.2630    0.0110   -0.4690 C   0  0  0  0  0  0  0  0  0  0  0  0
   -1.4980   -1.0040    0.2650 O   0  0  0  0  0  0  0  0  0  0  0  0
   -2.3590    0.7060   -0.8790 O   0  0  0  0  0  0  0  0  0  0  0  0
   -3.6630    0.3690   -0.5450 C   0  0  0  0  0  0  0  0  0  0  0  0
   -4.5570   -0.4590   -1.1990 C   0  0  0  0  0  0  0  0  0  0  0  0
   -5.7170   -0.5070   -0.5280 N   0  0  0  0  0  0  0  0  0  0  0  0
   -5.5780    0.2790    0.5460 C   0  0  0  0  0  0  0  0  0  0  0  0
   -4.3300    0.8110    0.5370 N   0  0  0  0  0  0  0  0  0  0  0  0
   -6.7020    0.4400    1.5030 C   0  0  0  0  0  0  0  0  0  0  0  0
   -7.5680   -0.6470    1.5000 O   0  0  0  0  0  0  0  0  0  0  0  0
   -7.9420   -0.9530    0.2370 O   0  0  0  0  0  0  0  0  0  0  0  0
   -6.9530   -1.1770   -0.7300 C   0  0  0  0  0  0  0  0  0  0  0  0
   -7.1340   -1.9240   -1.7220 O   0  0  0  0  0  0  0  0  0  0  0  0
    0.6860    1.3500   -1.5590 C   0  0  1  0  0  0  0  0  0  0  0  0
   -0.1020    2.4320   -2.0990 C   0  0  0  0  0  0  0  0  0  0  0  0
    0.5630    3.2800   -2.8260 O   0  0  0  0  0  0  0  0  0  0  0  0
   -1.4250    2.7270   -1.9830 O   0  0  0  0  0  0  0  0  0  0  0  0
    1.7090    1.8480   -0.5540 C   0  0  0  0  0  0  0  0  0  0  0  0
    2.0130    2.9750   -0.2790 O   0  0  0  0  0  0  0  0  0  0  0  0
    5.6560   -1.0500    1.6920 N   0  0  0  0  0  0  0  0  0  0  0  0
    6.3660   -2.2410    1.3370 C   0  0  0  0  0  0  0  0  0  0  0  0
    6.5790   -2.3620   -0.0130 O   0  0  0  0  0  0  0  0  0  0  0  0
    5.4910   -2.4120   -0.6830 O   0  0  0  0  0  0  0  0  0  0  0  0
  1  2  2  0
  2  3  1  0
  2 27  1  0
  3  4  1  0
  5  4  1  1
  5  6  1  0
  5 25  1  0
  6  7  1  0
  7  8  1  0
  7 21  1  0
  8  9  2  0
  8 10  1  0
 10 11  1  0
 11 12  2  0
 11 15  1  0
 12 13  1  0
 13 14  1  0
 13 19  1  0
 14 15  2  0
 14 16  1  0
 16 17  1  0
 17 18  1  0
 18 19  1  0
 19 20  2  0
 21 22  1  1
 21 25  1  0
 22 23  2  0
 22 24  1  0
 25 26  2  0
 27 28  1  0
 28 29  1  0
 29 30  1  0
M  END
