
     RDKit          3D

 30 33  0  0  0  0  0  0  0  0999 V2000
    5.6560   -1.7180    1.1880 O   0  0  0  0  0  0  0  0  0  0  0  0
    5.1630   -0.6750    0.7380 C   0  0  0  0  0  0  0  0  0  0  0  0
    5.7800    0.5170    0.5070 O   0  0  0  0  0  0  0  0  0  0  0  0
    4.8870    1.4660   -0.0130 C   0  0  0  0  0  0  0  0  0  0  0  0
    3.5810    0.7410   -0.0930 C   0  0  0  0  0  0  0  0  0  0  0  0
    3.7550   -0.5170    0.3490 C   0  0  0  0  0  0  0  0  0  0  0  0
    2.6460   -1.3930    0.3620 N   0  0  0  0  0  0  0  0  0  0  0  0
    1.3160   -0.9910   -0.0880 C   0  0  0  0  0  0  0  0  0  0  0  0
    0.3310   -1.6990   -0.0740 N   0  0  0  0  0  0  0  0  0  0  0  0
   -0.9820   -1.9810   -0.2830 C   0  0  0  0  0  0  0  0  0  0  0  0
   -1.2140   -3.4510   -0.7130 C   0  0  0  0  0  0  0  0  0  0  0  0
   -2.5360   -3.7350   -0.9110 O   0  0  0  0  0  0  0  0  0  0  0  0
   -2.7030   -4.9740   -1.2710 O   0  0  0  0  0  0  0  0  0  0  0  0
   -3.9960   -5.2110   -1.2980 O   0  0  0  0  0  0  0  0  0  0  0  0
   -2.0860   -1.2410   -0.1780 C   0  0  0  0  0  0  0  0  0  0  0  0
   -3.3430   -1.8700   -0.4790 O   0  0  0  0  0  0  0  0  0  0  0  0
   -4.2030   -2.1480    0.4830 O   0  0  0  0  0  0  0  0  0  0  0  0
   -2.2470    0.1710    0.2090 C   0  0  2  0  0  0  0  0  0  0  0  0
   -1.8350    1.1250   -0.8730 C   0  0  0  0  0  0  0  0  0  0  0  0
   -1.0480    2.1620   -0.5390 O   0  0  0  0  0  0  0  0  0  0  0  0
   -0.8430    2.4060    0.8130 C   0  0  2  0  0  0  0  0  0  0  0  0
   -2.0160    1.9360    1.5680 C   0  0  0  0  0  0  0  0  0  0  0  0
   -1.8870    0.5000    1.4910 O   0  0  0  0  0  0  0  0  0  0  0  0
   -0.2860    3.7390    1.0230 C   0  0  0  0  0  0  0  0  0  0  0  0
   -0.6920    4.6010    1.8220 O   0  0  0  0  0  0  0  0  0  0  0  0
    0.8700    3.9980    0.1560 N   0  0  0  0  0  0  0  0  0  0  0  0
    1.0630    3.2540   -0.9570 O   0  0  0  0  0  0  0  0  0  0  0  0
    2.1290    2.5000   -0.9910 O   0  0  0  0  0  0  0  0  0  0  0  0
    2.2630    1.1830   -0.5510 C   0  0  0  0  0  0  0  0  0  0  0  0
    1.3210    0.3450   -0.5150 N   0  0  0  0  0  0  0  0  0  0  0  0
  1  2  2  0
  2  3  1  0
  2  6  1  0
  3  4  1  0
  4  5  1  0
  5  6  2  0
  5 29  1  0
  6  7  1  0
  7  8  1  0
  8  9  2  0
  8 30  1  0
  9 10  1  0
 10 11  1  0
 10 15  2  0
 11 12  1  0
 12 13  1  0
 13 14  1  0
 15 16  1  0
 15 18  1  0
 16 17  1  0
 18 19  1  0
 18 23  1  1
 19 20  1  0
 20 21  1  0
 21 22  1  1
 21 24  1  0
 22 23  1  0
 24 25  2  0
 24 26  1  0
 26 27  1  0
 27 28  1  0
 28 29  1  0
 29 30  2  0
M  END
