
     RDKit          3D

 30 30  0  0  0  0  0  0  0  0999 V2000
    7.2860    2.5310   -0.8910 C   0  0  0  0  0  0  0  0  0  0  0  0
    7.4640    1.0850   -0.4870 C   0  0  0  0  0  0  0  0  0  0  0  0
    6.2380    0.3960   -0.5870 O   0  0  0  0  0  0  0  0  0  0  0  0
    5.0960    0.7160    0.1090 C   0  0  0  0  0  0  0  0  0  0  0  0
    5.1350    1.6960    0.8950 O   0  0  0  0  0  0  0  0  0  0  0  0
    3.8230   -0.0330   -0.0210 C   0  0  0  0  0  0  0  0  0  0  0  0
    2.8500    0.5040    0.7860 O   0  0  0  0  0  0  0  0  0  0  0  0
    1.7220   -0.1690    0.6640 O   0  0  0  0  0  0  0  0  0  0  0  0
    1.5830   -1.4710    1.1710 C   0  0  0  0  0  0  0  0  0  0  0  0
    2.5430   -2.1770    1.8200 N   0  0  0  0  0  0  0  0  0  0  0  0
    2.0640   -3.3930    2.1660 C   0  0  0  0  0  0  0  0  0  0  0  0
    0.7460   -3.3970    1.6900 C   0  0  0  0  0  0  0  0  0  0  0  0
    0.4870   -2.2330    1.0990 N   0  0  0  0  0  0  0  0  0  0  0  0
   -0.7580   -1.8530    0.4850 C   0  0  1  0  0  0  0  0  0  0  0  0
   -1.3760   -2.9390   -0.1310 O   0  0  0  0  0  0  0  0  0  0  0  0
   -1.6410   -1.2100    1.5140 C   0  0  0  0  0  0  0  0  0  0  0  0
   -2.8290   -0.7180    1.0480 O   0  0  0  0  0  0  0  0  0  0  0  0
   -2.7520    0.2590    0.0910 C   0  0  2  0  0  0  0  0  0  0  0  0
   -3.5120    1.4510    0.5920 C   0  0  0  0  0  0  0  0  0  0  0  0
   -4.0740    1.4330    1.7080 O   0  0  0  0  0  0  0  0  0  0  0  0
   -3.6210    2.6420   -0.1780 N   0  0  0  0  0  0  0  0  0  0  0  0
   -4.3550    3.7630    0.3320 C   0  0  0  0  0  0  0  0  0  0  0  0
   -4.3030    4.7860   -0.6140 O   0  0  0  0  0  0  0  0  0  0  0  0
   -4.8540    4.3080   -1.7130 O   0  0  0  0  0  0  0  0  0  0  0  0
   -3.4580   -0.2590   -1.1360 C   0  0  0  0  0  0  0  0  0  0  0  0
   -3.5430    0.4270   -2.1880 O   0  0  0  0  0  0  0  0  0  0  0  0
   -4.0630   -1.5490   -1.1600 N   0  0  0  0  0  0  0  0  0  0  0  0
   -4.7320   -2.0610   -2.2990 C   0  0  0  0  0  0  0  0  0  0  0  0
   -4.8120   -1.3750   -3.3420 O   0  0  0  0  0  0  0  0  0  0  0  0
   -5.3070   -3.3160   -2.2850 O   0  0  0  0  0  0  0  0  0  0  0  0
  1  2  1  0
  2  3  1  0
  3  4  1  0
  4  5  2  0
  4  6  1  0
  6  7  1  0
  7  8  1  0
  8  9  1  0
  9 10  2  0
  9 13  1  0
 10 11  1  0
 11 12  2  0
 12 13  1  0
 13 14  1  0
 14 15  1  1
 14 16  1  0
 16 17  1  0
 18 17  1  1
 18 19  1  0
 18 25  1  0
 19 20  2  0
 19 21  1  0
 21 22  1  0
 22 23  1  0
 23 24  1  0
 25 26  2  0
 25 27  1  0
 27 28  1  0
 28 29  2  0
 28 30  1  0
M  END
