
     RDKit          3D

 30 32  0  0  0  0  0  0  0  0999 V2000
    2.5630   -0.7340   -3.9210 O   0  0  0  0  0  0  0  0  0  0  0  0
    2.5120   -0.8150   -2.6850 C   0  0  0  0  0  0  0  0  0  0  0  0
    2.5070   -2.0980   -1.9260 C   0  0  0  0  0  0  0  0  0  0  0  0
    1.6130   -1.6360   -0.7270 C   0  0  1  0  0  0  0  0  0  0  0  0
    0.2280   -1.7840   -1.2720 C   0  0  0  0  0  0  0  0  0  0  0  0
   -0.8660   -1.4360   -0.3860 C   0  0  0  0  0  0  0  0  0  0  0  0
   -1.3880   -0.2010   -0.2100 N   0  0  0  0  0  0  0  0  0  0  0  0
   -2.3860   -0.2800    0.6830 C   0  0  0  0  0  0  0  0  0  0  0  0
   -3.1920    0.8890    1.1220 C   0  0  0  0  0  0  0  0  0  0  0  0
   -4.3260    0.9730    0.2020 N   0  0  0  0  0  0  0  0  0  0  0  0
   -4.2710    1.7450   -1.0230 C   0  0  0  0  0  0  0  0  0  0  0  0
   -5.6880    2.2660   -1.2650 C   0  0  0  0  0  0  0  0  0  0  0  0
   -6.5760    1.2190   -1.4650 O   0  0  0  0  0  0  0  0  0  0  0  0
   -6.5280    0.3100   -0.4880 O   0  0  0  0  0  0  0  0  0  0  0  0
   -5.5390    0.2870    0.4860 C   0  0  0  0  0  0  0  0  0  0  0  0
   -5.6530   -0.2950    1.5840 O   0  0  0  0  0  0  0  0  0  0  0  0
   -2.4710   -1.5620    1.0500 N   0  0  0  0  0  0  0  0  0  0  0  0
   -1.5690   -2.2220    0.4100 O   0  0  0  0  0  0  0  0  0  0  0  0
    1.9950   -2.4610    0.3030 O   0  0  0  0  0  0  0  0  0  0  0  0
    1.6390   -2.5030    1.6070 C   0  0  0  0  0  0  0  0  0  0  0  0
    0.8390   -1.6730    2.0410 O   0  0  0  0  0  0  0  0  0  0  0  0
    2.1500   -3.4630    2.4920 O   0  0  0  0  0  0  0  0  0  0  0  0
    1.9520   -0.2330   -0.5980 C   0  0  0  0  0  0  0  0  0  0  0  0
    1.8000    0.6160    0.5170 O   0  0  0  0  0  0  0  0  0  0  0  0
    2.7050    1.6870    0.6940 C   0  0  0  0  0  0  0  0  0  0  0  0
    4.1100    1.1380    0.8220 C   0  0  0  0  0  0  0  0  0  0  0  0
    5.0220    2.1700    0.9970 O   0  0  0  0  0  0  0  0  0  0  0  0
    6.2270    1.6030    1.1000 O   0  0  0  0  0  0  0  0  0  0  0  0
    6.8730    1.6430   -0.0330 O   0  0  0  0  0  0  0  0  0  0  0  0
    2.4470    0.1990   -1.6950 N   0  0  0  0  0  0  0  0  0  0  0  0
  1  2  2  0
  2  3  1  0
  2 30  1  0
  3  4  1  0
  4  5  1  6
  4 19  1  0
  4 23  1  0
  5  6  1  0
  6  7  2  0
  6 18  1  0
  7  8  1  0
  8  9  1  0
  8 17  2  0
  9 10  1  0
 10 11  1  0
 10 15  1  0
 11 12  1  0
 12 13  1  0
 13 14  1  0
 14 15  1  0
 15 16  2  0
 17 18  1  0
 19 20  1  0
 20 21  2  0
 20 22  1  0
 23 24  1  0
 23 30  2  0
 24 25  1  0
 25 26  1  0
 26 27  1  0
 27 28  1  0
 28 29  1  0
M  END
