
     RDKit          3D

 32 32  0  0  0  0  0  0  0  0999 V2000
    7.0810    1.7660   -0.3470 C   0  0  0  0  0  0  0  0  0  0  0  0
    5.4490    1.7930   -0.6370 P   0  0  0  0  0  0  0  0  0  0  0  0
    4.5700    0.2280   -1.1130 C   0  0  2  0  0  0  0  0  0  0  0  0
    4.2130    0.2450   -2.5320 N   0  0  0  0  0  0  0  0  0  0  0  0
    3.3320    0.1370   -0.4090 O   0  0  0  0  0  0  0  0  0  0  0  0
    3.3350   -0.2030    0.9360 C   0  0  0  0  0  0  0  0  0  0  0  0
    2.1340   -0.1170    1.7550 C   0  0  0  0  0  0  0  0  0  0  0  0
    2.1440   -0.4220    2.9540 O   0  0  0  0  0  0  0  0  0  0  0  0
    0.9050    0.3380    1.1320 C   0  0  0  0  0  0  0  0  0  0  0  0
    0.8610    0.6600   -0.1050 O   0  0  0  0  0  0  0  0  0  0  0  0
   -0.3250    0.4610    1.8290 N   0  0  0  0  0  0  0  0  0  0  0  0
   -1.5720    0.9100    1.2490 C   0  0  2  0  0  0  0  0  0  0  0  0
   -1.6960    2.2490    1.7470 O   0  0  0  0  0  0  0  0  0  0  0  0
   -1.6610    3.1210    0.7630 O   0  0  0  0  0  0  0  0  0  0  0  0
   -2.6240    0.1580    1.6260 O   0  0  0  0  0  0  0  0  0  0  0  0
   -3.4790   -0.3370    0.6440 C   0  0  2  0  0  0  0  0  0  0  0  0
   -4.0780    0.7750   -0.1470 C   0  0  0  0  0  0  0  0  0  0  0  0
   -5.0620    0.3920   -1.0410 O   0  0  0  0  0  0  0  0  0  0  0  0
   -6.3840    0.1170   -0.7550 C   0  0  0  0  0  0  0  0  0  0  0  0
   -6.8630    0.2210    0.4010 O   0  0  0  0  0  0  0  0  0  0  0  0
   -7.2890   -0.2990   -1.7410 O   0  0  0  0  0  0  0  0  0  0  0  0
   -4.4760   -1.1880    1.2940 C   0  0  0  0  0  0  0  0  0  0  0  0
   -5.2260   -2.0210    0.7140 O   0  0  0  0  0  0  0  0  0  0  0  0
   -4.6480   -1.1070    2.6850 O   0  0  0  0  0  0  0  0  0  0  0  0
   -2.6450   -1.2130   -0.2570 C   0  0  0  0  0  0  0  0  0  0  0  0
   -1.4460   -1.4130   -0.0400 O   0  0  0  0  0  0  0  0  0  0  0  0
   -3.2330   -1.8230   -1.3720 O   0  0  0  0  0  0  0  0  0  0  0  0
   -2.5090   -2.6050   -2.1830 O   0  0  0  0  0  0  0  0  0  0  0  0
    4.8040   -0.7070    1.5220 P   0  0  0  0  0  0  0  0  0  0  0  0
    6.1270   -0.7370    0.3660 O   0  0  0  0  0  0  0  0  0  0  0  0
    5.4550   -0.9630   -0.8570 C   0  0  2  0  0  0  0  0  0  0  0  0
    6.3480   -1.2040   -1.8690 O   0  0  0  0  0  0  0  0  0  0  0  0
  1  2  2  0
  2  3  1  0
  3  4  1  6
  3  5  1  0
  3 31  1  0
  5  6  1  0
  6  7  1  0
  6 29  2  0
  7  8  2  0
  7  9  1  0
  9 10  2  0
  9 11  1  0
 12 11  1  1
 12 13  1  0
 12 15  1  0
 13 14  1  0
 15 16  1  0
 16 17  1  6
 16 22  1  0
 16 25  1  0
 17 18  1  0
 18 19  1  0
 19 20  2  0
 19 21  1  0
 22 23  2  0
 22 24  1  0
 25 26  2  0
 25 27  1  0
 27 28  1  0
 29 30  1  0
 30 31  1  0
 31 32  1  6
M  END
