
     RDKit          3D

 32 34  0  0  0  0  0  0  0  0999 V2000
    6.7710   -1.2760    0.3250 C   0  0  0  0  0  0  0  0  0  0  0  0
    6.1850   -0.1560   -0.0410 C   0  0  0  0  0  0  0  0  0  0  0  0
    6.9560    1.0690   -0.0500 C   0  0  0  0  0  0  0  0  0  0  0  0
    6.4030    2.1340   -0.3970 O   0  0  0  0  0  0  0  0  0  0  0  0
    8.2880    1.0760    0.3180 O   0  0  0  0  0  0  0  0  0  0  0  0
    4.7870   -0.1760   -0.4260 C   0  0  0  0  0  0  0  0  0  0  0  0
    4.1260   -1.2450   -0.4150 O   0  0  0  0  0  0  0  0  0  0  0  0
    4.1070    0.9690   -0.8230 O   0  0  0  0  0  0  0  0  0  0  0  0
    2.7580    0.9960   -1.2020 C   0  0  0  0  0  0  0  0  0  0  0  0
    1.8680    0.5330   -0.1040 C   0  0  0  0  0  0  0  0  0  0  0  0
    2.4070    0.1910    0.9770 O   0  0  0  0  0  0  0  0  0  0  0  0
    0.4300    0.4850   -0.2940 C   0  0  0  0  0  0  0  0  0  0  0  0
   -0.1410    0.8170   -1.3530 O   0  0  0  0  0  0  0  0  0  0  0  0
   -0.4160    0.0590    0.7080 O   0  0  0  0  0  0  0  0  0  0  0  0
   -1.8490    0.0080    0.5280 C   0  0  1  0  0  0  0  0  0  0  0  0
   -2.3710   -0.6380    2.2270 P   0  0  0  0  0  0  0  0  0  0  0  0
   -1.4550   -2.0930    2.5520 O   0  0  0  0  0  0  0  0  0  0  0  0
   -1.8400    0.5330    3.4190 O   0  0  0  0  0  0  0  0  0  0  0  0
   -2.2720    1.2700    0.4210 O   0  0  0  0  0  0  0  0  0  0  0  0
   -3.5570    1.6210    0.3570 C   0  0  2  0  0  0  0  0  0  0  0  0
   -3.6910    2.9870    0.1090 O   0  0  0  0  0  0  0  0  0  0  0  0
   -3.1430    3.3570   -1.0140 O   0  0  0  0  0  0  0  0  0  0  0  0
   -4.4260    1.2980    1.4460 N   0  0  0  0  0  0  0  0  0  0  0  0
   -5.2090    0.1480    1.3190 C   0  0  0  0  0  0  0  0  0  0  0  0
   -5.3470   -0.3710    0.1650 N   0  0  0  0  0  0  0  0  0  0  0  0
   -4.4140    0.6290   -0.9870 P   0  0  0  0  0  0  0  0  0  0  0  0
   -3.0470   -0.4820   -1.6410 C   0  0  0  0  0  0  0  0  0  0  0  0
   -2.2460   -0.9790   -0.4970 C   0  0  2  0  0  0  0  0  0  0  0  0
   -2.9490   -2.0350    0.0820 O   0  0  0  0  0  0  0  0  0  0  0  0
   -2.6210   -3.1810   -0.5960 C   0  0  0  0  0  0  0  0  0  0  0  0
   -1.7570   -2.7050   -1.5890 O   0  0  0  0  0  0  0  0  0  0  0  0
   -1.1340   -1.6720   -1.0240 O   0  0  0  0  0  0  0  0  0  0  0  0
  1  2  2  0
  2  3  1  0
  2  6  1  0
  3  4  2  0
  3  5  1  0
  6  7  2  0
  6  8  1  0
  8  9  1  0
  9 10  1  0
 10 11  2  0
 10 12  1  0
 12 13  2  0
 12 14  1  0
 15 14  1  1
 15 16  1  0
 15 19  1  0
 15 28  1  0
 16 17  1  0
 16 18  1  0
 19 20  1  0
 20 21  1  6
 20 23  1  0
 20 26  1  0
 21 22  1  0
 23 24  1  0
 24 25  2  0
 25 26  1  0
 26 27  1  0
 28 27  1  6
 28 29  1  0
 28 32  1  0
 29 30  1  0
 30 31  1  0
 31 32  1  0
M  END
