
     RDKit          3D

 32 34  0  0  0  0  0  0  0  0999 V2000
    5.8730    1.0450   -1.1590 C   0  0  0  0  0  0  0  0  0  0  0  0
    5.8160    0.0320   -0.2600 O   0  0  0  0  0  0  0  0  0  0  0  0
    4.8410    0.0220    0.6840 C   0  0  1  0  0  0  0  0  0  0  0  0
    5.0460   -1.1440    1.4610 O   0  0  0  0  0  0  0  0  0  0  0  0
    4.9130    1.1210    1.5530 O   0  0  0  0  0  0  0  0  0  0  0  0
    3.4520    0.0150    0.1110 C   0  0  1  0  0  0  0  0  0  0  0  0
    3.2130    1.1390   -0.6260 O   0  0  0  0  0  0  0  0  0  0  0  0
    1.9410    1.4260   -0.7850 O   0  0  0  0  0  0  0  0  0  0  0  0
    1.0350    0.0450   -1.2000 P   0  0  0  0  0  0  0  0  0  0  0  0
   -0.6580    0.0870   -0.7470 N   0  0  0  0  0  0  0  0  0  0  0  0
   -1.2530    0.6350    0.4390 C   0  0  0  0  0  0  0  0  0  0  0  0
   -2.4230    0.0720    0.6540 C   0  0  0  0  0  0  0  0  0  0  0  0
   -3.1530    0.4930    1.7830 O   0  0  0  0  0  0  0  0  0  0  0  0
   -2.9500    1.7720    2.3640 C   0  0  2  0  0  0  0  0  0  0  0  0
   -3.6030    2.7770    1.4320 C   0  0  0  0  0  0  0  0  0  0  0  0
   -1.5450    2.0400    2.4940 O   0  0  0  0  0  0  0  0  0  0  0  0
   -0.7810    1.6510    1.3750 C   0  0  0  0  0  0  0  0  0  0  0  0
    0.3300    2.1770    1.1610 O   0  0  0  0  0  0  0  0  0  0  0  0
   -2.6900   -0.9220   -0.4150 C   0  0  2  0  0  0  0  0  0  0  0  0
   -4.0990   -0.8970   -0.8630 C   0  0  0  0  0  0  0  0  0  0  0  0
   -4.7360   -1.9280   -0.8250 O   0  0  0  0  0  0  0  0  0  0  0  0
   -2.3000   -2.1920    0.0100 O   0  0  0  0  0  0  0  0  0  0  0  0
   -2.9950   -2.4880    1.0830 O   0  0  0  0  0  0  0  0  0  0  0  0
   -3.2930   -3.8120    1.1240 N   0  0  0  0  0  0  0  0  0  0  0  0
   -1.7780   -0.4420   -1.5210 C   0  0  1  0  0  0  0  0  0  0  0  0
   -2.4310    0.7020   -2.2200 C   0  0  0  0  0  0  0  0  0  0  0  0
   -1.5670    1.3740   -3.0840 O   0  0  0  0  0  0  0  0  0  0  0  0
    1.9330   -1.4610   -0.6230 C   0  0  1  0  0  0  0  0  0  0  0  0
    1.6350   -2.5810   -1.3930 O   0  0  0  0  0  0  0  0  0  0  0  0
    0.9840   -3.8110   -0.3590 P   0  0  0  0  0  0  0  0  0  0  0  0
    0.5350   -3.5110    1.1040 O   0  0  0  0  0  0  0  0  0  0  0  0
    3.2970   -1.1670   -0.6530 O   0  0  0  0  0  0  0  0  0  0  0  0
  1  2  1  0
  2  3  1  0
  3  4  1  1
  3  5  1  0
  3  6  1  0
  6  7  1  6
  6 32  1  0
  7  8  1  0
  8  9  1  0
  9 10  1  0
  9 28  1  0
 10 11  1  0
 10 25  1  0
 11 12  2  0
 11 17  1  0
 12 13  1  0
 12 19  1  0
 13 14  1  0
 14 15  1  6
 14 16  1  0
 16 17  1  0
 17 18  2  0
 19 20  1  0
 19 22  1  1
 19 25  1  0
 20 21  2  0
 22 23  1  0
 23 24  1  0
 25 26  1  1
 26 27  1  0
 28 29  1  6
 28 32  1  0
 29 30  1  0
 30 31  2  0
M  END
