
     RDKit          3D

 30 31  0  0  0  0  0  0  0  0999 V2000
   -4.0460    0.4700    0.6500 C   0  0  0  0  0  0  0  0  0  0  0  0
   -2.8780   -0.1990    0.7090 O   0  0  0  0  0  0  0  0  0  0  0  0
   -1.7070    0.4440    0.4190 C   0  0  1  0  0  0  0  0  0  0  0  0
   -1.6250    1.5930    1.3560 C   0  0  0  0  0  0  0  0  0  0  0  0
   -1.7490    2.7450    1.1370 O   0  0  0  0  0  0  0  0  0  0  0  0
   -1.2720    0.8600    3.0350 P   0  0  0  0  0  0  0  0  0  0  0  0
    0.2150    1.3840    3.6550 O   0  0  0  0  0  0  0  0  0  0  0  0
   -1.4660   -0.8400    2.9600 O   0  0  0  0  0  0  0  0  0  0  0  0
   -1.0450   -1.4580    1.7790 C   0  0  2  0  0  0  0  0  0  0  0  0
   -2.1990   -2.1240    1.2850 O   0  0  0  0  0  0  0  0  0  0  0  0
   -0.1570   -2.5700    2.2040 C   0  0  0  0  0  0  0  0  0  0  0  0
   -0.4770   -3.9500    2.0480 N   0  0  0  0  0  0  0  0  0  0  0  0
    0.9620   -2.3750    2.7440 O   0  0  0  0  0  0  0  0  0  0  0  0
   -0.5020   -0.4780    0.8230 C   0  0  1  0  0  0  0  0  0  0  0  0
    0.1260   -0.9350   -0.4110 C   0  0  2  0  0  0  0  0  0  0  0  0
    1.3290   -1.8300   -0.3230 C   0  0  0  0  0  0  0  0  0  0  0  0
    2.4280   -1.3590    0.2900 O   0  0  0  0  0  0  0  0  0  0  0  0
    0.6080    0.2030   -1.1230 O   0  0  0  0  0  0  0  0  0  0  0  0
    1.5800    1.0830   -0.6840 C   0  0  0  0  0  0  0  0  0  0  0  0
    1.3340    1.9890    0.3310 O   0  0  0  0  0  0  0  0  0  0  0  0
    2.7960    1.1060   -1.2080 C   0  0  0  0  0  0  0  0  0  0  0  0
    3.7590    2.0840   -0.6660 C   0  0  0  0  0  0  0  0  0  0  0  0
    3.2060    0.2660   -2.2320 O   0  0  0  0  0  0  0  0  0  0  0  0
    4.1530    0.6330   -3.1600 N   0  0  0  0  0  0  0  0  0  0  0  0
   -0.7360   -1.6260   -1.3480 O   0  0  0  0  0  0  0  0  0  0  0  0
   -1.5740   -0.8290   -2.1000 C   0  0  0  0  0  0  0  0  0  0  0  0
   -2.1620   -1.1670   -3.0940 O   0  0  0  0  0  0  0  0  0  0  0  0
   -1.6630    0.8330   -1.3570 P   0  0  0  0  0  0  0  0  0  0  0  0
   -2.9570    1.7950   -1.8480 O   0  0  0  0  0  0  0  0  0  0  0  0
   -2.6670    2.5770   -2.8570 O   0  0  0  0  0  0  0  0  0  0  0  0
  1  2  1  0
  3  2  1  6
  3  4  1  0
  3 14  1  0
  3 28  1  0
  4  5  2  0
  4  6  1  0
  6  7  1  0
  6  8  1  0
  8  9  1  0
  9 10  1  6
  9 11  1  0
 14  9  1  6
 11 12  1  0
 11 13  2  0
 14 15  1  0
 15 16  1  1
 15 18  1  0
 15 25  1  0
 16 17  1  0
 18 19  1  0
 19 20  1  0
 19 21  2  3
 21 22  1  0
 21 23  1  0
 23 24  1  0
 25 26  1  0
 26 27  2  0
 26 28  1  0
 28 29  1  0
 29 30  1  0
M  END
