
     RDKit          3D

 32 35  0  0  0  0  0  0  0  0999 V2000
   -0.3910    3.4440   -1.3680 C   0  0  0  0  0  0  0  0  0  0  0  0
   -0.4420    2.5880   -2.4320 O   0  0  0  0  0  0  0  0  0  0  0  0
   -0.9460    0.9920   -2.1150 P   0  0  0  0  0  0  0  0  0  0  0  0
   -2.0080    0.4970   -3.4130 O   0  0  0  0  0  0  0  0  0  0  0  0
   -1.7020    0.7350   -0.5280 N   0  0  0  0  0  0  0  0  0  0  0  0
   -2.8670    1.5610   -0.2800 C   0  0  0  0  0  0  0  0  0  0  0  0
   -3.1230    2.6100   -0.9040 O   0  0  0  0  0  0  0  0  0  0  0  0
   -3.7660    1.1660    0.7150 O   0  0  0  0  0  0  0  0  0  0  0  0
   -3.4080    0.1540    1.5570 O   0  0  0  0  0  0  0  0  0  0  0  0
   -2.0950    0.2710    1.7050 N   0  0  0  0  0  0  0  0  0  0  0  0
   -1.3420   -0.1680    0.4900 C   0  0  2  0  0  0  0  0  0  0  0  0
    0.0370   -0.2430    0.9540 C   0  0  0  0  0  0  0  0  0  0  0  0
    1.1080    0.7400    0.6910 C   0  0  0  0  0  0  0  0  0  0  0  0
    1.4470    0.9060   -0.6210 O   0  0  0  0  0  0  0  0  0  0  0  0
    2.3880    1.7690   -0.8340 O   0  0  0  0  0  0  0  0  0  0  0  0
    3.9560    1.0450   -0.6700 P   0  0  0  0  0  0  0  0  0  0  0  0
    5.1920    2.3190   -0.1030 C   0  0  0  0  0  0  0  0  0  0  0  0
    4.4580    0.3440   -2.1820 O   0  0  0  0  0  0  0  0  0  0  0  0
    0.3660   -1.2890    1.7310 C   0  0  0  0  0  0  0  0  0  0  0  0
    2.0790   -1.4510    2.3560 P   0  0  0  0  0  0  0  0  0  0  0  0
    2.2420   -0.5900    3.8330 O   0  0  0  0  0  0  0  0  0  0  0  0
    2.4670   -3.1230    2.6060 O   0  0  0  0  0  0  0  0  0  0  0  0
   -0.5130   -2.2920    2.1090 O   0  0  0  0  0  0  0  0  0  0  0  0
   -1.8380   -2.1900    1.6330 C   0  0  0  0  0  0  0  0  0  0  0  0
   -2.8500   -2.5380    2.2170 O   0  0  0  0  0  0  0  0  0  0  0  0
   -1.8560   -1.5750    0.2560 C   0  0  1  0  0  0  0  0  0  0  0  0
   -3.1900   -1.6670   -0.3740 C   0  0  0  0  0  0  0  0  0  0  0  0
   -3.1860   -2.9440   -0.9700 O   0  0  0  0  0  0  0  0  0  0  0  0
   -1.9180   -3.1980   -1.4260 C   0  0  2  0  0  0  0  0  0  0  0  0
   -1.0250   -3.7840   -0.5070 O   0  0  0  0  0  0  0  0  0  0  0  0
   -0.9580   -2.4000   -0.6020 C   0  0  2  0  0  0  0  0  0  0  0  0
    0.1810   -1.8670   -1.1580 O   0  0  0  0  0  0  0  0  0  0  0  0
  1  2  1  0
  2  3  1  0
  3  4  1  0
  3  5  1  0
  5  6  1  0
  5 11  1  0
  6  7  2  0
  6  8  1  0
  8  9  1  0
  9 10  1  0
 11 10  1  1
 11 12  1  0
 11 26  1  0
 12 13  1  0
 12 19  2  0
 13 14  1  0
 14 15  1  0
 15 16  1  0
 16 17  1  0
 16 18  1  0
 19 20  1  0
 19 23  1  0
 20 21  1  0
 20 22  1  0
 23 24  1  0
 24 25  2  0
 24 26  1  0
 26 27  1  6
 26 31  1  0
 27 28  1  0
 29 28  1  1
 29 30  1  0
 29 31  1  0
 30 31  1  0
 31 32  1  6
M  END
