
     RDKit          3D

 32 34  0  0  0  0  0  0  0  0999 V2000
   -0.4570   -0.1490    3.5210 C   0  0  0  0  0  0  0  0  0  0  0  0
    0.1490   -0.1020    2.0830 C   0  0  1  0  0  0  0  0  0  0  0  0
   -0.9240    0.2240    1.2980 O   0  0  0  0  0  0  0  0  0  0  0  0
   -0.7650    0.3560   -0.0310 C   0  0  0  0  0  0  0  0  0  0  0  0
   -2.1050    0.7210   -0.6450 C   0  0  1  0  0  0  0  0  0  0  0  0
   -1.9440    0.8630   -2.0430 O   0  0  0  0  0  0  0  0  0  0  0  0
   -3.0810   -0.4410   -0.4790 C   0  0  0  0  0  0  0  0  0  0  0  0
   -4.1340   -0.3620   -1.3850 O   0  0  0  0  0  0  0  0  0  0  0  0
   -5.0260    1.1160   -1.2350 P   0  0  0  0  0  0  0  0  0  0  0  0
   -5.3700    1.7520   -2.8120 O   0  0  0  0  0  0  0  0  0  0  0  0
   -3.9810    2.2750   -0.4230 O   0  0  0  0  0  0  0  0  0  0  0  0
   -2.7000    1.9100   -0.0340 C   0  0  0  0  0  0  0  0  0  0  0  0
   -2.1420    2.6370    0.8230 O   0  0  0  0  0  0  0  0  0  0  0  0
    1.1600    0.9190    2.1750 N   0  0  0  0  0  0  0  0  0  0  0  0
    2.2780    0.8190    1.5830 C   0  0  0  0  0  0  0  0  0  0  0  0
    3.4340    1.5970    1.4710 O   0  0  0  0  0  0  0  0  0  0  0  0
    4.5000    0.8030    1.3370 O   0  0  0  0  0  0  0  0  0  0  0  0
    4.0840   -0.4670    1.0200 C   0  0  0  0  0  0  0  0  0  0  0  0
    2.5590   -0.3840    0.7670 C   0  0  2  0  0  0  0  0  0  0  0  0
    2.3110   -0.2250   -0.6050 O   0  0  0  0  0  0  0  0  0  0  0  0
    2.8700    0.6430   -1.4800 C   0  0  0  0  0  0  0  0  0  0  0  0
    3.7360    1.4440   -1.0900 O   0  0  0  0  0  0  0  0  0  0  0  0
    2.4970    0.6950   -2.9300 C   0  0  2  0  0  0  0  0  0  0  0  0
    2.1310    2.0460   -3.2390 N   0  0  0  0  0  0  0  0  0  0  0  0
    1.5330   -0.2320   -3.2510 O   0  0  0  0  0  0  0  0  0  0  0  0
    1.9290   -1.5180    1.1660 O   0  0  0  0  0  0  0  0  0  0  0  0
    0.7760   -1.4250    1.8670 C   0  0  2  0  0  0  0  0  0  0  0  0
   -0.2190   -2.4220    1.3550 C   0  0  0  0  0  0  0  0  0  0  0  0
    0.0050   -3.2130    0.4100 O   0  0  0  0  0  0  0  0  0  0  0  0
   -1.4590   -2.4750    1.9610 O   0  0  0  0  0  0  0  0  0  0  0  0
   -2.7310   -3.5870    1.4790 P   0  0  0  0  0  0  0  0  0  0  0  0
   -3.3380   -4.4890    2.6090 O   0  0  0  0  0  0  0  0  0  0  0  0
  2  1  1  1
  2  3  1  0
  2 14  1  0
  2 27  1  0
  3  4  1  0
  4  5  1  0
  5  6  1  6
  5  7  1  0
  5 12  1  0
  7  8  1  0
  8  9  1  0
  9 10  1  0
  9 11  1  0
 11 12  1  0
 12 13  2  0
 14 15  2  0
 15 16  1  0
 15 19  1  0
 16 17  1  0
 17 18  1  0
 18 19  1  0
 19 20  1  6
 19 26  1  0
 20 21  1  0
 21 22  2  0
 21 23  1  0
 23 24  1  1
 23 25  1  0
 26 27  1  0
 27 28  1  6
 28 29  2  0
 28 30  1  0
 30 31  1  0
 31 32  2  0
M  END
