
     RDKit          3D

 32 34  0  0  0  0  0  0  0  0999 V2000
   -6.3200    2.2710    2.1700 N   0  0  0  0  0  0  0  0  0  0  0  0
   -6.0430    1.7590    0.8810 C   0  0  0  0  0  0  0  0  0  0  0  0
   -5.0010    0.9110    0.7320 N   0  0  0  0  0  0  0  0  0  0  0  0
   -4.6920    0.3930   -0.4690 C   0  0  0  0  0  0  0  0  0  0  0  0
   -5.4670    0.7450   -1.5730 C   0  0  0  0  0  0  0  0  0  0  0  0
   -4.9380    0.0940   -2.6070 N   0  0  0  0  0  0  0  0  0  0  0  0
   -3.8980   -0.6210   -2.1890 C   0  0  0  0  0  0  0  0  0  0  0  0
   -3.7200   -0.4560   -0.8650 N   0  0  0  0  0  0  0  0  0  0  0  0
   -2.7330   -1.0260    0.0040 C   0  0  2  0  0  0  0  0  0  0  0  0
   -1.7050   -0.1370    0.3120 O   0  0  0  0  0  0  0  0  0  0  0  0
   -0.7780   -0.9590    0.9590 C   0  0  2  0  0  0  0  0  0  0  0  0
    0.5990   -0.3290    0.9390 C   0  0  0  0  0  0  0  0  0  0  0  0
    0.9780   -0.1550   -0.3530 O   0  0  0  0  0  0  0  0  0  0  0  0
    2.4950    0.5380   -0.5410 P   0  0  0  0  0  0  0  0  0  0  0  0
    2.9770   -0.7320   -1.2240 O   0  0  0  0  0  0  0  0  0  0  0  0
    2.7510    1.4560   -1.8910 O   0  0  0  0  0  0  0  0  0  0  0  0
    3.6100    0.4840    0.6270 O   0  0  0  0  0  0  0  0  0  0  0  0
    4.8510   -0.3750    0.7560 P   0  0  0  0  0  0  0  0  0  0  0  0
    4.0410   -1.2240    1.9050 O   0  0  0  0  0  0  0  0  0  0  0  0
    5.9720   -1.4550    0.8440 O   0  0  0  0  0  0  0  0  0  0  0  0
    5.8300    0.8280    1.3080 O   0  0  0  0  0  0  0  0  0  0  0  0
    6.7750    1.4280    0.2720 P   0  0  0  0  0  0  0  0  0  0  0  0
    5.4270    2.1010   -0.4800 O   0  0  0  0  0  0  0  0  0  0  0  0
    7.6260    2.2900    1.3650 O   0  0  0  0  0  0  0  0  0  0  0  0
    7.3270   -0.0290   -0.2160 O   0  0  0  0  0  0  0  0  0  0  0  0
   -0.7250   -2.2370    0.1730 C   0  0  1  0  0  0  0  0  0  0  0  0
   -0.8330   -3.2930    1.0780 O   0  0  0  0  0  0  0  0  0  0  0  0
   -1.9810   -2.1650   -0.6490 C   0  0  1  0  0  0  0  0  0  0  0  0
   -2.6980   -3.3530   -0.6460 O   0  0  0  0  0  0  0  0  0  0  0  0
   -6.5290    1.6080   -1.4250 C   0  0  0  0  0  0  0  0  0  0  0  0
   -7.2490    1.9460   -2.3970 O   0  0  0  0  0  0  0  0  0  0  0  0
   -6.7880    2.0920   -0.1990 N   0  0  0  0  0  0  0  0  0  0  0  0
  1  2  1  0
  2  3  1  0
  2 32  2  0
  3  4  1  0
  4  5  2  0
  4  8  1  0
  5  6  1  0
  5 30  1  0
  6  7  2  0
  7  8  1  0
  9  8  1  6
  9 10  1  0
  9 28  1  0
 10 11  1  0
 11 12  1  6
 11 26  1  0
 12 13  1  0
 13 14  1  0
 14 15  1  0
 14 16  1  0
 14 17  1  0
 17 18  1  0
 18 19  1  0
 18 20  1  0
 18 21  1  0
 21 22  1  0
 22 23  1  0
 22 24  1  0
 22 25  1  0
 26 27  1  1
 26 28  1  0
 28 29  1  1
 30 31  2  0
 30 32  1  0
M  CHG  1  32   1
M  END
