
     RDKit          3D

 32 33  0  0  0  0  0  0  0  0999 V2000
   -2.2730    1.3050    1.6080 C   0  0  0  0  0  0  0  0  0  0  0  0
   -1.9630    0.3480    0.4390 C   0  0  1  0  0  0  0  0  0  0  0  0
   -3.3780    0.0340   -0.1180 C   0  0  0  0  0  0  0  0  0  0  0  0
   -3.3390   -0.8070   -1.1850 O   0  0  0  0  0  0  0  0  0  0  0  0
   -4.8210   -1.2220   -1.8790 P   0  0  0  0  0  0  0  0  0  0  0  0
   -6.1280   -1.3620   -0.7920 O   0  0  0  0  0  0  0  0  0  0  0  0
   -5.1830   -0.3670   -3.3170 O   0  0  0  0  0  0  0  0  0  0  0  0
   -1.0940    0.9210   -0.3630 O   0  0  0  0  0  0  0  0  0  0  0  0
   -0.5600    1.7780   -1.2360 C   0  0  0  0  0  0  0  0  0  0  0  0
   -1.3700    2.3190   -2.1390 N   0  0  0  0  0  0  0  0  0  0  0  0
   -0.9500    3.1870   -3.0580 O   0  0  0  0  0  0  0  0  0  0  0  0
   -1.6140    4.2500   -3.5110 O   0  0  0  0  0  0  0  0  0  0  0  0
    0.8120    2.2470   -1.3800 C   0  0  0  0  0  0  0  0  0  0  0  0
    1.9840    1.6550   -1.3410 C   0  0  0  0  0  0  0  0  0  0  0  0
    2.5530    0.3680   -1.1530 C   0  0  0  0  0  0  0  0  0  0  0  0
    2.6750   -0.3790   -2.2340 O   0  0  0  0  0  0  0  0  0  0  0  0
    3.0830   -0.4250   -0.0310 C   0  0  2  0  0  0  0  0  0  0  0  0
    3.5960    0.3220    1.0480 O   0  0  0  0  0  0  0  0  0  0  0  0
    4.7730    0.8800    0.6360 C   0  0  0  0  0  0  0  0  0  0  0  0
    4.9960    0.3160   -0.6360 O   0  0  0  0  0  0  0  0  0  0  0  0
    4.4030   -0.8460   -0.4900 O   0  0  0  0  0  0  0  0  0  0  0  0
    2.3600   -1.6190    0.4270 C   0  0  0  0  0  0  0  0  0  0  0  0
    2.3370   -2.5590   -0.3160 O   0  0  0  0  0  0  0  0  0  0  0  0
    1.6730   -1.7530    1.7120 C   0  0  2  0  0  0  0  0  0  0  0  0
    2.2810   -2.8940    2.5510 C   0  0  0  0  0  0  0  0  0  0  0  0
    1.9660   -4.0650    1.9050 O   0  0  0  0  0  0  0  0  0  0  0  0
    0.3060   -2.0200    1.7000 O   0  0  0  0  0  0  0  0  0  0  0  0
   -0.3010   -1.0480    0.9110 C   0  0  2  0  0  0  0  0  0  0  0  0
   -0.0460   -1.4420   -0.4010 N   0  0  0  0  0  0  0  0  0  0  0  0
    0.2910    0.4740    1.6890 P   0  0  0  0  0  0  0  0  0  0  0  0
    0.3710    0.6490    3.1920 O   0  0  0  0  0  0  0  0  0  0  0  0
   -1.6530   -0.8930    1.0300 O   0  0  0  0  0  0  0  0  0  0  0  0
  2  1  1  1
  2  3  1  0
  2  8  1  0
  2 32  1  0
  3  4  1  0
  4  5  1  0
  5  6  1  0
  5  7  1  0
  8  9  1  0
  9 10  2  3
  9 13  1  0
 10 11  1  0
 11 12  1  0
 13 14  2  0
 14 15  1  0
 15 16  2  0
 15 17  1  0
 17 18  1  1
 17 21  1  0
 17 22  1  0
 18 19  1  0
 19 20  1  0
 20 21  1  0
 22 23  2  0
 22 24  1  0
 24 25  1  1
 24 27  1  0
 25 26  1  0
 27 28  1  0
 28 29  1  6
 28 30  1  0
 28 32  1  0
 30 31  2  0
M  END
