
     RDKit          3D

 32 34  0  0  0  0  0  0  0  0999 V2000
   -3.9040    3.3620    0.8790 C   0  0  0  0  0  0  0  0  0  0  0  0
   -4.3710    2.1760    0.0680 C   0  0  2  0  0  0  0  0  0  0  0  0
   -4.4360    2.5070   -1.2790 O   0  0  0  0  0  0  0  0  0  0  0  0
   -5.5810    1.7350    0.5760 O   0  0  0  0  0  0  0  0  0  0  0  0
   -3.4470    1.1590    0.2150 O   0  0  0  0  0  0  0  0  0  0  0  0
   -2.2420    1.5130   -0.2050 O   0  0  0  0  0  0  0  0  0  0  0  0
   -1.4330    0.3660    0.0210 C   0  0  1  0  0  0  0  0  0  0  0  0
   -2.0530   -0.7300   -0.7940 C   0  0  0  0  0  0  0  0  0  0  0  0
   -2.3140   -1.7780    0.1430 N   0  0  0  0  0  0  0  0  0  0  0  0
   -2.5890   -3.1400   -0.2080 C   0  0  0  0  0  0  0  0  0  0  0  0
   -1.9080   -3.8600   -1.0570 C   0  0  0  0  0  0  0  0  0  0  0  0
   -0.7400   -3.4390   -1.8180 C   0  0  0  0  0  0  0  0  0  0  0  0
   -0.7390   -3.5190   -3.1010 O   0  0  0  0  0  0  0  0  0  0  0  0
    0.4290   -2.9340   -1.2690 O   0  0  0  0  0  0  0  0  0  0  0  0
    1.2190   -3.4970    0.1670 P   0  0  0  0  0  0  0  0  0  0  0  0
    0.3930   -2.7910    1.5910 O   0  0  0  0  0  0  0  0  0  0  0  0
    0.9520   -1.5390    1.9610 C   0  0  0  0  0  0  0  0  0  0  0  0
    1.4390   -0.8750    0.9580 C   0  0  0  0  0  0  0  0  0  0  0  0
    1.0080    0.3380    0.4300 O   0  0  0  0  0  0  0  0  0  0  0  0
   -0.0310    0.6400   -0.3540 C   0  0  0  0  0  0  0  0  0  0  0  0
    0.1420    1.1880   -1.4790 O   0  0  0  0  0  0  0  0  0  0  0  0
    2.6440   -1.4000    0.1800 C   0  0  1  0  0  0  0  0  0  0  0  0
    2.5040   -1.0800   -1.1900 O   0  0  0  0  0  0  0  0  0  0  0  0
    4.1080   -0.4550    0.8100 P   0  0  0  0  0  0  0  0  0  0  0  0
    5.1900   -0.1550   -0.4900 O   0  0  0  0  0  0  0  0  0  0  0  0
    5.5350    1.1760   -0.6260 C   0  0  0  0  0  0  0  0  0  0  0  0
    6.1490    1.5880    0.5540 O   0  0  0  0  0  0  0  0  0  0  0  0
    6.4770    2.8910    0.3990 N   0  0  0  0  0  0  0  0  0  0  0  0
    2.7910   -2.7530    0.2430 O   0  0  0  0  0  0  0  0  0  0  0  0
   -2.2570   -1.2320    1.4150 O   0  0  0  0  0  0  0  0  0  0  0  0
   -1.6480    0.0010    1.4180 C   0  0  0  0  0  0  0  0  0  0  0  0
   -1.3180    0.7200    2.4020 O   0  0  0  0  0  0  0  0  0  0  0  0
  2  1  1  1
  2  3  1  0
  2  4  1  0
  2  5  1  0
  5  6  1  0
  7  6  1  6
  7  8  1  0
  7 20  1  0
  7 31  1  0
  8  9  1  0
  9 10  1  0
  9 30  1  0
 10 11  2  0
 11 12  1  0
 12 13  2  0
 12 14  1  0
 14 15  1  0
 15 16  1  0
 15 29  1  0
 16 17  1  0
 17 18  2  0
 18 19  1  0
 18 22  1  0
 19 20  1  0
 20 21  2  0
 22 23  1  6
 22 24  1  0
 22 29  1  0
 24 25  1  0
 25 26  1  0
 26 27  1  0
 27 28  1  0
 30 31  1  0
 31 32  2  0
M  END
