
     RDKit          3D

 29 31  0  0  0  0  0  0  0  0999 V2000
   -2.7270    2.6440    2.8110 N   0  0  0  0  0  0  0  0  0  0  0  0
   -3.1210    1.4000    2.5490 O   0  0  0  0  0  0  0  0  0  0  0  0
   -2.5540    0.9010    1.3570 C   0  0  2  0  0  0  0  0  0  0  0  0
   -1.1750    0.9330    1.5470 O   0  0  0  0  0  0  0  0  0  0  0  0
   -0.8660   -0.2630    2.1400 C   0  0  2  0  0  0  0  0  0  0  0  0
    0.2660   -0.2820    2.9060 O   0  0  0  0  0  0  0  0  0  0  0  0
    0.8260   -1.4560    2.8070 O   0  0  0  0  0  0  0  0  0  0  0  0
    0.1750   -2.1680    1.9450 O   0  0  0  0  0  0  0  0  0  0  0  0
   -0.4590   -1.2510    1.0680 C   0  0  2  0  0  0  0  0  0  0  0  0
    0.9060   -0.4880    0.0630 P   0  0  0  0  0  0  0  0  0  0  0  0
    2.2160   -1.3700   -0.4580 C   0  0  0  0  0  0  0  0  0  0  0  0
    2.2590   -2.7100   -0.1140 O   0  0  0  0  0  0  0  0  0  0  0  0
    3.2890   -0.8080   -1.2380 C   0  0  0  0  0  0  0  0  0  0  0  0
    4.2430   -1.5310   -1.5950 O   0  0  0  0  0  0  0  0  0  0  0  0
    3.2910    0.5240   -1.6050 O   0  0  0  0  0  0  0  0  0  0  0  0
    4.3670    1.0190   -2.3680 C   0  0  0  0  0  0  0  0  0  0  0  0
    5.6630    0.8780   -1.6840 C   0  0  0  0  0  0  0  0  0  0  0  0
    6.8400    1.3330   -2.3350 N   0  0  0  0  0  0  0  0  0  0  0  0
    5.7350    0.3720   -0.5550 O   0  0  0  0  0  0  0  0  0  0  0  0
   -1.4270   -1.7660    0.3290 O   0  0  0  0  0  0  0  0  0  0  0  0
   -2.5940   -1.0910    0.1290 C   0  0  2  0  0  0  0  0  0  0  0  0
   -3.6320   -2.1260   -0.1120 C   0  0  0  0  0  0  0  0  0  0  0  0
   -4.8030   -1.7430   -0.3220 O   0  0  0  0  0  0  0  0  0  0  0  0
   -3.3480   -3.4670   -0.1110 O   0  0  0  0  0  0  0  0  0  0  0  0
   -2.4570   -0.3450   -1.1850 C   0  0  0  0  0  0  0  0  0  0  0  0
   -3.4990    0.7230   -1.3890 C   0  0  0  0  0  0  0  0  0  0  0  0
   -3.1070    1.9850   -0.0400 P   0  0  0  0  0  0  0  0  0  0  0  0
   -1.7730    2.9320   -0.6720 O   0  0  0  0  0  0  0  0  0  0  0  0
   -3.0610   -0.3400    1.1610 O   0  0  0  0  0  0  0  0  0  0  0  0
  1  2  1  0
  3  2  1  1
  3  4  1  0
  3 27  1  0
  3 29  1  0
  5  4  1  6
  5  6  1  0
  5  9  1  0
  6  7  1  0
  7  8  1  0
  8  9  1  0
  9 10  1  6
  9 20  1  0
 10 11  2  3
 11 12  1  0
 11 13  1  0
 13 14  2  0
 13 15  1  0
 15 16  1  0
 16 17  1  0
 17 18  1  0
 17 19  2  0
 20 21  1  0
 21 22  1  6
 21 25  1  0
 21 29  1  0
 22 23  2  0
 22 24  1  0
 25 26  1  0
 26 27  1  0
 27 28  1  0
M  END
