
     RDKit          3D

 29 30  0  0  0  0  0  0  0  0999 V2000
   -2.7720   -4.3620    1.9430 N   0  0  0  0  0  0  0  0  0  0  0  0
   -2.7840   -3.5750    0.8600 O   0  0  0  0  0  0  0  0  0  0  0  0
   -1.7880   -3.9170   -0.0430 C   0  0  0  0  0  0  0  0  0  0  0  0
   -1.8380   -3.0050   -1.2470 C   0  0  0  0  0  0  0  0  0  0  0  0
   -1.6530   -1.6180   -0.9170 N   0  0  0  0  0  0  0  0  0  0  0  0
   -0.3480   -1.0620   -0.8980 C   0  0  0  0  0  0  0  0  0  0  0  0
   -0.1890    0.1520   -0.6120 O   0  0  0  0  0  0  0  0  0  0  0  0
    0.8030   -1.8270   -1.1910 N   0  0  0  0  0  0  0  0  0  0  0  0
    2.1020   -1.2480   -1.1650 C   0  0  0  0  0  0  0  0  0  0  0  0
    2.3590    0.0520   -0.8660 N   0  0  0  0  0  0  0  0  0  0  0  0
    3.6870    0.2530   -0.9360 C   0  0  0  0  0  0  0  0  0  0  0  0
    4.4660    1.4890   -0.7010 C   0  0  1  0  0  0  0  0  0  0  0  0
    5.0850    1.3880    0.6780 C   0  0  0  0  0  0  0  0  0  0  0  0
    6.3480    0.5320    0.5220 C   0  0  0  0  0  0  0  0  0  0  0  0
    7.2170    1.0910   -0.5950 C   0  0  0  0  0  0  0  0  0  0  0  0
    6.5010    2.1930   -1.1130 O   0  0  0  0  0  0  0  0  0  0  0  0
    5.4350    1.6880   -1.6890 O   0  0  0  0  0  0  0  0  0  0  0  0
    4.2040   -0.9410   -1.2780 N   0  0  0  0  0  0  0  0  0  0  0  0
    3.2550   -1.8170   -1.4090 O   0  0  0  0  0  0  0  0  0  0  0  0
   -2.8080   -0.8070   -0.6100 C   0  0  0  0  0  0  0  0  0  0  0  0
   -3.9550   -1.3150   -0.6320 O   0  0  0  0  0  0  0  0  0  0  0  0
   -2.7020    0.5320   -0.2850 O   0  0  0  0  0  0  0  0  0  0  0  0
   -3.8090    1.3490    0.0200 C   0  0  2  0  0  0  0  0  0  0  0  0
   -3.8640    2.4840   -0.9810 C   0  0  0  0  0  0  0  0  0  0  0  0
   -4.9470    3.3240   -0.7180 O   0  0  0  0  0  0  0  0  0  0  0  0
   -4.9510    4.2870   -1.6080 O   0  0  0  0  0  0  0  0  0  0  0  0
   -3.6960    1.9610    1.4020 C   0  0  0  0  0  0  0  0  0  0  0  0
   -4.8600    2.7460    1.5710 O   0  0  0  0  0  0  0  0  0  0  0  0
   -4.8180    3.3070    2.7620 O   0  0  0  0  0  0  0  0  0  0  0  0
  1  2  1  0
  2  3  1  0
  3  4  1  0
  4  5  1  0
  5  6  1  0
  5 20  1  0
  6  7  2  0
  6  8  1  0
  8  9  1  0
  9 10  2  0
  9 19  1  0
 10 11  1  0
 12 11  1  6
 11 18  2  0
 12 13  1  0
 12 17  1  0
 13 14  1  0
 14 15  1  0
 15 16  1  0
 16 17  1  0
 18 19  1  0
 20 21  2  0
 20 22  1  0
 22 23  1  0
 23 24  1  6
 23 27  1  0
 24 25  1  0
 25 26  1  0
 27 28  1  0
 28 29  1  0
M  END
