
     RDKit          3D

 29 31  0  0  0  0  0  0  0  0999 V2000
   -4.6770    3.3030   -2.0760 O   0  0  0  0  0  0  0  0  0  0  0  0
   -4.1230    2.4700   -1.2570 C   0  0  0  0  0  0  0  0  0  0  0  0
   -4.9800    2.0170   -0.2090 N   0  0  0  0  0  0  0  0  0  0  0  0
   -4.9380    0.7960    0.5370 C   0  0  0  0  0  0  0  0  0  0  0  0
   -3.6840    0.0400    0.4990 C   0  0  0  0  0  0  0  0  0  0  0  0
   -3.9080   -1.1120    0.9530 O   0  0  0  0  0  0  0  0  0  0  0  0
   -2.3360    0.3310    0.0850 N   0  0  0  0  0  0  0  0  0  0  0  0
   -1.4480   -0.7440    0.1480 C   0  0  1  0  0  0  0  0  0  0  0  0
   -1.5020   -1.4820    1.5240 C   0  0  0  0  0  0  0  0  0  0  0  0
   -0.3970   -2.3300    1.6610 O   0  0  0  0  0  0  0  0  0  0  0  0
   -2.1120   -1.7330   -0.8740 C   0  0  0  0  0  0  0  0  0  0  0  0
   -1.5460   -1.5610   -2.0960 O   0  0  0  0  0  0  0  0  0  0  0  0
   -0.8970   -2.5930   -2.5360 O   0  0  0  0  0  0  0  0  0  0  0  0
    0.2100   -2.7540   -1.7940 C   0  0  0  0  0  0  0  0  0  0  0  0
    0.6050   -1.5490   -0.9390 C   0  0  0  0  0  0  0  0  0  0  0  0
    1.9910   -1.4450   -1.0570 N   0  0  0  0  0  0  0  0  0  0  0  0
    2.6430   -0.5000   -0.3150 C   0  0  0  0  0  0  0  0  0  0  0  0
    3.8830   -0.4750   -0.4840 N   0  0  0  0  0  0  0  0  0  0  0  0
    4.9910    0.1470   -0.1070 C   0  0  0  0  0  0  0  0  0  0  0  0
    4.7750    1.4710    0.7780 C   0  0  0  0  0  0  0  0  0  0  0  0
    6.1140    1.7730    1.0410 O   0  0  0  0  0  0  0  0  0  0  0  0
    6.5330    2.9710    0.6920 O   0  0  0  0  0  0  0  0  0  0  0  0
    7.5450    2.4330   -0.2210 O   0  0  0  0  0  0  0  0  0  0  0  0
    1.9180    0.2590    0.4580 O   0  0  0  0  0  0  0  0  0  0  0  0
    0.6430    0.2010    0.5900 C   0  0  0  0  0  0  0  0  0  0  0  0
   -0.0040    0.9930    1.4000 O   0  0  0  0  0  0  0  0  0  0  0  0
   -0.0690   -0.7430   -0.1350 N   0  0  0  0  0  0  0  0  0  0  0  0
   -1.8810    1.6450   -0.4250 C   0  0  0  0  0  0  0  0  0  0  0  0
   -2.8270    2.1050   -1.4500 O   0  0  0  0  0  0  0  0  0  0  0  0
  1  2  2  0
  2  3  1  0
  2 29  1  0
  3  4  1  0
  4  5  1  0
  5  6  2  0
  5  7  1  0
  7  8  1  0
  7 28  1  0
  8  9  1  1
  8 11  1  0
  8 27  1  0
  9 10  1  0
 11 12  1  0
 12 13  1  0
 13 14  1  0
 14 15  1  0
 15 16  2  0
 15 27  1  0
 16 17  1  0
 17 18  2  3
 17 24  1  0
 18 19  1  0
 19 20  1  0
 20 21  1  0
 21 22  1  0
 22 23  1  0
 24 25  1  0
 25 26  2  0
 25 27  1  0
 28 29  1  0
M  END
