
     RDKit          3D

 29 31  0  0  0  0  0  0  0  0999 V2000
    2.1470   -0.9990   -0.1290 O   0  0  0  0  0  0  0  0  0  0  0  0
    2.0000   -0.1130   -1.0080 C   0  0  0  0  0  0  0  0  0  0  0  0
    2.8730   -0.1500   -2.1270 N   0  0  0  0  0  0  0  0  0  0  0  0
    3.9060   -1.1500   -2.2870 C   0  0  0  0  0  0  0  0  0  0  0  0
    4.8980   -1.0890   -1.1480 C   0  0  0  0  0  0  0  0  0  0  0  0
    5.8800   -2.0620   -1.3310 O   0  0  0  0  0  0  0  0  0  0  0  0
    6.7680   -2.0680   -0.3890 O   0  0  0  0  0  0  0  0  0  0  0  0
    0.9870    0.8680   -0.8470 N   0  0  0  0  0  0  0  0  0  0  0  0
    0.1570    0.8470    0.2860 C   0  0  2  0  0  0  0  0  0  0  0  0
    0.8790    0.9820    1.5490 C   0  0  0  0  0  0  0  0  0  0  0  0
    0.2370    1.8970    2.4120 O   0  0  0  0  0  0  0  0  0  0  0  0
   -1.1440    1.7960    2.5210 C   0  0  0  0  0  0  0  0  0  0  0  0
   -1.7350    1.6960    3.6190 O   0  0  0  0  0  0  0  0  0  0  0  0
   -1.9050    1.8160    1.2210 N   0  0  0  0  0  0  0  0  0  0  0  0
   -3.2890    1.7310    1.4080 C   0  0  0  0  0  0  0  0  0  0  0  0
   -3.7480    2.5530    2.3990 O   0  0  0  0  0  0  0  0  0  0  0  0
   -4.4670    1.0300    0.8810 C   0  0  0  0  0  0  0  0  0  0  0  0
   -4.4410    0.0060    0.0450 O   0  0  0  0  0  0  0  0  0  0  0  0
   -5.2730   -1.0080    0.4000 O   0  0  0  0  0  0  0  0  0  0  0  0
   -4.3830   -2.1710    0.2360 O   0  0  0  0  0  0  0  0  0  0  0  0
   -3.0330   -1.5610    0.1820 C   0  0  0  0  0  0  0  0  0  0  0  0
   -2.4650   -1.4160    1.4000 C   0  0  0  0  0  0  0  0  0  0  0  0
   -1.2290   -0.7450    1.3900 N   0  0  0  0  0  0  0  0  0  0  0  0
   -0.7760   -0.3460    0.2220 C   0  0  0  0  0  0  0  0  0  0  0  0
   -1.3300   -0.5180   -0.9580 N   0  0  0  0  0  0  0  0  0  0  0  0
   -2.5650   -1.1810   -1.0160 C   0  0  0  0  0  0  0  0  0  0  0  0
   -2.9560   -1.2570   -2.3680 O   0  0  0  0  0  0  0  0  0  0  0  0
   -0.9900    1.9370    0.1730 C   0  0  0  0  0  0  0  0  0  0  0  0
   -0.8140    2.6470   -0.8190 O   0  0  0  0  0  0  0  0  0  0  0  0
  1  2  2  0
  2  3  1  0
  2  8  1  0
  3  4  1  0
  4  5  1  0
  5  6  1  0
  6  7  1  0
  9  8  1  6
  9 10  1  0
  9 24  1  0
  9 28  1  0
 10 11  1  0
 11 12  1  0
 12 13  2  0
 12 14  1  0
 14 15  1  0
 14 28  1  0
 15 16  2  0
 15 17  1  0
 17 18  1  0
 18 19  1  0
 19 20  1  0
 20 21  1  0
 21 22  2  0
 21 26  1  0
 22 23  1  0
 23 24  2  0
 24 25  1  0
 25 26  2  0
 26 27  1  0
 28 29  2  0
M  END
