
     RDKit          3D

 29 29  0  0  0  0  0  0  0  0999 V2000
    1.8970   -4.4460   -2.5050 N   0  0  0  0  0  0  0  0  0  0  0  0
    1.7310   -3.0480   -2.5070 C   0  0  0  0  0  0  0  0  0  0  0  0
    1.5090   -2.4780   -3.6170 O   0  0  0  0  0  0  0  0  0  0  0  0
    1.8280   -2.3330   -1.2220 C   0  0  0  0  0  0  0  0  0  0  0  0
    1.6340   -0.8910   -1.3560 N   0  0  0  0  0  0  0  0  0  0  0  0
    2.7290   -0.0270   -1.6090 C   0  0  0  0  0  0  0  0  0  0  0  0
    3.3910    0.4400   -0.4020 C   0  0  0  0  0  0  0  0  0  0  0  0
    3.2700    0.3310    0.7420 O   0  0  0  0  0  0  0  0  0  0  0  0
    4.7570    1.4300   -0.8540 N   0  0  0  0  0  0  0  0  0  0  0  0
    5.2040    1.6590    0.4900 C   0  0  0  0  0  0  0  0  0  0  0  0
    4.5960    1.5850    1.5510 O   0  0  0  0  0  0  0  0  0  0  0  0
    6.5260    1.9970    0.6430 N   0  0  0  0  0  0  0  0  0  0  0  0
    7.8040    2.3130    0.6160 C   0  0  0  0  0  0  0  0  0  0  0  0
    8.1920    2.3440    1.8850 O   0  0  0  0  0  0  0  0  0  0  0  0
    0.2930   -0.4250   -1.2160 C   0  0  0  0  0  0  0  0  0  0  0  0
    0.1290    0.8440   -1.3400 O   0  0  0  0  0  0  0  0  0  0  0  0
   -0.7550   -1.2850   -0.9660 O   0  0  0  0  0  0  0  0  0  0  0  0
   -2.0060   -0.8570   -0.8500 O   0  0  0  0  0  0  0  0  0  0  0  0
   -2.4820    0.1360    0.0230 C   0  0  0  0  0  0  0  0  0  0  0  0
   -1.5990    0.6440    0.7390 O   0  0  0  0  0  0  0  0  0  0  0  0
   -3.8360    0.4900    0.0530 N   0  0  0  0  0  0  0  0  0  0  0  0
   -4.6990   -0.2790   -0.9050 C   0  0  0  0  0  0  0  0  0  0  0  0
   -5.5420   -1.1550    0.0100 C   0  0  0  0  0  0  0  0  0  0  0  0
   -5.5130   -0.7100    1.3330 O   0  0  0  0  0  0  0  0  0  0  0  0
   -5.7080    0.6420    1.4800 C   0  0  0  0  0  0  0  0  0  0  0  0
   -4.5630    1.4230    0.8220 C   0  0  1  0  0  0  0  0  0  0  0  0
   -3.9090    2.2630    1.7990 C   0  0  0  0  0  0  0  0  0  0  0  0
   -4.6920    3.0230    2.5200 O   0  0  0  0  0  0  0  0  0  0  0  0
   -2.5880    2.4140    2.1160 O   0  0  0  0  0  0  0  0  0  0  0  0
  1  2  1  0
  2  3  2  0
  2  4  1  0
  4  5  1  0
  5  6  1  0
  5 15  1  0
  6  7  1  0
  7  8  2  0
  7  9  1  0
  9 10  1  0
 10 11  2  0
 10 12  1  0
 12 13  1  0
 13 14  2  0
 15 16  2  0
 15 17  1  0
 17 18  1  0
 18 19  1  0
 19 20  2  0
 19 21  1  0
 21 22  1  0
 21 26  1  0
 22 23  1  0
 23 24  1  0
 24 25  1  0
 25 26  1  0
 26 27  1  1
 27 28  2  0
 27 29  1  0
M  END
