
     RDKit          3D

 31 33  0  0  0  0  0  0  0  0999 V2000
   -8.2990    0.1840   -1.9120 C   0  0  0  0  0  0  0  0  0  0  0  0
   -7.0180    0.1440   -2.4160 O   0  0  0  0  0  0  0  0  0  0  0  0
   -5.9700    1.2080   -1.5330 P   0  0  0  0  0  0  0  0  0  0  0  0
   -6.9870    2.2550   -0.5710 O   0  0  0  0  0  0  0  0  0  0  0  0
   -6.2780    2.8310    0.4660 C   0  0  0  0  0  0  0  0  0  0  0  0
   -7.1540    3.6450    1.1820 O   0  0  0  0  0  0  0  0  0  0  0  0
   -5.0320    0.1630   -0.3310 C   0  0  0  0  0  0  0  0  0  0  0  0
   -5.4210   -1.1330   -0.0590 C   0  0  0  0  0  0  0  0  0  0  0  0
   -4.7100   -1.9180    0.8530 C   0  0  0  0  0  0  0  0  0  0  0  0
   -3.5990   -1.4070    1.5030 C   0  0  0  0  0  0  0  0  0  0  0  0
   -2.8720   -2.2640    2.4690 C   0  0  0  0  0  0  0  0  0  0  0  0
   -1.5200   -2.2070    2.2560 O   0  0  0  0  0  0  0  0  0  0  0  0
   -1.1550   -2.6420    0.9950 C   0  0  0  0  0  0  0  0  0  0  0  0
    0.3370   -2.5290    0.9000 C   0  0  0  0  0  0  0  0  0  0  0  0
    1.2710   -3.4390    1.3400 C   0  0  0  0  0  0  0  0  0  0  0  0
    2.4990   -2.9510    1.0650 N   0  0  0  0  0  0  0  0  0  0  0  0
    2.4410   -1.7580    0.4600 C   0  0  0  0  0  0  0  0  0  0  0  0
    3.4820   -0.9120    0.0100 N   0  0  0  0  0  0  0  0  0  0  0  0
    3.1730    0.3150   -0.7200 C   0  0  0  0  0  0  0  0  0  0  0  0
    4.0980    1.3890   -0.1970 C   0  0  0  0  0  0  0  0  0  0  0  0
    5.5200    0.9670   -0.4660 C   0  0  1  0  0  0  0  0  0  0  0  0
    5.6430    0.5550   -1.9060 C   0  0  0  0  0  0  0  0  0  0  0  0
    6.4980    2.0740   -0.1110 C   0  0  1  0  0  0  0  0  0  0  0  0
    7.9180    1.6250   -0.3190 C   0  0  0  0  0  0  0  0  0  0  0  0
    6.2660    3.2620   -0.9000 N   0  0  0  0  0  0  0  0  0  0  0  0
    5.7890   -0.1800    0.3390 O   0  0  0  0  0  0  0  0  0  0  0  0
    4.8380   -1.2220    0.2600 C   0  0  0  0  0  0  0  0  0  0  0  0
    5.1880   -2.4120    0.4080 O   0  0  0  0  0  0  0  0  0  0  0  0
    1.0660   -1.4980    0.3600 C   0  0  0  0  0  0  0  0  0  0  0  0
   -3.1960   -0.1140    1.2440 C   0  0  0  0  0  0  0  0  0  0  0  0
   -3.9170    0.6480    0.3330 C   0  0  0  0  0  0  0  0  0  0  0  0
  1  2  1  0
  2  3  1  0
  3  4  1  0
  3  7  1  0
  4  5  1  0
  5  6  1  0
  7  8  2  0
  7 31  1  0
  8  9  1  0
  9 10  2  0
 10 11  1  0
 10 30  1  0
 11 12  1  0
 12 13  1  0
 13 14  1  0
 14 15  2  0
 14 29  1  0
 15 16  1  0
 16 17  1  0
 17 18  1  0
 17 29  2  0
 18 19  1  0
 18 27  1  0
 19 20  1  0
 20 21  1  0
 21 22  1  6
 21 23  1  0
 21 26  1  0
 23 24  1  6
 23 25  1  0
 26 27  1  0
 27 28  2  0
 30 31  2  0
M  END
