
     RDKit          3D

 30 32  0  0  0  0  0  0  0  0999 V2000
   -7.7150    2.0250    1.7330 N   0  0  0  0  0  0  0  0  0  0  0  0
   -7.2640    0.9990    0.8740 C   0  0  0  0  0  0  0  0  0  0  0  0
   -8.1510    0.2490    0.1960 N   0  0  0  0  0  0  0  0  0  0  0  0
   -7.7420   -0.7390   -0.6310 C   0  0  0  0  0  0  0  0  0  0  0  0
   -6.4320   -0.9970   -0.7980 N   0  0  0  0  0  0  0  0  0  0  0  0
   -5.5000   -0.2890   -0.1540 C   0  0  0  0  0  0  0  0  0  0  0  0
   -5.9260    0.7200    0.6910 C   0  0  0  0  0  0  0  0  0  0  0  0
   -4.8340    1.2730    1.2090 N   0  0  0  0  0  0  0  0  0  0  0  0
   -3.7540    0.6210    0.6960 C   0  0  0  0  0  0  0  0  0  0  0  0
   -4.1560   -0.3390   -0.1410 N   0  0  0  0  0  0  0  0  0  0  0  0
   -3.3150   -1.2730   -0.9040 C   0  0  1  0  0  0  0  0  0  0  0  0
   -2.8570   -0.6980   -2.2010 C   0  0  0  0  0  0  0  0  0  0  0  0
   -1.3940   -0.4180   -1.9270 C   0  0  2  0  0  0  0  0  0  0  0  0
   -0.6960   -0.6290   -3.1100 O   0  0  0  0  0  0  0  0  0  0  0  0
   -1.0790   -1.4200   -0.8600 C   0  0  1  0  0  0  0  0  0  0  0  0
   -0.0690   -0.8980    0.1060 C   0  0  0  0  0  0  0  0  0  0  0  0
    1.1400   -0.5800   -0.4440 O   0  0  0  0  0  0  0  0  0  0  0  0
    2.3100   -0.0040    0.5030 P   0  0  0  0  0  0  0  0  0  0  0  0
    2.6460   -0.7080    1.9970 O   0  0  0  0  0  0  0  0  0  0  0  0
    3.1390    1.3780    0.1300 O   0  0  0  0  0  0  0  0  0  0  0  0
    3.4040   -0.8960   -0.0880 O   0  0  0  0  0  0  0  0  0  0  0  0
    4.9400   -0.8240    0.0350 P   0  0  0  0  0  0  0  0  0  0  0  0
    4.9090    0.3750   -1.1040 O   0  0  0  0  0  0  0  0  0  0  0  0
    4.7620   -0.4120    1.6230 O   0  0  0  0  0  0  0  0  0  0  0  0
    6.4610   -0.5800    0.1770 O   0  0  0  0  0  0  0  0  0  0  0  0
    6.9130    0.9170    0.7690 P   0  0  0  0  0  0  0  0  0  0  0  0
    8.2360    1.7100    0.1150 O   0  0  0  0  0  0  0  0  0  0  0  0
    7.8020    0.2360    1.8000 O   0  0  0  0  0  0  0  0  0  0  0  0
    5.9350    1.7090    1.7790 O   0  0  0  0  0  0  0  0  0  0  0  0
   -2.2440   -1.6990   -0.1770 O   0  0  0  0  0  0  0  0  0  0  0  0
  1  2  1  0
  2  3  2  0
  2  7  1  0
  3  4  1  0
  4  5  2  0
  5  6  1  0
  6  7  2  0
  6 10  1  0
  7  8  1  0
  8  9  2  0
  9 10  1  0
 11 10  1  1
 11 12  1  0
 11 30  1  0
 12 13  1  0
 13 14  1  6
 13 15  1  0
 15 16  1  1
 15 30  1  0
 16 17  1  0
 17 18  1  0
 18 19  1  0
 18 20  1  0
 18 21  1  0
 21 22  1  0
 22 23  1  0
 22 24  1  0
 22 25  1  0
 25 26  1  0
 26 27  1  0
 26 28  1  0
 26 29  1  0
M  END
