
     RDKit          3D

 29 30  0  0  0  0  0  0  0  0999 V2000
   -6.8110    1.6590    0.0370 N   0  0  0  0  0  0  0  0  0  0  0  0
   -5.7780    0.7280    0.3310 C   0  0  0  0  0  0  0  0  0  0  0  0
   -5.9750   -0.4850    0.1680 O   0  0  0  0  0  0  0  0  0  0  0  0
   -4.4720    1.2340    0.8320 C   0  0  0  0  0  0  0  0  0  0  0  0
   -3.5510    0.0540    1.0680 C   0  0  1  0  0  0  0  0  0  0  0  0
   -3.3390   -0.6700   -0.1280 O   0  0  0  0  0  0  0  0  0  0  0  0
   -2.0830   -1.0870   -0.5390 C   0  0  0  0  0  0  0  0  0  0  0  0
   -1.1100   -0.2430   -0.4830 N   0  0  0  0  0  0  0  0  0  0  0  0
   -1.1260    0.6550    0.6190 C   0  0  0  0  0  0  0  0  0  0  0  0
   -0.2230    1.5410    0.8170 N   0  0  0  0  0  0  0  0  0  0  0  0
    0.8580    1.8100    0.0970 O   0  0  0  0  0  0  0  0  0  0  0  0
    1.6860    1.1550   -0.7360 C   0  0  0  0  0  0  0  0  0  0  0  0
    1.6900    1.1930   -2.0080 O   0  0  0  0  0  0  0  0  0  0  0  0
    2.7110    0.2950   -0.2010 N   0  0  0  0  0  0  0  0  0  0  0  0
    4.0610    0.3450   -0.8170 C   0  0  0  0  0  0  0  0  0  0  0  0
    4.8690    1.4030   -0.0790 C   0  0  0  0  0  0  0  0  0  0  0  0
    6.1410    1.5270   -0.5790 O   0  0  0  0  0  0  0  0  0  0  0  0
    6.7590    2.4550    0.1140 O   0  0  0  0  0  0  0  0  0  0  0  0
    7.7590    1.8700    0.7390 O   0  0  0  0  0  0  0  0  0  0  0  0
    2.5070   -0.5940    0.8920 C   0  0  0  0  0  0  0  0  0  0  0  0
    3.4870   -0.6830    1.7210 O   0  0  0  0  0  0  0  0  0  0  0  0
    1.3980   -1.3190    1.1080 O   0  0  0  0  0  0  0  0  0  0  0  0
    0.7590   -2.3460    0.4350 C   0  0  0  0  0  0  0  0  0  0  0  0
    0.6840   -2.2440   -1.0150 C   0  0  0  0  0  0  0  0  0  0  0  0
    1.7090   -1.9350   -1.6680 O   0  0  0  0  0  0  0  0  0  0  0  0
   -0.5160   -2.4850   -1.7090 N   0  0  0  0  0  0  0  0  0  0  0  0
   -1.7810   -2.4530   -1.0420 C   0  0  0  0  0  0  0  0  0  0  0  0
   -2.2320    0.5290    1.5590 C   0  0  0  0  0  0  0  0  0  0  0  0
   -2.1150    0.8070    2.7800 O   0  0  0  0  0  0  0  0  0  0  0  0
  1  2  1  0
  2  3  2  0
  2  4  1  0
  5  4  1  6
  5  6  1  0
  5 28  1  0
  6  7  1  0
  7  8  2  0
  7 27  1  0
  8  9  1  0
  9 10  2  0
  9 28  1  0
 10 11  1  0
 11 12  1  0
 12 13  2  0
 12 14  1  0
 14 15  1  0
 14 20  1  0
 15 16  1  0
 16 17  1  0
 17 18  1  0
 18 19  1  0
 20 21  2  0
 20 22  1  0
 22 23  1  0
 23 24  1  0
 24 25  2  0
 24 26  1  0
 26 27  1  0
 28 29  2  0
M  END
