
     RDKit          3D

 30 33  0  0  0  0  0  0  0  0999 V2000
    2.6230   -2.8210   -2.8940 O   0  0  0  0  0  0  0  0  0  0  0  0
    1.9940   -2.2960   -1.9100 C   0  0  0  0  0  0  0  0  0  0  0  0
    2.0020   -2.9540   -0.5760 C   0  0  0  0  0  0  0  0  0  0  0  0
    2.2110   -1.9460    0.3610 O   0  0  0  0  0  0  0  0  0  0  0  0
    1.1660   -1.0460    0.3520 C   0  0  2  0  0  0  0  0  0  0  0  0
   -0.1350   -1.6820    0.6980 C   0  0  0  0  0  0  0  0  0  0  0  0
   -1.3160   -1.6060    0.0970 N   0  0  0  0  0  0  0  0  0  0  0  0
   -2.2040   -2.3580    0.7870 C   0  0  0  0  0  0  0  0  0  0  0  0
   -3.5440   -2.5580    0.5150 O   0  0  0  0  0  0  0  0  0  0  0  0
   -4.1660   -1.9780   -0.5870 C   0  0  0  0  0  0  0  0  0  0  0  0
   -4.1410   -0.5070   -0.5840 C   0  0  0  0  0  0  0  0  0  0  0  0
   -3.1200    0.3540   -0.3910 N   0  0  0  0  0  0  0  0  0  0  0  0
   -3.5490    1.6210   -0.4740 C   0  0  0  0  0  0  0  0  0  0  0  0
   -2.9220    2.7120   -0.3550 O   0  0  0  0  0  0  0  0  0  0  0  0
   -4.8670    1.5460   -0.7250 N   0  0  0  0  0  0  0  0  0  0  0  0
   -5.2260    0.2860   -0.7920 N   0  0  0  0  0  0  0  0  0  0  0  0
   -1.4760   -2.8880    1.8380 C   0  0  0  0  0  0  0  0  0  0  0  0
   -0.2660   -2.4530    1.7310 O   0  0  0  0  0  0  0  0  0  0  0  0
    1.1470   -0.2750   -0.9240 C   0  0  1  0  0  0  0  0  0  0  0  0
    2.3160    0.6440   -0.8760 C   0  0  0  0  0  0  0  0  0  0  0  0
    3.1940    0.5180   -1.7690 O   0  0  0  0  0  0  0  0  0  0  0  0
    2.4620    1.6360    0.1320 N   0  0  0  0  0  0  0  0  0  0  0  0
    3.6290    2.4500    0.0900 C   0  0  0  0  0  0  0  0  0  0  0  0
    4.4810    2.2660   -0.8180 O   0  0  0  0  0  0  0  0  0  0  0  0
    3.8520    3.5120    1.1060 C   0  0  1  0  0  0  0  0  0  0  0  0
    5.0590    4.1410    0.8510 O   0  0  0  0  0  0  0  0  0  0  0  0
    4.7410    5.0430   -0.0440 O   0  0  0  0  0  0  0  0  0  0  0  0
    3.5140    5.4160    0.2020 O   0  0  0  0  0  0  0  0  0  0  0  0
    2.9340    4.5150    0.9200 O   0  0  0  0  0  0  0  0  0  0  0  0
    1.2940   -1.1160   -2.0380 O   0  0  0  0  0  0  0  0  0  0  0  0
  1  2  2  0
  2  3  1  0
  2 30  1  0
  3  4  1  0
  4  5  1  0
  5  6  1  6
  5 19  1  0
  6  7  2  0
  6 18  1  0
  7  8  1  0
  8  9  1  0
  8 17  2  0
  9 10  1  0
 10 11  1  0
 11 12  2  0
 11 16  1  0
 12 13  1  0
 13 14  2  0
 13 15  1  0
 15 16  1  0
 17 18  1  0
 19 20  1  1
 19 30  1  0
 20 21  2  0
 20 22  1  0
 22 23  1  0
 23 24  2  0
 25 23  1  6
 25 26  1  0
 25 29  1  0
 26 27  1  0
 27 28  1  0
 28 29  1  0
M  END
