
     RDKit          3D

 29 30  0  0  0  0  0  0  0  0999 V2000
   -1.9880   -2.8470    2.2470 O   0  0  0  0  0  0  0  0  0  0  0  0
   -2.6540   -2.1040    1.5150 C   0  0  0  0  0  0  0  0  0  0  0  0
   -4.1340   -2.0910    1.6480 C   0  0  0  0  0  0  0  0  0  0  0  0
   -4.5520   -2.9640    2.6290 O   0  0  0  0  0  0  0  0  0  0  0  0
   -5.8410   -2.9900    2.7850 O   0  0  0  0  0  0  0  0  0  0  0  0
   -6.4510   -3.6350    1.8100 O   0  0  0  0  0  0  0  0  0  0  0  0
   -2.0020   -1.2550    0.5370 N   0  0  0  0  0  0  0  0  0  0  0  0
   -0.6090   -1.2380    0.3820 C   0  0  0  0  0  0  0  0  0  0  0  0
   -0.0070   -2.1070    1.1550 O   0  0  0  0  0  0  0  0  0  0  0  0
    0.2220   -0.4830   -0.4400 N   0  0  0  0  0  0  0  0  0  0  0  0
    1.6470   -0.9780   -0.3980 C   0  0  0  0  0  0  0  0  0  0  0  0
    2.4040   -0.3900    0.7330 C   0  0  0  0  0  0  0  0  0  0  0  0
    2.5630    0.9440    0.7750 O   0  0  0  0  0  0  0  0  0  0  0  0
    3.3370    1.5610   -0.1570 C   0  0  0  0  0  0  0  0  0  0  0  0
    4.7280    1.0270   -0.0630 C   0  0  0  0  0  0  0  0  0  0  0  0
    5.3510    0.4220   -1.0070 N   0  0  0  0  0  0  0  0  0  0  0  0
    6.6760    0.0470   -0.5550 C   0  0  0  0  0  0  0  0  0  0  0  0
    6.7930    0.6540    0.6820 O   0  0  0  0  0  0  0  0  0  0  0  0
    5.5830    1.0780    1.0210 O   0  0  0  0  0  0  0  0  0  0  0  0
   -0.1070    0.5300   -1.3220 C   0  0  0  0  0  0  0  0  0  0  0  0
    0.8240    0.7550   -2.2480 O   0  0  0  0  0  0  0  0  0  0  0  0
   -1.2180    1.4090   -1.4760 C   0  0  0  0  0  0  0  0  0  0  0  0
   -1.9930    1.8300   -0.4320 C   0  0  0  0  0  0  0  0  0  0  0  0
   -2.9870    2.7880   -0.6550 C   0  0  0  0  0  0  0  0  0  0  0  0
   -3.7550    3.1930    0.4190 O   0  0  0  0  0  0  0  0  0  0  0  0
   -3.2140    3.3150   -1.8480 N   0  0  0  0  0  0  0  0  0  0  0  0
   -2.4830    2.9250   -2.8560 N   0  0  0  0  0  0  0  0  0  0  0  0
   -1.5130    2.0090   -2.7110 C   0  0  0  0  0  0  0  0  0  0  0  0
   -0.7570    1.6190   -3.7990 O   0  0  0  0  0  0  0  0  0  0  0  0
  1  2  2  0
  2  3  1  0
  2  7  1  0
  3  4  1  0
  4  5  1  0
  5  6  1  0
  7  8  1  0
  8  9  2  0
  8 10  1  0
 10 11  1  0
 10 20  1  0
 11 12  1  0
 12 13  1  0
 13 14  1  0
 14 15  1  0
 15 16  2  0
 15 19  1  0
 16 17  1  0
 17 18  1  0
 18 19  1  0
 20 21  2  0
 20 22  1  0
 22 23  2  0
 22 28  1  0
 23 24  1  0
 24 25  1  0
 24 26  2  0
 26 27  1  0
 27 28  2  0
 28 29  1  0
M  END
