
     RDKit          3D

 34 38  0  0  0  0  0  0  0  0999 V2000
   -5.7890   -2.8380    0.8060 C   0  0  0  0  0  0  0  0  0  0  0  0
   -5.3820   -1.5290    0.5320 O   0  0  0  0  0  0  0  0  0  0  0  0
   -6.2280   -0.4500    0.3930 C   0  0  0  0  0  0  0  0  0  0  0  0
   -7.5940   -0.5800    0.5150 C   0  0  0  0  0  0  0  0  0  0  0  0
   -8.4090    0.5150    0.3700 C   0  0  0  0  0  0  0  0  0  0  0  0
   -7.8880    1.7590    0.1010 C   0  0  0  0  0  0  0  0  0  0  0  0
   -6.4990    1.8640   -0.0190 C   0  0  0  0  0  0  0  0  0  0  0  0
   -5.6640    0.7800    0.1230 C   0  0  0  0  0  0  0  0  0  0  0  0
   -4.2080    0.9420   -0.0130 C   0  0  0  0  0  0  0  0  0  0  0  0
   -3.4870   -0.0900    0.1270 N   0  0  0  0  0  0  0  0  0  0  0  0
   -2.1010   -0.1720    0.0430 N   0  0  0  0  0  0  0  0  0  0  0  0
   -1.5010   -0.5190   -1.2020 C   0  0  0  0  0  0  0  0  0  0  0  0
   -0.1240   -1.0840   -1.0960 C   0  0  0  0  0  0  0  0  0  0  0  0
    0.5180   -0.9150    0.1610 N   0  0  2  0  0  0  0  0  0  0  0  0
    1.6030   -1.8980    0.3140 C   0  0  0  0  0  0  0  0  0  0  0  0
    2.8200   -1.4370   -0.4000 C   0  0  0  0  0  0  0  0  0  0  0  0
    3.0160   -1.7790   -1.7210 C   0  0  0  0  0  0  0  0  0  0  0  0
    4.1300   -1.3750   -2.4270 C   0  0  0  0  0  0  0  0  0  0  0  0
    5.0620   -0.6050   -1.7620 C   0  0  0  0  0  0  0  0  0  0  0  0
    4.9030   -0.2420   -0.4410 C   0  0  0  0  0  0  0  0  0  0  0  0
    5.9160    0.5470    0.1430 N   0  0  0  0  0  0  0  0  0  0  0  0
    7.0650    0.0710    0.8140 C   0  0  0  0  0  0  0  0  0  0  0  0
    7.8120    1.1770    1.4530 C   0  0  0  0  0  0  0  0  0  0  0  0
    7.6680    2.4280    0.6700 C   0  0  0  0  0  0  0  0  0  0  0  0
    5.9500    2.2690    0.1500 S   0  0  1  0  0  0  0  0  0  0  0  0
    5.7360    2.8580   -1.1980 O   0  0  0  0  0  0  0  0  0  0  0  0
    5.0320    2.8450    1.1880 O   0  0  0  0  0  0  0  0  0  0  0  0
    3.7820   -0.6660    0.2170 C   0  0  0  0  0  0  0  0  0  0  0  0
   -0.3220   -1.0590    1.3180 C   0  0  0  0  0  0  0  0  0  0  0  0
   -1.3280    0.1000    1.2560 C   0  0  0  0  0  0  0  0  0  0  0  0
   -3.7190    2.2830   -0.2980 C   0  0  0  0  0  0  0  0  0  0  0  0
   -2.4910    2.4890   -0.4250 O   0  0  0  0  0  0  0  0  0  0  0  0
   -4.6970    3.3630   -0.4290 C   0  0  0  0  0  0  0  0  0  0  0  0
   -5.9600    3.1500   -0.2980 N   0  0  0  0  0  0  0  0  0  0  0  0
  1  2  1  0
  2  3  1  0
  3  4  2  0
  3  8  1  0
  4  5  1  0
  5  6  2  0
  6  7  1  0
  7  8  2  0
  7 34  1  0
  8  9  1  0
  9 10  2  3
  9 31  1  0
 10 11  1  0
 11 12  1  0
 11 30  1  0
 12 13  1  0
 13 14  1  0
 14 15  1  1
 14 29  1  0
 15 16  1  0
 16 17  2  0
 16 28  1  0
 17 18  1  0
 18 19  2  0
 19 20  1  0
 20 21  1  0
 20 28  2  0
 21 22  1  0
 21 25  1  0
 22 23  1  0
 23 24  1  0
 25 24  1  1
 25 26  2  0
 25 27  2  0
 29 30  1  0
 31 32  2  0
 31 33  1  0
 33 34  2  0
M  CHG  1  14   1
M  END
