
     RDKit          3D

 34 38  0  0  0  0  0  0  0  0999 V2000
    8.4080    2.3720    1.1240 C   0  0  0  0  0  0  0  0  0  0  0  0
    7.2130    1.4820    2.1420 S   0  0  0  0  0  0  0  0  0  0  0  0
    5.9390    0.8280    1.0910 C   0  0  0  0  0  0  0  0  0  0  0  0
    4.8280    1.6010    0.8400 C   0  0  0  0  0  0  0  0  0  0  0  0
    3.8100    1.1100    0.0160 C   0  0  0  0  0  0  0  0  0  0  0  0
    3.8990   -0.1380   -0.5510 C   0  0  0  0  0  0  0  0  0  0  0  0
    5.0070   -0.9110   -0.3010 C   0  0  0  0  0  0  0  0  0  0  0  0
    5.9990   -0.4100    0.5130 C   0  0  0  0  0  0  0  0  0  0  0  0
    7.1840   -1.2820    0.7570 C   0  0  0  0  0  0  0  0  0  0  0  0
    6.6770   -2.5900    0.8810 O   0  0  0  0  0  0  0  0  0  0  0  0
    6.2520   -3.0540   -0.3650 C   0  0  0  0  0  0  0  0  0  0  0  0
    5.0960   -2.2500   -0.9130 C   0  0  0  0  0  0  0  0  0  0  0  0
    2.7070   -0.4050   -1.3630 C   0  0  0  0  0  0  0  0  0  0  0  0
    2.4770   -1.4450   -2.0090 O   0  0  0  0  0  0  0  0  0  0  0  0
    1.8620    0.7310   -1.2830 N   0  0  0  0  0  0  0  0  0  0  0  0
    0.6050    0.9220   -1.9060 N   0  0  0  0  0  0  0  0  0  0  0  0
   -0.4910    0.8270   -1.2560 C   0  0  0  0  0  0  0  0  0  0  0  0
   -1.8030    1.0230   -1.8970 C   0  0  0  0  0  0  0  0  0  0  0  0
   -2.6600   -0.1600   -1.5330 C   0  0  0  0  0  0  0  0  0  0  0  0
   -2.8180   -0.3410   -0.1340 N   0  0  2  0  0  0  0  0  0  0  0  0
   -3.6950    0.6450    0.4120 C   0  0  0  0  0  0  0  0  0  0  0  0
   -5.1170    0.2970    0.2340 C   0  0  0  0  0  0  0  0  0  0  0  0
   -5.5680   -0.8400   -0.3820 C   0  0  0  0  0  0  0  0  0  0  0  0
   -6.9330   -1.1250   -0.5260 C   0  0  0  0  0  0  0  0  0  0  0  0
   -7.4130   -2.3570   -1.1940 C   0  0  0  0  0  0  0  0  0  0  0  0
   -7.8050   -0.2420   -0.0370 N   0  0  0  0  0  0  0  0  0  0  0  0
   -7.4120    0.8650    0.5630 N   0  0  0  0  0  0  0  0  0  0  0  0
   -8.4590    1.7640    1.0620 C   0  0  0  0  0  0  0  0  0  0  0  0
   -6.1160    1.1490    0.7070 C   0  0  0  0  0  0  0  0  0  0  0  0
   -5.7640    2.2060    1.2800 O   0  0  0  0  0  0  0  0  0  0  0  0
   -1.5630   -0.4280    0.5930 C   0  0  0  0  0  0  0  0  0  0  0  0
   -0.5020    0.5120    0.1860 C   0  0  0  0  0  0  0  0  0  0  0  0
    2.5380    1.6550   -0.4400 C   0  0  0  0  0  0  0  0  0  0  0  0
    2.0650    2.7860   -0.1500 O   0  0  0  0  0  0  0  0  0  0  0  0
  1  2  1  0
  2  3  1  0
  3  4  2  0
  3  8  1  0
  4  5  1  0
  5  6  2  0
  5 33  1  0
  6  7  1  0
  6 13  1  0
  7  8  2  0
  7 12  1  0
  8  9  1  0
  9 10  1  0
 10 11  1  0
 11 12  1  0
 13 14  2  0
 13 15  1  0
 15 16  1  0
 15 33  1  0
 16 17  2  3
 17 18  1  0
 17 32  1  0
 18 19  1  0
 19 20  1  0
 20 21  1  1
 20 31  1  0
 21 22  1  0
 22 23  2  0
 22 29  1  0
 23 24  1  0
 24 25  1  0
 24 26  2  0
 26 27  1  0
 27 28  1  0
 27 29  1  0
 29 30  2  0
 31 32  1  0
 33 34  2  0
M  CHG  1  20   1
M  END
