
     RDKit          3D

 34 37  0  0  0  0  0  0  0  0999 V2000
   -5.8910   -3.1240    2.0150 C   0  0  0  0  0  0  0  0  0  0  0  0
   -6.4790   -1.7780    1.7970 C   0  0  0  0  0  0  0  0  0  0  0  0
   -5.8780   -0.9620    0.9540 C   0  0  0  0  0  0  0  0  0  0  0  0
   -4.6440   -1.3950    0.2490 C   0  0  0  0  0  0  0  0  0  0  0  0
   -4.7580   -1.2140   -1.1710 N   0  0  0  0  0  0  0  0  0  0  0  0
   -3.9700   -2.1200   -1.9550 C   0  0  0  0  0  0  0  0  0  0  0  0
   -2.5080   -1.8570   -1.8050 C   0  0  0  0  0  0  0  0  0  0  0  0
   -1.6530   -2.5600   -2.4060 O   0  0  0  0  0  0  0  0  0  0  0  0
   -2.1130   -0.8260   -0.9920 O   0  0  0  0  0  0  0  0  0  0  0  0
   -0.7770   -0.5180   -0.8020 C   0  0  0  0  0  0  0  0  0  0  0  0
   -0.1460    0.3900   -1.6200 C   0  0  0  0  0  0  0  0  0  0  0  0
    1.2020    0.6920   -1.4170 C   0  0  0  0  0  0  0  0  0  0  0  0
    1.9280    0.1050   -0.4130 C   0  0  0  0  0  0  0  0  0  0  0  0
    3.2930    0.4180   -0.2130 N   0  0  0  0  0  0  0  0  0  0  0  0
    3.7180    1.3350    0.5510 C   0  0  0  0  0  0  0  0  0  0  0  0
    2.7100    2.4260    1.5340 S   0  0  0  0  0  0  0  0  0  0  0  0
    4.0850    3.4980    2.1310 C   0  0  0  0  0  0  0  0  0  0  0  0
    5.2200    2.5540    1.9090 C   0  0  0  0  0  0  0  0  0  0  0  0
    6.2170    2.5960    2.7160 O   0  0  0  0  0  0  0  0  0  0  0  0
    5.0500    1.7110    0.8100 N   0  0  0  0  0  0  0  0  0  0  0  0
    6.1620    1.2280   -0.0230 C   0  0  0  0  0  0  0  0  0  0  0  0
    6.6970   -0.0800    0.5240 C   0  0  0  0  0  0  0  0  0  0  0  0
    7.7770   -0.5560   -0.2800 N   0  0  2  0  0  0  0  0  0  0  0  0
    8.7150   -1.3250    0.5060 C   0  0  0  0  0  0  0  0  0  0  0  0
    8.5130    0.5120   -0.9300 C   0  0  0  0  0  0  0  0  0  0  0  0
    1.2820   -0.8000    0.3970 C   0  0  0  0  0  0  0  0  0  0  0  0
   -0.0580   -1.1210    0.2190 C   0  0  0  0  0  0  0  0  0  0  0  0
   -4.6040    0.1640   -1.6000 C   0  0  0  0  0  0  0  0  0  0  0  0
   -5.9460    0.8630   -1.4930 C   0  0  0  0  0  0  0  0  0  0  0  0
   -6.1340    1.4500   -0.0940 C   0  0  1  0  0  0  0  0  0  0  0  0
   -7.2490    2.2820   -0.1310 O   0  0  0  0  0  0  0  0  0  0  0  0
   -7.9380    2.0580    1.0600 C   0  0  0  0  0  0  0  0  0  0  0  0
   -7.5680    0.7290    1.4500 N   0  0  0  0  0  0  0  0  0  0  0  0
   -6.5240    0.3390    0.8030 C   0  0  0  0  0  0  0  0  0  0  0  0
  1  2  1  0
  2  3  2  3
  3  4  1  0
  3 34  1  0
  4  5  1  0
  5  6  1  0
  5 28  1  0
  6  7  1  0
  7  8  2  0
  7  9  1  0
  9 10  1  0
 10 11  2  0
 10 27  1  0
 11 12  1  0
 12 13  2  0
 13 14  1  0
 13 26  1  0
 14 15  2  3
 15 16  1  0
 15 20  1  0
 16 17  1  0
 17 18  1  0
 18 19  2  0
 18 20  1  0
 20 21  1  0
 21 22  1  0
 22 23  1  0
 23 24  1  1
 23 25  1  0
 26 27  2  0
 28 29  1  0
 30 29  1  6
 30 31  1  0
 30 34  1  0
 31 32  1  0
 32 33  1  0
 33 34  2  0
M  CHG  1  23   1
M  END
