
     RDKit          3D

 34 37  0  0  0  0  0  0  0  0999 V2000
    5.6590    2.6460   -0.0860 C   0  0  0  0  0  0  0  0  0  0  0  0
    6.5180    1.7430   -0.3520 C   0  0  0  0  0  0  0  0  0  0  0  0
    6.1280    0.3030   -0.4300 C   0  0  0  0  0  0  0  0  0  0  0  0
    7.0910   -0.5370   -0.7520 C   0  0  0  0  0  0  0  0  0  0  0  0
    8.4340    0.0900   -0.9900 C   0  0  0  0  0  0  0  0  0  0  0  0
    7.0140   -1.9130   -0.8970 O   0  0  0  0  0  0  0  0  0  0  0  0
    6.2610   -2.8300   -0.1670 C   0  0  0  0  0  0  0  0  0  0  0  0
    5.4990   -2.1870    0.9630 C   0  0  0  0  0  0  0  0  0  0  0  0
    4.5180   -1.2480    0.5140 N   0  0  0  0  0  0  0  0  0  0  0  0
    3.1750   -1.6310    0.6820 C   0  0  0  0  0  0  0  0  0  0  0  0
    2.9270   -2.7610    1.2170 O   0  0  0  0  0  0  0  0  0  0  0  0
    2.0400   -0.8100    0.2760 C   0  0  1  0  0  0  0  0  0  0  0  0
    0.7250   -1.3840    0.7110 C   0  0  0  0  0  0  0  0  0  0  0  0
   -0.4490   -0.6780    0.3360 N   0  0  0  0  0  0  0  0  0  0  0  0
   -1.4440   -0.6320    1.3730 C   0  0  0  0  0  0  0  0  0  0  0  0
   -2.7170   -0.0780    0.9850 N   0  0  0  0  0  0  0  0  0  0  0  0
   -3.8170   -0.8650    0.4560 C   0  0  0  0  0  0  0  0  0  0  0  0
   -3.8060   -2.1170    0.2350 O   0  0  0  0  0  0  0  0  0  0  0  0
   -4.8840    0.0350    0.2390 N   0  0  0  0  0  0  0  0  0  0  0  0
   -6.2770   -0.3320    0.1420 C   0  0  0  0  0  0  0  0  0  0  0  0
   -6.6980   -1.1800   -0.8600 C   0  0  0  0  0  0  0  0  0  0  0  0
   -8.0320   -1.5380   -0.9700 C   0  0  0  0  0  0  0  0  0  0  0  0
   -8.8710   -1.0200   -0.0620 N   0  0  0  0  0  0  0  0  0  0  0  0
   -8.5080   -0.1930    0.9270 C   0  0  0  0  0  0  0  0  0  0  0  0
   -7.1850    0.1620    1.0380 C   0  0  0  0  0  0  0  0  0  0  0  0
   -4.3220    1.3610    0.1310 C   0  0  1  0  0  0  0  0  0  0  0  0
   -3.8900    1.5790   -1.2820 C   0  0  0  0  0  0  0  0  0  0  0  0
   -5.2840    2.4470    0.5910 C   0  0  0  0  0  0  0  0  0  0  0  0
   -3.1600    1.2660    1.0660 C   0  0  0  0  0  0  0  0  0  0  0  0
   -2.6720    2.1770    1.7770 O   0  0  0  0  0  0  0  0  0  0  0  0
   -0.2520    0.5720   -0.3310 C   0  0  0  0  0  0  0  0  0  0  0  0
    0.4620    1.6060    0.5110 C   0  0  0  0  0  0  0  0  0  0  0  0
    2.1150    0.9090    0.8510 S   0  0  0  0  0  0  0  0  0  0  0  0
    4.6920    0.0640   -0.0720 C   0  0  0  0  0  0  0  0  0  0  0  0
  1  2  2  0
  2  3  1  0
  3  4  2  0
  3 34  1  0
  4  5  1  0
  4  6  1  0
  6  7  1  0
  7  8  1  0
  8  9  1  0
  9 10  1  0
  9 34  1  0
 10 11  2  0
 12 10  1  1
 12 13  1  0
 12 33  1  0
 13 14  1  0
 14 15  1  0
 14 31  1  0
 15 16  1  0
 16 17  1  0
 16 29  1  0
 17 18  2  0
 17 19  1  0
 19 20  1  0
 19 26  1  0
 20 21  2  0
 20 25  1  0
 21 22  1  0
 22 23  2  0
 23 24  1  0
 24 25  2  0
 26 27  1  6
 26 28  1  0
 26 29  1  0
 29 30  2  0
 31 32  1  0
 32 33  1  0
M  CHG  1  23   1
M  END
