
     RDKit          3D

 34 38  0  0  0  0  0  0  0  0999 V2000
   -2.7990    3.2600   -1.7000 C   0  0  0  0  0  0  0  0  0  0  0  0
   -4.0970    3.0210   -1.1760 O   0  0  0  0  0  0  0  0  0  0  0  0
   -4.2380    1.9720   -0.2870 C   0  0  0  0  0  0  0  0  0  0  0  0
   -3.2170    1.1500    0.1300 C   0  0  0  0  0  0  0  0  0  0  0  0
   -3.3890    0.1140    1.0160 C   0  0  0  0  0  0  0  0  0  0  0  0
   -2.3190   -0.6940    1.3870 N   0  0  0  0  0  0  0  0  0  0  0  0
   -1.9070   -1.0230    2.7290 C   0  0  0  0  0  0  0  0  0  0  0  0
   -0.8480   -2.1240    2.5470 C   0  0  0  0  0  0  0  0  0  0  0  0
   -0.2670   -1.6750    1.3000 N   0  0  0  0  0  0  0  0  0  0  0  0
    1.1000   -1.5750    1.0050 C   0  0  0  0  0  0  0  0  0  0  0  0
    1.9120   -1.9400    1.9430 O   0  0  0  0  0  0  0  0  0  0  0  0
    1.6780   -1.1050   -0.2270 C   0  0  0  0  0  0  0  0  0  0  0  0
    0.9420   -0.7670   -1.1940 O   0  0  0  0  0  0  0  0  0  0  0  0
    3.0640   -1.0040   -0.4010 N   0  0  0  0  0  0  0  0  0  0  0  0
    3.6710   -0.5200   -1.6480 C   0  0  0  0  0  0  0  0  0  0  0  0
    4.7320   -1.5480   -1.9840 C   0  0  0  0  0  0  0  0  0  0  0  0
    5.8100   -1.4840   -1.0260 N   0  0  1  0  0  0  0  0  0  0  0  0
    6.8360   -0.6720   -1.5390 C   0  0  0  0  0  0  0  0  0  0  0  0
    8.0280   -0.2990   -1.0510 C   0  0  0  0  0  0  0  0  0  0  0  0
    8.8290    0.5100   -1.7670 C   0  0  0  0  0  0  0  0  0  0  0  0
    8.3940    0.9330   -2.9920 C   0  0  0  0  0  0  0  0  0  0  0  0
    6.7570    0.1060   -3.0730 S   0  0  0  0  0  0  0  0  0  0  0  0
    5.4140   -1.0560    0.2840 C   0  0  0  0  0  0  0  0  0  0  0  0
    3.9800   -1.3700    0.6440 C   0  0  0  0  0  0  0  0  0  0  0  0
   -1.3840   -1.3560    0.4600 C   0  0  0  0  0  0  0  0  0  0  0  0
   -4.6720   -0.0930    1.5030 C   0  0  0  0  0  0  0  0  0  0  0  0
   -4.8400   -1.1230    2.3870 O   0  0  0  0  0  0  0  0  0  0  0  0
   -6.0930   -1.4160    2.9430 C   0  0  0  0  0  0  0  0  0  0  0  0
   -5.7230    0.6920    1.1230 C   0  0  0  0  0  0  0  0  0  0  0  0
   -5.4970    1.7150    0.2330 C   0  0  0  0  0  0  0  0  0  0  0  0
   -6.5950    2.5840   -0.1950 C   0  0  0  0  0  0  0  0  0  0  0  0
   -6.7680    3.6200   -0.9940 C   0  0  0  0  0  0  0  0  0  0  0  0
   -8.1910    3.6450   -0.6520 C   0  0  0  0  0  0  0  0  0  0  0  0
   -7.9960    2.6460    0.1110 N   0  0  0  0  0  0  0  0  0  0  0  0
  1  2  1  0
  2  3  1  0
  3  4  2  0
  3 30  1  0
  4  5  1  0
  5  6  1  0
  5 26  2  0
  6  7  1  0
  6 25  1  0
  7  8  1  0
  8  9  1  0
  9 10  1  0
  9 25  1  0
 10 11  2  0
 10 12  1  0
 12 13  2  0
 12 14  1  0
 14 15  1  0
 14 24  1  0
 15 16  1  0
 16 17  1  0
 17 18  1  6
 17 23  1  0
 18 19  2  0
 18 22  1  0
 19 20  1  0
 20 21  2  0
 21 22  1  0
 23 24  1  0
 26 27  1  0
 26 29  1  0
 27 28  1  0
 29 30  2  0
 30 31  1  0
 31 32  2  0
 31 34  1  0
 32 33  1  0
 33 34  2  0
M  CHG  1  17   1
M  END
