
     RDKit          3D

 35 36  0  0  0  0  0  0  0  0999 V2000
   -7.6040   -3.0210   -0.2400 C   0  0  0  0  0  0  0  0  0  0  0  0
   -7.2370   -1.6980   -0.4030 O   0  0  0  0  0  0  0  0  0  0  0  0
   -6.1650   -1.0620    0.2380 C   0  0  0  0  0  0  0  0  0  0  0  0
   -5.5070   -1.7680    1.0310 O   0  0  0  0  0  0  0  0  0  0  0  0
   -5.9250    0.3510   -0.0910 C   0  0  2  0  0  0  0  0  0  0  0  0
   -4.7900    0.9620    0.5080 N   0  0  0  0  0  0  0  0  0  0  0  0
   -3.4550    0.6320    0.0750 C   0  0  0  0  0  0  0  0  0  0  0  0
   -3.3550   -0.2710   -0.7730 O   0  0  0  0  0  0  0  0  0  0  0  0
   -2.2770    1.3830    0.6300 C   0  0  0  0  0  0  0  0  0  0  0  0
   -1.0420    0.9060   -0.0430 C   0  0  0  0  0  0  0  0  0  0  0  0
    0.1100    0.5240    0.6190 C   0  0  0  0  0  0  0  0  0  0  0  0
    1.2620    0.1590   -0.0660 C   0  0  0  0  0  0  0  0  0  0  0  0
    2.5260   -0.1730    0.6340 C   0  0  1  0  0  0  0  0  0  0  0  0
    3.1410    1.1770    1.1110 C   0  0  0  0  0  0  0  0  0  0  0  0
    2.2840   -0.9820    1.8370 C   0  0  0  0  0  0  0  0  0  0  0  0
    3.4570   -0.6830   -0.3260 N   0  0  0  0  0  0  0  0  0  0  0  0
    4.6420   -1.7390    0.1910 S   0  0  2  0  0  0  0  0  0  0  0  0
    4.2350   -2.6030    1.3580 O   0  0  0  0  0  0  0  0  0  0  0  0
    5.9740   -1.0220    0.5880 C   0  0  0  0  0  0  0  0  0  0  0  0
    7.2420   -1.3270   -0.0310 C   0  0  0  0  0  0  0  0  0  0  0  0
    8.4640   -0.6320    0.5170 C   0  0  0  0  0  0  0  0  0  0  0  0
    8.3460    0.8800    0.3470 C   0  0  0  0  0  0  0  0  0  0  0  0
    8.2290    1.2310   -1.1250 C   0  0  0  0  0  0  0  0  0  0  0  0
    7.0970    0.6240   -1.6760 F   0  0  0  0  0  0  0  0  0  0  0  0
    7.3700   -2.1860   -0.9970 C   0  0  0  0  0  0  0  0  0  0  0  0
    6.2640   -2.9210   -1.5320 C   0  0  0  0  0  0  0  0  0  0  0  0
    5.0140   -2.8430   -1.1330 C   0  0  0  0  0  0  0  0  0  0  0  0
    1.2470    0.1780   -1.4460 C   0  0  0  0  0  0  0  0  0  0  0  0
    0.1130    0.5580   -2.1230 C   0  0  0  0  0  0  0  0  0  0  0  0
   -1.0220    0.9210   -1.4460 C   0  0  0  0  0  0  0  0  0  0  0  0
   -2.1310    1.3240   -2.1070 F   0  0  0  0  0  0  0  0  0  0  0  0
   -7.1110    1.2490   -0.0160 C   0  0  2  0  0  0  0  0  0  0  0  0
   -7.6840    1.1760    1.3920 C   0  0  0  0  0  0  0  0  0  0  0  0
   -8.1760    0.9890   -1.0090 C   0  0  0  0  0  0  0  0  0  0  0  0
   -6.5630    2.6740   -0.2380 C   0  0  0  0  0  0  0  0  0  0  0  0
  1  2  1  0
  2  3  1  0
  3  4  2  0
  3  5  1  0
  5  6  1  1
  5 32  1  0
  6  7  1  0
  7  8  2  0
  7  9  1  0
  9 10  1  0
 10 11  2  0
 10 30  1  0
 11 12  1  0
 12 13  1  0
 12 28  2  0
 13 14  1  1
 13 15  1  0
 13 16  1  0
 17 16  1  6
 17 18  2  0
 17 19  2  0
 17 27  1  0
 19 20  1  0
 20 21  1  0
 20 25  2  0
 21 22  1  0
 22 23  1  0
 23 24  1  0
 25 26  1  0
 26 27  2  0
 28 29  1  0
 29 30  2  0
 30 31  1  0
 32 33  1  1
 32 34  1  0
 32 35  1  0
M  END
