
     RDKit          3D

 34 38  0  0  0  0  0  0  0  0999 V2000
   -8.4320   -1.6760   -0.4400 C   0  0  0  0  0  0  0  0  0  0  0  0
   -8.7020   -0.2940   -0.0510 N   0  0  0  0  0  0  0  0  0  0  0  0
   -8.2920    0.5630   -1.1120 C   0  0  0  0  0  0  0  0  0  0  0  0
   -7.0670    1.3700   -0.8990 C   0  0  0  0  0  0  0  0  0  0  0  0
   -6.0700    0.5930   -0.1180 C   0  0  0  0  0  0  0  0  0  0  0  0
   -4.7300    0.6200   -0.4460 C   0  0  0  0  0  0  0  0  0  0  0  0
   -3.8310   -0.0980    0.3240 C   0  0  0  0  0  0  0  0  0  0  0  0
   -2.4860   -0.0010   -0.0200 N   0  0  0  0  0  0  0  0  0  0  0  0
   -1.9210    1.0780   -0.8240 C   0  0  0  0  0  0  0  0  0  0  0  0
   -1.0030    1.7840    0.1770 C   0  0  0  0  0  0  0  0  0  0  0  0
    0.1620    0.8480    0.2940 N   0  0  0  0  0  0  0  0  0  0  0  0
    1.4020    1.4780    0.2140 C   0  0  0  0  0  0  0  0  0  0  0  0
    1.2810    2.7890    0.0280 O   0  0  0  0  0  0  0  0  0  0  0  0
    2.7550    1.0170    0.2840 C   0  0  0  0  0  0  0  0  0  0  0  0
    3.1080   -0.2730    0.5220 C   0  0  0  0  0  0  0  0  0  0  0  0
    4.4730   -0.6380    0.5740 C   0  0  0  0  0  0  0  0  0  0  0  0
    5.4610    0.2920    0.3890 C   0  0  0  0  0  0  0  0  0  0  0  0
    6.8160   -0.0820    0.4290 N   0  0  0  0  0  0  0  0  0  0  0  0
    7.2350   -1.4660    0.5520 C   0  0  0  0  0  0  0  0  0  0  0  0
    8.5870   -1.6280   -0.1720 C   0  0  0  0  0  0  0  0  0  0  0  0
    8.4520   -0.6600   -1.6690 S   0  0  1  0  0  0  0  0  0  0  0  0
    9.6810   -0.7730   -2.5130 O   0  0  0  0  0  0  0  0  0  0  0  0
    7.2150   -1.1490   -2.3930 O   0  0  0  0  0  0  0  0  0  0  0  0
    8.1940    1.0420   -1.1370 C   0  0  0  0  0  0  0  0  0  0  0  0
    7.8480    0.9320    0.3500 C   0  0  0  0  0  0  0  0  0  0  0  0
    5.0970    1.5750    0.1530 N   0  0  0  0  0  0  0  0  0  0  0  0
    3.8160    1.9290    0.1010 C   0  0  0  0  0  0  0  0  0  0  0  0
   -0.0550   -0.5330    0.4560 C   0  0  0  0  0  0  0  0  0  0  0  0
   -1.5270   -0.9380    0.4230 C   0  0  0  0  0  0  0  0  0  0  0  0
   -1.8290   -2.0850    0.7870 O   0  0  0  0  0  0  0  0  0  0  0  0
   -4.3100   -0.8140    1.3890 C   0  0  0  0  0  0  0  0  0  0  0  0
   -5.6640   -0.8450    1.7250 C   0  0  0  0  0  0  0  0  0  0  0  0
   -6.5290   -0.1340    0.9590 C   0  0  0  0  0  0  0  0  0  0  0  0
   -8.0060   -0.0610    1.1920 C   0  0  0  0  0  0  0  0  0  0  0  0
  1  2  1  0
  2  3  1  0
  2 34  1  0
  3  4  1  0
  4  5  1  0
  5  6  2  0
  5 33  1  0
  6  7  1  0
  7  8  1  0
  7 31  2  0
  8  9  1  0
  8 29  1  0
  9 10  1  0
 10 11  1  0
 11 12  1  0
 11 28  1  0
 12 13  2  0
 12 14  1  0
 14 15  2  0
 14 27  1  0
 15 16  1  0
 16 17  2  0
 17 18  1  0
 17 26  1  0
 18 19  1  0
 18 25  1  0
 19 20  1  0
 21 20  1  1
 21 22  2  0
 21 23  2  0
 21 24  1  0
 24 25  1  0
 26 27  2  0
 28 29  1  0
 29 30  2  0
 31 32  1  0
 32 33  2  0
 33 34  1  0
M  CHG  1  26   1
M  END
