
     RDKit          3D

 35 38  0  0  0  0  0  0  0  0999 V2000
   10.7440    0.3900    1.0380 C   0  0  0  0  0  0  0  0  0  0  0  0
   10.1190    1.6920    1.4920 C   0  0  0  0  0  0  0  0  0  0  0  0
    8.6820    1.5580    1.5780 N   0  0  0  0  0  0  0  0  0  0  0  0
    7.9790    0.5600    2.3520 C   0  0  0  0  0  0  0  0  0  0  0  0
    8.5540   -0.2330    3.0460 O   0  0  0  0  0  0  0  0  0  0  0  0
    6.4950    0.6190    2.1750 C   0  0  0  0  0  0  0  0  0  0  0  0
    5.2930    0.6630    2.0520 C   0  0  0  0  0  0  0  0  0  0  0  0
    3.8460    0.7280    1.8810 C   0  0  0  0  0  0  0  0  0  0  0  0
    3.3250    1.2360    0.7140 C   0  0  0  0  0  0  0  0  0  0  0  0
    1.9710    1.2690    0.4860 C   0  0  0  0  0  0  0  0  0  0  0  0
    1.1260    0.7900    1.4360 C   0  0  0  0  0  0  0  0  0  0  0  0
    1.6110    0.2640    2.6430 C   0  0  0  0  0  0  0  0  0  0  0  0
    2.9830    0.2480    2.8320 C   0  0  0  0  0  0  0  0  0  0  0  0
    0.5300   -0.1240    3.4870 N   0  0  0  0  0  0  0  0  0  0  0  0
   -0.6760    0.1730    2.7800 C   0  0  0  0  0  0  0  0  0  0  0  0
   -1.8310   -0.0450    3.2430 O   0  0  0  0  0  0  0  0  0  0  0  0
   -0.3450    0.7360    1.4990 C   0  0  0  0  0  0  0  0  0  0  0  0
   -1.2290    0.9450    0.5100 C   0  0  0  0  0  0  0  0  0  0  0  0
   -2.6050    0.8500    0.9130 N   0  0  0  0  0  0  0  0  0  0  0  0
   -3.5610   -0.0540    0.4710 C   0  0  0  0  0  0  0  0  0  0  0  0
   -3.3350   -1.0910   -0.3630 C   0  0  0  0  0  0  0  0  0  0  0  0
   -4.3720   -1.9490   -0.8050 C   0  0  0  0  0  0  0  0  0  0  0  0
   -5.6420   -1.6950   -0.3510 C   0  0  0  0  0  0  0  0  0  0  0  0
   -6.7670   -2.5880   -0.8160 C   0  0  0  0  0  0  0  0  0  0  0  0
   -7.3160   -2.2040   -2.0670 N   0  0  0  0  0  0  0  0  0  0  0  0
   -7.8210   -0.8990   -2.1580 C   0  0  0  0  0  0  0  0  0  0  0  0
   -6.8060   -2.7930   -3.2370 C   0  0  0  0  0  0  0  0  0  0  0  0
   -5.9020   -0.6730    0.4800 C   0  0  0  0  0  0  0  0  0  0  0  0
   -4.8720    0.1740    0.9130 C   0  0  0  0  0  0  0  0  0  0  0  0
   -0.7650    1.0750   -0.8420 C   0  0  0  0  0  0  0  0  0  0  0  0
   -0.9410    2.1480   -1.6460 C   0  0  0  0  0  0  0  0  0  0  0  0
   -0.4680    2.1390   -2.9300 C   0  0  0  0  0  0  0  0  0  0  0  0
    0.1920    1.0870   -3.4730 C   0  0  0  0  0  0  0  0  0  0  0  0
    0.3770   -0.0420   -2.6510 C   0  0  0  0  0  0  0  0  0  0  0  0
   -0.0890   -0.0480   -1.3690 C   0  0  0  0  0  0  0  0  0  0  0  0
  1  2  1  0
  2  3  1  0
  3  4  1  0
  4  5  2  0
  4  6  1  0
  6  7  3  0
  7  8  1  0
  8  9  2  0
  8 13  1  0
  9 10  1  0
 10 11  2  0
 11 12  1  0
 11 17  1  0
 12 13  2  0
 12 14  1  0
 14 15  1  0
 15 16  2  0
 15 17  1  0
 17 18  2  3
 18 19  1  0
 18 30  1  0
 19 20  1  0
 20 21  2  0
 20 29  1  0
 21 22  1  0
 22 23  2  0
 23 24  1  0
 23 28  1  0
 24 25  1  0
 25 26  1  0
 25 27  1  0
 28 29  2  0
 30 31  2  0
 30 35  1  0
 31 32  1  0
 32 33  2  0
 33 34  1  0
 34 35  2  0
M  END
