
     RDKit          3D

 35 37  0  0  0  0  0  0  0  0999 V2000
   -3.6670    5.9630   -0.6350 C   0  0  0  0  0  0  0  0  0  0  0  0
   -3.6670    4.8490    0.0600 C   0  0  0  0  0  0  0  0  0  0  0  0
   -2.5130    4.5490    0.9580 C   0  0  0  0  0  0  0  0  0  0  0  0
   -1.8400    3.3080    0.5860 N   0  0  0  0  0  0  0  0  0  0  0  0
   -2.5450    2.0660    0.5970 C   0  0  0  0  0  0  0  0  0  0  0  0
   -3.7460    2.1740    0.9490 O   0  0  0  0  0  0  0  0  0  0  0  0
   -1.9970    0.7820    0.2540 C   0  0  0  0  0  0  0  0  0  0  0  0
   -2.7290   -0.3100    0.2810 C   0  0  0  0  0  0  0  0  0  0  0  0
   -4.0970   -0.5410    0.6060 C   0  0  0  0  0  0  0  0  0  0  0  0
   -4.6290   -1.7960    0.5750 C   0  0  0  0  0  0  0  0  0  0  0  0
   -3.8870   -2.9540    0.2210 C   0  0  0  0  0  0  0  0  0  0  0  0
   -2.5340   -2.8450   -0.0870 F   0  0  0  0  0  0  0  0  0  0  0  0
   -4.2670   -4.2100    0.1330 C   0  0  0  0  0  0  0  0  0  0  0  0
   -5.5820   -4.7920    0.3730 C   0  0  0  0  0  0  0  0  0  0  0  0
   -3.3020   -5.1560   -0.2420 F   0  0  0  0  0  0  0  0  0  0  0  0
   -6.0670   -1.7830    1.0250 C   0  0  0  0  0  0  0  0  0  0  0  0
   -6.8130   -0.8930    0.0320 C   0  0  0  0  0  0  0  0  0  0  0  0
   -6.3010    0.5330    0.2570 C   0  0  0  0  0  0  0  0  0  0  0  0
   -5.0560    0.4130    0.9770 O   0  0  0  0  0  0  0  0  0  0  0  0
   -0.5590    0.7190   -0.1360 C   0  0  0  0  0  0  0  0  0  0  0  0
    0.1420    1.7620   -0.1650 O   0  0  0  0  0  0  0  0  0  0  0  0
    0.1150   -0.4680   -0.4930 N   0  0  0  0  0  0  0  0  0  0  0  0
    1.4960   -0.5310   -0.8790 C   0  0  0  0  0  0  0  0  0  0  0  0
    2.2480    0.5000   -1.2970 C   0  0  0  0  0  0  0  0  0  0  0  0
    3.6010    0.3270   -1.6310 C   0  0  0  0  0  0  0  0  0  0  0  0
    4.2020   -0.8990   -1.5430 C   0  0  0  0  0  0  0  0  0  0  0  0
    5.9220   -1.1180   -1.9740 S   0  0  0  0  0  0  0  0  0  0  0  0
    6.9090   -0.8200   -0.4690 C   0  0  2  0  0  0  0  0  0  0  0  0
    6.7970    0.6380   -0.0580 C   0  0  0  0  0  0  0  0  0  0  0  0
    7.6820    0.8740    1.1240 C   0  0  0  0  0  0  0  0  0  0  0  0
    8.6470   -0.1240    1.2730 O   0  0  0  0  0  0  0  0  0  0  0  0
    9.2570   -0.3660    0.0300 C   0  0  0  0  0  0  0  0  0  0  0  0
    8.3200   -1.2350   -0.7770 C   0  0  0  0  0  0  0  0  0  0  0  0
    3.4540   -1.9650   -1.1200 C   0  0  0  0  0  0  0  0  0  0  0  0
    2.1230   -1.7720   -0.7960 C   0  0  0  0  0  0  0  0  0  0  0  0
  1  2  2  0
  2  3  1  0
  3  4  1  0
  4  5  1  0
  5  6  2  0
  5  7  1  0
  7  8  2  3
  7 20  1  0
  8  9  1  0
  9 10  2  0
  9 19  1  0
 10 11  1  0
 10 16  1  0
 11 12  1  0
 11 13  2  3
 13 14  1  0
 13 15  1  0
 16 17  1  0
 17 18  1  0
 18 19  1  0
 20 21  2  0
 20 22  1  0
 22 23  1  0
 23 24  2  0
 23 35  1  0
 24 25  1  0
 25 26  2  0
 26 27  1  0
 26 34  1  0
 28 27  1  6
 28 29  1  0
 28 33  1  0
 29 30  1  0
 30 31  1  0
 31 32  1  0
 32 33  1  0
 34 35  2  0
M  END
