
     RDKit          3D

 15 15  0  0  0  0  0  0  0  0999 V2000
    1.9020    1.0540   -0.9170 O   0  0  0  0  0  0  0  0  0  0  0  0
    2.2710   -0.0300   -0.4070 C   0  0  0  0  0  0  0  0  0  0  0  0
    1.3540   -0.9930   -0.2290 O   0  0  0  0  0  0  0  0  0  0  0  0
    0.0110   -1.0990   -0.4770 C   0  0  0  0  0  0  0  0  0  0  0  0
   -0.9420   -0.2110    0.2280 C   0  0  1  0  0  0  0  0  0  0  0  0
   -0.8510   -0.2970    1.6200 O   0  0  0  0  0  0  0  0  0  0  0  0
   -1.0090    1.1570   -0.3230 C   0  0  0  0  0  0  0  0  0  0  0  0
   -2.4670    1.6580   -0.3240 C   0  0  0  0  0  0  0  0  0  0  0  0
   -3.1350    1.2560    0.8300 O   0  0  0  0  0  0  0  0  0  0  0  0
   -3.3340   -0.1260    0.8460 C   0  0  0  0  0  0  0  0  0  0  0  0
   -2.3490   -0.8310   -0.0650 C   0  0  0  0  0  0  0  0  0  0  0  0
    3.6900   -0.1440   -0.0480 C   0  0  0  0  0  0  0  0  0  0  0  0
    4.2650   -1.7790    0.7260 Br  0  0  0  0  0  0  0  0  0  0  0  0
    4.5470    0.8190   -0.2390 C   0  0  0  0  0  0  0  0  0  0  0  0
    5.8710    0.6750    0.1110 O   0  0  0  0  0  0  0  0  0  0  0  0
  1  2  2  0
  2  3  1  0
  2 12  1  0
  3  4  1  0
  4  5  1  0
  5  6  1  1
  5  7  1  0
  5 11  1  0
  7  8  1  0
  8  9  1  0
  9 10  1  0
 10 11  1  0
 12 13  1  0
 12 14  2  3
 14 15  1  0
M  END
