
     RDKit          3D

 15 15  0  0  0  0  0  0  0  0999 V2000
    4.1460   -1.6120   -1.1320 O   0  0  0  0  0  0  0  0  0  0  0  0
    4.0300   -0.8400   -0.1420 C   0  0  0  0  0  0  0  0  0  0  0  0
    5.2430   -0.4980    0.6110 C   0  0  0  0  0  0  0  0  0  0  0  0
    6.0450    1.1090   -0.1030 Br  0  0  0  0  0  0  0  0  0  0  0  0
    2.7680   -0.3770    0.1530 O   0  0  0  0  0  0  0  0  0  0  0  0
    1.6240   -0.7480   -0.6210 C   0  0  0  0  0  0  0  0  0  0  0  0
    0.3760   -0.0750   -0.0500 C   0  0  0  0  0  0  0  0  0  0  0  0
   -0.7610   -0.4060   -0.7660 O   0  0  0  0  0  0  0  0  0  0  0  0
   -2.0570    0.0100   -0.5430 C   0  0  0  0  0  0  0  0  0  0  0  0
   -2.3570    0.8290    0.4350 C   0  0  0  0  0  0  0  0  0  0  0  0
   -1.2850    1.2510    1.2310 O   0  0  0  0  0  0  0  0  0  0  0  0
   -3.7340    1.2860    0.6920 C   0  0  0  0  0  0  0  0  0  0  0  0
   -4.6410    0.7420   -0.2190 O   0  0  0  0  0  0  0  0  0  0  0  0
   -4.3240   -0.1210   -1.2490 C   0  0  0  0  0  0  0  0  0  0  0  0
   -3.0830   -0.5210   -1.4670 C   0  0  0  0  0  0  0  0  0  0  0  0
  1  2  2  0
  2  3  1  0
  2  5  1  0
  3  4  1  0
  5  6  1  0
  6  7  1  0
  7  8  1  0
  8  9  1  0
  9 10  2  0
  9 15  1  0
 10 11  1  0
 10 12  1  0
 12 13  1  0
 13 14  1  0
 14 15  2  0
M  END
