
     RDKit          3D

 15 15  0  0  0  0  0  0  0  0999 V2000
    1.5980   -1.9610   -0.1660 O   0  0  0  0  0  0  0  0  0  0  0  0
    1.5630   -0.7090   -0.2250 C   0  0  0  0  0  0  0  0  0  0  0  0
    0.3330    0.0870   -0.0550 C   0  0  0  0  0  0  0  0  0  0  0  0
   -0.7970   -0.7300    0.1800 O   0  0  0  0  0  0  0  0  0  0  0  0
   -2.0290   -0.1210    0.3590 C   0  0  0  0  0  0  0  0  0  0  0  0
   -2.4570    0.9100   -0.3370 C   0  0  0  0  0  0  0  0  0  0  0  0
   -3.7860    1.5520   -0.1290 C   0  0  0  0  0  0  0  0  0  0  0  0
   -4.5140    0.9310    0.8870 O   0  0  0  0  0  0  0  0  0  0  0  0
   -4.0770   -0.1550    1.6290 C   0  0  0  0  0  0  0  0  0  0  0  0
   -2.8910   -0.6830    1.4020 C   0  0  0  0  0  0  0  0  0  0  0  0
   -2.4910   -1.7710    2.1690 O   0  0  0  0  0  0  0  0  0  0  0  0
    2.7470   -0.0310   -0.4620 O   0  0  0  0  0  0  0  0  0  0  0  0
    3.9670   -0.7360   -0.6350 C   0  0  0  0  0  0  0  0  0  0  0  0
    5.0640    0.2880   -0.8750 C   0  0  0  0  0  0  0  0  0  0  0  0
    5.1870    1.4660    0.6270 Br  0  0  0  0  0  0  0  0  0  0  0  0
  1  2  2  0
  2  3  1  0
  2 12  1  0
  3  4  1  0
  4  5  1  0
  5  6  2  0
  5 10  1  0
  6  7  1  0
  7  8  1  0
  8  9  1  0
  9 10  2  0
 10 11  1  0
 12 13  1  0
 13 14  1  0
 14 15  1  0
M  END
