
     RDKit          3D

 15 15  0  0  0  0  0  0  0  0999 V2000
   -4.6210    1.7950   -0.3180 O   0  0  0  0  0  0  0  0  0  0  0  0
   -4.4620    0.4530   -0.5540 C   0  0  0  0  0  0  0  0  0  0  0  0
   -3.1430   -0.1000   -0.0710 C   0  0  0  0  0  0  0  0  0  0  0  0
   -1.9650    0.5700   -0.7290 C   0  0  0  0  0  0  0  0  0  0  0  0
   -0.7130   -0.0950   -0.1380 C   0  0  0  0  0  0  0  0  0  0  0  0
    0.4470    0.4510   -0.6800 O   0  0  0  0  0  0  0  0  0  0  0  0
    1.7080    0.0200   -0.3090 C   0  0  0  0  0  0  0  0  0  0  0  0
    1.9200   -0.9690    0.5340 C   0  0  0  0  0  0  0  0  0  0  0  0
    0.8520   -1.6410    1.1020 O   0  0  0  0  0  0  0  0  0  0  0  0
    3.2760   -1.4130    0.9170 C   0  0  0  0  0  0  0  0  0  0  0  0
    4.3200   -0.6990    0.3120 O   0  0  0  0  0  0  0  0  0  0  0  0
    4.1070    0.3340   -0.5680 C   0  0  0  0  0  0  0  0  0  0  0  0
    5.2370    0.9630   -1.1000 O   0  0  0  0  0  0  0  0  0  0  0  0
    2.8770    0.6870   -0.8720 C   0  0  0  0  0  0  0  0  0  0  0  0
    2.6450    2.1360   -2.1070 Br  0  0  0  0  0  0  0  0  0  0  0  0
  1  2  1  0
  2  3  1  0
  3  4  1  0
  4  5  1  0
  5  6  1  0
  6  7  1  0
  7  8  2  0
  7 14  1  0
  8  9  1  0
  8 10  1  0
 10 11  1  0
 11 12  1  0
 12 13  1  0
 12 14  2  0
 14 15  1  0
M  END
