
     RDKit          3D

 15 15  0  0  0  0  0  0  0  0999 V2000
    2.9640    0.1230    0.4640 O   0  0  0  0  0  0  0  0  0  0  0  0
    3.2310   -0.4260   -0.6460 C   0  0  0  0  0  0  0  0  0  0  0  0
    4.4730   -1.1990   -0.7950 C   0  0  0  0  0  0  0  0  0  0  0  0
    5.1810   -1.1910    0.3830 O   0  0  0  0  0  0  0  0  0  0  0  0
    2.3030   -0.2450   -1.6520 O   0  0  0  0  0  0  0  0  0  0  0  0
    1.1160    0.4780   -1.5510 C   0  0  0  0  0  0  0  0  0  0  0  0
    0.1600   -0.0280   -0.5110 C   0  0  0  0  0  0  0  0  0  0  0  0
   -0.9860    0.8370   -0.5610 O   0  0  0  0  0  0  0  0  0  0  0  0
   -2.0740    0.6450    0.2850 C   0  0  0  0  0  0  0  0  0  0  0  0
   -3.0420   -0.1650   -0.0640 C   0  0  0  0  0  0  0  0  0  0  0  0
   -4.1930   -0.3680    0.8310 C   0  0  0  0  0  0  0  0  0  0  0  0
   -4.1390    0.3580    2.0260 O   0  0  0  0  0  0  0  0  0  0  0  0
   -3.1130    1.2020    2.3710 C   0  0  0  0  0  0  0  0  0  0  0  0
   -2.0960    1.3600    1.5430 C   0  0  0  0  0  0  0  0  0  0  0  0
   -0.6610    2.5480    2.0380 Br  0  0  0  0  0  0  0  0  0  0  0  0
  1  2  2  0
  2  3  1  0
  2  5  1  0
  3  4  1  0
  5  6  1  0
  6  7  1  0
  7  8  1  0
  8  9  1  0
  9 10  2  0
  9 14  1  0
 10 11  1  0
 11 12  1  0
 12 13  1  0
 13 14  2  0
 14 15  1  0
M  END
