
     RDKit          3D

 15 15  0  0  0  0  0  0  0  0999 V2000
   -1.7650    1.7560    1.6740 O   0  0  0  0  0  0  0  0  0  0  0  0
   -1.1000    0.9980    0.9450 C   0  0  0  0  0  0  0  0  0  0  0  0
   -1.7550    0.0130    0.2210 O   0  0  0  0  0  0  0  0  0  0  0  0
   -3.1610   -0.0750    0.3520 C   0  0  0  0  0  0  0  0  0  0  0  0
   -3.7500   -1.1750   -0.4780 C   0  0  0  0  0  0  0  0  0  0  0  0
   -5.1340   -1.1600   -0.2640 O   0  0  0  0  0  0  0  0  0  0  0  0
    0.3730    1.1320    0.8430 C   0  0  0  0  0  0  0  0  0  0  0  0
    1.1390    2.5000    1.8700 Br  0  0  0  0  0  0  0  0  0  0  0  0
    1.0040    0.3240    0.0780 C   0  0  0  0  0  0  0  0  0  0  0  0
    2.4080    0.1800   -0.2470 C   0  0  0  0  0  0  0  0  0  0  0  0
    2.9110   -0.7450   -1.0910 C   0  0  0  0  0  0  0  0  0  0  0  0
    4.3640   -0.5940   -1.1770 C   0  0  0  0  0  0  0  0  0  0  0  0
    4.7050    0.4590   -0.3490 O   0  0  0  0  0  0  0  0  0  0  0  0
    3.5190    0.9530    0.2350 C   0  0  0  0  0  0  0  0  0  0  0  0
    3.5950    1.9270    1.0350 O   0  0  0  0  0  0  0  0  0  0  0  0
  1  2  2  0
  2  3  1  0
  2  7  1  0
  3  4  1  0
  4  5  1  0
  5  6  1  0
  7  8  1  0
  7  9  2  3
  9 10  1  0
 10 11  2  0
 10 14  1  0
 11 12  1  0
 12 13  1  0
 13 14  1  0
 14 15  2  0
M  END
