
     RDKit          3D

 24 26  0  0  0  0  0  0  0  0999 V2000
    8.1710   -1.2270   -0.1060 C   0  0  0  0  0  0  0  0  0  0  0  0
    7.0310   -0.7910    0.7100 N   0  0  0  0  0  0  0  0  0  0  0  0
    6.5060    0.4650    0.2410 C   0  0  0  0  0  0  0  0  0  0  0  0
    5.0340    0.5150    0.2130 C   0  0  0  0  0  0  0  0  0  0  0  0
    4.3710    0.1190   -0.9270 C   0  0  0  0  0  0  0  0  0  0  0  0
    2.9700    0.1450   -1.0120 C   0  0  0  0  0  0  0  0  0  0  0  0
    2.1920    0.5690    0.0420 C   0  0  0  0  0  0  0  0  0  0  0  0
    0.7910    0.6210    0.0300 N   0  0  0  0  0  0  0  0  0  0  0  0
    0.0700    1.1490    1.2000 C   0  0  0  0  0  0  0  0  0  0  0  0
   -1.4290    0.9670    1.0080 C   0  0  0  0  0  0  0  0  0  0  0  0
   -1.6210   -0.5130    0.7560 C   0  0  1  0  0  0  0  0  0  0  0  0
   -3.0330   -0.9520    1.0110 C   0  0  0  0  0  0  0  0  0  0  0  0
   -4.0470   -0.2640    0.1660 C   0  0  0  0  0  0  0  0  0  0  0  0
   -5.3970   -0.7730    0.5050 C   0  0  0  0  0  0  0  0  0  0  0  0
   -5.5080   -1.6480    1.3900 O   0  0  0  0  0  0  0  0  0  0  0  0
   -6.5210   -0.2440   -0.1900 N   0  0  0  0  0  0  0  0  0  0  0  0
   -6.5000    0.6940   -1.1520 C   0  0  0  0  0  0  0  0  0  0  0  0
   -7.8050    0.9120   -1.5530 C   0  0  0  0  0  0  0  0  0  0  0  0
   -8.6220    0.0710   -0.7990 C   0  0  0  0  0  0  0  0  0  0  0  0
   -7.7850   -0.6300    0.0350 C   0  0  0  0  0  0  0  0  0  0  0  0
   -1.1000   -0.8440   -0.5960 C   0  0  0  0  0  0  0  0  0  0  0  0
   -0.0770    0.2000   -1.0400 C   0  0  0  0  0  0  0  0  0  0  0  0
    2.8840    0.9650    1.1830 C   0  0  0  0  0  0  0  0  0  0  0  0
    4.2600    0.9400    1.2690 C   0  0  0  0  0  0  0  0  0  0  0  0
  1  2  1  0
  2  3  1  0
  3  4  1  0
  4  5  2  0
  4 24  1  0
  5  6  1  0
  6  7  2  0
  7  8  1  0
  7 23  1  0
  8  9  1  0
  8 22  1  0
  9 10  1  0
 10 11  1  0
 11 12  1  6
 11 21  1  0
 12 13  1  0
 13 14  1  0
 14 15  2  0
 14 16  1  0
 16 17  1  0
 16 20  1  0
 17 18  2  0
 18 19  1  0
 19 20  2  0
 21 22  1  0
 23 24  2  0
M  CHG  1   2   1
M  END
