
     RDKit          3D

 15 15  0  0  0  0  0  0  0  0999 V2000
   -3.6510   -1.2970    1.1200 C   0  0  0  0  0  0  0  0  0  0  0  0
   -2.4010   -0.6650    0.6580 C   0  0  0  0  0  0  0  0  0  0  0  0
   -1.1890   -1.0090    0.9730 O   0  0  0  0  0  0  0  0  0  0  0  0
   -0.3160   -0.2440    0.3920 C   0  0  0  0  0  0  0  0  0  0  0  0
    1.1610   -0.3520    0.5270 C   0  0  0  0  0  0  0  0  0  0  0  0
    1.6730   -1.2240    1.2390 O   0  0  0  0  0  0  0  0  0  0  0  0
    1.9560    0.5340   -0.1520 O   0  0  0  0  0  0  0  0  0  0  0  0
    3.3590    0.4510   -0.0490 C   0  0  0  0  0  0  0  0  0  0  0  0
    3.9150   -0.8450   -0.5440 C   0  0  0  0  0  0  0  0  0  0  0  0
    5.3130   -0.7820   -0.3800 O   0  0  0  0  0  0  0  0  0  0  0  0
   -0.9980    0.6740   -0.3620 C   0  0  0  0  0  0  0  0  0  0  0  0
   -0.4980    1.6800   -1.1450 O   0  0  0  0  0  0  0  0  0  0  0  0
   -2.3430    0.4030   -0.1920 C   0  0  0  0  0  0  0  0  0  0  0  0
   -3.4380    1.1690   -0.8360 C   0  0  0  0  0  0  0  0  0  0  0  0
   -4.2210    2.3620    0.4860 Br  0  0  0  0  0  0  0  0  0  0  0  0
  1  2  1  0
  2  3  1  0
  2 13  2  0
  3  4  1  0
  4  5  1  0
  4 11  2  0
  5  6  2  0
  5  7  1  0
  7  8  1  0
  8  9  1  0
  9 10  1  0
 11 12  1  0
 11 13  1  0
 13 14  1  0
 14 15  1  0
M  END
