
     RDKit          3D

 22 24  0  0  0  0  0  0  0  0999 V2000
   -0.4850   -1.2190   -1.4870 C   0  0  0  0  0  0  0  0  0  0  0  0
   -0.5120   -0.9380   -0.0690 N   0  0  0  0  0  0  0  0  0  0  0  0
    0.5740   -1.3430    0.7520 C   0  0  0  0  0  0  0  0  0  0  0  0
    0.5610   -1.1040    1.9870 O   0  0  0  0  0  0  0  0  0  0  0  0
    1.7140   -2.0400    0.1720 C   0  0  1  0  0  0  0  0  0  0  0  0
    2.4830   -1.2770   -0.9070 C   0  0  0  0  0  0  0  0  0  0  0  0
    3.7280   -1.9270   -0.3410 C   0  0  1  0  0  0  0  0  0  0  0  0
    4.9680   -1.0760   -0.3980 C   0  0  0  0  0  0  0  0  0  0  0  0
    4.8520    0.1500    0.3200 N   0  0  0  0  0  0  0  0  0  0  0  0
    5.1780    0.3180    1.6330 C   0  0  0  0  0  0  0  0  0  0  0  0
    4.9210    1.6290    1.9280 C   0  0  0  0  0  0  0  0  0  0  0  0
    4.4470    2.2500    0.8130 C   0  0  0  0  0  0  0  0  0  0  0  0
    4.4070    1.3090   -0.1940 C   0  0  0  0  0  0  0  0  0  0  0  0
    3.0090   -1.9480    0.9940 C   0  0  0  0  0  0  0  0  0  0  0  0
   -1.6700   -0.2410    0.4560 C   0  0  2  0  0  0  0  0  0  0  0  0
   -2.9600   -0.9490    0.1550 C   0  0  0  0  0  0  0  0  0  0  0  0
   -3.9190   -0.1270   -0.6690 C   0  0  0  0  0  0  0  0  0  0  0  0
   -4.2680    1.1620    0.0380 C   0  0  2  0  0  0  0  0  0  0  0  0
   -5.1990    0.9040    1.2190 C   0  0  0  0  0  0  0  0  0  0  0  0
   -5.0480    2.0250   -0.9430 C   0  0  0  0  0  0  0  0  0  0  0  0
   -3.0000    1.8220    0.4780 C   0  0  0  0  0  0  0  0  0  0  0  0
   -1.7670    1.1660   -0.1070 C   0  0  0  0  0  0  0  0  0  0  0  0
  1  2  1  0
  2  3  1  0
 15  2  1  6
  3  4  2  0
  5  3  1  1
  5  6  1  0
  5 14  1  0
  6  7  1  0
  7  8  1  1
  7 14  1  0
  8  9  1  0
  9 10  1  0
  9 13  1  0
 10 11  2  0
 11 12  1  0
 12 13  2  0
 15 16  1  0
 15 22  1  0
 16 17  1  0
 17 18  1  0
 18 19  1  1
 18 20  1  0
 18 21  1  0
 21 22  1  0
M  END
