
     RDKit          3D

 22 24  0  0  0  0  0  0  0  0999 V2000
    5.6030    2.3480    0.2950 C   0  0  0  0  0  0  0  0  0  0  0  0
    4.6320    1.5010   -0.4430 C   0  0  0  0  0  0  0  0  0  0  0  0
    4.0000    0.4880    0.1270 C   0  0  0  0  0  0  0  0  0  0  0  0
    4.2480    0.1580    1.5640 C   0  0  0  0  0  0  0  0  0  0  0  0
    3.0700   -0.3250   -0.5780 N   0  0  0  0  0  0  0  0  0  0  0  0
    3.4780   -1.6810   -0.9050 C   0  0  0  0  0  0  0  0  0  0  0  0
    2.4470   -2.7050   -0.5530 C   0  0  0  0  0  0  0  0  0  0  0  0
    1.2450   -2.0940    0.0660 C   0  0  0  0  0  0  0  0  0  0  0  0
    0.6710   -2.6680    1.0470 O   0  0  0  0  0  0  0  0  0  0  0  0
    0.7480   -0.8340   -0.4740 C   0  0  0  0  0  0  0  0  0  0  0  0
   -0.5480   -0.6090   -0.4910 C   0  0  0  0  0  0  0  0  0  0  0  0
   -1.0440    0.6550   -1.0340 C   0  0  0  0  0  0  0  0  0  0  0  0
   -2.2760    1.1810   -0.3550 C   0  0  0  0  0  0  0  0  0  0  0  0
   -3.1550    0.1470    0.2480 C   0  0  1  0  0  0  0  0  0  0  0  0
   -4.5350    0.5390    0.0370 N   0  0  0  0  0  0  0  0  0  0  0  0
   -5.4020    1.1220    0.8810 C   0  0  0  0  0  0  0  0  0  0  0  0
   -6.6300    1.3180    0.2480 C   0  0  0  0  0  0  0  0  0  0  0  0
   -6.4780    0.8260   -1.0310 C   0  0  0  0  0  0  0  0  0  0  0  0
   -5.1890    0.3560   -1.1350 C   0  0  0  0  0  0  0  0  0  0  0  0
   -2.9210   -1.2220   -0.3810 C   0  0  0  0  0  0  0  0  0  0  0  0
   -1.4980   -1.6120    0.0310 C   0  0  0  0  0  0  0  0  0  0  0  0
    1.7380    0.1570   -0.9780 C   0  0  0  0  0  0  0  0  0  0  0  0
  1  2  1  0
  2  3  2  3
  3  4  1  0
  3  5  1  0
  5  6  1  0
  5 22  1  0
  6  7  1  0
  7  8  1  0
  8  9  2  0
  8 10  1  0
 10 11  2  3
 10 22  1  0
 11 12  1  0
 11 21  1  0
 12 13  1  0
 13 14  1  0
 14 15  1  6
 14 20  1  0
 15 16  1  0
 15 19  1  0
 16 17  2  0
 17 18  1  0
 18 19  2  0
 20 21  1  0
M  END
