
     RDKit          3D

 22 24  0  0  0  0  0  0  0  0999 V2000
    1.2420    0.5240    2.8010 C   0  0  0  0  0  0  0  0  0  0  0  0
    0.4180    0.0690    1.6580 C   0  0  0  0  0  0  0  0  0  0  0  0
   -0.8900   -0.2010    1.8050 C   0  0  0  0  0  0  0  0  0  0  0  0
   -1.7150   -0.5180    0.7580 C   0  0  0  0  0  0  0  0  0  0  0  0
   -3.0930   -0.9610    1.0570 C   0  0  0  0  0  0  0  0  0  0  0  0
   -3.2410   -1.6120    2.1010 O   0  0  0  0  0  0  0  0  0  0  0  0
   -4.1750   -0.6670    0.2180 N   0  0  0  0  0  0  0  0  0  0  0  0
   -5.5370   -1.2020    0.4480 C   0  0  0  0  0  0  0  0  0  0  0  0
   -6.4420   -0.1920   -0.2660 C   0  0  0  0  0  0  0  0  0  0  0  0
   -5.5830    0.1350   -1.4880 C   0  0  0  0  0  0  0  0  0  0  0  0
   -4.2260    0.3170   -0.8400 C   0  0  0  0  0  0  0  0  0  0  0  0
   -1.1610   -0.5460   -0.4980 C   0  0  0  0  0  0  0  0  0  0  0  0
    0.2230   -0.2550   -0.6590 C   0  0  0  0  0  0  0  0  0  0  0  0
    0.7550   -0.3120   -2.0590 C   0  0  0  0  0  0  0  0  0  0  0  0
    1.0290    0.0440    0.3830 C   0  0  0  0  0  0  0  0  0  0  0  0
    2.4940    0.0870    0.4080 C   0  0  0  0  0  0  0  0  0  0  0  0
    3.2410    1.2190    0.0720 N   0  0  0  0  0  0  0  0  0  0  0  0
    4.4650    1.1710    1.0080 C   0  0  0  0  0  0  0  0  0  0  0  0
    4.8120   -0.2670    0.9520 C   0  0  0  0  0  0  0  0  0  0  0  0
    5.1400   -0.7210   -0.2500 C   0  0  0  0  0  0  0  0  0  0  0  0
    5.0750    0.3120   -1.3350 C   0  0  0  0  0  0  0  0  0  0  0  0
    3.8810    1.2340   -1.1970 C   0  0  0  0  0  0  0  0  0  0  0  0
  1  2  1  0
  2  3  2  0
  2 15  1  0
  3  4  1  0
  4  5  1  0
  4 12  2  0
  5  6  2  0
  5  7  1  0
  7  8  1  0
  7 11  1  0
  8  9  1  0
  9 10  1  0
 10 11  1  0
 12 13  1  0
 13 14  1  0
 13 15  2  0
 15 16  1  0
 16 17  1  0
 17 18  1  0
 17 22  1  0
 18 19  1  0
 19 20  2  0
 20 21  1  0
 21 22  1  0
M  END
