
     RDKit          3D

 22 24  0  0  0  0  0  0  0  0999 V2000
    8.0010   -0.7280   -0.7550 C   0  0  0  0  0  0  0  0  0  0  0  0
    6.5700   -0.4820   -0.3550 C   0  0  0  0  0  0  0  0  0  0  0  0
    5.5810   -1.3860   -0.6920 C   0  0  0  0  0  0  0  0  0  0  0  0
    4.2540   -1.1570   -0.3200 C   0  0  0  0  0  0  0  0  0  0  0  0
    3.8940   -0.0310    0.3900 C   0  0  0  0  0  0  0  0  0  0  0  0
    2.4770    0.2150    0.7890 C   0  0  0  0  0  0  0  0  0  0  0  0
    1.6890   -0.8180    0.3410 O   0  0  0  0  0  0  0  0  0  0  0  0
    0.3530   -0.7210    0.6550 C   0  0  0  0  0  0  0  0  0  0  0  0
   -0.3400    0.4850    0.1150 C   0  0  0  0  0  0  0  0  0  0  0  0
   -1.7630    0.5010    0.4940 N   0  0  0  0  0  0  0  0  0  0  0  0
   -2.3280    1.6840   -0.0550 C   0  0  0  0  0  0  0  0  0  0  0  0
   -3.2280    1.2900   -1.2090 C   0  0  0  0  0  0  0  0  0  0  0  0
   -4.3390    0.5020   -0.5710 C   0  0  1  0  0  0  0  0  0  0  0  0
   -5.4600    0.1440   -1.4840 C   0  0  0  0  0  0  0  0  0  0  0  0
   -6.5230   -0.5410   -0.6290 C   0  0  0  0  0  0  0  0  0  0  0  0
   -5.9800   -1.5990    0.2600 C   0  0  0  0  0  0  0  0  0  0  0  0
   -4.6830   -1.2280    0.9470 C   0  0  0  0  0  0  0  0  0  0  0  0
   -3.7990   -0.6990   -0.0200 N   0  0  0  0  0  0  0  0  0  0  0  0
   -2.4170   -0.7260    0.2320 C   0  0  0  0  0  0  0  0  0  0  0  0
    4.8890    0.8650    0.7230 C   0  0  0  0  0  0  0  0  0  0  0  0
    4.5590    2.1050    1.4930 C   0  0  0  0  0  0  0  0  0  0  0  0
    6.2040    0.6350    0.3520 C   0  0  0  0  0  0  0  0  0  0  0  0
  1  2  1  0
  2  3  2  0
  2 22  1  0
  3  4  1  0
  4  5  2  0
  5  6  1  0
  5 20  1  0
  6  7  1  0
  7  8  1  0
  8  9  1  0
  9 10  1  0
 10 11  1  0
 10 19  1  0
 11 12  1  0
 13 12  1  6
 13 14  1  0
 13 18  1  0
 14 15  1  0
 15 16  1  0
 16 17  1  0
 17 18  1  0
 18 19  1  0
 20 21  1  0
 20 22  2  0
M  END
