
     RDKit          3D

 22 23  0  0  0  0  0  0  0  0999 V2000
    5.7510    1.6000    1.6550 C   0  0  0  0  0  0  0  0  0  0  0  0
    5.2070    1.6720    0.4530 C   0  0  0  0  0  0  0  0  0  0  0  0
    5.6250    0.8390   -0.6730 C   0  0  0  0  0  0  0  0  0  0  0  0
    4.5400   -0.0150   -1.2150 C   0  0  0  0  0  0  0  0  0  0  0  0
    3.9960   -1.0310   -0.2940 C   0  0  2  0  0  0  0  0  0  0  0  0
    2.9290   -1.8400   -1.0430 C   0  0  0  0  0  0  0  0  0  0  0  0
    1.6060   -1.1420   -1.1090 C   0  0  0  0  0  0  0  0  0  0  0  0
    1.1300   -1.0370    0.2640 N   0  0  0  0  0  0  0  0  0  0  0  0
   -0.2120   -0.7420    0.5750 C   0  0  0  0  0  0  0  0  0  0  0  0
   -0.4980   -0.6670    1.8250 O   0  0  0  0  0  0  0  0  0  0  0  0
   -1.2810   -0.5190   -0.4450 C   0  0  1  0  0  0  0  0  0  0  0  0
   -1.5940   -1.7690   -1.2250 C   0  0  0  0  0  0  0  0  0  0  0  0
   -2.4330    0.0030    0.2480 N   0  0  0  0  0  0  0  0  0  0  0  0
   -3.0160   -0.8460    1.2170 C   0  0  0  0  0  0  0  0  0  0  0  0
   -4.5330   -0.8100    1.1790 C   0  0  0  0  0  0  0  0  0  0  0  0
   -4.9190    0.6780    1.2320 C   0  0  0  0  0  0  0  0  0  0  0  0
   -4.4200    1.2470   -0.0340 C   0  0  0  0  0  0  0  0  0  0  0  0
   -4.9120    2.3630   -0.5110 C   0  0  0  0  0  0  0  0  0  0  0  0
   -6.0020    3.0940    0.2270 C   0  0  0  0  0  0  0  0  0  0  0  0
   -3.3520    0.5180   -0.7430 C   0  0  0  0  0  0  0  0  0  0  0  0
    2.1030   -1.2390    1.3250 C   0  0  0  0  0  0  0  0  0  0  0  0
    3.4000   -0.4880    0.9610 C   0  0  0  0  0  0  0  0  0  0  0  0
  1  2  2  0
  2  3  1  0
  3  4  1  0
  5  4  1  6
  5  6  1  0
  5 22  1  0
  6  7  1  0
  7  8  1  0
  8  9  1  0
  8 21  1  0
  9 10  2  0
  9 11  1  0
 11 12  1  1
 11 13  1  0
 13 14  1  0
 13 20  1  0
 14 15  1  0
 15 16  1  0
 16 17  1  0
 17 18  2  3
 17 20  1  0
 18 19  1  0
 21 22  1  0
M  END
