
     RDKit          3D

 22 24  0  0  0  0  0  0  0  0999 V2000
   -2.2520   -3.2930   -0.1230 C   0  0  0  0  0  0  0  0  0  0  0  0
   -2.1420   -1.8200   -0.0030 C   0  0  0  0  0  0  0  0  0  0  0  0
   -1.0510   -1.2290    0.4950 N   0  0  0  0  0  0  0  0  0  0  0  0
   -0.9190    0.1280    0.6110 C   0  0  0  0  0  0  0  0  0  0  0  0
    0.3540    0.6260    1.1340 C   0  0  0  0  0  0  0  0  0  0  0  0
    1.5750   -0.0470    0.6130 C   0  0  2  0  0  0  0  0  0  0  0  0
    2.8360    0.5900    1.1990 C   0  0  0  0  0  0  0  0  0  0  0  0
    3.7970   -0.4890    1.5990 C   0  0  0  0  0  0  0  0  0  0  0  0
    4.5580   -1.0360    0.4100 C   0  0  0  0  0  0  0  0  0  0  0  0
    4.0530   -0.5930   -0.8380 N   0  0  0  0  0  0  0  0  0  0  0  0
    4.8900    0.1750   -1.6600 C   0  0  0  0  0  0  0  0  0  0  0  0
    2.8080   -1.0230   -1.2880 C   0  0  0  0  0  0  0  0  0  0  0  0
    1.5920   -0.2250   -0.8450 C   0  0  0  0  0  0  0  0  0  0  0  0
   -1.9440    0.9400    0.2040 C   0  0  0  0  0  0  0  0  0  0  0  0
   -3.1010    0.3780   -0.3160 C   0  0  0  0  0  0  0  0  0  0  0  0
   -3.1860   -0.9930   -0.4150 C   0  0  0  0  0  0  0  0  0  0  0  0
   -4.4120   -1.5680   -0.9760 C   0  0  0  0  0  0  0  0  0  0  0  0
   -4.2170    1.2510   -0.6720 C   0  0  0  0  0  0  0  0  0  0  0  0
   -5.0670    0.8750   -1.4880 O   0  0  0  0  0  0  0  0  0  0  0  0
   -4.2410    2.5720    0.0070 C   0  0  0  0  0  0  0  0  0  0  0  0
   -2.8940    3.2070   -0.2900 C   0  0  0  0  0  0  0  0  0  0  0  0
   -1.7830    2.4140    0.3440 C   0  0  0  0  0  0  0  0  0  0  0  0
  1  2  1  0
  2  3  2  0
  2 16  1  0
  3  4  1  0
  4  5  1  0
  4 14  2  0
  6  5  1  6
  6  7  1  0
  6 13  1  0
  7  8  1  0
  8  9  1  0
  9 10  1  0
 10 11  1  0
 10 12  1  0
 12 13  1  0
 14 15  1  0
 14 22  1  0
 15 16  2  0
 15 18  1  0
 16 17  1  0
 18 19  2  0
 18 20  1  0
 20 21  1  0
 21 22  1  0
M  END
