
     RDKit          3D

 22 23  0  0  0  0  0  0  0  0999 V2000
   -2.6450    2.6660   -0.7900 C   0  0  0  0  0  0  0  0  0  0  0  0
   -2.2730    2.1720   -1.9600 C   0  0  0  0  0  0  0  0  0  0  0  0
   -1.5360    0.9390   -2.1060 C   0  0  0  0  0  0  0  0  0  0  0  0
   -1.2080    0.5260   -3.3120 C   0  0  0  0  0  0  0  0  0  0  0  0
   -1.5520    1.2590   -4.5540 C   0  0  0  0  0  0  0  0  0  0  0  0
   -1.1640    0.1640   -0.9460 N   0  0  0  0  0  0  0  0  0  0  0  0
   -0.2010    0.7610   -0.0650 C   0  0  0  0  0  0  0  0  0  0  0  0
    1.1200    0.0380   -0.1380 C   0  0  0  0  0  0  0  0  0  0  0  0
    2.1130    0.6170    0.7450 N   0  0  0  0  0  0  0  0  0  0  0  0
    2.2220    0.1230    2.0930 C   0  0  0  0  0  0  0  0  0  0  0  0
    3.6000   -0.3590    2.4450 C   0  0  0  0  0  0  0  0  0  0  0  0
    4.5780    0.7910    2.5800 C   0  0  0  0  0  0  0  0  0  0  0  0
    5.1030    1.0540    1.1840 C   0  0  0  0  0  0  0  0  0  0  0  0
    4.2470    2.1160    0.5630 C   0  0  0  0  0  0  0  0  0  0  0  0
    2.9060    1.6460    0.1780 C   0  0  0  0  0  0  0  0  0  0  0  0
    2.4260    2.2740   -0.8010 O   0  0  0  0  0  0  0  0  0  0  0  0
   -1.7390   -1.1150   -0.7550 C   0  0  1  0  0  0  0  0  0  0  0  0
   -1.4040   -1.8580    0.4810 C   0  0  0  0  0  0  0  0  0  0  0  0
   -2.6020   -2.5810    1.0790 C   0  0  0  0  0  0  0  0  0  0  0  0
   -3.4260   -3.3170    0.0780 C   0  0  0  0  0  0  0  0  0  0  0  0
   -3.6540   -2.5520   -1.1970 C   0  0  0  0  0  0  0  0  0  0  0  0
   -3.2680   -1.0920   -0.9240 C   0  0  0  0  0  0  0  0  0  0  0  0
  1  2  2  0
  2  3  1  0
  3  4  2  3
  3  6  1  0
  4  5  1  0
  6  7  1  0
 17  6  1  1
  7  8  1  0
  8  9  1  0
  9 10  1  0
  9 15  1  0
 10 11  1  0
 11 12  1  0
 12 13  1  0
 13 14  1  0
 14 15  1  0
 15 16  2  0
 17 18  1  0
 17 22  1  0
 18 19  1  0
 19 20  1  0
 20 21  1  0
 21 22  1  0
M  END
