
     RDKit          3D

 25 26  0  0  0  0  0  0  0  0999 V2000
    8.7140    0.7010   -1.1610 C   0  0  0  0  0  0  0  0  0  0  0  0
    7.6270   -0.0730   -0.4770 C   0  0  0  0  0  0  0  0  0  0  0  0
    6.4550    0.4840   -0.1960 C   0  0  0  0  0  0  0  0  0  0  0  0
    5.4060   -0.3110    0.4790 C   0  0  0  0  0  0  0  0  0  0  0  0
    4.1290   -0.4420   -0.3220 C   0  0  0  0  0  0  0  0  0  0  0  0
    3.2050   -1.2410    0.4510 N   0  0  0  0  0  0  0  0  0  0  0  0
    1.8940   -0.7700    0.4450 C   0  0  0  0  0  0  0  0  0  0  0  0
    0.8880   -1.5430   -0.0910 C   0  0  0  0  0  0  0  0  0  0  0  0
   -0.4470   -1.1230   -0.1260 C   0  0  0  0  0  0  0  0  0  0  0  0
   -0.8060    0.0790    0.3750 C   0  0  0  0  0  0  0  0  0  0  0  0
   -2.1020    0.6280    0.3960 N   0  0  0  0  0  0  0  0  0  0  0  0
   -3.2190    0.0560   -0.2610 C   0  0  0  0  0  0  0  0  0  0  0  0
   -3.1370   -0.9960   -0.9240 O   0  0  0  0  0  0  0  0  0  0  0  0
   -4.5410    0.7820   -0.1280 C   0  0  0  0  0  0  0  0  0  0  0  0
   -5.6330    0.0390   -0.8380 C   0  0  1  0  0  0  0  0  0  0  0  0
   -5.8860   -1.3440   -0.3360 C   0  0  0  0  0  0  0  0  0  0  0  0
   -6.9650   -1.2470    0.7350 C   0  0  0  0  0  0  0  0  0  0  0  0
   -7.3550    0.2020    0.7600 C   0  0  0  0  0  0  0  0  0  0  0  0
   -6.9430    0.7510   -0.5810 C   0  0  2  0  0  0  0  0  0  0  0  0
   -7.8380    0.3920   -1.5700 O   0  0  0  0  0  0  0  0  0  0  0  0
    0.2040    0.8790    0.9250 C   0  0  0  0  0  0  0  0  0  0  0  0
    1.4870    0.4490    0.9460 C   0  0  0  0  0  0  0  0  0  0  0  0
    6.2730    1.9050   -0.5900 C   0  0  1  0  0  0  0  0  0  0  0  0
    5.2520    1.9630   -1.5100 F   0  0  0  0  0  0  0  0  0  0  0  0
    5.8200    2.9240    0.7850 Cl  0  0  0  0  0  0  0  0  0  0  0  0
  1  2  1  0
  2  3  2  3
  3  4  1  0
  3 23  1  0
  4  5  1  0
  5  6  1  0
  6  7  1  0
  7  8  2  0
  7 22  1  0
  8  9  1  0
  9 10  2  0
 10 11  1  0
 10 21  1  0
 11 12  1  0
 12 13  2  0
 12 14  1  0
 15 14  1  1
 15 16  1  0
 15 19  1  0
 16 17  1  0
 17 18  1  0
 18 19  1  0
 19 20  1  6
 21 22  2  0
 23 24  1  6
 23 25  1  0
M  CHG  1   6   1
M  END
