
     RDKit          3D

 26 28  0  0  0  0  0  0  0  0999 V2000
   -1.5370   -3.1690    1.2940 C   0  0  0  0  0  0  0  0  0  0  0  0
   -2.2170   -1.9710    0.9080 O   0  0  0  0  0  0  0  0  0  0  0  0
   -1.4340   -0.8850    0.5500 C   0  0  0  0  0  0  0  0  0  0  0  0
   -0.0970   -0.9060    0.5320 C   0  0  0  0  0  0  0  0  0  0  0  0
    0.5940    0.2430    0.1370 C   0  0  0  0  0  0  0  0  0  0  0  0
    2.0560    0.0510    0.0350 C   0  0  0  0  0  0  0  0  0  0  0  0
    2.6610   -0.2080   -1.1790 C   0  0  0  0  0  0  0  0  0  0  0  0
    3.9550   -0.5040   -1.2730 N   0  0  0  0  0  0  0  0  0  0  0  0
    4.4870   -0.8580   -2.5680 C   0  0  0  0  0  0  0  0  0  0  0  0
    4.7030   -0.5400   -0.1490 C   0  0  0  0  0  0  0  0  0  0  0  0
    5.9490   -0.8040   -0.2520 O   0  0  0  0  0  0  0  0  0  0  0  0
    4.1350   -0.2860    1.0660 C   0  0  0  0  0  0  0  0  0  0  0  0
    4.8580   -0.3270    2.2280 C   0  0  0  0  0  0  0  0  0  0  0  0
    4.3270   -0.1040    3.4570 N   0  0  0  0  0  0  0  0  0  0  0  0
    2.9960    0.1760    3.5360 C   0  0  0  0  0  0  0  0  0  0  0  0
    2.1980    0.2470    2.3970 C   0  0  0  0  0  0  0  0  0  0  0  0
    2.7750    0.0150    1.1790 C   0  0  0  0  0  0  0  0  0  0  0  0
   -0.0450    1.4210   -0.2260 C   0  0  0  0  0  0  0  0  0  0  0  0
    0.6550    2.4710   -0.5800 O   0  0  0  0  0  0  0  0  0  0  0  0
    0.6880    3.7520   -0.9590 C   0  0  0  0  0  0  0  0  0  0  0  0
   -1.4110    1.3700   -0.1820 C   0  0  0  0  0  0  0  0  0  0  0  0
   -2.1470    0.2830    0.1810 C   0  0  0  0  0  0  0  0  0  0  0  0
   -3.6120    0.1930    0.3380 C   0  0  0  0  0  0  0  0  0  0  0  0
   -4.2600    0.1530   -0.9340 N   0  0  2  0  0  0  0  0  0  0  0  0
   -5.1680    1.1560   -1.2100 C   0  0  0  0  0  0  0  0  0  0  0  0
   -4.8550   -1.2060   -1.0440 C   0  0  0  0  0  0  0  0  0  0  0  0
  1  2  1  0
  2  3  1  0
  3  4  2  0
  3 22  1  0
  4  5  1  0
  5  6  1  0
  5 18  2  0
  6  7  2  0
  6 17  1  0
  7  8  1  0
  8  9  1  0
  8 10  1  0
 10 11  2  0
 10 12  1  0
 12 13  2  0
 12 17  1  0
 13 14  1  0
 14 15  2  0
 15 16  1  0
 16 17  2  0
 18 19  1  0
 18 21  1  0
 19 20  1  0
 21 22  2  0
 22 23  1  0
 23 24  1  0
 24 25  1  1
 24 26  1  0
M  CHG  1  24   1
M  END
