
     RDKit          3D

 27 29  0  0  0  0  0  0  0  0999 V2000
   -1.9280    2.4990   -1.3110 C   0  0  0  0  0  0  0  0  0  0  0  0
   -2.8260    1.3910   -1.7230 C   0  0  0  0  0  0  0  0  0  0  0  0
   -3.0430    1.1560   -2.9990 C   0  0  0  0  0  0  0  0  0  0  0  0
   -3.9020    0.0970   -3.4550 N   0  0  0  0  0  0  0  0  0  0  0  0
   -3.7440   -1.0860   -2.6360 C   0  0  0  0  0  0  0  0  0  0  0  0
   -3.8540   -0.8330   -1.1820 C   0  0  0  0  0  0  0  0  0  0  0  0
   -3.4950    0.5350   -0.7060 C   0  0  1  0  0  0  0  0  0  0  0  0
   -2.8240    0.5300    0.5730 N   0  0  0  0  0  0  0  0  0  0  0  0
   -1.4920    0.0580    0.7070 C   0  0  0  0  0  0  0  0  0  0  0  0
   -0.7720   -0.3880   -0.3810 C   0  0  0  0  0  0  0  0  0  0  0  0
    0.5310   -0.8420   -0.3160 C   0  0  0  0  0  0  0  0  0  0  0  0
    1.1740   -1.2930   -1.5790 C   0  0  0  0  0  0  0  0  0  0  0  0
    2.5440   -1.6480   -1.4350 N   0  0  0  0  0  0  0  0  0  0  0  0
    3.5690   -0.7700   -1.0010 C   0  0  0  0  0  0  0  0  0  0  0  0
    3.4050    0.5290   -1.2050 C   0  0  0  0  0  0  0  0  0  0  0  0
    4.2960    1.6100   -0.8570 C   0  0  0  0  0  0  0  0  0  0  0  0
    3.8630    2.7870   -1.0700 O   0  0  0  0  0  0  0  0  0  0  0  0
    5.5820    1.5010   -0.3120 O   0  0  0  0  0  0  0  0  0  0  0  0
    6.1440    0.4970    0.5090 C   0  0  0  0  0  0  0  0  0  0  0  0
    5.1160   -0.5750    0.8480 C   0  0  0  0  0  0  0  0  0  0  0  0
    4.7540   -1.4100   -0.3440 C   0  0  0  0  0  0  0  0  0  0  0  0
    1.1430   -0.8490    0.8960 C   0  0  0  0  0  0  0  0  0  0  0  0
    0.4540   -0.4080    2.0210 C   0  0  0  0  0  0  0  0  0  0  0  0
   -0.8460    0.0420    1.9410 C   0  0  0  0  0  0  0  0  0  0  0  0
   -1.5300    0.4660    3.1160 N   0  0  2  0  0  0  0  0  0  0  0  0
   -0.6220    0.4020    4.2650 C   0  0  0  0  0  0  0  0  0  0  0  0
   -2.6320   -0.4100    3.4420 C   0  0  0  0  0  0  0  0  0  0  0  0
  1  2  1  0
  2  3  2  0
  2  7  1  0
  3  4  1  0
  4  5  1  0
  5  6  1  0
  6  7  1  0
  7  8  1  1
  8  9  1  0
  9 10  2  0
  9 24  1  0
 10 11  1  0
 11 12  1  0
 11 22  2  0
 12 13  1  0
 13 14  1  0
 14 15  2  0
 14 21  1  0
 15 16  1  0
 16 17  2  0
 16 18  1  0
 18 19  1  0
 19 20  1  0
 20 21  1  0
 22 23  1  0
 23 24  2  0
 24 25  1  0
 25 26  1  1
 25 27  1  0
M  CHG  2   4   1  25   1
M  END
