
     RDKit          3D

 26 28  0  0  0  0  0  0  0  0999 V2000
    5.6070    3.7490   -1.2180 C   0  0  0  0  0  0  0  0  0  0  0  0
    4.8440    3.1580   -0.3110 C   0  0  0  0  0  0  0  0  0  0  0  0
    4.5930    1.6710   -0.4330 C   0  0  0  0  0  0  0  0  0  0  0  0
    3.1360    1.3910   -0.5830 C   0  0  0  0  0  0  0  0  0  0  0  0
    2.9310   -0.0500   -0.7300 N   0  0  0  0  0  0  0  0  0  0  0  0
    3.1530   -0.9700    0.2720 C   0  0  0  0  0  0  0  0  0  0  0  0
    2.2430   -1.5240    1.0120 C   0  0  0  0  0  0  0  0  0  0  0  0
    0.8460   -1.3840    1.0320 C   0  0  0  0  0  0  0  0  0  0  0  0
    0.3090   -2.1410    2.0010 O   0  0  0  0  0  0  0  0  0  0  0  0
   -0.1400   -0.6960    0.3450 N   0  0  0  0  0  0  0  0  0  0  0  0
   -0.1090    0.1930   -0.7610 C   0  0  0  0  0  0  0  0  0  0  0  0
   -1.5470    0.5640   -1.1270 C   0  0  0  0  0  0  0  0  0  0  0  0
   -2.4140   -0.3830   -0.3370 C   0  0  2  0  0  0  0  0  0  0  0  0
   -3.6030    0.3770    0.0800 C   0  0  0  0  0  0  0  0  0  0  0  0
   -4.7970   -0.0700   -0.2460 C   0  0  0  0  0  0  0  0  0  0  0  0
   -4.8340   -1.3480   -1.0350 C   0  0  0  0  0  0  0  0  0  0  0  0
   -6.0560    0.5890    0.1070 C   0  0  2  0  0  0  0  0  0  0  0  0
   -6.7180    0.9950   -1.2050 C   0  0  0  0  0  0  0  0  0  0  0  0
   -5.8310    1.8180    0.8720 C   0  0  0  0  0  0  0  0  0  0  0  0
   -4.6330    2.2460    1.1860 C   0  0  0  0  0  0  0  0  0  0  0  0
   -3.4380    1.5750    0.8240 N   0  0  0  0  0  0  0  0  0  0  0  0
   -1.5700   -0.8440    0.7870 C   0  0  0  0  0  0  0  0  0  0  0  0
    2.8710   -2.4550    2.0000 N   0  0  0  0  0  0  0  0  0  0  0  0
    3.5970   -3.4730    1.3020 C   0  0  0  0  0  0  0  0  0  0  0  0
    4.6190   -2.8770    0.3920 C   0  0  0  0  0  0  0  0  0  0  0  0
    4.6100   -1.3790    0.4870 C   0  0  0  0  0  0  0  0  0  0  0  0
  1  2  2  0
  2  3  1  0
  3  4  1  0
  4  5  1  0
  5  6  1  0
  6  7  2  0
  6 26  1  0
  7  8  1  0
  7 23  1  0
  8  9  2  0
  8 10  1  0
 10 11  1  0
 10 22  1  0
 11 12  1  0
 12 13  1  0
 13 14  1  1
 13 22  1  0
 14 15  2  0
 14 21  1  0
 15 16  1  0
 15 17  1  0
 17 18  1  6
 17 19  1  0
 19 20  2  0
 20 21  1  0
 23 24  1  0
 24 25  1  0
 25 26  1  0
M  CHG  1  23   1
M  END
