
     RDKit          3D

 25 26  0  0  0  0  0  0  0  0999 V2000
   -2.0410    3.1380    1.2660 C   0  0  0  0  0  0  0  0  0  0  0  0
   -3.2200    2.2930    0.9070 C   0  0  0  0  0  0  0  0  0  0  0  0
   -3.2210    1.6350   -0.4160 C   0  0  0  0  0  0  0  0  0  0  0  0
   -2.2610    0.7500   -0.7420 O   0  0  0  0  0  0  0  0  0  0  0  0
   -0.9810    1.0470   -0.8360 C   0  0  2  0  0  0  0  0  0  0  0  0
   -0.4470    0.9200   -2.2890 C   0  0  0  0  0  0  0  0  0  0  0  0
   -0.0500    0.2050   -0.0180 C   0  0  1  0  0  0  0  0  0  0  0  0
   -0.1380   -1.2450   -0.1070 C   0  0  0  0  0  0  0  0  0  0  0  0
   -1.3290   -1.9470    0.3460 C   0  0  0  0  0  0  0  0  0  0  0  0
   -2.4270   -1.5610    0.9560 C   0  0  0  0  0  0  0  0  0  0  0  0
   -3.3240   -2.7200    1.1730 C   0  0  0  0  0  0  0  0  0  0  0  0
   -4.4550   -2.6900    1.7320 O   0  0  0  0  0  0  0  0  0  0  0  0
   -2.6120   -3.8420    0.6120 C   0  0  0  0  0  0  0  0  0  0  0  0
   -3.1460   -5.1750    0.6190 N   0  0  0  0  0  0  0  0  0  0  0  0
   -1.4900   -3.4010    0.1480 C   0  0  0  0  0  0  0  0  0  0  0  0
    1.3030    0.7000   -0.2640 N   0  0  0  0  0  0  0  0  0  0  0  0
    2.3430   -0.1810    0.1500 C   0  0  0  0  0  0  0  0  0  0  0  0
    3.6540    0.4620   -0.1440 C   0  0  0  0  0  0  0  0  0  0  0  0
    4.8000   -0.1460    0.3180 C   0  0  0  0  0  0  0  0  0  0  0  0
    6.0460    0.3940    0.0790 C   0  0  0  0  0  0  0  0  0  0  0  0
    7.1480   -0.2290    0.5480 F   0  0  0  0  0  0  0  0  0  0  0  0
    6.1010    1.5670   -0.6420 C   0  0  0  0  0  0  0  0  0  0  0  0
    4.9550    2.1960   -1.1170 C   0  0  0  0  0  0  0  0  0  0  0  0
    5.0450    3.6870   -2.0320 Cl  0  0  0  0  0  0  0  0  0  0  0  0
    3.7190    1.6180   -0.8540 C   0  0  0  0  0  0  0  0  0  0  0  0
  1  2  1  0
  2  3  1  0
  3  4  1  0
  4  5  1  0
  5  6  1  6
  5  7  1  0
  7  8  1  6
  7 16  1  0
  8  9  1  0
  9 10  2  0
  9 15  1  0
 10 11  1  0
 11 12  2  0
 11 13  1  0
 13 14  1  0
 13 15  2  0
 16 17  1  0
 17 18  1  0
 18 19  2  0
 18 25  1  0
 19 20  1  0
 20 21  1  0
 20 22  2  0
 22 23  1  0
 23 24  1  0
 23 25  2  0
M  CHG  1  14   1
M  END
