
     RDKit          3D

 27 29  0  0  0  0  0  0  0  0999 V2000
   -3.9220   -4.5670   -1.0860 C   0  0  0  0  0  0  0  0  0  0  0  0
   -2.8650   -4.0270   -0.1550 C   0  0  0  0  0  0  0  0  0  0  0  0
   -2.5730   -2.5550   -0.4610 C   0  0  0  0  0  0  0  0  0  0  0  0
   -1.5160   -2.1200    0.5160 C   0  0  0  0  0  0  0  0  0  0  0  0
   -1.0980   -0.7230    0.3930 C   0  0  0  0  0  0  0  0  0  0  0  0
    0.0520   -0.3700   -0.2700 C   0  0  0  0  0  0  0  0  0  0  0  0
    0.4330    0.9400   -0.4090 C   0  0  0  0  0  0  0  0  0  0  0  0
    1.6870    1.3320   -1.1300 C   0  0  0  0  0  0  0  0  0  0  0  0
    2.6740    1.6740   -0.1650 N   0  0  0  0  0  0  0  0  0  0  0  0
    3.9340    2.0670   -0.7170 C   0  0  0  0  0  0  0  0  0  0  0  0
    4.9440    0.9690   -0.8100 C   0  0  0  0  0  0  0  0  0  0  0  0
    4.9100    0.0490    0.2820 N   0  0  2  0  0  0  0  0  0  0  0  0
    5.9060   -0.9560    0.1620 C   0  0  0  0  0  0  0  0  0  0  0  0
    3.5590   -0.4550    0.3890 C   0  0  1  0  0  0  0  0  0  0  0  0
    3.4500   -1.6280    1.3250 C   0  0  0  0  0  0  0  0  0  0  0  0
    2.7390    0.7360    0.8940 C   0  0  0  0  0  0  0  0  0  0  0  0
   -0.3450    1.9330    0.1230 C   0  0  0  0  0  0  0  0  0  0  0  0
   -1.5250    1.6150    0.8070 C   0  0  0  0  0  0  0  0  0  0  0  0
   -2.2800    2.6510    1.3270 O   0  0  0  0  0  0  0  0  0  0  0  0
   -3.5760    2.8790    0.9500 C   0  0  0  0  0  0  0  0  0  0  0  0
   -3.8050    3.5740   -0.2300 C   0  0  0  0  0  0  0  0  0  0  0  0
   -5.0900    3.8300   -0.6520 C   0  0  0  0  0  0  0  0  0  0  0  0
   -6.1300    3.4050    0.0800 N   0  0  0  0  0  0  0  0  0  0  0  0
   -5.9170    2.7450    1.1990 N   0  0  0  0  0  0  0  0  0  0  0  0
   -4.6670    2.4620    1.6690 C   0  0  0  0  0  0  0  0  0  0  0  0
   -1.8710    0.2860    0.9240 C   0  0  0  0  0  0  0  0  0  0  0  0
   -3.0290   -0.0500    1.5980 O   0  0  0  0  0  0  0  0  0  0  0  0
  1  2  1  0
  2  3  1  0
  3  4  1  0
  4  5  1  0
  5  6  2  0
  5 26  1  0
  6  7  1  0
  7  8  1  0
  7 17  2  0
  8  9  1  0
  9 10  1  0
  9 16  1  0
 10 11  1  0
 11 12  1  0
 12 13  1  6
 12 14  1  0
 14 15  1  1
 14 16  1  0
 17 18  1  0
 18 19  1  0
 18 26  2  0
 19 20  1  0
 20 21  2  0
 20 25  1  0
 21 22  1  0
 22 23  2  0
 23 24  1  0
 24 25  2  0
 26 27  1  0
M  CHG  2  12   1  23   1
M  END
