
     RDKit          3D

 27 29  0  0  0  0  0  0  0  0999 V2000
   -6.2130    1.8650   -1.8320 C   0  0  0  0  0  0  0  0  0  0  0  0
   -5.1080    1.2790   -1.4390 C   0  0  0  0  0  0  0  0  0  0  0  0
   -3.9420    1.6140   -2.0870 C   0  0  0  0  0  0  0  0  0  0  0  0
   -2.7910    1.0120   -1.6890 C   0  0  0  0  0  0  0  0  0  0  0  0
   -2.7570    0.0900   -0.6710 C   0  0  0  0  0  0  0  0  0  0  0  0
   -1.6010   -0.4810   -0.3030 N   0  0  0  0  0  0  0  0  0  0  0  0
   -1.4350   -1.3830    0.6700 C   0  0  0  0  0  0  0  0  0  0  0  0
   -0.1860   -1.9810    1.0030 N   0  0  0  0  0  0  0  0  0  0  0  0
    1.0790   -1.7040    0.4030 C   0  0  0  0  0  0  0  0  0  0  0  0
    1.7050   -0.4900    1.0590 C   0  0  1  0  0  0  0  0  0  0  0  0
    3.1660   -0.3690    0.7040 C   0  0  0  0  0  0  0  0  0  0  0  0
    3.5310    0.5890   -0.2300 N   0  0  0  0  0  0  0  0  0  0  0  0
    4.2970    0.3150   -1.3600 C   0  0  0  0  0  0  0  0  0  0  0  0
    5.7280    0.0010   -1.0550 C   0  0  2  0  0  0  0  0  0  0  0  0
    5.9630   -1.1900   -0.1930 C   0  0  0  0  0  0  0  0  0  0  0  0
    6.3730    1.2200   -0.3670 C   0  0  0  0  0  0  0  0  0  0  0  0
    2.7920    1.8200   -0.1990 C   0  0  0  0  0  0  0  0  0  0  0  0
    1.3240    1.5820    0.0640 C   0  0  0  0  0  0  0  0  0  0  0  0
    1.0130    0.6300    0.9520 O   0  0  0  0  0  0  0  0  0  0  0  0
   -2.5900   -1.7350    1.3320 C   0  0  0  0  0  0  0  0  0  0  0  0
   -3.8540   -1.1930    1.0190 C   0  0  0  0  0  0  0  0  0  0  0  0
   -4.9480   -1.6910    1.8020 C   0  0  0  0  0  0  0  0  0  0  0  0
   -5.2470   -1.0700    3.0440 N   0  0  0  0  0  0  0  0  0  0  0  0
   -5.6810   -2.6810    1.4600 O   0  0  0  0  0  0  0  0  0  0  0  0
   -3.9290   -0.2790    0.0160 C   0  0  0  0  0  0  0  0  0  0  0  0
   -5.1160    0.3380   -0.3900 C   0  0  0  0  0  0  0  0  0  0  0  0
   -6.2400    0.0720    0.1980 C   0  0  0  0  0  0  0  0  0  0  0  0
  1  2  2  0
  2  3  1  0
  2 26  1  0
  3  4  2  0
  4  5  1  0
  5  6  2  0
  5 25  1  0
  6  7  1  0
  7  8  1  0
  7 20  2  0
  8  9  1  0
 10  9  1  6
 10 11  1  0
 10 19  1  0
 11 12  1  0
 12 13  1  0
 12 17  1  0
 13 14  1  0
 14 15  1  1
 14 16  1  0
 17 18  1  0
 18 19  1  0
 20 21  1  0
 21 22  1  0
 21 25  2  0
 22 23  1  0
 22 24  2  0
 25 26  1  0
 26 27  2  0
M  CHG  1   6   1
M  END
