
     RDKit          3D

 19 21  0  0  0  0  0  0  0  0999 V2000
   -3.0590   -1.5050    2.0850 C   0  0  0  0  0  0  0  0  0  0  0  0
   -3.1460   -0.6420    0.8580 C   0  0  0  0  0  0  0  0  0  0  0  0
   -4.2490   -0.5320    0.1860 C   0  0  0  0  0  0  0  0  0  0  0  0
   -4.0170    0.3650   -0.9350 C   0  0  0  0  0  0  0  0  0  0  0  0
   -2.5690    0.7560   -0.7870 C   0  0  0  0  0  0  0  0  0  0  0  0
   -1.9850    1.6840   -1.7860 C   0  0  0  0  0  0  0  0  0  0  0  0
   -2.0510    0.1770    0.2540 C   0  0  0  0  0  0  0  0  0  0  0  0
   -0.7770    0.2020    0.8280 N   0  0  0  0  0  0  0  0  0  0  0  0
    0.3860    0.8800    0.4590 C   0  0  0  0  0  0  0  0  0  0  0  0
    0.4170    1.6150   -0.5280 O   0  0  0  0  0  0  0  0  0  0  0  0
    1.6620    0.7670    1.2230 C   0  0  0  0  0  0  0  0  0  0  0  0
    2.5360   -0.2420    0.7140 N   0  0  0  0  0  0  0  0  0  0  0  0
    2.5330   -1.5200    1.1010 C   0  0  0  0  0  0  0  0  0  0  0  0
    3.4800   -2.2030    0.4230 C   0  0  0  0  0  0  0  0  0  0  0  0
    4.0860   -1.2930   -0.4150 C   0  0  0  0  0  0  0  0  0  0  0  0
    5.3150   -1.0560   -1.6290 S   0  0  0  0  0  0  0  0  0  0  0  0
    5.0200    0.7020   -1.8820 C   0  0  0  0  0  0  0  0  0  0  0  0
    3.9950    0.9710   -1.0090 C   0  0  0  0  0  0  0  0  0  0  0  0
    3.5020   -0.0240   -0.2520 C   0  0  0  0  0  0  0  0  0  0  0  0
  1  2  1  0
  2  3  2  0
  2  7  1  0
  3  4  1  0
  4  5  1  0
  5  6  1  0
  5  7  2  0
  7  8  1  0
  8  9  1  0
  9 10  2  0
  9 11  1  0
 11 12  1  0
 12 13  1  0
 12 19  1  0
 13 14  2  0
 14 15  1  0
 15 16  1  0
 15 19  2  0
 16 17  1  0
 17 18  2  0
 18 19  1  0
M  END
