
     RDKit          3D

 12 12  0  0  0  0  0  0  0  0999 V2000
    2.3980    1.8120    0.1090 C   0  0  0  0  0  0  0  0  0  0  0  0
    1.0730    1.3480    0.0130 N   0  0  0  0  0  0  0  0  0  0  0  0
    0.5890    0.1820   -0.1110 C   0  0  0  0  0  0  0  0  0  0  0  0
    1.1880   -1.1340   -0.2050 C   0  0  0  0  0  0  0  0  0  0  0  0
    2.4600   -1.4240   -0.1120 C   0  0  0  0  0  0  0  0  0  0  0  0
    2.9840   -3.0770   -0.2520 Cl  0  0  0  0  0  0  0  0  0  0  0  0
    0.0850   -2.1320   -0.4300 C   0  0  0  0  0  0  0  0  0  0  0  0
   -1.1200   -1.3960    0.0720 C   0  0  0  0  0  0  0  0  0  0  0  0
   -0.8240   -0.0170   -0.1860 N   0  0  0  0  0  0  0  0  0  0  0  0
   -1.8320    0.9880   -0.4710 C   0  0  0  0  0  0  0  0  0  0  0  0
   -2.6850    1.2600    0.7490 C   0  0  0  0  0  0  0  0  0  0  0  0
   -3.9020    2.4980    0.3690 Cl  0  0  0  0  0  0  0  0  0  0  0  0
  1  2  1  0
  2  3  2  3
  3  4  1  0
  3  9  1  0
  4  5  2  3
  4  7  1  0
  5  6  1  0
  7  8  1  0
  8  9  1  0
  9 10  1  0
 10 11  1  0
 11 12  1  0
M  END
