
     RDKit          3D

 19 21  0  0  0  0  0  0  0  0999 V2000
   -1.5990    1.5220   -0.8860 O   0  0  0  0  0  0  0  0  0  0  0  0
   -2.8890    0.9700   -0.9420 C   0  0  0  0  0  0  0  0  0  0  0  0
   -2.8810   -0.3230   -0.2010 C   0  0  2  0  0  0  0  0  0  0  0  0
   -1.7270   -1.4690   -0.9200 S   0  0  0  0  0  0  0  0  0  0  0  0
   -0.0370   -1.0190   -0.7910 C   0  0  0  0  0  0  0  0  0  0  0  0
    0.6770   -1.4410    0.3090 C   0  0  0  0  0  0  0  0  0  0  0  0
    2.0300   -1.1080    0.4580 C   0  0  0  0  0  0  0  0  0  0  0  0
    2.6410   -0.3520   -0.5090 C   0  0  0  0  0  0  0  0  0  0  0  0
    4.0660    0.0150   -0.3860 C   0  0  0  0  0  0  0  0  0  0  0  0
    4.8900   -0.3170    0.5930 C   0  0  0  0  0  0  0  0  0  0  0  0
    6.2370    0.2490    0.3460 C   0  0  0  0  0  0  0  0  0  0  0  0
    6.0630    0.9670   -0.9370 C   0  0  0  0  0  0  0  0  0  0  0  0
    4.8110    0.8140   -1.3290 C   0  0  0  0  0  0  0  0  0  0  0  0
    1.9080    0.0370   -1.5600 N   0  0  0  0  0  0  0  0  0  0  0  0
    0.6210   -0.2830   -1.6960 N   0  0  0  0  0  0  0  0  0  0  0  0
   -4.2660   -0.9350   -0.2290 C   0  0  0  0  0  0  0  0  0  0  0  0
   -5.0280   -0.0090    0.7140 C   0  0  0  0  0  0  0  0  0  0  0  0
   -3.9910    0.6150    1.6310 C   0  0  0  0  0  0  0  0  0  0  0  0
   -2.6740   -0.0400    1.2590 C   0  0  0  0  0  0  0  0  0  0  0  0
  1  2  1  0
  3  2  1  6
  3  4  1  0
  3 16  1  0
  3 19  1  0
  4  5  1  0
  5  6  2  0
  5 15  1  0
  6  7  1  0
  7  8  2  0
  8  9  1  0
  8 14  1  0
  9 10  2  0
  9 13  1  0
 10 11  1  0
 11 12  1  0
 12 13  2  0
 14 15  2  0
 16 17  1  0
 17 18  1  0
 18 19  1  0
M  END
