
     RDKit          3D

 12 13  0  0  0  0  0  0  0  0999 V2000
    3.3370   -0.2010    1.7670 Cl  0  0  0  0  0  0  0  0  0  0  0  0
    2.7830    0.2270    0.1320 C   0  0  2  0  0  0  0  0  0  0  0  0
    3.3030    1.8910   -0.2190 Cl  0  0  0  0  0  0  0  0  0  0  0  0
    1.2740    0.1310    0.0400 C   0  0  0  0  0  0  0  0  0  0  0  0
    0.4550    1.1120   -0.2610 C   0  0  0  0  0  0  0  0  0  0  0  0
   -0.9320    0.6720   -0.2600 C   0  0  0  0  0  0  0  0  0  0  0  0
   -2.1430    1.2810   -0.5000 C   0  0  0  0  0  0  0  0  0  0  0  0
   -3.2750    0.5690   -0.4130 N   0  0  0  0  0  0  0  0  0  0  0  0
   -3.2550   -0.7290   -0.0950 N   0  0  0  0  0  0  0  0  0  0  0  0
   -2.1250   -1.3930    0.1520 C   0  0  0  0  0  0  0  0  0  0  0  0
   -0.9270   -0.6610    0.0650 C   0  0  0  0  0  0  0  0  0  0  0  0
    0.4630   -1.0740    0.2720 C   0  0  0  0  0  0  0  0  0  0  0  0
  2  1  1  1
  2  3  1  0
  2  4  1  0
  4  5  2  0
  4 12  1  0
  5  6  1  0
  6  7  2  0
  6 11  1  0
  7  8  1  0
  8  9  2  0
  9 10  1  0
 10 11  2  0
 11 12  1  0
M  END
