
     RDKit          3D

 18 20  0  0  0  0  0  0  0  0999 V2000
    6.1180   -0.1570    0.0460 O   0  0  0  0  0  0  0  0  0  0  0  0
    5.1200   -1.1120   -0.1720 C   0  0  0  0  0  0  0  0  0  0  0  0
    3.8160   -0.4050   -0.1010 C   0  0  0  0  0  0  0  0  0  0  0  0
    2.6450   -1.1190   -0.2820 C   0  0  0  0  0  0  0  0  0  0  0  0
    1.4180   -0.4790   -0.2200 C   0  0  0  0  0  0  0  0  0  0  0  0
    1.3310    0.8690    0.0220 C   0  0  0  0  0  0  0  0  0  0  0  0
    0.0270    1.5670    0.0970 C   0  0  0  0  0  0  0  0  0  0  0  0
   -1.0880    0.7060    0.2490 N   0  0  0  0  0  0  0  0  0  0  0  0
   -1.1660   -0.1070    1.3850 C   0  0  0  0  0  0  0  0  0  0  0  0
   -2.0350   -1.3120    1.1270 C   0  0  0  0  0  0  0  0  0  0  0  0
   -3.3330   -0.8110    0.5990 C   0  0  0  0  0  0  0  0  0  0  0  0
   -5.0410   -1.0860    0.9080 S   0  0  0  0  0  0  0  0  0  0  0  0
   -5.6710    0.0980   -0.3470 C   0  0  0  0  0  0  0  0  0  0  0  0
   -4.5180    0.5760   -0.8670 C   0  0  0  0  0  0  0  0  0  0  0  0
   -3.3480    0.1380   -0.4120 C   0  0  0  0  0  0  0  0  0  0  0  0
   -1.9430    0.5290   -0.8380 C   0  0  0  0  0  0  0  0  0  0  0  0
    2.5300    1.5380    0.1970 C   0  0  0  0  0  0  0  0  0  0  0  0
    3.7150    0.9060    0.1340 N   0  0  0  0  0  0  0  0  0  0  0  0
  1  2  1  0
  2  3  1  0
  3  4  2  0
  3 18  1  0
  4  5  1  0
  5  6  2  0
  6  7  1  0
  6 17  1  0
  7  8  1  0
  8  9  1  0
  8 16  1  0
  9 10  1  0
 10 11  1  0
 11 12  1  0
 11 15  2  0
 12 13  1  0
 13 14  2  0
 14 15  1  0
 15 16  1  0
 17 18  2  0
M  END
