
     RDKit          3D

 19 21  0  0  0  0  0  0  0  0999 V2000
    6.1890    1.1860   -1.2880 C   0  0  0  0  0  0  0  0  0  0  0  0
    4.9950    0.7680   -0.4950 C   0  0  0  0  0  0  0  0  0  0  0  0
    4.2710    1.4130    0.4810 C   0  0  0  0  0  0  0  0  0  0  0  0
    3.2340    0.7870    1.0250 C   0  0  0  0  0  0  0  0  0  0  0  0
    2.9020   -0.4540    0.6260 C   0  0  0  0  0  0  0  0  0  0  0  0
    1.8560   -1.3990    1.0020 C   0  0  0  0  0  0  0  0  0  0  0  0
    0.6510   -1.2670    0.2300 N   0  0  0  0  0  0  0  0  0  0  0  0
    0.0410    0.0350    0.3450 C   0  0  0  0  0  0  0  0  0  0  0  0
   -1.2070   -0.0050   -0.5440 C   0  0  0  0  0  0  0  0  0  0  0  0
   -2.1210   -0.9040    0.0870 N   0  0  0  0  0  0  0  0  0  0  0  0
   -3.4470   -0.8900   -0.4890 C   0  0  0  0  0  0  0  0  0  0  0  0
   -4.0780    0.4300   -0.3690 C   0  0  0  0  0  0  0  0  0  0  0  0
   -3.7100    1.4580    0.4690 C   0  0  0  0  0  0  0  0  0  0  0  0
   -4.6040    2.4900    0.2160 C   0  0  0  0  0  0  0  0  0  0  0  0
   -5.4680    2.0470   -0.7550 C   0  0  0  0  0  0  0  0  0  0  0  0
   -5.1190    0.8440   -1.0600 O   0  0  0  0  0  0  0  0  0  0  0  0
   -1.6100   -2.2380    0.0270 C   0  0  0  0  0  0  0  0  0  0  0  0
   -0.2020   -2.3660    0.5400 C   0  0  0  0  0  0  0  0  0  0  0  0
    4.1320   -0.7800   -0.6080 S   0  0  0  0  0  0  0  0  0  0  0  0
  1  2  1  0
  2  3  2  0
  2 19  1  0
  3  4  1  0
  4  5  2  0
  5  6  1  0
  5 19  1  0
  6  7  1  0
  7  8  1  0
  7 18  1  0
  8  9  1  0
  9 10  1  0
 10 11  1  0
 10 17  1  0
 11 12  1  0
 12 13  2  0
 12 16  1  0
 13 14  1  0
 14 15  2  0
 15 16  1  0
 17 18  1  0
M  END
