
     RDKit          3D

 20 21  0  0  0  0  0  0  0  0999 V2000
   -3.2750   -0.1230    1.4610 C   0  0  0  0  0  0  0  0  0  0  0  0
   -2.6100   -0.4630    0.3840 C   0  0  0  0  0  0  0  0  0  0  0  0
   -2.1870   -1.8250    0.1360 N   0  0  0  0  0  0  0  0  0  0  0  0
   -1.4790   -1.8560   -1.1100 C   0  0  0  0  0  0  0  0  0  0  0  0
   -1.2250   -2.8240   -1.8610 O   0  0  0  0  0  0  0  0  0  0  0  0
   -1.0830   -0.4640   -1.3670 C   0  0  2  0  0  0  0  0  0  0  0  0
    0.2520   -0.0850   -0.9550 C   0  0  0  0  0  0  0  0  0  0  0  0
    1.1130   -0.8710   -0.3930 C   0  0  0  0  0  0  0  0  0  0  0  0
    0.8570   -2.2600   -0.0940 N   0  0  0  0  0  0  0  0  0  0  0  0
    2.4450   -0.3340   -0.0260 C   0  0  0  0  0  0  0  0  0  0  0  0
    3.3650   -1.1990    0.5820 O   0  0  0  0  0  0  0  0  0  0  0  0
    3.1840   -1.4950    1.9560 C   0  0  0  0  0  0  0  0  0  0  0  0
    2.8120    0.8940   -0.2350 C   0  0  0  0  0  0  0  0  0  0  0  0
    4.1450    1.3780    0.1470 C   0  0  0  0  0  0  0  0  0  0  0  0
    5.0110    0.6550    0.6930 O   0  0  0  0  0  0  0  0  0  0  0  0
    1.8500    1.8220   -0.8780 C   0  0  0  0  0  0  0  0  0  0  0  0
    0.6400    1.2380   -1.1840 O   0  0  0  0  0  0  0  0  0  0  0  0
   -2.1620    0.3350   -0.7110 C   0  0  0  0  0  0  0  0  0  0  0  0
   -2.5830    1.4960   -1.1030 C   0  0  0  0  0  0  0  0  0  0  0  0
   -3.6600    2.3180   -0.5130 C   0  0  0  0  0  0  0  0  0  0  0  0
  1  2  2  0
  2  3  1  0
  2 18  1  0
  3  4  1  0
  4  5  2  0
  4  6  1  0
  6  7  1  1
  6 18  1  0
  7  8  2  0
  7 17  1  0
  8  9  1  0
  8 10  1  0
 10 11  1  0
 10 13  2  0
 11 12  1  0
 13 14  1  0
 13 16  1  0
 14 15  2  0
 16 17  1  0
 18 19  2  3
 19 20  1  0
M  END
