
     RDKit          3D

 20 22  0  0  0  0  0  0  0  0999 V2000
    4.3090   -0.9190    0.6950 C   0  0  0  0  0  0  0  0  0  0  0  0
    3.5480   -1.2520   -0.4340 O   0  0  0  0  0  0  0  0  0  0  0  0
    2.2230   -0.8750   -0.5940 C   0  0  0  0  0  0  0  0  0  0  0  0
    1.6200   -0.1270    0.4230 C   0  0  0  0  0  0  0  0  0  0  0  0
    0.2930    0.2690    0.2970 C   0  0  0  0  0  0  0  0  0  0  0  0
   -0.3310   -0.1180   -0.8470 C   0  0  0  0  0  0  0  0  0  0  0  0
    0.2100   -0.8420   -1.8580 C   0  0  0  0  0  0  0  0  0  0  0  0
    1.5330   -1.2400   -1.7380 C   0  0  0  0  0  0  0  0  0  0  0  0
    2.1170   -1.9820   -2.7560 O   0  0  0  0  0  0  0  0  0  0  0  0
   -0.6040   -1.1320   -2.9410 O   0  0  0  0  0  0  0  0  0  0  0  0
   -2.0040   -0.9110   -2.9070 C   0  0  0  0  0  0  0  0  0  0  0  0
   -2.5420   -0.6740   -1.5150 C   0  0  0  0  0  0  0  0  0  0  0  0
   -1.7150    0.3860   -0.8350 C   0  0  1  0  0  0  0  0  0  0  0  0
   -1.9850    0.5710    0.6130 C   0  0  1  0  0  0  0  0  0  0  0  0
   -2.2550   -0.7540    1.2610 C   0  0  0  0  0  0  0  0  0  0  0  0
   -3.2980   -0.9370    1.8570 O   0  0  0  0  0  0  0  0  0  0  0  0
   -0.6620    1.0270    1.1220 C   0  0  0  0  0  0  0  0  0  0  0  0
   -0.3110    1.8680    2.0450 C   0  0  0  0  0  0  0  0  0  0  0  0
    1.0180    2.1840    2.4000 N   0  0  0  0  0  0  0  0  0  0  0  0
   -1.3460    2.5350    2.7690 N   0  0  0  0  0  0  0  0  0  0  0  0
  1  2  1  0
  2  3  1  0
  3  4  2  0
  3  8  1  0
  4  5  1  0
  5  6  2  0
  5 17  1  0
  6  7  1  0
  6 13  1  0
  7  8  2  0
  7 10  1  0
  8  9  1  0
 10 11  1  0
 11 12  1  0
 13 12  1  1
 13 14  1  0
 14 15  1  1
 14 17  1  0
 15 16  2  0
 17 18  2  3
 18 19  1  0
 18 20  1  0
M  END
