
     RDKit          3D

 20 21  0  0  0  0  0  0  0  0999 V2000
   -2.9290    0.6260   -2.1100 C   0  0  0  0  0  0  0  0  0  0  0  0
   -3.4410    0.0640   -0.8180 C   0  0  0  0  0  0  0  0  0  0  0  0
   -2.3360   -0.3980    0.0980 C   0  0  2  0  0  0  0  0  0  0  0  0
   -1.3970    0.7250    0.4680 C   0  0  0  0  0  0  0  0  0  0  0  0
   -0.8630    0.5350    1.7880 N   0  0  0  0  0  0  0  0  0  0  0  0
    0.3030    1.1550    2.3020 C   0  0  0  0  0  0  0  0  0  0  0  0
    0.4200    1.1060    3.5770 O   0  0  0  0  0  0  0  0  0  0  0  0
    1.3280    1.8060    1.5980 N   0  0  0  0  0  0  0  0  0  0  0  0
    1.8830    1.4620    0.3330 C   0  0  0  0  0  0  0  0  0  0  0  0
    2.1610    2.5110   -0.4700 C   0  0  0  0  0  0  0  0  0  0  0  0
    2.7440    2.3770   -1.8310 C   0  0  0  0  0  0  0  0  0  0  0  0
    3.0060    1.0800   -2.2320 O   0  0  0  0  0  0  0  0  0  0  0  0
    2.7160    0.0240   -1.4010 C   0  0  0  0  0  0  0  0  0  0  0  0
    2.1840    0.1580   -0.1790 C   0  0  0  0  0  0  0  0  0  0  0  0
    1.9680   -1.1390    0.5280 C   0  0  1  0  0  0  0  0  0  0  0  0
    1.8640   -1.0360    1.8940 O   0  0  0  0  0  0  0  0  0  0  0  0
    0.8680   -1.9320   -0.1190 C   0  0  0  0  0  0  0  0  0  0  0  0
   -0.0100   -2.5290    0.9440 C   0  0  0  0  0  0  0  0  0  0  0  0
   -1.4760   -2.4700    0.5610 C   0  0  0  0  0  0  0  0  0  0  0  0
   -1.7180   -1.5130   -0.4010 O   0  0  0  0  0  0  0  0  0  0  0  0
  1  2  1  0
  3  2  1  6
  3  4  1  0
  3 20  1  0
  4  5  1  0
  5  6  1  0
  6  7  2  0
  6  8  1  0
  8  9  1  0
  9 10  2  0
  9 14  1  0
 10 11  1  0
 11 12  1  0
 12 13  1  0
 13 14  2  0
 14 15  1  0
 15 16  1  1
 15 17  1  0
 17 18  1  0
 18 19  1  0
 19 20  1  0
M  END
