
     RDKit          3D

 20 21  0  0  0  0  0  0  0  0999 V2000
    5.0610    0.3230    2.2200 C   0  0  0  0  0  0  0  0  0  0  0  0
    4.7520    0.4430    0.7770 C   0  0  0  0  0  0  0  0  0  0  0  0
    5.6680    0.9000    0.0220 O   0  0  0  0  0  0  0  0  0  0  0  0
    3.5040    0.0760    0.2130 N   0  0  0  0  0  0  0  0  0  0  0  0
    3.3290    0.2410   -1.2060 C   0  0  0  0  0  0  0  0  0  0  0  0
    1.9760   -0.1770   -1.6880 C   0  0  2  0  0  0  0  0  0  0  0  0
    0.8520    0.5290   -0.9560 C   0  0  0  0  0  0  0  0  0  0  0  0
   -0.3240   -0.2870   -1.4970 C   0  0  2  0  0  0  0  0  0  0  0  0
   -0.7660    0.3120   -2.7870 C   0  0  0  0  0  0  0  0  0  0  0  0
   -1.3750   -0.4110   -0.5140 N   0  0  0  0  0  0  0  0  0  0  0  0
   -2.0560    0.6900    0.0480 C   0  0  0  0  0  0  0  0  0  0  0  0
   -1.6650    1.8300   -0.3870 O   0  0  0  0  0  0  0  0  0  0  0  0
   -3.1190    0.6080    1.0400 C   0  0  0  0  0  0  0  0  0  0  0  0
   -3.7560    1.6500    1.5650 C   0  0  0  0  0  0  0  0  0  0  0  0
   -4.7650    1.1730    2.5320 C   0  0  0  0  0  0  0  0  0  0  0  0
   -4.6300   -0.2900    2.4990 C   0  0  0  0  0  0  0  0  0  0  0  0
   -3.6850   -0.5870    1.6410 C   0  0  0  0  0  0  0  0  0  0  0  0
   -3.2590   -1.8940    1.3290 O   0  0  0  0  0  0  0  0  0  0  0  0
    0.3410   -1.6130   -1.7640 C   0  0  0  0  0  0  0  0  0  0  0  0
    1.6720   -1.4940   -1.4480 O   0  0  0  0  0  0  0  0  0  0  0  0
  1  2  1  0
  2  3  2  0
  2  4  1  0
  4  5  1  0
  6  5  1  1
  6  7  1  0
  6 20  1  0
  7  8  1  0
  8  9  1  6
  8 10  1  0
  8 19  1  0
 10 11  1  0
 11 12  2  0
 11 13  1  0
 13 14  2  0
 13 17  1  0
 14 15  1  0
 15 16  1  0
 16 17  2  0
 17 18  1  0
 19 20  1  0
M  END
