
     RDKit          3D

 19 19  0  0  0  0  0  0  0  0999 V2000
    5.6880   -1.9610   -1.6140 C   0  0  0  0  0  0  0  0  0  0  0  0
    5.3180   -0.5610   -1.1450 C   0  0  0  0  0  0  0  0  0  0  0  0
    5.3720   -0.4670    0.2210 O   0  0  0  0  0  0  0  0  0  0  0  0
    5.0660    0.7580    0.7460 C   0  0  0  0  0  0  0  0  0  0  0  0
    3.6670    1.2150    0.4020 C   0  0  0  0  0  0  0  0  0  0  0  0
    2.7090    0.1930    0.9530 C   0  0  0  0  0  0  0  0  0  0  0  0
    1.2560    0.5810    0.6460 C   0  0  0  0  0  0  0  0  0  0  0  0
    0.4120   -0.5210    1.2510 C   0  0  0  0  0  0  0  0  0  0  0  0
   -1.0090   -0.3120    1.0530 N   0  0  0  0  0  0  0  0  0  0  0  0
   -1.6140   -0.2200   -0.2110 C   0  0  0  0  0  0  0  0  0  0  0  0
   -0.7960   -0.3370   -1.1930 O   0  0  0  0  0  0  0  0  0  0  0  0
   -3.0080   -0.0150   -0.5150 C   0  0  0  0  0  0  0  0  0  0  0  0
   -3.4730    0.0570   -1.8010 N   0  0  0  0  0  0  0  0  0  0  0  0
   -4.8030    0.2510   -1.7660 C   0  0  0  0  0  0  0  0  0  0  0  0
   -5.6150    0.3740   -2.8860 O   0  0  0  0  0  0  0  0  0  0  0  0
   -5.2520    0.3130   -0.4860 C   0  0  0  0  0  0  0  0  0  0  0  0
   -6.6210    0.5120    0.0520 C   0  0  0  0  0  0  0  0  0  0  0  0
   -4.0950    0.1420    0.3030 C   0  0  0  0  0  0  0  0  0  0  0  0
   -4.0730    0.1340    1.7860 C   0  0  0  0  0  0  0  0  0  0  0  0
  1  2  1  0
  2  3  1  0
  3  4  1  0
  4  5  1  0
  5  6  1  0
  6  7  1  0
  7  8  1  0
  8  9  1  0
  9 10  1  0
 10 11  2  0
 10 12  1  0
 12 13  1  0
 12 18  2  0
 13 14  1  0
 14 15  1  0
 14 16  2  0
 16 17  1  0
 16 18  1  0
 18 19  1  0
M  END
