
     RDKit          3D

 19 21  0  0  0  0  0  0  0  0999 V2000
   -3.9250    0.9100   -1.3340 N   0  0  0  0  0  0  0  0  0  0  0  0
   -4.1720    0.5590    0.0130 C   0  0  0  0  0  0  0  0  0  0  0  0
   -5.2880    0.8440    0.5200 O   0  0  0  0  0  0  0  0  0  0  0  0
   -3.1030   -0.1390    0.7940 C   0  0  1  0  0  0  0  0  0  0  0  0
   -3.5660   -0.3770    2.1620 N   0  0  0  0  0  0  0  0  0  0  0  0
   -2.8100   -1.4340    0.0920 C   0  0  0  0  0  0  0  0  0  0  0  0
   -1.6590   -1.0790   -0.8030 C   0  0  0  0  0  0  0  0  0  0  0  0
   -0.7690   -0.3160    0.1900 C   0  0  1  0  0  0  0  0  0  0  0  0
    0.2710    0.3360   -0.4300 O   0  0  0  0  0  0  0  0  0  0  0  0
    1.6080    0.0930   -0.1970 C   0  0  0  0  0  0  0  0  0  0  0  0
    2.1110   -0.8310    0.6820 C   0  0  0  0  0  0  0  0  0  0  0  0
    3.4880   -1.0020    0.8460 C   0  0  0  0  0  0  0  0  0  0  0  0
    4.3860   -0.2450    0.1260 C   0  0  0  0  0  0  0  0  0  0  0  0
    3.8470    0.6800   -0.7540 C   0  0  0  0  0  0  0  0  0  0  0  0
    2.5130    0.8670   -0.9340 C   0  0  0  0  0  0  0  0  0  0  0  0
    4.9280    1.3270   -1.3700 O   0  0  0  0  0  0  0  0  0  0  0  0
    6.0990    1.0670   -0.6170 C   0  0  0  0  0  0  0  0  0  0  0  0
    5.7580   -0.1420    0.0290 O   0  0  0  0  0  0  0  0  0  0  0  0
   -1.8010    0.6200    0.7930 C   0  0  0  0  0  0  0  0  0  0  0  0
  1  2  1  0
  2  3  2  0
  2  4  1  0
  4  5  1  1
  4  6  1  0
  4 19  1  0
  6  7  1  0
  7  8  1  0
  8  9  1  6
  8 19  1  0
  9 10  1  0
 10 11  2  0
 10 15  1  0
 11 12  1  0
 12 13  2  0
 13 14  1  0
 13 18  1  0
 14 15  2  0
 14 16  1  0
 16 17  1  0
 17 18  1  0
M  END
