
     RDKit          3D

 23 24  0  0  0  0  0  0  0  0999 V2000
    7.7240    0.7450    0.1050 C   0  0  0  0  0  0  0  0  0  0  0  0
    6.3110    0.7950    0.0150 O   0  0  0  0  0  0  0  0  0  0  0  0
    5.5300   -0.2780   -0.3790 C   0  0  0  0  0  0  0  0  0  0  0  0
    6.1250   -1.3420   -0.6650 O   0  0  0  0  0  0  0  0  0  0  0  0
    4.0600   -0.1710   -0.4560 C   0  0  0  0  0  0  0  0  0  0  0  0
    3.4090    1.0000   -0.1410 C   0  0  0  0  0  0  0  0  0  0  0  0
    2.0690    1.0890   -0.2140 N   0  0  0  0  0  0  0  0  0  0  0  0
    1.3420    0.0360   -0.5970 C   0  0  0  0  0  0  0  0  0  0  0  0
   -0.4250    0.1770   -0.6870 S   0  0  0  0  0  0  0  0  0  0  0  0
   -1.1260   -0.2690    0.9030 C   0  0  0  0  0  0  0  0  0  0  0  0
   -2.6240   -0.1680    0.8870 C   0  0  0  0  0  0  0  0  0  0  0  0
   -3.2920   -0.4430    1.9160 O   0  0  0  0  0  0  0  0  0  0  0  0
   -3.3260    0.2350   -0.2700 N   0  0  0  0  0  0  0  0  0  0  0  0
   -4.7750    0.3290   -0.2710 C   0  0  0  0  0  0  0  0  0  0  0  0
   -5.2880    1.4990   -0.5260 C   0  0  0  0  0  0  0  0  0  0  0  0
   -6.7010    1.8870   -0.5930 C   0  0  0  0  0  0  0  0  0  0  0  0
   -7.7750    0.5030   -0.2690 S   0  0  0  0  0  0  0  0  0  0  0  0
   -6.7740   -0.9340    0.0400 C   0  0  0  0  0  0  0  0  0  0  0  0
   -5.4750   -0.8910    0.0120 C   0  0  0  0  0  0  0  0  0  0  0  0
   -4.6100   -2.4100    0.3400 Cl  0  0  0  0  0  0  0  0  0  0  0  0
    1.9630   -1.1060   -0.9060 N   0  0  0  0  0  0  0  0  0  0  0  0
    3.3000   -1.2480   -0.8490 C   0  0  0  0  0  0  0  0  0  0  0  0
    3.8860   -2.4820   -1.1890 N   0  0  0  0  0  0  0  0  0  0  0  0
  1  2  1  0
  2  3  1  0
  3  4  2  0
  3  5  1  0
  5  6  2  0
  5 22  1  0
  6  7  1  0
  7  8  2  0
  8  9  1  0
  8 21  1  0
  9 10  1  0
 10 11  1  0
 11 12  2  0
 11 13  1  0
 13 14  1  0
 14 15  2  0
 14 19  1  0
 15 16  1  0
 16 17  1  0
 17 18  1  0
 18 19  2  0
 19 20  1  0
 21 22  2  0
 22 23  1  0
M  END
