
     RDKit          3D

 23 24  0  0  0  0  0  0  0  0999 V2000
    7.0870    0.2380    1.0300 C   0  0  0  0  0  0  0  0  0  0  0  0
    5.7810   -0.2640    0.6790 C   0  0  0  0  0  0  0  0  0  0  0  0
    5.0930   -1.3950    0.9250 C   0  0  0  0  0  0  0  0  0  0  0  0
    3.8980   -1.5620    0.4620 N   0  0  0  0  0  0  0  0  0  0  0  0
    3.3080   -0.6640   -0.2530 C   0  0  0  0  0  0  0  0  0  0  0  0
    2.0160   -0.5760   -0.8760 N   0  0  0  0  0  0  0  0  0  0  0  0
    1.6270    0.5450   -1.6360 C   0  0  0  0  0  0  0  0  0  0  0  0
    2.4270    1.4980   -1.7860 O   0  0  0  0  0  0  0  0  0  0  0  0
    0.2860    0.5870   -2.2450 C   0  0  0  0  0  0  0  0  0  0  0  0
   -0.7180    1.9510   -1.6420 S   0  0  0  0  0  0  0  0  0  0  0  0
   -1.1510    1.8250    0.0900 C   0  0  0  0  0  0  0  0  0  0  0  0
   -2.0530    0.6600    0.2820 C   0  0  0  0  0  0  0  0  0  0  0  0
   -1.5300   -0.5840    0.5580 C   0  0  0  0  0  0  0  0  0  0  0  0
   -2.4070   -1.6320    0.7270 C   0  0  0  0  0  0  0  0  0  0  0  0
   -1.9450   -2.7760    0.9810 O   0  0  0  0  0  0  0  0  0  0  0  0
   -3.7200   -1.3980    0.6170 N   0  0  0  0  0  0  0  0  0  0  0  0
   -4.2430   -0.1840    0.3460 C   0  0  0  0  0  0  0  0  0  0  0  0
   -5.6800    0.0330    0.2360 C   0  0  0  0  0  0  0  0  0  0  0  0
   -6.5760   -1.0060    0.4030 O   0  0  0  0  0  0  0  0  0  0  0  0
   -6.1230    1.2480   -0.0300 C   0  0  0  0  0  0  0  0  0  0  0  0
   -5.0600    2.6160   -0.2570 Cl  0  0  0  0  0  0  0  0  0  0  0  0
   -3.3840    0.8210    0.1850 N   0  0  0  0  0  0  0  0  0  0  0  0
    4.5350    0.6210   -0.3280 S   0  0  0  0  0  0  0  0  0  0  0  0
  1  2  1  0
  2  3  2  0
  2 23  1  0
  3  4  1  0
  4  5  2  0
  5  6  1  0
  5 23  1  0
  6  7  1  0
  7  8  2  0
  7  9  1  0
  9 10  1  0
 10 11  1  0
 11 12  1  0
 12 13  2  0
 12 22  1  0
 13 14  1  0
 14 15  2  0
 14 16  1  0
 16 17  1  0
 17 18  1  0
 17 22  2  0
 18 19  1  0
 18 20  2  3
 20 21  1  0
M  END
