
     RDKit          3D

 23 24  0  0  0  0  0  0  0  0999 V2000
   -4.6230    2.5980   -0.8040 C   0  0  0  0  0  0  0  0  0  0  0  0
   -4.5540    1.1320   -0.5380 C   0  0  0  0  0  0  0  0  0  0  0  0
   -5.3420    0.0830   -0.9220 C   0  0  0  0  0  0  0  0  0  0  0  0
   -4.9920   -1.1480   -0.5000 C   0  0  0  0  0  0  0  0  0  0  0  0
   -3.9150   -1.3100    0.2620 C   0  0  0  0  0  0  0  0  0  0  0  0
   -3.1880   -2.7400    0.9720 S   0  0  2  0  0  0  0  0  0  0  0  0
   -4.0080   -3.9300    0.6570 O   0  0  0  0  0  0  0  0  0  0  0  0
   -3.2470   -2.5390    2.4750 O   0  0  0  0  0  0  0  0  0  0  0  0
   -1.5940   -2.9610    0.4210 N   0  0  0  0  0  0  0  0  0  0  0  0
   -0.5450   -2.0310    0.6390 C   0  0  0  0  0  0  0  0  0  0  0  0
   -0.3190   -1.4280    1.8550 C   0  0  0  0  0  0  0  0  0  0  0  0
    0.7240   -0.5330    1.9830 C   0  0  0  0  0  0  0  0  0  0  0  0
    1.5430   -0.2290    0.9190 C   0  0  0  0  0  0  0  0  0  0  0  0
    2.6220    0.6900    1.0320 N   0  0  0  0  0  0  0  0  0  0  0  0
    3.4560    0.9900   -0.0810 C   0  0  0  0  0  0  0  0  0  0  0  0
    3.1830    0.3970   -1.1600 O   0  0  0  0  0  0  0  0  0  0  0  0
    4.5310    1.8880   -0.0240 N   0  0  0  0  0  0  0  0  0  0  0  0
    5.3870    2.2010   -1.1430 C   0  0  0  0  0  0  0  0  0  0  0  0
    6.0620    0.9290   -1.6020 C   0  0  0  0  0  0  0  0  0  0  0  0
    7.0180    0.2770   -0.2530 Cl  0  0  0  0  0  0  0  0  0  0  0  0
    1.2960   -0.8330   -0.2540 N   0  0  0  0  0  0  0  0  0  0  0  0
    0.2900   -1.7060   -0.4050 C   0  0  0  0  0  0  0  0  0  0  0  0
   -3.2900    0.2900    0.4530 S   0  0  0  0  0  0  0  0  0  0  0  0
  1  2  1  0
  2  3  2  0
  2 23  1  0
  3  4  1  0
  4  5  2  0
  5  6  1  0
  5 23  1  0
  6  7  2  0
  6  8  2  0
  6  9  1  6
  9 10  1  0
 10 11  2  0
 10 22  1  0
 11 12  1  0
 12 13  2  0
 13 14  1  0
 13 21  1  0
 14 15  1  0
 15 16  2  0
 15 17  1  0
 17 18  1  0
 18 19  1  0
 19 20  1  0
 21 22  2  0
M  END
