
     RDKit          3D

 23 24  0  0  0  0  0  0  0  0999 V2000
   -2.1980   -3.5370   -0.5070 C   0  0  0  0  0  0  0  0  0  0  0  0
   -1.3010   -2.4220   -0.3260 C   0  0  0  0  0  0  0  0  0  0  0  0
   -0.0430   -2.7090   -0.3810 O   0  0  0  0  0  0  0  0  0  0  0  0
   -1.6950   -0.9940   -0.0890 C   0  0  0  0  0  0  0  0  0  0  0  0
   -0.6500   -0.0730    0.0040 C   0  0  0  0  0  0  0  0  0  0  0  0
    0.7670   -0.1740   -0.0530 N   0  0  0  0  0  0  0  0  0  0  0  0
    1.5610    1.0300    0.0880 C   0  0  0  0  0  0  0  0  0  0  0  0
    0.9580    2.1210    0.2560 O   0  0  0  0  0  0  0  0  0  0  0  0
    3.0080    0.9810    0.0370 C   0  0  0  0  0  0  0  0  0  0  0  0
    3.7750   -0.1270   -0.1460 C   0  0  0  0  0  0  0  0  0  0  0  0
    5.1710   -0.0500   -0.1750 C   0  0  0  0  0  0  0  0  0  0  0  0
    5.7880    1.1620   -0.0160 C   0  0  0  0  0  0  0  0  0  0  0  0
    7.2010    1.3450   -0.0290 N   0  0  0  0  0  0  0  0  0  0  0  0
    5.0000    2.2420    0.1640 N   0  0  0  0  0  0  0  0  0  0  0  0
    3.6890    2.1550    0.1890 N   0  0  0  0  0  0  0  0  0  0  0  0
   -1.5370    1.4810    0.2440 S   0  0  0  0  0  0  0  0  0  0  0  0
   -3.1170    0.8540    0.2090 C   0  0  0  0  0  0  0  0  0  0  0  0
   -4.3040    1.6730    0.3590 C   0  0  0  0  0  0  0  0  0  0  0  0
   -3.8430    3.3900    0.5770 S   0  0  0  0  0  0  0  0  0  0  0  0
   -3.4690    3.6190    2.0420 O   0  0  0  0  0  0  0  0  0  0  0  0
   -2.9460   -0.5020    0.0200 C   0  0  0  0  0  0  0  0  0  0  0  0
   -4.2180   -1.3320    0.0360 C   0  0  0  0  0  0  0  0  0  0  0  0
   -4.5400   -1.9530    1.6800 Cl  0  0  0  0  0  0  0  0  0  0  0  0
  1  2  1  0
  2  3  2  0
  2  4  1  0
  4  5  2  0
  4 21  1  0
  5  6  1  0
  5 16  1  0
  6  7  1  0
  7  8  2  0
  7  9  1  0
  9 10  2  0
  9 15  1  0
 10 11  1  0
 11 12  2  0
 12 13  1  0
 12 14  1  0
 14 15  2  0
 16 17  1  0
 17 18  1  0
 17 21  2  0
 18 19  1  0
 19 20  2  0
 21 22  1  0
 22 23  1  0
M  END
