
     RDKit          3D

 23 24  0  0  0  0  0  0  0  0999 V2000
    1.9230   -1.1760   -3.0280 C   0  0  0  0  0  0  0  0  0  0  0  0
    1.8420   -1.0100   -1.7310 C   0  0  0  0  0  0  0  0  0  0  0  0
    2.4170    0.1960   -1.0800 C   0  0  0  0  0  0  0  0  0  0  0  0
    3.4740   -0.2120   -0.0490 C   0  0  0  0  0  0  0  0  0  0  0  0
    4.2110    1.1660    0.7610 S   0  0  2  0  0  0  0  0  0  0  0  0
    3.2540    2.3160    0.7370 O   0  0  0  0  0  0  0  0  0  0  0  0
    5.4970    1.5560    0.0630 O   0  0  0  0  0  0  0  0  0  0  0  0
    1.2140   -2.0010   -0.9470 N   0  0  0  0  0  0  0  0  0  0  0  0
    0.2420   -1.7710    0.0280 N   0  0  0  0  0  0  0  0  0  0  0  0
   -0.9690   -1.0320   -0.2390 C   0  0  0  0  0  0  0  0  0  0  0  0
   -1.0340   -0.6060   -1.4380 O   0  0  0  0  0  0  0  0  0  0  0  0
   -1.9810   -0.8140    0.7680 C   0  0  0  0  0  0  0  0  0  0  0  0
   -2.3910   -1.7550    1.7320 C   0  0  0  0  0  0  0  0  0  0  0  0
   -1.8220   -3.1270    1.7930 C   0  0  0  0  0  0  0  0  0  0  0  0
   -3.3270   -1.1850    2.4730 N   0  0  0  0  0  0  0  0  0  0  0  0
   -3.5660    0.0440    2.0830 N   0  0  0  0  0  0  0  0  0  0  0  0
   -2.7270    0.2870    1.0160 C   0  0  0  0  0  0  0  0  0  0  0  0
   -2.6520    1.6330    0.3670 C   0  0  0  0  0  0  0  0  0  0  0  0
   -1.7050    2.2260   -0.3470 C   0  0  0  0  0  0  0  0  0  0  0  0
   -1.9120    3.5100   -0.7650 C   0  0  0  0  0  0  0  0  0  0  0  0
   -3.0390    4.0690   -0.4290 C   0  0  0  0  0  0  0  0  0  0  0  0
   -3.6710    5.7600   -0.8000 Cl  0  0  0  0  0  0  0  0  0  0  0  0
   -3.8980    2.8540    0.4960 S   0  0  0  0  0  0  0  0  0  0  0  0
  1  2  2  0
  2  3  1  0
  2  8  1  0
  3  4  1  0
  5  4  1  6
  5  6  2  0
  5  7  2  0
  8  9  1  0
  9 10  1  0
 10 11  2  0
 10 12  1  0
 12 13  1  0
 12 17  2  0
 13 14  1  0
 13 15  2  0
 15 16  1  0
 16 17  1  0
 17 18  1  0
 18 19  2  0
 18 23  1  0
 19 20  1  0
 20 21  2  0
 21 22  1  0
 21 23  1  0
M  END
