
     RDKit          3D

  7  6  0  0  0  0  0  0  0  0999 V2000
   -3.2840   -0.0360    0.3240 O   0  0  0  0  0  0  0  0  0  0  0  0
   -1.9140   -0.1200    0.6220 C   0  0  0  0  0  0  0  0  0  0  0  0
   -1.1890   -0.3680   -0.6780 C   0  0  0  0  0  0  0  0  0  0  0  0
    0.2970   -0.4800   -0.5000 C   0  0  0  0  0  0  0  0  0  0  0  0
    0.8150    0.6860    0.0410 O   0  0  0  0  0  0  0  0  0  0  0  0
    2.1790    0.6070    0.2150 C   0  0  0  0  0  0  0  0  0  0  0  0
    2.8620    0.3860   -0.9830 O   0  0  0  0  0  0  0  0  0  0  0  0
  1  2  1  0
  2  3  1  0
  3  4  1  0
  4  5  1  0
  5  6  1  0
  6  7  1  0
M  END
