
     RDKit          3D

 11 11  0  0  0  0  0  0  0  0999 V2000
    2.5360    1.8980   -0.3970 O   0  0  0  0  0  0  0  0  0  0  0  0
    2.3100    0.6950   -0.1000 C   0  0  0  0  0  0  0  0  0  0  0  0
    3.4100   -0.1680   -0.1200 O   0  0  0  0  0  0  0  0  0  0  0  0
    0.9850    0.1770    0.2550 C   0  0  2  0  0  0  0  0  0  0  0  0
    0.5290   -0.8330   -0.7620 C   0  0  0  0  0  0  0  0  0  0  0  0
   -0.9060   -1.1990   -0.6500 C   0  0  0  0  0  0  0  0  0  0  0  0
   -1.7800   -0.1870   -0.0100 C   0  0  2  0  0  0  0  0  0  0  0  0
   -2.4660    0.5280   -1.0150 O   0  0  0  0  0  0  0  0  0  0  0  0
   -1.0740    0.8200    0.8380 C   0  0  1  0  0  0  0  0  0  0  0  0
   -0.7060    0.3450    2.0810 O   0  0  0  0  0  0  0  0  0  0  0  0
    0.0830    1.2510    0.1930 O   0  0  0  0  0  0  0  0  0  0  0  0
  1  2  2  0
  2  3  1  0
  4  2  1  6
  4  5  1  0
  4 11  1  0
  5  6  1  0
  6  7  1  0
  7  8  1  6
  7  9  1  0
  9 10  1  1
  9 11  1  0
M  END
