
     RDKit          3D

  7  6  0  0  0  0  0  0  0  0999 V2000
    2.7660    0.8290    0.2700 C   0  0  0  0  0  0  0  0  0  0  0  0
    1.4080    0.5110    0.4450 O   0  0  0  0  0  0  0  0  0  0  0  0
    1.0350   -0.5820   -0.3130 C   0  0  0  0  0  0  0  0  0  0  0  0
   -0.4370   -0.8290   -0.0460 C   0  0  0  0  0  0  0  0  0  0  0  0
   -1.2140    0.2830   -0.4030 O   0  0  0  0  0  0  0  0  0  0  0  0
   -2.5350   -0.0400   -0.1230 C   0  0  0  0  0  0  0  0  0  0  0  0
   -3.3390    1.0340   -0.4620 O   0  0  0  0  0  0  0  0  0  0  0  0
  1  2  1  0
  2  3  1  0
  3  4  1  0
  4  5  1  0
  5  6  1  0
  6  7  1  0
M  END
