
     RDKit          3D

  8  7  0  0  0  0  0  0  0  0999 V2000
   -2.9250    0.2700   -0.4150 C   0  0  0  0  0  0  0  0  0  0  0  0
   -1.7430    0.6700    0.2480 O   0  0  0  0  0  0  0  0  0  0  0  0
   -0.6160   -0.1520    0.1800 C   0  0  0  0  0  0  0  0  0  0  0  0
   -0.7370   -1.2030   -0.4750 O   0  0  0  0  0  0  0  0  0  0  0  0
    0.5960    0.3110    0.8900 C   0  0  0  0  0  0  0  0  0  0  0  0
    1.6620   -0.5170    0.7450 O   0  0  0  0  0  0  0  0  0  0  0  0
    2.1670   -0.7110   -0.5050 C   0  0  0  0  0  0  0  0  0  0  0  0
    2.6090    0.4850   -1.0910 O   0  0  0  0  0  0  0  0  0  0  0  0
  1  2  1  0
  2  3  1  0
  3  4  2  0
  3  5  1  0
  5  6  1  0
  6  7  1  0
  7  8  1  0
M  END
