
     RDKit          3D

 11 11  0  0  0  0  0  0  0  0999 V2000
    3.4770   -0.4840    1.3790 O   0  0  0  0  0  0  0  0  0  0  0  0
    2.4440    0.1090    0.6900 C   0  0  0  0  0  0  0  0  0  0  0  0
    1.2960   -0.6950    0.7520 O   0  0  0  0  0  0  0  0  0  0  0  0
    0.2390   -0.1030    0.0560 C   0  0  2  0  0  0  0  0  0  0  0  0
    0.6920    0.0240   -1.2720 O   0  0  0  0  0  0  0  0  0  0  0  0
   -0.1610    1.2220    0.6210 C   0  0  0  0  0  0  0  0  0  0  0  0
   -1.6180    1.4670    0.7210 C   0  0  0  0  0  0  0  0  0  0  0  0
   -2.4590    0.7230   -0.0040 O   0  0  0  0  0  0  0  0  0  0  0  0
   -2.1970   -0.5290   -0.3540 C   0  0  0  0  0  0  0  0  0  0  0  0
   -0.8780   -1.1090    0.0340 C   0  0  2  0  0  0  0  0  0  0  0  0
   -0.9980   -1.7030    1.2900 O   0  0  0  0  0  0  0  0  0  0  0  0
  1  2  1  0
  2  3  1  0
  3  4  1  0
  4  5  1  6
  4  6  1  0
  4 10  1  0
  6  7  1  0
  7  8  1  0
  8  9  1  0
  9 10  1  0
 10 11  1  1
M  END
