
     RDKit          3D

  7  6  0  0  0  0  0  0  0  0999 V2000
   -2.9130   -0.1890   -0.4820 C   0  0  0  0  0  0  0  0  0  0  0  0
   -1.5030    0.3580   -0.3270 C   0  0  0  0  0  0  0  0  0  0  0  0
   -0.7540   -0.6370    0.2950 O   0  0  0  0  0  0  0  0  0  0  0  0
    0.5690   -0.2410    0.4900 C   0  0  0  0  0  0  0  0  0  0  0  0
    1.1890    0.0540   -0.7280 O   0  0  0  0  0  0  0  0  0  0  0  0
    2.4910    0.4390   -0.4800 C   0  0  0  0  0  0  0  0  0  0  0  0
    3.2240   -0.5530    0.1570 O   0  0  0  0  0  0  0  0  0  0  0  0
  1  2  1  0
  2  3  1  0
  3  4  1  0
  4  5  1  0
  5  6  1  0
  6  7  1  0
M  END
