
     RDKit          3D

 31 32  0  0  0  0  0  0  0  0999 V2000
    3.0940   -0.9630   -3.1490 O   0  0  0  0  0  0  0  0  0  0  0  0
    3.2630   -0.1590   -2.1930 C   0  0  0  0  0  0  0  0  0  0  0  0
    2.1940    0.8550   -2.0210 C   0  0  0  0  0  0  0  0  0  0  0  0
    2.2220    1.3920   -0.7190 O   0  0  0  0  0  0  0  0  0  0  0  0
    1.1710    2.0610   -0.1170 C   0  0  0  0  0  0  0  0  0  0  0  0
    1.4350    3.0560    0.6040 O   0  0  0  0  0  0  0  0  0  0  0  0
   -0.2470    1.7000   -0.2530 C   0  0  0  0  0  0  0  0  0  0  0  0
   -1.2050    2.8110   -0.4470 C   0  0  2  0  0  0  0  0  0  0  0  0
   -0.5400    4.0040   -0.8460 O   0  0  0  0  0  0  0  0  0  0  0  0
   -2.1330    3.2600    1.0910 P   0  0  0  0  0  0  0  0  0  0  0  0
   -1.0410    3.1370    2.4250 O   0  0  0  0  0  0  0  0  0  0  0  0
   -2.7260    4.8790    0.8940 O   0  0  0  0  0  0  0  0  0  0  0  0
   -0.6630    0.4450   -0.1780 C   0  0  0  0  0  0  0  0  0  0  0  0
   -2.0980    0.1500   -0.3250 C   0  0  0  0  0  0  0  0  0  0  0  0
   -3.0850    0.9280   -0.5170 N   0  0  0  0  0  0  0  0  0  0  0  0
   -4.2950    0.3400   -0.6100 O   0  0  0  0  0  0  0  0  0  0  0  0
   -4.1350   -0.9890   -0.1620 C   0  0  1  0  0  0  0  0  0  0  0  0
   -4.5100   -1.1560    1.1580 O   0  0  0  0  0  0  0  0  0  0  0  0
   -4.8460   -1.9830   -1.0380 C   0  0  0  0  0  0  0  0  0  0  0  0
   -4.4980   -1.8110   -2.3690 O   0  0  0  0  0  0  0  0  0  0  0  0
   -2.7070   -1.1680   -0.2980 N   0  0  0  0  0  0  0  0  0  0  0  0
    0.2060   -0.6440    0.0670 N   0  0  0  0  0  0  0  0  0  0  0  0
    1.1940   -0.7490    1.1190 C   0  0  0  0  0  0  0  0  0  0  0  0
    2.4310   -1.4850    0.6500 C   0  0  2  0  0  0  0  0  0  0  0  0
    2.5270   -3.1120    1.4870 P   0  0  0  0  0  0  0  0  0  0  0  0
    3.5290   -3.1370    2.8680 O   0  0  0  0  0  0  0  0  0  0  0  0
    2.7860   -4.4220    0.4070 O   0  0  0  0  0  0  0  0  0  0  0  0
    3.5580   -0.6240    0.9450 N   0  0  0  0  0  0  0  0  0  0  0  0
    4.4870   -0.1510    0.0120 C   0  0  0  0  0  0  0  0  0  0  0  0
    5.5020    0.4630    0.4840 O   0  0  0  0  0  0  0  0  0  0  0  0
    4.4100   -0.2900   -1.4000 N   0  0  0  0  0  0  0  0  0  0  0  0
  1  2  2  0
  2  3  1  0
  2 31  1  0
  3  4  1  0
  4  5  1  0
  5  6  2  0
  5  7  1  0
  7  8  1  0
  7 13  2  0
  8  9  1  1
  8 10  1  0
 10 11  1  0
 10 12  1  0
 13 14  1  0
 13 22  1  0
 14 15  2  0
 14 21  1  0
 15 16  1  0
 16 17  1  0
 17 18  1  1
 17 19  1  0
 17 21  1  0
 19 20  1  0
 22 23  1  0
 23 24  1  0
 24 25  1  1
 24 28  1  0
 25 26  1  0
 25 27  1  0
 28 29  1  0
 29 30  2  0
 29 31  1  0
M  END
