
     RDKit          3D

 31 32  0  0  0  0  0  0  0  0999 V2000
   -5.7540    0.7600   -2.5870 O   0  0  0  0  0  0  0  0  0  0  0  0
   -4.7460    1.3120   -2.0820 C   0  0  0  0  0  0  0  0  0  0  0  0
   -3.4020    1.3140   -2.7520 C   0  0  0  0  0  0  0  0  0  0  0  0
   -2.5020    1.6020   -1.6180 C   0  0  2  0  0  0  0  0  0  0  0  0
   -1.2800    2.2320   -2.0990 O   0  0  0  0  0  0  0  0  0  0  0  0
   -0.3810    2.0120   -1.1180 N   0  0  0  0  0  0  0  0  0  0  0  0
   -0.7200    0.9600   -0.4260 C   0  0  0  0  0  0  0  0  0  0  0  0
   -0.1320    0.3470    0.6620 C   0  0  0  0  0  0  0  0  0  0  0  0
   -0.6960   -0.7260    1.2410 O   0  0  0  0  0  0  0  0  0  0  0  0
    0.9750    0.5700    1.3620 N   0  0  0  0  0  0  0  0  0  0  0  0
    2.0980    0.8370    2.0310 C   0  0  0  0  0  0  0  0  0  0  0  0
    2.2130   -0.0290    2.9970 O   0  0  0  0  0  0  0  0  0  0  0  0
    3.0850    1.7610    1.9260 N   0  0  0  0  0  0  0  0  0  0  0  0
    4.2110    1.7860    2.8300 C   0  0  0  0  0  0  0  0  0  0  0  0
    5.0450    0.5700    2.8910 C   0  0  0  0  0  0  0  0  0  0  0  0
    5.6480    0.2030    1.7610 O   0  0  0  0  0  0  0  0  0  0  0  0
    4.8960   -0.0670    0.6750 C   0  0  0  0  0  0  0  0  0  0  0  0
    6.0770   -0.6230   -0.6870 P   0  0  0  0  0  0  0  0  0  0  0  0
    7.4750    0.4200   -0.5400 O   0  0  0  0  0  0  0  0  0  0  0  0
    5.2600   -0.3060   -2.1890 O   0  0  0  0  0  0  0  0  0  0  0  0
   -1.9120    0.4390   -1.0410 N   0  0  0  0  0  0  0  0  0  0  0  0
   -2.3510   -0.9000   -1.1020 C   0  0  0  0  0  0  0  0  0  0  0  0
   -1.6540   -1.8590   -0.6340 O   0  0  0  0  0  0  0  0  0  0  0  0
   -3.5420   -1.1990   -1.6680 O   0  0  0  0  0  0  0  0  0  0  0  0
   -4.1160   -2.4410   -1.7880 C   0  0  0  0  0  0  0  0  0  0  0  0
   -4.5050   -3.0450   -0.4910 C   0  0  0  0  0  0  0  0  0  0  0  0
   -3.4530   -3.2210    0.3510 O   0  0  0  0  0  0  0  0  0  0  0  0
   -3.7880   -3.7560    1.5070 O   0  0  0  0  0  0  0  0  0  0  0  0
   -3.2770    2.4550   -0.7380 C   0  0  0  0  0  0  0  0  0  0  0  0
   -2.8410    3.3860   -0.0310 O   0  0  0  0  0  0  0  0  0  0  0  0
   -4.6450    2.0230   -0.8340 N   0  0  0  0  0  0  0  0  0  0  0  0
  1  2  2  0
  2  3  1  0
  2 31  1  0
  4  3  1  6
  4  5  1  0
  4 21  1  0
  4 29  1  0
  5  6  1  0
  6  7  2  0
  7  8  1  0
  7 21  1  0
  8  9  2  0
  8 10  1  0
 10 11  1  0
 11 12  2  0
 11 13  1  0
 13 14  1  0
 14 15  1  0
 15 16  1  0
 16 17  1  0
 17 18  1  0
 18 19  1  0
 18 20  1  0
 21 22  1  0
 22 23  2  0
 22 24  1  0
 24 25  1  0
 25 26  1  0
 26 27  1  0
 27 28  1  0
 29 30  2  0
 29 31  1  0
M  END
