
     RDKit          3D

 31 32  0  0  0  0  0  0  0  0999 V2000
   -6.8840    0.4090    0.6970 N   0  0  0  0  0  0  0  0  0  0  0  0
   -6.0520   -0.3890    0.1280 C   0  0  0  0  0  0  0  0  0  0  0  0
   -6.5390   -1.5960   -0.4840 N   0  0  0  0  0  0  0  0  0  0  0  0
   -5.6190   -2.5510   -1.0850 C   0  0  0  0  0  0  0  0  0  0  0  0
   -4.3280   -2.4320   -0.2660 C   0  0  0  0  0  0  0  0  0  0  0  0
   -3.7850   -1.0440   -0.5330 C   0  0  2  0  0  0  0  0  0  0  0  0
   -2.3960   -0.9660   -0.0610 C   0  0  0  0  0  0  0  0  0  0  0  0
   -1.8490   -1.9990    0.4810 N   0  0  0  0  0  0  0  0  0  0  0  0
   -0.5380   -2.0600    0.9710 C   0  0  0  0  0  0  0  0  0  0  0  0
   -0.0340   -3.1030    1.4990 O   0  0  0  0  0  0  0  0  0  0  0  0
    0.3220   -0.8740    0.8840 C   0  0  1  0  0  0  0  0  0  0  0  0
    1.5060   -1.2330    0.1970 O   0  0  0  0  0  0  0  0  0  0  0  0
    2.7570   -1.2630    0.7890 C   0  0  0  0  0  0  0  0  0  0  0  0
    2.8610   -0.9590    1.9980 O   0  0  0  0  0  0  0  0  0  0  0  0
    3.9160   -1.6580   -0.0500 C   0  0  0  0  0  0  0  0  0  0  0  0
    5.2030   -1.6380    0.7580 C   0  0  0  0  0  0  0  0  0  0  0  0
    5.4630    0.0670    1.3890 P   0  0  0  0  0  0  0  0  0  0  0  0
    6.8110    0.2110    2.4350 O   0  0  0  0  0  0  0  0  0  0  0  0
    7.5620   -0.8650    2.4730 O   0  0  0  0  0  0  0  0  0  0  0  0
    5.3870    1.2660    0.1730 O   0  0  0  0  0  0  0  0  0  0  0  0
    6.3640    1.1900   -0.7010 O   0  0  0  0  0  0  0  0  0  0  0  0
    6.8870    2.4000   -0.8880 O   0  0  0  0  0  0  0  0  0  0  0  0
   -0.3710    0.2670    0.2540 C   0  0  0  0  0  0  0  0  0  0  0  0
    0.2830    1.4780    0.0840 O   0  0  0  0  0  0  0  0  0  0  0  0
   -0.3140    2.5880   -0.5000 C   0  0  0  0  0  0  0  0  0  0  0  0
   -1.5100    2.5060   -0.9010 O   0  0  0  0  0  0  0  0  0  0  0  0
    0.3280    3.8000   -0.6750 O   0  0  0  0  0  0  0  0  0  0  0  0
   -0.3130    4.9210   -1.2780 C   0  0  0  0  0  0  0  0  0  0  0  0
    0.5890    5.9750   -1.3070 O   0  0  0  0  0  0  0  0  0  0  0  0
   -1.5950    0.2050   -0.1650 N   0  0  0  0  0  0  0  0  0  0  0  0
   -4.6620   -0.1050    0.0910 N   0  0  0  0  0  0  0  0  0  0  0  0
  1  2  2  0
  2  3  1  0
  2 31  1  0
  3  4  1  0
  4  5  1  0
  5  6  1  0
  6  7  1  1
  6 31  1  0
  7  8  2  0
  7 30  1  0
  8  9  1  0
  9 10  2  0
  9 11  1  0
 11 12  1  6
 11 23  1  0
 12 13  1  0
 13 14  2  0
 13 15  1  0
 15 16  1  0
 16 17  1  0
 17 18  1  0
 17 20  1  0
 18 19  1  0
 20 21  1  0
 21 22  1  0
 23 24  1  0
 23 30  2  0
 24 25  1  0
 25 26  2  0
 25 27  1  0
 27 28  1  0
 28 29  1  0
M  END
