
     RDKit          3D

 31 33  0  0  0  0  0  0  0  0999 V2000
   -6.3380   -3.8260   -0.0880 N   0  0  0  0  0  0  0  0  0  0  0  0
   -5.4420   -2.7600   -0.0550 C   0  0  0  0  0  0  0  0  0  0  0  0
   -4.6780   -2.4680   -1.1030 O   0  0  0  0  0  0  0  0  0  0  0  0
   -5.1600   -1.8630    0.9070 N   0  0  0  0  0  0  0  0  0  0  0  0
   -4.2100   -0.8380    1.0660 C   0  0  0  0  0  0  0  0  0  0  0  0
   -4.6100    0.0350    1.8810 N   0  0  0  0  0  0  0  0  0  0  0  0
   -3.7140    1.0120    2.1250 O   0  0  0  0  0  0  0  0  0  0  0  0
   -2.5570    0.7450    1.4590 C   0  0  0  0  0  0  0  0  0  0  0  0
   -1.3560    1.1250    1.3150 N   0  0  0  0  0  0  0  0  0  0  0  0
   -0.3570    0.5030    0.5290 C   0  0  0  0  0  0  0  0  0  0  0  0
    0.8920    0.8270    0.2390 O   0  0  0  0  0  0  0  0  0  0  0  0
    1.4300   -0.0620   -0.5420 C   0  0  0  0  0  0  0  0  0  0  0  0
    2.7920   -0.0530   -1.0870 C   0  0  0  0  0  0  0  0  0  0  0  0
    3.1960   -0.7810   -2.0250 O   0  0  0  0  0  0  0  0  0  0  0  0
    3.7300    0.8580   -0.4660 N   0  0  0  0  0  0  0  0  0  0  0  0
    5.1060    1.0250   -0.7300 C   0  0  0  0  0  0  0  0  0  0  0  0
    5.9800   -0.2370   -0.3810 C   0  0  0  0  0  0  0  0  0  0  0  0
    7.2500    0.2880   -0.6830 O   0  0  0  0  0  0  0  0  0  0  0  0
    8.3490    0.0950    0.5850 P   0  0  0  0  0  0  0  0  0  0  0  0
    8.6900    1.6910    1.3020 O   0  0  0  0  0  0  0  0  0  0  0  0
    9.5770   -0.9550    0.7350 O   0  0  0  0  0  0  0  0  0  0  0  0
    0.4640   -1.0510   -0.7880 C   0  0  0  0  0  0  0  0  0  0  0  0
   -0.6830   -0.6790   -0.0850 C   0  0  0  0  0  0  0  0  0  0  0  0
   -1.9470   -1.1780    0.1180 O   0  0  0  0  0  0  0  0  0  0  0  0
   -2.9470   -0.3790    0.5680 C   0  0  1  0  0  0  0  0  0  0  0  0
   -3.2420    0.4780   -0.7470 C   0  0  0  0  0  0  0  0  0  0  0  0
   -4.0500    1.6470   -0.5990 C   0  0  0  0  0  0  0  0  0  0  0  0
   -3.6440    2.7690   -1.1370 O   0  0  0  0  0  0  0  0  0  0  0  0
   -5.2620    1.6790    0.0840 O   0  0  0  0  0  0  0  0  0  0  0  0
   -5.9260    2.8640    0.1380 O   0  0  0  0  0  0  0  0  0  0  0  0
   -5.3380    3.5180    1.1480 O   0  0  0  0  0  0  0  0  0  0  0  0
  1  2  1  0
  2  3  2  0
  2  4  1  0
  4  5  1  0
  5  6  2  0
  5 25  1  0
  6  7  1  0
  7  8  1  0
  8  9  2  0
  8 25  1  0
  9 10  1  0
 10 11  1  0
 10 23  2  0
 11 12  1  0
 12 13  1  0
 12 22  2  0
 13 14  2  0
 13 15  1  0
 15 16  1  0
 16 17  1  0
 17 18  1  0
 18 19  1  0
 19 20  1  0
 19 21  1  0
 22 23  1  0
 23 24  1  0
 24 25  1  0
 25 26  1  6
 26 27  1  0
 27 28  2  0
 27 29  1  0
 29 30  1  0
 30 31  1  0
M  END
