
     RDKit          3D

 31 31  0  0  0  0  0  0  0  0999 V2000
    6.9030    0.3470    1.3530 N   0  0  0  0  0  0  0  0  0  0  0  0
    6.5120    0.5460    0.0470 C   0  0  0  0  0  0  0  0  0  0  0  0
    5.2230    0.5520   -0.3610 N   0  0  0  0  0  0  0  0  0  0  0  0
    4.0560    0.6580    0.6430 C   0  0  0  0  0  0  0  0  0  0  0  0
    4.3270    0.9020    1.7800 O   0  0  0  0  0  0  0  0  0  0  0  0
    2.9600    0.3980   -0.1610 N   0  0  0  0  0  0  0  0  0  0  0  0
    1.8400    1.2690    0.8790 C   0  0  0  0  0  0  0  0  0  0  0  0
    2.3170    1.7570    1.8500 O   0  0  0  0  0  0  0  0  0  0  0  0
    0.5700    1.2060    0.3490 N   0  0  0  0  0  0  0  0  0  0  0  0
    0.1480    0.7040   -0.9240 C   0  0  0  0  0  0  0  0  0  0  0  0
   -0.8600   -0.4340   -0.7100 C   0  0  0  0  0  0  0  0  0  0  0  0
   -0.7190   -1.5130   -1.1160 O   0  0  0  0  0  0  0  0  0  0  0  0
   -2.0290    0.0060    0.1330 C   0  0  2  0  0  0  0  0  0  0  0  0
   -1.9570   -0.9090    1.3500 C   0  0  0  0  0  0  0  0  0  0  0  0
   -2.8970   -0.6370    2.3050 O   0  0  0  0  0  0  0  0  0  0  0  0
   -3.3210   -0.1990   -0.6060 C   0  0  1  0  0  0  0  0  0  0  0  0
   -3.6830   -1.4730   -0.8820 O   0  0  0  0  0  0  0  0  0  0  0  0
   -4.5550    0.9860    0.0260 P   0  0  0  0  0  0  0  0  0  0  0  0
   -5.0910    2.1250   -1.0540 O   0  0  0  0  0  0  0  0  0  0  0  0
   -5.6620    0.2230    1.1420 O   0  0  0  0  0  0  0  0  0  0  0  0
   -6.0560   -0.8660    0.5520 O   0  0  0  0  0  0  0  0  0  0  0  0
   -7.2360   -1.4400    1.0000 C   0  0  0  0  0  0  0  0  0  0  0  0
   -7.9460   -1.4270   -0.3460 C   0  0  0  0  0  0  0  0  0  0  0  0
   -8.1720   -0.2340   -0.6740 O   0  0  0  0  0  0  0  0  0  0  0  0
   -1.8320    1.4080    0.4900 C   0  0  0  0  0  0  0  0  0  0  0  0
   -2.5630    2.2850    0.2960 O   0  0  0  0  0  0  0  0  0  0  0  0
   -0.5340    1.6950    1.2060 C   0  0  0  0  0  0  0  0  0  0  0  0
    7.5880    0.1890   -0.8720 N   0  0  0  0  0  0  0  0  0  0  0  0
    8.9730   -0.7240   -0.1110 P   0  0  0  0  0  0  0  0  0  0  0  0
    8.2280   -1.9630    0.9240 O   0  0  0  0  0  0  0  0  0  0  0  0
    9.8310   -1.6080   -1.3360 O   0  0  0  0  0  0  0  0  0  0  0  0
  1  2  2  0
  2  3  1  0
  2 28  1  0
  3  4  1  0
  4  5  2  0
  4  6  1  0
  6  7  1  0
  7  8  2  0
  7  9  1  0
  9 10  1  0
  9 27  1  0
 10 11  1  0
 11 12  2  0
 11 13  1  0
 13 14  1  1
 13 16  1  0
 13 25  1  0
 14 15  1  0
 16 17  1  1
 16 18  1  0
 18 19  1  0
 18 20  1  0
 20 21  1  0
 21 22  1  0
 22 23  1  0
 23 24  2  0
 25 26  2  0
 25 27  1  0
 28 29  1  0
 29 30  1  0
 29 31  1  0
M  END
