
     RDKit          3D

 31 33  0  0  0  0  0  0  0  0999 V2000
    4.1600   -0.0090    2.9790 O   0  0  0  0  0  0  0  0  0  0  0  0
    4.1520   -0.2820    1.6950 C   0  0  0  0  0  0  0  0  0  0  0  0
    5.3360   -0.8330    1.1790 O   0  0  0  0  0  0  0  0  0  0  0  0
    2.9710   -0.0450    0.8560 C   0  0  1  0  0  0  0  0  0  0  0  0
    3.2480   -0.1340   -0.5480 C   0  0  0  0  0  0  0  0  0  0  0  0
    2.3070   -0.7270   -1.3880 O   0  0  0  0  0  0  0  0  0  0  0  0
    1.6330   -1.7740   -0.8410 C   0  0  1  0  0  0  0  0  0  0  0  0
    2.0640   -2.1430    0.5350 C   0  0  0  0  0  0  0  0  0  0  0  0
    1.9610   -0.9740    1.4040 N   0  0  0  0  0  0  0  0  0  0  0  0
    0.1450   -1.5450   -0.8740 C   0  0  2  0  0  0  0  0  0  0  0  0
   -0.5370   -2.3260   -2.4370 P   0  0  0  0  0  0  0  0  0  0  0  0
   -0.7790   -1.0230   -3.6300 O   0  0  0  0  0  0  0  0  0  0  0  0
    0.4190   -3.5390   -3.0750 O   0  0  0  0  0  0  0  0  0  0  0  0
   -0.1160   -0.0920   -1.1040 N   0  0  0  0  0  0  0  0  0  0  0  0
   -1.3570    0.3580   -0.9400 N   0  0  0  0  0  0  0  0  0  0  0  0
   -2.1020    1.3890   -0.7990 C   0  0  0  0  0  0  0  0  0  0  0  0
   -3.4700    1.2070   -0.6370 O   0  0  0  0  0  0  0  0  0  0  0  0
   -4.1780    0.0960   -0.6190 C   0  0  0  0  0  0  0  0  0  0  0  0
   -4.1220   -0.9980    0.4100 C   0  0  0  0  0  0  0  0  0  0  0  0
   -4.4830   -0.3990    1.6260 O   0  0  0  0  0  0  0  0  0  0  0  0
   -5.5360   -1.2790    2.0530 O   0  0  0  0  0  0  0  0  0  0  0  0
   -6.1420   -0.3360    2.9270 O   0  0  0  0  0  0  0  0  0  0  0  0
   -1.6480    2.7160   -0.7660 N   0  0  0  0  0  0  0  0  0  0  0  0
   -1.0470    3.6120   -0.3770 C   0  0  0  0  0  0  0  0  0  0  0  0
   -1.1470    4.9110   -1.0080 O   0  0  0  0  0  0  0  0  0  0  0  0
   -0.2240    3.5700    0.7380 O   0  0  0  0  0  0  0  0  0  0  0  0
    0.8640    2.8950    1.1410 C   0  0  0  0  0  0  0  0  0  0  0  0
    1.8600    3.2080    2.1140 C   0  0  0  0  0  0  0  0  0  0  0  0
    2.7620    2.2290    2.1440 O   0  0  0  0  0  0  0  0  0  0  0  0
    2.4030    1.3080    1.2690 C   0  0  0  0  0  0  0  0  0  0  0  0
    1.2930    1.7250    0.6830 N   0  0  0  0  0  0  0  0  0  0  0  0
  1  2  2  0
  2  3  1  0
  4  2  1  1
  4  5  1  0
  4  9  1  0
  4 30  1  0
  5  6  1  0
  6  7  1  0
  7  8  1  1
  7 10  1  0
  8  9  1  0
 10 11  1  6
 10 14  1  0
 11 12  1  0
 11 13  1  0
 14 15  1  0
 15 16  2  0
 16 17  1  0
 16 23  1  0
 17 18  1  0
 18 19  1  0
 19 20  1  0
 20 21  1  0
 21 22  1  0
 23 24  2  0
 24 25  1  0
 24 26  1  0
 26 27  1  0
 27 28  2  0
 27 31  1  0
 28 29  1  0
 29 30  1  0
 30 31  2  0
M  END
