
     RDKit          3D

 31 32  0  0  0  0  0  0  0  0999 V2000
    0.9350   -0.3790   -0.9970 O   0  0  0  0  0  0  0  0  0  0  0  0
    1.1400   -0.7110    0.1940 C   0  0  0  0  0  0  0  0  0  0  0  0
    0.0060   -1.0410    1.0860 C   0  0  0  0  0  0  0  0  0  0  0  0
   -1.1890   -0.9240    0.3420 O   0  0  0  0  0  0  0  0  0  0  0  0
   -1.5160   -1.6530   -0.7730 C   0  0  0  0  0  0  0  0  0  0  0  0
   -0.5820   -2.5000   -1.0910 O   0  0  0  0  0  0  0  0  0  0  0  0
   -2.6690   -1.5820   -1.5510 N   0  0  0  0  0  0  0  0  0  0  0  0
   -2.7860   -2.4550   -2.7380 C   0  0  0  0  0  0  0  0  0  0  0  0
   -3.4090   -1.4660   -3.7530 C   0  0  0  0  0  0  0  0  0  0  0  0
   -3.0310   -0.1650   -3.5090 O   0  0  0  0  0  0  0  0  0  0  0  0
   -3.5950    0.4170   -2.3770 C   0  0  0  0  0  0  0  0  0  0  0  0
   -3.7860   -0.7310   -1.3630 C   0  0  2  0  0  0  0  0  0  0  0  0
   -4.1130   -0.2830   -0.0240 C   0  0  0  0  0  0  0  0  0  0  0  0
   -3.5890   -0.7200    1.0160 O   0  0  0  0  0  0  0  0  0  0  0  0
   -5.1020    0.7310    0.1380 N   0  0  0  0  0  0  0  0  0  0  0  0
   -5.4850    1.2320    1.4110 C   0  0  0  0  0  0  0  0  0  0  0  0
   -4.9580    0.7930    2.4480 O   0  0  0  0  0  0  0  0  0  0  0  0
   -6.4560    2.2280    1.5590 O   0  0  0  0  0  0  0  0  0  0  0  0
   -6.8110    2.6960    2.7620 O   0  0  0  0  0  0  0  0  0  0  0  0
   -8.1040    2.9370    2.8410 O   0  0  0  0  0  0  0  0  0  0  0  0
    2.4640   -0.7530    0.6210 O   0  0  0  0  0  0  0  0  0  0  0  0
    3.5070   -0.4230   -0.2890 C   0  0  0  0  0  0  0  0  0  0  0  0
    4.8150   -0.5290    0.3570 C   0  0  0  0  0  0  0  0  0  0  0  0
    5.5790   -1.6460    0.3940 N   0  0  0  0  0  0  0  0  0  0  0  0
    6.6920   -1.4170    1.0460 N   0  0  0  0  0  0  0  0  0  0  0  0
    6.6990   -0.1550    1.4570 C   0  0  0  0  0  0  0  0  0  0  0  0
    7.6900    0.5450    2.1980 N   0  0  0  0  0  0  0  0  0  0  0  0
    7.4980    2.2520    2.6490 P   0  0  0  0  0  0  0  0  0  0  0  0
    6.7150    3.1490    1.3780 O   0  0  0  0  0  0  0  0  0  0  0  0
    9.0260    3.0120    2.9560 O   0  0  0  0  0  0  0  0  0  0  0  0
    5.5460    0.3930    1.0340 N   0  0  0  0  0  0  0  0  0  0  0  0
  1  2  2  0
  2  3  1  0
  2 21  1  0
  3  4  1  0
  4  5  1  0
  5  6  2  0
  5  7  1  0
  7  8  1  0
  7 12  1  0
  8  9  1  0
  9 10  1  0
 10 11  1  0
 11 12  1  0
 12 13  1  1
 13 14  2  0
 13 15  1  0
 15 16  1  0
 16 17  2  0
 16 18  1  0
 18 19  1  0
 19 20  1  0
 21 22  1  0
 22 23  1  0
 23 24  2  0
 23 31  1  0
 24 25  1  0
 25 26  2  0
 26 27  1  0
 26 31  1  0
 27 28  1  0
 28 29  1  0
 28 30  1  0
M  END
