
     RDKit          3D

 36 39  0  0  0  0  0  0  0  0999 V2000
    8.9220   -2.1060   -3.8380 C   0  0  0  0  0  0  0  0  0  0  0  0
    8.4890   -0.7140   -3.3860 C   0  0  0  0  0  0  0  0  0  0  0  0
    7.0560   -0.8750   -3.0400 N   0  0  0  0  0  0  0  0  0  0  0  0
    6.9650   -1.7590   -1.9250 C   0  0  0  0  0  0  0  0  0  0  0  0
    5.5950   -2.1630   -1.4880 C   0  0  2  0  0  0  0  0  0  0  0  0
    4.8970   -2.7620   -2.5370 O   0  0  0  0  0  0  0  0  0  0  0  0
    4.8400   -1.1220   -0.8290 C   0  0  0  0  0  0  0  0  0  0  0  0
    5.3250    0.0570   -0.2950 C   0  0  0  0  0  0  0  0  0  0  0  0
    4.2630    0.7420    0.2170 C   0  0  0  0  0  0  0  0  0  0  0  0
    3.1400   -0.0290   -0.0010 C   0  0  0  0  0  0  0  0  0  0  0  0
    1.7700    0.3080    0.3890 C   0  0  0  0  0  0  0  0  0  0  0  0
    1.0100   -0.6640    0.8980 C   0  0  0  0  0  0  0  0  0  0  0  0
    1.3330   -2.0750    1.1420 C   0  0  0  0  0  0  0  0  0  0  0  0
    0.7190   -2.1910    2.5690 C   0  0  0  0  0  0  0  0  0  0  0  0
   -0.5480   -1.4530    2.4050 C   0  0  0  0  0  0  0  0  0  0  0  0
   -1.8430   -1.3120    2.8380 C   0  0  0  0  0  0  0  0  0  0  0  0
   -2.4030   -0.3430    2.0840 C   0  0  0  0  0  0  0  0  0  0  0  0
   -3.7780    0.1850    2.1490 C   0  0  0  0  0  0  0  0  0  0  0  0
   -4.5460   -0.3170    3.1260 C   0  0  0  0  0  0  0  0  0  0  0  0
   -5.9060    0.1160    3.2850 C   0  0  0  0  0  0  0  0  0  0  0  0
   -6.6260   -0.3880    4.2340 O   0  0  0  0  0  0  0  0  0  0  0  0
   -6.5570    1.0610    2.5080 O   0  0  0  0  0  0  0  0  0  0  0  0
   -7.8940    1.3950    2.7780 C   0  0  0  0  0  0  0  0  0  0  0  0
   -8.8000    0.2000    2.6420 C   0  0  0  0  0  0  0  0  0  0  0  0
   -4.3220    1.1200    1.3100 O   0  0  0  0  0  0  0  0  0  0  0  0
   -4.0210    1.1210   -0.0870 C   0  0  0  0  0  0  0  0  0  0  0  0
   -4.7620    2.1550   -0.8380 C   0  0  0  0  0  0  0  0  0  0  0  0
   -4.4360    3.4650   -1.0310 C   0  0  0  0  0  0  0  0  0  0  0  0
   -5.4420    4.0490   -1.8100 C   0  0  0  0  0  0  0  0  0  0  0  0
   -6.3460    3.0290   -2.0540 C   0  0  0  0  0  0  0  0  0  0  0  0
   -7.5460    3.1740   -2.8170 C   0  0  0  0  0  0  0  0  0  0  0  0
   -8.5440    3.2850   -3.4660 N   0  0  0  0  0  0  0  0  0  0  0  0
   -5.9160    1.9290   -1.4690 O   0  0  0  0  0  0  0  0  0  0  0  0
   -1.5060    0.1390    1.1880 O   0  0  0  0  0  0  0  0  0  0  0  0
   -0.3680   -0.5250    1.3680 C   0  0  0  0  0  0  0  0  0  0  0  0
    3.5280   -1.1230   -0.6230 O   0  0  0  0  0  0  0  0  0  0  0  0
  1  2  1  0
  2  3  1  0
  3  4  1  0
  4  5  1  0
  5  6  1  6
  5  7  1  0
  7  8  2  0
  7 36  1  0
  8  9  1  0
  9 10  2  0
 10 11  1  0
 10 36  1  0
 11 12  2  3
 12 13  1  0
 12 35  1  0
 13 14  1  0
 14 15  1  0
 15 16  1  0
 15 35  2  0
 16 17  2  0
 17 18  1  0
 17 34  1  0
 18 19  2  3
 18 25  1  0
 19 20  1  0
 20 21  2  0
 20 22  1  0
 22 23  1  0
 23 24  1  0
 25 26  1  0
 26 27  1  0
 27 28  2  0
 27 33  1  0
 28 29  1  0
 29 30  2  0
 30 31  1  0
 30 33  1  0
 31 32  3  0
 34 35  1  0
M  CHG  1   3   1
M  END
