
     RDKit          3D

 36 39  0  0  0  0  0  0  0  0999 V2000
   -1.5430    2.5180   -4.1680 C   0  0  0  0  0  0  0  0  0  0  0  0
   -0.7230    2.0180   -3.0500 C   0  0  0  0  0  0  0  0  0  0  0  0
    0.6500    2.0540   -3.0690 C   0  0  0  0  0  0  0  0  0  0  0  0
    1.3810    1.5940   -2.0420 N   0  0  0  0  0  0  0  0  0  0  0  0
    0.8310    1.0710   -0.9330 C   0  0  0  0  0  0  0  0  0  0  0  0
    1.5350    0.5720    0.1770 N   0  0  0  0  0  0  0  0  0  0  0  0
    2.9400    0.5350    0.3060 C   0  0  0  0  0  0  0  0  0  0  0  0
    3.8540    0.8900   -0.6440 C   0  0  0  0  0  0  0  0  0  0  0  0
    5.2130    0.8340   -0.4470 C   0  0  0  0  0  0  0  0  0  0  0  0
    5.7700    0.3990    0.7660 C   0  0  0  0  0  0  0  0  0  0  0  0
    7.1630    0.3460    0.9370 N   0  0  0  0  0  0  0  0  0  0  0  0
    8.0500    0.6290   -0.1770 C   0  0  0  0  0  0  0  0  0  0  0  0
    9.4100    0.0330    0.1480 C   0  0  0  0  0  0  0  0  0  0  0  0
    9.3180   -1.2410    0.7850 N   0  0  2  0  0  0  0  0  0  0  0  0
    8.9710   -2.3050   -0.1510 C   0  0  0  0  0  0  0  0  0  0  0  0
    8.5150   -1.3060    1.9720 C   0  0  0  0  0  0  0  0  0  0  0  0
    7.8170    0.0260    2.1690 C   0  0  0  0  0  0  0  0  0  0  0  0
    4.8470    0.0420    1.7230 C   0  0  0  0  0  0  0  0  0  0  0  0
    3.4950    0.0980    1.5260 C   0  0  0  0  0  0  0  0  0  0  0  0
   -0.5330    1.0470   -0.9420 N   0  0  0  0  0  0  0  0  0  0  0  0
   -1.3230    1.4750   -1.9020 C   0  0  0  0  0  0  0  0  0  0  0  0
   -2.7260    1.4290   -1.8500 N   0  0  0  0  0  0  0  0  0  0  0  0
   -3.5440    0.9280   -0.8170 C   0  0  0  0  0  0  0  0  0  0  0  0
   -3.0710    0.2940    0.2780 C   0  0  0  0  0  0  0  0  0  0  0  0
   -3.8740   -0.1960    1.3060 C   0  0  0  0  0  0  0  0  0  0  0  0
   -5.2410   -0.0190    1.1940 C   0  0  0  0  0  0  0  0  0  0  0  0
   -5.7810    0.6150    0.1060 C   0  0  0  0  0  0  0  0  0  0  0  0
   -7.1680    0.8710   -0.0270 N   0  0  0  0  0  0  0  0  0  0  0  0
   -8.4420   -0.2190   -0.2500 S   0  0  2  0  0  0  0  0  0  0  0  0
   -8.1910   -0.9620   -1.5830 O   0  0  0  0  0  0  0  0  0  0  0  0
   -9.7190    0.5710   -0.5230 O   0  0  0  0  0  0  0  0  0  0  0  0
   -8.7050   -1.4070    0.9990 C   0  0  2  0  0  0  0  0  0  0  0  0
   -7.6000   -2.3830    1.2060 C   0  0  0  0  0  0  0  0  0  0  0  0
  -10.0260   -2.1530    0.7280 C   0  0  0  0  0  0  0  0  0  0  0  0
   -8.9600   -0.6490    2.3140 C   0  0  0  0  0  0  0  0  0  0  0  0
   -4.9310    1.0860   -0.8940 C   0  0  0  0  0  0  0  0  0  0  0  0
  1  2  1  0
  2  3  2  0
  2 21  1  0
  3  4  1  0
  4  5  2  0
  5  6  1  0
  5 20  1  0
  6  7  1  0
  7  8  2  0
  7 19  1  0
  8  9  1  0
  9 10  2  0
 10 11  1  0
 10 18  1  0
 11 12  1  0
 11 17  1  0
 12 13  1  0
 13 14  1  0
 14 15  1  6
 14 16  1  0
 16 17  1  0
 18 19  2  0
 20 21  2  0
 21 22  1  0
 22 23  1  0
 23 24  2  0
 23 36  1  0
 24 25  1  0
 25 26  2  0
 26 27  1  0
 27 28  1  0
 27 36  2  0
 29 28  1  1
 29 30  2  0
 29 31  2  0
 29 32  1  0
 32 33  1  1
 32 34  1  0
 32 35  1  0
M  CHG  1  14   1
M  END
