
     RDKit          3D

 36 39  0  0  0  0  0  0  0  0999 V2000
    5.5610    2.3510   -1.8170 C   0  0  0  0  0  0  0  0  0  0  0  0
    5.0980    0.9560   -1.7230 C   0  0  0  0  0  0  0  0  0  0  0  0
    5.3050    0.2490   -0.6400 C   0  0  0  0  0  0  0  0  0  0  0  0
    5.9950    0.8340    0.4830 C   0  0  0  0  0  0  0  0  0  0  0  0
    6.2030    0.1270    1.5690 C   0  0  0  0  0  0  0  0  0  0  0  0
    6.9170    0.6930    2.7640 C   0  0  0  0  0  0  0  0  0  0  0  0
    7.9420   -0.1370    3.1900 O   0  0  0  0  0  0  0  0  0  0  0  0
    8.0060   -1.3030    2.4610 C   0  0  0  0  0  0  0  0  0  0  0  0
    6.6430   -2.0050    2.5430 C   0  0  0  0  0  0  0  0  0  0  0  0
    5.7850   -1.2010    1.7140 O   0  0  0  0  0  0  0  0  0  0  0  0
    4.8650   -1.0550   -0.5690 O   0  0  0  0  0  0  0  0  0  0  0  0
    3.6560   -1.5550   -1.0530 C   0  0  0  0  0  0  0  0  0  0  0  0
    2.5240   -0.8130   -0.3380 C   0  0  1  0  0  0  0  0  0  0  0  0
    2.6140    0.5400   -0.5940 O   0  0  0  0  0  0  0  0  0  0  0  0
    1.2210   -1.3200   -0.9290 C   0  0  0  0  0  0  0  0  0  0  0  0
    0.1510   -0.5810   -0.2750 N   0  0  0  0  0  0  0  0  0  0  0  0
   -0.9590   -0.5310   -1.2120 C   0  0  1  0  0  0  0  0  0  0  0  0
   -1.4580   -1.9080   -1.4650 C   0  0  0  0  0  0  0  0  0  0  0  0
   -2.0390    0.3530   -0.7470 C   0  0  0  0  0  0  0  0  0  0  0  0
   -3.3330   -0.1240   -0.6500 C   0  0  0  0  0  0  0  0  0  0  0  0
   -4.3860    0.6530   -0.2240 C   0  0  0  0  0  0  0  0  0  0  0  0
   -5.7180    0.1130   -0.1380 C   0  0  0  0  0  0  0  0  0  0  0  0
   -5.9920   -1.1780   -0.4740 C   0  0  0  0  0  0  0  0  0  0  0  0
   -7.2970   -1.6920   -0.3850 C   0  0  0  0  0  0  0  0  0  0  0  0
   -8.3250   -0.8650    0.0540 C   0  0  0  0  0  0  0  0  0  0  0  0
   -9.6950   -1.4140    0.1450 C   0  0  0  0  0  0  0  0  0  0  0  0
   -8.0560    0.4400    0.3950 C   0  0  0  0  0  0  0  0  0  0  0  0
   -9.1400    1.2970    0.8540 C   0  0  0  0  0  0  0  0  0  0  0  0
  -10.3140    0.8930    0.9510 O   0  0  0  0  0  0  0  0  0  0  0  0
   -6.7650    0.9010    0.2930 C   0  0  0  0  0  0  0  0  0  0  0  0
   -4.1120    1.9380    0.1080 N   0  0  0  0  0  0  0  0  0  0  0  0
   -2.8720    2.4470    0.0300 C   0  0  0  0  0  0  0  0  0  0  0  0
   -1.8180    1.6730   -0.3950 C   0  0  0  0  0  0  0  0  0  0  0  0
   -0.6380    2.3790   -0.4030 O   0  0  0  0  0  0  0  0  0  0  0  0
   -0.9200    3.6670    0.1050 C   0  0  0  0  0  0  0  0  0  0  0  0
   -2.3170    3.7100    0.3040 O   0  0  0  0  0  0  0  0  0  0  0  0
  1  2  1  0
  2  3  2  3
  3  4  1  0
  3 11  1  0
  4  5  2  3
  5  6  1  0
  5 10  1  0
  6  7  1  0
  7  8  1  0
  8  9  1  0
  9 10  1  0
 11 12  1  0
 12 13  1  0
 13 14  1  6
 13 15  1  0
 15 16  1  0
 16 17  1  0
 17 18  1  1
 17 19  1  0
 19 20  2  0
 19 33  1  0
 20 21  1  0
 21 22  1  0
 21 31  2  0
 22 23  2  0
 22 30  1  0
 23 24  1  0
 24 25  2  0
 25 26  1  0
 25 27  1  0
 27 28  1  0
 27 30  2  0
 28 29  2  0
 31 32  1  0
 32 33  2  0
 32 36  1  0
 33 34  1  0
 34 35  1  0
 35 36  1  0
M  CHG  1  16   1
M  END
