
     RDKit          3D

 36 39  0  0  0  0  0  0  0  0999 V2000
   -3.0850    3.8210    0.8720 C   0  0  0  0  0  0  0  0  0  0  0  0
   -4.4010    3.0750    1.1750 C   0  0  0  0  0  0  0  0  0  0  0  0
   -4.6510    2.2210    0.0260 C   0  0  0  0  0  0  0  0  0  0  0  0
   -5.4500    2.7240   -1.0170 C   0  0  0  0  0  0  0  0  0  0  0  0
   -5.6620    2.0540   -2.2010 C   0  0  0  0  0  0  0  0  0  0  0  0
   -5.0530    0.8190   -2.3870 C   0  0  0  0  0  0  0  0  0  0  0  0
   -4.2870    0.3470   -1.3690 C   0  0  0  0  0  0  0  0  0  0  0  0
   -4.0830    0.9680   -0.2300 C   0  0  0  0  0  0  0  0  0  0  0  0
   -3.0960    0.4520    0.7520 C   0  0  2  0  0  0  0  0  0  0  0  0
   -2.3570   -0.7100    0.1350 C   0  0  0  0  0  0  0  0  0  0  0  0
   -1.1060   -1.1410    0.8810 C   0  0  2  0  0  0  0  0  0  0  0  0
   -0.1580   -0.0010    0.7630 N   0  0  0  0  0  0  0  0  0  0  0  0
    1.2570   -0.1100    0.8170 C   0  0  0  0  0  0  0  0  0  0  0  0
    1.7760   -1.2160    1.0230 O   0  0  0  0  0  0  0  0  0  0  0  0
    2.0390    1.0550    0.6020 N   0  0  0  0  0  0  0  0  0  0  0  0
    3.4360    1.1300    0.4840 C   0  0  0  0  0  0  0  0  0  0  0  0
    4.0060    2.4040    0.3340 C   0  0  0  0  0  0  0  0  0  0  0  0
    5.3540    2.5220    0.0930 C   0  0  0  0  0  0  0  0  0  0  0  0
    6.1460    1.4550   -0.0070 C   0  0  0  0  0  0  0  0  0  0  0  0
    5.6540    0.1560    0.1280 C   0  0  0  0  0  0  0  0  0  0  0  0
    4.2740    0.0490    0.3750 C   0  0  0  0  0  0  0  0  0  0  0  0
    6.4550   -1.0640    0.0470 C   0  0  0  0  0  0  0  0  0  0  0  0
    7.9120   -0.6550   -0.1090 C   0  0  0  0  0  0  0  0  0  0  0  0
    8.0530    0.4610   -0.9230 O   0  0  0  0  0  0  0  0  0  0  0  0
    7.6250    1.6070   -0.3000 C   0  0  0  0  0  0  0  0  0  0  0  0
   -0.5040   -2.2090    0.0470 C   0  0  0  0  0  0  0  0  0  0  0  0
   -0.7060   -3.5320    0.3170 C   0  0  0  0  0  0  0  0  0  0  0  0
   -0.2310   -4.6240   -0.3840 C   0  0  0  0  0  0  0  0  0  0  0  0
    0.6280   -4.2330   -1.6080 C   0  0  0  0  0  0  0  0  0  0  0  0
    1.0230   -5.3620   -2.1960 O   0  0  0  0  0  0  0  0  0  0  0  0
    0.7380   -3.0040   -1.7400 C   0  0  0  0  0  0  0  0  0  0  0  0
    0.2980   -1.8930   -1.0960 C   0  0  0  0  0  0  0  0  0  0  0  0
   -3.7420   -0.1730    1.8950 N   0  0  0  0  0  0  0  0  0  0  0  0
   -4.2270   -1.5020    1.7580 C   0  0  0  0  0  0  0  0  0  0  0  0
   -5.2570   -1.6470    0.7450 C   0  0  0  0  0  0  0  0  0  0  0  0
   -6.1040   -1.7880   -0.0860 N   0  0  0  0  0  0  0  0  0  0  0  0
  1  2  1  0
  2  3  1  0
  3  4  2  0
  3  8  1  0
  4  5  1  0
  5  6  2  0
  6  7  1  0
  7  8  2  0
  8  9  1  0
  9 10  1  6
  9 33  1  0
 11 10  1  6
 11 12  1  0
 11 26  1  0
 12 13  1  0
 13 14  2  0
 13 15  1  0
 15 16  1  0
 16 17  2  0
 16 21  1  0
 17 18  1  0
 18 19  2  0
 19 20  1  0
 19 25  1  0
 20 21  2  0
 20 22  1  0
 22 23  1  0
 23 24  1  0
 24 25  1  0
 26 27  2  0
 26 32  1  0
 27 28  1  0
 28 29  2  0
 29 30  1  0
 29 31  1  0
 31 32  2  0
 33 34  1  0
 34 35  1  0
 35 36  3  0
M  CHG  1  33   1
M  END
