
     RDKit          3D

 36 39  0  0  0  0  0  0  0  0999 V2000
   -6.1710   -5.0960   -2.0760 C   0  0  0  0  0  0  0  0  0  0  0  0
   -5.2450   -4.1090   -1.6280 O   0  0  0  0  0  0  0  0  0  0  0  0
   -3.8830   -4.2130   -1.8430 C   0  0  0  0  0  0  0  0  0  0  0  0
   -3.4560   -5.2190   -2.4560 O   0  0  0  0  0  0  0  0  0  0  0  0
   -2.9470   -3.1920   -1.3770 C   0  0  0  0  0  0  0  0  0  0  0  0
   -3.5740   -2.1220   -0.7050 O   0  0  0  0  0  0  0  0  0  0  0  0
   -2.7560   -1.1000   -0.2250 C   0  0  0  0  0  0  0  0  0  0  0  0
   -1.3970   -1.1010   -0.3820 C   0  0  0  0  0  0  0  0  0  0  0  0
   -0.5640   -0.1020    0.0840 C   0  0  0  0  0  0  0  0  0  0  0  0
    0.8820   -0.1880   -0.1340 C   0  0  2  0  0  0  0  0  0  0  0  0
    1.2310   -1.5570   -0.6620 C   0  0  0  0  0  0  0  0  0  0  0  0
    1.6820    0.1030    1.0420 N   0  0  0  0  0  0  0  0  0  0  0  0
    2.9500    0.6690    0.7140 C   0  0  0  0  0  0  0  0  0  0  0  0
    4.1420   -0.1580    0.9290 C   0  0  0  0  0  0  0  0  0  0  0  0
    4.1690   -1.4270    1.4250 C   0  0  0  0  0  0  0  0  0  0  0  0
    5.3550   -2.0910    1.5840 C   0  0  0  0  0  0  0  0  0  0  0  0
    6.5420   -1.4890    1.2450 C   0  0  0  0  0  0  0  0  0  0  0  0
    6.5530   -0.1990    0.7380 C   0  0  0  0  0  0  0  0  0  0  0  0
    5.3530    0.4450    0.5880 C   0  0  0  0  0  0  0  0  0  0  0  0
    5.3620    1.7900    0.0500 N   0  0  0  0  0  0  0  0  0  0  0  0
    6.5780    2.4130   -0.3070 C   0  0  0  0  0  0  0  0  0  0  0  0
    6.6620    3.6320   -0.5290 O   0  0  0  0  0  0  0  0  0  0  0  0
    7.7810    1.5640   -0.4160 C   0  0  2  0  0  0  0  0  0  0  0  0
    7.9880    1.2260   -1.8800 C   0  0  0  0  0  0  0  0  0  0  0  0
    7.7320    0.4310    0.3890 O   0  0  0  0  0  0  0  0  0  0  0  0
   -1.1440    0.9640    0.7480 C   0  0  0  0  0  0  0  0  0  0  0  0
   -2.5270    0.9750    0.9140 C   0  0  0  0  0  0  0  0  0  0  0  0
   -3.3650   -0.0170    0.4530 C   0  0  0  0  0  0  0  0  0  0  0  0
   -4.7210   -0.0520    0.5850 O   0  0  0  0  0  0  0  0  0  0  0  0
   -5.5520    0.8660    1.1650 C   0  0  0  0  0  0  0  0  0  0  0  0
   -5.5560    2.1950    0.5060 C   0  0  0  0  0  0  0  0  0  0  0  0
   -5.2210    3.3030    1.1290 C   0  0  0  0  0  0  0  0  0  0  0  0
   -5.2160    4.6390    0.4950 C   0  0  0  0  0  0  0  0  0  0  0  0
   -5.6060    4.6180   -0.8500 O   0  0  0  0  0  0  0  0  0  0  0  0
   -5.9520    3.4680   -1.4920 C   0  0  0  0  0  0  0  0  0  0  0  0
   -5.9530    2.2910   -0.9220 C   0  0  0  0  0  0  0  0  0  0  0  0
  1  2  1  0
  2  3  1  0
  3  4  2  0
  3  5  1  0
  5  6  1  0
  6  7  1  0
  7  8  2  0
  7 28  1  0
  8  9  1  0
  9 10  1  0
  9 26  2  0
 10 11  1  1
 10 12  1  0
 12 13  1  0
 13 14  1  0
 14 15  2  0
 14 19  1  0
 15 16  1  0
 16 17  2  0
 17 18  1  0
 18 19  2  0
 18 25  1  0
 19 20  1  0
 20 21  1  0
 21 22  2  0
 21 23  1  0
 23 24  1  6
 23 25  1  0
 26 27  1  0
 27 28  2  0
 28 29  1  0
 29 30  1  0
 30 31  1  0
 31 32  2  0
 31 36  1  0
 32 33  1  0
 33 34  1  0
 34 35  1  0
 35 36  2  0
M  CHG  1  12   1
M  END
