
     RDKit          3D

 36 39  0  0  0  0  0  0  0  0999 V2000
  -10.1220    1.1790   -2.8300 C   0  0  0  0  0  0  0  0  0  0  0  0
   -8.7850    1.1220   -2.1880 C   0  0  0  0  0  0  0  0  0  0  0  0
   -7.7320    1.9540   -2.4820 C   0  0  0  0  0  0  0  0  0  0  0  0
   -6.6960    1.6090   -1.7100 N   0  0  0  0  0  0  0  0  0  0  0  0
   -7.0480    0.5910   -0.9370 C   0  0  0  0  0  0  0  0  0  0  0  0
   -6.3880   -0.1380    0.0190 C   0  0  0  0  0  0  0  0  0  0  0  0
   -6.9870   -1.1740    0.6990 C   0  0  0  0  0  0  0  0  0  0  0  0
   -6.2620   -1.9440    1.7230 C   0  0  0  0  0  0  0  0  0  0  0  0
   -4.9400   -1.3730    1.8790 N   0  0  0  0  0  0  0  0  0  0  0  0
   -4.7490   -0.3250    2.8560 C   0  0  0  0  0  0  0  0  0  0  0  0
   -3.8760   -1.8520    1.0770 C   0  0  0  0  0  0  0  0  0  0  0  0
   -4.0380   -2.7620    0.2320 O   0  0  0  0  0  0  0  0  0  0  0  0
   -2.5420   -1.2500    1.2540 C   0  0  0  0  0  0  0  0  0  0  0  0
   -1.5350   -1.6760    0.5190 C   0  0  0  0  0  0  0  0  0  0  0  0
   -0.1950   -1.1310    0.6380 C   0  0  0  0  0  0  0  0  0  0  0  0
    0.1200   -0.1330    1.5290 C   0  0  0  0  0  0  0  0  0  0  0  0
    1.3920    0.3670    1.6180 C   0  0  0  0  0  0  0  0  0  0  0  0
    2.4380   -0.1080    0.8110 C   0  0  0  0  0  0  0  0  0  0  0  0
    3.7570    0.4590    0.9480 C   0  0  0  0  0  0  0  0  0  0  0  0
    3.9550    1.3970    1.8110 O   0  0  0  0  0  0  0  0  0  0  0  0
    4.9240    0.0650    0.1830 C   0  0  0  0  0  0  0  0  0  0  0  0
    4.8580   -0.8410   -0.6840 O   0  0  0  0  0  0  0  0  0  0  0  0
    6.1870    0.6620    0.3570 N   0  0  0  0  0  0  0  0  0  0  0  0
    7.3970    0.3900   -0.2960 C   0  0  0  0  0  0  0  0  0  0  0  0
    7.6300   -0.7020   -1.0860 C   0  0  0  0  0  0  0  0  0  0  0  0
    8.8610   -0.9110   -1.7300 C   0  0  0  0  0  0  0  0  0  0  0  0
    9.8970   -0.0220   -1.5950 C   0  0  0  0  0  0  0  0  0  0  0  0
    9.6830    1.0810   -0.8050 C   0  0  0  0  0  0  0  0  0  0  0  0
   10.7840    2.0730   -0.6310 C   0  0  0  0  0  0  0  0  0  0  0  0
   11.6350    1.7780    0.4820 N   0  0  0  0  0  0  0  0  0  0  0  0
    8.4820    1.2780   -0.1820 C   0  0  0  0  0  0  0  0  0  0  0  0
    2.0990   -1.0980   -0.0640 C   0  0  0  0  0  0  0  0  0  0  0  0
    0.8070   -1.6180   -0.1670 C   0  0  0  0  0  0  0  0  0  0  0  0
   -8.2930   -1.4950    0.4150 C   0  0  0  0  0  0  0  0  0  0  0  0
   -9.0040   -0.7850   -0.5450 C   0  0  0  0  0  0  0  0  0  0  0  0
   -8.3720    0.2450   -1.2060 C   0  0  0  0  0  0  0  0  0  0  0  0
  1  2  1  0
  2  3  2  0
  2 36  1  0
  3  4  1  0
  4  5  1  0
  5  6  2  0
  5 36  1  0
  6  7  1  0
  7  8  1  0
  7 34  2  0
  8  9  1  0
  9 10  1  0
  9 11  1  0
 11 12  2  0
 11 13  1  0
 13 14  2  3
 14 15  1  0
 15 16  2  0
 15 33  1  0
 16 17  1  0
 17 18  2  0
 18 19  1  0
 18 32  1  0
 19 20  2  0
 19 21  1  0
 21 22  2  0
 21 23  1  0
 23 24  1  0
 24 25  2  0
 24 31  1  0
 25 26  1  0
 26 27  2  0
 27 28  1  0
 28 29  1  0
 28 31  2  0
 29 30  1  0
 32 33  2  0
 34 35  1  0
 35 36  2  0
M  CHG  1  30   1
M  END
