
     RDKit          3D

 36 39  0  0  0  0  0  0  0  0999 V2000
   11.0890    0.2310    0.8150 C   0  0  0  0  0  0  0  0  0  0  0  0
   10.9080   -1.1460    0.3220 C   0  0  0  0  0  0  0  0  0  0  0  0
    9.7300   -1.5580   -0.0720 C   0  0  0  0  0  0  0  0  0  0  0  0
    9.5570   -2.9420   -0.5660 C   0  0  0  0  0  0  0  0  0  0  0  0
    8.5990   -0.6700   -0.0260 C   0  0  0  0  0  0  0  0  0  0  0  0
    7.4140   -1.0950   -0.4270 C   0  0  0  0  0  0  0  0  0  0  0  0
    7.0890   -2.3400   -0.9100 O   0  0  0  0  0  0  0  0  0  0  0  0
    5.7390   -2.4430   -1.2400 C   0  0  0  0  0  0  0  0  0  0  0  0
    5.1550   -1.1170   -0.9310 C   0  0  0  0  0  0  0  0  0  0  0  0
    4.0410   -0.3870   -0.9350 O   0  0  0  0  0  0  0  0  0  0  0  0
    4.2920    0.8170   -0.4820 C   0  0  0  0  0  0  0  0  0  0  0  0
    3.3820    1.9790   -0.2990 C   0  0  0  0  0  0  0  0  0  0  0  0
    2.0920    1.6500   -0.8370 N   0  0  0  0  0  0  0  0  0  0  0  0
    1.3830    0.6470   -0.0780 C   0  0  0  0  0  0  0  0  0  0  0  0
   -0.0480    1.0730    0.0170 C   0  0  2  0  0  0  0  0  0  0  0  0
   -0.1530    2.3180    0.6620 O   0  0  0  0  0  0  0  0  0  0  0  0
   -0.9490    0.0950    0.6800 C   0  0  0  0  0  0  0  0  0  0  0  0
   -2.3590    0.6100    0.7240 C   0  0  0  0  0  0  0  0  0  0  0  0
   -2.7960    1.3460   -0.4280 N   0  0  0  0  0  0  0  0  0  0  0  0
   -4.1270    1.4570   -0.8860 C   0  0  0  0  0  0  0  0  0  0  0  0
   -4.3760    2.1000   -1.9730 O   0  0  0  0  0  0  0  0  0  0  0  0
   -5.2880    0.8940   -0.2210 C   0  0  1  0  0  0  0  0  0  0  0  0
   -5.7840   -0.3620   -1.0000 C   0  0  0  0  0  0  0  0  0  0  0  0
   -5.0800    0.4550    1.0470 O   0  0  0  0  0  0  0  0  0  0  0  0
   -6.4930    1.8280   -0.2810 C   0  0  0  0  0  0  0  0  0  0  0  0
   -7.6420    1.1520    0.0710 O   0  0  0  0  0  0  0  0  0  0  0  0
   -8.0680    0.5580    1.1920 C   0  0  0  0  0  0  0  0  0  0  0  0
   -7.3250    0.5770    2.1990 O   0  0  0  0  0  0  0  0  0  0  0  0
   -9.3670   -0.1410    1.3750 C   0  0  0  0  0  0  0  0  0  0  0  0
   -9.3130   -1.6120    1.3770 C   0  0  2  0  0  0  0  0  0  0  0  0
   -8.8370   -2.4490    0.2830 C   0  0  0  0  0  0  0  0  0  0  0  0
  -10.3500   -2.3150    0.5050 C   0  0  0  0  0  0  0  0  0  0  0  0
   -1.8240    2.1130   -1.2450 C   0  0  0  0  0  0  0  0  0  0  0  0
   -0.6030    1.2560   -1.4080 C   0  0  0  0  0  0  0  0  0  0  0  0
    5.6460    0.9200   -0.1490 C   0  0  0  0  0  0  0  0  0  0  0  0
    6.1630   -0.3220   -0.4460 C   0  0  0  0  0  0  0  0  0  0  0  0
  1  2  1  0
  2  3  2  3
  3  4  1  0
  3  5  1  0
  5  6  2  3
  6  7  1  0
  6 36  1  0
  7  8  1  0
  8  9  1  0
  9 10  1  0
  9 36  2  0
 10 11  1  0
 11 12  1  0
 11 35  2  0
 12 13  1  0
 13 14  1  0
 14 15  1  0
 15 16  1  1
 15 17  1  0
 15 34  1  0
 17 18  1  0
 18 19  1  0
 19 20  1  0
 19 33  1  0
 20 21  2  0
 20 22  1  0
 22 23  1  6
 22 24  1  0
 22 25  1  0
 25 26  1  0
 26 27  1  0
 27 28  2  0
 27 29  1  0
 30 29  1  6
 30 31  1  0
 30 32  1  0
 31 32  1  0
 33 34  1  0
 35 36  1  0
M  CHG  1  13   1
M  END
