
     RDKit          3D

 37 40  0  0  0  0  0  0  0  0999 V2000
  -10.0690   -0.7580   -2.2310 C   0  0  0  0  0  0  0  0  0  0  0  0
   -8.7230   -0.5160   -1.7230 C   0  0  0  0  0  0  0  0  0  0  0  0
   -8.3540    0.1470   -0.6650 C   0  0  0  0  0  0  0  0  0  0  0  0
   -6.9610    0.2290   -0.4000 C   0  0  0  0  0  0  0  0  0  0  0  0
   -6.1510   -0.3710   -1.2440 C   0  0  0  0  0  0  0  0  0  0  0  0
   -4.6910   -0.4590   -1.2350 C   0  0  0  0  0  0  0  0  0  0  0  0
   -4.1320   -1.0940   -2.1560 O   0  0  0  0  0  0  0  0  0  0  0  0
   -3.9010    0.1450   -0.2240 N   0  0  0  0  0  0  0  0  0  0  0  0
   -2.5020    0.1220   -0.1210 C   0  0  0  0  0  0  0  0  0  0  0  0
   -1.6120   -0.4740   -0.9540 C   0  0  0  0  0  0  0  0  0  0  0  0
   -0.2330   -0.4490   -0.7810 C   0  0  0  0  0  0  0  0  0  0  0  0
    0.2940    0.2110    0.2910 C   0  0  0  0  0  0  0  0  0  0  0  0
    1.6740    0.2400    0.4730 O   0  0  0  0  0  0  0  0  0  0  0  0
    2.1760    0.9340    1.5930 C   0  0  0  0  0  0  0  0  0  0  0  0
    3.6810    0.8180    1.5620 C   0  0  0  0  0  0  0  0  0  0  0  0
    4.3480    1.3630    2.4700 O   0  0  0  0  0  0  0  0  0  0  0  0
    4.3440    0.1160    0.5410 N   0  0  0  0  0  0  0  0  0  0  0  0
    5.7190   -0.0720    0.3910 C   0  0  0  0  0  0  0  0  0  0  0  0
    6.6790    0.2730    1.2600 C   0  0  0  0  0  0  0  0  0  0  0  0
    8.0180    0.0790    1.0620 C   0  0  0  0  0  0  0  0  0  0  0  0
    8.5030   -0.5310   -0.1340 C   0  0  0  0  0  0  0  0  0  0  0  0
    7.5090   -0.8670   -0.9870 C   0  0  0  0  0  0  0  0  0  0  0  0
    6.1590   -0.6770   -0.8000 C   0  0  0  0  0  0  0  0  0  0  0  0
    8.4180   -1.5980   -2.3790 S   0  0  0  0  0  0  0  0  0  0  0  0
   10.0880   -1.3430   -1.5910 C   0  0  0  0  0  0  0  0  0  0  0  0
   11.1410   -1.6670   -2.1120 O   0  0  0  0  0  0  0  0  0  0  0  0
    9.7540   -0.7550   -0.4110 N   0  0  0  0  0  0  0  0  0  0  0  0
   10.9310   -0.4220    0.4550 C   0  0  0  0  0  0  0  0  0  0  0  0
   -0.5730    0.8340    1.1690 C   0  0  0  0  0  0  0  0  0  0  0  0
   -1.9360    0.7940    0.9730 C   0  0  0  0  0  0  0  0  0  0  0  0
   -2.7680    1.4330    1.8770 O   0  0  0  0  0  0  0  0  0  0  0  0
   -2.3900    2.1340    3.0110 C   0  0  0  0  0  0  0  0  0  0  0  0
   -1.6770    1.3700    4.0370 C   0  0  0  0  0  0  0  0  0  0  0  0
   -1.2900    2.0050    5.0770 O   0  0  0  0  0  0  0  0  0  0  0  0
   -1.3720    0.0320    4.0150 O   0  0  0  0  0  0  0  0  0  0  0  0
   -7.2290   -1.0900   -2.4590 S   0  0  2  0  0  0  0  0  0  0  0  0
   -6.9430   -0.3740   -4.0740 C   0  0  0  0  0  0  0  0  0  0  0  0
  1  2  1  0
  2  3  2  0
  2 36  1  0
  3  4  1  0
  4  5  2  0
  5  6  1  0
  5 36  1  0
  6  7  2  0
  6  8  1  0
  8  9  1  0
  9 10  2  0
  9 30  1  0
 10 11  1  0
 11 12  2  0
 12 13  1  0
 12 29  1  0
 13 14  1  0
 14 15  1  0
 15 16  2  0
 15 17  1  0
 17 18  1  0
 18 19  2  0
 18 23  1  0
 19 20  1  0
 20 21  2  0
 21 22  1  0
 21 27  1  0
 22 23  2  0
 22 24  1  0
 24 25  1  0
 25 26  2  0
 25 27  1  0
 27 28  1  0
 29 30  2  0
 30 31  1  0
 31 32  1  0
 32 33  1  0
 33 34  2  0
 33 35  1  0
 36 37  1  6
M  END
