
     RDKit          3D

 37 40  0  0  0  0  0  0  0  0999 V2000
  -10.2780    1.8500    1.4640 C   0  0  0  0  0  0  0  0  0  0  0  0
  -10.0390    2.0720    0.1010 O   0  0  0  0  0  0  0  0  0  0  0  0
   -8.8800    1.6100   -0.5140 C   0  0  0  0  0  0  0  0  0  0  0  0
   -8.7070    1.8550   -1.8580 C   0  0  0  0  0  0  0  0  0  0  0  0
   -7.5690    1.4050   -2.4940 C   0  0  0  0  0  0  0  0  0  0  0  0
   -6.5900    0.7060   -1.8010 C   0  0  0  0  0  0  0  0  0  0  0  0
   -5.4950    0.2450   -2.4030 N   0  0  0  0  0  0  0  0  0  0  0  0
   -4.5310   -0.4700   -1.7230 C   0  0  0  0  0  0  0  0  0  0  0  0
   -3.3200   -0.9260   -2.4330 C   0  0  0  0  0  0  0  0  0  0  0  0
   -4.6370   -0.7480   -0.3980 C   0  0  0  0  0  0  0  0  0  0  0  0
   -3.8070   -1.5500    0.4180 C   0  0  0  0  0  0  0  0  0  0  0  0
   -2.3770   -1.4720    0.4710 N   0  0  0  0  0  0  0  0  0  0  0  0
   -1.5600   -2.3160   -0.3120 C   0  0  0  0  0  0  0  0  0  0  0  0
   -1.7850   -3.4170   -0.8510 O   0  0  0  0  0  0  0  0  0  0  0  0
    0.0190   -1.4900   -0.4290 S   0  0  0  0  0  0  0  0  0  0  0  0
   -0.1990   -0.6640    1.1720 C   0  0  0  0  0  0  0  0  0  0  0  0
    0.7920   -0.3190    1.9550 C   0  0  0  0  0  0  0  0  0  0  0  0
    2.1580   -0.6050    1.5480 C   0  0  0  0  0  0  0  0  0  0  0  0
    2.7040   -0.5470    0.2930 C   0  0  0  0  0  0  0  0  0  0  0  0
    4.0250   -0.9080    0.3980 C   0  0  0  0  0  0  0  0  0  0  0  0
    4.2520   -1.1760    1.7210 C   0  0  0  0  0  0  0  0  0  0  0  0
    5.7630   -1.7010    2.5410 S   0  0  0  0  0  0  0  0  0  0  0  0
    7.0210   -1.9680    1.2760 C   0  0  0  0  0  0  0  0  0  0  0  0
    7.3090   -0.6840    0.6050 C   0  0  0  0  0  0  0  0  0  0  0  0
    6.6970    0.3590    0.9450 O   0  0  0  0  0  0  0  0  0  0  0  0
    8.2850   -0.5950   -0.4460 N   0  0  0  0  0  0  0  0  0  0  0  0
    8.5450    0.6600   -1.0930 C   0  0  0  0  0  0  0  0  0  0  0  0
    9.0490    1.7460   -0.1800 C   0  0  0  0  0  0  0  0  0  0  0  0
   10.3430    1.3050    0.4460 C   0  0  0  0  0  0  0  0  0  0  0  0
   10.8760    2.2660    1.3140 O   0  0  0  0  0  0  0  0  0  0  0  0
    3.1330   -0.9850    2.3510 O   0  0  0  0  0  0  0  0  0  0  0  0
   -1.6370   -0.5860    1.2680 C   0  0  0  0  0  0  0  0  0  0  0  0
   -2.1520    0.2910    2.0760 O   0  0  0  0  0  0  0  0  0  0  0  0
   -5.8080   -0.2420    0.2110 C   0  0  0  0  0  0  0  0  0  0  0  0
   -6.0340   -0.4280    1.4500 O   0  0  0  0  0  0  0  0  0  0  0  0
   -6.7660    0.4660   -0.4600 C   0  0  0  0  0  0  0  0  0  0  0  0
   -7.9150    0.9170    0.1990 C   0  0  0  0  0  0  0  0  0  0  0  0
  1  2  1  0
  2  3  1  0
  3  4  2  0
  3 37  1  0
  4  5  1  0
  5  6  2  0
  6  7  1  0
  6 36  1  0
  7  8  1  0
  8  9  1  0
  8 10  2  0
 10 11  1  0
 10 34  1  0
 11 12  1  0
 12 13  1  0
 12 32  1  0
 13 14  2  0
 13 15  1  0
 15 16  1  0
 16 17  2  3
 16 32  1  0
 17 18  1  0
 18 19  2  0
 18 31  1  0
 19 20  1  0
 20 21  2  0
 21 22  1  0
 21 31  1  0
 22 23  1  0
 23 24  1  0
 24 25  2  0
 24 26  1  0
 26 27  1  0
 27 28  1  0
 28 29  1  0
 29 30  1  0
 32 33  2  0
 34 35  2  0
 34 36  1  0
 36 37  2  0
M  END
