
     RDKit          3D

 36 39  0  0  0  0  0  0  0  0999 V2000
   -8.1530   -0.9600   -1.7850 C   0  0  0  0  0  0  0  0  0  0  0  0
   -7.5400   -0.1530   -0.6700 C   0  0  0  0  0  0  0  0  0  0  0  0
   -6.2950   -0.3770   -0.3720 C   0  0  0  0  0  0  0  0  0  0  0  0
   -5.6560   -1.3320   -1.1200 N   0  0  0  0  0  0  0  0  0  0  0  0
   -4.3590   -1.6530   -0.9970 C   0  0  0  0  0  0  0  0  0  0  0  0
   -3.8570   -2.5480   -1.7240 O   0  0  0  0  0  0  0  0  0  0  0  0
   -3.5370   -1.0190   -0.0720 C   0  0  0  0  0  0  0  0  0  0  0  0
   -2.1550   -1.4020    0.0480 C   0  0  0  0  0  0  0  0  0  0  0  0
   -1.5270   -1.4250    1.1450 O   0  0  0  0  0  0  0  0  0  0  0  0
   -1.3680   -1.7990   -1.0910 N   0  0  0  0  0  0  0  0  0  0  0  0
   -0.0150   -2.2190   -1.0710 C   0  0  0  0  0  0  0  0  0  0  0  0
    0.9260   -1.1760   -0.5830 C   0  0  0  0  0  0  0  0  0  0  0  0
    0.4890   -0.0700   -0.2610 O   0  0  0  0  0  0  0  0  0  0  0  0
    2.2880   -1.4550   -0.4940 N   0  0  0  0  0  0  0  0  0  0  0  0
    3.3010   -0.5250   -0.0290 C   0  0  0  0  0  0  0  0  0  0  0  0
    2.9790    0.5670    0.7170 C   0  0  0  0  0  0  0  0  0  0  0  0
    4.0040    1.4440    1.1020 C   0  0  0  0  0  0  0  0  0  0  0  0
    5.2910    1.1610    0.7090 C   0  0  0  0  0  0  0  0  0  0  0  0
    6.8850    1.9870    0.9600 S   0  0  0  0  0  0  0  0  0  0  0  0
    7.8340    0.6720   -0.0320 C   0  0  0  0  0  0  0  0  0  0  0  0
    9.3220    0.8690   -0.1610 C   0  0  1  0  0  0  0  0  0  0  0  0
    9.6420    1.9210   -1.1750 C   0  0  0  0  0  0  0  0  0  0  0  0
    9.8560    1.2330    1.0890 O   0  0  0  0  0  0  0  0  0  0  0  0
    6.9480   -0.0190   -0.3190 N   0  0  0  0  0  0  0  0  0  0  0  0
    5.6650    0.0660   -0.0470 C   0  0  0  0  0  0  0  0  0  0  0  0
    4.6080   -0.7680   -0.4000 C   0  0  0  0  0  0  0  0  0  0  0  0
   -4.1520   -0.0650    0.6820 C   0  0  0  0  0  0  0  0  0  0  0  0
   -5.5260    0.2660    0.5540 C   0  0  0  0  0  0  0  0  0  0  0  0
   -6.2520    1.0270    1.3390 C   0  0  0  0  0  0  0  0  0  0  0  0
   -7.9770    1.1010    1.1150 Cl  0  0  0  0  0  0  0  0  0  0  0  0
   -5.7910    1.8440    2.4640 C   0  0  0  0  0  0  0  0  0  0  0  0
   -4.6630    1.9710    3.1080 C   0  0  0  0  0  0  0  0  0  0  0  0
   -4.5690    2.8360    4.1260 F   0  0  0  0  0  0  0  0  0  0  0  0
   -3.4600    1.2420    2.7950 N   0  0  0  0  0  0  0  0  0  0  0  0
   -3.1870    0.6550    1.5260 C   0  0  0  0  0  0  0  0  0  0  0  0
   -2.0350    0.7490    1.0610 O   0  0  0  0  0  0  0  0  0  0  0  0
  1  2  1  0
  2  3  2  3
  3  4  1  0
  3 28  1  0
  4  5  1  0
  5  6  2  0
  5  7  1  0
  7  8  1  0
  7 27  2  0
  8  9  2  0
  8 10  1  0
 10 11  1  0
 11 12  1  0
 12 13  2  0
 12 14  1  0
 14 15  1  0
 15 16  2  0
 15 26  1  0
 16 17  1  0
 17 18  2  0
 18 19  1  0
 18 25  1  0
 19 20  1  0
 20 21  1  0
 20 24  2  0
 21 22  1  6
 21 23  1  0
 24 25  1  0
 25 26  2  0
 27 28  1  0
 27 35  1  0
 28 29  2  0
 29 30  1  0
 29 31  1  0
 31 32  2  0
 32 33  1  0
 32 34  1  0
 34 35  1  0
 35 36  2  0
M  END
