
     RDKit          3D

 37 39  0  0  0  0  0  0  0  0999 V2000
   -8.2830    2.9220    0.2960 C   0  0  0  0  0  0  0  0  0  0  0  0
   -7.5510    1.7260   -0.1340 N   0  0  0  0  0  0  0  0  0  0  0  0
   -8.2030    0.5930   -0.6560 C   0  0  0  0  0  0  0  0  0  0  0  0
   -9.4510    0.5970   -0.7610 O   0  0  0  0  0  0  0  0  0  0  0  0
   -7.4530   -0.6110   -1.0860 C   0  0  0  0  0  0  0  0  0  0  0  0
   -6.0740   -0.3740   -0.8750 O   0  0  0  0  0  0  0  0  0  0  0  0
   -5.0980   -1.2910   -1.1620 C   0  0  0  0  0  0  0  0  0  0  0  0
   -5.4360   -2.3890   -1.6310 O   0  0  0  0  0  0  0  0  0  0  0  0
   -3.6940   -0.9090   -0.8910 C   0  0  0  0  0  0  0  0  0  0  0  0
   -2.7560   -1.7830   -1.1620 C   0  0  0  0  0  0  0  0  0  0  0  0
   -3.0570   -3.1380   -1.7250 C   0  0  0  0  0  0  0  0  0  0  0  0
   -1.4290   -1.4050   -0.9420 N   0  0  0  0  0  0  0  0  0  0  0  0
   -1.0140   -0.2000   -0.2920 C   0  0  0  0  0  0  0  0  0  0  0  0
   -2.1060    0.7320   -0.0270 C   0  0  0  0  0  0  0  0  0  0  0  0
   -1.8770    2.3480    0.6420 S   0  0  0  0  0  0  0  0  0  0  0  0
   -0.3170    2.7030    1.3780 C   0  0  0  0  0  0  0  0  0  0  0  0
   -0.0350    2.2150    2.7440 C   0  0  0  0  0  0  0  0  0  0  0  0
    0.0780    0.9180    3.0750 O   0  0  0  0  0  0  0  0  0  0  0  0
    0.9930   -0.0670    2.7710 C   0  0  0  0  0  0  0  0  0  0  0  0
    2.0870    0.1620    1.9940 C   0  0  0  0  0  0  0  0  0  0  0  0
    2.9860   -0.8750    1.7120 C   0  0  0  0  0  0  0  0  0  0  0  0
    4.0910   -0.5450    0.8890 N   0  0  0  0  0  0  0  0  0  0  0  0
    5.2080   -1.3640    0.5900 C   0  0  0  0  0  0  0  0  0  0  0  0
    5.2850   -2.4980    1.0680 O   0  0  0  0  0  0  0  0  0  0  0  0
    6.2680   -0.8460   -0.2940 C   0  0  0  0  0  0  0  0  0  0  0  0
    6.3640    0.3100   -0.8830 C   0  0  0  0  0  0  0  0  0  0  0  0
    7.5210    0.5350   -1.6900 C   0  0  0  0  0  0  0  0  0  0  0  0
    8.0110    1.7530   -1.9830 C   0  0  0  0  0  0  0  0  0  0  0  0
    9.1730    1.9520   -2.7950 C   0  0  0  0  0  0  0  0  0  0  0  0
    9.5840    3.1150   -3.0320 O   0  0  0  0  0  0  0  0  0  0  0  0
    8.1690   -0.7030   -2.1950 C   0  0  0  0  0  0  0  0  0  0  0  0
    7.7090   -1.7890   -0.7680 S   0  0  0  0  0  0  0  0  0  0  0  0
    2.7810   -2.1370    2.2110 C   0  0  0  0  0  0  0  0  0  0  0  0
    1.6470   -2.3440    3.0080 C   0  0  0  0  0  0  0  0  0  0  0  0
    0.7690   -1.3360    3.2850 C   0  0  0  0  0  0  0  0  0  0  0  0
   -0.3540   -1.5550    4.0790 O   0  0  0  0  0  0  0  0  0  0  0  0
   -3.3700    0.3720   -0.3180 C   0  0  0  0  0  0  0  0  0  0  0  0
  1  2  1  0
  2  3  1  0
  3  4  2  0
  3  5  1  0
  5  6  1  0
  6  7  1  0
  7  8  2  0
  7  9  1  0
  9 10  2  0
  9 37  1  0
 10 11  1  0
 10 12  1  0
 12 13  1  0
 13 14  1  0
 14 15  1  0
 14 37  2  0
 15 16  1  0
 16 17  1  0
 17 18  1  0
 18 19  1  0
 19 20  2  0
 19 35  1  0
 20 21  1  0
 21 22  1  0
 21 33  2  0
 22 23  1  0
 23 24  2  0
 23 25  1  0
 25 26  2  0
 25 32  1  0
 26 27  1  0
 27 28  2  3
 27 31  1  0
 28 29  1  0
 29 30  2  0
 31 32  1  0
 33 34  1  0
 34 35  2  0
 35 36  1  0
M  END
