
     RDKit          3D

 37 40  0  0  0  0  0  0  0  0999 V2000
    2.3280    2.2400   -3.1100 C   0  0  0  0  0  0  0  0  0  0  0  0
    1.3540    1.5190   -2.2480 C   0  0  0  0  0  0  0  0  0  0  0  0
    0.0130    1.4890   -2.5500 C   0  0  0  0  0  0  0  0  0  0  0  0
   -0.8420    0.8340   -1.7620 N   0  0  0  0  0  0  0  0  0  0  0  0
   -0.5030    0.1770   -0.6600 C   0  0  0  0  0  0  0  0  0  0  0  0
   -1.3540   -0.5200    0.2090 N   0  0  0  0  0  0  0  0  0  0  0  0
   -2.7560   -0.6070    0.0200 C   0  0  0  0  0  0  0  0  0  0  0  0
   -3.4870   -1.4990    0.8270 C   0  0  0  0  0  0  0  0  0  0  0  0
   -4.8440   -1.6180    0.7080 C   0  0  0  0  0  0  0  0  0  0  0  0
   -5.5900   -0.8900   -0.1940 C   0  0  0  0  0  0  0  0  0  0  0  0
   -6.9990   -1.0300   -0.2850 N   0  0  0  0  0  0  0  0  0  0  0  0
   -7.6440   -1.8780    0.7280 C   0  0  0  0  0  0  0  0  0  0  0  0
   -9.1370   -1.6510    0.6270 C   0  0  0  0  0  0  0  0  0  0  0  0
   -9.3810   -0.2230    0.6300 N   0  0  2  0  0  0  0  0  0  0  0  0
  -10.8030   -0.0210    0.8360 C   0  0  0  0  0  0  0  0  0  0  0  0
   -8.8990    0.4120   -0.5810 C   0  0  0  0  0  0  0  0  0  0  0  0
   -7.8430   -0.4280   -1.2680 C   0  0  0  0  0  0  0  0  0  0  0  0
   -4.8780   -0.0180   -0.9840 C   0  0  0  0  0  0  0  0  0  0  0  0
   -3.4800    0.1210   -0.8780 C   0  0  0  0  0  0  0  0  0  0  0  0
    0.8390    0.2100   -0.3620 N   0  0  0  0  0  0  0  0  0  0  0  0
    1.7600    0.8360   -1.0890 C   0  0  0  0  0  0  0  0  0  0  0  0
    3.1290    0.8850   -0.7590 N   0  0  0  0  0  0  0  0  0  0  0  0
    3.6830    0.2210    0.3600 C   0  0  0  0  0  0  0  0  0  0  0  0
    3.0910   -0.8090    1.0250 C   0  0  0  0  0  0  0  0  0  0  0  0
    3.7380   -1.3720    2.1390 C   0  0  0  0  0  0  0  0  0  0  0  0
    4.9530   -0.9140    2.5780 C   0  0  0  0  0  0  0  0  0  0  0  0
    5.7240   -1.6410    3.9690 Cl  0  0  0  0  0  0  0  0  0  0  0  0
    5.5740    0.1390    1.9090 C   0  0  0  0  0  0  0  0  0  0  0  0
    6.8190    0.5910    2.4080 N   0  0  0  0  0  0  0  0  0  0  0  0
    7.9440    1.3740    1.4100 S   0  0  2  0  0  0  0  0  0  0  0  0
    9.0980    1.8540    2.2860 O   0  0  0  0  0  0  0  0  0  0  0  0
    7.3480    2.6400    0.7990 O   0  0  0  0  0  0  0  0  0  0  0  0
    8.5560    0.4190    0.0740 C   0  0  1  0  0  0  0  0  0  0  0  0
    9.5600    1.2220   -0.7650 C   0  0  0  0  0  0  0  0  0  0  0  0
    9.3060   -0.7680    0.6800 C   0  0  0  0  0  0  0  0  0  0  0  0
    7.5310   -0.1060   -0.8710 C   0  0  0  0  0  0  0  0  0  0  0  0
    4.9280    0.6620    0.8400 C   0  0  0  0  0  0  0  0  0  0  0  0
  1  2  1  0
  2  3  2  0
  2 21  1  0
  3  4  1  0
  4  5  2  0
  5  6  1  0
  5 20  1  0
  6  7  1  0
  7  8  2  0
  7 19  1  0
  8  9  1  0
  9 10  2  0
 10 11  1  0
 10 18  1  0
 11 12  1  0
 11 17  1  0
 12 13  1  0
 13 14  1  0
 14 15  1  6
 14 16  1  0
 16 17  1  0
 18 19  2  0
 20 21  2  0
 21 22  1  0
 22 23  1  0
 23 24  2  0
 23 37  1  0
 24 25  1  0
 25 26  2  0
 26 27  1  0
 26 28  1  0
 28 29  1  0
 28 37  2  0
 30 29  1  1
 30 31  2  0
 30 32  2  0
 30 33  1  0
 33 34  1  6
 33 35  1  0
 33 36  1  0
M  CHG  1  14   1
M  END
