
     RDKit          3D

 37 40  0  0  0  0  0  0  0  0999 V2000
    6.3550    3.3080   -1.1760 C   0  0  0  0  0  0  0  0  0  0  0  0
    7.1470    2.2590   -0.6830 O   0  0  0  0  0  0  0  0  0  0  0  0
    6.5240    1.1180   -0.1930 C   0  0  0  0  0  0  0  0  0  0  0  0
    5.1360    1.0150   -0.1900 C   0  0  0  0  0  0  0  0  0  0  0  0
    4.5140   -0.1130    0.2950 C   0  0  0  0  0  0  0  0  0  0  0  0
    2.9990   -0.2460    0.3070 C   0  0  0  0  0  0  0  0  0  0  0  0
    2.4500    0.9490   -0.3250 C   0  0  0  0  0  0  0  0  0  0  0  0
    1.6070    1.8300    0.1380 C   0  0  0  0  0  0  0  0  0  0  0  0
    0.8000    1.9400    1.6650 S   0  0  0  0  0  0  0  0  0  0  0  0
    0.4450    0.5510    2.6540 C   0  0  0  0  0  0  0  0  0  0  0  0
   -0.6100   -0.2910    2.0680 C   0  0  0  0  0  0  0  0  0  0  0  0
   -1.8020   -0.4730    1.9960 N   0  0  0  0  0  0  0  0  0  0  0  0
   -2.4750   -1.3770    1.3580 C   0  0  0  0  0  0  0  0  0  0  0  0
   -4.0100   -1.4830    1.3660 C   0  0  0  0  0  0  0  0  0  0  0  0
   -4.5600   -0.6800    0.2710 C   0  0  0  0  0  0  0  0  0  0  0  0
   -3.8170   -0.0250   -0.5060 O   0  0  0  0  0  0  0  0  0  0  0  0
   -5.9150   -0.6080    0.0470 O   0  0  0  0  0  0  0  0  0  0  0  0
   -6.4560    0.1660   -1.0070 C   0  0  0  0  0  0  0  0  0  0  0  0
   -7.9550   -0.0150   -0.9380 C   0  0  1  0  0  0  0  0  0  0  0  0
   -8.6930    0.7340   -2.0220 C   0  0  0  0  0  0  0  0  0  0  0  0
  -10.0360   -0.0050   -1.9710 C   0  0  0  0  0  0  0  0  0  0  0  0
   -9.5180   -1.4140   -1.7650 C   0  0  0  0  0  0  0  0  0  0  0  0
   -8.3310   -1.3190   -1.0930 O   0  0  0  0  0  0  0  0  0  0  0  0
   -1.7250   -2.3160    0.6180 C   0  0  0  0  0  0  0  0  0  0  0  0
   -0.0290   -1.6730    1.0060 S   0  0  0  0  0  0  0  0  0  0  0  0
    1.3620    3.0090   -0.7800 C   0  0  0  0  0  0  0  0  0  0  0  0
    2.0600    3.0140   -1.9990 N   0  0  0  0  0  0  0  0  0  0  0  0
    0.5740    3.8950   -0.4240 O   0  0  0  0  0  0  0  0  0  0  0  0
    5.3060   -1.1310    0.7750 C   0  0  0  0  0  0  0  0  0  0  0  0
    4.6500   -2.2590    1.2580 C   0  0  0  0  0  0  0  0  0  0  0  0
    5.4500   -3.2790    1.7370 C   0  0  0  0  0  0  0  0  0  0  0  0
    4.8570   -4.3010    2.1750 O   0  0  0  0  0  0  0  0  0  0  0  0
    6.7810   -3.1840    1.7360 N   0  0  0  0  0  0  0  0  0  0  0  0
    7.4470   -2.1110    1.2780 C   0  0  0  0  0  0  0  0  0  0  0  0
    6.6820   -1.0710    0.7910 C   0  0  0  0  0  0  0  0  0  0  0  0
    7.2910    0.0850    0.2930 C   0  0  0  0  0  0  0  0  0  0  0  0
    8.6740    0.1960    0.2860 O   0  0  0  0  0  0  0  0  0  0  0  0
  1  2  1  0
  2  3  1  0
  3  4  1  0
  3 36  2  0
  4  5  2  0
  5  6  1  0
  5 29  1  0
  6  7  1  0
  7  8  2  3
  8  9  1  0
  8 26  1  0
  9 10  1  0
 10 11  1  0
 11 12  2  0
 11 25  1  0
 12 13  1  0
 13 14  1  0
 13 24  2  0
 14 15  1  0
 15 16  2  0
 15 17  1  0
 17 18  1  0
 19 18  1  6
 19 20  1  0
 19 23  1  0
 20 21  1  0
 21 22  1  0
 22 23  1  0
 24 25  1  0
 26 27  1  0
 26 28  2  0
 29 30  2  0
 29 35  1  0
 30 31  1  0
 31 32  2  0
 31 33  1  0
 33 34  1  0
 34 35  2  0
 35 36  1  0
 36 37  1  0
M  END
