
     RDKit          3D

 37 40  0  0  0  0  0  0  0  0999 V2000
    1.0840   -1.0190   -3.3930 C   0  0  0  0  0  0  0  0  0  0  0  0
    1.4210   -1.8520   -2.1810 C   0  0  0  0  0  0  0  0  0  0  0  0
    0.6920   -1.4400   -0.9330 C   0  0  2  0  0  0  0  0  0  0  0  0
   -0.7590   -1.5270   -1.0670 C   0  0  0  0  0  0  0  0  0  0  0  0
   -1.3370   -2.1140   -2.0310 O   0  0  0  0  0  0  0  0  0  0  0  0
   -1.6220   -0.9250   -0.0670 C   0  0  0  0  0  0  0  0  0  0  0  0
   -1.1670    0.0180    0.7350 C   0  0  0  0  0  0  0  0  0  0  0  0
   -2.0020    0.5690    1.6680 O   0  0  0  0  0  0  0  0  0  0  0  0
   -3.3810    0.4500    1.5430 N   0  0  0  0  0  0  0  0  0  0  0  0
   -4.0670    1.0320    0.4710 C   0  0  0  0  0  0  0  0  0  0  0  0
   -3.3190    1.6730   -0.3870 O   0  0  0  0  0  0  0  0  0  0  0  0
   -5.4720    1.0350    0.1590 C   0  0  0  0  0  0  0  0  0  0  0  0
   -6.1020    1.8190   -1.3510 S   0  0  0  0  0  0  0  0  0  0  0  0
   -7.8490    1.4320   -1.0520 C   0  0  0  0  0  0  0  0  0  0  0  0
   -8.9520    1.8080   -1.9490 C   0  0  0  0  0  0  0  0  0  0  0  0
   -7.7900    0.7740    0.1130 C   0  0  0  0  0  0  0  0  0  0  0  0
   -6.6280    0.5590    0.7450 C   0  0  0  0  0  0  0  0  0  0  0  0
   -6.7920   -0.1740    2.0580 C   0  0  0  0  0  0  0  0  0  0  0  0
   -7.8870    0.5970    2.8040 C   0  0  0  0  0  0  0  0  0  0  0  0
   -9.0770    0.5970    2.1370 O   0  0  0  0  0  0  0  0  0  0  0  0
   -9.0100    0.1850    0.8360 C   0  0  0  0  0  0  0  0  0  0  0  0
    0.2370    0.4190    0.5670 C   0  0  0  0  0  0  0  0  0  0  0  0
    0.6670    1.3400    1.3520 O   0  0  0  0  0  0  0  0  0  0  0  0
    1.0880   -0.1720   -0.4100 N   0  0  0  0  0  0  0  0  0  0  0  0
    2.2980    0.5110   -0.8090 C   0  0  0  0  0  0  0  0  0  0  0  0
    3.5300    0.0250   -0.1330 C   0  0  0  0  0  0  0  0  0  0  0  0
    4.7470    0.0060   -0.8270 C   0  0  0  0  0  0  0  0  0  0  0  0
    5.9090   -0.4360   -0.2510 C   0  0  0  0  0  0  0  0  0  0  0  0
    7.4630   -0.4720   -1.1750 S   0  0  0  0  0  0  0  0  0  0  0  0
    8.3670    1.0710   -1.0330 C   0  0  0  0  0  0  0  0  0  0  0  0
    8.8170    1.2500    0.3990 C   0  0  0  0  0  0  0  0  0  0  0  0
    9.7160    0.1490    0.8650 C   0  0  0  0  0  0  0  0  0  0  0  0
   10.0610    0.4430    2.2050 O   0  0  0  0  0  0  0  0  0  0  0  0
    5.8970   -0.8670    1.0220 N   0  0  0  0  0  0  0  0  0  0  0  0
    4.7470   -0.8630    1.7200 C   0  0  0  0  0  0  0  0  0  0  0  0
    4.7480   -1.2760    2.9280 O   0  0  0  0  0  0  0  0  0  0  0  0
    3.5520   -0.4220    1.1620 C   0  0  0  0  0  0  0  0  0  0  0  0
  1  2  1  0
  3  2  1  6
  3  4  1  0
  3 24  1  0
  4  5  2  0
  4  6  1  0
  6  7  2  0
  7  8  1  0
  7 22  1  0
  8  9  1  0
  9 10  1  0
 10 11  2  0
 10 12  1  0
 12 13  1  0
 12 17  2  0
 13 14  1  0
 14 15  1  0
 14 16  2  0
 16 17  1  0
 16 21  1  0
 17 18  1  0
 18 19  1  0
 19 20  1  0
 20 21  1  0
 22 23  2  0
 22 24  1  0
 24 25  1  0
 25 26  1  0
 26 27  1  0
 26 37  2  0
 27 28  2  0
 28 29  1  0
 28 34  1  0
 29 30  1  0
 30 31  1  0
 31 32  1  0
 32 33  1  0
 34 35  1  0
 35 36  2  0
 35 37  1  0
M  END
