
     RDKit          3D

 36 38  0  0  0  0  0  0  0  0999 V2000
    3.9370   -0.9890    5.8270 C   0  0  0  0  0  0  0  0  0  0  0  0
    4.4920   -0.2090    4.6980 C   0  0  0  0  0  0  0  0  0  0  0  0
    3.9550   -0.4000    3.4610 C   0  0  0  0  0  0  0  0  0  0  0  0
    4.3550    0.2250    2.3740 N   0  0  0  0  0  0  0  0  0  0  0  0
    4.7520    0.7570    1.4360 C   0  0  0  0  0  0  0  0  0  0  0  0
    3.7870    1.4920    0.4640 C   0  0  0  0  0  0  0  0  0  0  0  0
    3.8280    0.6400   -0.7180 N   0  0  0  0  0  0  0  0  0  0  0  0
    2.6650    0.2430   -1.3850 C   0  0  0  0  0  0  0  0  0  0  0  0
    2.8170   -0.5710   -2.3840 O   0  0  0  0  0  0  0  0  0  0  0  0
    1.3370    0.6860   -1.0170 C   0  0  0  0  0  0  0  0  0  0  0  0
    0.1790    0.3540   -1.5160 C   0  0  0  0  0  0  0  0  0  0  0  0
   -0.0500   -0.5890   -2.6160 C   0  0  2  0  0  0  0  0  0  0  0  0
   -0.6900    0.3760   -3.9850 Cl  0  0  0  0  0  0  0  0  0  0  0  0
   -1.0200   -1.7110   -2.2650 C   0  0  0  0  0  0  0  0  0  0  0  0
   -2.0420   -1.2060   -1.2420 C   0  0  0  0  0  0  0  0  0  0  0  0
   -2.1670    0.2050   -1.5280 N   0  0  0  0  0  0  0  0  0  0  0  0
   -3.1890    0.7630   -2.2710 C   0  0  0  0  0  0  0  0  0  0  0  0
   -3.1890    2.0270   -2.4920 O   0  0  0  0  0  0  0  0  0  0  0  0
   -4.2800    0.0040   -2.8280 C   0  0  0  0  0  0  0  0  0  0  0  0
   -4.4710   -1.2320   -2.6800 O   0  0  0  0  0  0  0  0  0  0  0  0
   -5.2540    0.7190   -3.6340 N   0  0  0  0  0  0  0  0  0  0  0  0
   -6.3630   -0.0850   -4.1830 C   0  0  0  0  0  0  0  0  0  0  0  0
   -7.1310   -0.6320   -3.0630 C   0  0  0  0  0  0  0  0  0  0  0  0
   -6.7710   -0.3260   -1.7250 N   0  0  0  0  0  0  0  0  0  0  0  0
   -8.1330   -1.3870   -3.3060 O   0  0  0  0  0  0  0  0  0  0  0  0
   -1.0580    1.0020   -0.9220 C   0  0  1  0  0  0  0  0  0  0  0  0
   -1.0760    0.6360    0.5270 C   0  0  0  0  0  0  0  0  0  0  0  0
   -2.1210    0.5900    1.3720 C   0  0  0  0  0  0  0  0  0  0  0  0
   -1.9530    0.2130    2.6470 C   0  0  0  0  0  0  0  0  0  0  0  0
   -0.6780   -0.1170    3.0310 C   0  0  0  0  0  0  0  0  0  0  0  0
   -0.1530   -0.5820    4.3620 C   0  0  0  0  0  0  0  0  0  0  0  0
    0.1920    0.5000    5.1380 F   0  0  0  0  0  0  0  0  0  0  0  0
    0.2790    0.1170    1.5470 S   0  0  0  0  0  0  0  0  0  0  0  0
    5.1210    0.1720   -1.2030 C   0  0  0  0  0  0  0  0  0  0  0  0
    6.2640    0.8110   -0.4540 C   0  0  0  0  0  0  0  0  0  0  0  0
    6.0700    0.8740    0.9550 O   0  0  0  0  0  0  0  0  0  0  0  0
  1  2  1  0
  2  3  2  3
  3  4  1  0
  4  5  2  3
  5  6  1  0
  5 36  1  0
  6  7  1  0
  7  8  1  0
  7 34  1  0
  8  9  2  0
  8 10  1  0
 10 11  2  3
 11 12  1  0
 11 26  1  0
 12 13  1  6
 12 14  1  0
 14 15  1  0
 15 16  1  0
 16 17  1  0
 16 26  1  0
 17 18  2  0
 17 19  1  0
 19 20  2  0
 19 21  1  0
 21 22  1  0
 22 23  1  0
 23 24  1  0
 23 25  2  0
 26 27  1  1
 27 28  2  0
 27 33  1  0
 28 29  1  0
 29 30  2  0
 30 31  1  0
 30 33  1  0
 31 32  1  0
 34 35  1  0
 35 36  1  0
M  END
