
     RDKit          3D

 37 40  0  0  0  0  0  0  0  0999 V2000
    1.2720   -1.0140   -3.2470 C   0  0  0  0  0  0  0  0  0  0  0  0
    1.2690   -0.1180   -2.1670 O   0  0  0  0  0  0  0  0  0  0  0  0
    1.1630   -0.5800   -0.8180 C   0  0  0  0  0  0  0  0  0  0  0  0
    2.2570   -0.9210   -0.1980 C   0  0  0  0  0  0  0  0  0  0  0  0
    3.5480   -0.8320   -0.8490 C   0  0  0  0  0  0  0  0  0  0  0  0
    4.6960   -1.1680   -0.2750 C   0  0  0  0  0  0  0  0  0  0  0  0
    4.7650   -1.6720    1.1010 C   0  0  0  0  0  0  0  0  0  0  0  0
    5.9010   -2.5020    1.2940 O   0  0  0  0  0  0  0  0  0  0  0  0
    7.0790   -2.3850    0.6070 C   0  0  0  0  0  0  0  0  0  0  0  0
    8.2490   -2.9750    1.0260 C   0  0  0  0  0  0  0  0  0  0  0  0
    9.4150   -2.8350    0.3050 C   0  0  0  0  0  0  0  0  0  0  0  0
    9.4530   -2.0940   -0.8670 C   0  0  0  0  0  0  0  0  0  0  0  0
    8.2710   -1.5130   -1.2670 C   0  0  0  0  0  0  0  0  0  0  0  0
    7.0890   -1.6400   -0.5630 C   0  0  0  0  0  0  0  0  0  0  0  0
    5.9050   -1.0520   -0.9740 O   0  0  0  0  0  0  0  0  0  0  0  0
   -0.1850   -0.6280   -0.2380 C   0  0  0  0  0  0  0  0  0  0  0  0
   -1.1820   -0.2690   -1.0440 C   0  0  0  0  0  0  0  0  0  0  0  0
   -2.5660   -0.2300   -0.7720 C   0  0  0  0  0  0  0  0  0  0  0  0
   -3.3190    0.2520   -1.7080 O   0  0  0  0  0  0  0  0  0  0  0  0
   -3.2640   -0.6750    0.4130 C   0  0  2  0  0  0  0  0  0  0  0  0
   -3.3640   -2.1850    0.4060 C   0  0  0  0  0  0  0  0  0  0  0  0
   -4.6280   -0.0320    0.5940 C   0  0  1  0  0  0  0  0  0  0  0  0
   -4.4250    1.3980    0.6930 N   0  0  0  0  0  0  0  0  0  0  0  0
   -5.1380    2.0350   -0.3650 C   0  0  0  0  0  0  0  0  0  0  0  0
   -5.8760    0.9750   -1.0950 C   0  0  0  0  0  0  0  0  0  0  0  0
   -6.7390    1.0680   -2.1660 C   0  0  0  0  0  0  0  0  0  0  0  0
   -7.3250   -0.0590   -2.7000 C   0  0  0  0  0  0  0  0  0  0  0  0
   -7.0230   -1.2730   -2.1340 C   0  0  0  0  0  0  0  0  0  0  0  0
   -6.1530   -1.3560   -1.0560 C   0  0  0  0  0  0  0  0  0  0  0  0
   -5.5580   -0.2480   -0.5070 C   0  0  0  0  0  0  0  0  0  0  0  0
   -0.4160   -0.9980    1.0320 O   0  0  0  0  0  0  0  0  0  0  0  0
   -0.0120   -0.3810    2.2110 C   0  0  0  0  0  0  0  0  0  0  0  0
   -0.4530    1.0360    2.4340 C   0  0  0  0  0  0  0  0  0  0  0  0
   -0.0390    1.9900    1.4740 N   0  0  0  0  0  0  0  0  0  0  0  0
   -0.4820    3.3230    1.7120 C   0  0  1  0  0  0  0  0  0  0  0  0
    0.0330    3.9350    2.9930 C   0  0  0  0  0  0  0  0  0  0  0  0
   -0.0630    4.2340    0.5710 C   0  0  0  0  0  0  0  0  0  0  0  0
  1  2  1  0
  2  3  1  0
  3  4  2  3
  3 16  1  0
  4  5  1  0
  5  6  2  3
  6  7  1  0
  6 15  1  0
  7  8  1  0
  8  9  1  0
  9 10  2  0
  9 14  1  0
 10 11  1  0
 11 12  2  0
 12 13  1  0
 13 14  2  0
 14 15  1  0
 16 17  2  3
 16 31  1  0
 17 18  1  0
 18 19  2  0
 18 20  1  0
 20 21  1  6
 20 22  1  0
 22 23  1  6
 22 30  1  0
 23 24  1  0
 24 25  1  0
 25 26  2  0
 25 30  1  0
 26 27  1  0
 27 28  2  0
 28 29  1  0
 29 30  2  0
 31 32  1  0
 32 33  1  0
 33 34  1  0
 34 35  1  0
 35 36  1  1
 35 37  1  0
M  CHG  1  23   1
M  END
