
     RDKit          3D

 40 43  0  0  0  0  0  0  0  0999 V2000
   -6.3980    0.1050   -3.7660 C   0  0  0  0  0  0  0  0  0  0  0  0
   -6.7330    0.1130   -2.2850 C   0  0  0  0  0  0  0  0  0  0  0  0
   -5.4790    0.4110   -1.4600 C   0  0  2  0  0  0  0  0  0  0  0  0
   -4.4090   -0.6130   -1.6960 C   0  0  1  0  0  0  0  0  0  0  0  0
   -3.1180    0.0520   -2.1260 C   0  0  0  0  0  0  0  0  0  0  0  0
   -1.9880   -0.8720   -1.8150 C   0  0  0  0  0  0  0  0  0  0  0  0
   -1.8520   -0.9530   -0.3820 N   0  0  0  0  0  0  0  0  0  0  0  0
   -1.3880    0.5390    0.3550 S   0  0  0  0  0  0  0  0  0  0  0  0
   -0.9190    1.5680   -0.6650 O   0  0  0  0  0  0  0  0  0  0  0  0
   -0.1160    0.2000    1.5460 C   0  0  0  0  0  0  0  0  0  0  0  0
   -0.4530   -0.1630    2.8260 C   0  0  0  0  0  0  0  0  0  0  0  0
    0.5570   -0.4060    3.7400 C   0  0  0  0  0  0  0  0  0  0  0  0
    1.8670   -0.2810    3.3490 C   0  0  0  0  0  0  0  0  0  0  0  0
    2.8970   -0.5180    4.2440 O   0  0  0  0  0  0  0  0  0  0  0  0
    2.5640   -0.8920    5.5650 C   0  0  0  0  0  0  0  0  0  0  0  0
    2.2500    0.0870    2.0520 C   0  0  0  0  0  0  0  0  0  0  0  0
    3.6160    0.2110    1.7270 N   0  0  0  0  0  0  0  0  0  0  0  0
    4.1750    0.5470    0.4820 C   0  0  0  0  0  0  0  0  0  0  0  0
    3.4350    0.7700   -0.4960 O   0  0  0  0  0  0  0  0  0  0  0  0
    5.6790    0.6370    0.3410 C   0  0  0  0  0  0  0  0  0  0  0  0
    6.0540    1.0290   -1.0600 C   0  0  1  0  0  0  0  0  0  0  0  0
    5.5350   -0.0290   -2.0060 C   0  0  0  0  0  0  0  0  0  0  0  0
    5.4660    2.2590   -1.4080 O   0  0  0  0  0  0  0  0  0  0  0  0
    7.5230    1.0900   -1.1820 C   0  0  0  0  0  0  0  0  0  0  0  0
    8.3390    0.8220   -0.1080 C   0  0  0  0  0  0  0  0  0  0  0  0
    9.7100    0.8790   -0.1840 C   0  0  0  0  0  0  0  0  0  0  0  0
   10.3110    1.2120   -1.3670 C   0  0  0  0  0  0  0  0  0  0  0  0
   11.7790    1.2830   -1.4720 C   0  0  0  0  0  0  0  0  0  0  0  0
    9.5200    1.4860   -2.4660 C   0  0  0  0  0  0  0  0  0  0  0  0
    8.1350    1.4230   -2.3670 C   0  0  0  0  0  0  0  0  0  0  0  0
    1.2400    0.3210    1.1720 C   0  0  0  0  0  0  0  0  0  0  0  0
   -3.0450   -1.4280    0.2710 C   0  0  0  0  0  0  0  0  0  0  0  0
   -4.2260   -1.6260   -0.6180 C   0  0  1  0  0  0  0  0  0  0  0  0
   -5.4500   -1.7610    0.2670 C   0  0  1  0  0  0  0  0  0  0  0  0
   -5.1470   -2.6960    1.3320 N   0  0  0  0  0  0  0  0  0  0  0  0
   -6.3270   -2.7540    2.2110 C   0  0  0  0  0  0  0  0  0  0  0  0
   -5.8640   -0.4690    0.8800 C   0  0  0  0  0  0  0  0  0  0  0  0
   -5.8220    0.7060   -0.0550 C   0  0  1  0  0  0  0  0  0  0  0  0
   -4.8910    1.7860    0.4980 C   0  0  0  0  0  0  0  0  0  0  0  0
   -7.2310    1.3090   -0.0180 C   0  0  0  0  0  0  0  0  0  0  0  0
  1  2  1  0
  3  2  1  6
  3  4  1  0
  3 38  1  0
  4  5  1  1
  4 33  1  0
  5  6  1  0
  6  7  1  0
  8  7  1  6
  7 32  1  0
  8  9  2  0
  8 10  1  0
 10 11  2  0
 10 31  1  0
 11 12  1  0
 12 13  2  0
 13 14  1  0
 13 16  1  0
 14 15  1  0
 16 17  1  0
 16 31  2  0
 17 18  1  0
 18 19  2  0
 18 20  1  0
 20 21  1  0
 21 22  1  6
 21 23  1  0
 21 24  1  0
 24 25  2  0
 24 30  1  0
 25 26  1  0
 26 27  2  0
 27 28  1  0
 27 29  1  0
 29 30  2  0
 33 32  1  1
 33 34  1  0
 34 35  1  1
 34 37  1  0
 35 36  1  0
 37 38  1  0
 38 39  1  1
 38 40  1  0
M  CHG  1  35   1
M  END
