
     RDKit          3D

 37 40  0  0  0  0  0  0  0  0999 V2000
    9.2330   -0.5170   -0.1780 C   0  0  0  0  0  0  0  0  0  0  0  0
    8.6820    0.6620    0.5960 C   0  0  0  0  0  0  0  0  0  0  0  0
    7.3830    1.0190    0.1230 O   0  0  0  0  0  0  0  0  0  0  0  0
    6.3260    0.1190    0.1630 C   0  0  0  0  0  0  0  0  0  0  0  0
    6.5690   -1.0220    0.6350 O   0  0  0  0  0  0  0  0  0  0  0  0
    4.9480    0.4140   -0.3080 C   0  0  0  0  0  0  0  0  0  0  0  0
    4.0890    0.6420    0.8790 C   0  0  0  0  0  0  0  0  0  0  0  0
    2.7050    0.9380    0.7200 C   0  0  0  0  0  0  0  0  0  0  0  0
    1.5360    0.3610    0.7910 C   0  0  0  0  0  0  0  0  0  0  0  0
    0.2730    1.1240    0.5410 C   0  0  0  0  0  0  0  0  0  0  0  0
    0.4350    2.5180    0.2020 C   0  0  0  0  0  0  0  0  0  0  0  0
    1.0760    2.5980   -1.1730 C   0  0  0  0  0  0  0  0  0  0  0  0
    1.3060    1.4200   -2.0240 C   0  0  0  0  0  0  0  0  0  0  0  0
    1.3940    3.7160   -1.5360 O   0  0  0  0  0  0  0  0  0  0  0  0
   -0.9530    0.5630    0.6230 C   0  0  0  0  0  0  0  0  0  0  0  0
   -2.1450    1.4140    0.3530 C   0  0  0  0  0  0  0  0  0  0  0  0
   -3.0120    1.0010   -0.7540 C   0  0  0  0  0  0  0  0  0  0  0  0
   -2.6040    1.3010   -2.0810 C   0  0  0  0  0  0  0  0  0  0  0  0
   -3.2610    0.8980   -3.1890 C   0  0  0  0  0  0  0  0  0  0  0  0
   -4.3990    0.1470   -3.0610 C   0  0  0  0  0  0  0  0  0  0  0  0
   -5.0760   -0.2720   -4.1950 O   0  0  0  0  0  0  0  0  0  0  0  0
   -4.8440   -0.1740   -1.7840 C   0  0  0  0  0  0  0  0  0  0  0  0
   -4.1530    0.2530   -0.6400 C   0  0  0  0  0  0  0  0  0  0  0  0
   -4.7090   -0.0640    0.6350 N   0  0  0  0  0  0  0  0  0  0  0  0
   -5.8970   -0.7830    0.7390 C   0  0  0  0  0  0  0  0  0  0  0  0
   -6.4580   -1.0870    2.0770 C   0  0  0  0  0  0  0  0  0  0  0  0
   -6.7750    0.2550    2.7220 C   0  0  0  0  0  0  0  0  0  0  0  0
   -6.5120   -1.1790   -0.3080 N   0  0  0  0  0  0  0  0  0  0  0  0
   -6.0790   -0.9510   -1.6470 C   0  0  0  0  0  0  0  0  0  0  0  0
   -1.0750   -0.8350    0.9620 C   0  0  0  0  0  0  0  0  0  0  0  0
   -2.1760   -1.4470    1.0630 O   0  0  0  0  0  0  0  0  0  0  0  0
    0.1250   -1.6220    1.2100 C   0  0  0  0  0  0  0  0  0  0  0  0
    0.0010   -2.9700    1.5000 C   0  0  0  0  0  0  0  0  0  0  0  0
    1.0750   -3.8050    1.7140 C   0  0  0  0  0  0  0  0  0  0  0  0
    2.3260   -3.2210    1.6230 C   0  0  0  0  0  0  0  0  0  0  0  0
    2.4940   -1.8840    1.3380 C   0  0  0  0  0  0  0  0  0  0  0  0
    1.4100   -1.0550    1.1300 C   0  0  0  0  0  0  0  0  0  0  0  0
  1  2  1  0
  2  3  1  0
  3  4  1  0
  4  5  2  0
  4  6  1  0
  6  7  1  0
  7  8  1  0
  8  9  2  3
  9 10  1  0
  9 37  1  0
 10 11  1  0
 10 15  2  0
 11 12  1  0
 12 13  1  0
 12 14  2  0
 15 16  1  0
 15 30  1  0
 16 17  1  0
 17 18  2  0
 17 23  1  0
 18 19  1  0
 19 20  2  0
 20 21  1  0
 20 22  1  0
 22 23  2  0
 22 29  1  0
 23 24  1  0
 24 25  1  0
 25 26  1  0
 25 28  2  0
 26 27  1  0
 28 29  1  0
 30 31  2  0
 30 32  1  0
 32 33  2  0
 32 37  1  0
 33 34  1  0
 34 35  2  0
 35 36  1  0
 36 37  2  0
M  CHG  1  28   1
M  END
