
     RDKit          3D

 40 44  0  0  0  0  0  0  0  0999 V2000
   -1.5150    5.0640   -1.4690 C   0  0  0  0  0  0  0  0  0  0  0  0
   -2.5640    3.9980   -1.2300 C   0  0  0  0  0  0  0  0  0  0  0  0
   -2.2440    3.2590    0.0560 C   0  0  0  0  0  0  0  0  0  0  0  0
   -3.2610    2.1880    0.3520 C   0  0  1  0  0  0  0  0  0  0  0  0
   -3.2460    1.1930   -0.8210 C   0  0  0  0  0  0  0  0  0  0  0  0
   -4.0260    0.0310   -0.5180 N   0  0  0  0  0  0  0  0  0  0  0  0
   -3.1760   -1.1670   -0.2250 C   0  0  2  0  0  0  0  0  0  0  0  0
   -4.1970   -2.0960    0.3770 C   0  0  0  0  0  0  0  0  0  0  0  0
   -4.0600   -2.7330    1.5410 C   0  0  0  0  0  0  0  0  0  0  0  0
   -5.2770   -3.5770    1.8350 C   0  0  0  0  0  0  0  0  0  0  0  0
   -6.3340   -2.7900    1.0540 C   0  0  0  0  0  0  0  0  0  0  0  0
   -5.4980   -2.4930   -0.1970 C   0  0  2  0  0  0  0  0  0  0  0  0
   -5.4120   -3.7340   -0.9040 N   0  0  0  0  0  0  0  0  0  0  0  0
   -5.2270   -3.5960   -2.3300 C   0  0  0  0  0  0  0  0  0  0  0  0
   -2.0660   -0.8210    0.6540 C   0  0  0  0  0  0  0  0  0  0  0  0
   -0.8630   -1.3450    0.6960 C   0  0  0  0  0  0  0  0  0  0  0  0
    0.1660   -0.8030    1.6910 C   0  0  0  0  0  0  0  0  0  0  0  0
    1.5400   -0.6290    1.1720 C   0  0  0  0  0  0  0  0  0  0  0  0
    1.8480   -1.4230   -0.0090 C   0  0  0  0  0  0  0  0  0  0  0  0
    2.9350   -1.1960   -0.7300 C   0  0  0  0  0  0  0  0  0  0  0  0
    3.9430   -0.1820   -0.4780 C   0  0  0  0  0  0  0  0  0  0  0  0
    4.9970   -0.0680   -1.3050 C   0  0  0  0  0  0  0  0  0  0  0  0
    6.0370    0.9260   -1.1080 C   0  0  0  0  0  0  0  0  0  0  0  0
    5.9690    1.7590   -0.0900 C   0  0  0  0  0  0  0  0  0  0  0  0
    6.9830    2.7790    0.1610 C   0  0  0  0  0  0  0  0  0  0  0  0
    6.9610    3.5880    1.1120 O   0  0  0  0  0  0  0  0  0  0  0  0
    8.0700    2.8310   -0.7670 N   0  0  0  0  0  0  0  0  0  0  0  0
    7.7260    2.4080   -2.1310 C   0  0  0  0  0  0  0  0  0  0  0  0
    7.1890    1.0100   -2.0440 C   0  0  0  0  0  0  0  0  0  0  0  0
    4.8300    1.7140    0.8720 C   0  0  1  0  0  0  0  0  0  0  0  0
    5.3350    1.4540    2.2770 C   0  0  0  0  0  0  0  0  0  0  0  0
    4.1750    3.0820    0.8510 C   0  0  0  0  0  0  0  0  0  0  0  0
    3.9050    0.7010    0.5760 O   0  0  0  0  0  0  0  0  0  0  0  0
    0.9420   -2.4990   -0.3700 C   0  0  0  0  0  0  0  0  0  0  0  0
   -0.3780   -2.4860   -0.0390 C   0  0  0  0  0  0  0  0  0  0  0  0
   -1.1610   -3.6620   -0.3210 C   0  0  0  0  0  0  0  0  0  0  0  0
   -2.2180   -3.6540   -1.1630 O   0  0  0  0  0  0  0  0  0  0  0  0
   -2.3090    0.2230    1.7150 C   0  0  0  0  0  0  0  0  0  0  0  0
   -1.8980   -0.2020    3.2360 S   0  0  0  0  0  0  0  0  0  0  0  0
   -2.8430    1.4800    1.4960 O   0  0  0  0  0  0  0  0  0  0  0  0
  1  2  1  0
  2  3  1  0
  4  3  1  6
  4  5  1  0
  4 40  1  0
  5  6  1  0
  6  7  1  0
  7  8  1  1
  7 15  1  0
  8  9  2  0
  8 12  1  0
  9 10  1  0
 10 11  1  0
 11 12  1  0
 12 13  1  6
 13 14  1  0
 15 16  2  3
 15 38  1  0
 16 17  1  0
 16 35  1  0
 17 18  1  0
 18 19  1  0
 19 20  2  3
 19 34  1  0
 20 21  1  0
 21 22  2  0
 21 33  1  0
 22 23  1  0
 23 24  2  0
 23 29  1  0
 24 25  1  0
 24 30  1  0
 25 26  2  0
 25 27  1  0
 27 28  1  0
 28 29  1  0
 30 31  1  1
 30 32  1  0
 30 33  1  0
 34 35  2  0
 35 36  1  0
 36 37  1  0
 38 39  2  0
 38 40  1  0
M  CHG  1  13   1
M  END
