
     RDKit          3D

 37 40  0  0  0  0  0  0  0  0999 V2000
    2.9600    6.7080    0.4050 C   0  0  0  0  0  0  0  0  0  0  0  0
    3.2690    5.7230    1.4970 C   0  0  0  0  0  0  0  0  0  0  0  0
    2.6470    4.5120    1.2490 O   0  0  0  0  0  0  0  0  0  0  0  0
    1.3040    4.2580    1.1400 C   0  0  0  0  0  0  0  0  0  0  0  0
    0.3410    5.2180    1.2760 C   0  0  0  0  0  0  0  0  0  0  0  0
   -0.9770    4.9250    1.1620 C   0  0  0  0  0  0  0  0  0  0  0  0
   -1.3410    3.5860    0.8950 C   0  0  0  0  0  0  0  0  0  0  0  0
   -2.6900    3.3310    0.7880 O   0  0  0  0  0  0  0  0  0  0  0  0
   -3.6330    4.3500    0.9360 C   0  0  0  0  0  0  0  0  0  0  0  0
   -0.4150    2.5930    0.7500 C   0  0  0  0  0  0  0  0  0  0  0  0
   -0.7770    1.2470    0.4850 C   0  0  0  0  0  0  0  0  0  0  0  0
   -2.1900    0.9770    0.3980 C   0  0  0  0  0  0  0  0  0  0  0  0
   -2.8710   -0.2130    0.2450 N   0  0  1  0  0  0  0  0  0  0  0  0
   -3.3180   -0.6020   -1.0990 C   0  0  0  0  0  0  0  0  0  0  0  0
   -4.7410   -1.1770   -0.8960 C   0  0  0  0  0  0  0  0  0  0  0  0
   -4.7410   -2.2990    0.0820 C   0  0  1  0  0  0  0  0  0  0  0  0
   -6.1660   -2.6030    0.5070 C   0  0  0  0  0  0  0  0  0  0  0  0
   -4.2260   -3.5820   -0.5710 C   0  0  0  0  0  0  0  0  0  0  0  0
   -5.1390   -3.9330   -1.7410 C   0  0  0  0  0  0  0  0  0  0  0  0
   -3.9470   -2.0730    1.3360 C   0  0  0  0  0  0  0  0  0  0  0  0
   -2.5910   -1.4190    0.9430 C   0  0  0  0  0  0  0  0  0  0  0  0
    0.2830    0.3600    0.3690 C   0  0  0  0  0  0  0  0  0  0  0  0
   -0.0350   -0.9780    0.0720 O   0  0  0  0  0  0  0  0  0  0  0  0
   -0.0250   -1.2370   -1.3590 C   0  0  0  0  0  0  0  0  0  0  0  0
    1.6120    0.6590    0.4940 C   0  0  0  0  0  0  0  0  0  0  0  0
    2.7010   -0.2720    0.5110 C   0  0  0  0  0  0  0  0  0  0  0  0
    3.8840    0.2590    0.5450 O   0  0  0  0  0  0  0  0  0  0  0  0
    2.6370   -1.6690    0.4880 N   0  0  0  0  0  0  0  0  0  0  0  0
    3.7130   -2.6020    0.4580 C   0  0  0  0  0  0  0  0  0  0  0  0
    4.6080   -2.6420   -0.7150 C   0  0  2  0  0  0  0  0  0  0  0  0
    3.8920   -2.8780   -1.9150 O   0  0  0  0  0  0  0  0  0  0  0  0
    5.4850   -3.9250   -0.6070 C   0  0  0  0  0  0  0  0  0  0  0  0
    6.6700   -3.6340   -1.4820 C   0  0  0  0  0  0  0  0  0  0  0  0
    6.8110   -2.1490   -1.5580 C   0  0  0  0  0  0  0  0  0  0  0  0
    5.5950   -1.5570   -0.8160 C   0  0  0  0  0  0  0  0  0  0  0  0
    1.9130    2.0030    0.7540 C   0  0  0  0  0  0  0  0  0  0  0  0
    0.9110    2.9370    0.8750 C   0  0  0  0  0  0  0  0  0  0  0  0
  1  2  1  0
  2  3  1  0
  3  4  1  0
  4  5  2  0
  4 37  1  0
  5  6  1  0
  6  7  2  0
  7  8  1  0
  7 10  1  0
  8  9  1  0
 10 11  2  0
 10 37  1  0
 11 12  1  0
 11 22  1  0
 13 12  1  6
 13 14  1  0
 13 21  1  0
 14 15  1  0
 15 16  1  0
 16 17  1  1
 16 18  1  0
 16 20  1  0
 18 19  1  0
 20 21  1  0
 22 23  1  0
 22 25  2  0
 23 24  1  0
 25 26  1  0
 25 36  1  0
 26 27  2  0
 26 28  1  0
 28 29  1  0
 29 30  1  0
 30 31  1  6
 30 32  1  0
 30 35  1  0
 32 33  1  0
 33 34  1  0
 34 35  1  0
 36 37  2  0
M  CHG  1  13   1
M  END
