
     RDKit          3D

 40 43  0  0  0  0  0  0  0  0999 V2000
    8.2810   -1.4400    1.9270 C   0  0  0  0  0  0  0  0  0  0  0  0
    7.2880   -0.3300    2.1590 C   0  0  0  0  0  0  0  0  0  0  0  0
    6.5330   -0.0710    0.8490 C   0  0  0  0  0  0  0  0  0  0  0  0
    5.8510   -1.0670    0.3800 O   0  0  0  0  0  0  0  0  0  0  0  0
    5.1720   -2.0540   -0.0760 C   0  0  0  0  0  0  0  0  0  0  0  0
    3.6960   -2.1870   -0.1910 C   0  0  0  0  0  0  0  0  0  0  0  0
    2.9810   -1.2780   -1.0080 N   0  0  0  0  0  0  0  0  0  0  0  0
    2.8870   -1.5540   -2.4790 C   0  0  0  0  0  0  0  0  0  0  0  0
    1.6240   -2.3590   -2.6590 C   0  0  0  0  0  0  0  0  0  0  0  0
    1.4030   -2.7100   -3.9960 O   0  0  0  0  0  0  0  0  0  0  0  0
    2.3710   -0.1140   -0.5530 C   0  0  0  0  0  0  0  0  0  0  0  0
    1.7420    0.5380   -1.5310 O   0  0  0  0  0  0  0  0  0  0  0  0
    2.2460    0.5610    0.7360 C   0  0  0  0  0  0  0  0  0  0  0  0
    0.4850    0.9320    1.0850 S   0  0  0  0  0  0  0  0  0  0  0  0
   -0.3450   -0.5710    1.6790 C   0  0  2  0  0  0  0  0  0  0  0  0
   -0.0730   -1.7790    0.8480 C   0  0  0  0  0  0  0  0  0  0  0  0
   -1.3200   -2.6040    0.7280 C   0  0  0  0  0  0  0  0  0  0  0  0
   -2.2670   -1.9310    0.0090 O   0  0  0  0  0  0  0  0  0  0  0  0
   -2.5910   -0.6650    0.5000 C   0  0  2  0  0  0  0  0  0  0  0  0
   -4.0860   -0.6620    0.7280 C   0  0  0  0  0  0  0  0  0  0  0  0
   -4.8200    0.3030   -0.1430 C   0  0  2  0  0  0  0  0  0  0  0  0
   -6.3010    0.0940   -0.1500 C   0  0  0  0  0  0  0  0  0  0  0  0
   -7.0210    0.2060    1.1310 C   0  0  1  0  0  0  0  0  0  0  0  0
   -6.9260    1.5320    1.8220 C   0  0  0  0  0  0  0  0  0  0  0  0
   -7.6950    2.6170    1.0980 C   0  0  0  0  0  0  0  0  0  0  0  0
   -9.1290    2.2550    0.8360 C   0  0  0  0  0  0  0  0  0  0  0  0
   -9.1630    0.9630    0.0530 C   0  0  0  0  0  0  0  0  0  0  0  0
   -8.4870   -0.0980    0.8590 C   0  0  0  0  0  0  0  0  0  0  0  0
   -4.4090   -0.0040   -1.6020 C   0  0  0  0  0  0  0  0  0  0  0  0
   -2.9490    0.1510   -1.8360 C   0  0  2  0  0  0  0  0  0  0  0  0
   -2.7620    1.4330   -2.6590 C   0  0  0  0  0  0  0  0  0  0  0  0
   -2.4610   -0.9700   -2.7210 C   0  0  0  0  0  0  0  0  0  0  0  0
   -2.1580    0.3220   -0.5640 C   0  0  0  0  0  0  0  0  0  0  0  0
   -1.8400   -0.3130    1.7730 C   0  0  0  0  0  0  0  0  0  0  0  0
    6.6670    1.1590    0.3130 C   0  0  0  0  0  0  0  0  0  0  0  0
    5.9720    1.5160   -0.9440 C   0  0  0  0  0  0  0  0  0  0  0  0
    7.0010    2.4760   -1.5570 C   0  0  0  0  0  0  0  0  0  0  0  0
    7.4890    3.2130   -0.4200 N   0  0  0  0  0  0  0  0  0  0  0  0
    7.4650    2.3140    0.7250 C   0  0  2  0  0  0  0  0  0  0  0  0
    8.8220    2.0080    1.1480 N   0  0  0  0  0  0  0  0  0  0  0  0
  1  2  1  0
  2  3  1  0
  3  4  1  0
  3 35  2  3
  4  5  1  0
  5  6  1  0
  6  7  1  0
  7  8  1  0
  7 11  1  0
  8  9  1  0
  9 10  1  0
 11 12  2  0
 11 13  1  0
 13 14  1  0
 15 14  1  6
 15 16  1  0
 15 34  1  0
 16 17  1  0
 17 18  1  0
 18 19  1  0
 19 20  1  1
 19 33  1  0
 19 34  1  0
 20 21  1  0
 21 22  1  6
 21 29  1  0
 23 22  1  6
 23 24  1  0
 23 28  1  0
 24 25  1  0
 25 26  1  0
 26 27  1  0
 27 28  1  0
 29 30  1  0
 30 31  1  6
 30 32  1  0
 30 33  1  0
 35 36  1  0
 35 39  1  0
 36 37  1  0
 37 38  1  0
 38 39  1  0
 39 40  1  6
M  CHG  1  40   1
M  END
