
     RDKit          3D

 33 37  0  0  0  0  0  0  0  0999 V2000
    6.5300    2.9450    2.2280 C   0  0  0  0  0  0  0  0  0  0  0  0
    6.5650    1.7360    1.3090 C   0  0  2  0  0  0  0  0  0  0  0  0
    7.8880    1.7610    0.5980 C   0  0  0  0  0  0  0  0  0  0  0  0
    5.4150    1.6790    0.3800 C   0  0  0  0  0  0  0  0  0  0  0  0
    5.2720    2.6510   -0.5870 C   0  0  0  0  0  0  0  0  0  0  0  0
    4.2120    2.6120   -1.4570 C   0  0  0  0  0  0  0  0  0  0  0  0
    3.3070    1.5840   -1.3350 C   0  0  0  0  0  0  0  0  0  0  0  0
    3.4290    0.5940   -0.3710 C   0  0  0  0  0  0  0  0  0  0  0  0
    2.4500   -0.4480   -0.2900 N   0  0  0  0  0  0  0  0  0  0  0  0
    2.6510   -1.4740    0.6570 C   0  0  0  0  0  0  0  0  0  0  0  0
    1.8330   -2.7010    0.5510 C   0  0  0  0  0  0  0  0  0  0  0  0
    0.9430   -2.7540   -0.6590 C   0  0  1  0  0  0  0  0  0  0  0  0
    1.6210   -3.3400   -1.7140 O   0  0  0  0  0  0  0  0  0  0  0  0
   -0.2090   -3.7060   -0.3020 C   0  0  0  0  0  0  0  0  0  0  0  0
   -1.4860   -3.3020   -1.0080 C   0  0  0  0  0  0  0  0  0  0  0  0
   -1.9820   -1.9760   -0.4680 C   0  0  2  0  0  0  0  0  0  0  0  0
   -2.9540   -2.2420    0.6340 C   0  0  0  0  0  0  0  0  0  0  0  0
   -4.2850   -2.6690    0.0190 C   0  0  0  0  0  0  0  0  0  0  0  0
   -4.9390   -1.3860   -0.4730 C   0  0  0  0  0  0  0  0  0  0  0  0
   -3.9000   -0.5460   -1.0250 N   0  0  0  0  0  0  0  0  0  0  0  0
   -4.0690    0.8660   -1.0370 C   0  0  0  0  0  0  0  0  0  0  0  0
   -3.1910    1.6390   -1.5060 O   0  0  0  0  0  0  0  0  0  0  0  0
   -5.2950    1.4750   -0.4940 C   0  0  2  0  0  0  0  0  0  0  0  0
   -5.3450    2.9720   -0.5710 C   0  0  0  0  0  0  0  0  0  0  0  0
   -4.9370    3.0630    0.8160 N   0  0  0  0  0  0  0  0  0  0  0  0
   -5.7320    4.0500    1.5540 C   0  0  0  0  0  0  0  0  0  0  0  0
   -5.3360    1.7010    0.9920 C   0  0  0  0  0  0  0  0  0  0  0  0
   -2.7150   -1.1910   -1.5510 C   0  0  0  0  0  0  0  0  0  0  0  0
   -0.8040   -1.1260   -0.0530 C   0  0  1  0  0  0  0  0  0  0  0  0
   -0.3660   -1.3290    1.2250 O   0  0  0  0  0  0  0  0  0  0  0  0
    0.3230   -1.4560   -1.0130 C   0  0  1  0  0  0  0  0  0  0  0  0
    1.3250   -0.3820   -1.1650 C   0  0  0  0  0  0  0  0  0  0  0  0
    4.4870    0.6920    0.4470 N   0  0  0  0  0  0  0  0  0  0  0  0
  2  1  1  6
  2  3  1  0
  2  4  1  0
  4  5  2  0
  4 33  1  0
  5  6  1  0
  6  7  2  0
  7  8  1  0
  8  9  1  0
  8 33  2  0
  9 10  1  0
  9 32  1  0
 10 11  1  0
 11 12  1  0
 12 13  1  6
 12 14  1  0
 12 31  1  0
 14 15  1  0
 16 15  1  6
 16 17  1  0
 16 28  1  0
 16 29  1  0
 17 18  1  0
 18 19  1  0
 19 20  1  0
 20 21  1  0
 20 28  1  0
 21 22  2  0
 23 21  1  1
 23 24  1  0
 23 27  1  0
 24 25  1  0
 25 26  1  0
 25 27  1  0
 29 30  1  1
 29 31  1  0
 31 32  1  1
M  CHG  1  33   1
M  END
