
     RDKit          3D

 33 37  0  0  0  0  0  0  0  0999 V2000
   -9.8100   -0.3260    0.9870 C   0  0  0  0  0  0  0  0  0  0  0  0
   -8.8330    0.3470    0.0430 C   0  0  0  0  0  0  0  0  0  0  0  0
   -7.4300   -0.1510    0.2680 C   0  0  2  0  0  0  0  0  0  0  0  0
   -7.4320   -1.6430    0.0220 C   0  0  0  0  0  0  0  0  0  0  0  0
   -6.9990    0.2160    1.6740 C   0  0  0  0  0  0  0  0  0  0  0  0
   -5.8170    1.1520    1.3730 C   0  0  0  0  0  0  0  0  0  0  0  0
   -5.3100    0.4910    0.1010 C   0  0  2  0  0  0  0  0  0  0  0  0
   -4.3320    1.3140   -0.6530 C   0  0  2  0  0  0  0  0  0  0  0  0
   -3.8080    0.6130   -1.8740 C   0  0  0  0  0  0  0  0  0  0  0  0
   -2.5640   -0.0650   -1.4470 C   0  0  0  0  0  0  0  0  0  0  0  0
   -2.3990    0.2500    0.0110 N   0  0  2  0  0  0  0  0  0  0  0  0
   -1.1690    0.0190    0.5540 C   0  0  0  0  0  0  0  0  0  0  0  0
   -1.0990   -0.9870   -0.1080 O   0  0  0  0  0  0  0  0  0  0  0  0
   -0.0100    0.2120    1.3560 C   0  0  0  0  0  0  0  0  0  0  0  0
    0.9510   -0.8440    1.2580 N   0  0  0  0  0  0  0  0  0  0  0  0
    0.6270   -2.1890    1.7670 C   0  0  0  0  0  0  0  0  0  0  0  0
    2.2620   -0.7160    0.7250 C   0  0  0  0  0  0  0  0  0  0  0  0
    2.7230   -1.2340   -0.4380 C   0  0  0  0  0  0  0  0  0  0  0  0
    4.0450   -1.0700   -0.8210 C   0  0  0  0  0  0  0  0  0  0  0  0
    4.9550   -0.3840   -0.0640 C   0  0  0  0  0  0  0  0  0  0  0  0
    6.3250   -0.1950   -0.3150 N   0  0  0  0  0  0  0  0  0  0  0  0
    7.1510   -0.8970   -1.2020 C   0  0  0  0  0  0  0  0  0  0  0  0
    6.6600   -1.8140   -1.8890 O   0  0  0  0  0  0  0  0  0  0  0  0
    8.5910   -0.6030   -1.3640 C   0  0  0  0  0  0  0  0  0  0  0  0
    9.4410   -1.2190   -2.1690 C   0  0  0  0  0  0  0  0  0  0  0  0
   10.7320   -0.6770   -2.0610 N   0  0  0  0  0  0  0  0  0  0  0  0
   10.6500    0.3940   -1.0940 C   0  0  0  0  0  0  0  0  0  0  0  0
   11.8070    1.2460   -0.6940 C   0  0  0  0  0  0  0  0  0  0  0  0
    9.3900    0.4180   -0.6960 C   0  0  0  0  0  0  0  0  0  0  0  0
    4.4450    0.1400    1.1240 C   0  0  0  0  0  0  0  0  0  0  0  0
    3.1500   -0.0020    1.5360 C   0  0  0  0  0  0  0  0  0  0  0  0
   -3.0530    1.5150    0.1490 C   0  0  0  0  0  0  0  0  0  0  0  0
   -6.5440    0.4480   -0.6140 O   0  0  0  0  0  0  0  0  0  0  0  0
  1  2  1  0
  2  3  1  0
  3  4  1  1
  3  5  1  0
  3 33  1  0
  5  6  1  0
  7  6  1  1
  7  8  1  0
  7 33  1  0
  8  9  1  6
  8 32  1  0
  9 10  1  0
 11 10  1  6
 11 12  1  0
 11 32  1  0
 12 13  2  0
 12 14  1  0
 14 15  1  0
 15 16  1  0
 15 17  1  0
 17 18  2  0
 17 31  1  0
 18 19  1  0
 19 20  2  0
 20 21  1  0
 20 30  1  0
 21 22  1  0
 22 23  2  0
 22 24  1  0
 24 25  2  0
 24 29  1  0
 25 26  1  0
 26 27  1  0
 27 28  1  0
 27 29  2  0
 30 31  2  0
 13 11  1  0
M  CHG  2  11   1  26   1
M  END
