
     RDKit          3D

 32 35  0  0  0  0  0  0  0  0999 V2000
    5.7210    2.2440   -0.9320 C   0  0  0  0  0  0  0  0  0  0  0  0
    6.2410    0.9600   -0.3690 C   0  0  0  0  0  0  0  0  0  0  0  0
    7.5360    0.7990    0.0280 C   0  0  0  0  0  0  0  0  0  0  0  0
    7.9840   -0.4190    0.5510 C   0  0  0  0  0  0  0  0  0  0  0  0
    7.1120   -1.4560    0.6650 C   0  0  0  0  0  0  0  0  0  0  0  0
    5.7790   -1.3170    0.2640 C   0  0  0  0  0  0  0  0  0  0  0  0
    5.3570   -0.1060   -0.2500 C   0  0  0  0  0  0  0  0  0  0  0  0
    3.9540    0.0850   -0.6760 C   0  0  0  0  0  0  0  0  0  0  0  0
    3.1490   -1.0850   -0.5090 N   0  0  0  0  0  0  0  0  0  0  0  0
    1.7750   -0.8550   -0.9290 C   0  0  2  0  0  0  0  0  0  0  0  0
    1.0840    0.1980   -0.0980 C   0  0  0  0  0  0  0  0  0  0  0  0
   -0.2020   -0.3690    0.5600 C   0  0  1  0  0  0  0  0  0  0  0  0
   -0.5400    0.6030    1.6660 C   0  0  0  0  0  0  0  0  0  0  0  0
   -0.8880    1.8610    1.1840 O   0  0  0  0  0  0  0  0  0  0  0  0
   -1.2180   -0.6260   -0.3750 N   0  0  0  0  0  0  0  0  0  0  0  0
   -2.5190   -0.1640   -0.1670 C   0  0  0  0  0  0  0  0  0  0  0  0
   -3.2420   -0.8790    0.9000 C   0  0  0  0  0  0  0  0  0  0  0  0
   -2.7460   -2.0120    1.5580 C   0  0  0  0  0  0  0  0  0  0  0  0
   -3.4970   -2.6630    2.5080 C   0  0  0  0  0  0  0  0  0  0  0  0
   -4.7520   -2.2160    2.8300 C   0  0  0  0  0  0  0  0  0  0  0  0
   -5.2320   -1.1010    2.1760 C   0  0  0  0  0  0  0  0  0  0  0  0
   -4.5140   -0.4140    1.2170 C   0  0  0  0  0  0  0  0  0  0  0  0
   -5.0430    0.7330    0.5750 N   0  0  0  0  0  0  0  0  0  0  0  0
   -4.6820    2.1040    0.6700 C   0  0  0  0  0  0  0  0  0  0  0  0
   -3.9610    2.6050    1.5740 O   0  0  0  0  0  0  0  0  0  0  0  0
   -5.3350    2.7720   -0.5060 C   0  0  0  0  0  0  0  0  0  0  0  0
   -6.6380    1.9840   -0.6370 C   0  0  0  0  0  0  0  0  0  0  0  0
   -6.1490    0.6070   -0.3440 C   0  0  0  0  0  0  0  0  0  0  0  0
   -6.6610   -0.4230   -0.8460 O   0  0  0  0  0  0  0  0  0  0  0  0
   -0.7950   -0.7490   -1.7440 C   0  0  0  0  0  0  0  0  0  0  0  0
    0.0580   -2.0030   -1.8390 C   0  0  0  0  0  0  0  0  0  0  0  0
    1.0240   -2.0290   -0.8400 O   0  0  0  0  0  0  0  0  0  0  0  0
  1  2  1  0
  2  3  2  0
  2  7  1  0
  3  4  1  0
  4  5  2  0
  5  6  1  0
  6  7  2  0
  7  8  1  0
  8  9  1  0
 10  9  1  1
 10 11  1  0
 10 32  1  0
 11 12  1  0
 12 13  1  1
 12 15  1  0
 13 14  1  0
 15 16  1  0
 15 30  1  0
 16 17  1  0
 17 18  2  0
 17 22  1  0
 18 19  1  0
 19 20  2  0
 20 21  1  0
 21 22  2  0
 22 23  1  0
 23 24  1  0
 23 28  1  0
 24 25  2  0
 24 26  1  0
 26 27  1  0
 27 28  1  0
 28 29  2  0
 30 31  1  0
 31 32  1  0
M  END
