
     RDKit          3D

 38 41  0  0  0  0  0  0  0  0999 V2000
   -1.8860    3.8290   -1.7240 C   0  0  0  0  0  0  0  0  0  0  0  0
   -0.9790    2.7980   -1.1060 C   0  0  0  0  0  0  0  0  0  0  0  0
    0.3700    2.8050   -1.3490 C   0  0  0  0  0  0  0  0  0  0  0  0
    1.1370    1.8750   -0.7780 N   0  0  0  0  0  0  0  0  0  0  0  0
    0.7020    0.9060    0.0360 C   0  0  0  0  0  0  0  0  0  0  0  0
    1.5000   -0.0790    0.6300 N   0  0  0  0  0  0  0  0  0  0  0  0
    2.8740   -0.2160    0.4830 C   0  0  0  0  0  0  0  0  0  0  0  0
    3.5260   -1.3930    0.9040 C   0  0  0  0  0  0  0  0  0  0  0  0
    4.8810   -1.5640    0.7770 C   0  0  0  0  0  0  0  0  0  0  0  0
    5.6910   -0.5960    0.2300 C   0  0  0  0  0  0  0  0  0  0  0  0
    7.0980   -0.7700    0.0900 N   0  0  0  0  0  0  0  0  0  0  0  0
    7.9810    0.1140    0.8170 C   0  0  0  0  0  0  0  0  0  0  0  0
    9.2580   -0.7050    1.0440 C   0  0  0  0  0  0  0  0  0  0  0  0
    9.8770   -0.8430   -0.2590 N   0  0  1  0  0  0  0  0  0  0  0  0
   11.0670   -1.6920   -0.1020 C   0  0  0  0  0  0  0  0  0  0  0  0
    9.0470   -1.4600   -1.2380 C   0  0  0  0  0  0  0  0  0  0  0  0
    7.6690   -1.7920   -0.7610 C   0  0  0  0  0  0  0  0  0  0  0  0
    5.0720    0.5560   -0.1840 C   0  0  0  0  0  0  0  0  0  0  0  0
    5.8320    1.5360   -0.7270 F   0  0  0  0  0  0  0  0  0  0  0  0
    3.6870    0.7490   -0.0610 C   0  0  0  0  0  0  0  0  0  0  0  0
   -0.6530    0.9350    0.2520 N   0  0  0  0  0  0  0  0  0  0  0  0
   -1.4970    1.8040   -0.2610 C   0  0  0  0  0  0  0  0  0  0  0  0
   -2.8950    1.8110   -0.0410 N   0  0  0  0  0  0  0  0  0  0  0  0
   -3.6290    0.9250    0.7700 C   0  0  0  0  0  0  0  0  0  0  0  0
   -3.0890    0.0040    1.6260 C   0  0  0  0  0  0  0  0  0  0  0  0
   -3.9070   -0.8370    2.3780 C   0  0  0  0  0  0  0  0  0  0  0  0
   -5.2670   -0.7730    2.2890 C   0  0  0  0  0  0  0  0  0  0  0  0
   -6.3180   -1.8120    3.2180 Cl  0  0  0  0  0  0  0  0  0  0  0  0
   -5.8550    0.1570    1.4230 C   0  0  0  0  0  0  0  0  0  0  0  0
   -7.2650    0.2370    1.3430 N   0  0  0  0  0  0  0  0  0  0  0  0
   -8.0630    0.5540   -0.1240 S   0  0  1  0  0  0  0  0  0  0  0  0
   -9.0170    1.7110    0.0390 O   0  0  0  0  0  0  0  0  0  0  0  0
   -7.1210    0.8380   -1.2650 O   0  0  0  0  0  0  0  0  0  0  0  0
   -9.0500   -0.8410   -0.6580 C   0  0  2  0  0  0  0  0  0  0  0  0
  -10.1080   -1.1490    0.4070 C   0  0  0  0  0  0  0  0  0  0  0  0
   -8.2130   -2.0970   -0.7650 C   0  0  0  0  0  0  0  0  0  0  0  0
   -9.6790   -0.4700   -1.9770 C   0  0  0  0  0  0  0  0  0  0  0  0
   -5.0200    0.9630    0.7050 C   0  0  0  0  0  0  0  0  0  0  0  0
  1  2  1  0
  2  3  2  0
  2 22  1  0
  3  4  1  0
  4  5  2  0
  5  6  1  0
  5 21  1  0
  6  7  1  0
  7  8  2  0
  7 20  1  0
  8  9  1  0
  9 10  2  0
 10 11  1  0
 10 18  1  0
 11 12  1  0
 11 17  1  0
 12 13  1  0
 13 14  1  0
 14 15  1  1
 14 16  1  0
 16 17  1  0
 18 19  1  0
 18 20  2  0
 21 22  2  0
 22 23  1  0
 23 24  1  0
 24 25  2  0
 24 38  1  0
 25 26  1  0
 26 27  2  0
 27 28  1  0
 27 29  1  0
 29 30  1  0
 29 38  2  0
 31 30  1  1
 31 32  2  0
 31 33  2  0
 31 34  1  0
 34 35  1  1
 34 36  1  0
 34 37  1  0
M  CHG  1  14   1
M  END
