
     RDKit          3D

 32 35  0  0  0  0  0  0  0  0999 V2000
   -1.9150   -3.1490    1.3190 C   0  0  0  0  0  0  0  0  0  0  0  0
   -2.6550   -1.9480    0.9200 C   0  0  0  0  0  0  0  0  0  0  0  0
   -2.0530   -1.0130    0.0660 C   0  0  0  0  0  0  0  0  0  0  0  0
   -0.6780   -1.2040   -0.4360 C   0  0  0  0  0  0  0  0  0  0  0  0
    0.3920   -0.7850    0.5630 C   0  0  0  0  0  0  0  0  0  0  0  0
    1.7100   -1.0340   -0.0720 C   0  0  0  0  0  0  0  0  0  0  0  0
    1.7740   -1.5620   -1.2060 O   0  0  0  0  0  0  0  0  0  0  0  0
    2.9600   -0.7040    0.5290 N   0  0  0  0  0  0  0  0  0  0  0  0
    4.2150   -0.9610   -0.1190 C   0  0  2  0  0  0  0  0  0  0  0  0
    5.1200   -1.8160    0.7370 C   0  0  0  0  0  0  0  0  0  0  0  0
    6.3530   -2.2110   -0.0440 C   0  0  0  0  0  0  0  0  0  0  0  0
    6.8520   -1.1910   -0.8620 O   0  0  0  0  0  0  0  0  0  0  0  0
    6.3450    0.1260   -0.8550 C   0  0  0  0  0  0  0  0  0  0  0  0
    7.0840    1.1530   -1.1790 C   0  0  0  0  0  0  0  0  0  0  0  0
    6.5630    2.4210   -1.1620 O   0  0  0  0  0  0  0  0  0  0  0  0
    5.2430    2.6920   -0.8110 C   0  0  0  0  0  0  0  0  0  0  0  0
    4.4510    1.4910   -0.4510 C   0  0  0  0  0  0  0  0  0  0  0  0
    4.9500    0.2710   -0.4660 C   0  0  0  0  0  0  0  0  0  0  0  0
   -2.8220    0.0820   -0.2590 C   0  0  0  0  0  0  0  0  0  0  0  0
   -2.2950    1.1500   -1.1370 C   0  0  0  0  0  0  0  0  0  0  0  0
   -4.0980    0.2490    0.2200 N   0  0  0  0  0  0  0  0  0  0  0  0
   -4.8520    1.3930   -0.1440 C   0  0  0  0  0  0  0  0  0  0  0  0
   -5.5540    1.4080   -1.3420 C   0  0  0  0  0  0  0  0  0  0  0  0
   -6.2970    2.5200   -1.6980 C   0  0  0  0  0  0  0  0  0  0  0  0
   -6.3080    3.6040   -0.8180 C   0  0  0  0  0  0  0  0  0  0  0  0
   -5.6030    3.5620    0.3610 C   0  0  0  0  0  0  0  0  0  0  0  0
   -4.8590    2.4530    0.7220 C   0  0  0  0  0  0  0  0  0  0  0  0
   -4.6420   -0.6540    1.0270 C   0  0  0  0  0  0  0  0  0  0  0  0
   -5.8240   -0.4910    1.4650 O   0  0  0  0  0  0  0  0  0  0  0  0
   -3.9330   -1.7740    1.3970 C   0  0  0  0  0  0  0  0  0  0  0  0
   -4.5960   -2.7170    2.2770 C   0  0  0  0  0  0  0  0  0  0  0  0
   -5.1130   -3.4620    2.9910 N   0  0  0  0  0  0  0  0  0  0  0  0
  1  2  1  0
  2  3  1  0
  2 30  2  0
  3  4  1  0
  3 19  2  0
  4  5  1  0
  5  6  1  0
  6  7  2  0
  6  8  1  0
  9  8  1  1
  9 10  1  0
  9 18  1  0
 10 11  1  0
 11 12  1  0
 12 13  1  0
 13 14  2  0
 13 18  1  0
 14 15  1  0
 15 16  1  0
 16 17  1  0
 17 18  2  0
 19 20  1  0
 19 21  1  0
 21 22  1  0
 21 28  1  0
 22 23  2  0
 22 27  1  0
 23 24  1  0
 24 25  2  0
 25 26  1  0
 26 27  2  0
 28 29  2  0
 28 30  1  0
 30 31  1  0
 31 32  3  0
M  END
