
     RDKit          3D

 33 36  0  0  0  0  0  0  0  0999 V2000
    8.0550    2.4580   -0.9150 C   0  0  0  0  0  0  0  0  0  0  0  0
    6.9440    1.7860   -0.2000 C   0  0  2  0  0  0  0  0  0  0  0  0
    5.5600    2.3980   -0.5430 C   0  0  0  0  0  0  0  0  0  0  0  0
    4.6880    1.3810   -0.1510 N   0  0  2  0  0  0  0  0  0  0  0  0
    3.2250    1.4990   -0.3850 C   0  0  0  0  0  0  0  0  0  0  0  0
    2.9770    0.0540   -0.8040 C   0  0  0  0  0  0  0  0  0  0  0  0
    3.7900   -0.4880   -1.7660 C   0  0  0  0  0  0  0  0  0  0  0  0
    3.7050   -1.8950   -2.0040 C   0  0  0  0  0  0  0  0  0  0  0  0
    2.8240   -2.6380   -1.2610 C   0  0  0  0  0  0  0  0  0  0  0  0
    2.0070   -2.0730   -0.3050 C   0  0  0  0  0  0  0  0  0  0  0  0
    2.0920   -0.6710   -0.0900 C   0  0  0  0  0  0  0  0  0  0  0  0
    1.0980    0.0410    0.7340 C   0  0  0  0  0  0  0  0  0  0  0  0
    0.1410   -1.0210    1.1870 N   0  0  0  0  0  0  0  0  0  0  0  0
   -1.0110   -0.9900    0.3030 C   0  0  1  0  0  0  0  0  0  0  0  0
   -1.2480   -2.2220   -0.5080 C   0  0  0  0  0  0  0  0  0  0  0  0
   -2.5380   -2.9200   -0.0290 C   0  0  1  0  0  0  0  0  0  0  0  0
   -2.3960   -4.4480   -0.2020 C   0  0  0  0  0  0  0  0  0  0  0  0
   -3.4970   -4.8830    0.7780 C   0  0  0  0  0  0  0  0  0  0  0  0
   -3.4070   -3.8520    1.8780 C   0  0  0  0  0  0  0  0  0  0  0  0
   -2.5070   -2.8330    1.4160 N   0  0  2  0  0  0  0  0  0  0  0  0
   -2.9470   -1.5030    1.7670 C   0  0  0  0  0  0  0  0  0  0  0  0
   -2.2600   -0.4610    0.8880 C   0  0  2  0  0  0  0  0  0  0  0  0
   -3.1550    0.0050   -0.1780 N   0  0  0  0  0  0  0  0  0  0  0  0
   -4.0510    1.0880    0.0340 C   0  0  0  0  0  0  0  0  0  0  0  0
   -4.0580    1.6230    1.1970 O   0  0  0  0  0  0  0  0  0  0  0  0
   -4.8930    1.5850   -0.9540 O   0  0  0  0  0  0  0  0  0  0  0  0
   -5.6860    2.7040   -0.6700 C   0  0  2  0  0  0  0  0  0  0  0  0
   -4.7650    3.8880   -0.3590 C   0  0  0  0  0  0  0  0  0  0  0  0
   -6.5140    2.4750    0.5580 C   0  0  0  0  0  0  0  0  0  0  0  0
   -6.5890    3.0460   -1.8280 C   0  0  0  0  0  0  0  0  0  0  0  0
    4.8500    0.9730    1.2610 C   0  0  0  0  0  0  0  0  0  0  0  0
    6.0640    1.4400    1.9230 C   0  0  0  0  0  0  0  0  0  0  0  0
    7.1070    1.8160    1.1400 O   0  0  0  0  0  0  0  0  0  0  0  0
  2  1  1  6
  2  3  1  0
  2 33  1  0
  3  4  1  0
  4  5  1  1
  4 31  1  0
  5  6  1  0
  6  7  2  0
  6 11  1  0
  7  8  1  0
  8  9  2  0
  9 10  1  0
 10 11  2  0
 11 12  1  0
 12 13  1  0
 14 13  1  1
 14 15  1  0
 14 22  1  0
 16 15  1  6
 16 17  1  0
 16 20  1  0
 17 18  1  0
 18 19  1  0
 20 19  1  1
 20 21  1  0
 21 22  1  0
 22 23  1  6
 23 24  1  0
 24 25  2  0
 24 26  1  0
 26 27  1  0
 27 28  1  1
 27 29  1  0
 27 30  1  0
 31 32  1  0
 32 33  1  0
M  CHG  2   4   1  20   1
M  END
