
     RDKit          3D

 33 37  0  0  0  0  0  0  0  0999 V2000
    8.2560    1.9180    1.8260 C   0  0  0  0  0  0  0  0  0  0  0  0
    7.7990    1.0550    0.7240 C   0  0  0  0  0  0  0  0  0  0  0  0
    8.6690    0.5520   -0.2040 C   0  0  0  0  0  0  0  0  0  0  0  0
    8.2150   -0.2430   -1.2120 C   0  0  0  0  0  0  0  0  0  0  0  0
    6.8880   -0.5570   -1.3230 C   0  0  0  0  0  0  0  0  0  0  0  0
    6.4240   -1.4330   -2.4420 C   0  0  0  0  0  0  0  0  0  0  0  0
    6.0030   -0.0370   -0.3670 C   0  0  0  0  0  0  0  0  0  0  0  0
    4.6500   -0.4040   -0.5490 N   0  0  0  0  0  0  0  0  0  0  0  0
    3.5850   -0.0110    0.2800 C   0  0  0  0  0  0  0  0  0  0  0  0
    3.7420    0.7090    1.2670 O   0  0  0  0  0  0  0  0  0  0  0  0
    2.2080   -0.5150   -0.0940 C   0  0  0  0  0  0  0  0  0  0  0  0
    1.2070   -0.0330    0.8460 N   0  0  2  0  0  0  0  0  0  0  0  0
    0.8700   -1.0900    1.7490 C   0  0  0  0  0  0  0  0  0  0  0  0
   -0.5710   -1.0360    2.2060 C   0  0  0  0  0  0  0  0  0  0  0  0
   -1.5220   -1.1430    1.0220 C   0  0  2  0  0  0  0  0  0  0  0  0
   -2.8650   -0.6160    1.4780 C   0  0  0  0  0  0  0  0  0  0  0  0
   -3.8550   -0.6820    0.4370 N   0  0  0  0  0  0  0  0  0  0  0  0
   -4.5600    0.5710    0.3460 C   0  0  2  0  0  0  0  0  0  0  0  0
   -5.2890    0.9000    1.6460 C   0  0  0  0  0  0  0  0  0  0  0  0
   -5.6930    2.3480    1.6130 C   0  0  0  0  0  0  0  0  0  0  0  0
   -6.3280    2.7020    0.3580 N   0  0  0  0  0  0  0  0  0  0  0  0
   -6.5210    1.7230   -0.6870 C   0  0  0  0  0  0  0  0  0  0  0  0
   -7.4670    1.8280   -1.5760 C   0  0  0  0  0  0  0  0  0  0  0  0
   -7.6190    0.8750   -2.5550 O   0  0  0  0  0  0  0  0  0  0  0  0
   -6.7980   -0.2440   -2.6740 C   0  0  0  0  0  0  0  0  0  0  0  0
   -5.7350   -0.3270   -1.6460 C   0  0  0  0  0  0  0  0  0  0  0  0
   -5.6020    0.5940   -0.7120 C   0  0  0  0  0  0  0  0  0  0  0  0
   -1.7030   -2.4440    0.6300 O   0  0  0  0  0  0  0  0  0  0  0  0
   -1.4140   -2.6040   -0.6920 C   0  0  0  0  0  0  0  0  0  0  0  0
   -0.8760   -1.3330   -1.2400 C   0  0  0  0  0  0  0  0  0  0  0  0
   -1.0560   -0.3540   -0.1400 C   0  0  2  0  0  0  0  0  0  0  0  0
    0.1340    0.5240    0.1150 C   0  0  0  0  0  0  0  0  0  0  0  0
    6.4300    0.7550    0.6440 C   0  0  0  0  0  0  0  0  0  0  0  0
  1  2  1  0
  2  3  2  0
  2 33  1  0
  3  4  1  0
  4  5  2  0
  5  6  1  0
  5  7  1  0
  7  8  1  0
  7 33  2  0
  8  9  1  0
  9 10  2  0
  9 11  1  0
 12 11  1  6
 12 13  1  0
 12 32  1  0
 13 14  1  0
 14 15  1  0
 15 16  1  1
 15 28  1  0
 15 31  1  0
 16 17  1  0
 18 17  1  1
 18 19  1  0
 18 27  1  0
 19 20  1  0
 20 21  1  0
 21 22  1  0
 22 23  2  0
 22 27  1  0
 23 24  1  0
 24 25  1  0
 25 26  1  0
 26 27  2  0
 28 29  1  0
 29 30  1  0
 31 30  1  6
 31 32  1  0
M  CHG  2  12   1  17   1
M  END
