
     RDKit          3D

 33 36  0  0  0  0  0  0  0  0999 V2000
   -1.6960    5.7950   -0.5190 C   0  0  0  0  0  0  0  0  0  0  0  0
   -1.2900    4.3770   -0.3390 C   0  0  0  0  0  0  0  0  0  0  0  0
   -2.1880    3.3760   -0.5490 C   0  0  0  0  0  0  0  0  0  0  0  0
   -1.8210    2.0630   -0.3850 C   0  0  0  0  0  0  0  0  0  0  0  0
   -2.7730    1.0900   -0.6140 C   0  0  0  0  0  0  0  0  0  0  0  0
   -2.4400   -0.2390   -0.4600 C   0  0  0  0  0  0  0  0  0  0  0  0
   -3.4320   -1.2330   -0.7000 N   0  0  1  0  0  0  0  0  0  0  0  0
   -2.9280   -2.5650   -0.4970 C   0  0  0  0  0  0  0  0  0  0  0  0
   -4.0140   -3.5380   -0.9180 C   0  0  0  0  0  0  0  0  0  0  0  0
   -5.1900   -3.4130    0.0170 C   0  0  0  0  0  0  0  0  0  0  0  0
   -5.1850   -2.1240    0.7770 C   0  0  1  0  0  0  0  0  0  0  0  0
   -6.6370   -1.8080    1.1320 C   0  0  0  0  0  0  0  0  0  0  0  0
   -4.4840   -2.2630    1.9800 O   0  0  0  0  0  0  0  0  0  0  0  0
   -4.6550   -0.9570   -0.0090 C   0  0  0  0  0  0  0  0  0  0  0  0
   -1.1770   -0.6080   -0.0820 C   0  0  0  0  0  0  0  0  0  0  0  0
   -0.2210    0.3370    0.1490 C   0  0  0  0  0  0  0  0  0  0  0  0
    1.1470   -0.0230    0.5620 C   0  0  1  0  0  0  0  0  0  0  0  0
    1.3680    0.5740    1.8290 O   0  0  0  0  0  0  0  0  0  0  0  0
    1.4390   -1.4660    0.6050 C   0  0  0  0  0  0  0  0  0  0  0  0
    2.8090   -1.6980    0.9810 N   0  0  0  0  0  0  0  0  0  0  0  0
    3.9510   -1.2480    0.2330 C   0  0  0  0  0  0  0  0  0  0  0  0
    3.6840   -0.6200   -0.8130 O   0  0  0  0  0  0  0  0  0  0  0  0
    5.2660   -1.5110    0.6710 N   0  0  0  0  0  0  0  0  0  0  0  0
    6.4080   -1.1190    0.0200 N   0  0  0  0  0  0  0  0  0  0  0  0
    6.4190   -0.4410   -1.1130 C   0  0  0  0  0  0  0  0  0  0  0  0
    7.6400   -0.0750   -1.7190 C   0  0  0  0  0  0  0  0  0  0  0  0
    8.8490   -0.4030   -1.1670 C   0  0  0  0  0  0  0  0  0  0  0  0
    8.8210   -1.1130    0.0170 C   0  0  0  0  0  0  0  0  0  0  0  0
    7.6100   -1.4450    0.5680 C   0  0  0  0  0  0  0  0  0  0  0  0
   -0.5310    1.6730    0.0010 C   0  0  0  0  0  0  0  0  0  0  0  0
    0.3550    2.7020    0.2070 C   0  0  0  0  0  0  0  0  0  0  0  0
   -0.0090    4.0220    0.0430 C   0  0  0  0  0  0  0  0  0  0  0  0
    0.9640    5.1210    0.2700 C   0  0  0  0  0  0  0  0  0  0  0  0
  1  2  1  0
  2  3  2  0
  2 32  1  0
  3  4  1  0
  4  5  2  0
  4 30  1  0
  5  6  1  0
  7  6  1  1
  6 15  2  0
  7  8  1  0
  7 14  1  0
  8  9  1  0
  9 10  1  0
 10 11  1  0
 11 12  1  1
 11 13  1  0
 11 14  1  0
 15 16  1  0
 16 17  1  0
 16 30  2  0
 17 18  1  1
 17 19  1  0
 19 20  1  0
 20 21  1  0
 21 22  2  0
 21 23  1  0
 23 24  1  0
 24 25  2  0
 24 29  1  0
 25 26  1  0
 26 27  2  0
 27 28  1  0
 28 29  2  0
 30 31  1  0
 31 32  2  0
 32 33  1  0
M  CHG  2   7   1  24   1
M  END
