
     RDKit          3D

 33 37  0  0  0  0  0  0  0  0999 V2000
   -7.1210    0.3250   -1.7090 C   0  0  0  0  0  0  0  0  0  0  0  0
   -6.2280   -0.8240   -1.3320 C   0  0  0  0  0  0  0  0  0  0  0  0
   -6.1100   -0.9840    0.1520 C   0  0  0  0  0  0  0  0  0  0  0  0
   -6.7620   -1.9410    0.7860 O   0  0  0  0  0  0  0  0  0  0  0  0
   -6.4820   -1.8490    2.0590 N   0  0  0  0  0  0  0  0  0  0  0  0
   -5.6280   -0.8110    2.2740 C   0  0  0  0  0  0  0  0  0  0  0  0
   -5.3780   -0.2420    1.0540 C   0  0  0  0  0  0  0  0  0  0  0  0
   -4.5410    0.8940    0.6370 C   0  0  1  0  0  0  0  0  0  0  0  0
   -4.0040    1.6270    1.8130 C   0  0  0  0  0  0  0  0  0  0  0  0
   -2.5070    1.4180    1.7860 C   0  0  0  0  0  0  0  0  0  0  0  0
   -2.1740    1.0640    0.4220 N   0  0  1  0  0  0  0  0  0  0  0  0
   -1.0380    0.1290    0.5270 C   0  0  0  0  0  0  0  0  0  0  0  0
    0.0720    0.8880    1.1750 C   0  0  0  0  0  0  0  0  0  0  0  0
    1.3500    0.1150    1.3710 C   0  0  1  0  0  0  0  0  0  0  0  0
    1.0540   -1.0720    2.2480 C   0  0  0  0  0  0  0  0  0  0  0  0
    2.2190   -1.9070    2.3390 O   0  0  0  0  0  0  0  0  0  0  0  0
    2.7000   -2.3800    1.1290 C   0  0  0  0  0  0  0  0  0  0  0  0
    3.2440   -3.6720    1.0440 C   0  0  0  0  0  0  0  0  0  0  0  0
    3.7210   -4.1440   -0.1580 C   0  0  0  0  0  0  0  0  0  0  0  0
    3.6540   -3.3250   -1.2650 C   0  0  0  0  0  0  0  0  0  0  0  0
    4.1690   -3.8150   -2.5930 C   0  0  0  0  0  0  0  0  0  0  0  0
    3.1170   -2.0620   -1.1570 C   0  0  0  0  0  0  0  0  0  0  0  0
    2.6290   -1.5620    0.0430 C   0  0  0  0  0  0  0  0  0  0  0  0
    2.0740   -0.2050    0.1290 C   0  0  2  0  0  0  0  0  0  0  0  0
    3.2340    0.6940   -0.0760 N   0  0  0  0  0  0  0  0  0  0  0  0
    3.4180    1.4740   -1.2320 C   0  0  0  0  0  0  0  0  0  0  0  0
    2.5720    1.4200   -2.1420 O   0  0  0  0  0  0  0  0  0  0  0  0
    4.5940    2.3450   -1.3700 C   0  0  0  0  0  0  0  0  0  0  0  0
    5.5690    2.5050   -0.4940 C   0  0  0  0  0  0  0  0  0  0  0  0
    6.5470    3.4200   -0.9470 N   0  0  0  0  0  0  0  0  0  0  0  0
    6.0640    3.8150   -2.2220 C   0  0  0  0  0  0  0  0  0  0  0  0
    4.9240    3.2020   -2.4930 C   0  0  0  0  0  0  0  0  0  0  0  0
   -3.3340    0.4610   -0.1600 C   0  0  0  0  0  0  0  0  0  0  0  0
  1  2  1  0
  2  3  1  0
  3  4  1  0
  3  7  2  0
  4  5  1  0
  5  6  2  0
  6  7  1  0
  8  7  1  1
  8  9  1  0
  8 33  1  0
  9 10  1  0
 10 11  1  0
 11 12  1  1
 11 33  1  0
 12 13  1  0
 14 13  1  6
 14 15  1  0
 14 24  1  0
 15 16  1  0
 16 17  1  0
 17 18  2  0
 17 23  1  0
 18 19  1  0
 19 20  2  0
 20 21  1  0
 20 22  1  0
 22 23  2  0
 23 24  1  0
 24 25  1  1
 25 26  1  0
 26 27  2  0
 26 28  1  0
 28 29  2  0
 28 32  1  0
 29 30  1  0
 30 31  1  0
 31 32  2  0
M  CHG  2  11   1  30   1
M  END
