
     RDKit          3D

 41 44  0  0  0  0  0  0  0  0999 V2000
   -7.4560   -3.9450   -0.6710 C   0  0  0  0  0  0  0  0  0  0  0  0
   -6.1180   -3.6590   -1.3270 C   0  0  0  0  0  0  0  0  0  0  0  0
   -5.7710   -2.1920   -1.1260 C   0  0  0  0  0  0  0  0  0  0  0  0
   -5.6760   -1.9000    0.3350 C   0  0  0  0  0  0  0  0  0  0  0  0
   -5.3720   -0.5560    0.6850 N   0  0  0  0  0  0  0  0  0  0  0  0
   -4.2900    0.0720    0.0180 C   0  0  0  0  0  0  0  0  0  0  0  0
   -2.9650   -0.6140    0.0910 C   0  0  0  0  0  0  0  0  0  0  0  0
   -1.7880    0.4120   -0.8120 S   0  0  1  0  0  0  0  0  0  0  0  0
   -0.4540   -0.2220   -0.9180 O   0  0  0  0  0  0  0  0  0  0  0  0
   -2.3720    0.5720   -2.2020 O   0  0  0  0  0  0  0  0  0  0  0  0
   -1.7130    1.9080   -0.0570 N   0  0  0  0  0  0  0  0  0  0  0  0
   -1.3380    2.1530    1.1180 C   0  0  0  0  0  0  0  0  0  0  0  0
   -1.3600    3.5440    1.5750 C   0  0  0  0  0  0  0  0  0  0  0  0
   -1.7640    4.4960    0.7400 C   0  0  0  0  0  0  0  0  0  0  0  0
   -2.2130    4.3160   -0.6500 C   0  0  0  0  0  0  0  0  0  0  0  0
   -2.4820    5.6570   -1.1230 N   0  0  0  0  0  0  0  0  0  0  0  0
   -2.8830    6.3360   -2.2110 C   0  0  0  0  0  0  0  0  0  0  0  0
   -2.9350    7.6970   -1.9240 C   0  0  0  0  0  0  0  0  0  0  0  0
   -2.5550    7.7820   -0.6450 N   0  0  0  0  0  0  0  0  0  0  0  0
   -2.2740    6.5470   -0.1400 C   0  0  0  0  0  0  0  0  0  0  0  0
   -1.8320    5.8880    1.0330 N   0  0  0  0  0  0  0  0  0  0  0  0
   -0.8910    1.1260    1.9680 N   0  0  0  0  0  0  0  0  0  0  0  0
    0.0760    0.1740    1.7160 N   0  0  0  0  0  0  0  0  0  0  0  0
    1.4710    0.4870    1.5180 C   0  0  0  0  0  0  0  0  0  0  0  0
    1.7580    1.7050    1.5820 O   0  0  0  0  0  0  0  0  0  0  0  0
    2.4890   -0.5190    1.2640 C   0  0  0  0  0  0  0  0  0  0  0  0
    2.7450   -0.9710   -0.0100 C   0  0  0  0  0  0  0  0  0  0  0  0
    3.7370   -1.9160   -0.2450 C   0  0  0  0  0  0  0  0  0  0  0  0
    4.5040   -2.4350    0.8050 C   0  0  0  0  0  0  0  0  0  0  0  0
    5.6270   -3.3050    0.3720 C   0  0  0  0  0  0  0  0  0  0  0  0
    6.7000   -2.5560   -0.3170 C   0  0  0  0  0  0  0  0  0  0  0  0
    6.7140   -2.5940   -1.7250 C   0  0  0  0  0  0  0  0  0  0  0  0
    7.6310   -1.9120   -2.4560 C   0  0  0  0  0  0  0  0  0  0  0  0
    8.5960   -1.1470   -1.8370 C   0  0  0  0  0  0  0  0  0  0  0  0
    9.5190   -0.4500   -2.5540 F   0  0  0  0  0  0  0  0  0  0  0  0
    8.5990   -1.0990   -0.4640 C   0  0  0  0  0  0  0  0  0  0  0  0
    7.6520   -1.8050    0.2840 C   0  0  0  0  0  0  0  0  0  0  0  0
    7.7850   -1.6850    1.7590 C   0  0  0  0  0  0  0  0  0  0  0  0
    4.2580   -2.0020    2.0710 C   0  0  0  0  0  0  0  0  0  0  0  0
    5.0900   -2.7000    3.4790 Cl  0  0  0  0  0  0  0  0  0  0  0  0
    3.2640   -1.0590    2.2650 C   0  0  0  0  0  0  0  0  0  0  0  0
  1  2  1  0
  2  3  1  0
  3  4  1  0
  4  5  1  0
  5  6  1  0
  6  7  1  0
  8  7  1  1
  8  9  2  0
  8 10  2  0
  8 11  1  0
 11 12  2  3
 12 13  1  0
 12 22  1  0
 13 14  2  3
 14 15  1  0
 14 21  1  0
 15 16  1  0
 16 17  1  0
 16 20  1  0
 17 18  2  0
 18 19  1  0
 19 20  2  0
 20 21  1  0
 22 23  1  0
 23 24  1  0
 24 25  2  0
 24 26  1  0
 26 27  2  0
 26 41  1  0
 27 28  1  0
 28 29  2  0
 29 30  1  0
 29 39  1  0
 30 31  1  0
 31 32  2  0
 31 37  1  0
 32 33  1  0
 33 34  2  0
 34 35  1  0
 34 36  1  0
 36 37  2  0
 37 38  1  0
 39 40  1  0
 39 41  2  0
M  CHG  1   5   1
M  END
