
     RDKit          3D

 41 44  0  0  0  0  0  0  0  0999 V2000
    6.0480    4.3810   -2.8980 C   0  0  0  0  0  0  0  0  0  0  0  0
    6.5060    3.3360   -1.9040 C   0  0  0  0  0  0  0  0  0  0  0  0
    5.9190    2.0400   -2.1980 N   0  0  0  0  0  0  0  0  0  0  0  0
    6.2330    0.9410   -1.3810 C   0  0  0  0  0  0  0  0  0  0  0  0
    7.0030    1.0240   -0.3970 O   0  0  0  0  0  0  0  0  0  0  0  0
    5.6260   -0.3780   -1.6960 C   0  0  0  0  0  0  0  0  0  0  0  0
    6.0390   -1.4530   -0.7320 C   0  0  0  0  0  0  0  0  0  0  0  0
    5.6550   -1.1760    0.6720 C   0  0  0  0  0  0  0  0  0  0  0  0
    6.5720   -0.7440    1.5580 N   0  0  0  0  0  0  0  0  0  0  0  0
    6.2740   -0.4730    2.8330 C   0  0  0  0  0  0  0  0  0  0  0  0
    7.2080   -0.0340    3.7250 F   0  0  0  0  0  0  0  0  0  0  0  0
    4.9560   -0.6550    3.2280 C   0  0  0  0  0  0  0  0  0  0  0  0
    3.9600   -1.0900    2.3980 C   0  0  0  0  0  0  0  0  0  0  0  0
    2.6000   -1.2780    2.7540 N   0  0  0  0  0  0  0  0  0  0  0  0
    2.0340   -1.1200    4.0260 C   0  0  0  0  0  0  0  0  0  0  0  0
    2.7420   -0.7820    4.9950 O   0  0  0  0  0  0  0  0  0  0  0  0
    0.5900   -1.3620    4.1910 C   0  0  0  0  0  0  0  0  0  0  0  0
   -0.3580   -1.7100    3.3300 C   0  0  0  0  0  0  0  0  0  0  0  0
   -1.6310   -1.8630    3.7560 C   0  0  0  0  0  0  0  0  0  0  0  0
   -2.7790   -2.2260    2.9990 C   0  0  0  0  0  0  0  0  0  0  0  0
   -2.6800   -2.4790    1.6060 N   0  0  0  0  0  0  0  0  0  0  0  0
   -2.8490   -1.4320    0.6550 C   0  0  0  0  0  0  0  0  0  0  0  0
   -3.0880   -0.2900    1.1060 O   0  0  0  0  0  0  0  0  0  0  0  0
   -2.7600   -1.6280   -0.7310 N   0  0  0  0  0  0  0  0  0  0  0  0
   -2.9180   -0.6660   -1.7750 C   0  0  0  0  0  0  0  0  0  0  0  0
   -4.2730   -0.0540   -1.8470 C   0  0  0  0  0  0  0  0  0  0  0  0
   -5.1010   -0.1610   -2.9130 C   0  0  0  0  0  0  0  0  0  0  0  0
   -4.7610   -0.9020   -4.1440 C   0  0  0  0  0  0  0  0  0  0  0  0
   -6.3650    0.5620   -2.6460 C   0  0  0  0  0  0  0  0  0  0  0  0
   -6.0540    1.4430   -1.5530 N   0  0  2  0  0  0  0  0  0  0  0  0
   -5.6250    2.7370   -2.1030 C   0  0  0  0  0  0  0  0  0  0  0  0
   -6.0180    3.8370   -1.1380 C   0  0  0  0  0  0  0  0  0  0  0  0
   -4.9760    0.7740   -0.8620 C   0  0  0  0  0  0  0  0  0  0  0  0
   -3.9970   -2.3300    3.6180 C   0  0  0  0  0  0  0  0  0  0  0  0
   -5.3740   -2.7910    2.5840 Cl  0  0  0  0  0  0  0  0  0  0  0  0
   -4.1910   -2.1010    4.9560 C   0  0  0  0  0  0  0  0  0  0  0  0
   -3.1030   -1.7590    5.6640 N   0  0  0  0  0  0  0  0  0  0  0  0
   -1.8990   -1.6520    5.0720 C   0  0  0  0  0  0  0  0  0  0  0  0
   -0.2770   -1.2170    5.7350 S   0  0  0  0  0  0  0  0  0  0  0  0
    4.3490   -1.3500    1.0890 C   0  0  0  0  0  0  0  0  0  0  0  0
    3.3170   -1.8380    0.1440 C   0  0  0  0  0  0  0  0  0  0  0  0
  1  2  1  0
  2  3  1  0
  3  4  1  0
  4  5  2  0
  4  6  1  0
  6  7  1  0
  7  8  1  0
  8  9  2  0
  8 40  1  0
  9 10  1  0
 10 11  1  0
 10 12  2  0
 12 13  1  0
 13 14  1  0
 13 40  2  0
 14 15  1  0
 15 16  2  0
 15 17  1  0
 17 18  2  0
 17 39  1  0
 18 19  1  0
 19 20  2  0
 19 38  1  0
 20 21  1  0
 20 34  1  0
 21 22  1  0
 22 23  2  0
 22 24  1  0
 24 25  1  0
 25 26  1  0
 26 27  2  0
 26 33  1  0
 27 28  1  0
 27 29  1  0
 29 30  1  0
 30 31  1  6
 30 33  1  0
 31 32  1  0
 34 35  1  0
 34 36  2  0
 36 37  1  0
 37 38  2  0
 38 39  1  0
 40 41  1  0
M  CHG  1  30   1
M  END
