
     RDKit          3D

 41 44  0  0  0  0  0  0  0  0999 V2000
    1.0120    5.6250   -0.5670 C   0  0  0  0  0  0  0  0  0  0  0  0
    0.4410    5.2820    0.7760 C   0  0  0  0  0  0  0  0  0  0  0  0
    1.0970    4.2180    1.5460 C   0  0  0  0  0  0  0  0  0  0  0  0
    1.1990    2.8970    0.9950 N   0  0  0  0  0  0  0  0  0  0  0  0
    0.0990    1.9960    1.2540 C   0  0  0  0  0  0  0  0  0  0  0  0
   -1.0460    2.1690    0.3350 C   0  0  0  0  0  0  0  0  0  0  0  0
   -1.6770    1.1720   -0.2570 C   0  0  0  0  0  0  0  0  0  0  0  0
   -2.7850    1.5440   -1.1210 N   0  0  0  0  0  0  0  0  0  0  0  0
   -2.6240    2.1850   -2.3850 C   0  0  0  0  0  0  0  0  0  0  0  0
   -4.0210    2.4080   -2.9620 C   0  0  0  0  0  0  0  0  0  0  0  0
   -4.7400    1.1590   -3.1410 N   0  0  0  0  0  0  0  0  0  0  0  0
   -1.3880   -0.2120   -0.1520 N   0  0  0  0  0  0  0  0  0  0  0  0
   -2.4850   -1.0870    0.2430 C   0  0  0  0  0  0  0  0  0  0  0  0
   -3.4190   -1.3040   -0.7480 C   0  0  0  0  0  0  0  0  0  0  0  0
   -4.5170   -2.1210   -0.5210 C   0  0  0  0  0  0  0  0  0  0  0  0
   -5.4440   -2.3420   -1.4850 F   0  0  0  0  0  0  0  0  0  0  0  0
   -4.6120   -2.6920    0.7370 C   0  0  0  0  0  0  0  0  0  0  0  0
   -6.0060   -3.7250    1.0180 Cl  0  0  0  0  0  0  0  0  0  0  0  0
   -3.6770   -2.4740    1.7260 C   0  0  0  0  0  0  0  0  0  0  0  0
   -3.8650   -3.1330    3.0440 C   0  0  0  0  0  0  0  0  0  0  0  0
   -3.4860   -4.6060    2.9430 C   0  0  0  0  0  0  0  0  0  0  0  0
   -2.5830   -1.6500    1.4740 C   0  0  0  0  0  0  0  0  0  0  0  0
   -0.1190   -0.8260   -0.4050 C   0  0  0  0  0  0  0  0  0  0  0  0
    0.2250   -1.7160    0.3970 O   0  0  0  0  0  0  0  0  0  0  0  0
    0.7500   -0.4670   -1.5180 C   0  0  0  0  0  0  0  0  0  0  0  0
    1.9360   -1.2330   -1.8050 C   0  0  0  0  0  0  0  0  0  0  0  0
    2.6720   -2.0170   -0.8240 C   0  0  0  0  0  0  0  0  0  0  0  0
    2.1450   -3.1470   -0.4900 O   0  0  0  0  0  0  0  0  0  0  0  0
    3.9060   -1.7520   -0.1570 N   0  0  0  0  0  0  0  0  0  0  0  0
    4.1560   -0.7350    0.6700 C   0  0  0  0  0  0  0  0  0  0  0  0
    5.4340   -0.8110    1.0830 N   0  0  0  0  0  0  0  0  0  0  0  0
    6.0200   -1.9190    0.5010 C   0  0  0  0  0  0  0  0  0  0  0  0
    7.2880   -2.4200    0.6200 C   0  0  0  0  0  0  0  0  0  0  0  0
    7.2080   -3.8700   -0.4370 S   0  0  0  0  0  0  0  0  0  0  0  0
    5.5580   -3.6760   -0.9160 C   0  0  0  0  0  0  0  0  0  0  0  0
    4.7500   -4.5400   -1.8290 C   0  0  0  0  0  0  0  0  0  0  0  0
    5.1060   -2.4880   -0.2440 C   0  0  0  0  0  0  0  0  0  0  0  0
    3.1500    0.2940    1.1210 C   0  0  0  0  0  0  0  0  0  0  0  0
    2.9810    1.3040    0.1290 N   0  0  0  0  0  0  0  0  0  0  0  0
    2.3750    2.5680    0.2660 C   0  0  0  0  0  0  0  0  0  0  0  0
    2.9770    3.5180   -0.3490 O   0  0  0  0  0  0  0  0  0  0  0  0
  1  2  1  0
  2  3  1  0
  3  4  1  0
  4  5  1  0
  4 40  1  0
  5  6  1  0
  6  7  2  0
  7  8  1  0
  7 12  1  0
  8  9  1  0
  9 10  1  0
 10 11  1  0
 12 13  1  0
 12 23  1  0
 13 14  2  0
 13 22  1  0
 14 15  1  0
 15 16  1  0
 15 17  2  0
 17 18  1  0
 17 19  1  0
 19 20  1  0
 19 22  2  0
 20 21  1  0
 23 24  2  0
 23 25  1  0
 25 26  1  0
 26 27  1  0
 27 28  2  0
 27 29  1  0
 29 30  1  0
 29 37  1  0
 30 31  2  0
 30 38  1  0
 31 32  1  0
 32 33  2  0
 32 37  1  0
 33 34  1  0
 34 35  1  0
 35 36  1  0
 35 37  2  0
 38 39  1  0
 39 40  1  0
 40 41  2  0
M  CHG  1  11   1
M  END
