
     RDKit          3D

 41 44  0  0  0  0  0  0  0  0999 V2000
    9.7770    2.7540   -1.6190 C   0  0  0  0  0  0  0  0  0  0  0  0
    9.4650    2.6230    0.1750 S   0  0  0  0  0  0  0  0  0  0  0  0
    9.3160    0.8900    0.5410 C   0  0  0  0  0  0  0  0  0  0  0  0
   10.4010    0.1570    0.8990 C   0  0  0  0  0  0  0  0  0  0  0  0
   10.2400   -1.1840    1.1630 C   0  0  0  0  0  0  0  0  0  0  0  0
    9.0060   -1.7670    1.0650 C   0  0  0  0  0  0  0  0  0  0  0  0
    8.8560   -3.0990    1.3300 F   0  0  0  0  0  0  0  0  0  0  0  0
    7.8600   -1.0530    0.7010 C   0  0  0  0  0  0  0  0  0  0  0  0
    6.6190   -1.7000    0.6100 N   0  0  0  0  0  0  0  0  0  0  0  0
    5.3620   -1.1760    0.2820 C   0  0  0  0  0  0  0  0  0  0  0  0
    5.2850    0.0570    0.0210 O   0  0  0  0  0  0  0  0  0  0  0  0
    4.1780   -1.9550    0.2290 N   0  0  0  0  0  0  0  0  0  0  0  0
    2.9560   -1.3810   -0.1050 N   0  0  0  0  0  0  0  0  0  0  0  0
    1.7190   -2.0110    0.0320 C   0  0  0  0  0  0  0  0  0  0  0  0
    1.6660   -3.1810    0.4850 O   0  0  0  0  0  0  0  0  0  0  0  0
    0.4260   -1.3810   -0.3270 C   0  0  0  0  0  0  0  0  0  0  0  0
   -0.6890   -2.0470   -0.1740 C   0  0  0  0  0  0  0  0  0  0  0  0
   -1.9760   -1.5840   -0.4700 N   0  0  0  0  0  0  0  0  0  0  0  0
   -2.3480   -1.2240   -1.7830 C   0  0  0  0  0  0  0  0  0  0  0  0
   -1.8280   -0.1820   -2.5090 C   0  0  0  0  0  0  0  0  0  0  0  0
   -2.2940    0.0140   -3.7960 C   0  0  0  0  0  0  0  0  0  0  0  0
   -3.2260   -0.7600   -4.3720 N   0  0  0  0  0  0  0  0  0  0  0  0
   -3.7610   -1.7870   -3.6980 C   0  0  0  0  0  0  0  0  0  0  0  0
   -3.3280   -2.0190   -2.4180 C   0  0  0  0  0  0  0  0  0  0  0  0
   -3.9930   -3.3490   -1.4960 Cl  0  0  0  0  0  0  0  0  0  0  0  0
   -2.9420   -1.5590    0.5610 C   0  0  0  0  0  0  0  0  0  0  0  0
   -3.1150   -2.7370    1.2560 N   0  0  0  0  0  0  0  0  0  0  0  0
   -4.0080   -2.8710    2.2340 C   0  0  0  0  0  0  0  0  0  0  0  0
   -4.1170   -4.1610    2.9210 C   0  0  0  0  0  0  0  0  0  0  0  0
   -4.7960   -1.8070    2.5790 C   0  0  0  0  0  0  0  0  0  0  0  0
   -4.6330   -0.6370    1.8990 C   0  0  0  0  0  0  0  0  0  0  0  0
   -3.6960   -0.4550    0.8550 C   0  0  0  0  0  0  0  0  0  0  0  0
   -3.6280    0.6890    0.2870 O   0  0  0  0  0  0  0  0  0  0  0  0
   -3.5590    1.8470   -0.2890 C   0  0  2  0  0  0  0  0  0  0  0  0
   -3.4150    3.0100    0.7000 C   0  0  0  0  0  0  0  0  0  0  0  0
   -4.7010    3.3850    1.3640 C   0  0  0  0  0  0  0  0  0  0  0  0
   -5.6200    3.9930    0.3300 C   0  0  0  0  0  0  0  0  0  0  0  0
   -6.5110    2.9380   -0.1090 N   0  0  0  0  0  0  0  0  0  0  0  0
   -5.9670    2.0620   -1.0790 C   0  0  0  0  0  0  0  0  0  0  0  0
   -4.5400    2.1940   -1.3820 C   0  0  0  0  0  0  0  0  0  0  0  0
    8.0570    0.2830    0.4440 C   0  0  0  0  0  0  0  0  0  0  0  0
  1  2  1  0
  2  3  1  0
  3  4  2  0
  3 41  1  0
  4  5  1  0
  5  6  2  0
  6  7  1  0
  6  8  1  0
  8  9  1  0
  8 41  2  0
  9 10  1  0
 10 11  2  0
 10 12  1  0
 12 13  1  0
 13 14  1  0
 14 15  2  0
 14 16  1  0
 16 17  2  3
 17 18  1  0
 18 19  1  0
 18 26  1  0
 19 20  2  0
 19 24  1  0
 20 21  1  0
 21 22  2  0
 22 23  1  0
 23 24  2  0
 24 25  1  0
 26 27  2  0
 26 32  1  0
 27 28  1  0
 28 29  1  0
 28 30  2  0
 30 31  1  0
 31 32  2  0
 32 33  1  0
 34 33  1  1
 34 35  1  0
 34 40  1  0
 35 36  1  0
 36 37  1  0
 37 38  1  0
 38 39  1  0
 39 40  1  0
M  CHG  1  38   1
M  END
