
     RDKit          3D

 41 43  0  0  0  0  0  0  0  0999 V2000
   -4.4550   -6.0790    0.3210 C   0  0  0  0  0  0  0  0  0  0  0  0
   -3.0880   -5.7790    0.1930 C   0  0  0  0  0  0  0  0  0  0  0  0
   -2.0630   -5.4740    0.0920 O   0  0  0  0  0  0  0  0  0  0  0  0
   -1.2680   -4.6120   -0.0380 N   0  0  0  0  0  0  0  0  0  0  0  0
   -2.0980   -3.5370   -0.0790 C   0  0  0  0  0  0  0  0  0  0  0  0
   -1.7810   -2.1700   -0.2720 C   0  0  0  0  0  0  0  0  0  0  0  0
   -1.9960   -1.1520    0.4610 C   0  0  0  0  0  0  0  0  0  0  0  0
   -2.6490   -1.1240    1.7770 C   0  0  0  0  0  0  0  0  0  0  0  0
   -3.0480   -2.3120    2.3920 O   0  0  0  0  0  0  0  0  0  0  0  0
   -2.8540    0.0070    2.3760 C   0  0  0  0  0  0  0  0  0  0  0  0
   -3.5450   -0.0660    3.7210 C   0  0  0  0  0  0  0  0  0  0  0  0
   -2.4630    1.1750    1.8200 F   0  0  0  0  0  0  0  0  0  0  0  0
   -1.0130   -1.8210   -1.9460 S   0  0  0  0  0  0  0  0  0  0  0  0
   -0.7220    0.0860   -1.8100 C   0  0  0  0  0  0  0  0  0  0  0  0
    0.5460    0.3000   -1.5070 N   0  0  0  0  0  0  0  0  0  0  0  0
    1.4500    1.3330   -1.2000 C   0  0  0  0  0  0  0  0  0  0  0  0
    1.0040    2.4730   -1.2100 O   0  0  0  0  0  0  0  0  0  0  0  0
    2.8350    1.0600   -0.8890 N   0  0  0  0  0  0  0  0  0  0  0  0
    3.7390    2.1460   -0.5360 C   0  0  0  0  0  0  0  0  0  0  0  0
    5.1380    1.5510   -0.5060 C   0  0  0  0  0  0  0  0  0  0  0  0
    5.2020    0.5150    0.5790 C   0  0  2  0  0  0  0  0  0  0  0  0
    6.4360   -0.2350    0.6070 N   0  0  0  0  0  0  0  0  0  0  0  0
    6.6900   -0.9630   -0.6190 C   0  0  0  0  0  0  0  0  0  0  0  0
    8.0670   -1.6160   -0.4590 C   0  0  0  0  0  0  0  0  0  0  0  0
    4.0360   -0.4220    0.5180 C   0  0  0  0  0  0  0  0  0  0  0  0
    3.4160   -0.2590   -0.8720 C   0  0  0  0  0  0  0  0  0  0  0  0
   -1.8440    0.7240   -2.0030 C   0  0  0  0  0  0  0  0  0  0  0  0
   -3.0430   -0.1110   -2.3010 C   0  0  0  0  0  0  0  0  0  0  0  0
   -3.9070   -0.7120   -2.5320 N   0  0  0  0  0  0  0  0  0  0  0  0
   -2.1100    2.1410   -1.8450 C   0  0  0  0  0  0  0  0  0  0  0  0
   -1.8390    2.8680   -0.7550 N   0  0  0  0  0  0  0  0  0  0  0  0
   -2.1070    4.1570   -0.5440 C   0  0  0  0  0  0  0  0  0  0  0  0
   -1.7930    4.8750    0.6240 N   0  0  0  0  0  0  0  0  0  0  0  0
   -2.1120    6.2740    0.7280 C   0  0  0  0  0  0  0  0  0  0  0  0
   -2.7570    4.8290   -1.6130 C   0  0  0  0  0  0  0  0  0  0  0  0
   -3.0620    4.1510   -2.7570 C   0  0  0  0  0  0  0  0  0  0  0  0
   -2.7520    2.8160   -2.8940 C   0  0  0  0  0  0  0  0  0  0  0  0
   -3.1370    1.9630   -4.3930 Cl  0  0  0  0  0  0  0  0  0  0  0  0
   -3.4300   -4.1370    0.0620 C   0  0  0  0  0  0  0  0  0  0  0  0
   -4.3520   -3.4730    0.2610 C   0  0  0  0  0  0  0  0  0  0  0  0
   -5.7720   -3.5940    0.7620 C   0  0  0  0  0  0  0  0  0  0  0  0
  1  2  2  0
  2  3  1  0
  2 39  1  0
  3  4  1  0
  4  5  2  0
  5  6  1  0
  5 39  1  0
  6  7  2  3
  6 13  1  0
  7  8  1  0
  8  9  1  0
  8 10  2  3
 10 11  1  0
 10 12  1  0
 13 14  1  0
 14 15  1  0
 14 27  2  3
 15 16  1  0
 16 17  2  0
 16 18  1  0
 18 19  1  0
 18 26  1  0
 19 20  1  0
 20 21  1  0
 21 22  1  6
 21 25  1  0
 22 23  1  0
 23 24  1  0
 25 26  1  0
 27 28  1  0
 27 30  1  0
 28 29  3  0
 30 31  2  0
 30 37  1  0
 31 32  1  0
 32 33  1  0
 32 35  2  0
 33 34  1  0
 35 36  1  0
 36 37  2  0
 37 38  1  0
 39 40  2  3
 40 41  1  0
M  CHG  1  22   1
M  END
