
     RDKit          3D

 41 44  0  0  0  0  0  0  0  0999 V2000
    4.0570    2.5160    0.4010 C   0  0  0  0  0  0  0  0  0  0  0  0
    5.4600    2.9050    0.7700 C   0  0  0  0  0  0  0  0  0  0  0  0
    6.3690    1.9200    1.0740 C   0  0  0  0  0  0  0  0  0  0  0  0
    5.9040    0.5510    1.0150 C   0  0  0  0  0  0  0  0  0  0  0  0
    4.9540   -0.1420    0.7820 N   0  0  0  0  0  0  0  0  0  0  0  0
    4.8080   -1.4310    0.8080 C   0  0  0  0  0  0  0  0  0  0  0  0
    3.5280   -2.1530    0.4810 C   0  0  0  0  0  0  0  0  0  0  0  0
    3.5450   -3.3940    0.5360 O   0  0  0  0  0  0  0  0  0  0  0  0
    2.3560   -1.4760    0.1280 N   0  0  0  0  0  0  0  0  0  0  0  0
    1.1240   -2.1070   -0.1900 C   0  0  0  0  0  0  0  0  0  0  0  0
    0.8160   -2.4650   -1.4900 C   0  0  0  0  0  0  0  0  0  0  0  0
    1.7290   -2.2070   -2.5180 N   0  0  0  0  0  0  0  0  0  0  0  0
   -0.3750   -3.0770   -1.8220 C   0  0  0  0  0  0  0  0  0  0  0  0
   -0.7190   -3.4730   -3.2040 C   0  0  2  0  0  0  0  0  0  0  0  0
   -2.1140   -4.0490   -3.2060 C   0  0  0  0  0  0  0  0  0  0  0  0
    0.2160   -4.5340   -3.7390 C   0  0  0  0  0  0  0  0  0  0  0  0
   -1.2390   -3.3190   -0.8280 N   0  0  0  0  0  0  0  0  0  0  0  0
   -0.9870   -2.9940    0.4290 N   0  0  0  0  0  0  0  0  0  0  0  0
   -1.9860   -3.3080    1.4250 C   0  0  0  0  0  0  0  0  0  0  0  0
   -2.9350   -2.1530    1.5860 C   0  0  0  0  0  0  0  0  0  0  0  0
   -3.8550   -2.2870    2.4020 O   0  0  0  0  0  0  0  0  0  0  0  0
   -2.7960   -0.9770    0.8520 N   0  0  0  0  0  0  0  0  0  0  0  0
   -3.6090    0.1780    0.9050 C   0  0  0  0  0  0  0  0  0  0  0  0
   -4.6770    0.3390    1.7490 C   0  0  0  0  0  0  0  0  0  0  0  0
   -5.4570    1.5100    1.7620 C   0  0  0  0  0  0  0  0  0  0  0  0
   -5.1630    2.5470    0.9100 C   0  0  0  0  0  0  0  0  0  0  0  0
   -5.9340    3.7340    0.9090 N   0  0  2  0  0  0  0  0  0  0  0  0
   -6.9820    3.6210    1.8990 C   0  0  0  0  0  0  0  0  0  0  0  0
   -6.5630    3.9440   -0.3790 C   0  0  0  0  0  0  0  0  0  0  0  0
   -4.0900    2.4020    0.0530 C   0  0  0  0  0  0  0  0  0  0  0  0
   -3.3370    1.2520    0.0500 C   0  0  0  0  0  0  0  0  0  0  0  0
    0.1840   -2.3880    0.7780 C   0  0  0  0  0  0  0  0  0  0  0  0
    0.3690   -2.1010    1.9900 O   0  0  0  0  0  0  0  0  0  0  0  0
    5.9730   -2.1500    1.1750 C   0  0  0  0  0  0  0  0  0  0  0  0
    7.1550   -0.8070    1.4410 S   0  0  0  0  0  0  0  0  0  0  0  0
    7.6510    2.2890    1.4110 C   0  0  0  0  0  0  0  0  0  0  0  0
    8.0310    3.6140    1.4470 C   0  0  0  0  0  0  0  0  0  0  0  0
    7.1320    4.6100    1.1450 C   0  0  0  0  0  0  0  0  0  0  0  0
    7.5090    5.9050    1.1810 F   0  0  0  0  0  0  0  0  0  0  0  0
    5.8460    4.2250    0.8080 C   0  0  0  0  0  0  0  0  0  0  0  0
    4.7110    5.4950    0.4250 Cl  0  0  0  0  0  0  0  0  0  0  0  0
  1  2  1  0
  2  3  2  0
  2 40  1  0
  3  4  1  0
  3 36  1  0
  4  5  2  0
  4 35  1  0
  5  6  1  0
  6  7  1  0
  6 34  2  0
  7  8  2  0
  7  9  1  0
  9 10  1  0
 10 11  2  0
 10 32  1  0
 11 12  1  0
 11 13  1  0
 13 14  1  0
 13 17  2  0
 14 15  1  1
 14 16  1  0
 17 18  1  0
 18 19  1  0
 18 32  1  0
 19 20  1  0
 20 21  2  0
 20 22  1  0
 22 23  1  0
 23 24  2  0
 23 31  1  0
 24 25  1  0
 25 26  2  0
 26 27  1  0
 26 30  1  0
 27 28  1  1
 27 29  1  0
 30 31  2  0
 32 33  2  0
 34 35  1  0
 36 37  2  0
 37 38  1  0
 38 39  1  0
 38 40  2  0
 40 41  1  0
M  CHG  1  27   1
M  END
