
     RDKit          3D

 16 15  0  0  0  0  0  0  0  0999 V2000
   -4.7840   -0.8590    0.1380 C   0  0  0  0  0  0  0  0  0  0  0  0
   -3.5090   -1.3010   -0.5110 C   0  0  0  0  0  0  0  0  0  0  0  0
   -2.2920   -0.7760    0.2220 C   0  0  0  0  0  0  0  0  0  0  0  0
   -1.1300   -1.2080   -0.4120 O   0  0  0  0  0  0  0  0  0  0  0  0
    0.2980   -0.6590    0.3540 P   0  0  0  0  0  0  0  0  0  0  0  0
   -0.0410    0.0300    1.9090 O   0  0  0  0  0  0  0  0  0  0  0  0
    1.2390    0.5620   -0.7120 C   0  0  1  0  0  0  0  0  0  0  0  0
    0.2600    1.1670   -1.5340 O   0  0  0  0  0  0  0  0  0  0  0  0
    1.8050    1.6390    0.1280 C   0  0  0  0  0  0  0  0  0  0  0  0
    1.3260    3.0660    0.0060 C   0  0  0  0  0  0  0  0  0  0  0  0
    2.6790    1.4890    0.9700 O   0  0  0  0  0  0  0  0  0  0  0  0
    2.2190   -0.1160   -1.5740 C   0  0  0  0  0  0  0  0  0  0  0  0
    2.0970   -0.0450   -2.8080 O   0  0  0  0  0  0  0  0  0  0  0  0
    3.3800   -0.9040   -1.1070 C   0  0  0  0  0  0  0  0  0  0  0  0
    3.4010   -0.9240    0.2620 O   0  0  0  0  0  0  0  0  0  0  0  0
    4.3840   -1.5920    0.7810 O   0  0  0  0  0  0  0  0  0  0  0  0
  1  2  1  0
  2  3  1  0
  3  4  1  0
  4  5  1  0
  5  6  1  0
  5  7  1  0
  7  8  1  6
  7  9  1  0
  7 12  1  0
  9 10  1  0
  9 11  2  0
 12 13  2  0
 12 14  1  0
 14 15  1  0
 15 16  1  0
M  END
