
     RDKit          3D

 16 16  0  0  0  0  0  0  0  0999 V2000
    4.8770    0.3650   -0.6290 C   0  0  0  0  0  0  0  0  0  0  0  0
    3.5900    0.1000   -1.0740 O   0  0  0  0  0  0  0  0  0  0  0  0
    2.8290   -0.0840   -0.0200 O   0  0  0  0  0  0  0  0  0  0  0  0
    1.5880   -0.3510   -0.3110 O   0  0  0  0  0  0  0  0  0  0  0  0
    0.8030    0.0260    0.8040 C   0  0  0  0  0  0  0  0  0  0  0  0
   -0.5940   -0.2890    0.4420 C   0  0  0  0  0  0  0  0  0  0  0  0
   -1.4690    0.6820    0.4160 C   0  0  0  0  0  0  0  0  0  0  0  0
   -1.1050    2.0150    0.7250 O   0  0  0  0  0  0  0  0  0  0  0  0
   -2.1480    3.3530    0.3280 P   0  0  0  0  0  0  0  0  0  0  0  0
   -1.5990    4.4700   -0.6040 O   0  0  0  0  0  0  0  0  0  0  0  0
   -2.8660    0.4210    0.0630 C   0  0  0  0  0  0  0  0  0  0  0  0
   -3.5680    1.3210   -0.4670 O   0  0  0  0  0  0  0  0  0  0  0  0
   -3.3820   -0.9430    0.3660 C   0  0  0  0  0  0  0  0  0  0  0  0
   -2.3810   -1.8870   -0.1970 C   0  0  0  0  0  0  0  0  0  0  0  0
   -2.7420   -2.7950   -0.8950 O   0  0  0  0  0  0  0  0  0  0  0  0
   -0.9490   -1.6770    0.1240 C   0  0  0  0  0  0  0  0  0  0  0  0
  1  2  1  0
  2  3  1  0
  3  4  1  0
  4  5  1  0
  5  6  1  0
  6  7  2  0
  6 16  1  0
  7  8  1  0
  7 11  1  0
  8  9  1  0
  9 10  2  0
 11 12  2  0
 11 13  1  0
 13 14  1  0
 14 15  2  0
 14 16  1  0
M  END
