
     RDKit          3D

 15 14  0  0  0  0  0  0  0  0999 V2000
   -1.3750    1.1050    1.3950 C   0  0  0  0  0  0  0  0  0  0  0  0
   -1.7420    0.2810    0.1970 C   0  0  1  0  0  0  0  0  0  0  0  0
   -2.5920    1.1650   -0.7110 C   0  0  0  0  0  0  0  0  0  0  0  0
   -0.5670   -0.1700   -0.6060 C   0  0  0  0  0  0  0  0  0  0  0  0
    0.4080   -1.0230    0.1600 C   0  0  1  0  0  0  0  0  0  0  0  0
    0.9520   -0.4030    1.2490 O   0  0  0  0  0  0  0  0  0  0  0  0
    2.3200   -0.2970    1.0910 C   0  0  0  0  0  0  0  0  0  0  0  0
    2.7720    0.5060   -0.0800 C   0  0  0  0  0  0  0  0  0  0  0  0
    2.2890    1.8320    0.0200 O   0  0  0  0  0  0  0  0  0  0  0  0
    2.6820    2.5430   -1.0040 O   0  0  0  0  0  0  0  0  0  0  0  0
   -0.2190   -2.3440    0.5250 C   0  0  0  0  0  0  0  0  0  0  0  0
   -0.7720   -3.0640   -0.3440 O   0  0  0  0  0  0  0  0  0  0  0  0
   -0.2110   -2.8170    1.8260 O   0  0  0  0  0  0  0  0  0  0  0  0
   -2.8060   -1.1220    0.7710 P   0  0  0  0  0  0  0  0  0  0  0  0
   -4.2400   -1.3650    0.1940 O   0  0  0  0  0  0  0  0  0  0  0  0
  2  1  1  1
  2  3  1  0
  2  4  1  0
  2 14  1  0
  5  4  1  1
  5  6  1  0
  5 11  1  0
  6  7  1  0
  7  8  1  0
  8  9  1  0
  9 10  1  0
 11 12  2  0
 11 13  1  0
 14 15  2  0
M  END
