
     RDKit          3D

 16 15  0  0  0  0  0  0  0  0999 V2000
   -4.9650    0.8700    0.5320 C   0  0  0  0  0  0  0  0  0  0  0  0
   -3.9700   -0.2490    0.8540 C   0  0  0  0  0  0  0  0  0  0  0  0
   -2.9890   -0.4230   -0.2440 C   0  0  0  0  0  0  0  0  0  0  0  0
   -3.3020   -1.0850   -1.2570 O   0  0  0  0  0  0  0  0  0  0  0  0
   -1.7420    0.1330   -0.1600 O   0  0  0  0  0  0  0  0  0  0  0  0
   -0.7740   -0.0070   -1.1820 C   0  0  0  0  0  0  0  0  0  0  0  0
    0.4040    0.6550   -0.8430 O   0  0  0  0  0  0  0  0  0  0  0  0
    0.9400    0.2150    0.2470 O   0  0  0  0  0  0  0  0  0  0  0  0
    2.2780   -0.1380    0.1010 C   0  0  1  0  0  0  0  0  0  0  0  0
    2.3120   -1.2460   -0.9610 C   0  0  0  0  0  0  0  0  0  0  0  0
    3.0130    1.0740   -0.4190 C   0  0  0  0  0  0  0  0  0  0  0  0
    2.8610    2.0990    0.5100 O   0  0  0  0  0  0  0  0  0  0  0  0
    2.8560   -0.6570    1.3670 C   0  0  0  0  0  0  0  0  0  0  0  0
    2.1210   -0.7070    2.3370 O   0  0  0  0  0  0  0  0  0  0  0  0
    4.5660   -1.2130    1.5570 P   0  0  0  0  0  0  0  0  0  0  0  0
    5.8160   -0.3540    1.3860 O   0  0  0  0  0  0  0  0  0  0  0  0
  1  2  1  0
  2  3  1  0
  3  4  2  0
  3  5  1  0
  5  6  1  0
  6  7  1  0
  7  8  1  0
  8  9  1  0
  9 10  1  6
  9 11  1  0
  9 13  1  0
 11 12  1  0
 13 14  2  0
 13 15  1  0
 15 16  2  0
M  END
