
     RDKit          3D

 16 16  0  0  0  0  0  0  0  0999 V2000
    3.2050    1.5680    0.3620 C   0  0  0  0  0  0  0  0  0  0  0  0
    2.4430    0.4710    0.0440 O   0  0  0  0  0  0  0  0  0  0  0  0
    1.3380    0.3680    0.7410 O   0  0  0  0  0  0  0  0  0  0  0  0
    0.5150   -0.5370    0.0720 C   0  0  1  0  0  0  0  0  0  0  0  0
    1.1560   -1.8630   -0.0470 C   0  0  0  0  0  0  0  0  0  0  0  0
    0.5420   -2.7860   -0.6240 O   0  0  0  0  0  0  0  0  0  0  0  0
    2.4200   -2.1100    0.4650 O   0  0  0  0  0  0  0  0  0  0  0  0
   -0.8400   -0.6570    0.7470 C   0  0  0  0  0  0  0  0  0  0  0  0
   -1.7540    0.2980    0.0490 C   0  0  1  0  0  0  0  0  0  0  0  0
   -3.1990   -0.1030    0.0970 C   0  0  0  0  0  0  0  0  0  0  0  0
   -1.5820    2.0040    0.7240 P   0  0  0  0  0  0  0  0  0  0  0  0
   -2.6810    2.6980    1.5360 O   0  0  0  0  0  0  0  0  0  0  0  0
   -1.2270    0.2620   -1.3540 C   0  0  0  0  0  0  0  0  0  0  0  0
   -1.8400    0.4730   -2.4300 O   0  0  0  0  0  0  0  0  0  0  0  0
    0.1910   -0.0750   -1.3000 C   0  0  0  0  0  0  0  0  0  0  0  0
    0.9960    0.0170   -2.2630 O   0  0  0  0  0  0  0  0  0  0  0  0
  1  2  1  0
  2  3  1  0
  4  3  1  1
  4  5  1  0
  4  8  1  0
  4 15  1  0
  5  6  2  0
  5  7  1  0
  8  9  1  0
  9 10  1  6
  9 11  1  0
  9 13  1  0
 11 12  2  0
 13 14  2  0
 13 15  1  0
 15 16  2  0
M  END
