
     RDKit          3D

 15 14  0  0  0  0  0  0  0  0999 V2000
    4.0920   -1.3670   -0.1170 C   0  0  0  0  0  0  0  0  0  0  0  0
    3.2360   -0.1640    0.1170 C   0  0  0  0  0  0  0  0  0  0  0  0
    1.7730   -0.5210    0.1930 C   0  0  0  0  0  0  0  0  0  0  0  0
    1.4860   -1.6800    0.0620 O   0  0  0  0  0  0  0  0  0  0  0  0
    0.5940    0.8210    0.4730 P   0  0  0  0  0  0  0  0  0  0  0  0
   -1.0870    0.4660   -0.2250 C   0  0  1  0  0  0  0  0  0  0  0  0
   -1.0120    0.1150   -1.6990 C   0  0  0  0  0  0  0  0  0  0  0  0
   -1.7870   -0.6410    0.5050 C   0  0  0  0  0  0  0  0  0  0  0  0
   -1.1110   -1.8460    0.4740 O   0  0  0  0  0  0  0  0  0  0  0  0
   -1.8650   -2.7760    1.1830 C   0  0  0  0  0  0  0  0  0  0  0  0
   -1.8940    1.7010   -0.0770 C   0  0  0  0  0  0  0  0  0  0  0  0
   -2.9450    1.6490    0.6110 O   0  0  0  0  0  0  0  0  0  0  0  0
   -1.5240    2.9040   -0.6730 O   0  0  0  0  0  0  0  0  0  0  0  0
   -2.3250    3.9550   -0.4740 O   0  0  0  0  0  0  0  0  0  0  0  0
   -1.5890    4.9570   -0.0210 O   0  0  0  0  0  0  0  0  0  0  0  0
  1  2  1  0
  2  3  1  0
  3  4  2  0
  3  5  1  0
  5  6  1  0
  6  7  1  6
  6  8  1  0
  6 11  1  0
  8  9  1  0
  9 10  1  0
 11 12  2  0
 11 13  1  0
 13 14  1  0
 14 15  1  0
M  END
