
     RDKit          3D

 16 15  0  0  0  0  0  0  0  0999 V2000
   -3.2890   -2.1020   -1.4650 C   0  0  0  0  0  0  0  0  0  0  0  0
   -2.7320   -1.2440   -0.3440 C   0  0  0  0  0  0  0  0  0  0  0  0
   -1.4800   -0.7920   -0.7600 O   0  0  0  0  0  0  0  0  0  0  0  0
   -0.9650    0.0010    0.2760 C   0  0  1  0  0  0  0  0  0  0  0  0
   -1.8790    1.1710    0.4400 C   0  0  0  0  0  0  0  0  0  0  0  0
   -0.8790   -0.8110    1.3850 O   0  0  0  0  0  0  0  0  0  0  0  0
   -0.3850   -0.1830    2.5100 C   0  0  0  0  0  0  0  0  0  0  0  0
    0.6800    0.6150   -0.3030 P   0  0  0  0  0  0  0  0  0  0  0  0
    2.0060   -0.3350    0.3030 O   0  0  0  0  0  0  0  0  0  0  0  0
    2.9450   -0.8550   -0.5890 C   0  0  0  0  0  0  0  0  0  0  0  0
    4.0950   -1.6710   -0.1260 C   0  0  0  0  0  0  0  0  0  0  0  0
    2.8560   -0.6510   -1.8350 O   0  0  0  0  0  0  0  0  0  0  0  0
    0.8850    2.3280   -0.0290 O   0  0  0  0  0  0  0  0  0  0  0  0
    1.7650    3.0750   -0.7980 C   0  0  0  0  0  0  0  0  0  0  0  0
    2.4000    2.4410   -1.6980 O   0  0  0  0  0  0  0  0  0  0  0  0
    1.9870    4.4170   -0.6520 O   0  0  0  0  0  0  0  0  0  0  0  0
  1  2  1  0
  2  3  1  0
  3  4  1  0
  4  5  1  1
  4  6  1  0
  4  8  1  0
  6  7  1  0
  8  9  1  0
  8 13  1  0
  9 10  1  0
 10 11  1  0
 10 12  2  0
 13 14  1  0
 14 15  2  0
 14 16  1  0
M  END
