
     RDKit          3D

 16 15  0  0  0  0  0  0  0  0999 V2000
    0.0070    4.2180    0.6200 C   0  0  0  0  0  0  0  0  0  0  0  0
    0.4310    2.9850    0.0860 O   0  0  0  0  0  0  0  0  0  0  0  0
   -0.0960    1.6540    1.0560 P   0  0  0  0  0  0  0  0  0  0  0  0
   -1.5100    2.1690    1.9230 O   0  0  0  0  0  0  0  0  0  0  0  0
   -0.5720    0.1930    0.0190 C   0  0  2  0  0  0  0  0  0  0  0  0
   -1.6310   -0.4490    0.6430 O   0  0  0  0  0  0  0  0  0  0  0  0
   -2.7390   -0.4050   -0.0440 O   0  0  0  0  0  0  0  0  0  0  0  0
   -3.5770   -1.4400    0.3530 C   0  0  0  0  0  0  0  0  0  0  0  0
   -2.9930   -2.6850    0.1500 O   0  0  0  0  0  0  0  0  0  0  0  0
    0.6160   -0.7480   -0.1850 C   0  0  2  0  0  0  0  0  0  0  0  0
    0.0830   -1.9040   -1.0400 C   0  0  0  0  0  0  0  0  0  0  0  0
    0.9980   -1.1710    1.0570 O   0  0  0  0  0  0  0  0  0  0  0  0
    1.6200   -0.0190   -0.9950 C   0  0  0  0  0  0  0  0  0  0  0  0
    2.8770   -0.7170   -1.3390 C   0  0  0  0  0  0  0  0  0  0  0  0
    3.7400   -1.1330   -0.2420 C   0  0  0  0  0  0  0  0  0  0  0  0
    3.5270   -0.9010    0.9190 O   0  0  0  0  0  0  0  0  0  0  0  0
  1  2  1  0
  2  3  1  0
  3  4  1  0
  3  5  1  0
  5  6  1  1
  5 10  1  0
  6  7  1  0
  7  8  1  0
  8  9  1  0
 10 11  1  6
 10 12  1  0
 10 13  1  0
 13 14  1  0
 14 15  1  0
 15 16  2  0
M  END
