
     RDKit          3D

 16 15  0  0  0  0  0  0  0  0999 V2000
    3.5380   -0.5150   -0.5920 C   0  0  0  0  0  0  0  0  0  0  0  0
    2.3230   -0.8130    0.2680 C   0  0  0  0  0  0  0  0  0  0  0  0
    1.1670   -0.3100   -0.3120 O   0  0  0  0  0  0  0  0  0  0  0  0
    0.1600   -0.5850    0.4520 O   0  0  0  0  0  0  0  0  0  0  0  0
   -0.8430    0.3800    0.4280 C   0  0  1  0  0  0  0  0  0  0  0  0
   -0.3090    1.7150    0.8850 C   0  0  0  0  0  0  0  0  0  0  0  0
    1.0610    2.3430   -0.1640 P   0  0  0  0  0  0  0  0  0  0  0  0
    0.7530    3.3570   -1.2820 O   0  0  0  0  0  0  0  0  0  0  0  0
   -1.4820    0.4370   -0.8960 C   0  0  0  0  0  0  0  0  0  0  0  0
   -1.0050   -0.4870   -1.9700 C   0  0  0  0  0  0  0  0  0  0  0  0
   -2.3840    1.1870   -1.1940 O   0  0  0  0  0  0  0  0  0  0  0  0
   -1.8610   -0.0450    1.4330 C   0  0  0  0  0  0  0  0  0  0  0  0
   -2.8660    0.6940    1.5760 O   0  0  0  0  0  0  0  0  0  0  0  0
   -1.7600   -1.1820    2.1950 O   0  0  0  0  0  0  0  0  0  0  0  0
   -2.7600   -1.4870    3.0980 C   0  0  0  0  0  0  0  0  0  0  0  0
   -3.7350   -0.7100    3.1940 O   0  0  0  0  0  0  0  0  0  0  0  0
  1  2  1  0
  2  3  1  0
  3  4  1  0
  4  5  1  0
  5  6  1  1
  5  9  1  0
  5 12  1  0
  6  7  1  0
  7  8  2  0
  9 10  1  0
  9 11  2  0
 12 13  2  0
 12 14  1  0
 14 15  1  0
 15 16  2  0
M  END
