
     RDKit          3D

 16 15  0  0  0  0  0  0  0  0999 V2000
    4.3600    0.4740    0.1830 C   0  0  0  0  0  0  0  0  0  0  0  0
    3.0560    0.0240   -0.4800 C   0  0  0  0  0  0  0  0  0  0  0  0
    2.5930   -1.0670    0.3300 O   0  0  0  0  0  0  0  0  0  0  0  0
    1.0400   -0.7130    0.8550 P   0  0  0  0  0  0  0  0  0  0  0  0
    1.2500    0.9280    1.6090 O   0  0  0  0  0  0  0  0  0  0  0  0
   -0.4040   -0.4930   -0.2610 C   0  0  2  0  0  0  0  0  0  0  0  0
   -1.2120    0.4470    0.5460 O   0  0  0  0  0  0  0  0  0  0  0  0
   -1.1160    1.6470   -0.0240 O   0  0  0  0  0  0  0  0  0  0  0  0
   -2.3570    2.2690    0.1860 C   0  0  0  0  0  0  0  0  0  0  0  0
   -2.4430    3.6360   -0.4510 C   0  0  0  0  0  0  0  0  0  0  0  0
   -3.5630    3.9440   -0.7900 O   0  0  0  0  0  0  0  0  0  0  0  0
   -1.2520   -1.7340   -0.3160 C   0  0  2  0  0  0  0  0  0  0  0  0
   -0.8760   -2.7080    0.8990 C   0  0  0  0  0  0  0  0  0  0  0  0
   -0.9560   -2.4580   -1.4520 O   0  0  0  0  0  0  0  0  0  0  0  0
   -2.6630   -1.4810   -0.1370 C   0  0  0  0  0  0  0  0  0  0  0  0
   -3.5150   -2.0770   -0.7910 O   0  0  0  0  0  0  0  0  0  0  0  0
  1  2  1  0
  2  3  1  0
  3  4  1  0
  4  5  1  0
  4  6  1  0
  6  7  1  1
  6 12  1  0
  7  8  1  0
  8  9  1  0
  9 10  1  0
 10 11  2  0
 12 13  1  1
 12 14  1  0
 12 15  1  0
 15 16  2  0
M  END
