
     RDKit          3D

 12 12  0  0  0  0  0  0  0  0999 V2000
    2.5530   -0.0580   -0.0750 N   0  0  0  0  0  0  0  0  0  0  0  0
    1.4120    0.6790    0.3980 C   0  0  1  0  0  0  0  0  0  0  0  0
    0.6050    1.2610   -0.7690 C   0  0  1  0  0  0  0  0  0  0  0  0
    1.0720    0.7950   -1.9850 O   0  0  0  0  0  0  0  0  0  0  0  0
   -0.7490    1.0990   -0.5950 O   0  0  0  0  0  0  0  0  0  0  0  0
   -1.1610   -0.2200   -0.7010 C   0  0  2  0  0  0  0  0  0  0  0  0
   -2.5230   -0.4430   -0.1200 C   0  0  0  0  0  0  0  0  0  0  0  0
   -3.5060    0.3190   -0.7390 O   0  0  0  0  0  0  0  0  0  0  0  0
   -0.1930   -1.1160    0.0700 C   0  0  2  0  0  0  0  0  0  0  0  0
   -0.8380   -2.2200    0.5990 O   0  0  0  0  0  0  0  0  0  0  0  0
    0.4310   -0.2370    1.1400 C   0  0  2  0  0  0  0  0  0  0  0  0
   -0.5620    0.6330    1.6470 O   0  0  0  0  0  0  0  0  0  0  0  0
  2  1  1  6
  2  3  1  0
  2 11  1  0
  3  4  1  6
  3  5  1  0
  5  6  1  0
  6  7  1  1
  6  9  1  0
  7  8  1  0
  9 10  1  1
  9 11  1  0
 11 12  1  6
M  CHG  1   1   1
M  END
