
     RDKit          3D

 13 14  0  0  0  0  0  0  0  0999 V2000
   -2.4960    0.2180    1.5970 C   0  0  0  0  0  0  0  0  0  0  0  0
   -2.3660   -0.6650    0.6580 C   0  0  0  0  0  0  0  0  0  0  0  0
   -1.2780   -0.6390   -0.2830 C   0  0  0  0  0  0  0  0  0  0  0  0
   -1.1800   -1.5810   -1.2340 C   0  0  0  0  0  0  0  0  0  0  0  0
   -0.2610    0.4010   -0.1910 C   0  0  0  0  0  0  0  0  0  0  0  0
   -0.5550    1.6990   -0.0450 N   0  0  0  0  0  0  0  0  0  0  0  0
    0.3620    2.6670    0.0540 C   0  0  0  0  0  0  0  0  0  0  0  0
    1.6540    2.3100    0.0030 N   0  0  0  0  0  0  0  0  0  0  0  0
    2.0760    1.0410   -0.1400 C   0  0  0  0  0  0  0  0  0  0  0  0
    3.3140    0.4810   -0.2040 N   0  0  0  0  0  0  0  0  0  0  0  0
    3.1240   -0.8390   -0.3410 C   0  0  0  0  0  0  0  0  0  0  0  0
    1.7810   -1.0910   -0.3620 N   0  0  0  0  0  0  0  0  0  0  0  0
    1.0960    0.0590   -0.2400 C   0  0  0  0  0  0  0  0  0  0  0  0
  1  2  2  0
  2  3  1  0
  3  4  2  0
  3  5  1  0
  5  6  2  0
  5 13  1  0
  6  7  1  0
  7  8  2  0
  8  9  1  0
  9 10  1  0
  9 13  2  0
 10 11  2  0
 11 12  1  0
 12 13  1  0
M  END
