
     RDKit          3D

 13 14  0  0  0  0  0  0  0  0999 V2000
   -2.5270   -1.0570    0.7150 C   0  0  0  0  0  0  0  0  0  0  0  0
   -2.0960    0.0930   -0.1480 C   0  0  1  0  0  0  0  0  0  0  0  0
   -3.0200    1.2550    0.1410 C   0  0  0  0  0  0  0  0  0  0  0  0
   -0.7180    0.4470    0.0990 N   0  0  0  0  0  0  0  0  0  0  0  0
   -0.3130    1.6500    0.4620 N   0  0  0  0  0  0  0  0  0  0  0  0
    1.0230    1.6660    0.6140 C   0  0  0  0  0  0  0  0  0  0  0  0
    1.4760    0.3990    0.3300 C   0  0  0  0  0  0  0  0  0  0  0  0
    2.7480   -0.1250    0.3330 C   0  0  0  0  0  0  0  0  0  0  0  0
    3.8790    0.6700    0.6690 N   0  0  0  0  0  0  0  0  0  0  0  0
    2.9060   -1.4740   -0.0050 C   0  0  0  0  0  0  0  0  0  0  0  0
    1.8020   -2.1740   -0.3130 N   0  0  0  0  0  0  0  0  0  0  0  0
    0.5610   -1.6600   -0.3150 C   0  0  0  0  0  0  0  0  0  0  0  0
    0.3490   -0.3320    0.0120 C   0  0  0  0  0  0  0  0  0  0  0  0
  2  1  1  1
  2  3  1  0
  2  4  1  0
  4  5  1  0
  4 13  1  0
  5  6  2  0
  6  7  1  0
  7  8  2  0
  7 13  1  0
  8  9  1  0
  8 10  1  0
 10 11  2  0
 11 12  1  0
 12 13  2  0
M  END
