
     RDKit          3D

 13 14  0  0  0  0  0  0  0  0999 V2000
   -1.3400   -1.4190   -1.2850 N   0  0  0  0  0  0  0  0  0  0  0  0
   -1.6480   -0.2460   -0.5660 C   0  0  0  0  0  0  0  0  0  0  0  0
   -2.9420    0.2640   -0.5320 C   0  0  0  0  0  0  0  0  0  0  0  0
   -3.2330    1.3830    0.1540 N   0  0  0  0  0  0  0  0  0  0  0  0
   -2.2540    2.0160    0.8170 C   0  0  0  0  0  0  0  0  0  0  0  0
   -0.9370    1.5310    0.8060 C   0  0  0  0  0  0  0  0  0  0  0  0
   -0.6230    0.3950    0.1140 C   0  0  0  0  0  0  0  0  0  0  0  0
    0.7090   -0.1780    0.0460 C   0  0  0  0  0  0  0  0  0  0  0  0
    1.7990    0.3680    0.6770 C   0  0  0  0  0  0  0  0  0  0  0  0
    3.0720   -0.1810    0.6120 C   0  0  0  0  0  0  0  0  0  0  0  0
    3.2360   -1.3290   -0.1240 C   0  0  0  0  0  0  0  0  0  0  0  0
    2.1590   -1.8490   -0.7340 N   0  0  0  0  0  0  0  0  0  0  0  0
    0.9530   -1.3170   -0.6650 N   0  0  0  0  0  0  0  0  0  0  0  0
  1  2  1  0
  2  3  2  0
  2  7  1  0
  3  4  1  0
  4  5  2  0
  5  6  1  0
  6  7  2  0
  7  8  1  0
  8  9  2  0
  8 13  1  0
  9 10  1  0
 10 11  2  0
 11 12  1  0
 12 13  2  0
M  END
