
     RDKit          3D

 13 14  0  0  0  0  0  0  0  0999 V2000
   -3.7360    0.3370   -0.6770 C   0  0  0  0  0  0  0  0  0  0  0  0
   -3.2340    0.1400    0.7480 C   0  0  0  0  0  0  0  0  0  0  0  0
   -1.8160    0.5820    0.7850 C   0  0  0  0  0  0  0  0  0  0  0  0
   -1.3350    1.7060    1.2830 N   0  0  0  0  0  0  0  0  0  0  0  0
   -0.0170    1.7000    1.1100 N   0  0  0  0  0  0  0  0  0  0  0  0
    0.3810    0.5940    0.5080 N   0  0  0  0  0  0  0  0  0  0  0  0
    1.7220    0.2660    0.1730 C   0  0  0  0  0  0  0  0  0  0  0  0
    2.7800    1.0150    0.4080 C   0  0  0  0  0  0  0  0  0  0  0  0
    3.9910    0.3240   -0.0880 C   0  0  0  0  0  0  0  0  0  0  0  0
    3.4790   -0.9320   -0.6460 C   0  0  0  0  0  0  0  0  0  0  0  0
    2.1830   -0.9460   -0.4870 C   0  0  0  0  0  0  0  0  0  0  0  0
   -0.7320   -0.1330    0.2890 C   0  0  0  0  0  0  0  0  0  0  0  0
   -0.8120   -1.4010   -0.3310 N   0  0  0  0  0  0  0  0  0  0  0  0
  1  2  1  0
  2  3  1  0
  3  4  1  0
  3 12  2  0
  4  5  2  0
  5  6  1  0
  6  7  1  0
  6 12  1  0
  7  8  2  0
  7 11  1  0
  8  9  1  0
  9 10  1  0
 10 11  2  0
 12 13  1  0
M  END
