
     RDKit          3D

  8  7  0  0  0  0  0  0  0  0999 V2000
    3.2140   -0.1170   -0.3590 O   0  0  0  0  0  0  0  0  0  0  0  0
    2.0850    0.5270    0.1130 C   0  0  0  0  0  0  0  0  0  0  0  0
    0.8930   -0.4000   -0.1120 C   0  0  0  0  0  0  0  0  0  0  0  0
   -0.3240    0.3470    0.4190 C   0  0  1  0  0  0  0  0  0  0  0  0
   -0.4370    1.5160   -0.2940 O   0  0  0  0  0  0  0  0  0  0  0  0
   -1.5540   -0.5420    0.2190 C   0  0  2  0  0  0  0  0  0  0  0  0
   -1.6480   -0.8320   -1.1440 O   0  0  0  0  0  0  0  0  0  0  0  0
   -2.6820    0.1320    0.6380 O   0  0  0  0  0  0  0  0  0  0  0  0
  1  2  1  0
  2  3  1  0
  3  4  1  0
  4  5  1  6
  4  6  1  0
  6  7  1  6
  6  8  1  0
M  END
