
     RDKit          3D

  9  8  0  0  0  0  0  0  0  0999 V2000
    2.7300    0.1030   -0.3160 O   0  0  0  0  0  0  0  0  0  0  0  0
    1.6050    0.4950    0.1700 C   0  0  0  0  0  0  0  0  0  0  0  0
    1.2850    1.8380    0.0400 O   0  0  0  0  0  0  0  0  0  0  0  0
    0.7190   -0.4820    0.8290 C   0  0  0  0  0  0  0  0  0  0  0  0
   -0.5130   -0.8090    0.0280 C   0  0  2  0  0  0  0  0  0  0  0  0
   -0.2040   -1.3270   -1.2260 O   0  0  0  0  0  0  0  0  0  0  0  0
   -1.4270    0.3320    0.0170 C   0  0  0  0  0  0  0  0  0  0  0  0
   -1.7590    0.8290    1.1470 O   0  0  0  0  0  0  0  0  0  0  0  0
   -1.9750    0.9350   -1.1000 O   0  0  0  0  0  0  0  0  0  0  0  0
  1  2  2  0
  2  3  1  0
  2  4  1  0
  4  5  1  0
  5  6  1  6
  5  7  1  0
  7  8  2  0
  7  9  1  0
M  END
