
     RDKit          3D

  8  7  0  0  0  0  0  0  0  0999 V2000
    1.8070   -0.8490   -0.5110 C   0  0  0  0  0  0  0  0  0  0  0  0
    1.0280    0.4460   -0.4870 C   0  0  2  0  0  0  0  0  0  0  0  0
    1.9020    1.4600   -0.1600 O   0  0  0  0  0  0  0  0  0  0  0  0
   -0.0870    0.3650    0.5380 C   0  0  2  0  0  0  0  0  0  0  0  0
    0.3910    0.1150    1.8130 O   0  0  0  0  0  0  0  0  0  0  0  0
   -0.9830   -0.6270    0.2040 O   0  0  0  0  0  0  0  0  0  0  0  0
   -2.2520   -0.0790   -0.0040 C   0  0  0  0  0  0  0  0  0  0  0  0
   -3.1740   -1.0500   -0.3410 O   0  0  0  0  0  0  0  0  0  0  0  0
  2  1  1  1
  2  3  1  0
  2  4  1  0
  4  5  1  1
  4  6  1  0
  6  7  1  0
  7  8  1  0
M  END
