
     RDKit          3D

  8  7  0  0  0  0  0  0  0  0999 V2000
    1.6200   -0.1300    1.5010 O   0  0  0  0  0  0  0  0  0  0  0  0
    1.6360   -0.0090    0.1360 C   0  0  0  0  0  0  0  0  0  0  0  0
    0.5160   -0.7080   -0.5670 C   0  0  0  0  0  0  0  0  0  0  0  0
   -0.8460   -0.2560   -0.2000 C   0  0  2  0  0  0  0  0  0  0  0  0
   -1.0920   -0.4380    1.1540 O   0  0  0  0  0  0  0  0  0  0  0  0
   -1.7590   -1.0780   -0.9020 O   0  0  0  0  0  0  0  0  0  0  0  0
   -1.1790    1.1440   -0.5910 C   0  0  0  0  0  0  0  0  0  0  0  0
   -0.4610    2.1140    0.0740 O   0  0  0  0  0  0  0  0  0  0  0  0
  1  2  1  0
  2  3  1  0
  3  4  1  0
  4  5  1  1
  4  6  1  0
  4  7  1  0
  7  8  1  0
M  END
