
     RDKit          3D

  9  8  0  0  0  0  0  0  0  0999 V2000
    3.0000   -1.0090    0.4250 O   0  0  0  0  0  0  0  0  0  0  0  0
    1.8420   -0.8700   -0.3070 C   0  0  0  0  0  0  0  0  0  0  0  0
    0.9040   -0.1030    0.4080 O   0  0  0  0  0  0  0  0  0  0  0  0
   -0.2650    0.0560   -0.2940 C   0  0  2  0  0  0  0  0  0  0  0  0
   -0.5340    1.4950   -0.5930 C   0  0  0  0  0  0  0  0  0  0  0  0
   -0.6450    2.2440    0.5810 O   0  0  0  0  0  0  0  0  0  0  0  0
   -1.4570   -0.5830    0.4060 C   0  0  2  0  0  0  0  0  0  0  0  0
   -1.6670   -0.0350    1.6600 O   0  0  0  0  0  0  0  0  0  0  0  0
   -1.3250   -1.9700    0.4500 O   0  0  0  0  0  0  0  0  0  0  0  0
  1  2  1  0
  2  3  1  0
  3  4  1  0
  4  5  1  1
  4  7  1  0
  5  6  1  0
  7  8  1  1
  7  9  1  0
M  END
