
     RDKit          3D

  8  7  0  0  0  0  0  0  0  0999 V2000
    1.9980    0.3780    0.7090 C   0  0  0  0  0  0  0  0  0  0  0  0
    0.9590   -0.4480    0.4900 O   0  0  0  0  0  0  0  0  0  0  0  0
    0.0840   -0.2360   -0.4910 C   0  0  1  0  0  0  0  0  0  0  0  0
    0.5110   -0.2000   -1.7820 O   0  0  0  0  0  0  0  0  0  0  0  0
   -0.9940   -1.3330   -0.4070 C   0  0  0  0  0  0  0  0  0  0  0  0
   -1.5720   -1.1900    0.8540 O   0  0  0  0  0  0  0  0  0  0  0  0
   -0.6680    1.0650   -0.2290 C   0  0  0  0  0  0  0  0  0  0  0  0
   -1.3270    0.9610    0.9680 O   0  0  0  0  0  0  0  0  0  0  0  0
  1  2  1  0
  2  3  1  0
  3  4  1  6
  3  5  1  0
  3  7  1  0
  5  6  1  0
  7  8  1  0
M  END
