
     RDKit          3D

  7  7  0  0  0  0  0  0  0  0999 V2000
   -2.5650    0.0910   -0.1930 C   0  0  0  0  0  0  0  0  0  0  0  0
   -1.4090   -0.0250   -1.0170 O   0  0  0  0  0  0  0  0  0  0  0  0
   -0.1240   -0.0230   -0.4730 C   0  0  0  0  0  0  0  0  0  0  0  0
    0.5320   -1.1040   -0.1190 C   0  0  0  0  0  0  0  0  0  0  0  0
    1.8460   -0.6850    0.4080 C   0  0  0  0  0  0  0  0  0  0  0  0
    1.8210    0.7740    0.2940 C   0  0  0  0  0  0  0  0  0  0  0  0
    0.6700    1.1600   -0.2200 C   0  0  0  0  0  0  0  0  0  0  0  0
  1  2  1  0
  2  3  1  0
  3  4  2  0
  3  7  1  0
  4  5  1  0
  5  6  1  0
  6  7  2  0
M  END
