
     RDKit          3D

 35 38  0  0  0  0  0  0  0  0999 V2000
    0.9060   -0.9030   -2.1560 C   0  0  0  0  0  0  0  0  0  0  0  0
    0.8930   -0.4620   -0.8270 O   0  0  0  0  0  0  0  0  0  0  0  0
    1.9810   -0.0180   -0.1650 C   0  0  0  0  0  0  0  0  0  0  0  0
    3.2320    0.1420   -0.3770 C   0  0  0  0  0  0  0  0  0  0  0  0
    4.3210    0.6160    0.3640 C   0  0  0  0  0  0  0  0  0  0  0  0
    5.6340    0.4300   -0.2470 C   0  0  0  0  0  0  0  0  0  0  0  0
    5.7760   -0.7600   -1.0140 C   0  0  0  0  0  0  0  0  0  0  0  0
    6.9960   -1.1850   -1.5880 C   0  0  0  0  0  0  0  0  0  0  0  0
    6.9200   -2.4410   -2.2650 C   0  0  0  0  0  0  0  0  0  0  0  0
    6.8490   -3.4700   -2.8410 N   0  0  0  0  0  0  0  0  0  0  0  0
    8.0070   -0.3470   -1.3410 C   0  0  0  0  0  0  0  0  0  0  0  0
    7.9160    0.7720   -0.6410 C   0  0  0  0  0  0  0  0  0  0  0  0
    9.0490    1.6980   -0.4640 C   0  0  0  0  0  0  0  0  0  0  0  0
    9.6970    1.5110    0.8100 N   0  0  0  0  0  0  0  0  0  0  0  0
    6.7010    1.1620   -0.0770 N   0  0  0  0  0  0  0  0  0  0  0  0
    3.9830    1.0170    1.5780 C   0  0  0  0  0  0  0  0  0  0  0  0
    2.6450    0.9200    1.9970 C   0  0  0  0  0  0  0  0  0  0  0  0
    1.6150    0.4650    1.3350 C   0  0  0  0  0  0  0  0  0  0  0  0
    0.3270    0.2660    1.4680 O   0  0  0  0  0  0  0  0  0  0  0  0
   -0.8950    0.0890    1.6200 C   0  0  0  0  0  0  0  0  0  0  0  0
   -1.9660    1.2030    1.6370 C   0  0  0  0  0  0  0  0  0  0  0  0
   -3.1410    0.6590    1.8250 O   0  0  0  0  0  0  0  0  0  0  0  0
   -4.1640    0.1220    2.4140 C   0  0  0  0  0  0  0  0  0  0  0  0
   -4.1220    0.0110    3.8350 N   0  0  0  0  0  0  0  0  0  0  0  0
   -5.1330   -0.5300    4.5380 C   0  0  0  0  0  0  0  0  0  0  0  0
   -6.1680   -0.9660    3.8740 N   0  0  0  0  0  0  0  0  0  0  0  0
   -6.3230   -0.9170    2.5140 C   0  0  0  0  0  0  0  0  0  0  0  0
   -7.4630   -1.5690    1.9940 N   0  0  0  0  0  0  0  0  0  0  0  0
   -5.3190   -0.3650    1.8010 C   0  0  0  0  0  0  0  0  0  0  0  0
   -5.4340   -0.3140    0.3070 C   0  0  0  0  0  0  0  0  0  0  0  0
   -4.4960    0.1000   -0.4530 N   0  0  0  0  0  0  0  0  0  0  0  0
   -4.6030    0.1760   -1.8970 C   0  0  0  0  0  0  0  0  0  0  0  0
   -6.0050    0.5940   -2.2880 C   0  0  0  0  0  0  0  0  0  0  0  0
   -6.9650   -0.4150   -1.7360 C   0  0  0  0  0  0  0  0  0  0  0  0
   -6.7320   -0.7290   -0.2860 C   0  0  0  0  0  0  0  0  0  0  0  0
  1  2  1  0
  2  3  1  0
  3  4  2  0
  3 18  1  0
  4  5  1  0
  5  6  1  0
  5 16  2  0
  6  7  2  0
  6 15  1  0
  7  8  1  0
  8  9  1  0
  8 11  2  0
  9 10  3  0
 11 12  1  0
 12 13  1  0
 12 15  2  0
 13 14  1  0
 16 17  1  0
 17 18  2  0
 18 19  1  0
 19 20  1  0
 20 21  1  0
 21 22  1  0
 22 23  1  0
 23 24  2  0
 23 29  1  0
 24 25  1  0
 25 26  2  0
 26 27  1  0
 27 28  1  0
 27 29  2  0
 29 30  1  0
 30 31  2  0
 30 35  1  0
 31 32  1  0
 32 33  1  0
 33 34  1  0
 34 35  1  0
M  CHG  1  31   1
M  END
