
     RDKit          3D

 35 38  0  0  0  0  0  0  0  0999 V2000
    8.3850   -0.2040   -0.1640 C   0  0  0  0  0  0  0  0  0  0  0  0
    7.9080    1.2380   -0.0910 C   0  0  0  0  0  0  0  0  0  0  0  0
    6.7240    1.3170    0.8580 C   0  0  0  0  0  0  0  0  0  0  0  0
    5.6040    0.5190    0.4570 N   0  0  0  0  0  0  0  0  0  0  0  0
    4.7890    0.8650   -0.6720 C   0  0  0  0  0  0  0  0  0  0  0  0
    4.9470    2.0440   -1.3470 C   0  0  0  0  0  0  0  0  0  0  0  0
    4.1290    2.3440   -2.4040 C   0  0  0  0  0  0  0  0  0  0  0  0
    3.1310    1.4760   -2.8140 C   0  0  0  0  0  0  0  0  0  0  0  0
    2.9740    0.2850   -2.1290 C   0  0  0  0  0  0  0  0  0  0  0  0
    3.7960   -0.0020   -1.0790 C   0  0  0  0  0  0  0  0  0  0  0  0
    3.6100   -1.2760   -0.3820 C   0  0  0  0  0  0  0  0  0  0  0  0
    4.5200   -2.2350   -0.1540 N   0  0  0  0  0  0  0  0  0  0  0  0
    3.9740   -3.2380    0.5030 N   0  0  0  0  0  0  0  0  0  0  0  0
    2.6760   -2.9490    0.7200 C   0  0  0  0  0  0  0  0  0  0  0  0
    1.7030   -3.6500    1.3450 N   0  0  0  0  0  0  0  0  0  0  0  0
    0.4860   -3.1000    1.4090 C   0  0  0  0  0  0  0  0  0  0  0  0
   -0.4290   -3.7460    1.9890 O   0  0  0  0  0  0  0  0  0  0  0  0
    0.1660   -1.8720    0.8810 C   0  0  0  0  0  0  0  0  0  0  0  0
   -1.2130   -1.3330    0.9920 C   0  0  0  0  0  0  0  0  0  0  0  0
   -1.8240   -1.6470    2.0300 O   0  0  0  0  0  0  0  0  0  0  0  0
   -1.7580   -0.5310   -0.0220 N   0  0  0  0  0  0  0  0  0  0  0  0
   -3.0550    0.0220   -0.0090 C   0  0  0  0  0  0  0  0  0  0  0  0
   -4.0160   -0.1530    0.9570 C   0  0  0  0  0  0  0  0  0  0  0  0
   -5.2860    0.4350    0.8820 C   0  0  0  0  0  0  0  0  0  0  0  0
   -6.1830    0.1840    1.9240 N   0  0  0  0  0  0  0  0  0  0  0  0
   -7.5650    0.1210    1.5020 C   0  0  0  0  0  0  0  0  0  0  0  0
   -7.7800   -0.8670    0.3870 C   0  0  0  0  0  0  0  0  0  0  0  0
   -5.5990    1.2210   -0.1970 C   0  0  0  0  0  0  0  0  0  0  0  0
   -4.6520    1.3810   -1.1280 N   0  0  0  0  0  0  0  0  0  0  0  0
   -4.9590    2.2110   -2.2820 C   0  0  0  0  0  0  0  0  0  0  0  0
   -5.5540    1.3860   -3.4040 C   0  0  0  0  0  0  0  0  0  0  0  0
   -3.4350    0.8380   -1.0890 C   0  0  0  0  0  0  0  0  0  0  0  0
   -2.5760    1.0210   -1.9970 O   0  0  0  0  0  0  0  0  0  0  0  0
    1.1540   -1.1560    0.2440 C   0  0  0  0  0  0  0  0  0  0  0  0
    2.4240   -1.6970    0.1610 C   0  0  0  0  0  0  0  0  0  0  0  0
  1  2  1  0
  2  3  1  0
  3  4  1  0
  4  5  1  0
  5  6  2  0
  5 10  1  0
  6  7  1  0
  7  8  2  0
  8  9  1  0
  9 10  2  0
 10 11  1  0
 11 12  2  0
 11 35  1  0
 12 13  1  0
 13 14  1  0
 14 15  1  0
 14 35  2  0
 15 16  1  0
 16 17  2  0
 16 18  1  0
 18 19  1  0
 18 34  2  0
 19 20  2  0
 19 21  1  0
 21 22  1  0
 22 23  2  0
 22 32  1  0
 23 24  1  0
 24 25  1  0
 24 28  2  0
 25 26  1  0
 26 27  1  0
 28 29  1  0
 29 30  1  0
 29 32  1  0
 30 31  1  0
 32 33  2  0
 34 35  1  0
M  CHG  1  25   1
M  END
