
     RDKit          3D

 35 41  0  0  0  0  0  0  0  0999 V2000
    8.3020    3.1780    0.0310 C   0  0  0  0  0  0  0  0  0  0  0  0
    7.6700    1.8710    0.3930 C   0  0  2  0  0  0  0  0  0  0  0  0
    7.6780    0.8810   -0.7660 C   0  0  0  0  0  0  0  0  0  0  0  0
    6.5750   -0.0370   -0.3860 C   0  0  0  0  0  0  0  0  0  0  0  0
    6.2870   -1.3490   -0.6910 C   0  0  0  0  0  0  0  0  0  0  0  0
    5.1680   -2.0120   -0.2040 C   0  0  0  0  0  0  0  0  0  0  0  0
    4.3300   -1.2900    0.6190 C   0  0  0  0  0  0  0  0  0  0  0  0
    4.6210    0.0300    0.9250 C   0  0  0  0  0  0  0  0  0  0  0  0
    5.7350    0.6810    0.4380 C   0  0  0  0  0  0  0  0  0  0  0  0
    6.2500    1.9840    0.5910 O   0  0  0  0  0  0  0  0  0  0  0  0
    3.2440   -2.1060    1.0280 N   0  0  0  0  0  0  0  0  0  0  0  0
    2.1550   -1.7150    1.8920 C   0  0  0  0  0  0  0  0  0  0  0  0
    1.0530   -1.1670    1.0290 C   0  0  0  0  0  0  0  0  0  0  0  0
    1.2450   -0.9910   -0.3200 C   0  0  0  0  0  0  0  0  0  0  0  0
    0.2350   -0.4890   -1.1310 C   0  0  0  0  0  0  0  0  0  0  0  0
   -0.9950   -0.1510   -0.6070 C   0  0  0  0  0  0  0  0  0  0  0  0
   -2.0020    0.3500   -1.4310 C   0  0  0  0  0  0  0  0  0  0  0  0
   -3.2040    0.6630   -0.8360 C   0  0  0  0  0  0  0  0  0  0  0  0
   -3.4260    0.4990    0.5010 C   0  0  0  0  0  0  0  0  0  0  0  0
   -2.3860   -0.0060    1.2850 C   0  0  0  0  0  0  0  0  0  0  0  0
   -1.1790   -0.3320    0.7500 C   0  0  0  0  0  0  0  0  0  0  0  0
   -0.1700   -0.8340    1.5660 C   0  0  0  0  0  0  0  0  0  0  0  0
   -4.6820    0.8310    1.0650 N   0  0  0  0  0  0  0  0  0  0  0  0
   -5.8400    0.7550    0.1900 C   0  0  2  0  0  0  0  0  0  0  0  0
   -7.1150    1.1550    0.8540 C   0  0  0  0  0  0  0  0  0  0  0  0
   -7.9260   -0.1380    0.8010 C   0  0  0  0  0  0  0  0  0  0  0  0
   -6.9030   -1.1860    0.8470 N   0  0  0  0  0  0  0  0  0  0  0  0
   -5.9960   -0.7230   -0.1840 C   0  0  0  0  0  0  0  0  0  0  0  0
   -5.5320    1.5140   -1.0070 N   0  0  0  0  0  0  0  0  0  0  0  0
   -6.4060    2.5380   -1.5380 C   0  0  0  0  0  0  0  0  0  0  0  0
   -4.2940    1.1960   -1.6520 C   0  0  0  0  0  0  0  0  0  0  0  0
   -4.1800    1.3810   -2.8940 O   0  0  0  0  0  0  0  0  0  0  0  0
    3.4190   -3.3990    0.4270 C   0  0  0  0  0  0  0  0  0  0  0  0
    2.6380   -4.3920    0.5730 O   0  0  0  0  0  0  0  0  0  0  0  0
    4.6540   -3.4070   -0.3940 C   0  0  0  0  0  0  0  0  0  0  0  0
  2  1  1  6
  2  3  1  0
  2 10  1  0
  3  4  1  0
  4  5  2  0
  4  9  1  0
  5  6  1  0
  6  7  2  0
  6 35  1  0
  7  8  1  0
  7 11  1  0
  8  9  2  0
  9 10  1  0
 11 12  1  0
 11 33  1  0
 12 13  1  0
 13 14  2  0
 13 22  1  0
 14 15  1  0
 15 16  2  0
 16 17  1  0
 16 21  1  0
 17 18  2  0
 18 19  1  0
 18 31  1  0
 19 20  2  0
 19 23  1  0
 20 21  1  0
 21 22  2  0
 23 24  1  0
 24 25  1  1
 24 28  1  0
 24 29  1  0
 25 26  1  0
 26 27  1  0
 27 28  1  0
 29 30  1  0
 29 31  1  0
 31 32  2  0
 33 34  2  0
 33 35  1  0
M  CHG  1  27   1
M  END
