
     RDKit          3D

 35 39  0  0  0  0  0  0  0  0999 V2000
   -5.1440    3.5750    0.9340 C   0  0  0  0  0  0  0  0  0  0  0  0
   -5.1170    2.2040    1.4830 C   0  0  0  0  0  0  0  0  0  0  0  0
   -4.3600    1.2840    0.9140 C   0  0  0  0  0  0  0  0  0  0  0  0
   -3.5680    1.5060   -0.1850 N   0  0  0  0  0  0  0  0  0  0  0  0
   -2.7860    0.6470   -0.8190 C   0  0  0  0  0  0  0  0  0  0  0  0
   -2.0920    1.2710   -1.9470 N   0  0  0  0  0  0  0  0  0  0  0  0
   -0.6920    1.7050   -1.8950 C   0  0  0  0  0  0  0  0  0  0  0  0
   -0.2910    2.8920   -1.2520 C   0  0  0  0  0  0  0  0  0  0  0  0
    1.0520    3.3170   -1.1860 C   0  0  0  0  0  0  0  0  0  0  0  0
    2.0790    2.6110   -1.7390 C   0  0  0  0  0  0  0  0  0  0  0  0
    1.7170    1.4520   -2.3730 C   0  0  0  0  0  0  0  0  0  0  0  0
    0.3740    1.0120   -2.4490 C   0  0  0  0  0  0  0  0  0  0  0  0
    3.4080    3.0160   -1.6730 O   0  0  0  0  0  0  0  0  0  0  0  0
    4.2850    2.8460   -0.5800 C   0  0  0  0  0  0  0  0  0  0  0  0
    4.6490    1.4640   -0.2540 C   0  0  0  0  0  0  0  0  0  0  0  0
    5.1780    0.8090   -1.2270 O   0  0  0  0  0  0  0  0  0  0  0  0
    4.4740    0.8060    1.0110 N   0  0  0  0  0  0  0  0  0  0  0  0
    5.6940    0.3080    1.6940 C   0  0  0  0  0  0  0  0  0  0  0  0
    3.2390    0.6040    1.6680 C   0  0  0  0  0  0  0  0  0  0  0  0
    3.1660    0.9400    2.8920 O   0  0  0  0  0  0  0  0  0  0  0  0
    1.9940    0.0270    1.0590 C   0  0  0  0  0  0  0  0  0  0  0  0
    2.2930   -1.1120    0.1460 C   0  0  0  0  0  0  0  0  0  0  0  0
    1.1970   -2.1020    0.0480 C   0  0  2  0  0  0  0  0  0  0  0  0
    1.8050   -3.5250   -0.0740 C   0  0  0  0  0  0  0  0  0  0  0  0
    2.4340   -3.3580   -1.3710 N   0  0  0  0  0  0  0  0  0  0  0  0
    1.6410   -2.4810   -2.1750 C   0  0  0  0  0  0  0  0  0  0  0  0
    0.4640   -2.1300   -1.2620 C   0  0  0  0  0  0  0  0  0  0  0  0
   -0.8200   -1.9790   -1.5110 C   0  0  0  0  0  0  0  0  0  0  0  0
   -1.9740   -1.7460   -0.6790 C   0  0  0  0  0  0  0  0  0  0  0  0
   -2.7700   -0.7300   -0.3820 C   0  0  0  0  0  0  0  0  0  0  0  0
   -3.9140   -1.1310    0.5940 C   0  0  1  0  0  0  0  0  0  0  0  0
   -3.5190   -2.2510    1.4730 C   0  0  0  0  0  0  0  0  0  0  0  0
   -4.4510   -2.0440    2.6840 C   0  0  0  0  0  0  0  0  0  0  0  0
   -4.6520   -0.5770    2.6560 C   0  0  0  0  0  0  0  0  0  0  0  0
   -4.3410   -0.0820    1.4670 C   0  0  0  0  0  0  0  0  0  0  0  0
  1  2  1  0
  2  3  2  3
  3  4  1  0
  3 35  1  0
  4  5  2  0
  5  6  1  0
  5 30  1  0
  6  7  1  0
  7  8  2  0
  7 12  1  0
  8  9  1  0
  9 10  2  0
 10 11  1  0
 10 13  1  0
 11 12  2  0
 13 14  1  0
 14 15  1  0
 15 16  2  0
 15 17  1  0
 17 18  1  0
 17 19  1  0
 19 20  2  0
 19 21  1  0
 21 22  1  0
 23 22  1  6
 23 24  1  0
 23 27  1  0
 24 25  1  0
 25 26  1  0
 26 27  1  0
 27 28  2  0
 28 29  1  0
 29 30  2  0
 30 31  1  0
 31 32  1  1
 31 35  1  0
 32 33  1  0
 33 34  1  0
 34 35  2  0
M  CHG  1  25   1
M  END
