
     RDKit          3D

 35 38  0  0  0  0  0  0  0  0999 V2000
   -7.0490   -0.0760   -0.7930 C   0  0  0  0  0  0  0  0  0  0  0  0
   -5.7850   -0.3400    0.0180 C   0  0  0  0  0  0  0  0  0  0  0  0
   -4.9960   -1.3890   -0.7150 C   0  0  0  0  0  0  0  0  0  0  0  0
   -3.7350   -1.7710   -0.0460 C   0  0  0  0  0  0  0  0  0  0  0  0
   -2.5130   -1.3690   -0.4180 N   0  0  0  0  0  0  0  0  0  0  0  0
   -1.5980   -1.9090    0.4130 C   0  0  0  0  0  0  0  0  0  0  0  0
   -0.2290   -1.7220    0.3240 N   0  0  0  0  0  0  0  0  0  0  0  0
    0.4160   -0.5730    0.1690 C   0  0  0  0  0  0  0  0  0  0  0  0
   -0.4550    0.5510    0.1020 C   0  0  0  0  0  0  0  0  0  0  0  0
   -0.3950    1.6060   -0.7680 C   0  0  0  0  0  0  0  0  0  0  0  0
   -1.1920    2.7270   -0.7050 C   0  0  0  0  0  0  0  0  0  0  0  0
   -2.1280    2.8140    0.3000 C   0  0  0  0  0  0  0  0  0  0  0  0
   -2.9890    4.0050    0.3890 C   0  0  0  0  0  0  0  0  0  0  0  0
   -4.2650    3.7800   -0.4100 C   0  0  0  0  0  0  0  0  0  0  0  0
   -2.2490    1.7990    1.2070 C   0  0  0  0  0  0  0  0  0  0  0  0
   -1.4430    0.7110    1.1100 C   0  0  0  0  0  0  0  0  0  0  0  0
    1.8620   -0.7050    0.1590 C   0  0  0  0  0  0  0  0  0  0  0  0
    2.5180   -1.9540    0.1530 C   0  0  0  0  0  0  0  0  0  0  0  0
    3.8670   -1.7830    0.1370 C   0  0  0  0  0  0  0  0  0  0  0  0
    4.0980   -0.4640    0.1330 N   0  0  0  0  0  0  0  0  0  0  0  0
    2.9060    0.2160    0.1470 C   0  0  0  0  0  0  0  0  0  0  0  0
    2.6970    1.6660    0.1210 C   0  0  0  0  0  0  0  0  0  0  0  0
    3.8480    2.5180    0.2610 N   0  0  0  0  0  0  0  0  0  0  0  0
    5.5150   -0.2440    0.1060 C   0  0  0  0  0  0  0  0  0  0  0  0
    6.1780    0.8210    0.0930 O   0  0  0  0  0  0  0  0  0  0  0  0
    6.1800   -1.5290    0.0930 N   0  0  0  0  0  0  0  0  0  0  0  0
    7.6350   -1.7380    0.0560 C   0  0  0  0  0  0  0  0  0  0  0  0
    8.0540   -1.7970   -1.3440 C   0  0  0  0  0  0  0  0  0  0  0  0
    9.3830   -1.9820   -1.8050 N   0  0  0  0  0  0  0  0  0  0  0  0
    7.1820   -1.6760   -2.2550 O   0  0  0  0  0  0  0  0  0  0  0  0
    5.1460   -2.4780    0.1120 C   0  0  0  0  0  0  0  0  0  0  0  0
    5.3240   -3.7280    0.1090 O   0  0  0  0  0  0  0  0  0  0  0  0
   -2.2600   -2.6460    1.3000 N   0  0  0  0  0  0  0  0  0  0  0  0
   -3.5930   -2.5830    1.0440 C   0  0  0  0  0  0  0  0  0  0  0  0
   -4.6540   -3.2880    1.8300 C   0  0  0  0  0  0  0  0  0  0  0  0
  1  2  1  0
  2  3  1  0
  3  4  1  0
  4  5  1  0
  4 34  2  0
  5  6  1  0
  6  7  1  0
  6 33  2  0
  7  8  2  3
  8  9  1  0
  8 17  1  0
  9 10  2  0
  9 16  1  0
 10 11  1  0
 11 12  2  0
 12 13  1  0
 12 15  1  0
 13 14  1  0
 15 16  2  0
 17 18  1  0
 17 21  2  0
 18 19  2  0
 19 20  1  0
 19 31  1  0
 20 21  1  0
 20 24  1  0
 21 22  1  0
 22 23  1  0
 24 25  2  0
 24 26  1  0
 26 27  1  0
 26 31  1  0
 27 28  1  0
 28 29  1  0
 28 30  2  0
 31 32  2  0
 33 34  1  0
 34 35  1  0
M  CHG  1  23   1
M  END
