
     RDKit          3D

 35 41  0  0  0  0  0  0  0  0999 V2000
   -1.5540   -2.8210    2.8310 C   0  0  0  0  0  0  0  0  0  0  0  0
   -1.2960   -3.1450    1.3970 C   0  0  1  0  0  0  0  0  0  0  0  0
   -2.5110   -2.9320    0.5010 C   0  0  0  0  0  0  0  0  0  0  0  0
   -2.4600   -1.4780    0.2120 C   0  0  2  0  0  0  0  0  0  0  0  0
   -3.0830   -0.7370    1.2970 N   0  0  0  0  0  0  0  0  0  0  0  0
   -3.1320    0.6790    1.1660 C   0  0  0  0  0  0  0  0  0  0  0  0
   -3.1490    1.4550    2.1890 N   0  0  0  0  0  0  0  0  0  0  0  0
   -3.1990    2.8970    1.9720 C   0  0  0  0  0  0  0  0  0  0  0  0
   -4.2350    3.1540    0.9230 C   0  0  0  0  0  0  0  0  0  0  0  0
   -4.0130    2.4370   -0.3620 C   0  0  0  0  0  0  0  0  0  0  0  0
   -3.1640    1.2020   -0.2450 C   0  0  2  0  0  0  0  0  0  0  0  0
   -3.7870    0.0950   -1.0690 C   0  0  2  0  0  0  0  0  0  0  0  0
   -4.0260    0.5130   -2.4920 C   0  0  0  0  0  0  0  0  0  0  0  0
   -5.3640   -0.0590   -2.8520 C   0  0  0  0  0  0  0  0  0  0  0  0
   -6.1530   -0.0790   -1.5820 C   0  0  0  0  0  0  0  0  0  0  0  0
   -5.1660   -0.1760   -0.4640 C   0  0  0  0  0  0  0  0  0  0  0  0
   -3.0400   -1.1180   -1.0630 N   0  0  0  0  0  0  0  0  0  0  0  0
   -0.9910   -1.1750    0.1340 C   0  0  0  0  0  0  0  0  0  0  0  0
   -0.0960   -0.3430   -0.3390 O   0  0  0  0  0  0  0  0  0  0  0  0
    1.1140   -0.6880   -0.0110 C   0  0  0  0  0  0  0  0  0  0  0  0
    2.3960    0.0210   -0.3710 C   0  0  0  0  0  0  0  0  0  0  0  0
    3.4600   -0.6950    0.1880 O   0  0  0  0  0  0  0  0  0  0  0  0
    4.7840   -0.3170    0.0480 C   0  0  0  0  0  0  0  0  0  0  0  0
    5.7620   -1.0840    0.6330 C   0  0  0  0  0  0  0  0  0  0  0  0
    7.0960   -0.7310    0.5120 C   0  0  0  0  0  0  0  0  0  0  0  0
    7.5010    0.3860   -0.1880 C   0  0  0  0  0  0  0  0  0  0  0  0
    8.9190    0.7420   -0.3050 C   0  0  0  0  0  0  0  0  0  0  0  0
    9.4470    1.7940   -0.9530 N   0  0  0  0  0  0  0  0  0  0  0  0
   10.8030    1.7600   -0.8180 C   0  0  0  0  0  0  0  0  0  0  0  0
   11.0550    0.6360   -0.0580 C   0  0  0  0  0  0  0  0  0  0  0  0
    9.9080    0.0690    0.2190 O   0  0  0  0  0  0  0  0  0  0  0  0
    6.5240    1.1600   -0.7780 C   0  0  0  0  0  0  0  0  0  0  0  0
    5.1840    0.8060   -0.6570 C   0  0  0  0  0  0  0  0  0  0  0  0
    1.0110   -1.8380    0.7370 C   0  0  0  0  0  0  0  0  0  0  0  0
   -0.3230   -2.1450    0.8270 C   0  0  0  0  0  0  0  0  0  0  0  0
  2  1  1  1
  2  3  1  0
  2 35  1  0
  4  3  1  1
  4  5  1  0
  4 17  1  0
  4 18  1  0
  5  6  1  0
  6  7  2  0
  6 11  1  0
  7  8  1  0
  8  9  1  0
  9 10  1  0
 11 10  1  1
 11 12  1  0
 12 13  1  6
 12 16  1  0
 12 17  1  0
 13 14  1  0
 14 15  1  0
 15 16  1  0
 18 19  1  0
 18 35  2  0
 19 20  1  0
 20 21  1  0
 20 34  2  0
 21 22  1  0
 22 23  1  0
 23 24  2  0
 23 33  1  0
 24 25  1  0
 25 26  2  0
 26 27  1  0
 26 32  1  0
 27 28  2  0
 27 31  1  0
 28 29  1  0
 29 30  2  0
 30 31  1  0
 32 33  2  0
 34 35  1  0
M  CHG  1   7   1
M  END
