
     RDKit          3D

 35 39  0  0  0  0  0  0  0  0999 V2000
    0.9370   -1.9070   -3.9580 C   0  0  0  0  0  0  0  0  0  0  0  0
   -0.4490   -1.4310   -4.0470 C   0  0  0  0  0  0  0  0  0  0  0  0
   -1.3240   -1.3930   -2.9840 C   0  0  0  0  0  0  0  0  0  0  0  0
   -0.6950   -1.8810   -1.7860 C   0  0  0  0  0  0  0  0  0  0  0  0
   -1.2520   -1.9720   -0.5090 C   0  0  0  0  0  0  0  0  0  0  0  0
   -2.5530   -1.5140   -0.4960 C   0  0  0  0  0  0  0  0  0  0  0  0
   -3.5800   -1.3650    0.5140 O   0  0  0  0  0  0  0  0  0  0  0  0
   -3.1140   -1.0690   -1.6110 N   0  0  0  0  0  0  0  0  0  0  0  0
   -2.6060   -0.9690   -2.8700 C   0  0  0  0  0  0  0  0  0  0  0  0
   -3.5710   -0.4740   -3.6850 C   0  0  0  0  0  0  0  0  0  0  0  0
   -3.9470    0.9320   -3.7760 C   0  0  0  0  0  0  0  0  0  0  0  0
   -2.8670    1.9760   -3.8340 C   0  0  0  0  0  0  0  0  0  0  0  0
   -2.0760    2.1040   -2.5620 C   0  0  0  0  0  0  0  0  0  0  0  0
   -0.7910    1.6400   -2.4200 C   0  0  0  0  0  0  0  0  0  0  0  0
   -0.1070    1.5780   -1.1800 C   0  0  0  0  0  0  0  0  0  0  0  0
   -0.6930    1.9940    0.0130 C   0  0  0  0  0  0  0  0  0  0  0  0
   -1.9830    2.4700   -0.1830 C   0  0  0  0  0  0  0  0  0  0  0  0
   -2.6830    2.5370   -1.4170 C   0  0  0  0  0  0  0  0  0  0  0  0
   -0.1180    1.7260    1.2830 N   0  0  0  0  0  0  0  0  0  0  0  0
   -0.6300    0.4440    1.9800 C   0  0  0  0  0  0  0  0  0  0  0  0
    0.6070   -0.4560    1.8280 C   0  0  2  0  0  0  0  0  0  0  0  0
    0.2470   -1.8460    1.6040 C   0  0  0  0  0  0  0  0  0  0  0  0
    0.8130   -2.6310    2.4750 O   0  0  0  0  0  0  0  0  0  0  0  0
   -0.5770   -2.5040    0.6500 N   0  0  0  0  0  0  0  0  0  0  0  0
    1.5080   -0.0960    2.8520 N   0  0  1  0  0  0  0  0  0  0  0  0
    2.8580   -0.4700    2.5510 C   0  0  0  0  0  0  0  0  0  0  0  0
    3.1840   -1.1200    1.4060 C   0  0  0  0  0  0  0  0  0  0  0  0
    4.5020   -1.4820    1.1020 C   0  0  0  0  0  0  0  0  0  0  0  0
    5.5160   -1.1770    1.9800 C   0  0  0  0  0  0  0  0  0  0  0  0
    5.2090   -0.5270    3.1320 C   0  0  0  0  0  0  0  0  0  0  0  0
    3.8980   -0.1750    3.4200 C   0  0  0  0  0  0  0  0  0  0  0  0
    1.4630    1.3050    3.2000 C   0  0  2  0  0  0  0  0  0  0  0  0
    0.8710    1.5460    4.5900 C   0  0  0  0  0  0  0  0  0  0  0  0
    0.8740    2.1990    2.1990 C   0  0  0  0  0  0  0  0  0  0  0  0
    1.2160    3.3990    2.1070 O   0  0  0  0  0  0  0  0  0  0  0  0
  1  2  1  0
  2  3  2  3
  3  4  1  0
  3  9  1  0
  4  5  2  0
  5  6  1  0
  5 24  1  0
  6  7  1  0
  6  8  2  0
  8  9  1  0
  9 10  2  0
 10 11  1  0
 11 12  1  0
 12 13  1  0
 13 14  2  0
 13 18  1  0
 14 15  1  0
 15 16  2  0
 16 17  1  0
 16 19  1  0
 17 18  2  0
 19 20  1  0
 19 34  1  0
 20 21  1  0
 21 22  1  1
 21 25  1  0
 22 23  2  0
 22 24  1  0
 25 26  1  6
 25 32  1  0
 26 27  2  0
 26 31  1  0
 27 28  1  0
 28 29  2  0
 29 30  1  0
 30 31  2  0
 32 33  1  1
 32 34  1  0
 34 35  2  0
M  CHG  1  25   1
M  END
