
     RDKit          3D

 24 26  0  0  0  0  0  0  0  0999 V2000
    6.4370    0.1090    1.6200 C   0  0  0  0  0  0  0  0  0  0  0  0
    5.4000    0.9210    1.6390 C   0  0  0  0  0  0  0  0  0  0  0  0
    4.0890    0.4040    1.7970 N   0  0  0  0  0  0  0  0  0  0  0  0
    3.7080   -0.1070    3.1150 C   0  0  0  0  0  0  0  0  0  0  0  0
    3.1240    0.3430    0.7650 C   0  0  0  0  0  0  0  0  0  0  0  0
    3.1570   -0.7630   -0.0620 C   0  0  0  0  0  0  0  0  0  0  0  0
    2.2400   -0.9050   -1.1010 C   0  0  0  0  0  0  0  0  0  0  0  0
    1.2880    0.0690   -1.3090 C   0  0  0  0  0  0  0  0  0  0  0  0
    0.3820   -0.0780   -2.4210 C   0  0  0  0  0  0  0  0  0  0  0  0
   -0.9140    0.0150   -2.4580 C   0  0  0  0  0  0  0  0  0  0  0  0
   -1.6570   -0.1750   -3.7780 C   0  0  0  0  0  0  0  0  0  0  0  0
   -2.9770    0.2290   -3.5710 O   0  0  0  0  0  0  0  0  0  0  0  0
   -3.0660    1.4240   -2.8740 C   0  0  0  0  0  0  0  0  0  0  0  0
   -2.8140    1.2430   -1.3700 C   0  0  0  0  0  0  0  0  0  0  0  0
   -1.7350    0.2380   -1.3200 N   0  0  0  0  0  0  0  0  0  0  0  0
   -1.5430   -0.5690   -0.1270 C   0  0  1  0  0  0  0  0  0  0  0  0
   -1.5540    0.2320    1.1490 C   0  0  0  0  0  0  0  0  0  0  0  0
   -2.2540   -0.6350    2.2080 C   0  0  0  0  0  0  0  0  0  0  0  0
   -3.7020   -0.7160    1.8110 C   0  0  2  0  0  0  0  0  0  0  0  0
   -4.4730   -1.2480    2.8280 F   0  0  0  0  0  0  0  0  0  0  0  0
   -3.7960   -1.5210    0.5400 C   0  0  0  0  0  0  0  0  0  0  0  0
   -2.4840   -1.7530   -0.1110 C   0  0  0  0  0  0  0  0  0  0  0  0
    1.2380    1.1840   -0.4940 C   0  0  0  0  0  0  0  0  0  0  0  0
    2.1630    1.3060    0.5390 C   0  0  0  0  0  0  0  0  0  0  0  0
  1  2  2  0
  2  3  1  0
  3  4  1  0
  3  5  1  0
  5  6  2  0
  5 24  1  0
  6  7  1  0
  7  8  2  0
  8  9  1  0
  8 23  1  0
  9 10  2  3
 10 11  1  0
 10 15  1  0
 11 12  1  0
 12 13  1  0
 13 14  1  0
 14 15  1  0
 16 15  1  6
 16 17  1  0
 16 22  1  0
 17 18  1  0
 18 19  1  0
 19 20  1  1
 19 21  1  0
 21 22  1  0
 23 24  2  0
M  END
