
     RDKit          3D

 24 26  0  0  0  0  0  0  0  0999 V2000
    5.9630    1.4260   -1.6100 C   0  0  0  0  0  0  0  0  0  0  0  0
    5.4000    0.4290   -0.6700 C   0  0  0  0  0  0  0  0  0  0  0  0
    5.8560    0.3530    0.6190 C   0  0  0  0  0  0  0  0  0  0  0  0
    5.2920   -0.6030    1.4610 C   0  0  0  0  0  0  0  0  0  0  0  0
    5.7330   -0.6900    2.7420 F   0  0  0  0  0  0  0  0  0  0  0  0
    4.3060   -1.4560    1.0330 C   0  0  0  0  0  0  0  0  0  0  0  0
    3.8390   -1.3830   -0.2750 C   0  0  0  0  0  0  0  0  0  0  0  0
    2.8790   -2.2350   -0.7210 N   0  0  0  0  0  0  0  0  0  0  0  0
    1.6640   -2.2390   -0.7800 C   0  0  0  0  0  0  0  0  0  0  0  0
    0.7360   -1.2180   -0.3410 C   0  0  0  0  0  0  0  0  0  0  0  0
    1.0820   -0.0230    0.2390 C   0  0  0  0  0  0  0  0  0  0  0  0
    0.0960    0.8930    0.6250 C   0  0  0  0  0  0  0  0  0  0  0  0
   -1.2490    0.6650    0.4550 C   0  0  0  0  0  0  0  0  0  0  0  0
   -1.5650   -0.5100   -0.1140 N   0  0  0  0  0  0  0  0  0  0  0  0
   -0.6500   -1.4070   -0.4950 C   0  0  0  0  0  0  0  0  0  0  0  0
   -0.9970   -2.5070   -1.0300 O   0  0  0  0  0  0  0  0  0  0  0  0
   -2.8110   -1.1530   -0.4750 C   0  0  0  0  0  0  0  0  0  0  0  0
   -3.8590   -0.2100   -0.9540 C   0  0  1  0  0  0  0  0  0  0  0  0
   -4.6930   -0.8860   -2.0180 C   0  0  0  0  0  0  0  0  0  0  0  0
   -4.7190    0.1740    0.2400 C   0  0  0  0  0  0  0  0  0  0  0  0
   -4.3790    1.6080    0.5820 C   0  0  0  0  0  0  0  0  0  0  0  0
   -3.2640    1.5530    1.6180 C   0  0  0  0  0  0  0  0  0  0  0  0
   -1.9550    1.8390    0.9760 C   0  0  0  0  0  0  0  0  0  0  0  0
    4.4270   -0.4090   -1.1010 C   0  0  0  0  0  0  0  0  0  0  0  0
  1  2  1  0
  2  3  2  0
  2 24  1  0
  3  4  1  0
  4  5  1  0
  4  6  2  0
  6  7  1  0
  7  8  1  0
  7 24  2  0
  8  9  2  3
  9 10  1  0
 10 11  2  0
 10 15  1  0
 11 12  1  0
 12 13  2  0
 13 14  1  0
 13 23  1  0
 14 15  1  0
 14 17  1  0
 15 16  2  0
 17 18  1  0
 18 19  1  6
 18 20  1  0
 20 21  1  0
 21 22  1  0
 22 23  1  0
M  END
