
     RDKit          3D

 23 26  0  0  0  0  0  0  0  0999 V2000
    6.2070   -0.3940   -0.7290 C   0  0  0  0  0  0  0  0  0  0  0  0
    5.4120    0.4110    0.2600 C   0  0  0  0  0  0  0  0  0  0  0  0
    3.9480    0.2260    0.1120 C   0  0  0  0  0  0  0  0  0  0  0  0
    3.3660   -0.5840   -0.8080 C   0  0  0  0  0  0  0  0  0  0  0  0
    1.9750   -0.6890   -0.8650 C   0  0  0  0  0  0  0  0  0  0  0  0
    1.1690    0.0030   -0.0190 C   0  0  0  0  0  0  0  0  0  0  0  0
    1.7680    0.8270    0.9170 C   0  0  0  0  0  0  0  0  0  0  0  0
    3.1460    0.9380    0.9820 C   0  0  0  0  0  0  0  0  0  0  0  0
    3.7320    1.8390    2.0080 C   0  0  0  0  0  0  0  0  0  0  0  0
   -0.2260   -0.2820   -0.2940 N   0  0  0  0  0  0  0  0  0  0  0  0
   -1.2620    0.6150    0.0910 C   0  0  0  0  0  0  0  0  0  0  0  0
   -2.6180    0.0850    0.0900 C   0  0  0  0  0  0  0  0  0  0  0  0
   -3.1340   -1.1600   -0.1330 C   0  0  0  0  0  0  0  0  0  0  0  0
   -4.5010   -1.1470    0.0230 N   0  0  0  0  0  0  0  0  0  0  0  0
   -5.3730   -2.2930   -0.1390 C   0  0  0  0  0  0  0  0  0  0  0  0
   -4.8730    0.0920    0.3460 C   0  0  0  0  0  0  0  0  0  0  0  0
   -3.7520    0.8680    0.3960 C   0  0  0  0  0  0  0  0  0  0  0  0
   -4.1990    2.1970    0.7470 C   0  0  0  0  0  0  0  0  0  0  0  0
   -3.4910    3.2180    0.8990 O   0  0  0  0  0  0  0  0  0  0  0  0
   -5.6610    2.1390    0.8980 C   0  0  0  0  0  0  0  0  0  0  0  0
   -6.0490    0.8950    0.6600 C   0  0  0  0  0  0  0  0  0  0  0  0
   -0.2300   -1.5250   -1.0130 C   0  0  0  0  0  0  0  0  0  0  0  0
    1.1100   -1.4830   -1.7450 C   0  0  0  0  0  0  0  0  0  0  0  0
  1  2  1  0
  2  3  1  0
  3  4  2  0
  3  8  1  0
  4  5  1  0
  5  6  2  0
  5 23  1  0
  6  7  1  0
  6 10  1  0
  7  8  2  0
  8  9  1  0
 10 11  1  0
 10 22  1  0
 11 12  1  0
 12 13  2  0
 12 17  1  0
 13 14  1  0
 14 15  1  0
 14 16  1  0
 16 17  2  0
 16 21  1  0
 17 18  1  0
 18 19  2  0
 18 20  1  0
 20 21  2  0
 22 23  1  0
M  END
