
     RDKit          3D

 24 26  0  0  0  0  0  0  0  0999 V2000
   -4.0900   -3.0380    1.5050 C   0  0  0  0  0  0  0  0  0  0  0  0
   -3.0540   -2.2730    0.7820 C   0  0  0  0  0  0  0  0  0  0  0  0
   -1.9790   -2.9270    0.2190 C   0  0  0  0  0  0  0  0  0  0  0  0
   -1.0060   -2.2500   -0.4560 C   0  0  0  0  0  0  0  0  0  0  0  0
    0.1170   -3.0050   -1.0350 C   0  0  0  0  0  0  0  0  0  0  0  0
   -1.0800   -0.8730   -0.5890 C   0  0  0  0  0  0  0  0  0  0  0  0
    0.0090   -0.2570   -1.3030 C   0  0  0  0  0  0  0  0  0  0  0  0
   -0.0980   -0.1600   -2.5550 O   0  0  0  0  0  0  0  0  0  0  0  0
    1.1840    0.2430   -0.7310 N   0  0  0  0  0  0  0  0  0  0  0  0
    2.1910    0.8280   -1.5590 C   0  0  0  0  0  0  0  0  0  0  0  0
    3.5880    0.6790   -1.0470 C   0  0  0  0  0  0  0  0  0  0  0  0
    3.6780    0.8570    0.4600 C   0  0  2  0  0  0  0  0  0  0  0  0
    5.1390    0.6000    0.7990 C   0  0  0  0  0  0  0  0  0  0  0  0
    2.7780   -0.1680    1.1010 C   0  0  0  0  0  0  0  0  0  0  0  0
    1.3550    0.1570    0.6940 C   0  0  0  0  0  0  0  0  0  0  0  0
   -2.1040   -0.1820   -0.0610 C   0  0  0  0  0  0  0  0  0  0  0  0
   -2.3270    1.2620   -0.0700 C   0  0  0  0  0  0  0  0  0  0  0  0
   -1.6100    2.1970   -0.7540 C   0  0  0  0  0  0  0  0  0  0  0  0
   -1.8910    3.5640   -0.7140 C   0  0  0  0  0  0  0  0  0  0  0  0
   -2.9450    3.9740    0.0560 C   0  0  0  0  0  0  0  0  0  0  0  0
   -3.2870    5.3030    0.1490 F   0  0  0  0  0  0  0  0  0  0  0  0
   -3.6820    3.0420    0.7540 C   0  0  0  0  0  0  0  0  0  0  0  0
   -3.3550    1.7770    0.6650 N   0  0  0  0  0  0  0  0  0  0  0  0
   -3.0930   -0.9120    0.6300 C   0  0  0  0  0  0  0  0  0  0  0  0
  1  2  1  0
  2  3  2  0
  2 24  1  0
  3  4  1  0
  4  5  1  0
  4  6  2  0
  6  7  1  0
  6 16  1  0
  7  8  2  0
  7  9  1  0
  9 10  1  0
  9 15  1  0
 10 11  1  0
 11 12  1  0
 12 13  1  1
 12 14  1  0
 14 15  1  0
 16 17  1  0
 16 24  2  0
 17 18  2  0
 17 23  1  0
 18 19  1  0
 19 20  2  0
 20 21  1  0
 20 22  1  0
 22 23  2  0
M  END
