
     RDKit          3D

 24 26  0  0  0  0  0  0  0  0999 V2000
   -3.1270   -1.8430    2.0840 C   0  0  0  0  0  0  0  0  0  0  0  0
   -2.4320   -0.7720    1.3210 C   0  0  0  0  0  0  0  0  0  0  0  0
   -3.0920   -0.2490    0.2990 C   0  0  0  0  0  0  0  0  0  0  0  0
   -4.4260   -0.7490   -0.0020 C   0  0  0  0  0  0  0  0  0  0  0  0
   -5.3460   -0.2100   -0.8130 C   0  0  0  0  0  0  0  0  0  0  0  0
   -5.1600    1.0470   -1.5800 C   0  0  0  0  0  0  0  0  0  0  0  0
   -3.9780    1.0830   -2.4670 C   0  0  0  0  0  0  0  0  0  0  0  0
   -2.6930    0.5880   -1.9350 C   0  0  0  0  0  0  0  0  0  0  0  0
   -2.4120    0.8380   -0.4930 C   0  0  2  0  0  0  0  0  0  0  0  0
   -0.9550    0.6490   -0.2680 C   0  0  0  0  0  0  0  0  0  0  0  0
   -0.1390    1.6150    0.2870 C   0  0  0  0  0  0  0  0  0  0  0  0
    1.2140    1.3630    0.4650 C   0  0  0  0  0  0  0  0  0  0  0  0
    1.7730    0.1560    0.0960 C   0  0  0  0  0  0  0  0  0  0  0  0
    3.1990   -0.0410    0.3060 C   0  0  0  0  0  0  0  0  0  0  0  0
    3.8740    0.9400    0.8480 N   0  0  0  0  0  0  0  0  0  0  0  0
    5.2150    0.9270    1.1170 N   0  0  0  0  0  0  0  0  0  0  0  0
    5.9350    2.0290    1.7190 C   0  0  0  0  0  0  0  0  0  0  0  0
    5.9380   -0.2550    0.7770 C   0  0  0  0  0  0  0  0  0  0  0  0
    7.1440   -0.3480    1.0920 O   0  0  0  0  0  0  0  0  0  0  0  0
    5.3140   -1.3750    0.0670 C   0  0  0  0  0  0  0  0  0  0  0  0
    3.8390   -1.3020   -0.0920 C   0  0  0  0  0  0  0  0  0  0  0  0
    0.9920   -0.8100   -0.4510 C   0  0  0  0  0  0  0  0  0  0  0  0
    1.5090   -1.9960   -0.8150 F   0  0  0  0  0  0  0  0  0  0  0  0
   -0.3780   -0.5480   -0.6290 C   0  0  0  0  0  0  0  0  0  0  0  0
  1  2  1  0
  2  3  2  3
  3  4  1  0
  3  9  1  0
  4  5  2  0
  5  6  1  0
  6  7  1  0
  7  8  1  0
  8  9  1  0
  9 10  1  6
 10 11  2  0
 10 24  1  0
 11 12  1  0
 12 13  2  0
 13 14  1  0
 13 22  1  0
 14 15  2  0
 14 21  1  0
 15 16  1  0
 16 17  1  0
 16 18  1  0
 18 19  2  0
 18 20  1  0
 20 21  1  0
 22 23  1  0
 22 24  2  0
M  END
