
     RDKit          3D

 20 22  0  0  0  0  0  0  0  0999 V2000
    4.7230    2.4110    0.9620 C   0  0  0  0  0  0  0  0  0  0  0  0
    3.2940    1.4230    1.5310 S   0  0  0  0  0  0  0  0  0  0  0  0
    3.1170    0.0350    0.3970 C   0  0  0  0  0  0  0  0  0  0  0  0
    1.9580   -0.8630    0.7670 C   0  0  1  0  0  0  0  0  0  0  0  0
    0.7510   -0.2150    0.7630 O   0  0  0  0  0  0  0  0  0  0  0  0
   -0.1630   -1.0600    0.1940 C   0  0  1  0  0  0  0  0  0  0  0  0
   -1.4000   -0.4710   -0.1670 N   0  0  0  0  0  0  0  0  0  0  0  0
   -1.9820   -0.6050   -1.3730 C   0  0  0  0  0  0  0  0  0  0  0  0
   -3.1480    0.0820   -1.3810 N   0  0  0  0  0  0  0  0  0  0  0  0
   -3.2880    0.6460   -0.1680 C   0  0  0  0  0  0  0  0  0  0  0  0
   -4.2740    1.4390    0.3580 C   0  0  0  0  0  0  0  0  0  0  0  0
   -5.3800    1.7640   -0.4740 N   0  0  0  0  0  0  0  0  0  0  0  0
   -4.1760    1.8860    1.6320 N   0  0  0  0  0  0  0  0  0  0  0  0
   -3.0860    1.5330    2.3690 C   0  0  0  0  0  0  0  0  0  0  0  0
   -2.1200    0.7550    1.8480 N   0  0  0  0  0  0  0  0  0  0  0  0
   -2.1790    0.2890    0.5870 C   0  0  0  0  0  0  0  0  0  0  0  0
    0.6150   -1.5670   -1.0220 C   0  0  2  0  0  0  0  0  0  0  0  0
    0.0160   -2.6720   -1.5950 O   0  0  0  0  0  0  0  0  0  0  0  0
    1.9000   -1.9590   -0.2770 C   0  0  2  0  0  0  0  0  0  0  0  0
    1.6510   -3.2080    0.2830 O   0  0  0  0  0  0  0  0  0  0  0  0
  1  2  1  0
  2  3  1  0
  4  3  1  6
  4  5  1  0
  4 19  1  0
  5  6  1  0
  6  7  1  6
  6 17  1  0
  7  8  1  0
  7 16  1  0
  8  9  2  0
  9 10  1  0
 10 11  2  0
 10 16  1  0
 11 12  1  0
 11 13  1  0
 13 14  2  0
 14 15  1  0
 15 16  2  0
 17 18  1  1
 17 19  1  0
 19 20  1  1
M  END
