
     RDKit          3D

 30 32  0  0  0  0  0  0  0  0999 V2000
   -4.4510    3.1940    0.6150 O   0  0  0  0  0  0  0  0  0  0  0  0
   -3.2360    2.8470    0.6800 C   0  0  0  0  0  0  0  0  0  0  0  0
   -2.3820    3.5730    1.5230 O   0  0  0  0  0  0  0  0  0  0  0  0
   -2.7720    1.7630   -0.0750 N   0  0  0  0  0  0  0  0  0  0  0  0
   -3.1940    1.5270   -1.2260 C   0  0  0  0  0  0  0  0  0  0  0  0
   -4.1640    2.3310   -1.8450 O   0  0  0  0  0  0  0  0  0  0  0  0
   -5.1860    1.8230   -2.6710 C   0  0  0  0  0  0  0  0  0  0  0  0
   -4.7380    0.6720   -3.5040 C   0  0  0  0  0  0  0  0  0  0  0  0
   -3.3460    0.3180   -3.3030 N   0  0  0  0  0  0  0  0  0  0  0  0
   -2.6990    0.3980   -1.9840 C   0  0  0  0  0  0  0  0  0  0  0  0
   -1.8080   -0.4830   -1.7100 C   0  0  0  0  0  0  0  0  0  0  0  0
   -0.8900   -0.8700   -0.6980 C   0  0  0  0  0  0  0  0  0  0  0  0
   -0.2190   -1.9410   -0.9340 N   0  0  0  0  0  0  0  0  0  0  0  0
    0.6910   -2.6540   -0.3370 O   0  0  0  0  0  0  0  0  0  0  0  0
    0.6120   -4.0250    0.0070 C   0  0  0  0  0  0  0  0  0  0  0  0
    1.8130   -4.5890    0.6700 C   0  0  1  0  0  0  0  0  0  0  0  0
    3.1470   -4.5880   -0.0190 C   0  0  0  0  0  0  0  0  0  0  0  0
    2.8890   -3.8250    1.2950 C   0  0  0  0  0  0  0  0  0  0  0  0
   -0.6040   -0.1620    0.5250 C   0  0  1  0  0  0  0  0  0  0  0  0
    0.3900   -0.9030    1.4540 C   0  0  0  0  0  0  0  0  0  0  0  0
    0.4260   -0.0680    2.5860 O   0  0  0  0  0  0  0  0  0  0  0  0
    1.6730    0.4580    2.7940 C   0  0  0  0  0  0  0  0  0  0  0  0
    2.0040    1.5900    1.8790 C   0  0  1  0  0  0  0  0  0  0  0  0
    3.2540    1.2970    1.0510 C   0  0  0  0  0  0  0  0  0  0  0  0
    3.5250    2.7950   -0.0230 P   0  0  0  0  0  0  0  0  0  0  0  0
    3.8720    4.1490    1.0320 O   0  0  0  0  0  0  0  0  0  0  0  0
    4.9100    2.5500   -1.0590 O   0  0  0  0  0  0  0  0  0  0  0  0
    0.9040    1.9220    0.9870 C   0  0  0  0  0  0  0  0  0  0  0  0
    0.6430    3.1760    0.9060 O   0  0  0  0  0  0  0  0  0  0  0  0
    0.0590    1.1080    0.1820 N   0  0  0  0  0  0  0  0  0  0  0  0
  1  2  2  0
  2  3  1  0
  2  4  1  0
  4  5  2  3
  5  6  1  0
  5 10  1  0
  6  7  1  0
  7  8  1  0
  8  9  1  0
  9 10  1  0
 10 11  2  3
 11 12  1  0
 12 13  2  3
 19 12  1  6
 13 14  1  0
 14 15  1  0
 16 15  1  6
 16 17  1  0
 16 18  1  0
 17 18  1  0
 19 20  1  0
 19 30  1  0
 20 21  1  0
 21 22  1  0
 22 23  1  0
 23 24  1  6
 23 28  1  0
 24 25  1  0
 25 26  1  0
 25 27  1  0
 28 29  2  0
 28 30  1  0
M  END
