
     RDKit          3D

 31 32  0  0  0  0  0  0  0  0999 V2000
    8.0210   -2.3180    0.5180 C   0  0  0  0  0  0  0  0  0  0  0  0
    6.5760   -2.4590    0.5360 C   0  0  0  0  0  0  0  0  0  0  0  0
    5.7760   -1.4090    0.1260 C   0  0  0  0  0  0  0  0  0  0  0  0
    6.4400   -0.2430   -0.2900 C   0  0  0  0  0  0  0  0  0  0  0  0
    6.2170    0.9330   -0.7260 C   0  0  0  0  0  0  0  0  0  0  0  0
    5.1360    1.6840   -1.0170 O   0  0  0  0  0  0  0  0  0  0  0  0
    4.9780    3.3980   -0.6260 P   0  0  0  0  0  0  0  0  0  0  0  0
    5.8080    4.3550   -1.7900 O   0  0  0  0  0  0  0  0  0  0  0  0
    5.5720    3.6730    0.9930 O   0  0  0  0  0  0  0  0  0  0  0  0
    4.4340   -1.7850    0.2530 C   0  0  0  0  0  0  0  0  0  0  0  0
    3.9980   -2.8200    0.6920 O   0  0  0  0  0  0  0  0  0  0  0  0
    3.2470   -0.7150   -0.2650 N   0  0  0  0  0  0  0  0  0  0  0  0
    2.1180   -1.4890    0.1260 C   0  0  0  0  0  0  0  0  0  0  0  0
    1.9840   -2.3790    0.8680 O   0  0  0  0  0  0  0  0  0  0  0  0
    1.1340   -0.8080   -0.7500 N   0  0  0  0  0  0  0  0  0  0  0  0
   -0.2060   -1.7540   -0.2910 C   0  0  0  0  0  0  0  0  0  0  0  0
   -0.0180   -2.5380    0.5480 O   0  0  0  0  0  0  0  0  0  0  0  0
   -1.3890   -1.4290   -1.0300 C   0  0  0  0  0  0  0  0  0  0  0  0
   -1.4750   -0.6260   -1.9470 O   0  0  0  0  0  0  0  0  0  0  0  0
   -2.5270   -2.0910   -0.6600 O   0  0  0  0  0  0  0  0  0  0  0  0
   -3.7950   -2.0860   -1.0940 C   0  0  0  0  0  0  0  0  0  0  0  0
   -4.6070   -0.8570   -1.1610 C   0  0  0  0  0  0  0  0  0  0  0  0
   -4.7920   -0.1250    0.0370 N   0  0  0  0  0  0  0  0  0  0  0  0
   -3.9320    1.0230    0.3130 C   0  0  0  0  0  0  0  0  0  0  0  0
   -4.9290    2.0850    0.8610 C   0  0  1  0  0  0  0  0  0  0  0  0
   -6.1090    2.0520   -0.0970 C   0  0  0  0  0  0  0  0  0  0  0  0
   -7.2510    1.5340    0.7810 C   0  0  0  0  0  0  0  0  0  0  0  0
   -6.4540    0.6580    1.7460 C   0  0  2  0  0  0  0  0  0  0  0  0
   -5.3680    1.5420    2.1120 N   0  0  0  0  0  0  0  0  0  0  0  0
   -5.8480   -0.4610    0.9330 C   0  0  0  0  0  0  0  0  0  0  0  0
   -6.2560   -1.6480    1.0380 O   0  0  0  0  0  0  0  0  0  0  0  0
  1  2  1  0
  2  3  2  3
  3  4  1  0
  3 10  1  0
  4  5  2  3
  5  6  1  0
  6  7  1  0
  7  8  1  0
  7  9  1  0
 10 11  2  0
 10 12  1  0
 12 13  1  0
 13 14  2  0
 13 15  1  0
 15 16  1  0
 16 17  2  0
 16 18  1  0
 18 19  2  0
 18 20  1  0
 20 21  1  0
 21 22  1  0
 22 23  1  0
 23 24  1  0
 23 30  1  0
 25 24  1  6
 25 26  1  0
 25 29  1  0
 26 27  1  0
 28 27  1  6
 28 29  1  0
 28 30  1  0
 30 31  2  0
M  END
