
     RDKit          3D

 30 32  0  0  0  0  0  0  0  0999 V2000
    0.4830   -3.5020    2.5300 C   0  0  0  0  0  0  0  0  0  0  0  0
    0.2430   -2.6490    1.4240 O   0  0  0  0  0  0  0  0  0  0  0  0
   -0.2180   -1.3490    1.5710 C   0  0  0  0  0  0  0  0  0  0  0  0
   -0.4210   -0.9350    2.7260 O   0  0  0  0  0  0  0  0  0  0  0  0
   -0.4460   -0.5140    0.3410 C   0  0  2  0  0  0  0  0  0  0  0  0
    0.8430   -0.4130   -0.3630 C   0  0  0  0  0  0  0  0  0  0  0  0
    2.0130   -0.1500    0.2420 N   0  0  0  0  0  0  0  0  0  0  0  0
    2.9880   -0.1260   -0.6670 C   0  0  0  0  0  0  0  0  0  0  0  0
    4.4080    0.1240   -0.4350 C   0  0  0  0  0  0  0  0  0  0  0  0
    5.3170    0.1200   -1.4750 C   0  0  0  0  0  0  0  0  0  0  0  0
    6.6630    0.3540   -1.2760 C   0  0  0  0  0  0  0  0  0  0  0  0
    7.1390    0.6020   -0.0070 C   0  0  0  0  0  0  0  0  0  0  0  0
    8.4710    0.8470    0.2810 O   0  0  0  0  0  0  0  0  0  0  0  0
    6.2100    0.6030    1.0260 C   0  0  0  0  0  0  0  0  0  0  0  0
    4.9010    0.3700    0.7910 N   0  0  0  0  0  0  0  0  0  0  0  0
    2.3990   -0.3790   -1.8450 N   0  0  0  0  0  0  0  0  0  0  0  0
    1.1150   -0.5460   -1.6270 O   0  0  0  0  0  0  0  0  0  0  0  0
   -0.9180    0.8640    0.6950 C   0  0  0  0  0  0  0  0  0  0  0  0
   -2.3400    0.9490    0.4420 N   0  0  0  0  0  0  0  0  0  0  0  0
   -2.7060    2.0100   -0.4050 C   0  0  0  0  0  0  0  0  0  0  0  0
   -4.1540    2.1790   -0.6510 C   0  0  1  0  0  0  0  0  0  0  0  0
   -4.8090    1.1250   -1.2570 O   0  0  0  0  0  0  0  0  0  0  0  0
   -5.0400    2.7130    0.9100 P   0  0  0  0  0  0  0  0  0  0  0  0
   -3.8300    3.1600    2.0620 O   0  0  0  0  0  0  0  0  0  0  0  0
   -6.1800    3.9610    0.6090 O   0  0  0  0  0  0  0  0  0  0  0  0
   -2.7460   -0.3630    0.1800 C   0  0  0  0  0  0  0  0  0  0  0  0
   -1.5570   -1.1010   -0.4630 C   0  0  1  0  0  0  0  0  0  0  0  0
   -1.4860   -0.8640   -1.9280 C   0  0  0  0  0  0  0  0  0  0  0  0
   -1.7920   -2.5650   -0.2120 C   0  0  0  0  0  0  0  0  0  0  0  0
   -2.8680   -2.9400   -1.0510 O   0  0  0  0  0  0  0  0  0  0  0  0
  1  2  1  0
  2  3  1  0
  3  4  2  0
  5  3  1  1
  5  6  1  0
  5 18  1  0
  5 27  1  0
  6  7  2  0
  6 17  1  0
  7  8  1  0
  8  9  1  0
  8 16  2  0
  9 10  2  0
  9 15  1  0
 10 11  1  0
 11 12  2  0
 12 13  1  0
 12 14  1  0
 14 15  2  0
 16 17  1  0
 18 19  1  0
 19 20  1  0
 19 26  1  0
 20 21  1  0
 21 22  1  1
 21 23  1  0
 23 24  1  0
 23 25  1  0
 26 27  1  0
 27 28  1  6
 27 29  1  0
 29 30  1  0
M  END
