
     RDKit          3D

 31 33  0  0  0  0  0  0  0  0999 V2000
   -9.9030    0.0280   -0.7990 N   0  0  0  0  0  0  0  0  0  0  0  0
   -8.7990    0.1780    0.0580 C   0  0  0  0  0  0  0  0  0  0  0  0
   -9.0090    0.2750    1.3080 O   0  0  0  0  0  0  0  0  0  0  0  0
   -7.4810    0.2180   -0.4640 N   0  0  0  0  0  0  0  0  0  0  0  0
   -6.3930    0.3720    0.4510 C   0  0  2  0  0  0  0  0  0  0  0  0
   -5.3420    1.4050    0.0210 C   0  0  0  0  0  0  0  0  0  0  0  0
   -4.3550    0.4980    0.5490 N   0  0  0  0  0  0  0  0  0  0  0  0
   -3.0940    0.6170    1.1660 C   0  0  0  0  0  0  0  0  0  0  0  0
   -2.5890    1.7610    1.3650 O   0  0  0  0  0  0  0  0  0  0  0  0
   -2.3380   -0.4640    1.5880 O   0  0  0  0  0  0  0  0  0  0  0  0
   -1.0750   -0.3010    2.2050 C   0  0  0  0  0  0  0  0  0  0  0  0
   -0.2070    0.3730    1.3050 O   0  0  0  0  0  0  0  0  0  0  0  0
    0.0860   -0.1920    0.0630 C   0  0  0  0  0  0  0  0  0  0  0  0
   -0.4220   -1.2960   -0.2520 O   0  0  0  0  0  0  0  0  0  0  0  0
    0.9930    0.5520   -0.8310 C   0  0  2  0  0  0  0  0  0  0  0  0
    1.2150   -0.2550   -2.0820 C   0  0  0  0  0  0  0  0  0  0  0  0
    2.1780   -1.2960   -1.6000 C   0  0  0  0  0  0  0  0  0  0  0  0
    3.1430   -0.4940   -0.8100 N   0  0  0  0  0  0  0  0  0  0  0  0
    4.4780   -0.8940   -0.6980 C   0  0  0  0  0  0  0  0  0  0  0  0
    4.7850   -1.9720   -1.3490 O   0  0  0  0  0  0  0  0  0  0  0  0
    5.5430   -0.2660    0.0450 C   0  0  0  0  0  0  0  0  0  0  0  0
    6.7680   -0.7860    0.0260 C   0  0  0  0  0  0  0  0  0  0  0  0
    7.9230   -0.2520    0.7270 C   0  0  1  0  0  0  0  0  0  0  0  0
    8.3940   -1.2550    1.6060 O   0  0  0  0  0  0  0  0  0  0  0  0
    9.2890    0.2030   -0.4740 P   0  0  0  0  0  0  0  0  0  0  0  0
    9.8560   -0.8490   -1.4460 O   0  0  0  0  0  0  0  0  0  0  0  0
    7.6300    0.8730    1.4660 O   0  0  0  0  0  0  0  0  0  0  0  0
    6.4000    1.4620    1.5340 C   0  0  0  0  0  0  0  0  0  0  0  0
    5.3740    0.9250    0.8520 C   0  0  0  0  0  0  0  0  0  0  0  0
    2.4220    0.6350   -0.2920 C   0  0  0  0  0  0  0  0  0  0  0  0
   -5.2270   -0.5850    0.1650 C   0  0  0  0  0  0  0  0  0  0  0  0
  1  2  1  0
  2  3  2  0
  2  4  1  0
  5  4  1  6
  5  6  1  0
  5 31  1  0
  6  7  1  0
  7  8  1  0
  7 31  1  0
  8  9  2  0
  8 10  1  0
 10 11  1  0
 11 12  1  0
 12 13  1  0
 13 14  2  0
 15 13  1  1
 15 16  1  0
 15 30  1  0
 16 17  1  0
 17 18  1  0
 18 19  1  0
 18 30  1  0
 19 20  2  0
 19 21  1  0
 21 22  2  0
 21 29  1  0
 22 23  1  0
 23 24  1  1
 23 25  1  0
 23 27  1  0
 25 26  2  0
 27 28  1  0
 28 29  2  0
M  END
