
     RDKit          3D

 31 33  0  0  0  0  0  0  0  0999 V2000
   -2.0980   -1.2820    1.7170 C   0  0  0  0  0  0  0  0  0  0  0  0
   -3.3220   -0.5570    1.5080 C   0  0  0  0  0  0  0  0  0  0  0  0
   -3.5390    0.4830    0.7420 C   0  0  0  0  0  0  0  0  0  0  0  0
   -2.6010    1.1840   -0.1020 C   0  0  0  0  0  0  0  0  0  0  0  0
   -3.0010    2.2010   -0.8010 O   0  0  0  0  0  0  0  0  0  0  0  0
   -1.2350    0.8700   -0.2590 N   0  0  0  0  0  0  0  0  0  0  0  0
   -0.4020    1.6550   -1.1420 C   0  0  0  0  0  0  0  0  0  0  0  0
    0.8440    1.4330   -1.3450 C   0  0  0  0  0  0  0  0  0  0  0  0
    1.6840    2.1950   -2.2010 O   0  0  0  0  0  0  0  0  0  0  0  0
    3.0570    1.8930   -1.9280 C   0  0  0  0  0  0  0  0  0  0  0  0
    3.0150    1.1900   -0.6210 C   0  0  2  0  0  0  0  0  0  0  0  0
    4.1410    0.3340   -0.2600 C   0  0  0  0  0  0  0  0  0  0  0  0
    5.3340    0.7940   -0.2940 O   0  0  0  0  0  0  0  0  0  0  0  0
    3.9890   -1.0230    0.1400 N   0  0  0  0  0  0  0  0  0  0  0  0
    5.1630   -1.7430    0.6480 C   0  0  1  0  0  0  0  0  0  0  0  0
    6.2530   -1.7370   -0.3820 C   0  0  0  0  0  0  0  0  0  0  0  0
    7.2870   -1.1190    0.0640 N   0  0  0  0  0  0  0  0  0  0  0  0
    7.1020   -0.6420    1.3490 N   0  0  0  0  0  0  0  0  0  0  0  0
    5.8040   -1.0040    1.7530 C   0  0  0  0  0  0  0  0  0  0  0  0
    5.2780   -0.7470    2.8530 O   0  0  0  0  0  0  0  0  0  0  0  0
    2.7240   -1.6300    0.0380 C   0  0  0  0  0  0  0  0  0  0  0  0
    2.5660   -2.8170    0.3730 O   0  0  0  0  0  0  0  0  0  0  0  0
    1.5820   -0.8450   -0.4710 C   0  0  0  0  0  0  0  0  0  0  0  0
    1.7330    0.3990   -0.8080 C   0  0  0  0  0  0  0  0  0  0  0  0
   -4.9560    0.9440    0.8030 C   0  0  0  0  0  0  0  0  0  0  0  0
   -5.4410    1.9390    0.1540 C   0  0  0  0  0  0  0  0  0  0  0  0
   -6.8380    2.2450    0.3320 O   0  0  0  0  0  0  0  0  0  0  0  0
   -5.8210    0.2110    1.6510 O   0  0  0  0  0  0  0  0  0  0  0  0
   -7.0660   -0.8320    0.9870 P   0  0  0  0  0  0  0  0  0  0  0  0
   -6.5120   -2.4530    0.7950 O   0  0  0  0  0  0  0  0  0  0  0  0
   -7.4610   -0.2240   -0.6000 O   0  0  0  0  0  0  0  0  0  0  0  0
  1  2  1  0
  2  3  2  3
  3  4  1  0
  3 25  1  0
  4  5  2  0
  4  6  1  0
  6  7  1  0
  7  8  2  3
  8  9  1  0
  8 24  1  0
  9 10  1  0
 11 10  1  6
 11 12  1  0
 11 24  1  0
 12 13  2  0
 12 14  1  0
 15 14  1  6
 14 21  1  0
 15 16  1  0
 15 19  1  0
 16 17  2  0
 17 18  1  0
 18 19  1  0
 19 20  2  0
 21 22  2  0
 21 23  1  0
 23 24  2  0
 25 26  2  3
 25 28  1  0
 26 27  1  0
 28 29  1  0
 29 30  1  0
 29 31  1  0
M  END
