
     RDKit          3D

 23 24  0  0  0  0  0  0  0  0999 V2000
    1.1180   -3.0120    0.9940 C   0  0  0  0  0  0  0  0  0  0  0  0
   -0.0800   -3.1060    1.0800 C   0  0  0  0  0  0  0  0  0  0  0  0
   -1.2220   -2.2180    0.6550 C   0  0  0  0  0  0  0  0  0  0  0  0
   -2.3860   -2.7810    0.9630 C   0  0  0  0  0  0  0  0  0  0  0  0
   -3.7530   -2.4190    0.8040 C   0  0  0  0  0  0  0  0  0  0  0  0
   -0.9460   -0.9330    0.0150 C   0  0  2  0  0  0  0  0  0  0  0  0
    0.1130   -0.2310    0.8430 C   0  0  0  0  0  0  0  0  0  0  0  0
   -0.1810   -0.1140    2.0610 O   0  0  0  0  0  0  0  0  0  0  0  0
    1.3310    0.2540    0.3020 N   0  0  0  0  0  0  0  0  0  0  0  0
    2.2470    0.8440    1.2870 C   0  0  0  0  0  0  0  0  0  0  0  0
    3.2930    1.7060    0.7070 C   0  0  0  0  0  0  0  0  0  0  0  0
    3.8480    1.2680   -0.6100 C   0  0  1  0  0  0  0  0  0  0  0  0
    4.7580    0.0650   -0.4940 C   0  0  0  0  0  0  0  0  0  0  0  0
    5.8460    0.4380    0.4550 C   0  0  0  0  0  0  0  0  0  0  0  0
    6.6640    0.7120    1.1590 N   0  0  0  0  0  0  0  0  0  0  0  0
    2.7520    0.9800   -1.6120 C   0  0  0  0  0  0  0  0  0  0  0  0
    1.6290    0.1450   -1.0760 C   0  0  0  0  0  0  0  0  0  0  0  0
   -1.9350    0.0100   -0.2370 N   0  0  0  0  0  0  0  0  0  0  0  0
   -2.9500   -0.0860   -1.1870 C   0  0  0  0  0  0  0  0  0  0  0  0
   -4.1240    0.8010   -0.7640 C   0  0  0  0  0  0  0  0  0  0  0  0
   -3.6800    2.2590   -0.7750 C   0  0  0  0  0  0  0  0  0  0  0  0
   -2.4570    2.3980    0.0910 C   0  0  0  0  0  0  0  0  0  0  0  0
   -1.4240    1.3630   -0.2540 C   0  0  0  0  0  0  0  0  0  0  0  0
  1  2  2  0
  2  3  1  0
  3  4  2  3
  3  6  1  0
  4  5  1  0
  6  7  1  0
  6 18  1  1
  7  8  2  0
  7  9  1  0
  9 10  1  0
  9 17  1  0
 10 11  1  0
 11 12  1  0
 12 13  1  1
 12 16  1  0
 13 14  1  0
 14 15  3  0
 16 17  1  0
 18 19  1  0
 18 23  1  0
 19 20  1  0
 20 21  1  0
 21 22  1  0
 22 23  1  0
M  END
