
     RDKit          3D

 23 25  0  0  0  0  0  0  0  0999 V2000
    3.7660   -3.3510    0.2430 C   0  0  0  0  0  0  0  0  0  0  0  0
    2.5070   -2.6770   -0.3060 C   0  0  0  0  0  0  0  0  0  0  0  0
    1.7460   -1.9890    0.7830 C   0  0  0  0  0  0  0  0  0  0  0  0
    0.5330   -1.2800    0.4230 C   0  0  0  0  0  0  0  0  0  0  0  0
   -0.5570   -2.0280    0.0170 C   0  0  0  0  0  0  0  0  0  0  0  0
   -0.5320   -3.5290   -0.1010 C   0  0  0  0  0  0  0  0  0  0  0  0
   -1.7140   -1.4030   -0.2650 N   0  0  0  0  0  0  0  0  0  0  0  0
   -1.8950   -0.0860   -0.1790 C   0  0  0  0  0  0  0  0  0  0  0  0
   -3.1450    0.5400   -0.4910 N   0  0  0  0  0  0  0  0  0  0  0  0
   -4.1930   -0.3770   -0.8790 C   0  0  0  0  0  0  0  0  0  0  0  0
   -5.4090    0.3590   -1.4050 C   0  0  0  0  0  0  0  0  0  0  0  0
   -6.0650    1.1690   -0.3060 C   0  0  0  0  0  0  0  0  0  0  0  0
   -5.5070    2.4350   -0.1900 O   0  0  0  0  0  0  0  0  0  0  0  0
   -4.3260    2.4250    0.5470 C   0  0  0  0  0  0  0  0  0  0  0  0
   -3.2220    1.9690   -0.3900 C   0  0  0  0  0  0  0  0  0  0  0  0
   -0.8410    0.6320    0.2150 N   0  0  0  0  0  0  0  0  0  0  0  0
    0.3850    0.0820    0.5260 C   0  0  0  0  0  0  0  0  0  0  0  0
    1.4390    0.9930    0.9700 C   0  0  0  0  0  0  0  0  0  0  0  0
    2.3840    1.5300   -0.0290 C   0  0  2  0  0  0  0  0  0  0  0  0
    3.2370    0.6280   -0.8060 C   0  0  0  0  0  0  0  0  0  0  0  0
    4.2800    1.6060   -1.3890 C   0  0  0  0  0  0  0  0  0  0  0  0
    4.6440    2.4140   -0.1790 C   0  0  0  0  0  0  0  0  0  0  0  0
    3.3840    2.4870    0.6290 C   0  0  0  0  0  0  0  0  0  0  0  0
  1  2  1  0
  2  3  1  0
  3  4  1  0
  4  5  2  0
  4 17  1  0
  5  6  1  0
  5  7  1  0
  7  8  2  0
  8  9  1  0
  8 16  1  0
  9 10  1  0
  9 15  1  0
 10 11  1  0
 11 12  1  0
 12 13  1  0
 13 14  1  0
 14 15  1  0
 16 17  2  0
 17 18  1  0
 19 18  1  1
 19 20  1  0
 19 23  1  0
 20 21  1  0
 21 22  1  0
 22 23  1  0
M  END
