
     RDKit          3D

 23 25  0  0  0  0  0  0  0  0999 V2000
   -5.6250    2.8890    0.3450 C   0  0  0  0  0  0  0  0  0  0  0  0
   -4.6460    1.7800    0.2340 C   0  0  0  0  0  0  0  0  0  0  0  0
   -3.4410    1.8320    0.8970 C   0  0  0  0  0  0  0  0  0  0  0  0
   -2.5180    0.7820    0.7900 C   0  0  0  0  0  0  0  0  0  0  0  0
   -2.7610   -0.3340    0.0310 C   0  0  0  0  0  0  0  0  0  0  0  0
   -1.8440   -1.4920   -0.0950 C   0  0  0  0  0  0  0  0  0  0  0  0
   -0.6130   -1.2090    0.6170 N   0  0  0  0  0  0  0  0  0  0  0  0
    0.1260   -2.4730    0.6610 C   0  0  0  0  0  0  0  0  0  0  0  0
    1.5650   -2.2530    1.0540 C   0  0  0  0  0  0  0  0  0  0  0  0
    2.4140   -1.8050   -0.1040 C   0  0  0  0  0  0  0  0  0  0  0  0
    2.5860   -0.3010   -0.0300 C   0  0  2  0  0  0  0  0  0  0  0  0
    3.5020   -0.0350    0.9700 O   0  0  0  0  0  0  0  0  0  0  0  0
    4.6730    0.6570    0.8160 C   0  0  0  0  0  0  0  0  0  0  0  0
    5.0650    1.1670   -0.3770 C   0  0  0  0  0  0  0  0  0  0  0  0
    6.2870    1.8600   -0.4210 C   0  0  0  0  0  0  0  0  0  0  0  0
    7.0260    1.9950    0.7210 C   0  0  0  0  0  0  0  0  0  0  0  0
    6.5520    1.4520    1.8620 N   0  0  0  0  0  0  0  0  0  0  0  0
    5.4200    0.8000    1.9410 N   0  0  0  0  0  0  0  0  0  0  0  0
    1.2660    0.3560    0.3970 C   0  0  0  0  0  0  0  0  0  0  0  0
    0.1250   -0.2970   -0.2750 C   0  0  0  0  0  0  0  0  0  0  0  0
   -3.9920   -0.3790   -0.6410 C   0  0  0  0  0  0  0  0  0  0  0  0
   -4.2710   -1.5840   -1.4690 C   0  0  0  0  0  0  0  0  0  0  0  0
   -4.8900    0.6590   -0.5270 C   0  0  0  0  0  0  0  0  0  0  0  0
  1  2  1  0
  2  3  2  0
  2 23  1  0
  3  4  1  0
  4  5  2  0
  5  6  1  0
  5 21  1  0
  6  7  1  0
  7  8  1  0
  7 20  1  0
  8  9  1  0
  9 10  1  0
 10 11  1  0
 11 12  1  1
 11 19  1  0
 12 13  1  0
 13 14  2  0
 13 18  1  0
 14 15  1  0
 15 16  2  0
 16 17  1  0
 17 18  2  0
 19 20  1  0
 21 22  1  0
 21 23  2  0
M  END
