
     RDKit          3D

 23 25  0  0  0  0  0  0  0  0999 V2000
   -1.2410   -0.4540    1.4320 C   0  0  0  0  0  0  0  0  0  0  0  0
   -0.7740    0.6020    0.5440 C   0  0  0  0  0  0  0  0  0  0  0  0
    0.4140    1.2670    0.8640 C   0  0  0  0  0  0  0  0  0  0  0  0
    1.1410    0.9270    2.0820 C   0  0  0  0  0  0  0  0  0  0  0  0
    1.9280   -0.3280    2.0820 C   0  0  0  0  0  0  0  0  0  0  0  0
    2.9460   -0.4230    1.1850 O   0  0  0  0  0  0  0  0  0  0  0  0
    3.9780    0.4700    1.2990 C   0  0  1  0  0  0  0  0  0  0  0  0
    5.2730   -0.3340    1.6160 C   0  0  0  0  0  0  0  0  0  0  0  0
    5.3470   -1.4770    0.6460 C   0  0  0  0  0  0  0  0  0  0  0  0
    5.3600   -0.9700   -0.7590 C   0  0  0  0  0  0  0  0  0  0  0  0
    4.2080   -0.0340   -1.0490 C   0  0  0  0  0  0  0  0  0  0  0  0
    4.2630    1.1070   -0.0330 C   0  0  0  0  0  0  0  0  0  0  0  0
    0.8170    2.2140    0.0080 N   0  0  0  0  0  0  0  0  0  0  0  0
    0.1580    2.5500   -1.1130 C   0  0  0  0  0  0  0  0  0  0  0  0
   -0.9860    1.9000   -1.4060 N   0  0  0  0  0  0  0  0  0  0  0  0
   -1.4780    0.9160   -0.5890 C   0  0  0  0  0  0  0  0  0  0  0  0
   -2.6950    0.2900   -0.9220 N   0  0  0  0  0  0  0  0  0  0  0  0
   -3.8960    0.6750   -0.2140 C   0  0  0  0  0  0  0  0  0  0  0  0
   -4.8570   -0.4550    0.0250 C   0  0  0  0  0  0  0  0  0  0  0  0
   -5.0320   -1.3440   -1.1630 C   0  0  1  0  0  0  0  0  0  0  0  0
   -6.5200   -1.4900   -1.4410 C   0  0  0  0  0  0  0  0  0  0  0  0
   -4.3000   -0.7510   -2.3330 C   0  0  0  0  0  0  0  0  0  0  0  0
   -2.8190   -0.7280   -1.9460 C   0  0  0  0  0  0  0  0  0  0  0  0
  1  2  1  0
  2  3  2  0
  2 16  1  0
  3  4  1  0
  3 13  1  0
  4  5  1  0
  5  6  1  0
  7  6  1  6
  7  8  1  0
  7 12  1  0
  8  9  1  0
  9 10  1  0
 10 11  1  0
 11 12  1  0
 13 14  2  0
 14 15  1  0
 15 16  2  0
 16 17  1  0
 17 18  1  0
 17 23  1  0
 18 19  1  0
 19 20  1  0
 20 21  1  6
 20 22  1  0
 22 23  1  0
M  END
