
     RDKit          3D

 23 25  0  0  0  0  0  0  0  0999 V2000
   -2.9290    2.6200   -0.8420 C   0  0  0  0  0  0  0  0  0  0  0  0
   -1.7700    2.1420   -0.4000 C   0  0  0  0  0  0  0  0  0  0  0  0
   -1.1900    0.9060   -0.9780 C   0  0  0  0  0  0  0  0  0  0  0  0
   -1.0070   -0.1500    0.0040 N   0  0  0  0  0  0  0  0  0  0  0  0
   -2.1010   -1.0490    0.2190 C   0  0  0  0  0  0  0  0  0  0  0  0
   -3.0560   -0.5640    1.2450 C   0  0  0  0  0  0  0  0  0  0  0  0
   -4.3360   -0.3220    1.0240 C   0  0  0  0  0  0  0  0  0  0  0  0
   -4.9380    0.1410    2.2870 C   0  0  0  0  0  0  0  0  0  0  0  0
   -3.8360    0.1330    3.2580 C   0  0  0  0  0  0  0  0  0  0  0  0
   -2.7560   -0.2780    2.6340 C   0  0  0  0  0  0  0  0  0  0  0  0
    0.1930   -0.3010    0.7460 C   0  0  0  0  0  0  0  0  0  0  0  0
    0.2510   -1.2350    1.5510 O   0  0  0  0  0  0  0  0  0  0  0  0
    1.2640    0.6540    0.5030 C   0  0  0  0  0  0  0  0  0  0  0  0
    1.3370    1.8060    1.2570 C   0  0  0  0  0  0  0  0  0  0  0  0
    2.2940    2.7370    1.1010 N   0  0  0  0  0  0  0  0  0  0  0  0
    3.2260    2.5250    0.1560 C   0  0  0  0  0  0  0  0  0  0  0  0
    3.1770    1.4240   -0.5810 N   0  0  0  0  0  0  0  0  0  0  0  0
    2.2370    0.4670   -0.4580 C   0  0  0  0  0  0  0  0  0  0  0  0
    2.2250   -0.7450   -1.3070 C   0  0  1  0  0  0  0  0  0  0  0  0
    3.4030   -0.6220   -2.2700 C   0  0  0  0  0  0  0  0  0  0  0  0
    4.3690   -1.7160   -1.8740 C   0  0  0  0  0  0  0  0  0  0  0  0
    3.3690   -2.8040   -1.4740 C   0  0  0  0  0  0  0  0  0  0  0  0
    2.4700   -2.0130   -0.5490 C   0  0  0  0  0  0  0  0  0  0  0  0
  1  2  2  0
  2  3  1  0
  3  4  1  0
  4  5  1  0
  4 11  1  0
  5  6  1  0
  6  7  2  0
  6 10  1  0
  7  8  1  0
  8  9  1  0
  9 10  2  0
 11 12  2  0
 11 13  1  0
 13 14  2  0
 13 18  1  0
 14 15  1  0
 15 16  2  0
 16 17  1  0
 17 18  2  0
 19 18  1  1
 19 20  1  0
 19 23  1  0
 20 21  1  0
 21 22  1  0
 22 23  1  0
M  END
