
     RDKit          3D

 23 25  0  0  0  0  0  0  0  0999 V2000
    3.4450   -1.2560   -1.0190 C   0  0  0  0  0  0  0  0  0  0  0  0
    2.4770   -0.8550    0.0730 C   0  0  2  0  0  0  0  0  0  0  0  0
    3.2300    0.0770    1.0010 C   0  0  0  0  0  0  0  0  0  0  0  0
    2.1330   -2.0940    0.8490 C   0  0  0  0  0  0  0  0  0  0  0  0
    1.2520   -0.1750   -0.4970 C   0  0  0  0  0  0  0  0  0  0  0  0
    0.3230    0.1990    0.6750 C   0  0  0  0  0  0  0  0  0  0  0  0
   -0.8890    0.8660    0.1920 C   0  0  0  0  0  0  0  0  0  0  0  0
   -0.9540    2.1770   -0.2240 C   0  0  0  0  0  0  0  0  0  0  0  0
    0.0650    3.2140   -0.2970 C   0  0  0  0  0  0  0  0  0  0  0  0
    0.2940    3.8850   -1.4790 C   0  0  0  0  0  0  0  0  0  0  0  0
    1.2320    4.8950   -1.5670 C   0  0  0  0  0  0  0  0  0  0  0  0
    1.9310    5.2230   -0.4760 N   0  0  0  0  0  0  0  0  0  0  0  0
    1.7500    4.6040    0.7000 C   0  0  0  0  0  0  0  0  0  0  0  0
    0.7960    3.5750    0.7980 C   0  0  0  0  0  0  0  0  0  0  0  0
   -2.2470    2.3750   -0.6270 N   0  0  0  0  0  0  0  0  0  0  0  0
   -2.8790    1.2450   -0.4500 C   0  0  0  0  0  0  0  0  0  0  0  0
   -2.1070    0.2580    0.0550 N   0  0  0  0  0  0  0  0  0  0  0  0
   -2.5530   -1.0430    0.3330 C   0  0  1  0  0  0  0  0  0  0  0  0
   -2.4030   -2.0490   -0.8040 C   0  0  0  0  0  0  0  0  0  0  0  0
   -3.1070   -3.3120   -0.2820 C   0  0  0  0  0  0  0  0  0  0  0  0
   -3.8990   -3.0810    0.8130 O   0  0  0  0  0  0  0  0  0  0  0  0
   -3.2040   -2.7230    1.9690 C   0  0  0  0  0  0  0  0  0  0  0  0
   -2.0820   -1.7410    1.5590 C   0  0  0  0  0  0  0  0  0  0  0  0
  2  1  1  6
  2  3  1  0
  2  4  1  0
  2  5  1  0
  5  6  1  0
  6  7  1  0
  7  8  2  0
  7 17  1  0
  8  9  1  0
  8 15  1  0
  9 10  2  0
  9 14  1  0
 10 11  1  0
 11 12  2  0
 12 13  1  0
 13 14  2  0
 15 16  2  0
 16 17  1  0
 18 17  1  6
 18 19  1  0
 18 23  1  0
 19 20  1  0
 20 21  1  0
 21 22  1  0
 22 23  1  0
M  END
