
     RDKit          3D

 23 25  0  0  0  0  0  0  0  0999 V2000
    7.0130    1.8470    0.2760 N   0  0  0  0  0  0  0  0  0  0  0  0
    6.5950    0.8100   -0.5780 C   0  0  0  0  0  0  0  0  0  0  0  0
    7.4350    0.2470   -1.3240 O   0  0  0  0  0  0  0  0  0  0  0  0
    5.1780    0.3940   -0.5900 C   0  0  0  0  0  0  0  0  0  0  0  0
    4.1700    0.9290    0.1760 C   0  0  0  0  0  0  0  0  0  0  0  0
    2.9820    0.2730   -0.1200 C   0  0  0  0  0  0  0  0  0  0  0  0
    1.6790    0.3760    0.3220 C   0  0  0  0  0  0  0  0  0  0  0  0
    0.6560   -0.4230   -0.1510 C   0  0  0  0  0  0  0  0  0  0  0  0
   -0.6260   -0.2750    0.3270 O   0  0  0  0  0  0  0  0  0  0  0  0
   -1.6310   -1.1100   -0.1830 C   0  0  0  0  0  0  0  0  0  0  0  0
   -2.9580   -0.8350    0.4240 C   0  0  0  0  0  0  0  0  0  0  0  0
   -3.3820   -1.4840    1.5630 C   0  0  0  0  0  0  0  0  0  0  0  0
   -4.6080   -1.2510    2.1520 C   0  0  0  0  0  0  0  0  0  0  0  0
   -5.4430   -0.3270    1.5720 C   0  0  0  0  0  0  0  0  0  0  0  0
   -5.0700    0.3480    0.4360 C   0  0  0  0  0  0  0  0  0  0  0  0
   -5.9580    1.3300   -0.1800 C   0  0  0  0  0  0  0  0  0  0  0  0
   -5.5880    1.9340   -1.2210 O   0  0  0  0  0  0  0  0  0  0  0  0
   -7.1870    1.6070    0.3550 O   0  0  0  0  0  0  0  0  0  0  0  0
   -3.8290    0.0840   -0.1230 C   0  0  0  0  0  0  0  0  0  0  0  0
    0.9870   -1.3700   -1.1190 C   0  0  0  0  0  0  0  0  0  0  0  0
    2.2870   -1.4790   -1.5650 C   0  0  0  0  0  0  0  0  0  0  0  0
    3.3060   -0.6650   -1.0780 C   0  0  0  0  0  0  0  0  0  0  0  0
    4.6260   -0.5690   -1.3380 N   0  0  0  0  0  0  0  0  0  0  0  0
  1  2  1  0
  2  3  2  0
  2  4  1  0
  4  5  2  0
  4 23  1  0
  5  6  1  0
  6  7  2  0
  6 22  1  0
  7  8  1  0
  8  9  1  0
  8 20  2  0
  9 10  1  0
 10 11  1  0
 11 12  2  0
 11 19  1  0
 12 13  1  0
 13 14  2  0
 14 15  1  0
 15 16  1  0
 15 19  2  0
 16 17  2  0
 16 18  1  0
 20 21  1  0
 21 22  2  0
 22 23  1  0
M  END
