
     RDKit          3D

 23 25  0  0  0  0  0  0  0  0999 V2000
   -6.8680    2.1330    1.1240 C   0  0  0  0  0  0  0  0  0  0  0  0
   -6.2670    1.0420    0.3270 C   0  0  0  0  0  0  0  0  0  0  0  0
   -7.0620    0.3460   -0.5870 C   0  0  0  0  0  0  0  0  0  0  0  0
   -6.4970   -0.6720   -1.3300 C   0  0  0  0  0  0  0  0  0  0  0  0
   -5.1850   -0.9670   -1.1510 N   0  0  0  0  0  0  0  0  0  0  0  0
   -4.4220   -0.3010   -0.2770 C   0  0  0  0  0  0  0  0  0  0  0  0
   -3.0500   -0.6110   -0.0920 N   0  0  0  0  0  0  0  0  0  0  0  0
   -2.4580   -1.6700   -0.8640 C   0  0  0  0  0  0  0  0  0  0  0  0
   -1.2290   -1.1060   -1.5420 C   0  0  0  0  0  0  0  0  0  0  0  0
   -0.2570   -0.4970   -0.5580 C   0  0  1  0  0  0  0  0  0  0  0  0
    0.2130   -1.5570    0.3940 C   0  0  0  0  0  0  0  0  0  0  0  0
    1.6900   -1.6060    0.5720 C   0  0  0  0  0  0  0  0  0  0  0  0
    2.3580   -0.2710    0.6230 C   0  0  1  0  0  0  0  0  0  0  0  0
    3.8640   -0.5180    0.6670 C   0  0  0  0  0  0  0  0  0  0  0  0
    4.5690    0.6810    0.7150 O   0  0  0  0  0  0  0  0  0  0  0  0
    5.9180    0.3760    0.7530 C   0  0  1  0  0  0  0  0  0  0  0  0
    6.6680    0.9340   -0.4360 C   0  0  0  0  0  0  0  0  0  0  0  0
    6.5220    0.9720    2.0000 C   0  0  0  0  0  0  0  0  0  0  0  0
    1.9750    0.6470   -0.4920 C   0  0  0  0  0  0  0  0  0  0  0  0
    0.8670    0.1160   -1.3560 C   0  0  0  0  0  0  0  0  0  0  0  0
   -0.9550    0.5810    0.2160 C   0  0  0  0  0  0  0  0  0  0  0  0
   -2.2360    0.1160    0.8570 C   0  0  0  0  0  0  0  0  0  0  0  0
   -4.9910    0.6860    0.4360 N   0  0  0  0  0  0  0  0  0  0  0  0
  1  2  1  0
  2  3  2  0
  2 23  1  0
  3  4  1  0
  4  5  2  0
  5  6  1  0
  6  7  1  0
  6 23  2  0
  7  8  1  0
  7 22  1  0
  8  9  1  0
 10  9  1  6
 10 11  1  0
 10 20  1  0
 10 21  1  0
 11 12  1  0
 12 13  1  0
 13 14  1  6
 13 19  1  0
 14 15  1  0
 15 16  1  0
 16 17  1  6
 16 18  1  0
 19 20  1  0
 21 22  1  0
M  END
