
     RDKit          3D

 23 25  0  0  0  0  0  0  0  0999 V2000
    6.1470    0.3580   -2.3310 C   0  0  0  0  0  0  0  0  0  0  0  0
    4.9790    0.2310   -1.3930 C   0  0  0  0  0  0  0  0  0  0  0  0
    3.8500    0.9940   -1.5780 C   0  0  0  0  0  0  0  0  0  0  0  0
    2.7630    0.9000   -0.7360 C   0  0  0  0  0  0  0  0  0  0  0  0
    2.7850    0.0200    0.3330 C   0  0  0  0  0  0  0  0  0  0  0  0
    3.9050   -0.7600    0.5450 C   0  0  0  0  0  0  0  0  0  0  0  0
    4.9920   -0.6350   -0.3350 C   0  0  0  0  0  0  0  0  0  0  0  0
    3.9990   -1.7060    1.6770 C   0  0  0  0  0  0  0  0  0  0  0  0
    2.7480   -1.8170    2.4530 C   0  0  0  0  0  0  0  0  0  0  0  0
    1.9310   -0.5410    2.5420 C   0  0  0  0  0  0  0  0  0  0  0  0
    1.6500   -0.0660    1.1840 N   0  0  0  0  0  0  0  0  0  0  0  0
    0.3380    0.2460    0.7920 C   0  0  0  0  0  0  0  0  0  0  0  0
    0.0060    0.5860   -0.3670 O   0  0  0  0  0  0  0  0  0  0  0  0
   -0.7980    0.1890    1.7790 C   0  0  0  0  0  0  0  0  0  0  0  0
   -2.1180    0.4710    1.1460 C   0  0  0  0  0  0  0  0  0  0  0  0
   -2.5380   -0.5030    0.0780 C   0  0  0  0  0  0  0  0  0  0  0  0
   -3.8430   -0.0390   -0.3940 N   0  0  0  0  0  0  0  0  0  0  0  0
   -5.0390   -0.3650    0.0630 N   0  0  0  0  0  0  0  0  0  0  0  0
   -6.0050    0.2850   -0.6470 C   0  0  0  0  0  0  0  0  0  0  0  0
   -7.4570    0.1420   -0.3910 C   0  0  0  0  0  0  0  0  0  0  0  0
   -5.3740    1.0540   -1.5930 C   0  0  0  0  0  0  0  0  0  0  0  0
   -4.0320    0.8320   -1.4110 C   0  0  0  0  0  0  0  0  0  0  0  0
   -2.9440    1.4510   -2.2090 C   0  0  0  0  0  0  0  0  0  0  0  0
  1  2  1  0
  2  3  2  0
  2  7  1  0
  3  4  1  0
  4  5  2  0
  5  6  1  0
  5 11  1  0
  6  7  2  0
  6  8  1  0
  8  9  1  0
  9 10  1  0
 10 11  1  0
 11 12  1  0
 12 13  2  0
 12 14  1  0
 14 15  1  0
 15 16  1  0
 16 17  1  0
 17 18  1  0
 17 22  1  0
 18 19  2  0
 19 20  1  0
 19 21  1  0
 21 22  2  0
 22 23  1  0
M  END
