
     RDKit          3D

 34 38  0  0  0  0  0  0  0  0999 V2000
    5.2720    0.6150    1.0840 C   0  0  0  0  0  0  0  0  0  0  0  0
    4.1690   -0.4960    0.6780 C   0  0  1  0  0  0  0  0  0  0  0  0
    3.1340    0.4170    0.3150 N   0  0  0  0  0  0  0  0  0  0  0  0
    1.7790    0.5250    0.6720 C   0  0  0  0  0  0  0  0  0  0  0  0
    1.3290   -0.3870    1.4020 O   0  0  0  0  0  0  0  0  0  0  0  0
    0.9710    1.6750    0.2080 C   0  0  2  0  0  0  0  0  0  0  0  0
    0.9110    2.5940    1.4640 C   0  0  0  0  0  0  0  0  0  0  0  0
   -0.1710    3.5460    1.1030 C   0  0  1  0  0  0  0  0  0  0  0  0
   -0.2340    4.1140   -0.2610 C   0  0  0  0  0  0  0  0  0  0  0  0
   -0.9800    2.8850   -0.0250 C   0  0  1  0  0  0  0  0  0  0  0  0
   -0.3790    1.5420   -0.1370 N   0  0  0  0  0  0  0  0  0  0  0  0
   -1.1380    0.4570   -0.6530 C   0  0  0  0  0  0  0  0  0  0  0  0
   -0.5290   -0.6730   -0.5530 O   0  0  0  0  0  0  0  0  0  0  0  0
   -2.4320    0.5490   -1.2580 C   0  0  0  0  0  0  0  0  0  0  0  0
   -3.6240    0.0740   -0.6320 N   0  0  0  0  0  0  0  0  0  0  0  0
   -4.6240    0.7530   -0.1070 N   0  0  0  0  0  0  0  0  0  0  0  0
   -5.6550   -0.0100    0.2420 C   0  0  0  0  0  0  0  0  0  0  0  0
   -6.9530    0.3720    0.7660 C   0  0  0  0  0  0  0  0  0  0  0  0
   -7.2760    0.4270    2.1240 N   0  0  0  0  0  0  0  0  0  0  0  0
   -7.8870    0.6800   -0.0600 O   0  0  0  0  0  0  0  0  0  0  0  0
   -5.3070   -1.3150   -0.0790 C   0  0  0  0  0  0  0  0  0  0  0  0
   -5.9940   -2.5150    0.0540 C   0  0  0  0  0  0  0  0  0  0  0  0
   -5.3550   -3.6470   -0.3800 C   0  0  0  0  0  0  0  0  0  0  0  0
   -4.1150   -3.5830   -0.9070 N   0  0  0  0  0  0  0  0  0  0  0  0
   -3.4660   -2.4240   -1.0260 C   0  0  0  0  0  0  0  0  0  0  0  0
   -4.0360   -1.2360   -0.6190 C   0  0  0  0  0  0  0  0  0  0  0  0
    4.9050   -1.1980   -0.3920 C   0  0  0  0  0  0  0  0  0  0  0  0
    5.4450   -0.6130   -1.5010 C   0  0  0  0  0  0  0  0  0  0  0  0
    6.1040   -1.3800   -2.4300 C   0  0  0  0  0  0  0  0  0  0  0  0
    6.2720   -2.7570   -2.3260 C   0  0  0  0  0  0  0  0  0  0  0  0
    5.7100   -3.3400   -1.1820 C   0  0  0  0  0  0  0  0  0  0  0  0
    5.9790   -5.0820   -0.9960 Cl  0  0  0  0  0  0  0  0  0  0  0  0
    5.0480   -2.5850   -0.2530 C   0  0  0  0  0  0  0  0  0  0  0  0
    4.5640   -3.2640    0.8380 F   0  0  0  0  0  0  0  0  0  0  0  0
  2  1  1  6
  2  3  1  0
  2 27  1  0
  3  4  1  0
  4  5  2  0
  6  4  1  1
  6  7  1  0
  6 11  1  0
  8  7  1  6
  8  9  1  0
  8 10  1  0
 10  9  1  6
 10 11  1  0
 11 12  1  0
 12 13  2  0
 12 14  1  0
 14 15  1  0
 15 16  1  0
 15 26  1  0
 16 17  2  0
 17 18  1  0
 17 21  1  0
 18 19  1  0
 18 20  2  0
 21 22  2  0
 21 26  1  0
 22 23  1  0
 23 24  2  0
 24 25  1  0
 25 26  2  0
 27 28  2  0
 27 33  1  0
 28 29  1  0
 29 30  2  0
 30 31  1  0
 31 32  1  0
 31 33  2  0
 33 34  1  0
M  END
