
     RDKit          3D

 35 39  0  0  0  0  0  0  0  0999 V2000
   -4.0350    5.4600    0.7210 N   0  0  0  0  0  0  0  0  0  0  0  0
   -2.8650    4.8060    0.1920 C   0  0  0  0  0  0  0  0  0  0  0  0
   -2.8220    4.7640   -1.0650 O   0  0  0  0  0  0  0  0  0  0  0  0
   -1.8300    4.2520    1.0460 C   0  0  0  0  0  0  0  0  0  0  0  0
   -1.0710    3.0540    0.5760 C   0  0  0  0  0  0  0  0  0  0  0  0
   -1.9120    1.8300    0.4340 C   0  0  1  0  0  0  0  0  0  0  0  0
   -2.9700    1.9910   -0.5370 C   0  0  0  0  0  0  0  0  0  0  0  0
   -2.6580    1.8980   -1.9230 N   0  0  0  0  0  0  0  0  0  0  0  0
   -4.1650    2.2090   -0.1360 O   0  0  0  0  0  0  0  0  0  0  0  0
   -1.1060    0.6010    0.2540 C   0  0  0  0  0  0  0  0  0  0  0  0
    0.2530    0.7130    0.0990 C   0  0  0  0  0  0  0  0  0  0  0  0
    1.0690   -0.3980   -0.0810 C   0  0  0  0  0  0  0  0  0  0  0  0
    2.5110   -0.2480   -0.2460 C   0  0  0  0  0  0  0  0  0  0  0  0
    3.3210   -1.2630    0.2180 C   0  0  0  0  0  0  0  0  0  0  0  0
    4.6970   -1.2210    0.1100 C   0  0  0  0  0  0  0  0  0  0  0  0
    5.2860   -0.1260   -0.4840 C   0  0  0  0  0  0  0  0  0  0  0  0
    6.7440   -0.0360   -0.6220 C   0  0  0  0  0  0  0  0  0  0  0  0
    7.4090    1.1540   -0.6010 C   0  0  0  0  0  0  0  0  0  0  0  0
    8.7720    1.1760   -0.7360 C   0  0  0  0  0  0  0  0  0  0  0  0
    9.4280    0.0240   -0.8860 N   0  0  0  0  0  0  0  0  0  0  0  0
    8.7930   -1.1390   -0.9090 C   0  0  0  0  0  0  0  0  0  0  0  0
    7.4270   -1.2360   -0.7790 C   0  0  0  0  0  0  0  0  0  0  0  0
    4.4760    0.8900   -0.9480 C   0  0  0  0  0  0  0  0  0  0  0  0
    3.0970    0.8350   -0.8330 C   0  0  0  0  0  0  0  0  0  0  0  0
    0.5040   -1.6510   -0.1060 C   0  0  0  0  0  0  0  0  0  0  0  0
   -0.8740   -1.7810    0.0500 C   0  0  0  0  0  0  0  0  0  0  0  0
   -1.6620   -0.6490    0.2280 C   0  0  0  0  0  0  0  0  0  0  0  0
   -3.0010   -1.0960    0.3560 N   0  0  0  0  0  0  0  0  0  0  0  0
   -3.0630   -2.5050    0.2590 C   0  0  0  0  0  0  0  0  0  0  0  0
   -4.1890   -3.1990    0.3400 C   0  0  0  0  0  0  0  0  0  0  0  0
   -4.3930   -4.6380    0.2580 C   0  0  0  0  0  0  0  0  0  0  0  0
   -5.5460   -4.9470    0.7350 N   0  0  0  0  0  0  0  0  0  0  0  0
   -6.2680   -3.7870    1.1990 C   0  0  0  0  0  0  0  0  0  0  0  0
   -5.5420   -2.6400    0.5400 C   0  0  0  0  0  0  0  0  0  0  0  0
   -1.6880   -3.0100    0.0580 C   0  0  0  0  0  0  0  0  0  0  0  0
  1  2  1  0
  2  3  2  0
  2  4  1  0
  4  5  1  0
  6  5  1  6
  6  7  1  0
  6 10  1  0
  7  8  1  0
  7  9  2  0
 10 11  2  0
 10 27  1  0
 11 12  1  0
 12 13  1  0
 12 25  2  0
 13 14  2  0
 13 24  1  0
 14 15  1  0
 15 16  2  0
 16 17  1  0
 16 23  1  0
 17 18  2  0
 17 22  1  0
 18 19  1  0
 19 20  2  0
 20 21  1  0
 21 22  2  0
 23 24  2  0
 25 26  1  0
 26 27  2  0
 26 35  1  0
 27 28  1  0
 28 29  1  0
 29 30  2  3
 29 35  1  0
 30 31  1  0
 30 34  1  0
 31 32  2  0
 32 33  1  0
 33 34  1  0
M  CHG  1  32   1
M  END
