
     RDKit          3D

 35 39  0  0  0  0  0  0  0  0999 V2000
   -7.4630   -2.7370    1.3010 C   0  0  0  0  0  0  0  0  0  0  0  0
   -7.8290   -1.8320    0.1910 C   0  0  0  0  0  0  0  0  0  0  0  0
   -8.9310   -2.1150   -0.6070 C   0  0  0  0  0  0  0  0  0  0  0  0
   -9.2520   -1.2600   -1.6350 C   0  0  0  0  0  0  0  0  0  0  0  0
   -8.4630   -0.1480   -1.8360 C   0  0  0  0  0  0  0  0  0  0  0  0
   -7.3650    0.1520   -1.0570 C   0  0  0  0  0  0  0  0  0  0  0  0
   -6.5820    1.2640   -1.2710 C   0  0  0  0  0  0  0  0  0  0  0  0
   -5.4800    1.5450   -0.4790 C   0  0  0  0  0  0  0  0  0  0  0  0
   -5.1490    0.6910    0.5590 C   0  0  0  0  0  0  0  0  0  0  0  0
   -5.9400   -0.4200    0.7650 C   0  0  0  0  0  0  0  0  0  0  0  0
   -7.0430   -0.7110   -0.0220 C   0  0  0  0  0  0  0  0  0  0  0  0
   -3.9170    1.2410    1.2290 C   0  0  0  0  0  0  0  0  0  0  0  0
   -3.6070    2.4820    0.5040 C   0  0  1  0  0  0  0  0  0  0  0  0
   -2.2760    2.4920   -0.1490 C   0  0  0  0  0  0  0  0  0  0  0  0
   -2.1280    1.4410   -1.1210 N   0  0  0  0  0  0  0  0  0  0  0  0
   -2.0280    0.1000   -0.7590 C   0  0  0  0  0  0  0  0  0  0  0  0
   -0.9380   -0.5350   -0.4480 C   0  0  0  0  0  0  0  0  0  0  0  0
    0.3930   -0.0400   -0.4060 C   0  0  0  0  0  0  0  0  0  0  0  0
    0.7840    1.1770   -0.8740 C   0  0  0  0  0  0  0  0  0  0  0  0
    2.0910    1.6310   -0.7630 C   0  0  0  0  0  0  0  0  0  0  0  0
    3.1080    0.8830   -0.1660 C   0  0  0  0  0  0  0  0  0  0  0  0
    4.4010    1.4190   -0.0850 N   0  0  0  0  0  0  0  0  0  0  0  0
    5.5080    0.8920    0.5810 C   0  0  0  0  0  0  0  0  0  0  0  0
    5.4130   -0.1780    1.1930 O   0  0  0  0  0  0  0  0  0  0  0  0
    6.8290    1.5740    0.5950 C   0  0  0  0  0  0  0  0  0  0  0  0
    7.9020    0.8910    1.3450 C   0  0  0  0  0  0  0  0  0  0  0  0
    8.3170   -0.4330    0.8980 C   0  0  0  0  0  0  0  0  0  0  0  0
    7.9060   -1.6660    1.3090 C   0  0  0  0  0  0  0  0  0  0  0  0
    8.5720   -2.6180    0.6000 N   0  0  0  0  0  0  0  0  0  0  0  0
    9.3930   -1.9910   -0.2470 C   0  0  0  0  0  0  0  0  0  0  0  0
   10.2900   -2.5730   -1.1870 N   0  0  0  0  0  0  0  0  0  0  0  0
    9.2470   -0.6710   -0.0750 N   0  0  0  0  0  0  0  0  0  0  0  0
    2.7170   -0.3410    0.3020 C   0  0  0  0  0  0  0  0  0  0  0  0
    1.4220   -0.7980    0.1950 C   0  0  0  0  0  0  0  0  0  0  0  0
   -4.5850    2.6010   -0.5390 O   0  0  0  0  0  0  0  0  0  0  0  0
  1  2  1  0
  2  3  2  0
  2 11  1  0
  3  4  1  0
  4  5  2  0
  5  6  1  0
  6  7  2  0
  6 11  1  0
  7  8  1  0
  8  9  2  0
  8 35  1  0
  9 10  1  0
  9 12  1  0
 10 11  2  0
 12 13  1  0
 13 14  1  6
 13 35  1  0
 14 15  1  0
 15 16  1  0
 16 17  2  3
 17 18  1  0
 18 19  2  0
 18 34  1  0
 19 20  1  0
 20 21  2  0
 21 22  1  0
 21 33  1  0
 22 23  1  0
 23 24  2  0
 23 25  1  0
 25 26  1  0
 26 27  1  0
 27 28  2  0
 27 32  1  0
 28 29  1  0
 29 30  1  0
 30 31  1  0
 30 32  2  0
 33 34  2  0
M  CHG  1  32   1
M  END
