
     RDKit          3D

 35 39  0  0  0  0  0  0  0  0999 V2000
   -0.0390    4.8830   -0.2310 C   0  0  0  0  0  0  0  0  0  0  0  0
   -0.7950    5.0810   -1.5170 C   0  0  0  0  0  0  0  0  0  0  0  0
   -2.1950    4.7710   -1.4350 N   0  0  0  0  0  0  0  0  0  0  0  0
   -2.7180    3.4750   -1.1180 C   0  0  0  0  0  0  0  0  0  0  0  0
   -4.0520    3.2280   -1.0150 C   0  0  0  0  0  0  0  0  0  0  0  0
   -4.4860    1.9540   -0.7090 C   0  0  0  0  0  0  0  0  0  0  0  0
   -3.6440    0.8900   -0.4960 C   0  0  0  0  0  0  0  0  0  0  0  0
   -4.0580   -0.3970   -0.1410 N   0  0  0  0  0  0  0  0  0  0  0  0
   -5.4120   -0.8630   -0.1220 C   0  0  0  0  0  0  0  0  0  0  0  0
   -6.3490   -0.1060   -0.4430 O   0  0  0  0  0  0  0  0  0  0  0  0
   -5.7470   -2.2530    0.2780 C   0  0  2  0  0  0  0  0  0  0  0  0
   -5.3520   -2.6000    1.6650 C   0  0  0  0  0  0  0  0  0  0  0  0
   -5.0010   -4.0130    1.8600 C   0  0  0  0  0  0  0  0  0  0  0  0
   -5.2190   -4.9360    0.9570 C   0  0  0  0  0  0  0  0  0  0  0  0
   -5.8480   -4.5800   -0.3380 C   0  0  0  0  0  0  0  0  0  0  0  0
   -5.1880   -3.2530   -0.7460 C   0  0  0  0  0  0  0  0  0  0  0  0
   -2.2540    1.1270   -0.6010 C   0  0  0  0  0  0  0  0  0  0  0  0
   -1.3850    0.0400   -0.4430 N   0  0  0  0  0  0  0  0  0  0  0  0
    0.0400    0.2200   -0.3180 C   0  0  0  0  0  0  0  0  0  0  0  0
    0.5770    1.3400   -0.3340 O   0  0  0  0  0  0  0  0  0  0  0  0
    0.8860   -0.9140   -0.1690 N   0  0  0  0  0  0  0  0  0  0  0  0
    2.2900   -0.8380   -0.0300 C   0  0  0  0  0  0  0  0  0  0  0  0
    3.0120   -2.0280   -0.2930 C   0  0  0  0  0  0  0  0  0  0  0  0
    4.3690   -2.1140   -0.1830 C   0  0  0  0  0  0  0  0  0  0  0  0
    5.0400   -0.9690    0.2060 C   0  0  0  0  0  0  0  0  0  0  0  0
    4.4090    0.2050    0.4740 C   0  0  0  0  0  0  0  0  0  0  0  0
    3.0090    0.2680    0.3530 C   0  0  0  0  0  0  0  0  0  0  0  0
    5.1390    1.4030    0.8890 C   0  0  0  0  0  0  0  0  0  0  0  0
    6.5380    1.2540    1.1290 N   0  0  0  0  0  0  0  0  0  0  0  0
    7.1720    0.3010    0.2710 C   0  0  1  0  0  0  0  0  0  0  0  0
    8.5650    0.0150    0.4380 C   0  0  0  0  0  0  0  0  0  0  0  0
    8.7240   -1.2900    0.5820 C   0  0  0  0  0  0  0  0  0  0  0  0
    7.4170   -1.9250    0.5200 C   0  0  0  0  0  0  0  0  0  0  0  0
    6.4900   -1.0200    0.3450 C   0  0  0  0  0  0  0  0  0  0  0  0
   -1.8440    2.4040   -0.9060 C   0  0  0  0  0  0  0  0  0  0  0  0
  1  2  1  0
  2  3  1  0
  3  4  1  0
  4  5  2  0
  4 35  1  0
  5  6  1  0
  6  7  2  0
  7  8  1  0
  7 17  1  0
  8  9  1  0
  9 10  2  0
 11  9  1  6
 11 12  1  0
 11 16  1  0
 12 13  1  0
 13 14  2  0
 14 15  1  0
 15 16  1  0
 17 18  1  0
 17 35  2  0
 18 19  1  0
 19 20  2  0
 19 21  1  0
 21 22  1  0
 22 23  2  0
 22 27  1  0
 23 24  1  0
 24 25  2  0
 25 26  1  0
 25 34  1  0
 26 27  2  0
 26 28  1  0
 28 29  1  0
 30 29  1  1
 30 31  1  0
 30 34  1  0
 31 32  2  0
 32 33  1  0
 33 34  2  0
M  CHG  1  29   1
M  END
