
     RDKit          3D

 34 37  0  0  0  0  0  0  0  0999 V2000
   -8.0670    0.4690    1.7070 C   0  0  0  0  0  0  0  0  0  0  0  0
   -6.8190    1.3160    1.5320 C   0  0  0  0  0  0  0  0  0  0  0  0
   -5.8470    0.5290    0.6330 C   0  0  0  0  0  0  0  0  0  0  0  0
   -4.6190    1.3630    0.4600 C   0  0  0  0  0  0  0  0  0  0  0  0
   -3.5760    0.8700   -0.3210 N   0  0  0  0  0  0  0  0  0  0  0  0
   -3.3820   -0.1110   -1.0720 C   0  0  0  0  0  0  0  0  0  0  0  0
   -4.2620   -1.2190   -1.4490 C   0  0  1  0  0  0  0  0  0  0  0  0
   -4.9520   -0.9830   -2.7030 N   0  0  0  0  0  0  0  0  0  0  0  0
   -3.2320   -2.3280   -1.7160 C   0  0  0  0  0  0  0  0  0  0  0  0
   -2.1550   -1.5660   -2.4380 C   0  0  0  0  0  0  0  0  0  0  0  0
   -2.1140   -0.3000   -1.7620 N   0  0  0  0  0  0  0  0  0  0  0  0
   -1.0310    0.6150   -1.7750 C   0  0  0  0  0  0  0  0  0  0  0  0
   -1.1240    1.7130   -2.7130 N   0  0  0  0  0  0  0  0  0  0  0  0
    0.0140    0.5740   -1.0510 N   0  0  0  0  0  0  0  0  0  0  0  0
    0.3050   -0.4090   -0.0730 C   0  0  0  0  0  0  0  0  0  0  0  0
   -0.4820   -1.4500    0.2340 N   0  0  0  0  0  0  0  0  0  0  0  0
   -0.2130   -2.3810    1.1570 C   0  0  0  0  0  0  0  0  0  0  0  0
   -1.1630   -3.5190    1.4320 C   0  0  0  0  0  0  0  0  0  0  0  0
    0.9320   -2.2980    1.8560 N   0  0  0  0  0  0  0  0  0  0  0  0
    1.7910   -1.2680    1.6070 C   0  0  0  0  0  0  0  0  0  0  0  0
    2.9600   -1.1850    2.3230 C   0  0  0  0  0  0  0  0  0  0  0  0
    3.8790   -0.1580    2.1170 C   0  0  0  0  0  0  0  0  0  0  0  0
    3.5850    0.7860    1.1650 C   0  0  0  0  0  0  0  0  0  0  0  0
    4.4870    1.8350    0.9130 N   0  0  0  0  0  0  0  0  0  0  0  0
    5.8130    1.8660    1.4390 C   0  0  0  0  0  0  0  0  0  0  0  0
    6.6880    0.8200    0.9290 C   0  0  0  0  0  0  0  0  0  0  0  0
    7.8250    1.0220    0.2470 C   0  0  0  0  0  0  0  0  0  0  0  0
    8.6170   -0.0560   -0.2110 O   0  0  0  0  0  0  0  0  0  0  0  0
    9.7220    0.4730   -0.8770 C   0  0  0  0  0  0  0  0  0  0  0  0
    9.5680    1.9310   -0.8070 C   0  0  0  0  0  0  0  0  0  0  0  0
    8.4530    2.2440   -0.1460 C   0  0  0  0  0  0  0  0  0  0  0  0
    7.9470    3.9030    0.1240 Cl  0  0  0  0  0  0  0  0  0  0  0  0
    2.3840    0.6910    0.4380 C   0  0  0  0  0  0  0  0  0  0  0  0
    1.5010   -0.3210    0.6560 C   0  0  0  0  0  0  0  0  0  0  0  0
  1  2  1  0
  2  3  1  0
  3  4  1  0
  4  5  1  0
  5  6  2  3
  6  7  1  0
  6 11  1  0
  7  8  1  6
  7  9  1  0
  9 10  1  0
 10 11  1  0
 11 12  1  0
 12 13  1  0
 12 14  2  3
 14 15  1  0
 15 16  2  0
 15 34  1  0
 16 17  1  0
 17 18  1  0
 17 19  2  0
 19 20  1  0
 20 21  2  0
 20 34  1  0
 21 22  1  0
 22 23  2  0
 23 24  1  0
 23 33  1  0
 24 25  1  0
 25 26  1  0
 26 27  2  3
 27 28  1  0
 27 31  1  0
 28 29  1  0
 29 30  1  0
 30 31  2  0
 31 32  1  0
 33 34  2  0
M  CHG  1   8   1
M  END
