
     RDKit          3D

 17 18  0  0  0  0  0  0  0  0999 V2000
   -2.3070   -1.8480   -1.1110 O   0  0  0  0  0  0  0  0  0  0  0  0
   -1.5650   -0.8620   -0.4740 C   0  0  0  0  0  0  0  0  0  0  0  0
   -0.1870   -0.8370   -0.5180 C   0  0  0  0  0  0  0  0  0  0  0  0
    0.5580    0.1540    0.1210 C   0  0  0  0  0  0  0  0  0  0  0  0
    2.0230    0.1120    0.0830 C   0  0  0  0  0  0  0  0  0  0  0  0
    2.8910    1.0420   -0.2550 C   0  0  0  0  0  0  0  0  0  0  0  0
    2.4500    2.6700   -0.7840 Cl  0  0  0  0  0  0  0  0  0  0  0  0
    4.2880    0.5330   -0.1170 C   0  0  0  0  0  0  0  0  0  0  0  0
    4.0930   -0.8430    0.3570 C   0  0  0  0  0  0  0  0  0  0  0  0
    2.8040   -1.0660    0.4650 C   0  0  0  0  0  0  0  0  0  0  0  0
   -0.1560    1.1110    0.8020 C   0  0  0  0  0  0  0  0  0  0  0  0
    0.7750    2.3510    1.6490 Cl  0  0  0  0  0  0  0  0  0  0  0  0
   -1.5380    1.1060    0.8600 C   0  0  0  0  0  0  0  0  0  0  0  0
   -2.2420    0.1150    0.2190 C   0  0  0  0  0  0  0  0  0  0  0  0
   -3.7290    0.0880    0.2660 C   0  0  2  0  0  0  0  0  0  0  0  0
   -4.1430   -1.2290    0.5040 O   0  0  0  0  0  0  0  0  0  0  0  0
   -4.2440    0.6250   -0.9020 O   0  0  0  0  0  0  0  0  0  0  0  0
  1  2  1  0
  2  3  2  0
  2 14  1  0
  3  4  1  0
  4  5  1  0
  4 11  2  0
  5  6  2  0
  5 10  1  0
  6  7  1  0
  6  8  1  0
  8  9  1  0
  9 10  2  0
 11 12  1  0
 11 13  1  0
 13 14  2  0
 14 15  1  0
 15 16  1  6
 15 17  1  0
M  END
