
     RDKit          3D

 14 14  0  0  0  0  0  0  0  0999 V2000
    3.0660    1.2380   -0.2410 C   0  0  0  0  0  0  0  0  0  0  0  0
    3.2040   -0.2180   -0.4180 C   0  0  0  0  0  0  0  0  0  0  0  0
    4.6600   -0.8430   -0.7770 S   0  0  0  0  0  0  0  0  0  0  0  0
    2.0920   -1.0690   -0.2790 N   0  0  0  0  0  0  0  0  0  0  0  0
    0.8020   -0.5000    0.0390 C   0  0  1  0  0  0  0  0  0  0  0  0
    0.2840    0.4650   -0.9670 C   0  0  0  0  0  0  0  0  0  0  0  0
   -1.0130    0.2030   -1.3870 O   0  0  0  0  0  0  0  0  0  0  0  0
   -1.9220    0.0620   -0.3790 C   0  0  2  0  0  0  0  0  0  0  0  0
   -2.4350    1.3710    0.1710 C   0  0  0  0  0  0  0  0  0  0  0  0
   -3.0700    2.1420   -0.7930 O   0  0  0  0  0  0  0  0  0  0  0  0
   -1.4600   -0.7790    0.7670 C   0  0  1  0  0  0  0  0  0  0  0  0
   -2.4140   -1.5750    1.3240 O   0  0  0  0  0  0  0  0  0  0  0  0
   -0.2510   -1.5710    0.2490 C   0  0  2  0  0  0  0  0  0  0  0  0
    0.1510   -2.5240    1.1680 O   0  0  0  0  0  0  0  0  0  0  0  0
  1  2  1  0
  2  3  2  0
  2  4  1  0
  5  4  1  6
  5  6  1  0
  5 13  1  0
  6  7  1  0
  7  8  1  0
  8  9  1  1
  8 11  1  0
  9 10  1  0
 11 12  1  6
 11 13  1  0
 13 14  1  1
M  END
