
     RDKit          3D

 25 26  0  0  0  0  0  0  0  0999 V2000
    5.5460    0.9780   -0.3070 C   0  0  0  0  0  0  0  0  0  0  0  0
    4.1770    0.5220   -0.6720 C   0  0  0  0  0  0  0  0  0  0  0  0
    3.5060   -0.2660    0.1490 C   0  0  0  0  0  0  0  0  0  0  0  0
    4.1350   -0.6710    1.4080 C   0  0  0  0  0  0  0  0  0  0  0  0
    5.2690   -0.3340    1.7840 O   0  0  0  0  0  0  0  0  0  0  0  0
    3.4240   -1.5090    2.2830 O   0  0  0  0  0  0  0  0  0  0  0  0
    2.1400   -0.7870   -0.1310 C   0  0  0  0  0  0  0  0  0  0  0  0
    1.4120    0.2200   -0.9770 C   0  0  2  0  0  0  0  0  0  0  0  0
    1.3180    1.5090   -0.1890 C   0  0  0  0  0  0  0  0  0  0  0  0
    0.0540   -0.2350   -1.3540 C   0  0  0  0  0  0  0  0  0  0  0  0
   -0.3040   -0.3810   -2.5270 O   0  0  0  0  0  0  0  0  0  0  0  0
   -0.8850   -0.5180   -0.3410 N   0  0  0  0  0  0  0  0  0  0  0  0
   -2.2130   -0.9600   -0.5860 C   0  0  1  0  0  0  0  0  0  0  0  0
   -2.5650   -2.2880   -0.0220 C   0  0  0  0  0  0  0  0  0  0  0  0
   -2.4540   -2.3860    1.3400 O   0  0  0  0  0  0  0  0  0  0  0  0
   -3.1590    0.1420   -0.1780 C   0  0  1  0  0  0  0  0  0  0  0  0
   -4.6060   -0.2210   -0.3980 C   0  0  0  0  0  0  0  0  0  0  0  0
   -5.3700    0.9410   -0.3560 O   0  0  0  0  0  0  0  0  0  0  0  0
   -5.1740    1.6400    0.7840 N   0  0  0  0  0  0  0  0  0  0  0  0
   -3.9540    1.6530    1.4890 C   0  0  0  0  0  0  0  0  0  0  0  0
   -3.6780    2.5840    2.2650 O   0  0  0  0  0  0  0  0  0  0  0  0
   -3.0180    0.5320    1.2800 C   0  0  0  0  0  0  0  0  0  0  0  0
    2.2540    0.4780   -2.1800 C   0  0  0  0  0  0  0  0  0  0  0  0
    1.8990    0.3190   -3.3560 O   0  0  0  0  0  0  0  0  0  0  0  0
    3.5700    0.9440   -1.9100 N   0  0  0  0  0  0  0  0  0  0  0  0
  1  2  1  0
  2  3  2  0
  2 25  1  0
  3  4  1  0
  3  7  1  0
  4  5  2  0
  4  6  1  0
  7  8  1  0
  8  9  1  1
  8 10  1  0
  8 23  1  0
 10 11  2  0
 10 12  1  0
 12 13  1  0
 13 14  1  1
 13 16  1  0
 14 15  1  0
 16 17  1  1
 16 22  1  0
 17 18  1  0
 18 19  1  0
 19 20  1  0
 20 21  2  0
 20 22  1  0
 23 24  2  0
 23 25  1  0
M  END
