
     RDKit          3D

 17 18  0  0  0  0  0  0  0  0999 V2000
    4.8540   -0.1000    0.8400 O   0  0  0  0  0  0  0  0  0  0  0  0
    4.0500   -0.4380   -0.2420 C   0  0  0  0  0  0  0  0  0  0  0  0
    2.6360   -0.2160    0.1280 C   0  0  0  0  0  0  0  0  0  0  0  0
    2.3430    0.2540    1.3840 C   0  0  0  0  0  0  0  0  0  0  0  0
    1.0200    0.4580    1.7200 C   0  0  0  0  0  0  0  0  0  0  0  0
    0.6590    0.9270    2.9610 O   0  0  0  0  0  0  0  0  0  0  0  0
    0.0490    0.1830    0.7840 C   0  0  0  0  0  0  0  0  0  0  0  0
   -1.2740    0.3960    1.1450 O   0  0  0  0  0  0  0  0  0  0  0  0
   -2.3310    0.1470    0.2670 C   0  0  0  0  0  0  0  0  0  0  0  0
   -2.6170    0.8890   -0.7870 C   0  0  0  0  0  0  0  0  0  0  0  0
   -1.6810    2.3270   -1.2400 Cl  0  0  0  0  0  0  0  0  0  0  0  0
   -3.7990    0.3410   -1.4960 C   0  0  0  0  0  0  0  0  0  0  0  0
   -4.1540   -0.8400   -0.6830 C   0  0  0  0  0  0  0  0  0  0  0  0
   -3.3040   -0.9360    0.3220 C   0  0  0  0  0  0  0  0  0  0  0  0
    0.3170   -0.2900   -0.4840 C   0  0  0  0  0  0  0  0  0  0  0  0
    1.6480   -0.4900   -0.8060 C   0  0  0  0  0  0  0  0  0  0  0  0
    2.1400   -1.0860   -2.3770 Cl  0  0  0  0  0  0  0  0  0  0  0  0
  1  2  1  0
  2  3  1  0
  3  4  2  0
  3 16  1  0
  4  5  1  0
  5  6  1  0
  5  7  2  0
  7  8  1  0
  7 15  1  0
  8  9  1  0
  9 10  2  0
  9 14  1  0
 10 11  1  0
 10 12  1  0
 12 13  1  0
 13 14  2  0
 15 16  2  0
 16 17  1  0
M  END
