
     RDKit          3D

 17 18  0  0  0  0  0  0  0  0999 V2000
    4.0040   -1.2650   -0.4840 C   0  0  0  0  0  0  0  0  0  0  0  0
    3.4100   -0.7290    0.6720 O   0  0  0  0  0  0  0  0  0  0  0  0
    2.1610   -0.1390    0.5540 C   0  0  0  0  0  0  0  0  0  0  0  0
    2.0560    1.2070    0.2740 C   0  0  0  0  0  0  0  0  0  0  0  0
    3.2420    1.9220    0.1210 O   0  0  0  0  0  0  0  0  0  0  0  0
    0.8230    1.8070    0.1550 C   0  0  0  0  0  0  0  0  0  0  0  0
    0.6720    3.5120   -0.2000 Cl  0  0  0  0  0  0  0  0  0  0  0  0
   -0.3100    1.0150    0.3240 C   0  0  0  0  0  0  0  0  0  0  0  0
   -0.2170   -0.3250    0.6030 C   0  0  0  0  0  0  0  0  0  0  0  0
    1.0180   -0.9010    0.7180 C   0  0  0  0  0  0  0  0  0  0  0  0
    1.1150   -2.6090    1.0730 Cl  0  0  0  0  0  0  0  0  0  0  0  0
   -1.3270   -1.2860    0.8080 C   0  0  2  0  0  0  0  0  0  0  0  0
   -1.0350   -2.5310    0.2640 O   0  0  0  0  0  0  0  0  0  0  0  0
   -2.6470   -0.7390    0.3170 C   0  0  0  0  0  0  0  0  0  0  0  0
   -2.5620   -0.1420   -1.0620 C   0  0  0  0  0  0  0  0  0  0  0  0
   -2.3370    1.3430   -1.0450 C   0  0  0  0  0  0  0  0  0  0  0  0
   -1.5610    1.8000    0.1650 C   0  0  0  0  0  0  0  0  0  0  0  0
  1  2  1  0
  2  3  1  0
  3  4  2  0
  3 10  1  0
  4  5  1  0
  4  6  1  0
  6  7  1  0
  6  8  2  0
  8  9  1  0
  8 17  1  0
  9 10  2  0
  9 12  1  0
 10 11  1  0
 12 13  1  6
 12 14  1  0
 14 15  1  0
 15 16  1  0
 16 17  1  0
M  END
