
     RDKit          3D

 17 18  0  0  0  0  0  0  0  0999 V2000
   -2.0170   -2.7350   -0.3200 O   0  0  0  0  0  0  0  0  0  0  0  0
   -2.2970   -1.3620   -0.1380 C   0  0  0  0  0  0  0  0  0  0  0  0
   -3.4050   -0.9720    0.5620 C   0  0  0  0  0  0  0  0  0  0  0  0
   -3.6540    0.3780    0.7460 C   0  0  0  0  0  0  0  0  0  0  0  0
   -2.7820    1.3240    0.2280 C   0  0  0  0  0  0  0  0  0  0  0  0
   -3.0990    3.0200    0.4470 Cl  0  0  0  0  0  0  0  0  0  0  0  0
   -1.6800    0.8740   -0.4730 C   0  0  0  0  0  0  0  0  0  0  0  0
   -1.4240   -0.4610   -0.6620 C   0  0  0  0  0  0  0  0  0  0  0  0
   -0.2820   -0.8310   -1.5710 C   0  0  0  0  0  0  0  0  0  0  0  0
    0.9250   -0.7170   -0.9720 O   0  0  0  0  0  0  0  0  0  0  0  0
    1.8820   -0.1040   -0.3470 C   0  0  0  0  0  0  0  0  0  0  0  0
    2.5580    0.9500   -0.7110 C   0  0  0  0  0  0  0  0  0  0  0  0
    3.6590    1.6060    0.0910 C   0  0  0  0  0  0  0  0  0  0  0  0
    3.9060    0.9800    1.3010 O   0  0  0  0  0  0  0  0  0  0  0  0
    3.2260   -0.1420    1.7230 C   0  0  0  0  0  0  0  0  0  0  0  0
    2.3030   -0.6510    1.0000 C   0  0  0  0  0  0  0  0  0  0  0  0
    1.4360   -2.1120    1.5150 Cl  0  0  0  0  0  0  0  0  0  0  0  0
  1  2  1  0
  2  3  2  0
  2  8  1  0
  3  4  1  0
  4  5  2  0
  5  6  1  0
  5  7  1  0
  7  8  2  0
  8  9  1  0
  9 10  1  0
 10 11  1  0
 11 12  2  0
 11 16  1  0
 12 13  1  0
 13 14  1  0
 14 15  1  0
 15 16  2  0
 16 17  1  0
M  END
