
     RDKit          3D

 25 26  0  0  0  0  0  0  0  0999 V2000
   -1.2350    3.3310   -2.3300 C   0  0  0  0  0  0  0  0  0  0  0  0
   -0.7410    2.7650   -1.1560 O   0  0  0  0  0  0  0  0  0  0  0  0
   -0.3650    1.4300   -1.0220 C   0  0  0  0  0  0  0  0  0  0  0  0
    0.6940    1.0490   -1.7380 C   0  0  0  0  0  0  0  0  0  0  0  0
    1.3580    2.0430   -2.5880 N   0  0  0  0  0  0  0  0  0  0  0  0
    1.2930   -0.2790   -1.8050 C   0  0  0  0  0  0  0  0  0  0  0  0
    1.2830   -0.8440   -2.9950 O   0  0  0  0  0  0  0  0  0  0  0  0
    1.8780   -1.0280   -0.7560 N   0  0  0  0  0  0  0  0  0  0  0  0
    2.9580   -0.6670    0.1210 C   0  0  2  0  0  0  0  0  0  0  0  0
    4.1880   -0.2060   -0.7050 C   0  0  0  0  0  0  0  0  0  0  0  0
    3.3660   -1.7210    1.0780 C   0  0  0  0  0  0  0  0  0  0  0  0
    4.6400   -1.6520    1.3100 O   0  0  0  0  0  0  0  0  0  0  0  0
    2.4930   -2.5830    1.5870 O   0  0  0  0  0  0  0  0  0  0  0  0
    1.5020   -2.5340    2.5440 N   0  0  0  0  0  0  0  0  0  0  0  0
    0.7380   -1.3450    2.8270 C   0  0  0  0  0  0  0  0  0  0  0  0
    0.5530   -1.1630    4.0820 O   0  0  0  0  0  0  0  0  0  0  0  0
    0.1820   -0.3600    1.8810 C   0  0  0  0  0  0  0  0  0  0  0  0
   -0.6090   -0.3860    0.8620 C   0  0  0  0  0  0  0  0  0  0  0  0
   -1.1750    0.5880   -0.1100 C   0  0  0  0  0  0  0  0  0  0  0  0
   -2.5340    0.7230   -0.2390 C   0  0  0  0  0  0  0  0  0  0  0  0
   -3.4390   -0.0510    0.6000 C   0  0  0  0  0  0  0  0  0  0  0  0
   -4.7570   -0.0020    0.5610 C   0  0  0  0  0  0  0  0  0  0  0  0
   -5.3030   -0.8690    1.4950 O   0  0  0  0  0  0  0  0  0  0  0  0
   -4.2700   -1.7310    1.8960 C   0  0  0  0  0  0  0  0  0  0  0  0
   -3.1220   -0.9800    1.5920 O   0  0  0  0  0  0  0  0  0  0  0  0
  1  2  1  0
  2  3  1  0
  3  4  2  0
  3 19  1  0
  4  5  1  0
  4  6  1  0
  6  7  2  0
  6  8  1  0
  8  9  1  0
  9 10  1  6
  9 11  1  0
 11 12  2  0
 11 13  1  0
 13 14  1  0
 14 15  1  0
 15 16  2  0
 15 17  1  0
 17 18  2  0
 18 19  1  0
 19 20  2  3
 20 21  1  0
 21 22  2  0
 21 25  1  0
 22 23  1  0
 23 24  1  0
 24 25  1  0
M  END
