
     RDKit          3D

 15 15  0  0  0  0  0  0  0  0999 V2000
   -0.6580    1.5520    1.1340 C   0  0  0  0  0  0  0  0  0  0  0  0
   -0.6740    0.4930    0.0590 C   0  0  1  0  0  0  0  0  0  0  0  0
    0.3100    0.6240   -0.8670 O   0  0  0  0  0  0  0  0  0  0  0  0
    1.6010    0.4940   -0.4880 C   0  0  0  0  0  0  0  0  0  0  0  0
    2.0060   -0.8180    0.1150 C   0  0  1  0  0  0  0  0  0  0  0  0
    1.7810   -1.8810   -0.7810 O   0  0  0  0  0  0  0  0  0  0  0  0
    3.5370   -0.7530    0.2520 C   0  0  0  0  0  0  0  0  0  0  0  0
    3.8450    0.2880    1.1350 O   0  0  0  0  0  0  0  0  0  0  0  0
   -0.6080   -0.7980    0.6300 O   0  0  0  0  0  0  0  0  0  0  0  0
   -1.6430   -1.5810    0.1240 C   0  0  0  0  0  0  0  0  0  0  0  0
   -1.6820   -2.7820   -0.1750 O   0  0  0  0  0  0  0  0  0  0  0  0
   -2.7820   -0.6040    0.0070 C   0  0  1  0  0  0  0  0  0  0  0  0
   -3.2070   -0.3110    1.3550 N   0  0  0  0  0  0  0  0  0  0  0  0
   -2.0530    0.5760   -0.5980 C   0  0  1  0  0  0  0  0  0  0  0  0
   -2.6770    1.7770   -0.3250 O   0  0  0  0  0  0  0  0  0  0  0  0
  2  1  1  1
  2  3  1  0
  2  9  1  0
  2 14  1  0
  3  4  1  0
  4  5  1  0
  5  6  1  6
  5  7  1  0
  7  8  1  0
  9 10  1  0
 10 11  2  0
 10 12  1  0
 12 13  1  1
 12 14  1  0
 14 15  1  1
M  END
