
     RDKit          3D

 14 14  0  0  0  0  0  0  0  0999 V2000
    3.8360   -0.3750   -1.4590 N   0  0  0  0  0  0  0  0  0  0  0  0
    2.5660    0.2410   -1.5270 C   0  0  0  0  0  0  0  0  0  0  0  0
    2.0250    0.7260   -0.4340 C   0  0  0  0  0  0  0  0  0  0  0  0
    2.6870    0.6370    0.7700 O   0  0  0  0  0  0  0  0  0  0  0  0
    0.6810    1.3880   -0.4540 C   0  0  2  0  0  0  0  0  0  0  0  0
    0.8040    2.7130   -0.0100 O   0  0  0  0  0  0  0  0  0  0  0  0
   -0.2550    0.6880    0.5090 C   0  0  2  0  0  0  0  0  0  0  0  0
    0.3420    0.7650    1.7800 O   0  0  0  0  0  0  0  0  0  0  0  0
   -0.5390   -0.7290    0.1320 C   0  0  2  0  0  0  0  0  0  0  0  0
   -1.2130   -0.7610   -1.2110 C   0  0  0  0  0  0  0  0  0  0  0  0
   -2.3030    0.1140   -1.1450 O   0  0  0  0  0  0  0  0  0  0  0  0
   -3.2150   -0.4060   -0.2550 C   0  0  0  0  0  0  0  0  0  0  0  0
   -2.6690   -1.5080    0.6080 C   0  0  0  0  0  0  0  0  0  0  0  0
   -1.3950   -1.2730    1.0620 O   0  0  0  0  0  0  0  0  0  0  0  0
  1  2  1  0
  2  3  2  3
  3  4  1  0
  3  5  1  0
  5  6  1  1
  5  7  1  0
  7  8  1  1
  7  9  1  0
  9 10  1  6
  9 14  1  0
 10 11  1  0
 11 12  1  0
 12 13  1  0
 13 14  1  0
M  END
