
     RDKit          3D

 15 15  0  0  0  0  0  0  0  0999 V2000
   -0.4230   -2.6220    0.3220 C   0  0  0  0  0  0  0  0  0  0  0  0
   -0.3750   -1.2650   -0.3670 C   0  0  2  0  0  0  0  0  0  0  0  0
   -0.9560   -1.4260   -1.5980 O   0  0  0  0  0  0  0  0  0  0  0  0
    0.9460   -0.8140   -0.4430 O   0  0  0  0  0  0  0  0  0  0  0  0
    1.3010   -0.5790    0.8670 C   0  0  1  0  0  0  0  0  0  0  0  0
    2.3890    0.4570    0.9480 C   0  0  0  0  0  0  0  0  0  0  0  0
    2.8510    0.8110    2.0550 O   0  0  0  0  0  0  0  0  0  0  0  0
    2.9040    1.0420   -0.1940 O   0  0  0  0  0  0  0  0  0  0  0  0
    3.9020    1.9950   -0.1590 N   0  0  0  0  0  0  0  0  0  0  0  0
    0.0670   -0.1330    1.6220 C   0  0  0  0  0  0  0  0  0  0  0  0
   -1.0020   -0.2400    0.5190 C   0  0  2  0  0  0  0  0  0  0  0  0
   -2.1790   -0.6970    1.1030 O   0  0  0  0  0  0  0  0  0  0  0  0
   -1.1350    1.1220   -0.0540 C   0  0  0  0  0  0  0  0  0  0  0  0
   -1.9530    1.2490   -1.2900 C   0  0  0  0  0  0  0  0  0  0  0  0
   -1.9680    2.6140   -1.6680 O   0  0  0  0  0  0  0  0  0  0  0  0
  2  1  1  1
  2  3  1  0
  2  4  1  0
  2 11  1  0
  4  5  1  0
  5  6  1  6
  5 10  1  0
  6  7  2  0
  6  8  1  0
  8  9  1  0
 10 11  1  0
 11 12  1  1
 11 13  1  0
 13 14  1  0
 14 15  1  0
M  END
