
     RDKit          3D

 15 15  0  0  0  0  0  0  0  0999 V2000
    2.6610   -1.5250   -1.0590 C   0  0  0  0  0  0  0  0  0  0  0  0
    1.9690   -0.8160    0.0900 C   0  0  2  0  0  0  0  0  0  0  0  0
    0.9550    0.0390   -0.3830 O   0  0  0  0  0  0  0  0  0  0  0  0
   -0.2770   -0.3060    0.1300 C   0  0  0  0  0  0  0  0  0  0  0  0
   -1.3060    0.6230   -0.3980 C   0  0  1  0  0  0  0  0  0  0  0  0
   -1.0100    1.9310   -0.0310 O   0  0  0  0  0  0  0  0  0  0  0  0
   -1.4920    0.5840   -1.8800 C   0  0  0  0  0  0  0  0  0  0  0  0
   -2.7690    1.1780   -2.0510 O   0  0  0  0  0  0  0  0  0  0  0  0
   -3.4850    1.1810   -0.8790 C   0  0  0  0  0  0  0  0  0  0  0  0
   -4.5590    1.7400   -0.5610 O   0  0  0  0  0  0  0  0  0  0  0  0
   -2.7060    0.3180    0.0820 C   0  0  1  0  0  0  0  0  0  0  0  0
   -3.1170   -1.0270   -0.1580 N   0  0  0  0  0  0  0  0  0  0  0  0
    3.0320    0.0150    0.8150 C   0  0  2  0  0  0  0  0  0  0  0  0
    2.3810    0.6480    1.8660 O   0  0  0  0  0  0  0  0  0  0  0  0
    3.5750    0.9280   -0.0780 O   0  0  0  0  0  0  0  0  0  0  0  0
  2  1  1  6
  2  3  1  0
  2 13  1  0
  3  4  1  0
  4  5  1  0
  5  6  1  1
  5  7  1  0
  5 11  1  0
  7  8  1  0
  8  9  1  0
  9 10  2  0
  9 11  1  0
 11 12  1  6
 13 14  1  1
 13 15  1  0
M  END
