
     RDKit          3D

 15 15  0  0  0  0  0  0  0  0999 V2000
   -4.1090    0.2500    1.1880 C   0  0  0  0  0  0  0  0  0  0  0  0
   -2.8830   -0.3770    1.4940 O   0  0  0  0  0  0  0  0  0  0  0  0
   -2.1820   -0.6800    0.3280 C   0  0  2  0  0  0  0  0  0  0  0  0
   -1.9910   -2.0500    0.2410 O   0  0  0  0  0  0  0  0  0  0  0  0
   -0.9080    0.0960    0.3500 C   0  0  1  0  0  0  0  0  0  0  0  0
   -0.0250   -0.2210    1.5280 C   0  0  0  0  0  0  0  0  0  0  0  0
    1.3840    0.1170    1.0550 C   0  0  1  0  0  0  0  0  0  0  0  0
    2.2430   -0.9540    1.1350 O   0  0  0  0  0  0  0  0  0  0  0  0
    1.1960    0.6120   -0.3770 C   0  0  1  0  0  0  0  0  0  0  0  0
    2.3960    0.4000   -1.1980 C   0  0  0  0  0  0  0  0  0  0  0  0
    2.3880   -0.2970   -2.2230 O   0  0  0  0  0  0  0  0  0  0  0  0
    3.6030    1.0290   -0.7820 N   0  0  0  0  0  0  0  0  0  0  0  0
    4.7700    0.8900   -1.4820 O   0  0  0  0  0  0  0  0  0  0  0  0
    0.0170   -0.2310   -0.8040 C   0  0  2  0  0  0  0  0  0  0  0  0
   -0.4950    0.1470   -2.0260 O   0  0  0  0  0  0  0  0  0  0  0  0
  1  2  1  0
  2  3  1  0
  3  4  1  1
  3  5  1  0
  5  6  1  1
  5 14  1  0
  6  7  1  0
  7  8  1  6
  7  9  1  0
  9 10  1  6
  9 14  1  0
 10 11  2  0
 10 12  1  0
 12 13  1  0
 14 15  1  6
M  END
