
     RDKit          3D

 15 15  0  0  0  0  0  0  0  0999 V2000
    2.8870    1.4580    1.3830 N   0  0  0  0  0  0  0  0  0  0  0  0
    3.4910    0.3360    0.7310 C   0  0  2  0  0  0  0  0  0  0  0  0
    4.7350    0.7200    0.2370 O   0  0  0  0  0  0  0  0  0  0  0  0
    2.6570   -0.1310   -0.4450 C   0  0  1  0  0  0  0  0  0  0  0  0
    3.2580   -1.2210   -1.0660 O   0  0  0  0  0  0  0  0  0  0  0  0
    1.2620   -0.5450    0.0160 C   0  0  0  0  0  0  0  0  0  0  0  0
    0.5480   -0.9270   -1.0880 O   0  0  0  0  0  0  0  0  0  0  0  0
   -0.7490   -1.3450   -0.8350 C   0  0  0  0  0  0  0  0  0  0  0  0
   -1.5680   -0.2520   -0.1910 C   0  0  1  0  0  0  0  0  0  0  0  0
   -1.5830    0.8230   -1.0630 O   0  0  0  0  0  0  0  0  0  0  0  0
   -2.4990    1.7970   -0.7400 C   0  0  0  0  0  0  0  0  0  0  0  0
   -3.7690    1.3230   -0.4940 O   0  0  0  0  0  0  0  0  0  0  0  0
   -3.8160    0.3590    0.4960 C   0  0  0  0  0  0  0  0  0  0  0  0
   -2.9790   -0.8160   -0.0180 C   0  0  2  0  0  0  0  0  0  0  0  0
   -2.9500   -1.8630    0.8640 O   0  0  0  0  0  0  0  0  0  0  0  0
  2  1  1  6
  2  3  1  0
  2  4  1  0
  4  5  1  1
  4  6  1  0
  6  7  1  0
  7  8  1  0
  9  8  1  6
  9 10  1  0
  9 14  1  0
 10 11  1  0
 11 12  1  0
 12 13  1  0
 13 14  1  0
 14 15  1  1
M  END
