
     RDKit          3D

 15 16  0  0  0  0  0  0  0  0999 V2000
   -4.0030    2.0380   -0.3120 N   0  0  0  0  0  0  0  0  0  0  0  0
   -3.7160    0.3440    0.0030 S   0  0  1  0  0  0  0  0  0  0  0  0
   -4.9030   -0.2280    0.6980 O   0  0  0  0  0  0  0  0  0  0  0  0
   -3.6400   -0.3120   -1.3620 O   0  0  0  0  0  0  0  0  0  0  0  0
   -2.2550    0.1290    0.8540 N   0  0  0  0  0  0  0  0  0  0  0  0
   -1.1270   -0.0460   -0.0120 C   0  0  0  0  0  0  0  0  0  0  0  0
    0.1330   -0.2320    0.8430 C   0  0  0  0  0  0  0  0  0  0  0  0
    0.0060   -0.2100    2.2100 C   0  0  0  0  0  0  0  0  0  0  0  0
    1.7110   -0.4640    2.7860 S   0  0  0  0  0  0  0  0  0  0  0  0
    2.4040   -0.5720    1.1740 C   0  0  0  0  0  0  0  0  0  0  0  0
    3.7440   -0.7750    0.7850 C   0  0  0  0  0  0  0  0  0  0  0  0
    4.0580   -0.8250   -0.5560 C   0  0  0  0  0  0  0  0  0  0  0  0
    3.0120   -0.6700   -1.4330 C   0  0  0  0  0  0  0  0  0  0  0  0
    1.7090   -0.4730   -1.0380 C   0  0  0  0  0  0  0  0  0  0  0  0
    1.3830   -0.4210    0.3410 C   0  0  0  0  0  0  0  0  0  0  0  0
  2  1  1  6
  2  3  2  0
  2  4  2  0
  2  5  1  0
  5  6  1  0
  6  7  1  0
  7  8  2  0
  7 15  1  0
  8  9  1  0
  9 10  1  0
 10 11  2  0
 10 15  1  0
 11 12  1  0
 12 13  2  0
 13 14  1  0
 14 15  2  0
M  END
