
     RDKit          3D

 17 18  0  0  0  0  0  0  0  0999 V2000
   -1.1360   -4.0360    0.1240 C   0  0  0  0  0  0  0  0  0  0  0  0
   -0.3130   -2.8280   -0.1190 C   0  0  0  0  0  0  0  0  0  0  0  0
   -0.6760   -1.6930    0.4310 C   0  0  0  0  0  0  0  0  0  0  0  0
   -1.8440   -1.4620    1.2910 C   0  0  0  0  0  0  0  0  0  0  0  0
   -2.2180   -0.0450    0.9910 C   0  0  2  0  0  0  0  0  0  0  0  0
   -3.1620    0.0300   -0.2030 C   0  0  0  0  0  0  0  0  0  0  0  0
   -3.5330    1.4640   -0.4970 C   0  0  0  0  0  0  0  0  0  0  0  0
   -0.9330    0.5970    0.6640 C   0  0  0  0  0  0  0  0  0  0  0  0
   -0.5350    1.9270    0.6410 C   0  0  0  0  0  0  0  0  0  0  0  0
    0.7600    2.2580    0.2880 C   0  0  0  0  0  0  0  0  0  0  0  0
    1.1660    3.5800    0.2620 O   0  0  0  0  0  0  0  0  0  0  0  0
    1.6610    1.2710   -0.0440 C   0  0  0  0  0  0  0  0  0  0  0  0
    2.9640    1.6220   -0.3990 O   0  0  0  0  0  0  0  0  0  0  0  0
    3.9140    0.6320   -0.7440 C   0  0  0  0  0  0  0  0  0  0  0  0
    5.2230    1.2860   -1.0800 C   0  0  0  0  0  0  0  0  0  0  0  0
    1.2870   -0.0600   -0.0280 C   0  0  0  0  0  0  0  0  0  0  0  0
   -0.0180   -0.3780    0.3300 C   0  0  0  0  0  0  0  0  0  0  0  0
  1  2  1  0
  2  3  2  3
  3  4  1  0
  3 17  1  0
  4  5  1  0
  5  6  1  6
  5  8  1  0
  6  7  1  0
  8  9  2  0
  8 17  1  0
  9 10  1  0
 10 11  1  0
 10 12  2  0
 12 13  1  0
 12 16  1  0
 13 14  1  0
 14 15  1  0
 16 17  2  0
M  END
