
     RDKit          3D

 17 18  0  0  0  0  0  0  0  0999 V2000
    4.4390   -0.7850    1.4430 C   0  0  0  0  0  0  0  0  0  0  0  0
    3.2100   -0.4800    0.6640 C   0  0  0  0  0  0  0  0  0  0  0  0
    3.1600   -0.6970   -0.6980 C   0  0  0  0  0  0  0  0  0  0  0  0
    2.0310   -0.4220   -1.4470 C   0  0  0  0  0  0  0  0  0  0  0  0
    0.8950    0.0850   -0.8530 C   0  0  0  0  0  0  0  0  0  0  0  0
   -0.3350    0.3970   -1.6460 C   0  0  1  0  0  0  0  0  0  0  0  0
   -0.5990   -0.6210   -2.5660 O   0  0  0  0  0  0  0  0  0  0  0  0
   -1.4600    0.5860   -0.7050 C   0  0  0  0  0  0  0  0  0  0  0  0
   -1.9230    1.8420   -0.4160 C   0  0  0  0  0  0  0  0  0  0  0  0
   -2.9580    2.0600    0.4620 C   0  0  0  0  0  0  0  0  0  0  0  0
   -3.4120    3.3660    0.7380 O   0  0  0  0  0  0  0  0  0  0  0  0
   -3.5520    0.9790    1.0730 C   0  0  0  0  0  0  0  0  0  0  0  0
   -3.1140   -0.2970    0.8080 C   0  0  0  0  0  0  0  0  0  0  0  0
   -2.0570   -0.4920   -0.0910 C   0  0  0  0  0  0  0  0  0  0  0  0
   -1.5990   -1.8730   -0.3790 C   0  0  0  0  0  0  0  0  0  0  0  0
    0.9370    0.3040    0.5080 C   0  0  0  0  0  0  0  0  0  0  0  0
    2.0730    0.0280    1.2580 C   0  0  0  0  0  0  0  0  0  0  0  0
  1  2  1  0
  2  3  2  0
  2 17  1  0
  3  4  1  0
  4  5  2  0
  5  6  1  0
  5 16  1  0
  6  7  1  6
  6  8  1  0
  8  9  2  0
  8 14  1  0
  9 10  1  0
 10 11  1  0
 10 12  2  0
 12 13  1  0
 13 14  2  0
 14 15  1  0
 16 17  2  0
M  END
