
     RDKit          3D

 17 18  0  0  0  0  0  0  0  0999 V2000
   -2.7620   -1.1300   -0.8600 C   0  0  0  0  0  0  0  0  0  0  0  0
   -2.8060    0.0160    0.1040 C   0  0  0  0  0  0  0  0  0  0  0  0
   -1.7280    0.4460    0.7520 C   0  0  0  0  0  0  0  0  0  0  0  0
   -0.4360   -0.1980    0.5430 C   0  0  0  0  0  0  0  0  0  0  0  0
   -0.2710   -1.5410    0.6160 C   0  0  0  0  0  0  0  0  0  0  0  0
    0.9700   -2.0680    0.3480 C   0  0  0  0  0  0  0  0  0  0  0  0
    2.0450   -1.2690    0.0100 C   0  0  0  0  0  0  0  0  0  0  0  0
    3.3650   -1.8600   -0.2810 C   0  0  0  0  0  0  0  0  0  0  0  0
    1.8550    0.1090   -0.0570 C   0  0  0  0  0  0  0  0  0  0  0  0
    2.8880    0.9590   -0.3860 C   0  0  0  0  0  0  0  0  0  0  0  0
    4.1400    0.4330   -0.6600 O   0  0  0  0  0  0  0  0  0  0  0  0
    2.6800    2.3300   -0.4460 C   0  0  0  0  0  0  0  0  0  0  0  0
    1.4510    2.8800   -0.1840 C   0  0  0  0  0  0  0  0  0  0  0  0
    0.4160    2.0210    0.1470 C   0  0  0  0  0  0  0  0  0  0  0  0
    0.6160    0.6500    0.2080 C   0  0  0  0  0  0  0  0  0  0  0  0
   -4.0860    0.7250    0.3620 C   0  0  0  0  0  0  0  0  0  0  0  0
   -5.0360   -0.1420    0.8700 O   0  0  0  0  0  0  0  0  0  0  0  0
  1  2  1  0
  2  3  2  3
  2 16  1  0
  3  4  1  0
  4  5  2  0
  4 15  1  0
  5  6  1  0
  6  7  2  0
  7  8  1  0
  7  9  1  0
  9 10  2  0
  9 15  1  0
 10 11  1  0
 10 12  1  0
 12 13  2  0
 13 14  1  0
 14 15  2  0
 16 17  1  0
M  END
