
     RDKit          3D

  9  9  0  0  0  0  0  0  0  0999 V2000
   -3.0010   -0.7580   -0.5860 O   0  0  0  0  0  0  0  0  0  0  0  0
   -2.2280   -0.0420    0.3550 C   0  0  0  0  0  0  0  0  0  0  0  0
   -0.8130    0.1110   -0.2130 C   0  0  1  0  0  0  0  0  0  0  0  0
   -0.0010    0.8660    0.7830 C   0  0  0  0  0  0  0  0  0  0  0  0
    1.1180    1.5760    0.0610 C   0  0  0  0  0  0  0  0  0  0  0  0
    2.2810    0.6100   -0.0420 C   0  0  0  0  0  0  0  0  0  0  0  0
    1.9410   -0.3680   -0.9900 O   0  0  0  0  0  0  0  0  0  0  0  0
    1.2150   -1.3670   -0.3500 C   0  0  0  0  0  0  0  0  0  0  0  0
   -0.2600   -1.2250   -0.5800 C   0  0  0  0  0  0  0  0  0  0  0  0
  1  2  1  0
  3  2  1  1
  3  4  1  0
  3  9  1  0
  4  5  1  0
  5  6  1  0
  6  7  1  0
  7  8  1  0
  8  9  1  0
M  END
