
     RDKit          3D

 17 18  0  0  0  0  0  0  0  0999 V2000
   -3.7960    1.9120   -1.3340 C   0  0  0  0  0  0  0  0  0  0  0  0
   -2.8890    1.1260   -0.4490 C   0  0  0  0  0  0  0  0  0  0  0  0
   -3.3230    0.7670    0.7910 C   0  0  0  0  0  0  0  0  0  0  0  0
   -2.4970    0.0390    1.6230 C   0  0  0  0  0  0  0  0  0  0  0  0
   -2.9670   -0.3090    2.8770 O   0  0  0  0  0  0  0  0  0  0  0  0
   -1.2180   -0.3250    1.1840 C   0  0  0  0  0  0  0  0  0  0  0  0
   -0.3380   -1.1210    2.0740 C   0  0  0  0  0  0  0  0  0  0  0  0
   -0.7600    0.0240   -0.0580 C   0  0  0  0  0  0  0  0  0  0  0  0
    0.5620   -0.3430   -0.4950 C   0  0  0  0  0  0  0  0  0  0  0  0
    0.7620   -0.9350   -1.7230 C   0  0  0  0  0  0  0  0  0  0  0  0
    2.0270   -1.2840   -2.1710 C   0  0  0  0  0  0  0  0  0  0  0  0
    3.1030   -1.0250   -1.3550 C   0  0  0  0  0  0  0  0  0  0  0  0
    2.9500   -0.4340   -0.1200 C   0  0  0  0  0  0  0  0  0  0  0  0
    4.0910   -0.1430    0.7820 C   0  0  0  0  0  0  0  0  0  0  0  0
    4.6160    1.1350    0.5460 O   0  0  0  0  0  0  0  0  0  0  0  0
    1.6620   -0.1030    0.2850 C   0  0  0  0  0  0  0  0  0  0  0  0
   -1.6280    0.7630   -0.8730 C   0  0  0  0  0  0  0  0  0  0  0  0
  1  2  1  0
  2  3  2  0
  2 17  1  0
  3  4  1  0
  4  5  1  0
  4  6  2  0
  6  7  1  0
  6  8  1  0
  8  9  1  0
  8 17  2  0
  9 10  2  0
  9 16  1  0
 10 11  1  0
 11 12  2  0
 12 13  1  0
 13 14  1  0
 13 16  2  0
 14 15  1  0
M  END
