
     RDKit          3D

 17 18  0  0  0  0  0  0  0  0999 V2000
   -3.7470    0.4990    1.2160 C   0  0  0  0  0  0  0  0  0  0  0  0
   -2.4440   -0.3090    1.2660 C   0  0  0  0  0  0  0  0  0  0  0  0
   -1.8210   -0.1990   -0.1080 C   0  0  1  0  0  0  0  0  0  0  0  0
   -2.7750   -0.7490   -0.9990 O   0  0  0  0  0  0  0  0  0  0  0  0
   -1.6830    1.2530   -0.5160 C   0  0  0  0  0  0  0  0  0  0  0  0
   -0.7100    1.9740    0.4020 C   0  0  0  0  0  0  0  0  0  0  0  0
    0.6120    1.3610    0.1390 C   0  0  0  0  0  0  0  0  0  0  0  0
    1.7170    2.1880    0.2070 C   0  0  0  0  0  0  0  0  0  0  0  0
    2.9560    1.6520   -0.0320 C   0  0  0  0  0  0  0  0  0  0  0  0
    3.0590    0.3090   -0.3320 C   0  0  0  0  0  0  0  0  0  0  0  0
    4.4270   -0.2200   -0.5830 C   0  0  0  0  0  0  0  0  0  0  0  0
    4.4110   -1.5760   -0.8760 O   0  0  0  0  0  0  0  0  0  0  0  0
    1.9300   -0.5010   -0.3940 C   0  0  0  0  0  0  0  0  0  0  0  0
    0.6700    0.0280   -0.1540 C   0  0  0  0  0  0  0  0  0  0  0  0
   -0.5040   -0.8640   -0.2280 C   0  0  2  0  0  0  0  0  0  0  0  0
   -0.4780   -1.5280   -1.6150 C   0  0  0  0  0  0  0  0  0  0  0  0
   -0.2690   -1.9760    0.7560 C   0  0  0  0  0  0  0  0  0  0  0  0
  1  2  1  0
  2  3  1  0
  3  4  1  6
  3  5  1  0
  3 15  1  0
  5  6  1  0
  6  7  1  0
  7  8  2  0
  7 14  1  0
  8  9  1  0
  9 10  2  0
 10 11  1  0
 10 13  1  0
 11 12  1  0
 13 14  2  0
 14 15  1  0
 15 16  1  6
 15 17  1  0
M  END
