
     RDKit          3D

 17 18  0  0  0  0  0  0  0  0999 V2000
   -2.7200    3.1240    0.3620 C   0  0  0  0  0  0  0  0  0  0  0  0
   -1.3770    2.4570    0.2420 C   0  0  0  0  0  0  0  0  0  0  0  0
   -1.2730    1.1510    0.1690 C   0  0  0  0  0  0  0  0  0  0  0  0
   -2.4540    0.2740    0.2010 C   0  0  0  0  0  0  0  0  0  0  0  0
   -3.6070    0.7860    0.3020 O   0  0  0  0  0  0  0  0  0  0  0  0
   -2.3480   -1.1660    0.1220 C   0  0  0  0  0  0  0  0  0  0  0  0
   -3.5500   -2.0540    0.1550 C   0  0  0  0  0  0  0  0  0  0  0  0
   -1.1380   -1.6790    0.0180 C   0  0  0  0  0  0  0  0  0  0  0  0
   -1.0250   -3.0870   -0.0610 O   0  0  0  0  0  0  0  0  0  0  0  0
    0.0720   -0.8660   -0.0190 C   0  0  0  0  0  0  0  0  0  0  0  0
    1.2880   -1.5360   -0.1320 C   0  0  0  0  0  0  0  0  0  0  0  0
    2.4640   -0.8330   -0.1720 C   0  0  0  0  0  0  0  0  0  0  0  0
    3.7400   -1.5840   -0.2930 C   0  0  0  0  0  0  0  0  0  0  0  0
    2.4010    0.5400   -0.0990 C   0  0  0  0  0  0  0  0  0  0  0  0
    3.6670    1.2920   -0.1430 C   0  0  0  0  0  0  0  0  0  0  0  0
    1.2150    1.2430    0.0130 C   0  0  0  0  0  0  0  0  0  0  0  0
    0.0400    0.5140    0.0520 C   0  0  0  0  0  0  0  0  0  0  0  0
  1  2  1  0
  2  3  2  3
  3  4  1  0
  3 17  1  0
  4  5  2  0
  4  6  1  0
  6  7  1  0
  6  8  2  0
  8  9  1  0
  8 10  1  0
 10 11  2  0
 10 17  1  0
 11 12  1  0
 12 13  1  0
 12 14  2  0
 14 15  1  0
 14 16  1  0
 16 17  2  0
M  END
