
     RDKit          3D

 17 18  0  0  0  0  0  0  0  0999 V2000
    4.5010    0.3850    1.4290 N   0  0  0  0  0  0  0  0  0  0  0  0
    3.7690    0.8950   -0.0470 S   0  0  2  0  0  0  0  0  0  0  0  0
    4.7650    0.7470   -1.1630 O   0  0  0  0  0  0  0  0  0  0  0  0
    3.3110    2.3390    0.0730 O   0  0  0  0  0  0  0  0  0  0  0  0
    2.3920   -0.0420   -0.4250 N   0  0  0  0  0  0  0  0  0  0  0  0
    1.2030    0.5130    0.1280 C   0  0  0  0  0  0  0  0  0  0  0  0
   -0.0250   -0.3060   -0.1990 C   0  0  0  0  0  0  0  0  0  0  0  0
    0.0980   -1.3940   -0.9210 C   0  0  0  0  0  0  0  0  0  0  0  0
   -1.5050   -2.0630   -1.0900 S   0  0  2  0  0  0  0  0  0  0  0  0
   -1.6250   -3.4080   -0.4390 O   0  0  0  0  0  0  0  0  0  0  0  0
   -1.9490   -2.0930   -2.5180 O   0  0  0  0  0  0  0  0  0  0  0  0
   -2.3060   -0.8300   -0.1620 C   0  0  0  0  0  0  0  0  0  0  0  0
   -3.6100   -0.6440    0.1710 C   0  0  0  0  0  0  0  0  0  0  0  0
   -4.0570    0.4260    0.9350 C   0  0  0  0  0  0  0  0  0  0  0  0
   -3.0790    1.3020    1.3400 C   0  0  0  0  0  0  0  0  0  0  0  0
   -1.7630    1.1230    1.0090 C   0  0  0  0  0  0  0  0  0  0  0  0
   -1.3360    0.0350    0.2360 C   0  0  0  0  0  0  0  0  0  0  0  0
  2  1  1  1
  2  3  2  0
  2  4  2  0
  2  5  1  0
  5  6  1  0
  6  7  1  0
  7  8  2  0
  7 17  1  0
  9  8  1  6
  9 10  2  0
  9 11  2  0
  9 12  1  0
 12 13  2  0
 12 17  1  0
 13 14  1  0
 14 15  2  0
 15 16  1  0
 16 17  2  0
M  END
