
     RDKit          3D

 17 18  0  0  0  0  0  0  0  0999 V2000
    4.8910   -0.3430    0.7070 N   0  0  0  0  0  0  0  0  0  0  0  0
    3.4430   -0.5020    0.9280 C   0  0  0  0  0  0  0  0  0  0  0  0
    2.8720   -0.9820   -0.3660 C   0  0  0  0  0  0  0  0  0  0  0  0
    1.1530   -1.2490   -0.3850 S   0  0  2  0  0  0  0  0  0  0  0  0
    0.7150   -2.3350    0.5570 O   0  0  0  0  0  0  0  0  0  0  0  0
    0.7820   -1.7260   -1.7820 O   0  0  0  0  0  0  0  0  0  0  0  0
    0.1870    0.1520   -0.0600 C   0  0  0  0  0  0  0  0  0  0  0  0
    0.5690    1.4390    0.1630 C   0  0  0  0  0  0  0  0  0  0  0  0
   -0.5090    2.2010    0.3610 N   0  0  0  0  0  0  0  0  0  0  0  0
   -1.6260    1.4180    0.2700 C   0  0  0  0  0  0  0  0  0  0  0  0
   -1.2210    0.1290    0.0070 C   0  0  0  0  0  0  0  0  0  0  0  0
   -2.0660   -0.8460   -0.1340 C   0  0  0  0  0  0  0  0  0  0  0  0
   -3.5220   -0.8950   -0.0700 C   0  0  0  0  0  0  0  0  0  0  0  0
   -4.2030    0.6920    0.2630 S   0  0  1  0  0  0  0  0  0  0  0  0
   -5.1600    1.1350   -0.8240 O   0  0  0  0  0  0  0  0  0  0  0  0
   -5.0030    0.6120    1.5370 O   0  0  0  0  0  0  0  0  0  0  0  0
   -2.8780    1.8090    0.4070 C   0  0  0  0  0  0  0  0  0  0  0  0
  1  2  1  0
  2  3  1  0
  4  3  1  6
  4  5  2  0
  4  6  2  0
  4  7  1  0
  7  8  2  0
  7 11  1  0
  8  9  1  0
  9 10  1  0
 10 11  1  0
 10 17  2  0
 11 12  2  0
 12 13  1  0
 14 13  1  6
 14 15  2  0
 14 16  2  0
 14 17  1  0
M  END
