
     RDKit          3D

 17 18  0  0  0  0  0  0  0  0999 V2000
   -0.1740   -0.2150    2.1950 O   0  0  0  0  0  0  0  0  0  0  0  0
   -0.0610   -0.0390    0.9500 C   0  0  0  0  0  0  0  0  0  0  0  0
    1.2460    0.0660    0.4040 N   0  0  0  0  0  0  0  0  0  0  0  0
    2.4250   -0.0250    1.2420 C   0  0  0  0  0  0  0  0  0  0  0  0
    3.6620    0.1140    0.4490 C   0  0  0  0  0  0  0  0  0  0  0  0
    4.6370    0.9830    0.5060 C   0  0  0  0  0  0  0  0  0  0  0  0
    5.6540    0.8620   -0.3580 O   0  0  0  0  0  0  0  0  0  0  0  0
    5.8400   -0.3460   -1.0100 C   0  0  0  0  0  0  0  0  0  0  0  0
    4.1200   -0.9990   -0.8810 S   0  0  0  0  0  0  0  0  0  0  0  0
   -1.2470    0.0400    0.1890 N   0  0  0  0  0  0  0  0  0  0  0  0
   -2.5750   -0.0710    0.7740 C   0  0  2  0  0  0  0  0  0  0  0  0
   -3.3420   -1.2510    0.2160 C   0  0  0  0  0  0  0  0  0  0  0  0
   -3.4480   -0.9960   -1.2880 C   0  0  0  0  0  0  0  0  0  0  0  0
   -3.8470    0.7570   -1.2840 S   0  0  2  0  0  0  0  0  0  0  0  0
   -5.3100    0.9800   -1.4220 O   0  0  0  0  0  0  0  0  0  0  0  0
   -3.0250    1.5040   -2.2710 O   0  0  0  0  0  0  0  0  0  0  0  0
   -3.3860    1.1680    0.4060 C   0  0  0  0  0  0  0  0  0  0  0  0
  1  2  2  0
  2  3  1  0
  2 10  1  0
  3  4  1  0
  4  5  1  0
  5  6  2  0
  5  9  1  0
  6  7  1  0
  7  8  1  0
  8  9  1  0
 11 10  1  6
 11 12  1  0
 11 17  1  0
 12 13  1  0
 14 13  1  6
 14 15  2  0
 14 16  2  0
 14 17  1  0
M  END
