
     RDKit          3D

 17 17  0  0  0  0  0  0  0  0999 V2000
    5.5840    0.6800    0.3600 C   0  0  0  0  0  0  0  0  0  0  0  0
    4.3230   -0.5880    0.0720 S   0  0  0  0  0  0  0  0  0  0  0  0
    2.6890    0.0810    0.1590 C   0  0  0  0  0  0  0  0  0  0  0  0
    2.4940    1.2770    0.3910 O   0  0  0  0  0  0  0  0  0  0  0  0
    1.4970   -0.8060   -0.0500 C   0  0  0  0  0  0  0  0  0  0  0  0
    0.3110   -0.2770    0.0260 C   0  0  0  0  0  0  0  0  0  0  0  0
    0.3880    1.1550    0.3160 O   0  0  0  0  0  0  0  0  0  0  0  0
   -1.0160   -0.7760   -0.0960 C   0  0  0  0  0  0  0  0  0  0  0  0
   -1.4610   -2.0920   -0.3090 N   0  0  0  0  0  0  0  0  0  0  0  0
   -0.7720   -3.2440   -0.4530 C   0  0  0  0  0  0  0  0  0  0  0  0
    0.4380   -3.3940   -0.4240 O   0  0  0  0  0  0  0  0  0  0  0  0
   -2.0390    0.1090   -0.0030 C   0  0  0  0  0  0  0  0  0  0  0  0
   -3.7680   -0.3860   -0.1200 S   0  0  0  0  0  0  0  0  0  0  0  0
   -4.4440    1.1780    0.5810 C   0  0  0  0  0  0  0  0  0  0  0  0
   -3.2300    1.8850    0.9160 N   0  0  0  0  0  0  0  0  0  0  0  0
   -2.1120    1.4980    0.1070 C   0  0  0  0  0  0  0  0  0  0  0  0
   -1.3480    2.3490   -0.4070 O   0  0  0  0  0  0  0  0  0  0  0  0
  1  2  1  0
  2  3  1  0
  3  4  2  0
  3  5  1  0
  5  6  2  3
  6  7  1  0
  6  8  1  0
  8  9  1  0
  8 12  2  3
  9 10  1  0
 10 11  2  0
 12 13  1  0
 12 16  1  0
 13 14  1  0
 14 15  1  0
 15 16  1  0
 16 17  2  0
M  END
