
     RDKit          3D

 16 16  0  0  0  0  0  0  0  0999 V2000
    5.7410   -0.1120    0.4560 C   0  0  0  0  0  0  0  0  0  0  0  0
    4.0270   -0.6220    0.4050 S   0  0  0  0  0  0  0  0  0  0  0  0
    2.9260    0.6910   -0.0690 C   0  0  0  0  0  0  0  0  0  0  0  0
    3.3930    1.9900   -0.3670 N   0  0  0  0  0  0  0  0  0  0  0  0
    1.6710    0.4560   -0.1430 N   0  0  0  0  0  0  0  0  0  0  0  0
    1.1870   -0.8410    0.1530 C   0  0  0  0  0  0  0  0  0  0  0  0
    1.9930   -1.8110    0.3430 O   0  0  0  0  0  0  0  0  0  0  0  0
   -0.2630   -1.1550    0.2610 C   0  0  0  0  0  0  0  0  0  0  0  0
   -0.9610    0.0340    0.0210 O   0  0  0  0  0  0  0  0  0  0  0  0
   -2.3570    0.1410    0.0360 C   0  0  0  0  0  0  0  0  0  0  0  0
   -2.9360    1.3120   -0.1600 C   0  0  0  0  0  0  0  0  0  0  0  0
   -4.3920    1.4500   -0.1490 C   0  0  0  0  0  0  0  0  0  0  0  0
   -5.0320    0.2460    0.0820 O   0  0  0  0  0  0  0  0  0  0  0  0
   -4.4190   -0.9620    0.2840 C   0  0  0  0  0  0  0  0  0  0  0  0
   -3.0920   -1.0850    0.2740 C   0  0  0  0  0  0  0  0  0  0  0  0
   -2.5240   -2.3280    0.4830 O   0  0  0  0  0  0  0  0  0  0  0  0
  1  2  1  0
  2  3  1  0
  3  4  1  0
  3  5  2  3
  5  6  1  0
  6  7  2  0
  6  8  1  0
  8  9  1  0
  9 10  1  0
 10 11  2  0
 10 15  1  0
 11 12  1  0
 12 13  1  0
 13 14  1  0
 14 15  2  0
 15 16  1  0
M  END
