
     RDKit          3D

 16 17  0  0  0  0  0  0  0  0999 V2000
    0.1430    0.4360   -1.5300 O   0  0  0  0  0  0  0  0  0  0  0  0
   -0.1220    0.0760   -0.3720 C   0  0  0  0  0  0  0  0  0  0  0  0
   -1.4030   -0.4850   -0.1210 N   0  0  0  0  0  0  0  0  0  0  0  0
   -2.4060   -0.6580   -1.1270 C   0  0  1  0  0  0  0  0  0  0  0  0
   -2.8750   -2.0870   -1.2730 C   0  0  0  0  0  0  0  0  0  0  0  0
   -4.2080   -1.8330   -1.9780 C   0  0  0  0  0  0  0  0  0  0  0  0
   -4.6030   -0.5640   -1.6600 O   0  0  0  0  0  0  0  0  0  0  0  0
   -3.7400   -0.0180   -0.7470 C   0  0  0  0  0  0  0  0  0  0  0  0
    0.8460    0.2340    0.6440 N   0  0  0  0  0  0  0  0  0  0  0  0
    2.1570    0.7950    0.4430 C   0  0  1  0  0  0  0  0  0  0  0  0
    2.3740    2.0700    1.2250 C   0  0  0  0  0  0  0  0  0  0  0  0
    2.9170    1.7420    2.6220 C   0  0  0  0  0  0  0  0  0  0  0  0
    4.2500    1.2560    2.3940 O   0  0  0  0  0  0  0  0  0  0  0  0
    4.4270    0.5640    1.2030 C   0  0  0  0  0  0  0  0  0  0  0  0
    5.4910    0.5530    0.5350 O   0  0  0  0  0  0  0  0  0  0  0  0
    3.2590   -0.2100    0.7070 C   0  0  0  0  0  0  0  0  0  0  0  0
  1  2  2  0
  2  3  1  0
  2  9  1  0
  4  3  1  1
  4  5  1  0
  4  8  1  0
  5  6  1  0
  6  7  1  0
  7  8  1  0
 10  9  1  1
 10 11  1  0
 10 16  1  0
 11 12  1  0
 12 13  1  0
 13 14  1  0
 14 15  2  0
 14 16  1  0
M  END
