
     RDKit          3D

 28 30  0  0  0  0  0  0  0  0999 V2000
   -4.7690   -2.7190   -2.2510 C   0  0  0  0  0  0  0  0  0  0  0  0
   -3.7530   -2.0560   -1.3940 N   0  0  0  0  0  0  0  0  0  0  0  0
   -2.4050   -2.4280   -1.5040 C   0  0  0  0  0  0  0  0  0  0  0  0
   -2.1080   -3.3510   -2.3580 O   0  0  0  0  0  0  0  0  0  0  0  0
   -1.3160   -1.8650   -0.7410 C   0  0  0  0  0  0  0  0  0  0  0  0
   -0.0180   -2.3980   -0.9400 C   0  0  0  0  0  0  0  0  0  0  0  0
    1.0660   -1.9460   -0.2370 C   0  0  0  0  0  0  0  0  0  0  0  0
    2.2800   -2.5520   -0.5240 O   0  0  0  0  0  0  0  0  0  0  0  0
    3.5120   -2.2690    0.0320 C   0  0  0  0  0  0  0  0  0  0  0  0
    3.8930   -0.8410   -0.2860 C   0  0  0  0  0  0  0  0  0  0  0  0
    3.1360   -0.1590   -1.0010 O   0  0  0  0  0  0  0  0  0  0  0  0
    5.0820   -0.3240    0.2320 N   0  0  0  0  0  0  0  0  0  0  0  0
    5.5540    0.9830    0.0240 C   0  0  0  0  0  0  0  0  0  0  0  0
    4.8130    2.0150   -0.4650 C   0  0  0  0  0  0  0  0  0  0  0  0
    5.3530    3.2900   -0.6650 C   0  0  0  0  0  0  0  0  0  0  0  0
    6.6620    3.5520   -0.3730 C   0  0  0  0  0  0  0  0  0  0  0  0
    7.4130    2.5130    0.1210 C   0  0  0  0  0  0  0  0  0  0  0  0
    6.8970    1.2690    0.3190 C   0  0  0  0  0  0  0  0  0  0  0  0
    0.8910   -0.9590    0.6730 C   0  0  0  0  0  0  0  0  0  0  0  0
   -0.3670   -0.4200    0.8860 C   0  0  0  0  0  0  0  0  0  0  0  0
   -1.4940   -0.8660    0.1780 C   0  0  0  0  0  0  0  0  0  0  0  0
   -2.7260   -0.3190    0.4010 O   0  0  0  0  0  0  0  0  0  0  0  0
   -3.1310    0.6510    1.2990 C   0  0  1  0  0  0  0  0  0  0  0  0
   -3.4080    1.9350    0.5040 C   0  0  0  0  0  0  0  0  0  0  0  0
   -4.4040    1.5960   -0.5730 C   0  0  0  0  0  0  0  0  0  0  0  0
   -5.4920    0.8850   -0.0920 O   0  0  0  0  0  0  0  0  0  0  0  0
   -5.5680    0.9350    1.2950 C   0  0  0  0  0  0  0  0  0  0  0  0
   -4.4180    0.2910    2.0020 C   0  0  0  0  0  0  0  0  0  0  0  0
  1  2  1  0
  2  3  1  0
  3  4  2  0
  3  5  1  0
  5  6  2  0
  5 21  1  0
  6  7  1  0
  7  8  1  0
  7 19  2  0
  8  9  1  0
  9 10  1  0
 10 11  2  0
 10 12  1  0
 12 13  1  0
 13 14  2  0
 13 18  1  0
 14 15  1  0
 15 16  2  0
 16 17  1  0
 17 18  2  0
 19 20  1  0
 20 21  2  0
 21 22  1  0
 23 22  1  6
 23 24  1  0
 23 28  1  0
 24 25  1  0
 25 26  1  0
 26 27  1  0
 27 28  1  0
M  END
