
     RDKit          3D

 17 18  0  0  0  0  0  0  0  0999 V2000
   -2.4770    1.4870    0.6950 C   0  0  0  0  0  0  0  0  0  0  0  0
   -1.6750    0.2890    0.2080 C   0  0  2  0  0  0  0  0  0  0  0  0
   -2.4930   -0.3900   -0.8580 C   0  0  0  0  0  0  0  0  0  0  0  0
   -1.3160   -0.5580    1.2280 O   0  0  0  0  0  0  0  0  0  0  0  0
   -0.1310   -1.1890    0.8790 C   0  0  2  0  0  0  0  0  0  0  0  0
   -0.3300   -2.5980    0.3980 C   0  0  0  0  0  0  0  0  0  0  0  0
    0.6290   -1.2780    2.0540 F   0  0  0  0  0  0  0  0  0  0  0  0
    0.6100   -0.2890   -0.0650 C   0  0  2  0  0  0  0  0  0  0  0  0
    0.9150   -0.9400   -1.3870 C   0  0  0  0  0  0  0  0  0  0  0  0
    1.8800    0.2190    0.5150 C   0  0  0  0  0  0  0  0  0  0  0  0
    2.4590   -0.0970    1.6820 N   0  0  0  0  0  0  0  0  0  0  0  0
    3.4890    0.6110    1.8690 O   0  0  0  0  0  0  0  0  0  0  0  0
    3.6350    1.4280    0.8340 C   0  0  0  0  0  0  0  0  0  0  0  0
    4.5010    2.3030    0.6090 O   0  0  0  0  0  0  0  0  0  0  0  0
    2.6190    1.1910   -0.0370 N   0  0  0  0  0  0  0  0  0  0  0  0
   -0.3770    0.8440   -0.3000 C   0  0  2  0  0  0  0  0  0  0  0  0
    0.0080    1.8650    0.5840 O   0  0  0  0  0  0  0  0  0  0  0  0
  2  1  1  1
  2  3  1  0
  2  4  1  0
  2 16  1  0
  4  5  1  0
  5  6  1  6
  5  7  1  0
  5  8  1  0
  8  9  1  6
  8 10  1  0
  8 16  1  0
 10 11  2  0
 10 15  1  0
 11 12  1  0
 12 13  1  0
 13 14  2  0
 13 15  1  0
 16 17  1  1
M  END
