
     RDKit          3D

 26 28  0  0  0  0  0  0  0  0999 V2000
    5.0190    1.0620    2.3090 C   0  0  0  0  0  0  0  0  0  0  0  0
    4.3160    0.2710    1.2310 C   0  0  0  0  0  0  0  0  0  0  0  0
    3.6850    1.1430    0.1980 C   0  0  0  0  0  0  0  0  0  0  0  0
    3.0060    0.3100   -0.8420 N   0  0  0  0  0  0  0  0  0  0  0  0
    3.6600   -0.0730   -1.9050 C   0  0  0  0  0  0  0  0  0  0  0  0
    3.0120   -0.8380   -2.8510 C   0  0  0  0  0  0  0  0  0  0  0  0
    1.3330   -1.0100   -2.1420 S   0  0  0  0  0  0  0  0  0  0  0  0
    1.7600   -0.0210   -0.6720 C   0  0  0  0  0  0  0  0  0  0  0  0
    0.9190    0.2380    0.2840 N   0  0  0  0  0  0  0  0  0  0  0  0
   -0.3790   -0.2790    0.1610 C   0  0  0  0  0  0  0  0  0  0  0  0
   -0.5960   -1.6090    0.4050 N   0  0  0  0  0  0  0  0  0  0  0  0
   -1.8190   -2.1730    0.2550 C   0  0  0  0  0  0  0  0  0  0  0  0
   -2.0190   -3.5530    0.5220 N   0  0  0  0  0  0  0  0  0  0  0  0
   -0.9550   -4.4340    0.9510 C   0  0  0  0  0  0  0  0  0  0  0  0
   -2.8310   -1.4020   -0.1420 N   0  0  0  0  0  0  0  0  0  0  0  0
   -4.1610   -1.9560   -0.3350 C   0  0  0  0  0  0  0  0  0  0  0  0
   -4.9990   -1.9330    0.9110 C   0  0  0  0  0  0  0  0  0  0  0  0
   -2.6800   -0.0590   -0.4020 C   0  0  0  0  0  0  0  0  0  0  0  0
   -3.6830    0.5940   -0.7650 O   0  0  0  0  0  0  0  0  0  0  0  0
   -1.4230    0.5110   -0.2450 C   0  0  0  0  0  0  0  0  0  0  0  0
   -1.2360    1.9410   -0.4140 C   0  0  0  0  0  0  0  0  0  0  0  0
   -0.2740    2.6630    0.1060 C   0  0  0  0  0  0  0  0  0  0  0  0
   -0.1060    4.1330   -0.0890 C   0  0  0  0  0  0  0  0  0  0  0  0
   -1.0280    4.6890   -0.9750 O   0  0  0  0  0  0  0  0  0  0  0  0
   -2.0520    3.9840   -1.5500 C   0  0  0  0  0  0  0  0  0  0  0  0
   -2.1620    2.6880   -1.2940 C   0  0  0  0  0  0  0  0  0  0  0  0
  1  2  1  0
  2  3  1  0
  3  4  1  0
  4  5  1  0
  4  8  1  0
  5  6  2  0
  6  7  1  0
  7  8  1  0
  8  9  2  3
  9 10  1  0
 10 11  1  0
 10 20  2  0
 11 12  2  0
 12 13  1  0
 12 15  1  0
 13 14  1  0
 15 16  1  0
 15 18  1  0
 16 17  1  0
 18 19  2  0
 18 20  1  0
 20 21  1  0
 21 22  2  0
 21 26  1  0
 22 23  1  0
 23 24  1  0
 24 25  1  0
 25 26  2  0
M  END
