
     RDKit          3D

 17 18  0  0  0  0  0  0  0  0999 V2000
   -1.0330   -0.9450    1.5210 C   0  0  0  0  0  0  0  0  0  0  0  0
   -1.1760   -0.3940    0.1150 C   0  0  1  0  0  0  0  0  0  0  0  0
    0.1270   -0.5030   -0.5380 C   0  0  0  0  0  0  0  0  0  0  0  0
    0.7440   -1.5920   -0.7150 O   0  0  0  0  0  0  0  0  0  0  0  0
    0.7860    0.6680   -1.0210 N   0  0  0  0  0  0  0  0  0  0  0  0
    2.0220    0.6200   -1.6440 N   0  0  0  0  0  0  0  0  0  0  0  0
    3.1780    0.4190   -0.8640 C   0  0  0  0  0  0  0  0  0  0  0  0
    4.0740   -0.5490   -0.6300 C   0  0  0  0  0  0  0  0  0  0  0  0
    4.8060    0.2870    0.3060 C   0  0  0  0  0  0  0  0  0  0  0  0
    3.9300    1.2540    0.0880 C   0  0  0  0  0  0  0  0  0  0  0  0
    3.8050    2.5190    0.5740 F   0  0  0  0  0  0  0  0  0  0  0  0
   -2.2720   -1.1500   -0.5830 C   0  0  0  0  0  0  0  0  0  0  0  0
   -3.4500   -1.0140    0.1260 O   0  0  0  0  0  0  0  0  0  0  0  0
   -3.9040    0.2930    0.1900 C   0  0  0  0  0  0  0  0  0  0  0  0
   -2.8660    1.2580   -0.3000 C   0  0  0  0  0  0  0  0  0  0  0  0
   -3.1400    2.2440   -1.0400 O   0  0  0  0  0  0  0  0  0  0  0  0
   -1.5600    0.9760    0.1360 O   0  0  0  0  0  0  0  0  0  0  0  0
  2  1  1  1
  2  3  1  0
  2 12  1  0
  2 17  1  0
  3  4  2  0
  3  5  1  0
  5  6  1  0
  6  7  1  0
  7  8  2  0
  7 10  1  0
  8  9  1  0
  9 10  2  0
 10 11  1  0
 12 13  1  0
 13 14  1  0
 14 15  1  0
 15 16  2  0
 15 17  1  0
M  END
