
     RDKit          3D

 26 28  0  0  0  0  0  0  0  0999 V2000
    6.9450   -1.3310    1.5020 C   0  0  0  0  0  0  0  0  0  0  0  0
    5.9210   -0.6490    1.0200 C   0  0  0  0  0  0  0  0  0  0  0  0
    6.0470    0.1590   -0.1400 N   0  0  0  0  0  0  0  0  0  0  0  0
    7.0390    1.2030   -0.1590 C   0  0  0  0  0  0  0  0  0  0  0  0
    5.0090   -0.1370   -1.4860 S   0  0  1  0  0  0  0  0  0  0  0  0
    5.4090    0.6850   -2.6760 O   0  0  0  0  0  0  0  0  0  0  0  0
    5.1680   -1.5900   -1.9110 O   0  0  0  0  0  0  0  0  0  0  0  0
    3.3270    0.0930   -1.0640 C   0  0  0  0  0  0  0  0  0  0  0  0
    2.2930   -0.8350   -1.1200 C   0  0  0  0  0  0  0  0  0  0  0  0
    1.1220   -0.2480   -0.7010 C   0  0  0  0  0  0  0  0  0  0  0  0
   -0.1830   -0.6570   -0.5470 C   0  0  0  0  0  0  0  0  0  0  0  0
   -1.1240    0.2360   -0.0850 C   0  0  0  0  0  0  0  0  0  0  0  0
   -2.4740   -0.1650    0.0800 N   0  0  0  0  0  0  0  0  0  0  0  0
   -2.8320   -1.4710   -0.2290 N   0  0  0  0  0  0  0  0  0  0  0  0
   -4.0540   -1.8850   -0.2200 C   0  0  0  0  0  0  0  0  0  0  0  0
   -4.3110   -3.2970   -0.5670 C   0  0  0  0  0  0  0  0  0  0  0  0
   -5.0650   -0.9550    0.1240 N   0  0  0  0  0  0  0  0  0  0  0  0
   -5.8210   -0.1830   -0.8400 C   0  0  0  0  0  0  0  0  0  0  0  0
   -6.7790    0.6640   -0.0220 C   0  0  0  0  0  0  0  0  0  0  0  0
   -6.1220    0.7220    1.3230 C   0  0  0  0  0  0  0  0  0  0  0  0
   -5.4840   -0.6420    1.4570 C   0  0  0  0  0  0  0  0  0  0  0  0
   -0.7900    1.5360    0.2280 C   0  0  0  0  0  0  0  0  0  0  0  0
    0.5060    1.9460    0.0760 C   0  0  0  0  0  0  0  0  0  0  0  0
    1.4580    1.0710   -0.3830 C   0  0  0  0  0  0  0  0  0  0  0  0
    2.7900    1.2210   -0.6190 N   0  0  0  0  0  0  0  0  0  0  0  0
    3.4900    2.4590   -0.4010 C   0  0  0  0  0  0  0  0  0  0  0  0
  1  2  2  0
  2  3  1  0
  3  4  1  0
  5  3  1  1
  5  6  2  0
  5  7  2  0
  5  8  1  0
  8  9  2  0
  8 25  1  0
  9 10  1  0
 10 11  2  0
 10 24  1  0
 11 12  1  0
 12 13  1  0
 12 22  2  0
 13 14  1  0
 14 15  2  3
 15 16  1  0
 15 17  1  0
 17 18  1  0
 17 21  1  0
 18 19  1  0
 19 20  1  0
 20 21  1  0
 22 23  1  0
 23 24  2  0
 24 25  1  0
 25 26  1  0
M  END
