
     RDKit          3D

 27 29  0  0  0  0  0  0  0  0999 V2000
    7.5540    0.5900    1.5430 C   0  0  0  0  0  0  0  0  0  0  0  0
    6.6750   -0.4200    1.0890 O   0  0  0  0  0  0  0  0  0  0  0  0
    5.3240   -0.1710    0.8670 C   0  0  0  0  0  0  0  0  0  0  0  0
    4.4600   -0.3660    1.9320 C   0  0  0  0  0  0  0  0  0  0  0  0
    4.9200   -0.7860    3.1520 O   0  0  0  0  0  0  0  0  0  0  0  0
    3.1180   -0.1310    1.7530 C   0  0  0  0  0  0  0  0  0  0  0  0
    2.5820    0.2980    0.5410 C   0  0  0  0  0  0  0  0  0  0  0  0
    1.1580    0.5180    0.4530 C   0  0  0  0  0  0  0  0  0  0  0  0
    0.4170    0.3170    1.4820 O   0  0  0  0  0  0  0  0  0  0  0  0
    0.4400    0.9490   -0.6830 N   0  0  0  0  0  0  0  0  0  0  0  0
   -1.0050    1.1350   -0.6510 C   0  0  0  0  0  0  0  0  0  0  0  0
   -1.7060   -0.1260   -0.3160 C   0  0  0  0  0  0  0  0  0  0  0  0
   -1.0530   -1.1750   -0.1040 O   0  0  0  0  0  0  0  0  0  0  0  0
   -3.1110   -0.1750   -0.2290 N   0  0  0  0  0  0  0  0  0  0  0  0
   -3.9450   -1.3170    0.0850 C   0  0  0  0  0  0  0  0  0  0  0  0
   -5.2680   -0.7950    0.5550 C   0  0  2  0  0  0  0  0  0  0  0  0
   -5.7510   -1.4010    1.7570 N   0  0  0  0  0  0  0  0  0  0  0  0
   -6.2420   -0.9000   -0.5990 C   0  0  0  0  0  0  0  0  0  0  0  0
   -6.0830    0.1270   -1.5670 N   0  0  0  0  0  0  0  0  0  0  0  0
   -4.7770    0.6550   -1.7140 C   0  0  0  0  0  0  0  0  0  0  0  0
   -4.0500    0.9380   -0.4410 C   0  0  1  0  0  0  0  0  0  0  0  0
   -4.9970    0.7010    0.7430 C   0  0  0  0  0  0  0  0  0  0  0  0
    3.4520    0.4810   -0.4860 C   0  0  0  0  0  0  0  0  0  0  0  0
    3.0520    0.9040   -1.7400 O   0  0  0  0  0  0  0  0  0  0  0  0
    4.8210    0.2480   -0.3260 C   0  0  0  0  0  0  0  0  0  0  0  0
    5.7120    0.4360   -1.3800 O   0  0  0  0  0  0  0  0  0  0  0  0
    5.9760   -0.6780   -2.2390 C   0  0  0  0  0  0  0  0  0  0  0  0
  1  2  1  0
  2  3  1  0
  3  4  2  0
  3 25  1  0
  4  5  1  0
  4  6  1  0
  6  7  2  0
  7  8  1  0
  7 23  1  0
  8  9  2  0
  8 10  1  0
 10 11  1  0
 11 12  1  0
 12 13  2  0
 12 14  1  0
 14 15  1  0
 14 21  1  0
 15 16  1  0
 16 17  1  1
 16 18  1  0
 16 22  1  0
 18 19  1  0
 19 20  1  0
 21 20  1  6
 21 22  1  0
 23 24  1  0
 23 25  2  0
 25 26  1  0
 26 27  1  0
M  END
