
     RDKit          3D

 27 29  0  0  0  0  0  0  0  0999 V2000
    7.3740    2.2860   -0.1360 N   0  0  0  0  0  0  0  0  0  0  0  0
    6.6330    3.0850   -1.0400 C   0  0  0  0  0  0  0  0  0  0  0  0
    7.2500    3.9190   -1.7420 O   0  0  0  0  0  0  0  0  0  0  0  0
    5.1680    2.9590   -1.1710 C   0  0  0  0  0  0  0  0  0  0  0  0
    4.3780    3.6920   -2.0180 C   0  0  0  0  0  0  0  0  0  0  0  0
    3.0390    3.2990   -1.8680 C   0  0  0  0  0  0  0  0  0  0  0  0
    3.0470    2.3180   -0.9140 C   0  0  0  0  0  0  0  0  0  0  0  0
    1.9300    1.5680   -0.3780 C   0  0  0  0  0  0  0  0  0  0  0  0
    2.1920    0.6750    0.5370 O   0  0  0  0  0  0  0  0  0  0  0  0
    0.5860    1.6730   -0.7140 N   0  0  0  0  0  0  0  0  0  0  0  0
    0.0720    2.5770   -1.6880 C   0  0  0  0  0  0  0  0  0  0  0  0
   -1.4320    2.2810   -1.8400 C   0  0  0  0  0  0  0  0  0  0  0  0
   -1.5590    0.9590   -2.1640 O   0  0  0  0  0  0  0  0  0  0  0  0
   -1.1710    0.1080   -1.1310 C   0  0  2  0  0  0  0  0  0  0  0  0
   -2.3590   -0.6160   -0.6640 C   0  0  0  0  0  0  0  0  0  0  0  0
   -3.4710   -0.4050   -1.1940 O   0  0  0  0  0  0  0  0  0  0  0  0
   -2.3110   -1.5820    0.4020 N   0  0  0  0  0  0  0  0  0  0  0  0
   -3.5040   -2.2370    0.7940 C   0  0  0  0  0  0  0  0  0  0  0  0
   -3.4200   -3.2130    1.8810 C   0  0  0  0  0  0  0  0  0  0  0  0
   -2.3000   -3.4860    2.4810 C   0  0  0  0  0  0  0  0  0  0  0  0
   -2.2030   -4.4830    3.5940 C   0  0  0  0  0  0  0  0  0  0  0  0
   -3.4180   -5.0740    3.9100 O   0  0  0  0  0  0  0  0  0  0  0  0
   -4.5990   -4.7720    3.2620 C   0  0  0  0  0  0  0  0  0  0  0  0
   -4.6580   -3.8990    2.2940 C   0  0  0  0  0  0  0  0  0  0  0  0
   -5.8670   -3.6070    1.6500 O   0  0  0  0  0  0  0  0  0  0  0  0
   -0.4280    0.8170   -0.0530 C   0  0  0  0  0  0  0  0  0  0  0  0
    4.3570    2.1370   -0.5130 N   0  0  0  0  0  0  0  0  0  0  0  0
  1  2  1  0
  2  3  2  0
  2  4  1  0
  4  5  2  0
  4 27  1  0
  5  6  1  0
  6  7  2  0
  7  8  1  0
  7 27  1  0
  8  9  2  0
  8 10  1  0
 10 11  1  0
 10 26  1  0
 11 12  1  0
 12 13  1  0
 13 14  1  0
 14 15  1  1
 14 26  1  0
 15 16  2  0
 15 17  1  0
 17 18  1  0
 18 19  1  0
 19 20  2  0
 19 24  1  0
 20 21  1  0
 21 22  1  0
 22 23  1  0
 23 24  2  0
 24 25  1  0
M  END
