
     RDKit          3D

 27 29  0  0  0  0  0  0  0  0999 V2000
   -3.7100   -2.5860   -1.9230 C   0  0  0  0  0  0  0  0  0  0  0  0
   -2.8950   -1.5490   -1.2770 C   0  0  0  0  0  0  0  0  0  0  0  0
   -3.3080   -0.5050   -0.6160 C   0  0  0  0  0  0  0  0  0  0  0  0
   -4.6760   -0.1060   -0.3510 C   0  0  0  0  0  0  0  0  0  0  0  0
   -5.8080   -0.6230   -0.6690 N   0  0  0  0  0  0  0  0  0  0  0  0
   -4.5660    1.1140    0.4220 N   0  0  0  0  0  0  0  0  0  0  0  0
   -3.1750    1.3970    0.5890 C   0  0  0  0  0  0  0  0  0  0  0  0
   -2.7170    2.6010    1.3700 C   0  0  0  0  0  0  0  0  0  0  0  0
   -2.4160    0.5200    0.0260 C   0  0  0  0  0  0  0  0  0  0  0  0
   -0.9480    0.3920   -0.0620 C   0  0  1  0  0  0  0  0  0  0  0  0
   -0.5400    0.2280   -1.4000 O   0  0  0  0  0  0  0  0  0  0  0  0
   -0.1270    1.4610    0.5390 C   0  0  0  0  0  0  0  0  0  0  0  0
    1.3010    1.0360    0.5050 N   0  0  0  0  0  0  0  0  0  0  0  0
    2.1440    1.3370   -0.5870 C   0  0  0  0  0  0  0  0  0  0  0  0
    1.7030    2.0910   -1.5040 O   0  0  0  0  0  0  0  0  0  0  0  0
    3.5130    0.7640   -0.6230 C   0  0  2  0  0  0  0  0  0  0  0  0
    3.7850    0.3770   -2.0330 C   0  0  0  0  0  0  0  0  0  0  0  0
    4.3860    1.0640   -2.8940 O   0  0  0  0  0  0  0  0  0  0  0  0
    3.2210   -0.9200   -2.1840 N   0  0  0  0  0  0  0  0  0  0  0  0
    2.9010   -1.4600   -0.9030 C   0  0  0  0  0  0  0  0  0  0  0  0
    2.1800   -2.4690   -0.7080 O   0  0  0  0  0  0  0  0  0  0  0  0
    3.5940   -0.5770    0.0700 C   0  0  2  0  0  0  0  0  0  0  0  0
    2.9940   -0.6080    1.4300 C   0  0  2  0  0  0  0  0  0  0  0  0
    4.1020   -0.3010    2.4330 C   0  0  0  0  0  0  0  0  0  0  0  0
    2.5100   -1.9020    1.7270 O   0  0  0  0  0  0  0  0  0  0  0  0
    1.8380    0.3070    1.5940 C   0  0  0  0  0  0  0  0  0  0  0  0
    1.3390    0.4220    2.7420 O   0  0  0  0  0  0  0  0  0  0  0  0
  1  2  1  0
  2  3  2  3
  3  4  1  0
  3  9  1  0
  4  5  2  0
  4  6  1  0
  6  7  1  0
  7  8  1  0
  7  9  2  0
  9 10  1  0
 10 11  1  6
 10 12  1  0
 12 13  1  0
 13 14  1  0
 13 26  1  0
 14 15  2  0
 16 14  1  6
 16 17  1  0
 16 22  1  0
 17 18  2  0
 17 19  1  0
 19 20  1  0
 20 21  2  0
 22 20  1  6
 22 23  1  0
 23 24  1  1
 23 25  1  0
 23 26  1  0
 26 27  2  0
M  END
