
     RDKit          3D

 27 28  0  0  0  0  0  0  0  0999 V2000
    4.1330    0.2430   -1.8890 C   0  0  0  0  0  0  0  0  0  0  0  0
    4.2450    0.9700   -0.6470 O   0  0  0  0  0  0  0  0  0  0  0  0
    4.2430    0.2440    0.5090 C   0  0  0  0  0  0  0  0  0  0  0  0
    5.5510   -0.3740    0.8650 C   0  0  0  0  0  0  0  0  0  0  0  0
    5.6280   -1.0790    1.9070 O   0  0  0  0  0  0  0  0  0  0  0  0
    6.7010   -0.2060    0.0970 N   0  0  0  0  0  0  0  0  0  0  0  0
    7.9610   -0.8150    0.4360 C   0  0  0  0  0  0  0  0  0  0  0  0
    9.0850   -0.5930   -0.4010 N   0  0  0  0  0  0  0  0  0  0  0  0
    8.0090   -1.5220    1.4660 O   0  0  0  0  0  0  0  0  0  0  0  0
    3.2160    0.0640    1.2880 C   0  0  0  0  0  0  0  0  0  0  0  0
    3.3880   -0.7320    2.4590 O   0  0  0  0  0  0  0  0  0  0  0  0
    1.9000    0.5900    1.1080 C   0  0  0  0  0  0  0  0  0  0  0  0
    0.9980    0.2900    1.9830 O   0  0  0  0  0  0  0  0  0  0  0  0
    1.4680    1.4220    0.0580 N   0  0  0  0  0  0  0  0  0  0  0  0
    0.1170    1.8850   -0.0640 C   0  0  0  0  0  0  0  0  0  0  0  0
   -0.9290    0.8830   -0.3220 C   0  0  2  0  0  0  0  0  0  0  0  0
   -1.5210    0.0940    0.7880 C   0  0  0  0  0  0  0  0  0  0  0  0
   -2.8940   -0.2340    0.2980 N   0  0  0  0  0  0  0  0  0  0  0  0
   -3.8070   -0.6110    1.3320 C   0  0  0  0  0  0  0  0  0  0  0  0
   -5.1350   -0.9150    0.7130 C   0  0  1  0  0  0  0  0  0  0  0  0
   -6.0890   -1.5770    1.6830 C   0  0  0  0  0  0  0  0  0  0  0  0
   -5.8070    0.2630    0.1060 C   0  0  0  0  0  0  0  0  0  0  0  0
   -5.5040    0.5230   -1.3260 C   0  0  0  0  0  0  0  0  0  0  0  0
   -4.1550    0.1930   -1.7750 C   0  0  0  0  0  0  0  0  0  0  0  0
   -3.0700   -0.1210   -1.0970 C   0  0  0  0  0  0  0  0  0  0  0  0
   -1.8830   -0.3870   -1.9720 C   0  0  0  0  0  0  0  0  0  0  0  0
   -0.7090    0.1220   -1.4740 O   0  0  0  0  0  0  0  0  0  0  0  0
  1  2  1  0
  2  3  1  0
  3  4  1  0
  3 10  2  3
  4  5  2  0
  4  6  1  0
  6  7  1  0
  7  8  1  0
  7  9  2  0
 10 11  1  0
 10 12  1  0
 12 13  2  0
 12 14  1  0
 14 15  1  0
 16 15  1  1
 16 17  1  0
 16 27  1  0
 17 18  1  0
 18 19  1  0
 18 25  1  0
 19 20  1  0
 20 21  1  1
 20 22  1  0
 22 23  1  0
 23 24  1  0
 24 25  2  0
 25 26  1  0
 26 27  1  0
M  END
