
     RDKit          3D

 27 28  0  0  0  0  0  0  0  0999 V2000
   -4.9780   -0.6510   -0.7250 C   0  0  0  0  0  0  0  0  0  0  0  0
   -3.8790   -0.1590    0.1720 C   0  0  0  0  0  0  0  0  0  0  0  0
   -2.6090   -0.9090    0.0030 C   0  0  0  0  0  0  0  0  0  0  0  0
   -1.5160   -0.3260   -0.4550 C   0  0  0  0  0  0  0  0  0  0  0  0
   -1.5780    1.0950   -0.7990 C   0  0  0  0  0  0  0  0  0  0  0  0
   -2.6050    1.4720   -1.4260 O   0  0  0  0  0  0  0  0  0  0  0  0
   -0.5420    2.0250   -0.4510 N   0  0  0  0  0  0  0  0  0  0  0  0
    0.1200    2.0000    0.8300 C   0  0  2  0  0  0  0  0  0  0  0  0
   -0.8860    2.4300    1.8480 C   0  0  0  0  0  0  0  0  0  0  0  0
   -0.4650    2.4840    3.1980 N   0  0  0  0  0  0  0  0  0  0  0  0
   -2.0480    2.7340    1.5500 O   0  0  0  0  0  0  0  0  0  0  0  0
    1.2640    2.9430    0.9230 C   0  0  0  0  0  0  0  0  0  0  0  0
    2.1520    3.0310   -0.2280 C   0  0  0  0  0  0  0  0  0  0  0  0
    3.0970    2.2050   -0.6420 C   0  0  0  0  0  0  0  0  0  0  0  0
    3.5430    0.9570   -0.0870 C   0  0  0  0  0  0  0  0  0  0  0  0
    3.1370   -0.2990   -0.3240 C   0  0  0  0  0  0  0  0  0  0  0  0
    3.8200   -1.3940    0.4380 C   0  0  0  0  0  0  0  0  0  0  0  0
    4.7390   -1.1000    1.2720 O   0  0  0  0  0  0  0  0  0  0  0  0
    3.5300   -2.7580    0.3060 N   0  0  0  0  0  0  0  0  0  0  0  0
    4.1510   -3.7360    0.9920 O   0  0  0  0  0  0  0  0  0  0  0  0
    2.1560   -0.7030   -1.2540 N   0  0  0  0  0  0  0  0  0  0  0  0
    0.7790   -0.5010   -1.3870 C   0  0  0  0  0  0  0  0  0  0  0  0
    0.3760    0.3090   -2.2690 O   0  0  0  0  0  0  0  0  0  0  0  0
   -0.3120   -1.1490   -0.5950 C   0  0  2  0  0  0  0  0  0  0  0  0
   -0.7630   -2.4290   -1.3260 C   0  0  0  0  0  0  0  0  0  0  0  0
   -1.7950   -3.1370   -0.5040 C   0  0  0  0  0  0  0  0  0  0  0  0
   -2.5350   -2.2790    0.3340 O   0  0  0  0  0  0  0  0  0  0  0  0
  1  2  1  0
  2  3  1  0
  3  4  2  0
  3 27  1  0
  4  5  1  0
  4 24  1  0
  5  6  2  0
  5  7  1  0
  7  8  1  0
  8  9  1  1
  8 12  1  0
  9 10  1  0
  9 11  2  0
 12 13  1  0
 13 14  2  0
 14 15  1  0
 15 16  2  0
 16 17  1  0
 16 21  1  0
 17 18  2  0
 17 19  1  0
 19 20  1  0
 21 22  1  0
 22 23  2  0
 22 24  1  0
 24 25  1  6
 25 26  1  0
 26 27  1  0
M  END
