
     RDKit          3D

 27 29  0  0  0  0  0  0  0  0999 V2000
    2.2930    0.9570    2.3830 O   0  0  0  0  0  0  0  0  0  0  0  0
    1.5120    0.4230    1.5440 C   0  0  0  0  0  0  0  0  0  0  0  0
    0.0940    0.4820    1.8550 C   0  0  0  0  0  0  0  0  0  0  0  0
   -0.8200   -0.1160    0.9340 N   0  0  0  0  0  0  0  0  0  0  0  0
   -2.2350   -0.1090    1.1330 C   0  0  0  0  0  0  0  0  0  0  0  0
   -2.6520    0.4620    2.1810 O   0  0  0  0  0  0  0  0  0  0  0  0
   -3.1320   -0.7050    0.2100 N   0  0  0  0  0  0  0  0  0  0  0  0
   -4.5240   -0.6580    0.4580 N   0  0  0  0  0  0  0  0  0  0  0  0
   -5.2650    0.5330    0.3340 C   0  0  0  0  0  0  0  0  0  0  0  0
   -4.6060    1.5710   -0.0160 O   0  0  0  0  0  0  0  0  0  0  0  0
   -6.7040    0.7030    0.5630 C   0  0  1  0  0  0  0  0  0  0  0  0
   -7.4130    1.3100   -0.6310 C   0  0  0  0  0  0  0  0  0  0  0  0
   -8.7420    0.5800   -0.5730 C   0  0  0  0  0  0  0  0  0  0  0  0
   -8.2860   -0.7720   -0.0700 C   0  0  0  0  0  0  0  0  0  0  0  0
   -7.3870   -0.4220    0.9330 O   0  0  0  0  0  0  0  0  0  0  0  0
    2.0510   -0.1690    0.4090 N   0  0  0  0  0  0  0  0  0  0  0  0
    3.4170   -0.2600    0.0390 C   0  0  0  0  0  0  0  0  0  0  0  0
    4.4780    0.2450    0.7430 C   0  0  0  0  0  0  0  0  0  0  0  0
    5.8030    0.1150    0.3010 C   0  0  0  0  0  0  0  0  0  0  0  0
    6.1100   -0.5280   -0.8660 C   0  0  0  0  0  0  0  0  0  0  0  0
    5.0520   -1.0410   -1.5860 C   0  0  0  0  0  0  0  0  0  0  0  0
    3.7560   -0.9120   -1.1500 C   0  0  0  0  0  0  0  0  0  0  0  0
    2.7060   -1.4500   -1.9130 O   0  0  0  0  0  0  0  0  0  0  0  0
    7.5750   -0.4910   -1.0590 C   0  0  0  0  0  0  0  0  0  0  0  0
    8.1070   -0.2440    0.3250 C   0  0  0  0  0  0  0  0  0  0  0  0
    7.0530    0.6070    0.9600 C   0  0  2  0  0  0  0  0  0  0  0  0
    6.9050    0.3860    2.3200 O   0  0  0  0  0  0  0  0  0  0  0  0
  1  2  2  0
  2  3  1  0
  2 16  1  0
  3  4  1  0
  4  5  1  0
  5  6  2  0
  5  7  1  0
  7  8  1  0
  8  9  1  0
  9 10  2  0
 11  9  1  6
 11 12  1  0
 11 15  1  0
 12 13  1  0
 13 14  1  0
 14 15  1  0
 16 17  1  0
 17 18  2  0
 17 22  1  0
 18 19  1  0
 19 20  2  0
 19 26  1  0
 20 21  1  0
 20 24  1  0
 21 22  2  0
 22 23  1  0
 24 25  1  0
 25 26  1  0
 26 27  1  1
M  END
