
     RDKit          3D

 27 28  0  0  0  0  0  0  0  0999 V2000
    6.6820    1.8670   -0.0170 C   0  0  0  0  0  0  0  0  0  0  0  0
    5.2890    1.9630   -0.2340 O   0  0  0  0  0  0  0  0  0  0  0  0
    4.4130    0.9280   -0.1780 C   0  0  0  0  0  0  0  0  0  0  0  0
    4.9220   -0.2150    0.0970 O   0  0  0  0  0  0  0  0  0  0  0  0
    2.9400    1.0460   -0.4110 C   0  0  0  0  0  0  0  0  0  0  0  0
    2.2110   -0.2100   -0.2970 C   0  0  0  0  0  0  0  0  0  0  0  0
    2.9000   -1.2520    0.0050 O   0  0  0  0  0  0  0  0  0  0  0  0
    0.8500   -0.4470   -0.4720 N   0  0  0  0  0  0  0  0  0  0  0  0
    0.0310   -1.5770   -0.3700 C   0  0  0  0  0  0  0  0  0  0  0  0
   -1.4190   -1.3280   -0.6860 C   0  0  0  0  0  0  0  0  0  0  0  0
   -1.9170   -0.1860   -1.0310 C   0  0  0  0  0  0  0  0  0  0  0  0
   -3.3930   -0.1490   -1.3060 C   0  0  0  0  0  0  0  0  0  0  0  0
   -4.0970    0.6970   -0.5060 O   0  0  0  0  0  0  0  0  0  0  0  0
   -4.0670    0.4250    0.8490 C   0  0  1  0  0  0  0  0  0  0  0  0
   -3.6470    1.6830    1.5740 C   0  0  0  0  0  0  0  0  0  0  0  0
   -4.8840    2.1060    2.3490 C   0  0  0  0  0  0  0  0  0  0  0  0
   -5.9290    1.5360    1.6360 O   0  0  0  0  0  0  0  0  0  0  0  0
   -5.4660    0.2390    1.4130 C   0  0  0  0  0  0  0  0  0  0  0  0
    0.2940   -2.7980   -0.0430 C   0  0  0  0  0  0  0  0  0  0  0  0
    1.4950   -3.4420    0.3420 N   0  0  0  0  0  0  0  0  0  0  0  0
    1.4150   -4.7890   -0.2700 C   0  0  0  0  0  0  0  0  0  0  0  0
    0.0240   -5.1000    0.2600 C   0  0  0  0  0  0  0  0  0  0  0  0
   -0.3950   -6.1160    0.8380 O   0  0  0  0  0  0  0  0  0  0  0  0
   -0.6830   -3.8870   -0.0940 N   0  0  0  0  0  0  0  0  0  0  0  0
    2.4590    2.1880   -0.6900 C   0  0  0  0  0  0  0  0  0  0  0  0
    3.3700    3.3900   -0.7820 C   0  0  0  0  0  0  0  0  0  0  0  0
    1.1050    2.4670   -0.9260 N   0  0  0  0  0  0  0  0  0  0  0  0
  1  2  1  0
  2  3  1  0
  3  4  2  0
  3  5  1  0
  5  6  1  0
  5 25  2  3
  6  7  2  0
  6  8  1  0
  8  9  1  0
  9 10  1  0
  9 19  2  3
 10 11  2  3
 11 12  1  0
 12 13  1  0
 14 13  1  6
 14 15  1  0
 14 18  1  0
 15 16  1  0
 16 17  1  0
 17 18  1  0
 19 20  1  0
 19 24  1  0
 20 21  1  0
 21 22  1  0
 22 23  2  0
 22 24  1  0
 25 26  1  0
 25 27  1  0
M  END
