
     RDKit          3D

 27 29  0  0  0  0  0  0  0  0999 V2000
    3.1820    2.0780    0.7350 C   0  0  0  0  0  0  0  0  0  0  0  0
    3.7270    0.9250    0.8110 C   0  0  0  0  0  0  0  0  0  0  0  0
    5.0060    0.7820    1.5180 C   0  0  0  0  0  0  0  0  0  0  0  0
    5.6470    1.7090    2.1140 N   0  0  0  0  0  0  0  0  0  0  0  0
    5.6210   -0.5020    1.4910 N   0  0  0  0  0  0  0  0  0  0  0  0
    5.0510   -1.6020    0.8320 C   0  0  0  0  0  0  0  0  0  0  0  0
    5.5670   -2.7470    0.8030 O   0  0  0  0  0  0  0  0  0  0  0  0
    3.7600   -1.4550    0.1240 C   0  0  0  0  0  0  0  0  0  0  0  0
    3.0480   -2.3110   -0.5490 O   0  0  0  0  0  0  0  0  0  0  0  0
    1.9830   -1.7850   -1.0140 C   0  0  0  0  0  0  0  0  0  0  0  0
    0.9670   -2.5330   -1.8350 C   0  0  0  0  0  0  0  0  0  0  0  0
    1.9520   -0.4280   -0.6280 C   0  0  0  0  0  0  0  0  0  0  0  0
    0.9980    0.5340   -1.1070 C   0  0  0  0  0  0  0  0  0  0  0  0
   -0.0280    1.1130   -0.2620 N   0  0  0  0  0  0  0  0  0  0  0  0
   -1.2810    0.4150   -0.2820 C   0  0  0  0  0  0  0  0  0  0  0  0
   -1.2970   -0.6160   -1.0290 O   0  0  0  0  0  0  0  0  0  0  0  0
   -2.5440    0.6890    0.3880 C   0  0  2  0  0  0  0  0  0  0  0  0
   -2.7620   -0.2150    1.5510 C   0  0  0  0  0  0  0  0  0  0  0  0
   -4.0900   -0.8490    1.6240 C   0  0  0  0  0  0  0  0  0  0  0  0
   -4.2420   -1.9010    2.3290 O   0  0  0  0  0  0  0  0  0  0  0  0
   -5.2510   -0.3730    0.9560 N   0  0  0  0  0  0  0  0  0  0  0  0
   -4.9840    0.4470   -0.1740 C   0  0  0  0  0  0  0  0  0  0  0  0
   -5.8840    1.2110   -0.6710 O   0  0  0  0  0  0  0  0  0  0  0  0
   -3.6160    0.3380   -0.7020 C   0  0  1  0  0  0  0  0  0  0  0  0
   -3.3880    1.0920   -1.9590 C   0  0  0  0  0  0  0  0  0  0  0  0
   -4.3510    0.7670   -2.9300 O   0  0  0  0  0  0  0  0  0  0  0  0
    3.1270   -0.2290    0.1190 C   0  0  0  0  0  0  0  0  0  0  0  0
  1  2  2  0
  2  3  1  0
  2 27  1  0
  3  4  2  0
  3  5  1  0
  5  6  1  0
  6  7  2  0
  6  8  1  0
  8  9  1  0
  8 27  2  0
  9 10  1  0
 10 11  1  0
 10 12  2  0
 12 13  1  0
 12 27  1  0
 13 14  1  0
 14 15  1  0
 15 16  2  0
 17 15  1  6
 17 18  1  0
 17 24  1  0
 18 19  1  0
 19 20  2  0
 19 21  1  0
 21 22  1  0
 22 23  2  0
 22 24  1  0
 24 25  1  6
 25 26  1  0
M  END
