
     RDKit          3D

 27 29  0  0  0  0  0  0  0  0999 V2000
   -4.3020   -0.5450   -0.0410 C   0  0  0  0  0  0  0  0  0  0  0  0
   -3.6180   -0.3470   -1.3980 C   0  0  2  0  0  0  0  0  0  0  0  0
   -4.3450   -1.1580   -2.4510 C   0  0  0  0  0  0  0  0  0  0  0  0
   -2.1940   -0.8260   -1.2240 C   0  0  0  0  0  0  0  0  0  0  0  0
   -1.3490    0.1590   -0.5220 C   0  0  0  0  0  0  0  0  0  0  0  0
   -1.6720    1.4370   -0.4710 C   0  0  0  0  0  0  0  0  0  0  0  0
   -0.9410    2.5020    0.1780 N   0  0  0  0  0  0  0  0  0  0  0  0
    0.3410    2.5000    0.8080 C   0  0  0  0  0  0  0  0  0  0  0  0
    0.6500    3.5070    1.4840 O   0  0  0  0  0  0  0  0  0  0  0  0
    1.3360    1.4800    0.7680 N   0  0  0  0  0  0  0  0  0  0  0  0
    2.7280    1.8380    0.9340 C   0  0  0  0  0  0  0  0  0  0  0  0
    3.4520    2.1360   -0.3350 C   0  0  1  0  0  0  0  0  0  0  0  0
    3.4560    1.0720   -1.2260 O   0  0  0  0  0  0  0  0  0  0  0  0
    3.0410    3.4230   -1.0050 C   0  0  0  0  0  0  0  0  0  0  0  0
    3.0510    4.4990   -0.1360 O   0  0  0  0  0  0  0  0  0  0  0  0
    1.0190    0.0870    0.5610 C   0  0  0  0  0  0  0  0  0  0  0  0
    1.9760   -0.6990    0.8850 N   0  0  0  0  0  0  0  0  0  0  0  0
    1.8510   -2.1090    0.7510 C   0  0  0  0  0  0  0  0  0  0  0  0
    2.2340   -2.8870   -0.2430 C   0  0  0  0  0  0  0  0  0  0  0  0
    1.8950   -4.2820    0.0620 C   0  0  0  0  0  0  0  0  0  0  0  0
    1.2550   -4.2060    1.3850 C   0  0  0  0  0  0  0  0  0  0  0  0
    1.2320   -2.9420    1.7810 C   0  0  0  0  0  0  0  0  0  0  0  0
    0.6940   -2.4930    3.0000 O   0  0  0  0  0  0  0  0  0  0  0  0
   -0.1890   -0.4880    0.0550 N   0  0  0  0  0  0  0  0  0  0  0  0
   -2.8850    1.9060   -1.1130 C   0  0  0  0  0  0  0  0  0  0  0  0
   -3.1610    3.1350   -1.0420 O   0  0  0  0  0  0  0  0  0  0  0  0
   -3.6900    0.9960   -1.7740 O   0  0  0  0  0  0  0  0  0  0  0  0
  2  1  1  1
  2  3  1  0
  2  4  1  0
  2 27  1  0
  4  5  1  0
  5  6  2  0
  5 24  1  0
  6  7  1  0
  6 25  1  0
  7  8  1  0
  8  9  2  0
  8 10  1  0
 10 11  1  0
 10 16  1  0
 11 12  1  0
 12 13  1  6
 12 14  1  0
 14 15  1  0
 16 17  2  3
 16 24  1  0
 17 18  1  0
 18 19  2  0
 18 22  1  0
 19 20  1  0
 20 21  1  0
 21 22  2  0
 22 23  1  0
 25 26  2  0
 25 27  1  0
M  END
