
     RDKit          3D

 27 28  0  0  0  0  0  0  0  0999 V2000
   -2.4390    3.3900    2.6860 C   0  0  0  0  0  0  0  0  0  0  0  0
   -3.1120    2.3990    2.1090 C   0  0  0  0  0  0  0  0  0  0  0  0
   -4.3460    2.6500    1.5400 O   0  0  0  0  0  0  0  0  0  0  0  0
   -2.5540    1.0730    2.0820 C   0  0  0  0  0  0  0  0  0  0  0  0
   -3.2030    0.0800    1.5140 C   0  0  0  0  0  0  0  0  0  0  0  0
   -4.4270    0.3200    0.9420 O   0  0  0  0  0  0  0  0  0  0  0  0
   -2.6320   -1.2480    1.4890 C   0  0  0  0  0  0  0  0  0  0  0  0
   -3.1750   -2.3250    0.9820 C   0  0  0  0  0  0  0  0  0  0  0  0
   -4.4980   -2.3110    0.3460 C   0  0  1  0  0  0  0  0  0  0  0  0
   -4.4700   -1.6470   -0.9340 N   0  0  0  0  0  0  0  0  0  0  0  0
   -5.4330   -2.4390   -1.7170 C   0  0  0  0  0  0  0  0  0  0  0  0
   -5.0030   -3.8340   -1.2390 C   0  0  0  0  0  0  0  0  0  0  0  0
   -4.9210   -3.6250    0.1130 O   0  0  0  0  0  0  0  0  0  0  0  0
   -1.3090   -1.3860    2.0950 N   0  0  0  0  0  0  0  0  0  0  0  0
   -0.2280   -0.7180    1.4420 C   0  0  0  0  0  0  0  0  0  0  0  0
   -0.4180   -0.0460    0.3720 O   0  0  0  0  0  0  0  0  0  0  0  0
    1.0990   -0.7620    1.9370 N   0  0  0  0  0  0  0  0  0  0  0  0
    2.2450   -0.1270    1.3380 C   0  0  0  0  0  0  0  0  0  0  0  0
    2.4730   -0.6710   -0.0240 C   0  0  0  0  0  0  0  0  0  0  0  0
    3.5920   -0.1130   -0.7170 N   0  0  0  0  0  0  0  0  0  0  0  0
    4.8560   -0.4370   -0.1790 C   0  0  0  0  0  0  0  0  0  0  0  0
    6.0240    0.2570   -0.7560 C   0  0  0  0  0  0  0  0  0  0  0  0
    5.7170    1.2890   -1.6290 O   0  0  0  0  0  0  0  0  0  0  0  0
    4.5990    2.0090   -1.2140 C   0  0  1  0  0  0  0  0  0  0  0  0
    4.4750    3.2110   -2.1250 C   0  0  0  0  0  0  0  0  0  0  0  0
    4.3190    2.8140   -3.4410 O   0  0  0  0  0  0  0  0  0  0  0  0
    3.4080    1.1240   -1.3590 C   0  0  0  0  0  0  0  0  0  0  0  0
  1  2  2  0
  2  3  1  0
  2  4  1  0
  4  5  2  3
  5  6  1  0
  5  7  1  0
  7  8  2  3
  7 14  1  0
  9  8  1  6
  9 10  1  0
  9 13  1  0
 10 11  1  0
 11 12  1  0
 12 13  1  0
 14 15  1  0
 15 16  2  0
 15 17  1  0
 17 18  1  0
 18 19  1  0
 19 20  1  0
 20 21  1  0
 20 27  1  0
 21 22  1  0
 22 23  1  0
 23 24  1  0
 24 25  1  6
 24 27  1  0
 25 26  1  0
M  END
