
     RDKit          3D

 14 15  0  0  0  0  0  0  0  0999 V2000
   -2.1340   -2.6940    0.2840 C   0  0  0  0  0  0  0  0  0  0  0  0
   -1.0600   -1.7300   -0.0880 C   0  0  0  0  0  0  0  0  0  0  0  0
    0.2070   -1.9730   -0.5080 N   0  0  0  0  0  0  0  0  0  0  0  0
    0.8490   -0.8550   -0.7380 N   0  0  0  0  0  0  0  0  0  0  0  0
    2.2110   -0.6640   -1.1930 C   0  0  0  0  0  0  0  0  0  0  0  0
    3.1960   -0.5780   -0.0460 C   0  0  0  0  0  0  0  0  0  0  0  0
    2.9310    0.4670    0.8160 O   0  0  0  0  0  0  0  0  0  0  0  0
    0.0200    0.1640   -0.4750 C   0  0  0  0  0  0  0  0  0  0  0  0
   -1.1830   -0.3590   -0.0660 C   0  0  0  0  0  0  0  0  0  0  0  0
   -2.2660    0.5170    0.2840 C   0  0  0  0  0  0  0  0  0  0  0  0
   -3.4710    0.1430    0.3530 O   0  0  0  0  0  0  0  0  0  0  0  0
   -2.0020    1.9530    0.5920 C   0  0  0  0  0  0  0  0  0  0  0  0
   -0.5140    2.2190    0.6830 C   0  0  0  0  0  0  0  0  0  0  0  0
    0.1590    1.6610   -0.5460 C   0  0  0  0  0  0  0  0  0  0  0  0
  1  2  1  0
  2  3  2  0
  2  9  1  0
  3  4  1  0
  4  5  1  0
  4  8  1  0
  5  6  1  0
  6  7  1  0
  8  9  2  0
  8 14  1  0
  9 10  1  0
 10 11  2  0
 10 12  1  0
 12 13  1  0
 13 14  1  0
M  END
