
     RDKit          3D

 22 23  0  0  0  0  0  0  0  0999 V2000
    0.8440   -1.4220    2.2100 O   0  0  0  0  0  0  0  0  0  0  0  0
    0.4520   -0.7450    1.2180 C   0  0  0  0  0  0  0  0  0  0  0  0
   -0.9950   -0.5130    1.0330 C   0  0  0  0  0  0  0  0  0  0  0  0
   -1.4860    0.1690    0.0430 C   0  0  0  0  0  0  0  0  0  0  0  0
   -2.9490    0.3360   -0.0410 C   0  0  0  0  0  0  0  0  0  0  0  0
   -3.8800   -0.1670    0.8410 C   0  0  0  0  0  0  0  0  0  0  0  0
   -5.0960    0.2500    0.3450 C   0  0  0  0  0  0  0  0  0  0  0  0
   -6.3200    0.0170    0.8460 F   0  0  0  0  0  0  0  0  0  0  0  0
   -4.8550    0.9820   -0.8080 C   0  0  0  0  0  0  0  0  0  0  0  0
   -5.8990    1.6150   -1.6560 C   0  0  2  0  0  0  0  0  0  0  0  0
   -6.6220    2.5590   -0.9200 F   0  0  0  0  0  0  0  0  0  0  0  0
   -6.7790    0.6230   -2.0360 F   0  0  0  0  0  0  0  0  0  0  0  0
   -3.5740    0.9910   -0.9720 O   0  0  0  0  0  0  0  0  0  0  0  0
    1.4160   -0.2430    0.3340 N   0  0  0  0  0  0  0  0  0  0  0  0
    2.8270   -0.3860    0.3860 C   0  0  0  0  0  0  0  0  0  0  0  0
    3.4410   -1.0790    1.3780 C   0  0  0  0  0  0  0  0  0  0  0  0
    4.8340   -1.2170    1.4250 C   0  0  0  0  0  0  0  0  0  0  0  0
    5.5720   -0.6190    0.4210 C   0  0  0  0  0  0  0  0  0  0  0  0
    6.9560   -0.7470    0.4540 O   0  0  0  0  0  0  0  0  0  0  0  0
    4.9610    0.0870   -0.5900 C   0  0  0  0  0  0  0  0  0  0  0  0
    3.6180    0.1960   -0.6000 C   0  0  0  0  0  0  0  0  0  0  0  0
    2.8270    1.0940   -1.8850 Cl  0  0  0  0  0  0  0  0  0  0  0  0
  1  2  2  0
  2  3  1  0
  2 14  1  0
  3  4  2  3
  4  5  1  0
  5  6  2  0
  5 13  1  0
  6  7  1  0
  7  8  1  0
  7  9  2  0
  9 10  1  0
  9 13  1  0
 10 11  1  1
 10 12  1  0
 14 15  1  0
 15 16  2  0
 15 21  1  0
 16 17  1  0
 17 18  2  0
 18 19  1  0
 18 20  1  0
 20 21  2  0
 21 22  1  0
M  END
