
     RDKit          3D

 23 24  0  0  0  0  0  0  0  0999 V2000
   -5.0660   -0.4350    1.0320 C   0  0  0  0  0  0  0  0  0  0  0  0
   -3.6350   -0.3220    0.6580 C   0  0  0  0  0  0  0  0  0  0  0  0
   -2.6490   -0.1550    1.6170 C   0  0  0  0  0  0  0  0  0  0  0  0
   -1.3060   -0.0470    1.2290 C   0  0  0  0  0  0  0  0  0  0  0  0
   -0.3480    0.1220    2.2370 O   0  0  0  0  0  0  0  0  0  0  0  0
   -0.9140   -0.1000   -0.0780 C   0  0  0  0  0  0  0  0  0  0  0  0
    0.4700    0.0050   -0.5650 C   0  0  0  0  0  0  0  0  0  0  0  0
    0.6120   -0.0700   -1.8200 O   0  0  0  0  0  0  0  0  0  0  0  0
    1.6130    0.1770    0.2210 N   0  0  0  0  0  0  0  0  0  0  0  0
    2.9530    0.2810   -0.2110 C   0  0  0  0  0  0  0  0  0  0  0  0
    3.3530    0.2310   -1.4930 C   0  0  0  0  0  0  0  0  0  0  0  0
    4.7160    0.3440   -1.8400 C   0  0  0  0  0  0  0  0  0  0  0  0
    5.6750    0.5090   -0.8790 C   0  0  0  0  0  0  0  0  0  0  0  0
    5.2710    0.5610    0.4350 C   0  0  0  0  0  0  0  0  0  0  0  0
    3.9440    0.4500    0.7580 C   0  0  0  0  0  0  0  0  0  0  0  0
    3.5680    0.5060    2.0830 O   0  0  0  0  0  0  0  0  0  0  0  0
    4.4810    0.6660    3.0390 F   0  0  0  0  0  0  0  0  0  0  0  0
   -1.9460   -0.2700   -1.0080 C   0  0  0  0  0  0  0  0  0  0  0  0
   -3.2610   -0.3790   -0.6640 C   0  0  0  0  0  0  0  0  0  0  0  0
   -4.2800   -0.5630   -1.7170 C   0  0  2  0  0  0  0  0  0  0  0  0
   -5.1770    0.4920   -1.6380 F   0  0  0  0  0  0  0  0  0  0  0  0
   -4.9780   -1.7280   -1.6450 F   0  0  0  0  0  0  0  0  0  0  0  0
   -3.4900   -0.4280   -3.3320 Cl  0  0  0  0  0  0  0  0  0  0  0  0
  1  2  1  0
  2  3  2  0
  2 19  1  0
  3  4  1  0
  4  5  1  0
  4  6  2  0
  6  7  1  0
  6 18  1  0
  7  8  2  0
  7  9  1  0
  9 10  1  0
 10 11  2  0
 10 15  1  0
 11 12  1  0
 12 13  2  0
 13 14  1  0
 14 15  2  0
 15 16  1  0
 16 17  1  0
 18 19  2  0
 19 20  1  0
 20 21  1  6
 20 22  1  0
 20 23  1  0
M  END
