
     RDKit          3D

 20 22  0  0  0  0  0  0  0  0999 V2000
    0.9250   -0.4790   -1.6610 O   0  0  0  0  0  0  0  0  0  0  0  0
    0.6470    0.0420   -0.5100 C   0  0  0  0  0  0  0  0  0  0  0  0
    1.6540    0.2460    0.4400 N   0  0  0  0  0  0  0  0  0  0  0  0
    3.0100   -0.1230    0.2210 C   0  0  0  0  0  0  0  0  0  0  0  0
    3.3880   -1.0580   -0.6860 C   0  0  0  0  0  0  0  0  0  0  0  0
    4.7360   -1.3930   -0.8950 C   0  0  0  0  0  0  0  0  0  0  0  0
    5.6920   -0.7400   -0.1450 C   0  0  0  0  0  0  0  0  0  0  0  0
    5.3470    0.2100    0.7790 C   0  0  0  0  0  0  0  0  0  0  0  0
    6.5450    1.0650    1.7820 S   0  0  0  0  0  0  0  0  0  0  0  0
    3.9890    0.5110    0.9520 C   0  0  0  0  0  0  0  0  0  0  0  0
   -0.7750    0.3470   -0.3610 C   0  0  0  0  0  0  0  0  0  0  0  0
   -1.7060   -0.6800   -0.5390 C   0  0  0  0  0  0  0  0  0  0  0  0
   -3.0470   -0.4160   -0.3650 C   0  0  0  0  0  0  0  0  0  0  0  0
   -3.5130    0.8350   -0.0180 C   0  0  0  0  0  0  0  0  0  0  0  0
   -2.6180    1.7990    0.1510 N   0  0  0  0  0  0  0  0  0  0  0  0
   -1.2940    1.5800   -0.0100 C   0  0  0  0  0  0  0  0  0  0  0  0
   -0.4400    2.5030    0.1530 O   0  0  0  0  0  0  0  0  0  0  0  0
   -5.0010    0.7420    0.0490 C   0  0  0  0  0  0  0  0  0  0  0  0
   -5.2000   -0.7150    0.4380 C   0  0  0  0  0  0  0  0  0  0  0  0
   -4.1900   -1.3930   -0.4830 C   0  0  0  0  0  0  0  0  0  0  0  0
  1  2  2  0
  2  3  1  0
  2 11  1  0
  3  4  1  0
  4  5  2  0
  4 10  1  0
  5  6  1  0
  6  7  2  0
  7  8  1  0
  8  9  1  0
  8 10  2  0
 11 12  2  0
 11 16  1  0
 12 13  1  0
 13 14  2  0
 13 20  1  0
 14 15  1  0
 14 18  1  0
 15 16  1  0
 16 17  2  0
 18 19  1  0
 19 20  1  0
M  END
