
     RDKit          3D

 22 23  0  0  0  0  0  0  0  0999 V2000
   -3.9110    1.5580   -0.1590 C   0  0  0  0  0  0  0  0  0  0  0  0
   -2.6650    0.8300   -0.6420 C   0  0  0  0  0  0  0  0  0  0  0  0
   -1.9050    0.3870    0.5610 C   0  0  0  0  0  0  0  0  0  0  0  0
   -0.6600   -0.3250    0.3040 C   0  0  0  0  0  0  0  0  0  0  0  0
    0.5190    0.3850   -0.0700 C   0  0  0  0  0  0  0  0  0  0  0  0
    0.4490    1.8180   -0.1300 C   0  0  0  0  0  0  0  0  0  0  0  0
    1.3310    2.6990   -0.4440 C   0  0  0  0  0  0  0  0  0  0  0  0
    0.8940    4.1820   -0.3960 C   0  0  1  0  0  0  0  0  0  0  0  0
    2.0040    4.9570   -0.1430 F   0  0  0  0  0  0  0  0  0  0  0  0
    0.4340    4.5020   -1.6570 F   0  0  0  0  0  0  0  0  0  0  0  0
   -0.0570    4.2540    0.5790 F   0  0  0  0  0  0  0  0  0  0  0  0
    1.6630   -0.3110   -0.3270 C   0  0  0  0  0  0  0  0  0  0  0  0
    2.9450    0.3110   -0.7440 C   0  0  0  0  0  0  0  0  0  0  0  0
    3.9360   -0.8050   -0.9000 N   0  0  0  0  0  0  0  0  0  0  0  0
    1.6190   -1.7160   -0.2050 C   0  0  0  0  0  0  0  0  0  0  0  0
    0.4800   -2.3960    0.1560 C   0  0  0  0  0  0  0  0  0  0  0  0
   -0.6740   -1.6840    0.4130 C   0  0  0  0  0  0  0  0  0  0  0  0
   -1.8610   -2.2950    0.7830 O   0  0  0  0  0  0  0  0  0  0  0  0
   -2.1560   -2.5170    2.1610 C   0  0  0  0  0  0  0  0  0  0  0  0
    0.7550   -3.7530    0.1890 O   0  0  0  0  0  0  0  0  0  0  0  0
    1.9240   -3.9020   -0.6270 C   0  0  0  0  0  0  0  0  0  0  0  0
    2.5980   -2.6810   -0.3960 O   0  0  0  0  0  0  0  0  0  0  0  0
  1  2  1  0
  2  3  1  0
  3  4  1  0
  4  5  2  0
  4 17  1  0
  5  6  1  0
  5 12  1  0
  6  7  2  3
  7  8  1  0
  8  9  1  1
  8 10  1  0
  8 11  1  0
 12 13  1  0
 12 15  2  0
 13 14  1  0
 15 16  1  0
 15 22  1  0
 16 17  2  0
 16 20  1  0
 17 18  1  0
 18 19  1  0
 20 21  1  0
 21 22  1  0
M  END
