
     RDKit          3D

 23 24  0  0  0  0  0  0  0  0999 V2000
   -5.3110   -0.7740   -2.5510 C   0  0  0  0  0  0  0  0  0  0  0  0
   -4.1790   -0.4100   -1.6480 C   0  0  0  0  0  0  0  0  0  0  0  0
   -2.8770   -0.7100   -1.9430 C   0  0  0  0  0  0  0  0  0  0  0  0
   -1.8550   -0.3400   -1.0520 C   0  0  0  0  0  0  0  0  0  0  0  0
   -0.5690   -0.5190   -1.1250 O   0  0  0  0  0  0  0  0  0  0  0  0
    0.0610   -0.0120   -0.0580 C   0  0  0  0  0  0  0  0  0  0  0  0
    1.5000   -0.0820    0.1010 C   0  0  0  0  0  0  0  0  0  0  0  0
    2.2160    0.3520    1.0950 C   0  0  0  0  0  0  0  0  0  0  0  0
    3.6900    0.1730    1.0490 C   0  0  0  0  0  0  0  0  0  0  0  0
    4.3580    0.5950    2.0100 O   0  0  0  0  0  0  0  0  0  0  0  0
    4.2790   -0.4360   -0.0170 O   0  0  0  0  0  0  0  0  0  0  0  0
    5.6740   -0.6470   -0.1420 C   0  0  0  0  0  0  0  0  0  0  0  0
    5.8810   -1.3530   -1.4750 C   0  0  2  0  0  0  0  0  0  0  0  0
    7.2460   -1.5650   -1.6100 F   0  0  0  0  0  0  0  0  0  0  0  0
    5.4380   -0.5100   -2.4860 F   0  0  0  0  0  0  0  0  0  0  0  0
    5.2680   -2.5760   -1.4960 F   0  0  0  0  0  0  0  0  0  0  0  0
   -0.8800    0.5430    0.7830 C   0  0  0  0  0  0  0  0  0  0  0  0
   -0.6620    1.2280    2.0760 C   0  0  0  0  0  0  0  0  0  0  0  0
   -1.9680    1.6410    2.6100 N   0  0  0  0  0  0  0  0  0  0  0  0
   -2.1020    0.3230    0.1300 C   0  0  0  0  0  0  0  0  0  0  0  0
   -3.4110    0.6180    0.4140 C   0  0  0  0  0  0  0  0  0  0  0  0
   -4.4340    0.2500   -0.4740 C   0  0  0  0  0  0  0  0  0  0  0  0
   -6.0790    0.6450   -0.0710 Cl  0  0  0  0  0  0  0  0  0  0  0  0
  1  2  1  0
  2  3  2  0
  2 22  1  0
  3  4  1  0
  4  5  1  0
  4 20  2  0
  5  6  1  0
  6  7  1  0
  6 17  2  0
  7  8  2  3
  8  9  1  0
  9 10  2  0
  9 11  1  0
 11 12  1  0
 12 13  1  0
 13 14  1  6
 13 15  1  0
 13 16  1  0
 17 18  1  0
 17 20  1  0
 18 19  1  0
 20 21  1  0
 21 22  2  0
 22 23  1  0
M  END
