
     RDKit          3D

 18 19  0  0  0  0  0  0  0  0999 V2000
   -2.6290    2.5290   -0.3650 N   0  0  0  0  0  0  0  0  0  0  0  0
   -2.0090    1.5880   -0.2150 C   0  0  0  0  0  0  0  0  0  0  0  0
   -1.1860    0.3700   -0.0380 C   0  0  1  0  0  0  0  0  0  0  0  0
    0.2100    0.6550   -0.1570 N   0  0  0  0  0  0  0  0  0  0  0  0
    1.2740   -0.2540   -0.0440 C   0  0  0  0  0  0  0  0  0  0  0  0
    0.9780   -1.4460    0.1860 O   0  0  0  0  0  0  0  0  0  0  0  0
    2.6820    0.1870   -0.1910 C   0  0  0  0  0  0  0  0  0  0  0  0
    3.6590   -0.6910   -0.0800 C   0  0  0  0  0  0  0  0  0  0  0  0
    5.1290    0.2300   -0.3170 S   0  0  2  0  0  0  0  0  0  0  0  0
    5.8810   -0.2260   -1.5310 O   0  0  0  0  0  0  0  0  0  0  0  0
    5.9910    0.2420    0.9170 O   0  0  0  0  0  0  0  0  0  0  0  0
    4.3470    1.7740   -0.5570 C   0  0  0  0  0  0  0  0  0  0  0  0
    3.0580    1.5280   -0.4510 C   0  0  0  0  0  0  0  0  0  0  0  0
   -1.4220   -0.2040    1.3430 C   0  0  0  0  0  0  0  0  0  0  0  0
   -2.9170   -0.3190    1.5310 C   0  0  0  0  0  0  0  0  0  0  0  0
   -3.5320   -1.2760    0.5380 C   0  0  0  0  0  0  0  0  0  0  0  0
   -3.1090   -0.9940   -0.8730 C   0  0  0  0  0  0  0  0  0  0  0  0
   -1.6840   -0.6310   -1.0360 C   0  0  0  0  0  0  0  0  0  0  0  0
  1  2  3  0
  3  2  1  1
  3  4  1  0
  3 14  1  0
  3 18  1  0
  4  5  1  0
  5  6  2  0
  5  7  1  0
  7  8  2  0
  7 13  1  0
  9  8  1  1
  9 10  2  0
  9 11  2  0
  9 12  1  0
 12 13  2  0
 14 15  1  0
 15 16  1  0
 16 17  1  0
 17 18  1  0
M  END
