
     RDKit          3D

 18 19  0  0  0  0  0  0  0  0999 V2000
   -2.7210    1.8320   -1.3000 C   0  0  0  0  0  0  0  0  0  0  0  0
   -2.7400    0.7580   -0.5570 C   0  0  0  0  0  0  0  0  0  0  0  0
   -4.0060    0.2330    0.0600 C   0  0  0  0  0  0  0  0  0  0  0  0
   -4.1310   -1.2210   -0.3370 C   0  0  0  0  0  0  0  0  0  0  0  0
   -2.9360   -2.0000    0.0580 C   0  0  0  0  0  0  0  0  0  0  0  0
   -1.6480   -1.2690   -0.0180 C   0  0  0  0  0  0  0  0  0  0  0  0
   -1.4960    0.0010   -0.2960 C   0  0  0  0  0  0  0  0  0  0  0  0
   -0.2920    0.7280   -0.3730 N   0  0  0  0  0  0  0  0  0  0  0  0
    1.0200    0.2360   -0.1740 C   0  0  0  0  0  0  0  0  0  0  0  0
    1.1900   -0.9670    0.1020 O   0  0  0  0  0  0  0  0  0  0  0  0
    2.2190    1.1200   -0.2860 C   0  0  0  0  0  0  0  0  0  0  0  0
    3.4380    0.3620   -0.0350 N   0  0  0  0  0  0  0  0  0  0  0  0
    4.0130    0.2050    1.2340 C   0  0  0  0  0  0  0  0  0  0  0  0
    3.3760    0.1920    2.3540 O   0  0  0  0  0  0  0  0  0  0  0  0
    5.4900    0.0440    1.2280 C   0  0  0  0  0  0  0  0  0  0  0  0
    5.7140   -0.7300   -0.4110 S   0  0  0  0  0  0  0  0  0  0  0  0
    4.1250   -0.2910   -1.0840 C   0  0  0  0  0  0  0  0  0  0  0  0
    3.7410   -0.5280   -2.2390 O   0  0  0  0  0  0  0  0  0  0  0  0
  1  2  2  0
  2  3  1  0
  2  7  1  0
  3  4  1  0
  4  5  1  0
  5  6  1  0
  6  7  2  0
  7  8  1  0
  8  9  1  0
  9 10  2  0
  9 11  1  0
 11 12  1  0
 12 13  1  0
 12 17  1  0
 13 14  2  0
 13 15  1  0
 15 16  1  0
 16 17  1  0
 17 18  2  0
M  END
