
     RDKit          3D

 18 19  0  0  0  0  0  0  0  0999 V2000
   -2.3010   -3.0410   -0.4810 C   0  0  0  0  0  0  0  0  0  0  0  0
   -2.3440   -1.6330   -0.5410 O   0  0  0  0  0  0  0  0  0  0  0  0
   -1.2920   -0.8620    0.0320 C   0  0  0  0  0  0  0  0  0  0  0  0
   -0.4140   -1.5390    0.5430 O   0  0  0  0  0  0  0  0  0  0  0  0
   -1.3920    0.5890   -0.0620 C   0  0  0  0  0  0  0  0  0  0  0  0
   -2.4780    1.0880   -0.6850 C   0  0  0  0  0  0  0  0  0  0  0  0
   -2.7320    2.4760   -0.8640 C   0  0  0  0  0  0  0  0  0  0  0  0
   -1.8890    3.3730   -0.4120 C   0  0  0  0  0  0  0  0  0  0  0  0
   -0.6830    2.9720    0.2760 C   0  0  0  0  0  0  0  0  0  0  0  0
    0.1380    3.8430    0.7160 O   0  0  0  0  0  0  0  0  0  0  0  0
   -0.4150    1.5170    0.4640 C   0  0  0  0  0  0  0  0  0  0  0  0
    0.6720    1.1760    1.0850 C   0  0  0  0  0  0  0  0  0  0  0  0
    1.3130   -0.0020    1.4760 N   0  0  0  0  0  0  0  0  0  0  0  0
    2.4250   -0.4840    0.7360 C   0  0  0  0  0  0  0  0  0  0  0  0
    3.1070   -0.2030   -0.2410 N   0  0  0  0  0  0  0  0  0  0  0  0
    4.1190   -0.8630   -0.7140 C   0  0  0  0  0  0  0  0  0  0  0  0
    4.4880   -1.9990   -0.0760 C   0  0  0  0  0  0  0  0  0  0  0  0
    3.2740   -2.0740    1.2770 S   0  0  0  0  0  0  0  0  0  0  0  0
  1  2  1  0
  2  3  1  0
  3  4  2  0
  3  5  1  0
  5  6  2  0
  5 11  1  0
  6  7  1  0
  7  8  2  0
  8  9  1  0
  9 10  2  0
  9 11  1  0
 11 12  2  3
 12 13  1  0
 13 14  1  0
 14 15  2  0
 14 18  1  0
 15 16  1  0
 16 17  2  0
 17 18  1  0
M  END
