
     RDKit          3D

 18 19  0  0  0  0  0  0  0  0999 V2000
    0.4560   -0.0170    1.0050 O   0  0  0  0  0  0  0  0  0  0  0  0
    0.2320   -0.5600   -0.1000 C   0  0  0  0  0  0  0  0  0  0  0  0
   -1.1430   -0.8850   -0.5180 C   0  0  0  0  0  0  0  0  0  0  0  0
   -2.1190   -0.4960    0.4540 N   0  0  0  0  0  0  0  0  0  0  0  0
   -3.4020   -1.0250   -0.0300 C   0  0  0  0  0  0  0  0  0  0  0  0
   -4.1900    0.0080   -0.8030 C   0  0  0  0  0  0  0  0  0  0  0  0
   -4.5850    1.1480    0.1230 C   0  0  0  0  0  0  0  0  0  0  0  0
   -3.4750    1.3510    1.1640 C   0  0  0  0  0  0  0  0  0  0  0  0
   -2.1860    0.9680    0.4660 C   0  0  0  0  0  0  0  0  0  0  0  0
    1.3800   -0.8310   -0.9000 N   0  0  0  0  0  0  0  0  0  0  0  0
    2.7210   -0.5050   -0.4750 C   0  0  0  0  0  0  0  0  0  0  0  0
    3.6210   -1.4330   -0.3440 C   0  0  0  0  0  0  0  0  0  0  0  0
    5.0180   -1.3270    0.0680 C   0  0  0  0  0  0  0  0  0  0  0  0
    5.5230    0.3270    0.4320 S   0  0  2  0  0  0  0  0  0  0  0  0
    6.5780    0.7290   -0.5640 O   0  0  0  0  0  0  0  0  0  0  0  0
    6.0290    0.4600    1.8440 O   0  0  0  0  0  0  0  0  0  0  0  0
    4.1410    1.3630    0.1790 C   0  0  0  0  0  0  0  0  0  0  0  0
    2.9710    0.9080   -0.2140 C   0  0  0  0  0  0  0  0  0  0  0  0
  1  2  2  0
  2  3  1  0
  2 10  1  0
  3  4  1  0
  4  5  1  0
  4  9  1  0
  5  6  1  0
  6  7  1  0
  7  8  1  0
  8  9  1  0
 10 11  1  0
 11 12  2  0
 11 18  1  0
 12 13  1  0
 14 13  1  6
 14 15  2  0
 14 16  2  0
 14 17  1  0
 17 18  2  0
M  END
