
     RDKit          3D

 21 21  0  0  0  0  0  0  0  0999 V2000
   -3.6490    1.6160    0.4230 C   0  0  0  0  0  0  0  0  0  0  0  0
   -2.9180    0.3690   -0.1160 C   0  0  1  0  0  0  0  0  0  0  0  0
   -4.0250   -0.4180   -0.7890 C   0  0  0  0  0  0  0  0  0  0  0  0
   -3.6220   -1.5910   -1.3580 O   0  0  0  0  0  0  0  0  0  0  0  0
   -1.9510    0.8920   -1.0950 C   0  0  0  0  0  0  0  0  0  0  0  0
   -1.9740    0.3840   -2.2540 O   0  0  0  0  0  0  0  0  0  0  0  0
   -1.0300    1.8870   -0.8430 O   0  0  0  0  0  0  0  0  0  0  0  0
   -2.3570   -0.3180    1.0790 C   0  0  1  0  0  0  0  0  0  0  0  0
   -3.5100   -0.6230    1.8780 O   0  0  0  0  0  0  0  0  0  0  0  0
   -1.7000   -1.6240    0.8400 C   0  0  2  0  0  0  0  0  0  0  0  0
   -1.4450   -2.1160    2.1700 O   0  0  0  0  0  0  0  0  0  0  0  0
   -0.3450   -1.6190    0.2250 C   0  0  0  0  0  0  0  0  0  0  0  0
    0.7080   -0.9250    1.0260 C   0  0  2  0  0  0  0  0  0  0  0  0
    0.5150    0.3950    1.3010 O   0  0  0  0  0  0  0  0  0  0  0  0
    2.0980   -1.1780    0.4350 C   0  0  2  0  0  0  0  0  0  0  0  0
    3.0170   -0.7610    1.3660 O   0  0  0  0  0  0  0  0  0  0  0  0
    3.6710    0.3650    0.8270 C   0  0  0  0  0  0  0  0  0  0  0  0
    3.5670    0.0700   -0.6540 C   0  0  2  0  0  0  0  0  0  0  0  0
    3.6900    1.3220   -1.4870 C   0  0  0  0  0  0  0  0  0  0  0  0
    5.0270    1.8440   -1.3450 N   0  0  0  0  0  0  0  0  0  0  0  0
    2.3010   -0.4950   -0.7380 O   0  0  0  0  0  0  0  0  0  0  0  0
  2  1  1  1
  2  3  1  0
  2  5  1  0
  2  8  1  0
  3  4  1  0
  5  6  2  0
  5  7  1  0
  8  9  1  1
  8 10  1  0
 10 11  1  1
 10 12  1  0
 12 13  1  0
 13 14  1  6
 13 15  1  0
 15 16  1  1
 15 21  1  0
 16 17  1  0
 17 18  1  0
 18 19  1  6
 18 21  1  0
 19 20  1  0
M  CHG  1  20   1
M  END
