
     RDKit          3D

 27 30  0  0  0  0  0  0  0  0999 V2000
    5.3120   -1.7170   -1.1360 C   0  0  0  0  0  0  0  0  0  0  0  0
    5.4860   -0.7980   -0.2250 C   0  0  0  0  0  0  0  0  0  0  0  0
    6.5750   -0.8090    0.7770 C   0  0  0  0  0  0  0  0  0  0  0  0
    6.3460    0.4120    1.5620 C   0  0  0  0  0  0  0  0  0  0  0  0
    5.2890    1.0230    1.0810 C   0  0  0  0  0  0  0  0  0  0  0  0
    4.7030    0.3460   -0.0160 N   0  0  0  0  0  0  0  0  0  0  0  0
    3.5520    0.7990   -0.7150 C   0  0  0  0  0  0  0  0  0  0  0  0
    2.2840    0.4530   -0.3680 C   0  0  0  0  0  0  0  0  0  0  0  0
    1.1460    0.9000   -1.0570 C   0  0  0  0  0  0  0  0  0  0  0  0
   -0.1410    0.4560   -0.5990 N   0  0  0  0  0  0  0  0  0  0  0  0
   -1.3920    0.8980   -1.0250 C   0  0  0  0  0  0  0  0  0  0  0  0
   -1.4150    1.7980   -1.9200 O   0  0  0  0  0  0  0  0  0  0  0  0
   -2.6970    0.4330   -0.5520 C   0  0  0  0  0  0  0  0  0  0  0  0
   -2.7800   -0.4970    0.3720 C   0  0  0  0  0  0  0  0  0  0  0  0
   -3.9970   -1.1020    0.9830 C   0  0  0  0  0  0  0  0  0  0  0  0
   -5.2350   -1.0010    0.5620 C   0  0  0  0  0  0  0  0  0  0  0  0
   -5.8040   -0.2740   -0.6220 C   0  0  0  0  0  0  0  0  0  0  0  0
   -5.2040    1.1170   -0.7210 C   0  0  0  0  0  0  0  0  0  0  0  0
   -3.8340    1.0710   -1.1750 N   0  0  0  0  0  0  0  0  0  0  0  0
   -6.3000   -1.6400    1.2560 N   0  0  0  0  0  0  0  0  0  0  0  0
   -5.9440   -2.3650    2.3910 N   0  0  0  0  0  0  0  0  0  0  0  0
   -4.7750   -2.4650    2.7950 N   0  0  0  0  0  0  0  0  0  0  0  0
   -3.6530   -1.8670    2.1730 C   0  0  1  0  0  0  0  0  0  0  0  0
   -2.3560   -3.0570    1.8460 Cl  0  0  0  0  0  0  0  0  0  0  0  0
    1.3740    1.7190   -2.1210 C   0  0  0  0  0  0  0  0  0  0  0  0
    2.6720    2.0790   -2.4840 C   0  0  0  0  0  0  0  0  0  0  0  0
    3.7070    1.6120   -1.7760 N   0  0  0  0  0  0  0  0  0  0  0  0
  1  2  2  0
  2  3  1  0
  2  6  1  0
  3  4  1  0
  4  5  2  0
  5  6  1  0
  6  7  1  0
  7  8  2  0
  7 27  1  0
  8  9  1  0
  9 10  1  0
  9 25  2  0
 10 11  1  0
 11 12  2  0
 11 13  1  0
 13 14  2  0
 13 19  1  0
 14 15  1  0
 15 16  2  0
 15 23  1  0
 16 17  1  0
 16 20  1  0
 17 18  1  0
 18 19  1  0
 20 21  1  0
 21 22  2  0
 22 23  1  0
 23 24  1  6
 25 26  1  0
 26 27  2  0
M  CHG  1  27   1
M  END
