
     RDKit          3D

 21 23  0  0  0  0  0  0  0  0999 V2000
   -3.4730    0.7230   -1.9670 C   0  0  0  0  0  0  0  0  0  0  0  0
   -3.0490   -0.2170   -0.8760 C   0  0  0  0  0  0  0  0  0  0  0  0
   -2.6430    0.4690    0.3980 C   0  0  1  0  0  0  0  0  0  0  0  0
   -2.2480   -0.5780    1.4100 C   0  0  0  0  0  0  0  0  0  0  0  0
   -3.4560   -1.4950    1.6520 C   0  0  0  0  0  0  0  0  0  0  0  0
   -1.6620    1.5740    0.2320 C   0  0  0  0  0  0  0  0  0  0  0  0
   -0.3730    1.2170   -0.3700 C   0  0  0  0  0  0  0  0  0  0  0  0
   -0.0160    1.3890   -1.6910 C   0  0  0  0  0  0  0  0  0  0  0  0
    1.2630    0.9140   -1.8950 C   0  0  0  0  0  0  0  0  0  0  0  0
    1.6690    0.4620   -0.7010 N   0  0  0  0  0  0  0  0  0  0  0  0
    0.7080    0.6310    0.2330 C   0  0  0  0  0  0  0  0  0  0  0  0
    0.9920    0.2240    1.4840 N   0  0  0  0  0  0  0  0  0  0  0  0
    2.1670   -0.3320    1.8290 C   0  0  0  0  0  0  0  0  0  0  0  0
    2.4130   -0.7090    3.0140 O   0  0  0  0  0  0  0  0  0  0  0  0
    3.1620   -0.5110    0.8720 C   0  0  0  0  0  0  0  0  0  0  0  0
    4.3820   -1.0760    1.1710 C   0  0  0  0  0  0  0  0  0  0  0  0
    4.7350   -1.5990    2.7950 Cl  0  0  0  0  0  0  0  0  0  0  0  0
    5.3610   -1.2490    0.2160 C   0  0  0  0  0  0  0  0  0  0  0  0
    5.0760   -0.8350   -1.0600 C   0  0  0  0  0  0  0  0  0  0  0  0
    3.8550   -0.2700   -1.3580 C   0  0  0  0  0  0  0  0  0  0  0  0
    2.8660   -0.0920   -0.4060 C   0  0  0  0  0  0  0  0  0  0  0  0
  1  2  1  0
  3  2  1  6
  3  4  1  0
  3  6  1  0
  4  5  1  0
  6  7  1  0
  7  8  1  0
  7 11  2  0
  8  9  2  0
  9 10  1  0
 10 11  1  0
 10 21  1  0
 11 12  1  0
 12 13  1  0
 13 14  2  0
 13 15  1  0
 15 16  2  0
 15 21  1  0
 16 17  1  0
 16 18  1  0
 18 19  2  0
 19 20  1  0
 20 21  2  0
M  END
