
     RDKit          3D

 27 30  0  0  0  0  0  0  0  0999 V2000
   -5.1950    1.0640    0.8660 C   0  0  0  0  0  0  0  0  0  0  0  0
   -4.5030   -0.2320    1.2190 C   0  0  0  0  0  0  0  0  0  0  0  0
   -4.7890   -0.8690    2.3390 C   0  0  0  0  0  0  0  0  0  0  0  0
   -4.0720   -2.1360    2.6220 C   0  0  0  0  0  0  0  0  0  0  0  0
   -4.0970   -2.9460    1.3440 C   0  0  0  0  0  0  0  0  0  0  0  0
   -3.4360   -2.2070    0.2080 C   0  0  0  0  0  0  0  0  0  0  0  0
   -3.5300   -0.7880    0.3490 N   0  0  0  0  0  0  0  0  0  0  0  0
   -2.6700    0.1180   -0.3680 C   0  0  0  0  0  0  0  0  0  0  0  0
   -3.1530    1.2310   -0.8370 N   0  0  0  0  0  0  0  0  0  0  0  0
   -2.2770    2.0700   -1.5210 N   0  0  0  0  0  0  0  0  0  0  0  0
   -2.1500    3.4980   -1.2840 C   0  0  0  0  0  0  0  0  0  0  0  0
   -1.4380    1.4810   -2.5420 C   0  0  0  0  0  0  0  0  0  0  0  0
   -0.9100    0.1470   -2.0730 C   0  0  0  0  0  0  0  0  0  0  0  0
   -1.2460   -0.1340   -0.6110 C   0  0  1  0  0  0  0  0  0  0  0  0
   -0.4600    0.6910    0.2680 N   0  0  0  0  0  0  0  0  0  0  0  0
    0.9580    0.6570    0.2780 C   0  0  0  0  0  0  0  0  0  0  0  0
    1.7750   -0.1160   -0.4930 N   0  0  0  0  0  0  0  0  0  0  0  0
    3.0590    0.1420   -0.1840 C   0  0  0  0  0  0  0  0  0  0  0  0
    4.2760   -0.4840   -0.7900 C   0  0  2  0  0  0  0  0  0  0  0  0
    4.7910   -1.6150    0.0480 C   0  0  0  0  0  0  0  0  0  0  0  0
    5.4970   -1.1760    1.2320 N   0  0  0  0  0  0  0  0  0  0  0  0
    6.3910   -0.0750    0.9610 C   0  0  0  0  0  0  0  0  0  0  0  0
    6.4330    0.3040   -0.4860 C   0  0  0  0  0  0  0  0  0  0  0  0
    5.2270    0.4760   -1.0810 O   0  0  0  0  0  0  0  0  0  0  0  0
    3.0750    1.0770    0.7800 N   0  0  0  0  0  0  0  0  0  0  0  0
    1.8180    1.3940    1.0650 C   0  0  0  0  0  0  0  0  0  0  0  0
    1.2910    2.5690    2.2600 Cl  0  0  0  0  0  0  0  0  0  0  0  0
  1  2  1  0
  2  3  2  0
  2  7  1  0
  3  4  1  0
  4  5  1  0
  5  6  1  0
  6  7  1  0
  7  8  1  0
  8  9  2  0
  8 14  1  0
  9 10  1  0
 10 11  1  0
 10 12  1  0
 12 13  1  0
 13 14  1  0
 14 15  1  1
 15 16  1  0
 16 17  1  0
 16 26  2  0
 17 18  2  0
 19 18  1  1
 18 25  1  0
 19 20  1  0
 19 24  1  0
 20 21  1  0
 21 22  1  0
 22 23  1  0
 23 24  1  0
 25 26  1  0
 26 27  1  0
M  CHG  1  21   1
M  END
