
     RDKit          3D

 20 20  0  0  0  0  0  0  0  0999 V2000
   -0.6670   -1.7090   -0.2680 C   0  0  0  0  0  0  0  0  0  0  0  0
   -0.8780   -0.3220    0.3550 C   0  0  1  0  0  0  0  0  0  0  0  0
   -2.2390    0.0020    0.7430 C   0  0  2  0  0  0  0  0  0  0  0  0
   -2.6800   -1.0430    1.8050 C   0  0  0  0  0  0  0  0  0  0  0  0
   -2.6210   -2.3110    1.2350 O   0  0  0  0  0  0  0  0  0  0  0  0
   -3.3750   -0.0180   -0.1850 C   0  0  2  0  0  0  0  0  0  0  0  0
   -3.6410   -1.2480   -0.7830 O   0  0  0  0  0  0  0  0  0  0  0  0
   -3.4860    1.0010   -1.2600 C   0  0  0  0  0  0  0  0  0  0  0  0
   -4.8150    0.9080   -1.7570 O   0  0  0  0  0  0  0  0  0  0  0  0
   -0.1510   -0.4280    1.5810 O   0  0  0  0  0  0  0  0  0  0  0  0
    0.5470    0.7250    1.7800 C   0  0  0  0  0  0  0  0  0  0  0  0
    1.2480    0.8200    0.4080 C   0  0  1  0  0  0  0  0  0  0  0  0
    2.0980   -0.2220    0.1860 O   0  0  0  0  0  0  0  0  0  0  0  0
    3.3560    0.0950   -0.2100 C   0  0  2  0  0  0  0  0  0  0  0  0
    3.5420   -0.3750   -1.6510 C   0  0  0  0  0  0  0  0  0  0  0  0
    4.8070   -0.0850   -2.1230 O   0  0  0  0  0  0  0  0  0  0  0  0
    4.4630   -0.3520    0.6770 C   0  0  0  0  0  0  0  0  0  0  0  0
    5.6730    0.0780    0.0830 O   0  0  0  0  0  0  0  0  0  0  0  0
   -0.0470    0.6220   -0.4160 C   0  0  2  0  0  0  0  0  0  0  0  0
   -0.5490    1.9170   -0.6920 N   0  0  0  0  0  0  0  0  0  0  0  0
  2  1  1  6
  2  3  1  0
  2 10  1  0
  2 19  1  0
  3  4  1  1
  3  6  1  0
  4  5  1  0
  6  7  1  6
  6  8  1  0
  8  9  1  0
 10 11  1  0
 11 12  1  0
 12 13  1  1
 12 19  1  0
 13 14  1  0
 14 15  1  6
 14 17  1  0
 15 16  1  0
 17 18  1  0
 19 20  1  1
M  CHG  1  20   1
M  END
