
     RDKit          3D

 20 21  0  0  0  0  0  0  0  0999 V2000
   -4.3680   -1.1390   -1.1550 N   0  0  0  0  0  0  0  0  0  0  0  0
   -3.4450   -1.0500   -0.0410 C   0  0  1  0  0  0  0  0  0  0  0  0
   -2.0360   -1.4370   -0.4250 C   0  0  0  0  0  0  0  0  0  0  0  0
   -1.1880   -0.8790    0.7020 C   0  0  1  0  0  0  0  0  0  0  0  0
   -0.0260   -0.3710    0.1400 O   0  0  0  0  0  0  0  0  0  0  0  0
    1.1280   -0.9240    0.7030 C   0  0  0  0  0  0  0  0  0  0  0  0
    2.3050   -0.2860    0.0020 C   0  0  0  0  0  0  0  0  0  0  0  0
    3.5260   -0.7560    0.4740 O   0  0  0  0  0  0  0  0  0  0  0  0
    4.5330   -0.1310   -0.2090 C   0  0  2  0  0  0  0  0  0  0  0  0
    5.3680   -1.0850   -0.8290 O   0  0  0  0  0  0  0  0  0  0  0  0
    6.5320   -0.3580   -1.1640 C   0  0  0  0  0  0  0  0  0  0  0  0
    6.4370    0.8730   -0.3190 C   0  0  2  0  0  0  0  0  0  0  0  0
    7.6230    1.2280    0.2950 O   0  0  0  0  0  0  0  0  0  0  0  0
    5.4510    0.5110    0.6180 O   0  0  0  0  0  0  0  0  0  0  0  0
   -1.9800    0.3110    1.2520 C   0  0  0  0  0  0  0  0  0  0  0  0
   -3.2700    0.3400    0.4800 C   0  0  2  0  0  0  0  0  0  0  0  0
   -4.4110    0.6480    1.4240 C   0  0  0  0  0  0  0  0  0  0  0  0
   -4.2930    1.9510    1.9440 O   0  0  0  0  0  0  0  0  0  0  0  0
   -3.2010    1.3810   -0.6260 C   0  0  0  0  0  0  0  0  0  0  0  0
   -4.3480    1.3900   -1.3920 O   0  0  0  0  0  0  0  0  0  0  0  0
  2  1  1  6
  2  3  1  0
  2 16  1  0
  3  4  1  0
  4  5  1  6
  4 15  1  0
  5  6  1  0
  6  7  1  0
  7  8  1  0
  9  8  1  1
  9 10  1  0
  9 14  1  0
 10 11  1  0
 11 12  1  0
 12 13  1  1
 12 14  1  0
 15 16  1  0
 16 17  1  1
 16 19  1  0
 17 18  1  0
 19 20  1  0
M  CHG  1   1   1
M  END
