
     RDKit          3D

 27 30  0  0  0  0  0  0  0  0999 V2000
    4.2580   -1.0030    2.5090 N   0  0  0  0  0  0  0  0  0  0  0  0
    3.8750   -0.1370    1.4400 C   0  0  0  0  0  0  0  0  0  0  0  0
    2.7710   -0.3100    0.7350 C   0  0  0  0  0  0  0  0  0  0  0  0
    2.6560    0.7260   -0.2770 C   0  0  0  0  0  0  0  0  0  0  0  0
    1.5400    0.8490   -1.2540 C   0  0  0  0  0  0  0  0  0  0  0  0
    1.5830    1.8160   -2.0800 O   0  0  0  0  0  0  0  0  0  0  0  0
    0.5210   -0.0840   -1.2210 N   0  0  0  0  0  0  0  0  0  0  0  0
   -0.7110    0.1670   -1.3310 C   0  0  0  0  0  0  0  0  0  0  0  0
   -1.1980    1.4610   -1.5020 N   0  0  0  0  0  0  0  0  0  0  0  0
   -0.8380    2.4850   -0.5900 C   0  0  0  0  0  0  0  0  0  0  0  0
   -0.0620    2.3380    0.4840 N   0  0  0  0  0  0  0  0  0  0  0  0
    0.2820    3.3120    1.3340 C   0  0  0  0  0  0  0  0  0  0  0  0
   -0.1830    4.5880    1.1190 C   0  0  0  0  0  0  0  0  0  0  0  0
    0.2200    5.9220    2.1830 Cl  0  0  0  0  0  0  0  0  0  0  0  0
   -0.9890    4.7710    0.0160 C   0  0  0  0  0  0  0  0  0  0  0  0
   -1.3010    3.7540   -0.8030 N   0  0  0  0  0  0  0  0  0  0  0  0
   -1.6150   -0.9840   -1.3000 N   0  0  0  0  0  0  0  0  0  0  0  0
   -2.0640   -1.4950   -2.5270 C   0  0  0  0  0  0  0  0  0  0  0  0
   -2.8790   -2.5240   -2.6610 C   0  0  0  0  0  0  0  0  0  0  0  0
   -3.3460   -3.1800   -1.4390 C   0  0  0  0  0  0  0  0  0  0  0  0
   -4.1470   -4.2070   -1.2660 N   0  0  0  0  0  0  0  0  0  0  0  0
   -4.2780   -4.4430    0.1290 C   0  0  0  0  0  0  0  0  0  0  0  0
   -3.4630   -3.4390    0.8090 C   0  0  0  0  0  0  0  0  0  0  0  0
   -2.9000   -2.6750   -0.1630 C   0  0  0  0  0  0  0  0  0  0  0  0
   -1.9860   -1.5190   -0.0330 C   0  0  0  0  0  0  0  0  0  0  0  0
    3.6950    1.5170   -0.1710 C   0  0  0  0  0  0  0  0  0  0  0  0
    4.5640    1.0490    0.9210 C   0  0  0  0  0  0  0  0  0  0  0  0
  1  2  1  0
  2  3  2  0
  2 27  1  0
  3  4  1  0
  4  5  1  0
  4 26  2  0
  5  6  2  0
  5  7  1  0
  7  8  2  3
  8  9  1  0
  8 17  1  0
  9 10  1  0
 10 11  2  0
 10 16  1  0
 11 12  1  0
 12 13  2  0
 13 14  1  0
 13 15  1  0
 15 16  2  0
 17 18  1  0
 17 25  1  0
 18 19  2  0
 19 20  1  0
 20 21  2  0
 20 24  1  0
 21 22  1  0
 22 23  1  0
 23 24  2  0
 24 25  1  0
 26 27  1  0
M  CHG  1   1   1
M  END
