
     RDKit          3D

 22 24  0  0  0  0  0  0  0  0999 V2000
    2.3320   -1.5810    1.4900 C   0  0  0  0  0  0  0  0  0  0  0  0
    2.5460   -0.6470    0.3080 C   0  0  2  0  0  0  0  0  0  0  0  0
    1.2340   -0.2300   -0.2610 C   0  0  0  0  0  0  0  0  0  0  0  0
    0.9890   -0.4660   -1.4610 O   0  0  0  0  0  0  0  0  0  0  0  0
    0.2850    0.4210    0.5450 N   0  0  0  0  0  0  0  0  0  0  0  0
   -1.0210    0.8590    0.0740 C   0  0  2  0  0  0  0  0  0  0  0  0
   -1.6770    1.5510    1.2600 C   0  0  0  0  0  0  0  0  0  0  0  0
   -3.2590    2.2100    0.5960 S   0  0  0  0  0  0  0  0  0  0  0  0
   -4.0760    0.6790   -0.0130 C   0  0  0  0  0  0  0  0  0  0  0  0
   -3.1760   -0.4800    0.0610 C   0  0  0  0  0  0  0  0  0  0  0  0
   -1.7610   -0.2930   -0.4360 C   0  0  2  0  0  0  0  0  0  0  0  0
   -1.0360   -1.4950   -0.2340 O   0  0  0  0  0  0  0  0  0  0  0  0
   -1.8910   -0.0660   -1.9050 C   0  0  0  0  0  0  0  0  0  0  0  0
   -1.0130    0.9930   -2.1840 O   0  0  0  0  0  0  0  0  0  0  0  0
   -0.8260    1.7650   -1.0520 C   0  0  0  0  0  0  0  0  0  0  0  0
   -0.5480    2.9850   -0.9640 O   0  0  0  0  0  0  0  0  0  0  0  0
    3.3150   -1.2710   -0.6810 O   0  0  0  0  0  0  0  0  0  0  0  0
    4.6590   -0.9790   -0.4410 C   0  0  0  0  0  0  0  0  0  0  0  0
    5.6070   -1.6260   -0.9590 O   0  0  0  0  0  0  0  0  0  0  0  0
    4.7240    0.1380    0.4590 N   0  0  0  0  0  0  0  0  0  0  0  0
    3.3740    0.4860    0.7350 C   0  0  0  0  0  0  0  0  0  0  0  0
    2.9770    1.5620    1.2470 O   0  0  0  0  0  0  0  0  0  0  0  0
  2  1  1  1
  2  3  1  0
  2 17  1  0
  2 21  1  0
  3  4  2  0
  3  5  1  0
  6  5  1  1
  6  7  1  0
  6 11  1  0
  6 15  1  0
  7  8  1  0
  8  9  1  0
  9 10  1  0
 10 11  1  0
 11 12  1  6
 11 13  1  0
 13 14  1  0
 14 15  1  0
 15 16  2  0
 17 18  1  0
 18 19  2  0
 18 20  1  0
 20 21  1  0
 21 22  2  0
M  END
