
     RDKit          3D

 15 16  0  0  0  0  0  0  0  0999 V2000
    2.8050    1.7820    1.3440 C   0  0  0  0  0  0  0  0  0  0  0  0
    1.9660    2.0430    0.1140 C   0  0  0  0  0  0  0  0  0  0  0  0
    1.8440    0.8430   -0.7520 C   0  0  0  0  0  0  0  0  0  0  0  0
    2.7740    0.6050   -1.7680 C   0  0  0  0  0  0  0  0  0  0  0  0
    2.6320   -0.5150   -2.5500 C   0  0  0  0  0  0  0  0  0  0  0  0
    1.6000   -1.3980   -2.3540 C   0  0  0  0  0  0  0  0  0  0  0  0
    0.6560   -1.1540   -1.3200 C   0  0  0  0  0  0  0  0  0  0  0  0
   -0.3700   -2.1450   -1.1100 C   0  0  0  0  0  0  0  0  0  0  0  0
   -1.3980   -2.1510   -0.3870 C   0  0  0  0  0  0  0  0  0  0  0  0
   -1.9670   -1.1760    0.5050 C   0  0  0  0  0  0  0  0  0  0  0  0
   -3.0870   -1.3960    1.2640 C   0  0  0  0  0  0  0  0  0  0  0  0
   -3.3820   -0.1890    2.0630 C   0  0  0  0  0  0  0  0  0  0  0  0
   -2.8640    0.8390    1.2310 N   0  0  0  0  0  0  0  0  0  0  0  0
   -1.6090    0.2390    0.7400 C   0  0  0  0  0  0  0  0  0  0  0  0
    0.8660   -0.0540   -0.6140 N   0  0  0  0  0  0  0  0  0  0  0  0
  1  2  1  0
  2  3  1  0
  3  4  2  0
  3 15  1  0
  4  5  1  0
  5  6  2  0
  6  7  1  0
  7  8  1  0
  7 15  2  0
  8  9  2  3
  9 10  1  0
 10 11  2  0
 10 14  1  0
 11 12  1  0
 12 13  1  0
 13 14  1  0
M  CHG  1  13   1
M  END
