
     RDKit          3D

 25 27  0  0  0  0  0  0  0  0999 V2000
    3.8350    2.5820   -1.0770 C   0  0  0  0  0  0  0  0  0  0  0  0
    3.9350    1.1450   -0.6320 C   0  0  0  0  0  0  0  0  0  0  0  0
    4.8350    0.2860   -1.2230 C   0  0  0  0  0  0  0  0  0  0  0  0
    4.9530   -1.0370   -0.8290 C   0  0  0  0  0  0  0  0  0  0  0  0
    4.1330   -1.4850    0.1890 C   0  0  0  0  0  0  0  0  0  0  0  0
    3.2310   -0.6490    0.7920 C   0  0  0  0  0  0  0  0  0  0  0  0
    2.3900   -1.1640    1.8790 C   0  0  0  0  0  0  0  0  0  0  0  0
    1.2270   -1.8340    1.3220 N   0  0  0  0  0  0  0  0  0  0  0  0
    1.1830   -3.1430    1.0110 N   0  0  0  0  0  0  0  0  0  0  0  0
   -0.0170   -3.4390    0.5390 N   0  0  0  0  0  0  0  0  0  0  0  0
   -0.7670   -2.3150    0.5400 C   0  0  0  0  0  0  0  0  0  0  0  0
   -2.1620   -2.2670    0.0960 C   0  0  0  0  0  0  0  0  0  0  0  0
   -2.9040   -3.2530   -0.3420 O   0  0  0  0  0  0  0  0  0  0  0  0
   -4.0990   -2.8610   -0.6490 N   0  0  0  0  0  0  0  0  0  0  0  0
   -4.2160   -1.5230   -0.4190 C   0  0  0  0  0  0  0  0  0  0  0  0
   -5.2460   -0.8290   -0.6120 O   0  0  0  0  0  0  0  0  0  0  0  0
   -2.9810   -1.1420    0.0560 C   0  0  0  0  0  0  0  0  0  0  0  0
   -2.5430    0.2070    0.4720 C   0  0  0  0  0  0  0  0  0  0  0  0
   -3.4740    1.3120    0.0790 C   0  0  2  0  0  0  0  0  0  0  0  0
   -3.6200    1.3750   -1.3480 N   0  0  0  0  0  0  0  0  0  0  0  0
   -2.9420    2.6030    0.5740 C   0  0  0  0  0  0  0  0  0  0  0  0
   -2.7280    2.7870    1.8000 O   0  0  0  0  0  0  0  0  0  0  0  0
   -2.6730    3.6230   -0.3170 O   0  0  0  0  0  0  0  0  0  0  0  0
    0.0320   -1.3610    1.0250 N   0  0  0  0  0  0  0  0  0  0  0  0
    3.1360    0.6540    0.3810 C   0  0  0  0  0  0  0  0  0  0  0  0
  1  2  1  0
  2  3  2  0
  2 25  1  0
  3  4  1  0
  4  5  2  0
  5  6  1  0
  6  7  1  0
  6 25  2  0
  7  8  1  0
  8  9  1  0
  8 24  1  0
  9 10  2  0
 10 11  1  0
 11 12  1  0
 11 24  2  0
 12 13  1  0
 12 17  2  0
 13 14  1  0
 14 15  1  0
 15 16  2  0
 15 17  1  0
 17 18  1  0
 18 19  1  0
 19 20  1  6
 19 21  1  0
 21 22  2  0
 21 23  1  0
M  CHG  1  20   1
M  END
