
     RDKit          3D

 19 21  0  0  0  0  0  0  0  0999 V2000
   -3.4980   -0.4720   -1.2760 N   0  0  0  0  0  0  0  0  0  0  0  0
   -3.6790    0.0910    0.0340 C   0  0  2  0  0  0  0  0  0  0  0  0
   -4.4020    1.2820    0.0230 O   0  0  0  0  0  0  0  0  0  0  0  0
   -2.3800    0.3690    0.7360 C   0  0  1  0  0  0  0  0  0  0  0  0
   -1.5230   -0.8130    0.8140 N   0  0  0  0  0  0  0  0  0  0  0  0
   -0.4660   -0.5810   -0.1230 C   0  0  2  0  0  0  0  0  0  0  0  0
    0.7360   -1.3680   -0.0420 C   0  0  0  0  0  0  0  0  0  0  0  0
    1.9690   -0.8400   -0.0540 C   0  0  0  0  0  0  0  0  0  0  0  0
    3.0210   -1.6360    0.0140 N   0  0  0  0  0  0  0  0  0  0  0  0
    4.2910   -1.1440    0.0430 C   0  0  0  0  0  0  0  0  0  0  0  0
    5.2740   -1.9480    0.1080 O   0  0  0  0  0  0  0  0  0  0  0  0
    4.5200    0.1780    0.0030 N   0  0  0  0  0  0  0  0  0  0  0  0
    3.4550    0.9960   -0.0640 C   0  0  0  0  0  0  0  0  0  0  0  0
    3.6510    2.2350   -0.1010 O   0  0  0  0  0  0  0  0  0  0  0  0
    2.1590    0.5300   -0.0930 C   0  0  0  0  0  0  0  0  0  0  0  0
    1.0960    1.3160   -0.1070 C   0  0  0  0  0  0  0  0  0  0  0  0
   -0.2250    0.8520   -0.0760 N   0  0  0  0  0  0  0  0  0  0  0  0
   -1.5540    1.3950    0.0370 C   0  0  0  0  0  0  0  0  0  0  0  0
   -1.8450    2.5180   -0.4020 O   0  0  0  0  0  0  0  0  0  0  0  0
  2  1  1  6
  2  3  1  0
  2  4  1  0
  4  5  1  6
  4 18  1  0
  6  5  1  1
  6  7  1  0
  6 17  1  0
  7  8  2  0
  8  9  1  0
  8 15  1  0
  9 10  1  0
 10 11  2  0
 10 12  1  0
 12 13  1  0
 13 14  2  0
 13 15  1  0
 15 16  2  0
 16 17  1  0
 17 18  1  0
 18 19  2  0
M  END
