
     RDKit          3D

 24 27  0  0  0  0  0  0  0  0999 V2000
    3.5190   -4.3130   -0.0830 C   0  0  0  0  0  0  0  0  0  0  0  0
    2.7960   -3.0030   -0.1180 C   0  0  0  0  0  0  0  0  0  0  0  0
    1.4570   -2.9450   -0.0210 N   0  0  0  0  0  0  0  0  0  0  0  0
    0.7830   -1.7560   -0.0500 C   0  0  0  0  0  0  0  0  0  0  0  0
   -0.6050   -1.7830    0.0660 N   0  0  0  0  0  0  0  0  0  0  0  0
   -1.5210   -0.7090    0.0570 C   0  0  0  0  0  0  0  0  0  0  0  0
   -1.1510    0.5650   -0.2770 C   0  0  0  0  0  0  0  0  0  0  0  0
   -2.0630    1.5970   -0.2630 C   0  0  0  0  0  0  0  0  0  0  0  0
   -3.3600    1.3370    0.0920 C   0  0  0  0  0  0  0  0  0  0  0  0
   -3.7610    0.0700    0.4330 C   0  0  0  0  0  0  0  0  0  0  0  0
   -2.8280   -0.9620    0.4130 C   0  0  0  0  0  0  0  0  0  0  0  0
   -5.2120    0.0810    0.7760 C   0  0  0  0  0  0  0  0  0  0  0  0
   -5.7020    1.3380    0.1100 C   0  0  0  0  0  0  0  0  0  0  0  0
   -4.5230    2.2920    0.1760 C   0  0  0  0  0  0  0  0  0  0  0  0
    1.4840   -0.6370   -0.1790 N   0  0  0  0  0  0  0  0  0  0  0  0
    2.8340   -0.5920   -0.2830 C   0  0  0  0  0  0  0  0  0  0  0  0
    3.5300    0.6820   -0.4190 C   0  0  0  0  0  0  0  0  0  0  0  0
    3.2060    1.8190    0.1750 C   0  0  0  0  0  0  0  0  0  0  0  0
    1.8670    2.0810    1.2700 Cl  0  0  0  0  0  0  0  0  0  0  0  0
    4.1590    2.8880   -0.2190 C   0  0  0  0  0  0  0  0  0  0  0  0
    5.0670    2.1520   -1.1320 C   0  0  0  0  0  0  0  0  0  0  0  0
    4.6720    0.9250   -1.2100 N   0  0  0  0  0  0  0  0  0  0  0  0
    3.4760   -1.8100   -0.2490 C   0  0  0  0  0  0  0  0  0  0  0  0
    5.2220   -1.8460   -0.3780 Cl  0  0  0  0  0  0  0  0  0  0  0  0
  1  2  1  0
  2  3  2  0
  2 23  1  0
  3  4  1  0
  4  5  1  0
  4 15  2  0
  5  6  1  0
  6  7  2  0
  6 11  1  0
  7  8  1  0
  8  9  2  0
  9 10  1  0
  9 14  1  0
 10 11  2  0
 10 12  1  0
 12 13  1  0
 13 14  1  0
 15 16  1  0
 16 17  1  0
 16 23  2  0
 17 18  2  0
 17 22  1  0
 18 19  1  0
 18 20  1  0
 20 21  1  0
 21 22  2  0
 23 24  1  0
M  END
