
     RDKit          3D

 24 27  0  0  0  0  0  0  0  0999 V2000
   -3.9870    2.5360    0.5550 C   0  0  0  0  0  0  0  0  0  0  0  0
   -4.7440    1.5280   -0.2250 C   0  0  0  0  0  0  0  0  0  0  0  0
   -4.6480    0.1080    0.1790 C   0  0  0  0  0  0  0  0  0  0  0  0
   -3.3190   -0.5010    0.1700 C   0  0  0  0  0  0  0  0  0  0  0  0
   -2.8650   -1.1910   -0.9630 C   0  0  0  0  0  0  0  0  0  0  0  0
   -1.5950   -1.7380   -1.0210 C   0  0  0  0  0  0  0  0  0  0  0  0
   -0.9210   -2.4320   -1.9650 N   0  0  0  0  0  0  0  0  0  0  0  0
    0.3100   -2.7410   -1.5310 C   0  0  0  0  0  0  0  0  0  0  0  0
    0.4070   -2.2300   -0.2920 N   0  0  0  0  0  0  0  0  0  0  0  0
    1.5800   -2.3340    0.5400 C   0  0  0  0  0  0  0  0  0  0  0  0
    2.5090   -1.2030    0.3480 C   0  0  0  0  0  0  0  0  0  0  0  0
    3.5170   -1.0560   -0.5800 C   0  0  0  0  0  0  0  0  0  0  0  0
    4.1430    0.1570   -0.4070 C   0  0  0  0  0  0  0  0  0  0  0  0
    5.1800    0.8620   -0.9930 C   0  0  0  0  0  0  0  0  0  0  0  0
    6.0040    0.1010   -2.3420 Cl  0  0  0  0  0  0  0  0  0  0  0  0
    5.5560    2.1080   -0.5450 C   0  0  0  0  0  0  0  0  0  0  0  0
    4.8700    2.6500    0.5160 C   0  0  0  0  0  0  0  0  0  0  0  0
    3.8600    1.9800    1.0960 N   0  0  0  0  0  0  0  0  0  0  0  0
    3.4950    0.7560    0.6520 C   0  0  0  0  0  0  0  0  0  0  0  0
    2.5190   -0.0810    1.0860 N   0  0  0  0  0  0  0  0  0  0  0  0
   -0.7320   -1.6120    0.0560 C   0  0  0  0  0  0  0  0  0  0  0  0
   -1.1950   -0.9310    1.1590 C   0  0  0  0  0  0  0  0  0  0  0  0
   -2.4700   -0.3760    1.2340 C   0  0  0  0  0  0  0  0  0  0  0  0
   -2.9370    0.4160    2.7350 Cl  0  0  0  0  0  0  0  0  0  0  0  0
  1  2  1  0
  2  3  1  0
  3  4  1  0
  4  5  2  0
  4 23  1  0
  5  6  1  0
  6  7  1  0
  6 21  2  0
  7  8  2  0
  8  9  1  0
  9 10  1  0
  9 21  1  0
 10 11  1  0
 11 12  2  0
 11 20  1  0
 12 13  1  0
 13 14  2  0
 13 19  1  0
 14 15  1  0
 14 16  1  0
 16 17  2  0
 17 18  1  0
 18 19  2  0
 19 20  1  0
 21 22  1  0
 22 23  2  0
 23 24  1  0
M  END
