
     RDKit          3D

 24 27  0  0  0  0  0  0  0  0999 V2000
   -7.9530    1.8110   -0.2580 Cl  0  0  0  0  0  0  0  0  0  0  0  0
   -6.5210    0.8840    0.2200 C   0  0  0  0  0  0  0  0  0  0  0  0
   -5.5180    0.7660   -0.9240 C   0  0  0  0  0  0  0  0  0  0  0  0
   -4.4010   -0.0140   -0.3940 N   0  0  0  0  0  0  0  0  0  0  0  0
   -4.2610   -1.3470   -0.4250 C   0  0  0  0  0  0  0  0  0  0  0  0
   -3.0940   -1.6840    0.1670 N   0  0  0  0  0  0  0  0  0  0  0  0
   -2.4640   -0.5630    0.5900 C   0  0  0  0  0  0  0  0  0  0  0  0
   -1.1800   -0.4870    1.2770 C   0  0  0  0  0  0  0  0  0  0  0  0
   -0.9820   -0.5230    2.6460 C   0  0  0  0  0  0  0  0  0  0  0  0
   -2.2820   -0.6700    3.8190 Cl  0  0  0  0  0  0  0  0  0  0  0  0
    0.3320   -0.4270    2.8530 N   0  0  0  0  0  0  0  0  0  0  0  0
    0.9820   -0.3310    1.6610 C   0  0  0  0  0  0  0  0  0  0  0  0
    2.2700   -0.2160    1.3070 N   0  0  0  0  0  0  0  0  0  0  0  0
    2.7000   -0.1330    0.0260 C   0  0  0  0  0  0  0  0  0  0  0  0
    4.1340   -0.0090   -0.2700 C   0  0  0  0  0  0  0  0  0  0  0  0
    4.6330    0.0790   -1.5460 C   0  0  0  0  0  0  0  0  0  0  0  0
    6.0050    0.1960   -1.7860 C   0  0  0  0  0  0  0  0  0  0  0  0
    6.8720    0.2250   -0.7180 C   0  0  0  0  0  0  0  0  0  0  0  0
    6.4140    0.1390    0.5820 C   0  0  0  0  0  0  0  0  0  0  0  0
    5.0550    0.0250    0.7780 C   0  0  0  0  0  0  0  0  0  0  0  0
    1.7610   -0.1700   -0.9770 C   0  0  0  0  0  0  0  0  0  0  0  0
    0.4000   -0.2890   -0.6640 C   0  0  0  0  0  0  0  0  0  0  0  0
    0.0380   -0.3680    0.6600 C   0  0  0  0  0  0  0  0  0  0  0  0
   -3.3020    0.4730    0.2280 C   0  0  0  0  0  0  0  0  0  0  0  0
  1  2  1  0
  2  3  1  0
  3  4  1  0
  4  5  1  0
  4 24  1  0
  5  6  2  0
  6  7  1  0
  7  8  1  0
  7 24  2  0
  8  9  2  0
  8 23  1  0
  9 10  1  0
  9 11  1  0
 11 12  1  0
 12 13  2  0
 12 23  1  0
 13 14  1  0
 14 15  1  0
 14 21  2  0
 15 16  2  0
 15 20  1  0
 16 17  1  0
 17 18  2  0
 18 19  1  0
 19 20  2  0
 21 22  1  0
 22 23  2  0
M  END
