
     RDKit          3D

 19 20  0  0  0  0  0  0  0  0999 V2000
   -3.2730    3.7350   -0.5910 N   0  0  0  0  0  0  0  0  0  0  0  0
   -2.2720    2.6770   -0.4090 C   0  0  0  0  0  0  0  0  0  0  0  0
   -1.1350    2.9600   -0.1730 O   0  0  0  0  0  0  0  0  0  0  0  0
   -2.7020    1.3810   -0.5210 N   0  0  0  0  0  0  0  0  0  0  0  0
   -2.3510    0.0580   -0.4800 C   0  0  0  0  0  0  0  0  0  0  0  0
   -1.2360   -0.5530   -0.2770 C   0  0  0  0  0  0  0  0  0  0  0  0
   -0.0090    0.1790   -0.0550 C   0  0  0  0  0  0  0  0  0  0  0  0
    0.2880    1.3380    0.0060 O   0  0  0  0  0  0  0  0  0  0  0  0
    1.1620   -0.6240    0.1430 O   0  0  0  0  0  0  0  0  0  0  0  0
    2.3980   -0.0440    0.3610 C   0  0  1  0  0  0  0  0  0  0  0  0
    3.1110   -0.4740    1.6040 C   0  0  0  0  0  0  0  0  0  0  0  0
    4.4670    0.1950    1.3280 C   0  0  0  0  0  0  0  0  0  0  0  0
    4.7070   -0.2210   -0.0400 N   0  0  0  0  0  0  0  0  0  0  0  0
    3.4360   -0.4100   -0.6880 C   0  0  0  0  0  0  0  0  0  0  0  0
   -1.1400   -2.0040   -0.0230 N   0  0  0  0  0  0  0  0  0  0  0  0
   -2.3270   -2.7590    0.0220 C   0  0  0  0  0  0  0  0  0  0  0  0
   -2.3600   -4.0000    0.2230 O   0  0  0  0  0  0  0  0  0  0  0  0
   -3.5570   -2.0240   -0.1780 N   0  0  0  0  0  0  0  0  0  0  0  0
   -3.5250   -0.8840   -0.9900 C   0  0  0  0  0  0  0  0  0  0  0  0
  1  2  1  0
  2  3  2  0
  2  4  1  0
  4  5  1  0
  5  6  2  0
  5 19  1  0
  6  7  1  0
  6 15  1  0
  7  8  2  0
  7  9  1  0
 10  9  1  6
 10 11  1  0
 10 14  1  0
 11 12  1  0
 12 13  1  0
 13 14  1  0
 15 16  1  0
 16 17  2  0
 16 18  1  0
 18 19  1  0
M  END
