
     RDKit          3D

 25 27  0  0  0  0  0  0  0  0999 V2000
   -3.6220    0.1530    1.8880 N   0  0  0  0  0  0  0  0  0  0  0  0
   -3.1900    0.6510    0.5920 C   0  0  1  0  0  0  0  0  0  0  0  0
   -3.3720   -0.3650   -0.4940 C   0  0  0  0  0  0  0  0  0  0  0  0
   -2.6300   -1.6190   -0.3040 C   0  0  0  0  0  0  0  0  0  0  0  0
   -1.3010   -1.8350   -0.5400 C   0  0  0  0  0  0  0  0  0  0  0  0
   -0.2890   -0.9190   -1.0480 C   0  0  0  0  0  0  0  0  0  0  0  0
   -0.4210    0.3600   -1.4240 N   0  0  0  0  0  0  0  0  0  0  0  0
    0.7420    0.8510   -1.8300 N   0  0  0  0  0  0  0  0  0  0  0  0
    1.6560   -0.1180   -1.7210 N   0  0  0  0  0  0  0  0  0  0  0  0
    3.0560    0.0490   -2.0750 C   0  0  0  0  0  0  0  0  0  0  0  0
    3.8720    0.5120   -0.9420 C   0  0  0  0  0  0  0  0  0  0  0  0
    4.4580   -0.4380   -0.1350 C   0  0  0  0  0  0  0  0  0  0  0  0
    5.2340   -0.1140    0.9420 C   0  0  0  0  0  0  0  0  0  0  0  0
    5.4620    1.2090    1.2640 C   0  0  0  0  0  0  0  0  0  0  0  0
    4.8780    2.1680    0.4610 C   0  0  0  0  0  0  0  0  0  0  0  0
    5.1510    3.8700    0.8480 Cl  0  0  0  0  0  0  0  0  0  0  0  0
    4.0880    1.8390   -0.6350 C   0  0  0  0  0  0  0  0  0  0  0  0
    1.0320   -1.1800   -1.2500 N   0  0  0  0  0  0  0  0  0  0  0  0
   -1.0460   -3.0900   -0.2200 O   0  0  0  0  0  0  0  0  0  0  0  0
   -2.1250   -3.6720    0.1990 N   0  0  0  0  0  0  0  0  0  0  0  0
   -3.1650   -2.8240    0.1790 C   0  0  0  0  0  0  0  0  0  0  0  0
   -4.3680   -3.0070    0.5060 O   0  0  0  0  0  0  0  0  0  0  0  0
   -4.0220    1.8470    0.2800 C   0  0  0  0  0  0  0  0  0  0  0  0
   -4.9020    2.2660    1.0570 O   0  0  0  0  0  0  0  0  0  0  0  0
   -3.8400    2.5570   -0.9210 O   0  0  0  0  0  0  0  0  0  0  0  0
  2  1  1  1
  2  3  1  0
  2 23  1  0
  3  4  1  0
  4  5  2  0
  4 21  1  0
  5  6  1  0
  5 19  1  0
  6  7  1  0
  6 18  2  0
  7  8  2  0
  8  9  1  0
  9 10  1  0
  9 18  1  0
 10 11  1  0
 11 12  2  0
 11 17  1  0
 12 13  1  0
 13 14  2  0
 14 15  1  0
 15 16  1  0
 15 17  2  0
 19 20  1  0
 20 21  1  0
 21 22  2  0
 23 24  2  0
 23 25  1  0
M  CHG  1   1   1
M  END
