
     RDKit          3D

 12 12  0  0  0  0  0  0  0  0999 V2000
   -2.6380    0.2700   -1.0340 C   0  0  0  0  0  0  0  0  0  0  0  0
   -1.5300   -0.1480   -0.0730 C   0  0  1  0  0  0  0  0  0  0  0  0
   -2.2140   -0.8930    1.0510 C   0  0  0  0  0  0  0  0  0  0  0  0
   -0.5720   -1.1210   -0.7300 C   0  0  0  0  0  0  0  0  0  0  0  0
    0.5630   -0.4230   -1.4080 C   0  0  0  0  0  0  0  0  0  0  0  0
    1.4070    0.3620   -0.4280 C   0  0  2  0  0  0  0  0  0  0  0  0
    1.9380    1.4470   -1.1300 O   0  0  0  0  0  0  0  0  0  0  0  0
    2.5520   -0.4660    0.0770 C   0  0  0  0  0  0  0  0  0  0  0  0
    3.8980   -0.0910   -0.1890 N   0  0  0  0  0  0  0  0  0  0  0  0
    2.3250   -1.5070    0.7460 O   0  0  0  0  0  0  0  0  0  0  0  0
    0.6310    0.8030    0.7830 C   0  0  0  0  0  0  0  0  0  0  0  0
   -0.8080    1.0740    0.3690 C   0  0  0  0  0  0  0  0  0  0  0  0
  2  1  1  6
  2  3  1  0
  2  4  1  0
  2 12  1  0
  4  5  1  0
  5  6  1  0
  6  7  1  6
  6  8  1  0
  6 11  1  0
  8  9  1  0
  8 10  2  0
 11 12  1  0
M  END
