
     RDKit          3D

 12 12  0  0  0  0  0  0  0  0999 V2000
    5.1180   -0.5110   -0.7030 O   0  0  0  0  0  0  0  0  0  0  0  0
    3.8570    0.0260   -0.7240 C   0  0  0  0  0  0  0  0  0  0  0  0
    2.8150   -0.6280   -0.2440 C   0  0  0  0  0  0  0  0  0  0  0  0
    1.4670   -0.0500   -0.2690 C   0  0  0  0  0  0  0  0  0  0  0  0
    0.4390   -0.6880    0.2010 C   0  0  0  0  0  0  0  0  0  0  0  0
   -0.9030   -0.1520    0.1950 C   0  0  0  0  0  0  0  0  0  0  0  0
   -1.2220    1.0850   -0.3080 C   0  0  0  0  0  0  0  0  0  0  0  0
   -2.5300    1.5510   -0.2880 C   0  0  0  0  0  0  0  0  0  0  0  0
   -3.4810    0.7770    0.2300 N   0  0  0  0  0  0  0  0  0  0  0  0
   -3.2570   -0.4450    0.7430 C   0  0  0  0  0  0  0  0  0  0  0  0
   -4.3120   -1.1850    1.2640 O   0  0  0  0  0  0  0  0  0  0  0  0
   -1.9620   -0.9050    0.7230 C   0  0  0  0  0  0  0  0  0  0  0  0
  1  2  1  0
  2  3  2  3
  3  4  1  0
  4  5  2  3
  5  6  1  0
  6  7  2  0
  6 12  1  0
  7  8  1  0
  8  9  2  0
  9 10  1  0
 10 11  1  0
 10 12  2  0
M  END
