
     RDKit          3D

 12 12  0  0  0  0  0  0  0  0999 V2000
   -2.4240    2.2770   -1.1790 C   0  0  0  0  0  0  0  0  0  0  0  0
   -2.3560    0.9920   -0.5880 O   0  0  0  0  0  0  0  0  0  0  0  0
   -1.1010    0.4890   -0.2810 C   0  0  0  0  0  0  0  0  0  0  0  0
    0.0640    1.2020   -0.5360 C   0  0  0  0  0  0  0  0  0  0  0  0
    1.2570    0.6060   -0.1900 C   0  0  0  0  0  0  0  0  0  0  0  0
    2.4600    1.3160   -0.4410 N   0  0  0  0  0  0  0  0  0  0  0  0
    1.3380   -0.6410    0.3840 C   0  0  0  0  0  0  0  0  0  0  0  0
    2.6780   -1.1680    0.7060 C   0  0  0  0  0  0  0  0  0  0  0  0
    0.1760   -1.3520    0.6370 C   0  0  0  0  0  0  0  0  0  0  0  0
    0.2300   -2.5890    1.2060 O   0  0  0  0  0  0  0  0  0  0  0  0
   -1.0430   -0.7630    0.2940 C   0  0  0  0  0  0  0  0  0  0  0  0
   -2.2760   -1.5080    0.5590 C   0  0  0  0  0  0  0  0  0  0  0  0
  1  2  1  0
  2  3  1  0
  3  4  2  0
  3 11  1  0
  4  5  1  0
  5  6  1  0
  5  7  2  0
  7  8  1  0
  7  9  1  0
  9 10  1  0
  9 11  2  0
 11 12  1  0
M  END
