
     RDKit          3D

 12 13  0  0  0  0  0  0  0  0999 V2000
   -3.9150   -0.8510   -0.0870 O   0  0  0  0  0  0  0  0  0  0  0  0
   -2.6760   -0.6340   -0.0460 C   0  0  0  0  0  0  0  0  0  0  0  0
   -1.7510   -1.7290   -0.1180 C   0  0  0  0  0  0  0  0  0  0  0  0
   -0.4730   -1.5300   -0.1630 C   0  0  0  0  0  0  0  0  0  0  0  0
    0.0760   -0.2080   -0.1550 C   0  0  0  0  0  0  0  0  0  0  0  0
    1.4080    0.2700   -0.1560 C   0  0  0  0  0  0  0  0  0  0  0  0
    2.5500   -0.6700   -0.2990 C   0  0  0  0  0  0  0  0  0  0  0  0
    3.2820   -0.6140    0.9120 O   0  0  0  0  0  0  0  0  0  0  0  0
    1.3430    1.5970   -0.0820 C   0  0  0  0  0  0  0  0  0  0  0  0
    0.0680    1.9660   -0.0590 N   0  0  0  0  0  0  0  0  0  0  0  0
   -0.7440    0.9080   -0.0880 C   0  0  0  0  0  0  0  0  0  0  0  0
   -2.2060    0.7890    0.0740 C   0  0  0  0  0  0  0  0  0  0  0  0
  1  2  2  0
  2  3  1  0
  2 12  1  0
  3  4  2  0
  4  5  1  0
  5  6  1  0
  5 11  2  0
  6  7  1  0
  6  9  2  0
  7  8  1  0
  9 10  1  0
 10 11  1  0
 11 12  1  0
M  END
