
     RDKit          3D

 11 11  0  0  0  0  0  0  0  0999 V2000
    3.6110    0.6140    0.3280 C   0  0  0  0  0  0  0  0  0  0  0  0
    2.1100    0.6840    0.4920 C   0  0  0  0  0  0  0  0  0  0  0  0
    1.3240   -0.1380   -0.1530 C   0  0  0  0  0  0  0  0  0  0  0  0
   -0.1150   -0.1150   -0.0330 C   0  0  0  0  0  0  0  0  0  0  0  0
   -0.7790    0.7730    0.7680 C   0  0  0  0  0  0  0  0  0  0  0  0
   -2.1640    0.7710    0.8620 C   0  0  0  0  0  0  0  0  0  0  0  0
   -2.8220    1.6820    1.6830 O   0  0  0  0  0  0  0  0  0  0  0  0
   -2.9040   -0.1310    0.1480 C   0  0  0  0  0  0  0  0  0  0  0  0
   -2.2720   -1.0420   -0.6710 C   0  0  0  0  0  0  0  0  0  0  0  0
   -0.9050   -1.0280   -0.7550 C   0  0  0  0  0  0  0  0  0  0  0  0
   -0.2580   -1.9700   -1.6000 N   0  0  0  0  0  0  0  0  0  0  0  0
  1  2  1  0
  2  3  2  3
  3  4  1  0
  4  5  2  0
  4 10  1  0
  5  6  1  0
  6  7  1  0
  6  8  2  0
  8  9  1  0
  9 10  2  0
 10 11  1  0
M  END
