
     RDKit          3D

 12 12  0  0  0  0  0  0  0  0999 V2000
    2.8220   -1.7030    0.2140 C   0  0  0  0  0  0  0  0  0  0  0  0
    2.2890   -0.3200   -0.0490 C   0  0  0  0  0  0  0  0  0  0  0  0
    3.0730    0.6150   -0.2800 O   0  0  0  0  0  0  0  0  0  0  0  0
    0.8560   -0.1230   -0.0240 C   0  0  0  0  0  0  0  0  0  0  0  0
    0.0430   -1.2210    0.2430 C   0  0  0  0  0  0  0  0  0  0  0  0
   -1.3140   -1.0320    0.2660 C   0  0  0  0  0  0  0  0  0  0  0  0
   -2.1700   -2.1280    0.5340 N   0  0  0  0  0  0  0  0  0  0  0  0
   -1.8670    0.2090    0.0340 C   0  0  0  0  0  0  0  0  0  0  0  0
   -1.0900    1.3020   -0.2300 C   0  0  0  0  0  0  0  0  0  0  0  0
   -1.7130    2.6280   -0.4770 C   0  0  0  0  0  0  0  0  0  0  0  0
    0.2980    1.1260   -0.2580 C   0  0  0  0  0  0  0  0  0  0  0  0
    1.0200    2.2640   -0.5280 O   0  0  0  0  0  0  0  0  0  0  0  0
  1  2  1  0
  2  3  2  0
  2  4  1  0
  4  5  2  0
  4 11  1  0
  5  6  1  0
  6  7  1  0
  6  8  2  0
  8  9  1  0
  9 10  1  0
  9 11  2  0
 11 12  1  0
M  END
