
     RDKit          3D

 12 12  0  0  0  0  0  0  0  0999 V2000
   -0.9090    1.0290   -2.8420 C   0  0  0  0  0  0  0  0  0  0  0  0
    0.1740    1.2890   -2.1080 C   0  0  0  0  0  0  0  0  0  0  0  0
    1.1430    2.3230   -2.4000 C   0  0  0  0  0  0  0  0  0  0  0  0
    2.0670    2.2790   -1.4600 C   0  0  0  0  0  0  0  0  0  0  0  0
    1.7270    1.2160   -0.5290 C   0  0  0  0  0  0  0  0  0  0  0  0
    0.6020    0.6120   -0.8960 C   0  0  0  0  0  0  0  0  0  0  0  0
   -0.0690   -0.5020   -0.2230 C   0  0  0  0  0  0  0  0  0  0  0  0
   -1.1250   -0.9380   -0.7210 O   0  0  0  0  0  0  0  0  0  0  0  0
    0.4200   -1.1020    0.9570 N   0  0  0  0  0  0  0  0  0  0  0  0
   -0.1880   -2.1890    1.6610 C   0  0  0  0  0  0  0  0  0  0  0  0
   -1.5680   -1.7890    2.1190 C   0  0  0  0  0  0  0  0  0  0  0  0
   -1.5140   -0.6720    2.9770 O   0  0  0  0  0  0  0  0  0  0  0  0
  1  2  2  0
  2  3  1  0
  2  6  1  0
  3  4  2  0
  4  5  1  0
  5  6  2  0
  6  7  1  0
  7  8  2  0
  7  9  1  0
  9 10  1  0
 10 11  1  0
 11 12  1  0
M  END
