
     RDKit          3D

 24 27  0  0  0  0  0  0  0  0999 V2000
    7.1750    1.2170    1.4170 N   0  0  0  0  0  0  0  0  0  0  0  0
    6.9030    0.4170   -0.0880 S   0  0  1  0  0  0  0  0  0  0  0  0
    7.3960    1.3220   -1.1860 O   0  0  0  0  0  0  0  0  0  0  0  0
    7.6300   -0.8690   -0.2050 O   0  0  0  0  0  0  0  0  0  0  0  0
    5.1770    0.1160   -0.2550 C   0  0  0  0  0  0  0  0  0  0  0  0
    4.4950   -1.0700   -0.3950 C   0  0  0  0  0  0  0  0  0  0  0  0
    3.1630   -1.0100   -0.5040 C   0  0  0  0  0  0  0  0  0  0  0  0
    2.5440    0.1790   -0.4760 C   0  0  0  0  0  0  0  0  0  0  0  0
    1.1220    0.5200   -0.5730 C   0  0  0  0  0  0  0  0  0  0  0  0
    0.0720   -0.3520   -0.7230 C   0  0  0  0  0  0  0  0  0  0  0  0
   -1.0910    0.3580   -0.7730 N   0  0  0  0  0  0  0  0  0  0  0  0
   -2.4210   -0.1220   -0.9190 C   0  0  0  0  0  0  0  0  0  0  0  0
   -2.7870   -0.8400   -2.0580 C   0  0  0  0  0  0  0  0  0  0  0  0
   -4.0710   -1.2970   -2.1860 C   0  0  0  0  0  0  0  0  0  0  0  0
   -4.9960   -1.0490   -1.1970 C   0  0  0  0  0  0  0  0  0  0  0  0
   -4.6220   -0.3350   -0.0700 C   0  0  0  0  0  0  0  0  0  0  0  0
   -5.5710   -0.1020    0.9070 C   0  0  0  0  0  0  0  0  0  0  0  0
   -5.2290    0.6050    2.0400 C   0  0  0  0  0  0  0  0  0  0  0  0
   -3.9510    1.0760    2.1970 C   0  0  0  0  0  0  0  0  0  0  0  0
   -2.9880    0.8480    1.2230 C   0  0  0  0  0  0  0  0  0  0  0  0
   -3.3240    0.1440    0.0930 C   0  0  0  0  0  0  0  0  0  0  0  0
   -0.7330    1.6250   -0.6560 N   0  0  0  0  0  0  0  0  0  0  0  0
    0.5790    1.7440   -0.5360 N   0  0  0  0  0  0  0  0  0  0  0  0
    3.8730    1.3130   -0.2850 S   0  0  0  0  0  0  0  0  0  0  0  0
  2  1  1  1
  2  3  2  0
  2  4  2  0
  2  5  1  0
  5  6  2  0
  5 24  1  0
  6  7  1  0
  7  8  2  0
  8  9  1  0
  8 24  1  0
  9 10  2  0
  9 23  1  0
 10 11  1  0
 11 12  1  0
 11 22  1  0
 12 13  2  0
 12 21  1  0
 13 14  1  0
 14 15  2  0
 15 16  1  0
 16 17  2  0
 16 21  1  0
 17 18  1  0
 18 19  2  0
 19 20  1  0
 20 21  2  0
 22 23  2  0
M  END
