
     RDKit          3D

 22 24  0  0  0  0  0  0  0  0999 V2000
    5.4320   -1.7920   -0.3970 C   0  0  0  0  0  0  0  0  0  0  0  0
    4.2750   -0.8650   -0.0680 C   0  0  0  0  0  0  0  0  0  0  0  0
    3.4980   -1.0310    0.9950 C   0  0  0  0  0  0  0  0  0  0  0  0
    2.4820   -0.1370    1.1970 C   0  0  0  0  0  0  0  0  0  0  0  0
    1.2770   -0.0730    2.5040 S   0  0  1  0  0  0  0  0  0  0  0  0
    1.5600   -1.1980    3.4370 O   0  0  0  0  0  0  0  0  0  0  0  0
    1.3850    1.2320    3.2380 O   0  0  0  0  0  0  0  0  0  0  0  0
   -0.3080   -0.1990    1.8330 N   0  0  0  0  0  0  0  0  0  0  0  0
   -0.6190    0.8710    0.9410 C   0  0  0  0  0  0  0  0  0  0  0  0
   -1.9850    0.6780    0.4200 C   0  0  0  0  0  0  0  0  0  0  0  0
   -3.1390    1.1520    0.9680 C   0  0  0  0  0  0  0  0  0  0  0  0
   -4.1410    0.7360    0.1610 N   0  0  0  0  0  0  0  0  0  0  0  0
   -5.4720    0.9090    0.2120 C   0  0  0  0  0  0  0  0  0  0  0  0
   -6.3010    0.3860   -0.7330 C   0  0  0  0  0  0  0  0  0  0  0  0
   -5.7860   -0.3460   -1.7840 C   0  0  0  0  0  0  0  0  0  0  0  0
   -6.5400   -0.8380   -2.6690 O   0  0  0  0  0  0  0  0  0  0  0  0
   -4.4490   -0.4940   -1.7980 N   0  0  0  0  0  0  0  0  0  0  0  0
   -3.6380    0.0250   -0.8600 C   0  0  0  0  0  0  0  0  0  0  0  0
   -2.2970    0.0010   -0.6810 N   0  0  0  0  0  0  0  0  0  0  0  0
    2.6390    0.9730   -0.1670 S   0  0  0  0  0  0  0  0  0  0  0  0
    4.0320    0.1870   -0.9160 C   0  0  0  0  0  0  0  0  0  0  0  0
    4.7330    0.5950   -2.1500 C   0  0  0  0  0  0  0  0  0  0  0  0
  1  2  1  0
  2  3  1  0
  2 21  2  0
  3  4  2  0
  4  5  1  0
  4 20  1  0
  5  6  2  0
  5  7  2  0
  5  8  1  6
  8  9  1  0
  9 10  1  0
 10 11  2  0
 10 19  1  0
 11 12  1  0
 12 13  1  0
 12 18  1  0
 13 14  2  0
 14 15  1  0
 15 16  2  0
 15 17  1  0
 17 18  1  0
 18 19  2  0
 20 21  1  0
 21 22  1  0
M  END
