
     RDKit          3D

 22 24  0  0  0  0  0  0  0  0999 V2000
    3.3640   -2.0150    0.5120 C   0  0  0  0  0  0  0  0  0  0  0  0
    4.1640   -1.0310   -0.7860 S   0  0  0  0  0  0  0  0  0  0  0  0
    3.6280    0.6600   -0.5820 C   0  0  0  0  0  0  0  0  0  0  0  0
    4.3000    1.5340    0.2060 N   0  0  0  0  0  0  0  0  0  0  0  0
    3.8340    2.7910    0.3080 C   0  0  0  0  0  0  0  0  0  0  0  0
    4.4280    3.6270    1.0260 O   0  0  0  0  0  0  0  0  0  0  0  0
    2.7200    3.1950   -0.3540 N   0  0  0  0  0  0  0  0  0  0  0  0
    2.0730    2.3040   -1.1290 C   0  0  0  0  0  0  0  0  0  0  0  0
    1.0320    2.6870   -1.7460 O   0  0  0  0  0  0  0  0  0  0  0  0
    2.5210    1.0350   -1.2490 N   0  0  0  0  0  0  0  0  0  0  0  0
    1.8200    0.1050   -2.0770 C   0  0  0  0  0  0  0  0  0  0  0  0
    0.5370   -0.8050   -1.1800 S   0  0  0  0  0  0  0  0  0  0  0  0
   -0.7470    0.1870   -0.6540 O   0  0  0  0  0  0  0  0  0  0  0  0
   -2.0520   -0.1650   -0.4640 C   0  0  0  0  0  0  0  0  0  0  0  0
   -3.0260   -0.0920   -1.4370 C   0  0  0  0  0  0  0  0  0  0  0  0
   -4.3230   -0.4620   -1.1810 C   0  0  0  0  0  0  0  0  0  0  0  0
   -4.6950   -0.9210    0.0680 C   0  0  0  0  0  0  0  0  0  0  0  0
   -3.7360   -1.0060    1.0710 C   0  0  0  0  0  0  0  0  0  0  0  0
   -3.8160   -1.4110    2.3570 N   0  0  0  0  0  0  0  0  0  0  0  0
   -2.6090   -1.3140    2.9430 C   0  0  0  0  0  0  0  0  0  0  0  0
   -1.7400   -0.8240    1.9650 C   0  0  0  0  0  0  0  0  0  0  0  0
   -2.4400   -0.6260    0.7810 C   0  0  0  0  0  0  0  0  0  0  0  0
  1  2  1  0
  2  3  1  0
  3  4  2  0
  3 10  1  0
  4  5  1  0
  5  6  2  0
  5  7  1  0
  7  8  1  0
  8  9  2  0
  8 10  1  0
 10 11  1  0
 11 12  1  0
 12 13  1  0
 13 14  1  0
 14 15  2  0
 14 22  1  0
 15 16  1  0
 16 17  2  0
 17 18  1  0
 18 19  1  0
 18 22  2  0
 19 20  1  0
 20 21  2  0
 21 22  1  0
M  END
