
     RDKit          3D

 22 24  0  0  0  0  0  0  0  0999 V2000
   -4.4410    1.7220   -2.3010 O   0  0  0  0  0  0  0  0  0  0  0  0
   -4.5580    0.8860   -1.3660 C   0  0  0  0  0  0  0  0  0  0  0  0
   -3.5260    0.2320   -0.8390 N   0  0  0  0  0  0  0  0  0  0  0  0
   -3.6420   -0.6620    0.1590 C   0  0  0  0  0  0  0  0  0  0  0  0
   -2.2270   -1.5260    0.8460 S   0  0  0  0  0  0  0  0  0  0  0  0
   -1.5180   -0.5900    2.2360 C   0  0  0  0  0  0  0  0  0  0  0  0
   -0.9230    0.7270    1.7370 C   0  0  0  0  0  0  0  0  0  0  0  0
    0.1530    0.5060    0.7450 C   0  0  0  0  0  0  0  0  0  0  0  0
    0.0120    0.4130   -0.5810 N   0  0  0  0  0  0  0  0  0  0  0  0
    1.2260    0.2140   -1.0950 C   0  0  0  0  0  0  0  0  0  0  0  0
    2.1210    0.1860   -0.0590 C   0  0  0  0  0  0  0  0  0  0  0  0
    3.5940   -0.0120   -0.1510 C   0  0  0  0  0  0  0  0  0  0  0  0
    4.1600   -0.1840   -1.3270 C   0  0  0  0  0  0  0  0  0  0  0  0
    5.5740   -0.3920   -1.6310 C   0  0  0  0  0  0  0  0  0  0  0  0
    6.6550   -0.4080   -0.1990 S   0  0  0  0  0  0  0  0  0  0  0  0
    5.6130   -0.1520    1.2370 C   0  0  0  0  0  0  0  0  0  0  0  0
    4.3090    0.0040    1.1150 C   0  0  0  0  0  0  0  0  0  0  0  0
    1.4210    0.3660    1.0290 O   0  0  0  0  0  0  0  0  0  0  0  0
   -4.8730   -0.9050    0.6470 N   0  0  0  0  0  0  0  0  0  0  0  0
   -5.9310   -0.2520    0.1250 C   0  0  0  0  0  0  0  0  0  0  0  0
   -7.0760   -0.5190    0.6240 O   0  0  0  0  0  0  0  0  0  0  0  0
   -5.7910    0.6360   -0.8700 N   0  0  0  0  0  0  0  0  0  0  0  0
  1  2  2  0
  2  3  1  0
  2 22  1  0
  3  4  2  0
  4  5  1  0
  4 19  1  0
  5  6  1  0
  6  7  1  0
  7  8  1  0
  8  9  2  0
  8 18  1  0
  9 10  1  0
 10 11  2  0
 11 12  1  0
 11 18  1  0
 12 13  2  0
 12 17  1  0
 13 14  1  0
 14 15  1  0
 15 16  1  0
 16 17  2  0
 19 20  1  0
 20 21  2  0
 20 22  1  0
M  END
