
     RDKit          3D

 22 24  0  0  0  0  0  0  0  0999 V2000
    5.6870    3.8520   -0.7490 O   0  0  0  0  0  0  0  0  0  0  0  0
    6.1610    2.4200   -0.8470 S   0  0  0  0  0  0  0  0  0  0  0  0
    4.8150    1.2920   -0.6080 C   0  0  0  0  0  0  0  0  0  0  0  0
    3.5570    1.7680   -0.3270 C   0  0  0  0  0  0  0  0  0  0  0  0
    2.5270    0.8550   -0.1460 C   0  0  0  0  0  0  0  0  0  0  0  0
    2.7130   -0.4950   -0.2350 C   0  0  0  0  0  0  0  0  0  0  0  0
    1.7500   -1.4880   -0.0870 N   0  0  0  0  0  0  0  0  0  0  0  0
    0.3590   -1.2160   -0.0540 C   0  0  0  0  0  0  0  0  0  0  0  0
   -0.1310   -0.0680   -0.1580 O   0  0  0  0  0  0  0  0  0  0  0  0
   -0.5480   -2.3070    0.1070 N   0  0  0  0  0  0  0  0  0  0  0  0
   -1.9490   -1.9970    0.1370 C   0  0  0  0  0  0  0  0  0  0  0  0
   -2.6440   -0.9910    0.0580 N   0  0  0  0  0  0  0  0  0  0  0  0
   -3.9360   -0.9240    0.1090 C   0  0  0  0  0  0  0  0  0  0  0  0
   -4.6850    0.3520    0.0020 C   0  0  0  0  0  0  0  0  0  0  0  0
   -6.0520    0.5170    0.0460 C   0  0  0  0  0  0  0  0  0  0  0  0
   -6.3090    1.7960   -0.0830 O   0  0  0  0  0  0  0  0  0  0  0  0
   -5.2150    2.4810   -0.2080 C   0  0  0  0  0  0  0  0  0  0  0  0
   -4.1990    1.6000   -0.1570 N   0  0  0  0  0  0  0  0  0  0  0  0
   -4.6020   -2.1280    0.2720 C   0  0  0  0  0  0  0  0  0  0  0  0
   -3.2020   -3.3140    0.3390 S   0  0  0  0  0  0  0  0  0  0  0  0
    4.0190   -0.9110   -0.5230 C   0  0  0  0  0  0  0  0  0  0  0  0
    5.0760   -0.0660   -0.7120 C   0  0  0  0  0  0  0  0  0  0  0  0
  1  2  2  0
  2  3  1  0
  3  4  2  0
  3 22  1  0
  4  5  1  0
  5  6  2  0
  6  7  1  0
  6 21  1  0
  7  8  1  0
  8  9  2  0
  8 10  1  0
 10 11  1  0
 11 12  2  0
 11 20  1  0
 12 13  1  0
 13 14  1  0
 13 19  2  0
 14 15  2  0
 14 18  1  0
 15 16  1  0
 16 17  1  0
 17 18  2  0
 19 20  1  0
 21 22  2  0
M  END
