
     RDKit          3D

 22 24  0  0  0  0  0  0  0  0999 V2000
    2.8800    1.6930    1.3730 C   0  0  0  0  0  0  0  0  0  0  0  0
    3.7560    0.9680    0.3770 C   0  0  0  0  0  0  0  0  0  0  0  0
    3.2820    0.0480   -0.4100 C   0  0  0  0  0  0  0  0  0  0  0  0
    1.9550   -0.4270   -0.4930 N   0  0  0  0  0  0  0  0  0  0  0  0
    1.0760   -0.3050   -1.4420 N   0  0  0  0  0  0  0  0  0  0  0  0
   -0.1010   -0.9200   -1.1170 C   0  0  0  0  0  0  0  0  0  0  0  0
   -1.5410   -0.9590   -2.1420 S   0  0  0  0  0  0  0  0  0  0  0  0
   -2.9600   -1.6730   -1.3620 C   0  0  0  0  0  0  0  0  0  0  0  0
   -3.5100   -0.7970   -0.2970 C   0  0  0  0  0  0  0  0  0  0  0  0
   -3.2790   -0.9790    1.0400 C   0  0  0  0  0  0  0  0  0  0  0  0
   -3.7780   -0.1390    2.0250 C   0  0  0  0  0  0  0  0  0  0  0  0
   -4.5270    0.9070    1.6410 N   0  0  0  0  0  0  0  0  0  0  0  0
   -4.7800    1.1250    0.3460 C   0  0  0  0  0  0  0  0  0  0  0  0
   -5.5550    2.2080   -0.0330 O   0  0  0  0  0  0  0  0  0  0  0  0
   -4.2920    0.3020   -0.6330 C   0  0  0  0  0  0  0  0  0  0  0  0
    0.1030   -1.4380    0.1030 N   0  0  0  0  0  0  0  0  0  0  0  0
    1.3520   -1.1460    0.4990 C   0  0  0  0  0  0  0  0  0  0  0  0
    1.8910   -1.4600    1.5710 O   0  0  0  0  0  0  0  0  0  0  0  0
    4.6210   -0.5620   -1.4080 S   0  0  0  0  0  0  0  0  0  0  0  0
    5.9610    0.2090   -0.3960 C   0  0  0  0  0  0  0  0  0  0  0  0
    5.1470    1.2700    0.2500 C   0  0  0  0  0  0  0  0  0  0  0  0
    5.7220    2.3510    0.6400 O   0  0  0  0  0  0  0  0  0  0  0  0
  1  2  1  0
  2  3  2  0
  2 21  1  0
  3  4  1  0
  3 19  1  0
  4  5  1  0
  4 17  1  0
  5  6  2  0
  6  7  1  0
  6 16  1  0
  7  8  1  0
  8  9  1  0
  9 10  2  0
  9 15  1  0
 10 11  1  0
 11 12  2  0
 12 13  1  0
 13 14  1  0
 13 15  2  0
 16 17  1  0
 17 18  2  0
 19 20  1  0
 20 21  1  0
 21 22  2  0
M  END
