
     RDKit          3D

 22 24  0  0  0  0  0  0  0  0999 V2000
   -6.3450    0.8340   -0.7310 O   0  0  0  0  0  0  0  0  0  0  0  0
   -4.9940    1.4770   -0.4870 S   0  0  2  0  0  0  0  0  0  0  0  0
   -5.1070    2.4090    0.6900 O   0  0  0  0  0  0  0  0  0  0  0  0
   -4.6020    2.4120   -1.8290 O   0  0  0  0  0  0  0  0  0  0  0  0
   -3.7810    0.2650   -0.1900 C   0  0  0  0  0  0  0  0  0  0  0  0
   -2.6800    0.4780    0.6240 C   0  0  0  0  0  0  0  0  0  0  0  0
   -1.7320   -0.5310    0.8300 C   0  0  0  0  0  0  0  0  0  0  0  0
   -1.8820   -1.7380    0.2310 C   0  0  0  0  0  0  0  0  0  0  0  0
   -0.9650   -2.8210    0.3810 N   0  0  0  0  0  0  0  0  0  0  0  0
    0.2250   -2.7050    1.1840 C   0  0  0  0  0  0  0  0  0  0  0  0
    1.0810   -1.6700    0.5860 C   0  0  0  0  0  0  0  0  0  0  0  0
    1.0080   -0.9760   -0.5940 C   0  0  0  0  0  0  0  0  0  0  0  0
    1.9520   -0.0720   -0.8750 C   0  0  0  0  0  0  0  0  0  0  0  0
    2.9510    0.1350    0.0080 C   0  0  0  0  0  0  0  0  0  0  0  0
    4.0640    1.0170   -0.0340 N   0  0  0  0  0  0  0  0  0  0  0  0
    5.3090    0.8180    0.4010 C   0  0  0  0  0  0  0  0  0  0  0  0
    6.0240    1.9670    0.1370 C   0  0  0  0  0  0  0  0  0  0  0  0
    5.2090    2.8550   -0.4570 N   0  0  0  0  0  0  0  0  0  0  0  0
    4.0130    2.2520   -0.5520 C   0  0  0  0  0  0  0  0  0  0  0  0
    2.5730   -0.9820    1.3080 S   0  0  0  0  0  0  0  0  0  0  0  0
   -2.9690   -1.9090   -0.5560 N   0  0  0  0  0  0  0  0  0  0  0  0
   -3.8870   -0.9750   -0.7730 C   0  0  0  0  0  0  0  0  0  0  0  0
  1  2  2  0
  2  3  2  0
  2  4  1  6
  2  5  1  0
  5  6  2  0
  5 22  1  0
  6  7  1  0
  7  8  2  0
  8  9  1  0
  8 21  1  0
  9 10  1  0
 10 11  1  0
 11 12  2  0
 11 20  1  0
 12 13  1  0
 13 14  2  0
 14 15  1  0
 14 20  1  0
 15 16  1  0
 15 19  1  0
 16 17  2  0
 17 18  1  0
 18 19  2  0
 21 22  2  0
M  END
