
     RDKit          3D

 22 24  0  0  0  0  0  0  0  0999 V2000
    5.4780   -0.5790    0.6450 C   0  0  0  0  0  0  0  0  0  0  0  0
    4.0410   -0.5770    0.7150 N   0  0  0  0  0  0  0  0  0  0  0  0
    3.4140   -0.9170   -0.5470 C   0  0  0  0  0  0  0  0  0  0  0  0
    1.9630   -0.8710   -0.3040 N   0  0  0  0  0  0  0  0  0  0  0  0
    1.3170   -1.9720    0.1020 C   0  0  0  0  0  0  0  0  0  0  0  0
    1.9770   -3.0430    0.2700 O   0  0  0  0  0  0  0  0  0  0  0  0
    0.0120   -1.9520    0.3250 O   0  0  0  0  0  0  0  0  0  0  0  0
   -0.7050   -0.8740    0.1650 C   0  0  0  0  0  0  0  0  0  0  0  0
   -2.1730   -0.8350    0.4130 C   0  0  0  0  0  0  0  0  0  0  0  0
   -2.6850   -0.0260    1.3970 C   0  0  0  0  0  0  0  0  0  0  0  0
   -4.4880   -0.3560    1.2740 S   0  0  0  0  0  0  0  0  0  0  0  0
   -4.1980   -1.5790   -0.1480 C   0  0  0  0  0  0  0  0  0  0  0  0
   -5.4520   -2.1920   -0.6680 N   0  0  0  0  0  0  0  0  0  0  0  0
   -3.0860   -1.5280   -0.2440 N   0  0  0  0  0  0  0  0  0  0  0  0
   -0.0990    0.2680   -0.2440 C   0  0  0  0  0  0  0  0  0  0  0  0
   -0.8870    1.4760   -0.4270 C   0  0  0  0  0  0  0  0  0  0  0  0
   -0.7940    2.7170    0.2150 C   0  0  0  0  0  0  0  0  0  0  0  0
   -1.6320    3.6720   -0.1270 C   0  0  0  0  0  0  0  0  0  0  0  0
   -2.5940    3.4560   -1.1080 C   0  0  0  0  0  0  0  0  0  0  0  0
   -2.2390    1.7510   -1.5470 S   0  0  0  0  0  0  0  0  0  0  0  0
    1.2790    0.2600   -0.4840 C   0  0  0  0  0  0  0  0  0  0  0  0
    1.8650    1.3090   -0.8650 O   0  0  0  0  0  0  0  0  0  0  0  0
  1  2  1  0
  2  3  1  0
  3  4  1  0
  4  5  1  0
  4 21  1  0
  5  6  2  0
  5  7  1  0
  7  8  1  0
  8  9  1  0
  8 15  2  0
  9 10  2  0
  9 14  1  0
 10 11  1  0
 11 12  1  0
 12 13  1  0
 12 14  2  0
 15 16  1  0
 15 21  1  0
 16 17  2  0
 16 20  1  0
 17 18  1  0
 18 19  2  0
 19 20  1  0
 21 22  2  0
M  END
