
     RDKit          3D

 22 24  0  0  0  0  0  0  0  0999 V2000
   -0.8360    4.0550   -2.2410 C   0  0  0  0  0  0  0  0  0  0  0  0
   -1.3170    2.7960   -1.5510 C   0  0  0  0  0  0  0  0  0  0  0  0
   -2.5370    2.6000   -1.5000 O   0  0  0  0  0  0  0  0  0  0  0  0
   -0.3840    1.8960   -0.9940 N   0  0  0  0  0  0  0  0  0  0  0  0
   -0.7370    0.6570   -0.3080 C   0  0  0  0  0  0  0  0  0  0  0  0
   -2.0020    0.2280   -0.1270 C   0  0  0  0  0  0  0  0  0  0  0  0
   -2.2150   -0.9440    0.5270 C   0  0  0  0  0  0  0  0  0  0  0  0
   -3.4510   -1.6080    0.8430 N   0  0  0  0  0  0  0  0  0  0  0  0
   -4.5090   -1.8160    0.0510 C   0  0  0  0  0  0  0  0  0  0  0  0
   -5.4600   -2.4890    0.7720 C   0  0  0  0  0  0  0  0  0  0  0  0
   -4.9450   -2.6840    2.0300 C   0  0  0  0  0  0  0  0  0  0  0  0
   -3.7280   -2.1360    2.0310 N   0  0  0  0  0  0  0  0  0  0  0  0
   -0.5700   -1.5070    0.9270 S   0  0  0  0  0  0  0  0  0  0  0  0
    0.2690   -0.1140    0.1780 C   0  0  0  0  0  0  0  0  0  0  0  0
    1.7180   -0.0030    0.1870 C   0  0  0  0  0  0  0  0  0  0  0  0
    2.2770    0.9650   -0.3350 O   0  0  0  0  0  0  0  0  0  0  0  0
    2.5410   -0.9920    0.7880 N   0  0  0  0  0  0  0  0  0  0  0  0
    3.9690   -0.8870    0.7990 C   0  0  0  0  0  0  0  0  0  0  0  0
    4.8560   -1.7100    0.2860 C   0  0  0  0  0  0  0  0  0  0  0  0
    6.1560   -1.4040    0.4200 O   0  0  0  0  0  0  0  0  0  0  0  0
    6.4810   -0.0410    0.5690 C   0  0  0  0  0  0  0  0  0  0  0  0
    4.9650    0.4330    1.5190 S   0  0  0  0  0  0  0  0  0  0  0  0
  1  2  1  0
  2  3  2  0
  2  4  1  0
  4  5  1  0
  5  6  1  0
  5 14  2  0
  6  7  2  0
  7  8  1  0
  7 13  1  0
  8  9  1  0
  8 12  1  0
  9 10  2  0
 10 11  1  0
 11 12  2  0
 13 14  1  0
 14 15  1  0
 15 16  2  0
 15 17  1  0
 17 18  1  0
 18 19  2  0
 18 22  1  0
 19 20  1  0
 20 21  1  0
 21 22  1  0
M  END
