
     RDKit          3D

 22 24  0  0  0  0  0  0  0  0999 V2000
   -7.1010    1.6360    0.6090 C   0  0  0  0  0  0  0  0  0  0  0  0
   -6.4810    0.4950    1.3540 C   0  0  0  0  0  0  0  0  0  0  0  0
   -5.3020   -0.0760    0.6860 C   0  0  0  0  0  0  0  0  0  0  0  0
   -5.1540   -1.0910   -0.2380 C   0  0  0  0  0  0  0  0  0  0  0  0
   -3.9560   -1.4180   -0.6920 C   0  0  0  0  0  0  0  0  0  0  0  0
   -2.8590   -0.7190   -0.2170 C   0  0  0  0  0  0  0  0  0  0  0  0
   -1.4320   -0.8500   -0.5270 C   0  0  0  0  0  0  0  0  0  0  0  0
   -0.8390   -1.7000   -1.3640 N   0  0  0  0  0  0  0  0  0  0  0  0
    0.4540   -1.5050   -1.3660 O   0  0  0  0  0  0  0  0  0  0  0  0
    0.7260   -0.5300   -0.5330 C   0  0  0  0  0  0  0  0  0  0  0  0
    2.0490   -0.0580   -0.2910 N   0  0  0  0  0  0  0  0  0  0  0  0
    3.1780   -0.6130   -0.9380 C   0  0  0  0  0  0  0  0  0  0  0  0
    3.0250   -1.5510   -1.7540 O   0  0  0  0  0  0  0  0  0  0  0  0
    4.5280   -0.0910   -0.6550 C   0  0  0  0  0  0  0  0  0  0  0  0
    5.5880   -0.6040   -1.2560 C   0  0  0  0  0  0  0  0  0  0  0  0
    6.9510   -0.1500   -1.0360 C   0  0  0  0  0  0  0  0  0  0  0  0
    7.8730   -0.7470   -1.6910 O   0  0  0  0  0  0  0  0  0  0  0  0
    7.2990    0.8980   -0.1490 N   0  0  0  0  0  0  0  0  0  0  0  0
    6.4880    1.2410    1.0000 C   0  0  0  0  0  0  0  0  0  0  0  0
    4.7180    1.2420    0.5130 S   0  0  0  0  0  0  0  0  0  0  0  0
   -0.4240   -0.1110   -0.0040 N   0  0  0  0  0  0  0  0  0  0  0  0
   -3.5960    0.4470    0.9220 S   0  0  0  0  0  0  0  0  0  0  0  0
  1  2  1  0
  2  3  1  0
  3  4  2  0
  3 22  1  0
  4  5  1  0
  5  6  2  0
  6  7  1  0
  6 22  1  0
  7  8  2  0
  7 21  1  0
  8  9  1  0
  9 10  1  0
 10 11  1  0
 10 21  2  0
 11 12  1  0
 12 13  2  0
 12 14  1  0
 14 15  2  0
 14 20  1  0
 15 16  1  0
 16 17  2  0
 16 18  1  0
 18 19  1  0
 19 20  1  0
M  END
