
     RDKit          3D

 21 23  0  0  0  0  0  0  0  0999 V2000
    6.1890   -0.6010    0.7510 C   0  0  0  0  0  0  0  0  0  0  0  0
    6.0660    0.5210    0.1090 C   0  0  0  0  0  0  0  0  0  0  0  0
    7.2600    1.2370   -0.1770 O   0  0  0  0  0  0  0  0  0  0  0  0
    4.8420    1.1230   -0.3470 C   0  0  0  0  0  0  0  0  0  0  0  0
    3.6720    0.3590   -0.0320 N   0  0  0  0  0  0  0  0  0  0  0  0
    2.3550    0.8090   -0.4120 C   0  0  0  0  0  0  0  0  0  0  0  0
    2.2800    1.8910   -1.0260 O   0  0  0  0  0  0  0  0  0  0  0  0
    1.2320   -0.0200   -0.0560 C   0  0  0  0  0  0  0  0  0  0  0  0
    1.1480   -1.2020    0.5990 C   0  0  0  0  0  0  0  0  0  0  0  0
   -0.0520   -1.7540    0.7920 C   0  0  0  0  0  0  0  0  0  0  0  0
   -1.1470   -1.1060    0.3220 C   0  0  0  0  0  0  0  0  0  0  0  0
   -2.5630   -1.4880    0.4000 C   0  0  0  0  0  0  0  0  0  0  0  0
   -2.9970   -2.5950    0.9790 N   0  0  0  0  0  0  0  0  0  0  0  0
   -4.3340   -2.6240    0.8660 N   0  0  0  0  0  0  0  0  0  0  0  0
   -4.7580   -1.5320    0.2120 C   0  0  0  0  0  0  0  0  0  0  0  0
   -3.6210   -0.8290   -0.0730 N   0  0  0  0  0  0  0  0  0  0  0  0
   -3.7860    0.4050   -0.7850 C   0  0  0  0  0  0  0  0  0  0  0  0
   -4.7040    1.3140    0.0320 C   0  0  0  0  0  0  0  0  0  0  0  0
   -6.1530    0.9500   -0.2280 C   0  0  0  0  0  0  0  0  0  0  0  0
   -6.3470   -0.8680   -0.3100 S   0  0  0  0  0  0  0  0  0  0  0  0
   -0.4830    0.3110   -0.4080 S   0  0  0  0  0  0  0  0  0  0  0  0
  1  2  2  0
  2  3  1  0
  2  4  1  0
  4  5  1  0
  5  6  1  0
  6  7  2  0
  6  8  1  0
  8  9  2  0
  8 21  1  0
  9 10  1  0
 10 11  2  0
 11 12  1  0
 11 21  1  0
 12 13  2  0
 12 16  1  0
 13 14  1  0
 14 15  2  0
 15 16  1  0
 15 20  1  0
 16 17  1  0
 17 18  1  0
 18 19  1  0
 19 20  1  0
M  END
