
     RDKit          3D

 21 23  0  0  0  0  0  0  0  0999 V2000
   -6.5880    0.7820    0.1330 C   0  0  0  0  0  0  0  0  0  0  0  0
   -5.1590    0.3960   -0.1230 C   0  0  0  0  0  0  0  0  0  0  0  0
   -4.7120   -0.7710    0.4320 C   0  0  0  0  0  0  0  0  0  0  0  0
   -3.4190   -1.2080    0.2540 C   0  0  0  0  0  0  0  0  0  0  0  0
   -2.5590   -0.4500   -0.5000 C   0  0  0  0  0  0  0  0  0  0  0  0
   -1.2210   -0.8790   -0.6970 N   0  0  0  0  0  0  0  0  0  0  0  0
   -0.1470   -0.2600   -0.1770 C   0  0  0  0  0  0  0  0  0  0  0  0
    0.9650   -0.9550   -0.5790 C   0  0  0  0  0  0  0  0  0  0  0  0
    2.3340   -0.5850   -0.2100 C   0  0  0  0  0  0  0  0  0  0  0  0
    2.7670    0.4540    0.5550 C   0  0  0  0  0  0  0  0  0  0  0  0
    4.0750    0.5990    0.7600 C   0  0  0  0  0  0  0  0  0  0  0  0
    4.9260   -0.2990    0.1950 C   0  0  0  0  0  0  0  0  0  0  0  0
    6.6670   -0.4450    0.2290 S   0  0  2  0  0  0  0  0  0  0  0  0
    7.3590    0.8010    1.1610 N   0  0  0  0  0  0  0  0  0  0  0  0
    7.2060   -0.4180   -1.1600 O   0  0  0  0  0  0  0  0  0  0  0  0
    6.9720   -1.7610    0.9250 O   0  0  0  0  0  0  0  0  0  0  0  0
    3.8070   -1.3970   -0.6670 S   0  0  0  0  0  0  0  0  0  0  0  0
    0.5430   -1.9750   -1.3310 N   0  0  0  0  0  0  0  0  0  0  0  0
   -0.7850   -1.9250   -1.4000 N   0  0  0  0  0  0  0  0  0  0  0  0
   -3.0270    0.7240   -1.0510 C   0  0  0  0  0  0  0  0  0  0  0  0
   -4.3210    1.1700   -0.8780 C   0  0  0  0  0  0  0  0  0  0  0  0
  1  2  1  0
  2  3  2  0
  2 21  1  0
  3  4  1  0
  4  5  2  0
  5  6  1  0
  5 20  1  0
  6  7  1  0
  6 19  1  0
  7  8  2  0
  8  9  1  0
  8 18  1  0
  9 10  2  0
  9 17  1  0
 10 11  1  0
 11 12  2  0
 12 13  1  0
 12 17  1  0
 13 14  1  1
 13 15  2  0
 13 16  2  0
 18 19  2  0
 20 21  2  0
M  END
