
     RDKit          3D

 20 22  0  0  0  0  0  0  0  0999 V2000
    3.5040   -3.1770    0.6210 O   0  0  0  0  0  0  0  0  0  0  0  0
    3.2510   -1.8270    0.5140 C   0  0  0  0  0  0  0  0  0  0  0  0
    4.1630   -0.9900   -0.1010 C   0  0  0  0  0  0  0  0  0  0  0  0
    3.8830    0.3540   -0.1930 C   0  0  0  0  0  0  0  0  0  0  0  0
    4.8080    1.1710   -0.8120 O   0  0  0  0  0  0  0  0  0  0  0  0
    2.6940    0.8240    0.3340 C   0  0  0  0  0  0  0  0  0  0  0  0
    1.7770    0.0240    0.9440 C   0  0  0  0  0  0  0  0  0  0  0  0
    0.5750    0.5800    1.4630 N   0  0  0  0  0  0  0  0  0  0  0  0
    0.2850    0.8840    2.7140 N   0  0  0  0  0  0  0  0  0  0  0  0
   -0.9330    1.3760    2.7630 N   0  0  0  0  0  0  0  0  0  0  0  0
   -1.4080    1.3810    1.5390 N   0  0  0  0  0  0  0  0  0  0  0  0
   -0.5000    0.8920    0.6910 C   0  0  0  0  0  0  0  0  0  0  0  0
   -0.5790    0.6620   -1.0700 S   0  0  0  0  0  0  0  0  0  0  0  0
   -2.1640    1.1860   -1.7290 C   0  0  0  0  0  0  0  0  0  0  0  0
   -3.3030    0.2880   -1.2500 C   0  0  0  0  0  0  0  0  0  0  0  0
   -4.0660    0.5200   -0.1990 C   0  0  0  0  0  0  0  0  0  0  0  0
   -5.0610   -0.3720    0.1450 C   0  0  0  0  0  0  0  0  0  0  0  0
   -4.9030   -1.6450   -1.1270 S   0  0  0  0  0  0  0  0  0  0  0  0
   -3.5280   -0.8700   -1.9960 C   0  0  0  0  0  0  0  0  0  0  0  0
    2.0690   -1.3210    1.0310 C   0  0  0  0  0  0  0  0  0  0  0  0
  1  2  1  0
  2  3  2  0
  2 20  1  0
  3  4  1  0
  4  5  1  0
  4  6  2  0
  6  7  1  0
  7  8  1  0
  7 20  2  0
  8  9  1  0
  8 12  1  0
  9 10  2  0
 10 11  1  0
 11 12  2  0
 12 13  1  0
 13 14  1  0
 14 15  1  0
 15 16  1  0
 15 19  2  0
 16 17  2  0
 17 18  1  0
 18 19  1  0
M  END
