
     RDKit          3D

 21 23  0  0  0  0  0  0  0  0999 V2000
    6.5470    1.8170    0.5970 C   0  0  0  0  0  0  0  0  0  0  0  0
    5.6550    0.6630    0.2460 C   0  0  0  0  0  0  0  0  0  0  0  0
    5.7040   -0.2960   -0.7160 C   0  0  0  0  0  0  0  0  0  0  0  0
    4.6810   -1.1660   -0.8060 C   0  0  0  0  0  0  0  0  0  0  0  0
    3.6500   -1.0710    0.0450 C   0  0  0  0  0  0  0  0  0  0  0  0
    2.3770   -1.7510    0.1560 C   0  0  0  0  0  0  0  0  0  0  0  0
    1.8620   -2.7860   -0.3590 N   0  0  0  0  0  0  0  0  0  0  0  0
    0.5380   -2.8560   -0.0810 N   0  0  0  0  0  0  0  0  0  0  0  0
    0.2480   -1.8030    0.6480 C   0  0  0  0  0  0  0  0  0  0  0  0
   -1.3290   -1.3070    1.3260 S   0  0  0  0  0  0  0  0  0  0  0  0
   -2.4140   -0.7820   -0.0250 C   0  0  0  0  0  0  0  0  0  0  0  0
   -3.3290    0.3140    0.3590 C   0  0  0  0  0  0  0  0  0  0  0  0
   -2.9070    1.5100    0.7270 N   0  0  0  0  0  0  0  0  0  0  0  0
   -3.7740    2.5510    0.8560 C   0  0  0  0  0  0  0  0  0  0  0  0
   -5.1250    2.4190    0.6160 C   0  0  0  0  0  0  0  0  0  0  0  0
   -5.5860    1.1550    0.2120 C   0  0  0  0  0  0  0  0  0  0  0  0
   -6.9070    0.9810   -0.0220 O   0  0  0  0  0  0  0  0  0  0  0  0
   -4.6680    0.1620    0.1050 C   0  0  0  0  0  0  0  0  0  0  0  0
   -5.0520   -1.1540   -0.3070 O   0  0  0  0  0  0  0  0  0  0  0  0
    1.3800   -1.0440    0.8320 N   0  0  0  0  0  0  0  0  0  0  0  0
    4.1060    0.3180    1.0560 S   0  0  0  0  0  0  0  0  0  0  0  0
  1  2  1  0
  2  3  2  0
  2 21  1  0
  3  4  1  0
  4  5  2  0
  5  6  1  0
  5 21  1  0
  6  7  2  0
  6 20  1  0
  7  8  1  0
  8  9  1  0
  9 10  1  0
  9 20  2  0
 10 11  1  0
 11 12  1  0
 12 13  2  0
 12 18  1  0
 13 14  1  0
 14 15  2  0
 15 16  1  0
 16 17  1  0
 16 18  2  0
 18 19  1  0
M  END
