
     RDKit          3D

 21 23  0  0  0  0  0  0  0  0999 V2000
   -6.4360    0.1520   -1.0730 N   0  0  0  0  0  0  0  0  0  0  0  0
   -5.1890   -0.0570   -0.4110 C   0  0  0  0  0  0  0  0  0  0  0  0
   -5.1370   -0.7480    0.6850 N   0  0  0  0  0  0  0  0  0  0  0  0
   -3.9040   -0.9720    1.3680 C   0  0  0  0  0  0  0  0  0  0  0  0
   -3.9030   -1.6470    2.4270 O   0  0  0  0  0  0  0  0  0  0  0  0
   -2.6280   -0.4290    0.8600 C   0  0  0  0  0  0  0  0  0  0  0  0
   -1.5410   -0.6850    1.4850 C   0  0  0  0  0  0  0  0  0  0  0  0
   -0.2470   -0.2010    1.0820 C   0  0  0  0  0  0  0  0  0  0  0  0
    0.3190    1.0390    0.8290 C   0  0  0  0  0  0  0  0  0  0  0  0
    1.6090    1.0470    0.4250 C   0  0  0  0  0  0  0  0  0  0  0  0
    2.2830   -0.0630    0.2830 C   0  0  0  0  0  0  0  0  0  0  0  0
    3.7300   -0.3180   -0.1530 C   0  0  0  0  0  0  0  0  0  0  0  0
    4.4640    0.7200   -0.4470 C   0  0  0  0  0  0  0  0  0  0  0  0
    5.8710    0.7120   -0.8870 C   0  0  0  0  0  0  0  0  0  0  0  0
    6.5260   -0.9530   -0.9870 S   0  0  0  0  0  0  0  0  0  0  0  0
    5.2970   -2.0860   -0.5320 N   0  0  0  0  0  0  0  0  0  0  0  0
    4.1360   -1.7110   -0.1930 C   0  0  0  0  0  0  0  0  0  0  0  0
    1.1400   -1.3000    0.7180 S   0  0  0  0  0  0  0  0  0  0  0  0
   -2.7250    0.3270   -0.3540 C   0  0  0  0  0  0  0  0  0  0  0  0
   -1.7380    0.8390   -0.9020 O   0  0  0  0  0  0  0  0  0  0  0  0
   -4.0190    0.5060   -0.9810 N   0  0  0  0  0  0  0  0  0  0  0  0
  1  2  1  0
  2  3  2  0
  2 21  1  0
  3  4  1  0
  4  5  2  0
  4  6  1  0
  6  7  2  3
  6 19  1  0
  7  8  1  0
  8  9  2  0
  8 18  1  0
  9 10  1  0
 10 11  2  0
 11 12  1  0
 11 18  1  0
 12 13  2  0
 12 17  1  0
 13 14  1  0
 14 15  1  0
 15 16  1  0
 16 17  2  0
 19 20  2  0
 19 21  1  0
M  END
