
     RDKit          3D

 16 18  0  0  0  0  0  0  0  0999 V2000
   -3.7100   -1.4090    1.1280 C   0  0  0  0  0  0  0  0  0  0  0  0
   -2.6540   -0.6110    0.4460 C   0  0  0  0  0  0  0  0  0  0  0  0
   -1.2910   -0.7650    0.5770 C   0  0  0  0  0  0  0  0  0  0  0  0
   -0.7040    0.1800   -0.2310 C   0  0  0  0  0  0  0  0  0  0  0  0
    0.7480    0.4100   -0.4290 C   0  0  0  0  0  0  0  0  0  0  0  0
    1.2360    1.3780   -1.3060 C   0  0  0  0  0  0  0  0  0  0  0  0
    0.4570    2.2510   -2.1020 N   0  0  0  0  0  0  0  0  0  0  0  0
    2.6090    1.2970   -1.2260 C   0  0  0  0  0  0  0  0  0  0  0  0
    2.9430    0.3070   -0.3260 C   0  0  0  0  0  0  0  0  0  0  0  0
    1.7850   -0.2120    0.1410 N   0  0  0  0  0  0  0  0  0  0  0  0
    2.0740   -1.2600    1.1070 C   0  0  0  0  0  0  0  0  0  0  0  0
    3.4840   -0.8890    1.5880 C   0  0  0  0  0  0  0  0  0  0  0  0
    4.0940   -0.3910    0.3040 C   0  0  0  0  0  0  0  0  0  0  0  0
   -1.6750    0.8450   -0.7990 O   0  0  0  0  0  0  0  0  0  0  0  0
   -2.8390    0.4210   -0.4360 C   0  0  0  0  0  0  0  0  0  0  0  0
   -4.1950    0.9130   -0.8550 C   0  0  0  0  0  0  0  0  0  0  0  0
  1  2  1  0
  2  3  1  0
  2 15  2  0
  3  4  2  0
  4  5  1  0
  4 14  1  0
  5  6  2  0
  5 10  1  0
  6  7  1  0
  6  8  1  0
  8  9  2  0
  9 10  1  0
  9 13  1  0
 10 11  1  0
 11 12  1  0
 12 13  1  0
 14 15  1  0
 15 16  1  0
M  END
