
     RDKit          3D

 16 17  0  0  0  0  0  0  0  0999 V2000
   -3.0180   -0.8140   -1.4640 C   0  0  0  0  0  0  0  0  0  0  0  0
   -2.0260   -0.4270   -0.7130 C   0  0  0  0  0  0  0  0  0  0  0  0
   -0.9000   -1.3320   -0.6030 N   0  0  0  0  0  0  0  0  0  0  0  0
    0.4500   -0.9200   -0.3260 C   0  0  0  0  0  0  0  0  0  0  0  0
    1.3190   -1.9720   -0.3650 C   0  0  0  0  0  0  0  0  0  0  0  0
    2.6710   -1.7740   -0.1230 C   0  0  0  0  0  0  0  0  0  0  0  0
    3.1890   -0.5280    0.1630 C   0  0  0  0  0  0  0  0  0  0  0  0
    4.5470   -0.3900    0.3960 O   0  0  0  0  0  0  0  0  0  0  0  0
    5.1900    0.8060    0.6940 C   0  0  0  0  0  0  0  0  0  0  0  0
    2.3010    0.5270    0.2000 C   0  0  0  0  0  0  0  0  0  0  0  0
    0.9320    0.3390   -0.0430 C   0  0  0  0  0  0  0  0  0  0  0  0
    0.2290    1.5730    0.0520 N   0  0  0  0  0  0  0  0  0  0  0  0
   -1.0490    1.8390    0.0490 C   0  0  0  0  0  0  0  0  0  0  0  0
   -2.1310    0.8620   -0.0600 C   0  0  0  0  0  0  0  0  0  0  0  0
   -3.2660    1.1620    0.5160 C   0  0  0  0  0  0  0  0  0  0  0  0
   -4.4990    0.3800    0.6220 C   0  0  0  0  0  0  0  0  0  0  0  0
  1  2  2  0
  2  3  1  0
  2 14  1  0
  3  4  1  0
  4  5  2  0
  4 11  1  0
  5  6  1  0
  6  7  2  0
  7  8  1  0
  7 10  1  0
  8  9  1  0
 10 11  2  0
 11 12  1  0
 12 13  2  0
 13 14  1  0
 14 15  2  3
 15 16  1  0
M  END
