
     RDKit          3D

 16 18  0  0  0  0  0  0  0  0999 V2000
   -4.4580   -0.1610   -0.3550 C   0  0  0  0  0  0  0  0  0  0  0  0
   -2.9680   -0.2330   -0.2430 C   0  0  0  0  0  0  0  0  0  0  0  0
   -2.1580    0.8620   -0.2310 C   0  0  0  0  0  0  0  0  0  0  0  0
   -0.7900    0.7310   -0.1260 C   0  0  0  0  0  0  0  0  0  0  0  0
    0.0510    1.8210   -0.1120 C   0  0  0  0  0  0  0  0  0  0  0  0
    1.4180    1.6370   -0.0040 C   0  0  0  0  0  0  0  0  0  0  0  0
    2.3000    2.7150    0.0130 O   0  0  0  0  0  0  0  0  0  0  0  0
    1.9050    0.3530    0.0860 C   0  0  0  0  0  0  0  0  0  0  0  0
    3.2850    0.1990    0.1940 C   0  0  0  0  0  0  0  0  0  0  0  0
    3.7520   -1.0950    0.2830 C   0  0  0  0  0  0  0  0  0  0  0  0
    2.9170   -2.1930    0.2700 C   0  0  0  0  0  0  0  0  0  0  0  0
    1.5870   -2.0220    0.1660 N   0  0  0  0  0  0  0  0  0  0  0  0
    1.0980   -0.7710    0.0760 C   0  0  0  0  0  0  0  0  0  0  0  0
   -0.2680   -0.5500   -0.0330 C   0  0  0  0  0  0  0  0  0  0  0  0
   -1.1160   -1.6320   -0.0480 C   0  0  0  0  0  0  0  0  0  0  0  0
   -2.4300   -1.4560   -0.1510 N   0  0  0  0  0  0  0  0  0  0  0  0
  1  2  1  0
  2  3  2  0
  2 16  1  0
  3  4  1  0
  4  5  2  0
  4 14  1  0
  5  6  1  0
  6  7  1  0
  6  8  2  0
  8  9  1  0
  8 13  1  0
  9 10  2  0
 10 11  1  0
 11 12  2  0
 12 13  1  0
 13 14  2  0
 14 15  1  0
 15 16  2  0
M  END
