
     RDKit          3D

 16 18  0  0  0  0  0  0  0  0999 V2000
   -4.2180    0.1850   -0.4930 C   0  0  0  0  0  0  0  0  0  0  0  0
   -4.3600    1.5480   -0.3340 C   0  0  0  0  0  0  0  0  0  0  0  0
   -3.4050    2.1790    0.3780 N   0  0  0  0  0  0  0  0  0  0  0  0
   -2.3500    1.5460    0.9220 C   0  0  0  0  0  0  0  0  0  0  0  0
   -2.1800    0.1850    0.7810 C   0  0  0  0  0  0  0  0  0  0  0  0
   -1.0770   -0.4310    1.3580 O   0  0  0  0  0  0  0  0  0  0  0  0
    0.1310   -0.6070    0.7450 C   0  0  0  0  0  0  0  0  0  0  0  0
    0.3930   -1.7500    0.0050 C   0  0  0  0  0  0  0  0  0  0  0  0
    1.6130   -1.9200   -0.6100 C   0  0  0  0  0  0  0  0  0  0  0  0
    2.5970   -0.9570   -0.5020 C   0  0  0  0  0  0  0  0  0  0  0  0
    3.8730   -0.8230   -0.9740 C   0  0  0  0  0  0  0  0  0  0  0  0
    4.3900    0.3840   -0.5320 C   0  0  0  0  0  0  0  0  0  0  0  0
    3.4270    0.9810    0.2070 N   0  0  0  0  0  0  0  0  0  0  0  0
    2.3500    0.1990    0.2390 C   0  0  0  0  0  0  0  0  0  0  0  0
    1.1220    0.3590    0.8510 C   0  0  0  0  0  0  0  0  0  0  0  0
   -3.1380   -0.4960    0.0580 C   0  0  0  0  0  0  0  0  0  0  0  0
  1  2  2  0
  1 16  1  0
  2  3  1  0
  3  4  2  0
  4  5  1  0
  5  6  1  0
  5 16  2  0
  6  7  1  0
  7  8  2  0
  7 15  1  0
  8  9  1  0
  9 10  2  0
 10 11  1  0
 10 14  1  0
 11 12  2  0
 12 13  1  0
 13 14  1  0
 14 15  2  0
M  END
