
     RDKit          3D

 16 18  0  0  0  0  0  0  0  0999 V2000
   -2.9080    1.8320   -0.0260 C   0  0  0  0  0  0  0  0  0  0  0  0
   -2.4450    0.4540   -0.1540 C   0  0  0  0  0  0  0  0  0  0  0  0
   -3.3970   -0.5250   -0.2100 N   0  0  0  0  0  0  0  0  0  0  0  0
   -3.0710   -1.7800   -0.3230 N   0  0  0  0  0  0  0  0  0  0  0  0
   -1.7910   -2.2020   -0.3920 C   0  0  0  0  0  0  0  0  0  0  0  0
   -1.4830   -3.4150   -0.5010 O   0  0  0  0  0  0  0  0  0  0  0  0
   -0.8000   -1.2400   -0.3380 C   0  0  0  0  0  0  0  0  0  0  0  0
    0.5350   -1.5960   -0.4030 C   0  0  0  0  0  0  0  0  0  0  0  0
    1.5390   -0.6720   -0.3530 C   0  0  0  0  0  0  0  0  0  0  0  0
    2.8560   -1.0680   -0.4210 C   0  0  0  0  0  0  0  0  0  0  0  0
    3.8240   -0.0900   -0.3650 C   0  0  0  0  0  0  0  0  0  0  0  0
    3.4990    1.2560   -0.2440 C   0  0  0  0  0  0  0  0  0  0  0  0
    2.1870    1.6170   -0.1790 C   0  0  0  0  0  0  0  0  0  0  0  0
    1.1900    0.6770   -0.2310 C   0  0  0  0  0  0  0  0  0  0  0  0
   -0.1600    1.0330   -0.1660 C   0  0  0  0  0  0  0  0  0  0  0  0
   -1.1180    0.0770   -0.2200 C   0  0  0  0  0  0  0  0  0  0  0  0
  1  2  1  0
  2  3  2  0
  2 16  1  0
  3  4  1  0
  4  5  1  0
  5  6  2  0
  5  7  1  0
  7  8  2  0
  7 16  1  0
  8  9  1  0
  9 10  2  0
  9 14  1  0
 10 11  1  0
 11 12  2  0
 12 13  1  0
 13 14  2  0
 14 15  1  0
 15 16  2  0
M  END
