
     RDKit          3D

 16 17  0  0  0  0  0  0  0  0999 V2000
   -2.7300   -2.3490    1.9180 C   0  0  0  0  0  0  0  0  0  0  0  0
   -2.2670   -1.4200    1.0810 C   0  0  0  0  0  0  0  0  0  0  0  0
   -0.8250   -1.1960    0.9810 C   0  0  0  0  0  0  0  0  0  0  0  0
   -0.3050   -0.2800    0.1620 C   0  0  0  0  0  0  0  0  0  0  0  0
    1.1110   -0.1110    0.1110 N   0  0  0  0  0  0  0  0  0  0  0  0
    1.9460   -0.2920   -1.0580 C   0  0  0  0  0  0  0  0  0  0  0  0
    3.1590   -0.9630   -0.3900 C   0  0  0  0  0  0  0  0  0  0  0  0
    3.3780    0.0420    0.7490 C   0  0  0  0  0  0  0  0  0  0  0  0
    1.9680    0.2550    1.1820 C   0  0  0  0  0  0  0  0  0  0  0  0
    1.6220    0.6860    2.3090 O   0  0  0  0  0  0  0  0  0  0  0  0
   -1.1340    0.5560   -0.6870 C   0  0  0  0  0  0  0  0  0  0  0  0
   -0.5850    1.5770   -1.6070 C   0  0  0  0  0  0  0  0  0  0  0  0
    0.2010    2.6520   -0.9300 C   0  0  0  0  0  0  0  0  0  0  0  0
   -2.4400    0.3960   -0.6370 C   0  0  0  0  0  0  0  0  0  0  0  0
   -3.1080   -0.5900    0.2370 C   0  0  0  0  0  0  0  0  0  0  0  0
   -4.3710   -0.7210    0.2630 N   0  0  0  0  0  0  0  0  0  0  0  0
  1  2  2  0
  2  3  1  0
  2 15  1  0
  3  4  2  0
  4  5  1  0
  4 11  1  0
  5  6  1  0
  5  9  1  0
  6  7  1  0
  7  8  1  0
  8  9  1  0
  9 10  2  0
 11 12  1  0
 11 14  2  0
 12 13  1  0
 14 15  1  0
 15 16  2  0
M  END
