
     RDKit          3D

 16 18  0  0  0  0  0  0  0  0999 V2000
   -0.5140   -1.2400   -1.7180 C   0  0  0  0  0  0  0  0  0  0  0  0
   -0.8120   -0.4310   -0.4860 C   0  0  0  0  0  0  0  0  0  0  0  0
    0.1450    0.1050    0.3360 C   0  0  0  0  0  0  0  0  0  0  0  0
    1.6040    0.0400    0.2460 C   0  0  0  0  0  0  0  0  0  0  0  0
    2.3460   -0.2360    1.3790 C   0  0  0  0  0  0  0  0  0  0  0  0
    3.7260   -0.3050    1.3360 C   0  0  0  0  0  0  0  0  0  0  0  0
    4.4180   -0.1010    0.1570 C   0  0  0  0  0  0  0  0  0  0  0  0
    3.6750    0.1750   -0.9730 C   0  0  0  0  0  0  0  0  0  0  0  0
    4.3100    0.3920   -2.2000 O   0  0  0  0  0  0  0  0  0  0  0  0
    2.2900    0.2450   -0.9330 C   0  0  0  0  0  0  0  0  0  0  0  0
   -0.5400    0.7420    1.3040 N   0  0  0  0  0  0  0  0  0  0  0  0
   -1.8460    0.6220    1.1140 C   0  0  0  0  0  0  0  0  0  0  0  0
   -2.0190   -0.1080   -0.0000 N   0  0  0  0  0  0  0  0  0  0  0  0
   -3.4340   -0.2860   -0.2810 C   0  0  0  0  0  0  0  0  0  0  0  0
   -4.0730    0.8730    0.4740 C   0  0  0  0  0  0  0  0  0  0  0  0
   -3.1800    1.0040    1.6890 C   0  0  0  0  0  0  0  0  0  0  0  0
  1  2  1  0
  2  3  2  0
  2 13  1  0
  3  4  1  0
  3 11  1  0
  4  5  2  0
  4 10  1  0
  5  6  1  0
  6  7  2  0
  7  8  1  0
  8  9  1  0
  8 10  2  0
 11 12  2  0
 12 13  1  0
 12 16  1  0
 13 14  1  0
 14 15  1  0
 15 16  1  0
M  END
