
     RDKit          3D

 14 15  0  0  0  0  0  0  0  0999 V2000
   -4.3700    2.0540    0.3130 Cl  0  0  0  0  0  0  0  0  0  0  0  0
   -2.9870    0.9530    0.2210 C   0  0  0  0  0  0  0  0  0  0  0  0
   -1.7870    1.3800    0.7570 C   0  0  0  0  0  0  0  0  0  0  0  0
   -0.7090    0.4910    0.6730 C   0  0  0  0  0  0  0  0  0  0  0  0
   -0.8340   -0.7410    0.0880 C   0  0  0  0  0  0  0  0  0  0  0  0
    0.2520   -1.5810    0.0260 O   0  0  0  0  0  0  0  0  0  0  0  0
    1.5380   -1.3610    0.4880 C   0  0  0  0  0  0  0  0  0  0  0  0
    2.2230   -0.2040   -0.1430 C   0  0  0  0  0  0  0  0  0  0  0  0
    1.8610    0.5840   -1.1710 N   0  0  0  0  0  0  0  0  0  0  0  0
    2.8000    1.4990   -1.3820 N   0  0  0  0  0  0  0  0  0  0  0  0
    3.7590    1.2850   -0.4800 N   0  0  0  0  0  0  0  0  0  0  0  0
    3.4160    0.2590    0.2700 N   0  0  0  0  0  0  0  0  0  0  0  0
   -2.0510   -1.1120   -0.4280 C   0  0  0  0  0  0  0  0  0  0  0  0
   -3.1580   -0.2780   -0.3760 C   0  0  0  0  0  0  0  0  0  0  0  0
  1  2  1  0
  2  3  2  0
  2 14  1  0
  3  4  1  0
  4  5  2  0
  5  6  1  0
  5 13  1  0
  6  7  1  0
  7  8  1  0
  8  9  2  0
  8 12  1  0
  9 10  1  0
 10 11  2  0
 11 12  1  0
 13 14  2  0
M  END
