
     RDKit          3D

 27 29  0  0  0  0  0  0  0  0999 V2000
   -4.1430    2.8110   -0.4580 C   0  0  0  0  0  0  0  0  0  0  0  0
   -3.6500    1.6850   -0.9100 C   0  0  0  0  0  0  0  0  0  0  0  0
   -2.9000    1.5310   -2.1740 C   0  0  0  0  0  0  0  0  0  0  0  0
   -1.4680    1.1800   -1.7890 C   0  0  0  0  0  0  0  0  0  0  0  0
   -1.3860    0.4930   -0.4360 C   0  0  2  0  0  0  0  0  0  0  0  0
   -0.1190   -0.2600   -0.2900 C   0  0  0  0  0  0  0  0  0  0  0  0
    0.9780    0.2030    0.3830 N   0  0  0  0  0  0  0  0  0  0  0  0
    1.9710   -0.7020    0.3420 C   0  0  0  0  0  0  0  0  0  0  0  0
    3.3240   -0.5660    0.9580 C   0  0  0  0  0  0  0  0  0  0  0  0
    4.1140   -1.7460    0.7160 N   0  0  0  0  0  0  0  0  0  0  0  0
    5.6540   -1.4530    1.4830 S   0  0  1  0  0  0  0  0  0  0  0  0
    5.4500   -1.1640    2.9420 O   0  0  0  0  0  0  0  0  0  0  0  0
    6.4750   -2.6890    1.2550 O   0  0  0  0  0  0  0  0  0  0  0  0
    6.3570   -0.0640    0.7090 C   0  0  0  0  0  0  0  0  0  0  0  0
    6.1810    1.2370    1.0980 C   0  0  0  0  0  0  0  0  0  0  0  0
    6.8870    2.0140    0.2450 N   0  0  0  0  0  0  0  0  0  0  0  0
    7.4770    1.2350   -0.6340 N   0  0  0  0  0  0  0  0  0  0  0  0
    7.1790   -0.0650   -0.3900 C   0  0  0  0  0  0  0  0  0  0  0  0
    1.4640   -1.7250   -0.3670 N   0  0  0  0  0  0  0  0  0  0  0  0
    0.2500   -1.4370   -0.7190 O   0  0  0  0  0  0  0  0  0  0  0  0
   -2.5750   -0.3340   -0.1920 N   0  0  0  0  0  0  0  0  0  0  0  0
   -2.4940   -1.7070   -0.0790 C   0  0  0  0  0  0  0  0  0  0  0  0
   -3.6990   -2.5660    0.0010 C   0  0  0  0  0  0  0  0  0  0  0  0
   -3.7950    0.4470   -0.1110 C   0  0  0  0  0  0  0  0  0  0  0  0
   -4.8660    0.0990    0.4950 C   0  0  0  0  0  0  0  0  0  0  0  0
   -6.1430    0.8270    0.5000 C   0  0  0  0  0  0  0  0  0  0  0  0
   -7.5610   -0.4150   -0.1510 Br  0  0  0  0  0  0  0  0  0  0  0  0
  1  2  2  0
  2  3  1  0
  2 24  1  0
  3  4  1  0
  4  5  1  0
  5  6  1  6
  5 21  1  0
  6  7  2  0
  6 20  1  0
  7  8  1  0
  8  9  1  0
  8 19  2  0
  9 10  1  0
 11 10  1  6
 11 12  2  0
 11 13  2  0
 11 14  1  0
 14 15  1  0
 14 18  2  0
 15 16  2  0
 16 17  1  0
 17 18  1  0
 19 20  1  0
 21 22  1  0
 21 24  1  0
 22 23  1  0
 24 25  2  3
 25 26  1  0
 26 27  1  0
M  END
