
     RDKit          3D

 27 29  0  0  0  0  0  0  0  0999 V2000
   -4.0440   -2.3870   -1.3070 C   0  0  0  0  0  0  0  0  0  0  0  0
   -3.3800   -1.3240   -0.5990 N   0  0  0  0  0  0  0  0  0  0  0  0
   -2.0510   -1.3360   -0.3830 C   0  0  0  0  0  0  0  0  0  0  0  0
   -1.3060   -2.4410   -0.8790 N   0  0  0  0  0  0  0  0  0  0  0  0
   -1.3770   -0.3450    0.2860 C   0  0  0  0  0  0  0  0  0  0  0  0
    0.0570   -0.3840    0.5040 C   0  0  0  0  0  0  0  0  0  0  0  0
    0.5610   -0.9800    1.6360 C   0  0  0  0  0  0  0  0  0  0  0  0
    1.8990   -1.0540    1.9060 C   0  0  0  0  0  0  0  0  0  0  0  0
    2.7910   -0.4880    0.9740 C   0  0  0  0  0  0  0  0  0  0  0  0
    4.1410   -0.5490    1.2220 O   0  0  0  0  0  0  0  0  0  0  0  0
    5.1930   -0.0900    0.5010 C   0  0  0  0  0  0  0  0  0  0  0  0
    5.0750    0.5650   -0.6980 C   0  0  0  0  0  0  0  0  0  0  0  0
    6.2430    0.9790   -1.3270 C   0  0  0  0  0  0  0  0  0  0  0  0
    7.4760    0.7490   -0.7840 C   0  0  0  0  0  0  0  0  0  0  0  0
    9.1000    1.3180   -1.6480 Br  0  0  0  0  0  0  0  0  0  0  0  0
    7.5880    0.1060    0.3910 N   0  0  0  0  0  0  0  0  0  0  0  0
    6.4850   -0.3080    1.0270 C   0  0  0  0  0  0  0  0  0  0  0  0
    2.2300    0.0740   -0.1020 N   0  0  0  0  0  0  0  0  0  0  0  0
    0.9550    0.1350   -0.3430 N   0  0  0  0  0  0  0  0  0  0  0  0
   -2.1120    0.7320    0.7680 C   0  0  0  0  0  0  0  0  0  0  0  0
   -1.5610    1.6680    1.3860 O   0  0  0  0  0  0  0  0  0  0  0  0
   -3.4500    0.7330    0.5450 N   0  0  0  0  0  0  0  0  0  0  0  0
   -4.2880    1.8260    1.0190 C   0  0  0  0  0  0  0  0  0  0  0  0
   -4.4020    2.9220   -0.0160 C   0  0  0  0  0  0  0  0  0  0  0  0
   -5.1310    2.3090   -1.5560 S   0  0  0  0  0  0  0  0  0  0  0  0
   -4.0590   -0.2640   -0.1170 C   0  0  0  0  0  0  0  0  0  0  0  0
   -5.3120   -0.2490   -0.3180 O   0  0  0  0  0  0  0  0  0  0  0  0
  1  2  1  0
  2  3  1  0
  2 26  1  0
  3  4  1  0
  3  5  2  0
  5  6  1  0
  5 20  1  0
  6  7  2  0
  6 19  1  0
  7  8  1  0
  8  9  2  0
  9 10  1  0
  9 18  1  0
 10 11  1  0
 11 12  2  0
 11 17  1  0
 12 13  1  0
 13 14  2  0
 14 15  1  0
 14 16  1  0
 16 17  2  0
 18 19  2  0
 20 21  2  0
 20 22  1  0
 22 23  1  0
 22 26  1  0
 23 24  1  0
 24 25  1  0
 26 27  2  0
M  END
