
     RDKit          3D

 27 29  0  0  0  0  0  0  0  0999 V2000
   -2.8060    1.2010    1.1510 C   0  0  0  0  0  0  0  0  0  0  0  0
   -2.6180   -0.1710    0.6260 C   0  0  0  0  0  0  0  0  0  0  0  0
   -2.3420   -0.2330   -0.8230 N   0  0  0  0  0  0  0  0  0  0  0  0
   -1.1550   -0.1700   -1.3290 C   0  0  0  0  0  0  0  0  0  0  0  0
    0.1040    0.0350   -0.5790 C   0  0  0  0  0  0  0  0  0  0  0  0
    0.0360    0.2870    0.6390 O   0  0  0  0  0  0  0  0  0  0  0  0
    1.3670   -0.0410   -1.1750 N   0  0  0  0  0  0  0  0  0  0  0  0
    2.5480    0.1760   -0.3510 C   0  0  0  0  0  0  0  0  0  0  0  0
    3.8070    0.0510   -1.1730 C   0  0  0  0  0  0  0  0  0  0  0  0
    4.9430    0.2920   -0.2250 C   0  0  0  0  0  0  0  0  0  0  0  0
    5.5200    1.5090    0.0640 C   0  0  0  0  0  0  0  0  0  0  0  0
    6.4600    1.2870    0.9230 O   0  0  0  0  0  0  0  0  0  0  0  0
    6.5470    0.0230    1.2220 C   0  0  0  0  0  0  0  0  0  0  0  0
    7.5170   -0.6150    2.1800 C   0  0  0  0  0  0  0  0  0  0  0  0
    8.6860   -0.9940    1.5080 O   0  0  0  0  0  0  0  0  0  0  0  0
    5.6060   -0.6150    0.5130 N   0  0  0  0  0  0  0  0  0  0  0  0
   -1.0250   -0.2740   -2.7250 C   0  0  0  0  0  0  0  0  0  0  0  0
   -2.6940   -0.4640   -3.2830 S   0  0  0  0  0  0  0  0  0  0  0  0
   -3.4120   -0.3940   -1.6600 C   0  0  0  0  0  0  0  0  0  0  0  0
   -4.6720   -0.4840   -1.4780 N   0  0  0  0  0  0  0  0  0  0  0  0
   -5.5260   -0.4640   -0.4210 C   0  0  0  0  0  0  0  0  0  0  0  0
   -5.8880    0.7500    0.0890 N   0  0  0  0  0  0  0  0  0  0  0  0
   -6.7310    0.8930    1.1230 C   0  0  0  0  0  0  0  0  0  0  0  0
   -7.2730   -0.2280    1.7190 C   0  0  0  0  0  0  0  0  0  0  0  0
   -6.9240   -1.4660    1.2220 C   0  0  0  0  0  0  0  0  0  0  0  0
   -7.6740   -3.0170    2.0480 Br  0  0  0  0  0  0  0  0  0  0  0  0
   -6.0770   -1.5440    0.1870 N   0  0  0  0  0  0  0  0  0  0  0  0
  1  2  1  0
  2  3  1  0
  3  4  1  0
  3 19  1  0
  4  5  1  0
  4 17  2  0
  5  6  2  0
  5  7  1  0
  7  8  1  0
  8  9  1  0
  9 10  1  0
 10 11  2  0
 10 16  1  0
 11 12  1  0
 12 13  1  0
 13 14  1  0
 13 16  2  0
 14 15  1  0
 17 18  1  0
 18 19  1  0
 19 20  2  3
 20 21  1  0
 21 22  2  0
 21 27  1  0
 22 23  1  0
 23 24  2  0
 24 25  1  0
 25 26  1  0
 25 27  2  0
M  END
