
     RDKit          3D

 27 29  0  0  0  0  0  0  0  0999 V2000
   -8.0360    2.0020    0.1970 C   0  0  0  0  0  0  0  0  0  0  0  0
   -7.2380    0.7760    0.3480 C   0  0  0  0  0  0  0  0  0  0  0  0
   -7.7750   -0.1780    0.9620 O   0  0  0  0  0  0  0  0  0  0  0  0
   -5.9390    0.6370   -0.1510 N   0  0  0  0  0  0  0  0  0  0  0  0
   -5.0780   -0.4790   -0.0720 C   0  0  0  0  0  0  0  0  0  0  0  0
   -5.4770   -1.6550    0.4820 C   0  0  0  0  0  0  0  0  0  0  0  0
   -4.5990   -2.7300    0.5400 C   0  0  0  0  0  0  0  0  0  0  0  0
   -3.3790   -2.5780    0.0470 N   0  0  0  0  0  0  0  0  0  0  0  0
   -2.9590   -1.4360   -0.5010 N   0  0  0  0  0  0  0  0  0  0  0  0
   -1.5970   -1.3330   -0.9970 C   0  0  0  0  0  0  0  0  0  0  0  0
   -0.8610   -1.4290   -1.9030 N   0  0  0  0  0  0  0  0  0  0  0  0
    0.4090   -1.2130   -1.9280 N   0  0  0  0  0  0  0  0  0  0  0  0
    1.0530   -0.8570   -0.9470 C   0  0  0  0  0  0  0  0  0  0  0  0
    2.4180   -0.5130   -0.5630 C   0  0  0  0  0  0  0  0  0  0  0  0
    2.7200   -0.1720    0.7400 C   0  0  0  0  0  0  0  0  0  0  0  0
    4.0050    0.1710    1.0880 C   0  0  0  0  0  0  0  0  0  0  0  0
    5.0570    0.1950    0.1610 C   0  0  0  0  0  0  0  0  0  0  0  0
    6.3200    0.5540    0.6610 N   0  0  0  0  0  0  0  0  0  0  0  0
    7.4160    0.9780   -0.1260 C   0  0  0  0  0  0  0  0  0  0  0  0
    7.2980    1.0590   -1.3620 O   0  0  0  0  0  0  0  0  0  0  0  0
    8.7310    1.3360    0.5430 C   0  0  0  0  0  0  0  0  0  0  0  0
    8.5660    3.1840    1.1600 Br  0  0  0  0  0  0  0  0  0  0  0  0
    4.7300   -0.1470   -1.1200 C   0  0  0  0  0  0  0  0  0  0  0  0
    3.4320   -0.4980   -1.4840 C   0  0  0  0  0  0  0  0  0  0  0  0
   -0.3150   -0.7800    0.3290 S   0  0  0  0  0  0  0  0  0  0  0  0
   -3.7780   -0.3820   -0.5740 C   0  0  0  0  0  0  0  0  0  0  0  0
   -3.3970    0.7010   -1.0890 O   0  0  0  0  0  0  0  0  0  0  0  0
  1  2  1  0
  2  3  2  0
  2  4  1  0
  4  5  1  0
  5  6  2  0
  5 26  1  0
  6  7  1  0
  7  8  2  0
  8  9  1  0
  9 10  1  0
  9 26  1  0
 10 11  2  0
 10 25  1  0
 11 12  1  0
 12 13  2  0
 13 14  1  0
 13 25  1  0
 14 15  2  0
 14 24  1  0
 15 16  1  0
 16 17  2  0
 17 18  1  0
 17 23  1  0
 18 19  1  0
 19 20  2  0
 19 21  1  0
 21 22  1  0
 23 24  2  0
 26 27  2  0
M  END
