
     RDKit          3D

 27 29  0  0  0  0  0  0  0  0999 V2000
   -4.9700    2.3410   -1.2980 N   0  0  0  0  0  0  0  0  0  0  0  0
   -4.2170    2.0630   -0.1080 C   0  0  0  0  0  0  0  0  0  0  0  0
   -3.4480    0.7910   -0.1490 C   0  0  0  0  0  0  0  0  0  0  0  0
   -3.7800   -0.1850    0.6560 C   0  0  0  0  0  0  0  0  0  0  0  0
   -4.8630   -0.1680    1.6420 C   0  0  0  0  0  0  0  0  0  0  0  0
   -6.1450   -1.5850    1.2330 Br  0  0  0  0  0  0  0  0  0  0  0  0
   -2.2700    0.7460   -1.0020 N   0  0  0  0  0  0  0  0  0  0  0  0
   -1.2420   -0.0920   -0.9720 C   0  0  0  0  0  0  0  0  0  0  0  0
   -0.8280   -1.1540   -0.0660 C   0  0  1  0  0  0  0  0  0  0  0  0
   -1.1050   -2.5150   -0.6610 C   0  0  0  0  0  0  0  0  0  0  0  0
   -0.6420   -3.5930    0.2790 C   0  0  0  0  0  0  0  0  0  0  0  0
    0.8680   -3.4510    0.4930 C   0  0  0  0  0  0  0  0  0  0  0  0
    1.1100   -2.0900    1.0750 C   0  0  0  0  0  0  0  0  0  0  0  0
    0.6060   -1.0840    0.1760 N   0  0  0  0  0  0  0  0  0  0  0  0
    1.1450    0.4660    0.6600 S   0  0  2  0  0  0  0  0  0  0  0  0
    0.7940    0.6420    2.1150 O   0  0  0  0  0  0  0  0  0  0  0  0
    0.6460    1.5800   -0.1300 O   0  0  0  0  0  0  0  0  0  0  0  0
    2.8740    0.4290    0.5660 N   0  0  0  0  0  0  0  0  0  0  0  0
    3.2290    0.1770   -0.7950 C   0  0  0  0  0  0  0  0  0  0  0  0
    4.7210    0.1060   -0.9720 C   0  0  0  0  0  0  0  0  0  0  0  0
    5.2810    1.4260   -0.5700 C   0  0  0  0  0  0  0  0  0  0  0  0
    4.8260    1.9430    0.7400 C   0  0  0  0  0  0  0  0  0  0  0  0
    3.4850    1.5270    1.1970 C   0  0  0  0  0  0  0  0  0  0  0  0
   -0.4640    0.2400   -2.0500 N   0  0  0  0  0  0  0  0  0  0  0  0
   -0.9910    1.2330   -2.7000 N   0  0  0  0  0  0  0  0  0  0  0  0
   -2.1380    1.5850   -2.0670 C   0  0  0  0  0  0  0  0  0  0  0  0
   -2.8780    2.5320   -2.4660 O   0  0  0  0  0  0  0  0  0  0  0  0
  1  2  1  0
  2  3  1  0
  3  4  2  3
  3  7  1  0
  4  5  1  0
  5  6  1  0
  7  8  1  0
  7 26  1  0
  9  8  1  6
  8 24  2  0
  9 10  1  0
  9 14  1  0
 10 11  1  0
 11 12  1  0
 12 13  1  0
 13 14  1  0
 15 14  1  6
 15 16  2  0
 15 17  2  0
 15 18  1  0
 18 19  1  0
 18 23  1  0
 19 20  1  0
 20 21  1  0
 21 22  1  0
 22 23  1  0
 24 25  1  0
 25 26  1  0
 26 27  2  0
M  END
