
     RDKit          3D

 27 29  0  0  0  0  0  0  0  0999 V2000
    6.5870    0.7250    0.4110 C   0  0  0  0  0  0  0  0  0  0  0  0
    5.2720    1.4320    0.1350 C   0  0  1  0  0  0  0  0  0  0  0  0
    4.7150    1.0740   -1.2040 C   0  0  0  0  0  0  0  0  0  0  0  0
    4.1090    1.2280    1.4860 S   0  0  0  0  0  0  0  0  0  0  0  0
    3.5490   -0.4620    1.7160 C   0  0  0  0  0  0  0  0  0  0  0  0
    2.7230   -0.9820    0.6040 C   0  0  0  0  0  0  0  0  0  0  0  0
    1.3700   -0.9000    0.4910 N   0  0  0  0  0  0  0  0  0  0  0  0
    1.0360   -1.4970   -0.6660 C   0  0  0  0  0  0  0  0  0  0  0  0
   -0.2570   -1.6680   -1.2300 N   0  0  0  0  0  0  0  0  0  0  0  0
   -1.4340   -1.1760   -0.5540 C   0  0  0  0  0  0  0  0  0  0  0  0
   -1.2210   -0.6090    0.5260 O   0  0  0  0  0  0  0  0  0  0  0  0
   -2.7550   -1.3590   -1.1410 C   0  0  0  0  0  0  0  0  0  0  0  0
   -2.9230   -2.3400   -2.0740 N   0  0  0  0  0  0  0  0  0  0  0  0
   -4.0500   -2.6670   -2.6410 N   0  0  0  0  0  0  0  0  0  0  0  0
   -5.1440   -1.9810   -2.2790 C   0  0  0  0  0  0  0  0  0  0  0  0
   -6.2390   -2.2920   -2.8210 O   0  0  0  0  0  0  0  0  0  0  0  0
   -5.0770   -0.9830   -1.3590 C   0  0  0  0  0  0  0  0  0  0  0  0
   -3.8380   -0.6430   -0.7570 C   0  0  0  0  0  0  0  0  0  0  0  0
   -3.8280    0.4300    0.2150 C   0  0  0  0  0  0  0  0  0  0  0  0
   -2.9260    1.4530    0.3100 C   0  0  0  0  0  0  0  0  0  0  0  0
   -3.0860    2.4890    1.2430 C   0  0  0  0  0  0  0  0  0  0  0  0
   -4.1650    2.5140    2.1000 C   0  0  0  0  0  0  0  0  0  0  0  0
   -4.4170    3.9030    3.3820 Br  0  0  0  0  0  0  0  0  0  0  0  0
   -5.0590    1.4650    1.9760 C   0  0  0  0  0  0  0  0  0  0  0  0
   -4.8840    0.4870    1.0780 N   0  0  0  0  0  0  0  0  0  0  0  0
    2.1970   -1.9090   -1.1980 N   0  0  0  0  0  0  0  0  0  0  0  0
    3.2080   -1.6030   -0.4420 O   0  0  0  0  0  0  0  0  0  0  0  0
  2  1  1  1
  2  3  1  0
  2  4  1  0
  4  5  1  0
  5  6  1  0
  6  7  2  0
  6 27  1  0
  7  8  1  0
  8  9  1  0
  8 26  2  0
  9 10  1  0
 10 11  2  0
 10 12  1  0
 12 13  2  0
 12 18  1  0
 13 14  1  0
 14 15  1  0
 15 16  2  0
 15 17  1  0
 17 18  2  0
 18 19  1  0
 19 20  2  0
 19 25  1  0
 20 21  1  0
 21 22  2  0
 22 23  1  0
 22 24  1  0
 24 25  2  0
 26 27  1  0
M  END
