
     RDKit          3D

 27 29  0  0  0  0  0  0  0  0999 V2000
   -3.5870    1.1600    1.4930 O   0  0  0  0  0  0  0  0  0  0  0  0
   -4.1850    0.4710    0.6370 C   0  0  0  0  0  0  0  0  0  0  0  0
   -3.4720   -0.3750   -0.2370 N   0  0  0  0  0  0  0  0  0  0  0  0
   -2.0700   -0.5630   -0.2860 C   0  0  0  0  0  0  0  0  0  0  0  0
   -1.5720   -1.6300   -1.0660 C   0  0  0  0  0  0  0  0  0  0  0  0
   -0.2210   -1.7930   -1.1170 C   0  0  0  0  0  0  0  0  0  0  0  0
    0.4590   -3.2490   -2.1810 Br  0  0  0  0  0  0  0  0  0  0  0  0
    0.6590   -1.0040   -0.4720 N   0  0  0  0  0  0  0  0  0  0  0  0
    0.2190    0.0140    0.2740 C   0  0  0  0  0  0  0  0  0  0  0  0
    0.9560    0.8320    0.9330 N   0  0  0  0  0  0  0  0  0  0  0  0
    2.6990    0.5580    0.8200 S   0  0  2  0  0  0  0  0  0  0  0  0
    2.8940   -0.8230    1.3600 O   0  0  0  0  0  0  0  0  0  0  0  0
    3.3780    1.5920    1.6750 O   0  0  0  0  0  0  0  0  0  0  0  0
    3.1860    0.6960   -0.8330 C   0  0  0  0  0  0  0  0  0  0  0  0
    4.3610    0.5330   -1.3260 C   0  0  0  0  0  0  0  0  0  0  0  0
    5.6260    0.2010   -0.7640 C   0  0  0  0  0  0  0  0  0  0  0  0
    5.9570   -0.0480    0.5410 C   0  0  0  0  0  0  0  0  0  0  0  0
    7.3210   -0.3340    0.6330 C   0  0  0  0  0  0  0  0  0  0  0  0
    7.8020   -0.2510   -0.6340 C   0  0  0  0  0  0  0  0  0  0  0  0
    6.8050    0.0650   -1.4650 N   0  0  0  0  0  0  0  0  0  0  0  0
   -1.1730    0.2340    0.3650 C   0  0  0  0  0  0  0  0  0  0  0  0
   -5.6470    0.5840    0.5870 C   0  0  0  0  0  0  0  0  0  0  0  0
   -6.3480    1.4070    1.4360 C   0  0  0  0  0  0  0  0  0  0  0  0
   -7.7080    1.4950    1.3690 N   0  0  0  0  0  0  0  0  0  0  0  0
   -8.3730    0.7610    0.4530 C   0  0  0  0  0  0  0  0  0  0  0  0
   -7.6660   -0.0610   -0.3930 C   0  0  0  0  0  0  0  0  0  0  0  0
   -6.3070   -0.1470   -0.3250 N   0  0  0  0  0  0  0  0  0  0  0  0
  1  2  2  0
  2  3  1  0
  2 22  1  0
  3  4  1  0
  4  5  1  0
  4 21  2  0
  5  6  2  0
  6  7  1  0
  6  8  1  0
  8  9  1  0
  9 10  2  3
  9 21  1  0
 10 11  1  0
 11 12  2  0
 11 13  2  0
 11 14  1  6
 14 15  2  3
 15 16  1  0
 16 17  2  0
 16 20  1  0
 17 18  1  0
 18 19  2  0
 19 20  1  0
 22 23  2  0
 22 27  1  0
 23 24  1  0
 24 25  2  0
 25 26  1  0
 26 27  2  0
M  END
