
     RDKit          3D

 22 23  0  0  0  0  0  0  0  0999 V2000
   -0.1500   -1.1350    1.0280 N   0  0  0  0  0  0  0  0  0  0  0  0
   -0.0440    0.1020    0.3140 C   0  0  1  0  0  0  0  0  0  0  0  0
    0.7170   -0.0500   -0.9900 C   0  0  0  0  0  0  0  0  0  0  0  0
    2.1080   -0.5480   -0.6600 C   0  0  2  0  0  0  0  0  0  0  0  0
    2.8150    0.3020    0.1560 O   0  0  0  0  0  0  0  0  0  0  0  0
    4.1840    0.3010   -0.0730 C   0  0  1  0  0  0  0  0  0  0  0  0
    4.9130    0.7580    1.1210 C   0  0  0  0  0  0  0  0  0  0  0  0
    4.2600    1.0750    2.1420 O   0  0  0  0  0  0  0  0  0  0  0  0
    6.2920    0.8450    1.1450 O   0  0  0  0  0  0  0  0  0  0  0  0
    4.6820   -1.0770   -0.5170 C   0  0  0  0  0  0  0  0  0  0  0  0
    4.1320   -1.2580   -1.8330 O   0  0  0  0  0  0  0  0  0  0  0  0
    2.8160   -0.7690   -1.9630 C   0  0  0  0  0  0  0  0  0  0  0  0
    2.2970   -0.5440   -3.0720 O   0  0  0  0  0  0  0  0  0  0  0  0
   -1.3140    0.8550    0.1600 C   0  0  2  0  0  0  0  0  0  0  0  0
   -1.8250    1.1560    1.4250 O   0  0  0  0  0  0  0  0  0  0  0  0
   -2.3730    0.2480   -0.6860 C   0  0  1  0  0  0  0  0  0  0  0  0
   -1.9610   -0.0980   -1.9550 O   0  0  0  0  0  0  0  0  0  0  0  0
   -3.1160   -0.8990   -0.0910 C   0  0  0  0  0  0  0  0  0  0  0  0
   -3.9720   -0.5070    1.0920 C   0  0  0  0  0  0  0  0  0  0  0  0
   -4.6880    0.8080    0.8450 C   0  0  0  0  0  0  0  0  0  0  0  0
   -3.8420    1.7810    0.3720 O   0  0  0  0  0  0  0  0  0  0  0  0
   -3.4100    1.3740   -0.9090 C   0  0  0  0  0  0  0  0  0  0  0  0
  2  1  1  6
  2  3  1  0
  2 14  1  0
  4  3  1  6
  4  5  1  0
  4 12  1  0
  5  6  1  0
  6  7  1  1
  6 10  1  0
  7  8  2  0
  7  9  1  0
 10 11  1  0
 11 12  1  0
 12 13  2  0
 14 15  1  1
 14 16  1  0
 16 17  1  6
 16 18  1  0
 16 22  1  0
 18 19  1  0
 19 20  1  0
 20 21  1  0
 21 22  1  0
M  CHG  1   1   1
M  END
