
     RDKit          3D

 22 23  0  0  0  0  0  0  0  0999 V2000
    4.5650   -1.5420    0.3270 N   0  0  0  0  0  0  0  0  0  0  0  0
    4.0200   -1.0100   -0.8790 C   0  0  0  0  0  0  0  0  0  0  0  0
    2.9340    0.0060   -0.6530 C   0  0  2  0  0  0  0  0  0  0  0  0
    3.4220    1.2130    0.1100 C   0  0  0  0  0  0  0  0  0  0  0  0
    2.0870    1.7830    0.5490 C   0  0  1  0  0  0  0  0  0  0  0  0
    1.5190    2.4600   -0.5190 O   0  0  0  0  0  0  0  0  0  0  0  0
    1.3560    0.4940    0.8610 C   0  0  1  0  0  0  0  0  0  0  0  0
   -0.1400    0.6300    0.8360 C   0  0  1  0  0  0  0  0  0  0  0  0
   -0.6170    0.9480   -0.4250 O   0  0  0  0  0  0  0  0  0  0  0  0
   -0.7300   -0.6930    1.3080 C   0  0  0  0  0  0  0  0  0  0  0  0
   -2.1210   -0.6780    1.3920 O   0  0  0  0  0  0  0  0  0  0  0  0
   -3.0220   -0.4470    0.3930 C   0  0  0  0  0  0  0  0  0  0  0  0
   -3.6010   -1.3180   -0.4180 C   0  0  0  0  0  0  0  0  0  0  0  0
   -3.3720   -2.7750   -0.3990 C   0  0  0  0  0  0  0  0  0  0  0  0
   -3.9440   -3.5480   -1.1880 O   0  0  0  0  0  0  0  0  0  0  0  0
   -2.4850   -3.3230    0.5310 O   0  0  0  0  0  0  0  0  0  0  0  0
   -4.4630   -0.7080   -1.3090 O   0  0  0  0  0  0  0  0  0  0  0  0
   -4.1920    0.6780   -1.3400 C   0  0  0  0  0  0  0  0  0  0  0  0
   -3.5480    0.8510    0.0070 C   0  0  0  0  0  0  0  0  0  0  0  0
   -3.4970    1.9740    0.6640 C   0  0  0  0  0  0  0  0  0  0  0  0
   -4.0450    3.1390    0.1670 O   0  0  0  0  0  0  0  0  0  0  0  0
    1.8560   -0.4710    0.0340 O   0  0  0  0  0  0  0  0  0  0  0  0
  1  2  1  0
  3  2  1  1
  3  4  1  0
  3 22  1  0
  4  5  1  0
  5  6  1  6
  5  7  1  0
  7  8  1  0
  7 22  1  6
  8  9  1  6
  8 10  1  0
 10 11  1  0
 11 12  1  0
 12 13  2  0
 12 19  1  0
 13 14  1  0
 13 17  1  0
 14 15  2  0
 14 16  1  0
 17 18  1  0
 18 19  1  0
 19 20  2  3
 20 21  1  0
M  CHG  1   1   1
M  END
