
     RDKit          3D

 21 22  0  0  0  0  0  0  0  0999 V2000
    4.0310   -2.7370   -1.0050 N   0  0  0  0  0  0  0  0  0  0  0  0
    3.3220   -1.6800   -0.2910 C   0  0  2  0  0  0  0  0  0  0  0  0
    1.8200   -1.8430   -0.4810 C   0  0  0  0  0  0  0  0  0  0  0  0
    1.3460   -0.4860   -0.8670 C   0  0  2  0  0  0  0  0  0  0  0  0
    2.4400   -0.0450   -1.6610 O   0  0  0  0  0  0  0  0  0  0  0  0
    3.5720   -0.3330   -0.9140 C   0  0  1  0  0  0  0  0  0  0  0  0
    3.6970    0.7090    0.1820 C   0  0  0  0  0  0  0  0  0  0  0  0
    2.4850    0.6910    1.0280 C   0  0  0  0  0  0  0  0  0  0  0  0
    1.1740    0.4740    0.2400 C   0  0  2  0  0  0  0  0  0  0  0  0
    0.1550    0.1940    1.2700 C   0  0  0  0  0  0  0  0  0  0  0  0
   -1.1440    0.0740    1.0020 O   0  0  0  0  0  0  0  0  0  0  0  0
   -1.8570    1.0510    0.4100 C   0  0  2  0  0  0  0  0  0  0  0  0
   -2.7540    1.7920    1.4400 C   0  0  0  0  0  0  0  0  0  0  0  0
   -3.6390    0.9110    2.0510 O   0  0  0  0  0  0  0  0  0  0  0  0
   -2.8270    0.4810   -0.5640 C   0  0  2  0  0  0  0  0  0  0  0  0
   -2.3600   -0.6650   -1.3920 C   0  0  0  0  0  0  0  0  0  0  0  0
   -1.7080   -1.5580   -0.5350 O   0  0  0  0  0  0  0  0  0  0  0  0
   -3.5400    1.4740   -1.2760 O   0  0  0  0  0  0  0  0  0  0  0  0
   -4.8870    1.7320   -1.1580 C   0  0  0  0  0  0  0  0  0  0  0  0
   -5.5540    1.0330   -0.3530 O   0  0  0  0  0  0  0  0  0  0  0  0
   -5.5040    2.7370   -1.9010 O   0  0  0  0  0  0  0  0  0  0  0  0
  2  1  1  6
  2  3  1  0
  2  6  1  0
  4  3  1  1
  4  5  1  0
  4  9  1  0
  5  6  1  0
  6  7  1  1
  7  8  1  0
  8  9  1  0
  9 10  1  1
 10 11  1  0
 11 12  1  0
 12 13  1  1
 12 15  1  0
 13 14  1  0
 15 16  1  6
 15 18  1  0
 16 17  1  0
 18 19  1  0
 19 20  2  0
 19 21  1  0
M  CHG  1   1   1
M  END
