
     RDKit          3D

 22 22  0  0  0  0  0  0  0  0999 V2000
   -0.5620   -1.7680   -1.8350 N   0  0  0  0  0  0  0  0  0  0  0  0
   -0.4210   -0.5550   -0.9850 C   0  0  2  0  0  0  0  0  0  0  0  0
    0.9470   -0.6000   -0.4650 C   0  0  2  0  0  0  0  0  0  0  0  0
    1.2430   -1.5470    0.4730 O   0  0  0  0  0  0  0  0  0  0  0  0
    2.1860   -2.4920    0.0630 C   0  0  0  0  0  0  0  0  0  0  0  0
    2.4790   -3.5070    1.1170 C   0  0  0  0  0  0  0  0  0  0  0  0
    2.9800   -2.9030    2.2620 O   0  0  0  0  0  0  0  0  0  0  0  0
    1.5490    0.7190   -0.0350 C   0  0  0  0  0  0  0  0  0  0  0  0
    2.2710    1.4300   -1.1600 C   0  0  0  0  0  0  0  0  0  0  0  0
    1.3370    2.1230   -1.8980 O   0  0  0  0  0  0  0  0  0  0  0  0
    1.0590    3.3920   -1.3890 C   0  0  2  0  0  0  0  0  0  0  0  0
    1.7910    3.6910   -0.2660 O   0  0  0  0  0  0  0  0  0  0  0  0
   -0.2770    3.6180   -1.1650 O   0  0  0  0  0  0  0  0  0  0  0  0
   -0.6360    3.8850    0.1280 C   0  0  0  0  0  0  0  0  0  0  0  0
   -1.5950    3.0410    0.6670 O   0  0  0  0  0  0  0  0  0  0  0  0
   -1.9260    1.9650   -0.1580 C   0  0  0  0  0  0  0  0  0  0  0  0
   -1.9570    0.6830    0.6280 C   0  0  2  0  0  0  0  0  0  0  0  0
   -1.3690    0.8320    1.8830 O   0  0  0  0  0  0  0  0  0  0  0  0
   -1.6010   -0.5390   -0.1130 C   0  0  2  0  0  0  0  0  0  0  0  0
   -1.6840   -1.7400    0.7960 C   0  0  0  0  0  0  0  0  0  0  0  0
   -2.9120   -1.7040    1.6800 C   0  0  0  0  0  0  0  0  0  0  0  0
   -4.0930   -1.6700    0.9170 O   0  0  0  0  0  0  0  0  0  0  0  0
  2  1  1  6
  2  3  1  0
  2 19  1  0
  3  4  1  1
  3  8  1  0
  4  5  1  0
  5  6  1  0
  6  7  1  0
  8  9  1  0
  9 10  1  0
 10 11  1  0
 11 12  1  1
 11 13  1  0
 13 14  1  0
 14 15  1  0
 15 16  1  0
 16 17  1  0
 17 18  1  1
 17 19  1  0
 19 20  1  1
 20 21  1  0
 21 22  1  0
M  CHG  1   1   1
M  END
