
     RDKit          3D

 21 22  0  0  0  0  0  0  0  0999 V2000
    4.8060   -1.8870    0.2230 C   0  0  0  0  0  0  0  0  0  0  0  0
    4.0950   -1.3690   -0.8550 O   0  0  0  0  0  0  0  0  0  0  0  0
    3.3100   -0.3360   -0.4150 C   0  0  1  0  0  0  0  0  0  0  0  0
    3.6410    0.8000   -1.1550 O   0  0  0  0  0  0  0  0  0  0  0  0
    1.8230   -0.5960   -0.7040 C   0  0  0  0  0  0  0  0  0  0  0  0
    1.0870    0.5830   -0.1850 C   0  0  0  0  0  0  0  0  0  0  0  0
   -0.4170    0.5330   -0.3720 C   0  0  1  0  0  0  0  0  0  0  0  0
   -0.7160    0.4390   -1.7060 O   0  0  0  0  0  0  0  0  0  0  0  0
   -1.0710   -0.5130    0.5010 C   0  0  2  0  0  0  0  0  0  0  0  0
   -0.1540   -0.8180    1.5050 O   0  0  0  0  0  0  0  0  0  0  0  0
   -1.4560   -1.7580   -0.1800 C   0  0  1  0  0  0  0  0  0  0  0  0
   -2.0390   -2.7240    0.8310 C   0  0  0  0  0  0  0  0  0  0  0  0
   -2.7770   -3.5520   -0.0230 O   0  0  0  0  0  0  0  0  0  0  0  0
   -3.3310   -2.8370   -0.9320 O   0  0  0  0  0  0  0  0  0  0  0  0
   -2.6120   -1.6600   -1.1290 C   0  0  0  0  0  0  0  0  0  0  0  0
   -2.2370    0.1790    1.1440 C   0  0  0  0  0  0  0  0  0  0  0  0
   -2.2850    1.5370    0.6360 N   0  0  0  0  0  0  0  0  0  0  0  0
   -0.9390    1.8120    0.2530 C   0  0  1  0  0  0  0  0  0  0  0  0
   -0.1500    2.1720    1.5170 C   0  0  0  0  0  0  0  0  0  0  0  0
   -0.8040    3.0130   -0.6490 C   0  0  0  0  0  0  0  0  0  0  0  0
   -1.4900    2.9200   -1.8340 O   0  0  0  0  0  0  0  0  0  0  0  0
  1  2  1  0
  2  3  1  0
  3  4  1  6
  3  5  1  0
  5  6  1  0
  6  7  1  0
  7  8  1  6
  7  9  1  0
  7 18  1  0
  9 10  1  1
  9 11  1  0
  9 16  1  0
 11 12  1  1
 11 15  1  0
 12 13  1  0
 13 14  1  0
 14 15  1  0
 16 17  1  0
 17 18  1  0
 18 19  1  1
 18 20  1  0
 20 21  1  0
M  CHG  1  17   1
M  END
