
     RDKit          3D

 22 23  0  0  0  0  0  0  0  0999 V2000
   -4.1800   -0.4410   -1.9100 N   0  0  0  0  0  0  0  0  0  0  0  0
   -2.9920    0.0600   -1.3340 C   0  0  0  0  0  0  0  0  0  0  0  0
   -2.2130    0.7380   -2.0340 O   0  0  0  0  0  0  0  0  0  0  0  0
   -2.6790   -0.2100    0.0640 C   0  0  1  0  0  0  0  0  0  0  0  0
   -1.3740    0.3390    0.4740 C   0  0  1  0  0  0  0  0  0  0  0  0
   -0.1650   -0.2030   -0.2520 C   0  0  0  0  0  0  0  0  0  0  0  0
    0.8490    0.7720    0.3650 C   0  0  1  0  0  0  0  0  0  0  0  0
    0.9640    0.3990    1.7010 O   0  0  0  0  0  0  0  0  0  0  0  0
    2.1520    0.7660   -0.3530 C   0  0  0  0  0  0  0  0  0  0  0  0
    2.6870   -0.6620   -0.2570 C   0  0  2  0  0  0  0  0  0  0  0  0
    2.8400   -0.9730    1.0870 O   0  0  0  0  0  0  0  0  0  0  0  0
    3.9710   -0.8180   -1.0310 C   0  0  1  0  0  0  0  0  0  0  0  0
    3.7640   -0.4990   -2.3490 O   0  0  0  0  0  0  0  0  0  0  0  0
    5.0430    0.0010   -0.3720 C   0  0  0  0  0  0  0  0  0  0  0  0
    6.2750   -0.1590   -1.0060 O   0  0  0  0  0  0  0  0  0  0  0  0
    0.0700    2.0360    0.2730 C   0  0  2  0  0  0  0  0  0  0  0  0
    0.3800    2.9410    1.2940 O   0  0  0  0  0  0  0  0  0  0  0  0
   -1.2760    1.7130    0.3080 O   0  0  0  0  0  0  0  0  0  0  0  0
   -3.7300    0.3940    1.0080 C   0  0  0  0  0  0  0  0  0  0  0  0
   -4.7300   -0.7260    1.0770 C   0  0  0  0  0  0  0  0  0  0  0  0
   -4.1070   -1.8980    0.7640 O   0  0  0  0  0  0  0  0  0  0  0  0
   -2.8000   -1.6660    0.4340 C   0  0  0  0  0  0  0  0  0  0  0  0
  1  2  1  0
  2  3  2  0
  4  2  1  6
  4  5  1  0
  4 19  1  0
  4 22  1  0
  5  6  1  6
  5 18  1  0
  6  7  1  0
  7  8  1  1
  7  9  1  0
  7 16  1  0
  9 10  1  0
 10 11  1  1
 10 12  1  0
 12 13  1  6
 12 14  1  0
 14 15  1  0
 16 17  1  1
 16 18  1  0
 19 20  1  0
 20 21  1  0
 21 22  1  0
M  END
