
     RDKit          3D

 21 22  0  0  0  0  0  0  0  0999 V2000
   -0.3610    4.2690    1.8970 O   0  0  0  0  0  0  0  0  0  0  0  0
   -0.5030    3.4840    0.9240 C   0  0  0  0  0  0  0  0  0  0  0  0
   -1.5460    3.6720    0.0640 O   0  0  0  0  0  0  0  0  0  0  0  0
    0.5130    2.3750    0.7830 C   0  0  0  0  0  0  0  0  0  0  0  0
    0.2350    1.5480   -0.3510 N   0  0  0  0  0  0  0  0  0  0  0  0
    0.1460    0.1600   -0.1510 C   0  0  2  0  0  0  0  0  0  0  0  0
    1.5040   -0.4770   -0.3240 C   0  0  1  0  0  0  0  0  0  0  0  0
    2.0160   -0.2510   -1.6090 O   0  0  0  0  0  0  0  0  0  0  0  0
    2.5330   -0.0700    0.6680 C   0  0  0  0  0  0  0  0  0  0  0  0
    3.8120   -0.8370    0.2970 C   0  0  2  0  0  0  0  0  0  0  0  0
    3.5940   -2.2100    0.3540 O   0  0  0  0  0  0  0  0  0  0  0  0
    4.8090   -0.4430    1.2090 O   0  0  0  0  0  0  0  0  0  0  0  0
   -0.7080   -0.4190   -1.2910 C   0  0  0  0  0  0  0  0  0  0  0  0
   -1.5160   -1.4460   -0.5790 C   0  0  2  0  0  0  0  0  0  0  0  0
   -1.6630   -2.7340   -1.3410 C   0  0  0  0  0  0  0  0  0  0  0  0
   -2.3540   -2.5410   -2.5340 O   0  0  0  0  0  0  0  0  0  0  0  0
   -2.8910   -0.8780   -0.3460 C   0  0  0  0  0  0  0  0  0  0  0  0
   -2.8740    0.3380    0.5460 C   0  0  0  0  0  0  0  0  0  0  0  0
   -1.7630    0.1850    1.5310 C   0  0  0  0  0  0  0  0  0  0  0  0
   -0.5010   -0.3890    1.0270 C   0  0  1  0  0  0  0  0  0  0  0  0
   -0.8250   -1.7000    0.5900 O   0  0  0  0  0  0  0  0  0  0  0  0
  1  2  2  0
  2  3  1  0
  2  4  1  0
  4  5  1  0
  6  5  1  1
  6  7  1  0
  6 13  1  0
  6 20  1  0
  7  8  1  6
  7  9  1  0
  9 10  1  0
 10 11  1  1
 10 12  1  0
 13 14  1  0
 14 15  1  6
 14 17  1  0
 14 21  1  0
 15 16  1  0
 17 18  1  0
 18 19  1  0
 20 19  1  6
 20 21  1  0
M  CHG  1   5   1
M  END
