
     RDKit          3D

 21 22  0  0  0  0  0  0  0  0999 V2000
    3.6130    2.0640    0.4530 C   0  0  0  0  0  0  0  0  0  0  0  0
    3.8970    1.4010   -0.6870 O   0  0  0  0  0  0  0  0  0  0  0  0
    4.0920    0.0890   -0.7790 C   0  0  0  0  0  0  0  0  0  0  0  0
    3.0040   -0.8200   -0.3420 C   0  0  1  0  0  0  0  0  0  0  0  0
    3.4630   -2.1360   -0.7420 O   0  0  0  0  0  0  0  0  0  0  0  0
    2.9610   -0.9130    1.1570 C   0  0  0  0  0  0  0  0  0  0  0  0
    1.9640   -1.6820    1.6500 O   0  0  0  0  0  0  0  0  0  0  0  0
    0.7560   -1.7190    1.0790 C   0  0  0  0  0  0  0  0  0  0  0  0
    0.5650   -1.3310   -0.3350 C   0  0  1  0  0  0  0  0  0  0  0  0
   -0.8060   -0.8370   -0.6850 C   0  0  1  0  0  0  0  0  0  0  0  0
   -1.6820   -1.9170   -0.3970 O   0  0  0  0  0  0  0  0  0  0  0  0
   -1.3410    0.3420   -0.0470 C   0  0  1  0  0  0  0  0  0  0  0  0
   -0.6030    1.5780   -0.1600 N   0  0  0  0  0  0  0  0  0  0  0  0
   -2.7250    0.6570   -0.5840 C   0  0  2  0  0  0  0  0  0  0  0  0
   -2.5800    1.0910   -1.9230 O   0  0  0  0  0  0  0  0  0  0  0  0
   -3.3790    1.7560    0.2700 C   0  0  0  0  0  0  0  0  0  0  0  0
   -4.6510    1.2390    0.6150 O   0  0  0  0  0  0  0  0  0  0  0  0
   -4.4250    0.1140    1.4340 C   0  0  0  0  0  0  0  0  0  0  0  0
   -3.8600   -0.9490    0.6910 O   0  0  0  0  0  0  0  0  0  0  0  0
   -3.6910   -0.4700   -0.5880 C   0  0  0  0  0  0  0  0  0  0  0  0
    1.6950   -0.6160   -1.0110 C   0  0  0  0  0  0  0  0  0  0  0  0
  1  2  1  0
  2  3  1  0
  3  4  1  0
  4  5  1  6
  4  6  1  0
  4 21  1  0
  6  7  1  0
  7  8  1  0
  9  8  1  1
  9 10  1  0
  9 21  1  0
 10 11  1  1
 10 12  1  0
 12 13  1  6
 12 14  1  0
 14 15  1  6
 14 16  1  0
 14 20  1  0
 16 17  1  0
 17 18  1  0
 18 19  1  0
 19 20  1  0
M  CHG  1  13   1
M  END
