
     RDKit          3D

 21 22  0  0  0  0  0  0  0  0999 V2000
   -1.8980    1.6350    1.0120 N   0  0  0  0  0  0  0  0  0  0  0  0
   -0.9910    1.3650   -0.1210 C   0  0  2  0  0  0  0  0  0  0  0  0
   -1.1990   -0.0870   -0.4570 C   0  0  1  0  0  0  0  0  0  0  0  0
   -2.2210   -0.1610   -1.3500 O   0  0  0  0  0  0  0  0  0  0  0  0
   -3.3820   -0.7520   -1.1670 C   0  0  0  0  0  0  0  0  0  0  0  0
   -3.2830   -2.2440   -1.0100 C   0  0  0  0  0  0  0  0  0  0  0  0
   -2.5070   -2.5540    0.0820 O   0  0  0  0  0  0  0  0  0  0  0  0
    0.0040   -0.8120   -0.9730 C   0  0  0  0  0  0  0  0  0  0  0  0
    1.1000   -1.1020   -0.0040 C   0  0  1  0  0  0  0  0  0  0  0  0
    0.7210   -1.2800    1.4210 C   0  0  0  0  0  0  0  0  0  0  0  0
    0.0000   -2.3940    1.7400 O   0  0  0  0  0  0  0  0  0  0  0  0
    1.8530   -2.1510   -0.5130 O   0  0  0  0  0  0  0  0  0  0  0  0
    2.8940   -2.5820    0.2510 C   0  0  0  0  0  0  0  0  0  0  0  0
    3.4970   -3.6470   -0.4720 O   0  0  0  0  0  0  0  0  0  0  0  0
    1.9660    0.1850   -0.0250 C   0  0  0  0  0  0  0  0  0  0  0  0
    1.2650    1.0570    0.7630 O   0  0  0  0  0  0  0  0  0  0  0  0
    0.3490    1.8590    0.1840 C   0  0  1  0  0  0  0  0  0  0  0  0
    0.9190    2.6660   -0.9990 C   0  0  0  0  0  0  0  0  0  0  0  0
    1.9560    3.4740   -0.3000 C   0  0  0  0  0  0  0  0  0  0  0  0
    1.6250    3.5170    1.0500 O   0  0  0  0  0  0  0  0  0  0  0  0
    0.2830    3.0830    1.1480 C   0  0  0  0  0  0  0  0  0  0  0  0
  2  1  1  1
  2  3  1  0
  2 17  1  0
  3  4  1  6
  3  8  1  0
  4  5  1  0
  5  6  1  0
  6  7  1  0
  8  9  1  0
  9 10  1  1
  9 12  1  0
  9 15  1  0
 10 11  1  0
 12 13  1  0
 13 14  1  0
 15 16  1  0
 16 17  1  0
 17 18  1  6
 17 21  1  0
 18 19  1  0
 19 20  1  0
 20 21  1  0
M  CHG  1   1   1
M  END
