
     RDKit          3D

 28 29  0  0  0  0  0  0  0  0999 V2000
    6.0910    1.3950    2.6000 C   0  0  0  0  0  0  0  0  0  0  0  0
    6.3810    0.4670    1.4250 C   0  0  0  0  0  0  0  0  0  0  0  0
    5.3540   -0.4940    1.2940 O   0  0  0  0  0  0  0  0  0  0  0  0
    4.0680   -0.0550    1.0680 C   0  0  0  0  0  0  0  0  0  0  0  0
    3.8600    1.1780    0.9870 O   0  0  0  0  0  0  0  0  0  0  0  0
    2.9050   -1.0120    0.9170 C   0  0  0  0  0  0  0  0  0  0  0  0
    2.6040   -1.2480   -0.4830 C   0  0  0  0  0  0  0  0  0  0  0  0
    1.4680   -0.9380   -1.1450 C   0  0  0  0  0  0  0  0  0  0  0  0
    0.4270   -0.3080   -0.4320 C   0  0  0  0  0  0  0  0  0  0  0  0
   -0.7790    0.1130   -0.6140 C   0  0  0  0  0  0  0  0  0  0  0  0
   -1.5620    0.0420   -1.8150 C   0  0  0  0  0  0  0  0  0  0  0  0
   -1.1260   -0.5170   -2.8350 O   0  0  0  0  0  0  0  0  0  0  0  0
   -2.8930    0.5980   -1.9220 N   0  0  0  0  0  0  0  0  0  0  0  0
   -3.4650    1.2480   -0.7910 C   0  0  0  0  0  0  0  0  0  0  0  0
   -2.8060    1.3420    0.3220 C   0  0  0  0  0  0  0  0  0  0  0  0
   -1.4540    0.8090    0.5220 C   0  0  0  0  0  0  0  0  0  0  0  0
   -0.8850    0.9350    1.6130 O   0  0  0  0  0  0  0  0  0  0  0  0
   -3.6450    2.0670    1.3200 C   0  0  2  0  0  0  0  0  0  0  0  0
   -3.9640    0.8890    2.6710 S   0  0  0  0  0  0  0  0  0  0  0  0
   -4.9910   -0.4810    2.1250 C   0  0  0  0  0  0  0  0  0  0  0  0
   -4.3430   -1.3740    1.1240 C   0  0  0  0  0  0  0  0  0  0  0  0
   -4.8820    2.3710    0.6090 C   0  0  0  0  0  0  0  0  0  0  0  0
   -5.8940    2.9940    1.0970 O   0  0  0  0  0  0  0  0  0  0  0  0
   -4.7620    1.8620   -0.6930 N   0  0  0  0  0  0  0  0  0  0  0  0
    1.5870   -1.3120   -2.8660 S   0  0  1  0  0  0  0  0  0  0  0  0
    0.7650   -2.7600   -3.1960 N   0  0  0  0  0  0  0  0  0  0  0  0
    1.3760   -0.1670   -3.7650 O   0  0  0  0  0  0  0  0  0  0  0  0
    3.1110   -1.6510   -3.1420 O   0  0  0  0  0  0  0  0  0  0  0  0
  1  2  1  0
  2  3  1  0
  3  4  1  0
  4  5  2  0
  4  6  1  0
  6  7  1  0
  7  8  2  3
  8  9  1  0
  8 25  1  0
  9 10  2  3
 10 11  1  0
 10 16  1  0
 11 12  2  0
 11 13  1  0
 13 14  1  0
 14 15  2  0
 14 24  1  0
 15 16  1  0
 15 18  1  0
 16 17  2  0
 18 19  1  1
 18 22  1  0
 19 20  1  0
 20 21  1  0
 22 23  2  0
 22 24  1  0
 25 26  1  6
 25 27  2  0
 25 28  2  0
M  END
