
     RDKit          3D

 12 12  0  0  0  0  0  0  0  0999 V2000
   -1.6360    2.9160   -0.1800 O   0  0  0  0  0  0  0  0  0  0  0  0
   -1.2120    1.7410   -0.3300 C   0  0  0  0  0  0  0  0  0  0  0  0
   -2.1430    0.7120    0.0260 N   0  0  0  0  0  0  0  0  0  0  0  0
   -1.9810   -0.7040   -0.1340 C   0  0  0  0  0  0  0  0  0  0  0  0
   -0.8920   -1.4430   -0.0930 C   0  0  0  0  0  0  0  0  0  0  0  0
    0.4860   -1.0380    0.1280 C   0  0  0  0  0  0  0  0  0  0  0  0
    1.1190    0.0770   -0.1560 C   0  0  0  0  0  0  0  0  0  0  0  0
    2.5770    0.1610    0.2220 C   0  0  2  0  0  0  0  0  0  0  0  0
    2.9600   -1.0140    0.8200 F   0  0  0  0  0  0  0  0  0  0  0  0
    2.7470    1.2230    1.0600 F   0  0  0  0  0  0  0  0  0  0  0  0
    3.3640    0.2960   -0.9220 F   0  0  0  0  0  0  0  0  0  0  0  0
    0.4510    1.5290   -0.9500 S   0  0  0  0  0  0  0  0  0  0  0  0
  1  2  2  0
  2  3  1  0
  2 12  1  0
  3  4  1  0
  4  5  2  0
  5  6  1  0
  6  7  2  0
  7  8  1  0
  7 12  1  0
  8  9  1  1
  8 10  1  0
  8 11  1  0
M  END
