
     RDKit          3D

 11 11  0  0  0  0  0  0  0  0999 V2000
    2.8810   -1.0730    0.1550 O   0  0  0  0  0  0  0  0  0  0  0  0
    2.0340    0.0550    0.2760 C   0  0  0  0  0  0  0  0  0  0  0  0
    2.8040    1.4330    0.6640 S   0  0  0  0  0  0  0  0  0  0  0  0
    0.6460   -0.0860    0.0640 N   0  0  0  0  0  0  0  0  0  0  0  0
   -0.0060   -1.3290   -0.2700 C   0  0  0  0  0  0  0  0  0  0  0  0
   -1.4580   -1.0420   -0.2970 C   0  0  0  0  0  0  0  0  0  0  0  0
   -1.6240    0.2040    0.5530 C   0  0  0  0  0  0  0  0  0  0  0  0
   -0.3470    0.9100    0.1390 C   0  0  0  0  0  0  0  0  0  0  0  0
   -0.2600    2.1710   -0.1030 C   0  0  0  0  0  0  0  0  0  0  0  0
    0.8240    2.8730   -0.4990 F   0  0  0  0  0  0  0  0  0  0  0  0
   -1.3970    2.9390    0.0510 F   0  0  0  0  0  0  0  0  0  0  0  0
  1  2  1  0
  2  3  2  0
  2  4  1  0
  4  5  1  0
  4  8  1  0
  5  6  1  0
  6  7  1  0
  7  8  1  0
  8  9  2  3
  9 10  1  0
  9 11  1  0
M  END
