
     RDKit          3D

 28 29  0  0  0  0  0  0  0  0999 V2000
    9.8030    1.2010   -0.2480 C   0  0  0  0  0  0  0  0  0  0  0  0
    8.4990    0.8070   -0.6920 O   0  0  0  0  0  0  0  0  0  0  0  0
    7.7300   -0.0030    0.1120 C   0  0  0  0  0  0  0  0  0  0  0  0
    8.2300   -0.3670    1.2280 O   0  0  0  0  0  0  0  0  0  0  0  0
    6.3840   -0.4620   -0.2400 C   0  0  0  0  0  0  0  0  0  0  0  0
    5.5970   -1.2640    0.5310 C   0  0  0  0  0  0  0  0  0  0  0  0
    4.4210   -1.4580   -0.1600 C   0  0  0  0  0  0  0  0  0  0  0  0
    4.5270   -0.7640   -1.3400 C   0  0  0  0  0  0  0  0  0  0  0  0
    3.6980   -0.6030   -2.3820 O   0  0  0  0  0  0  0  0  0  0  0  0
    2.6880    0.2070   -2.7750 C   0  0  0  0  0  0  0  0  0  0  0  0
    1.4310    0.3080   -2.0350 C   0  0  0  0  0  0  0  0  0  0  0  0
    0.5940    1.1760   -2.5320 O   0  0  0  0  0  0  0  0  0  0  0  0
    1.0180   -0.3890   -0.8930 N   0  0  0  0  0  0  0  0  0  0  0  0
   -0.2580   -0.1270   -0.3410 N   0  0  0  0  0  0  0  0  0  0  0  0
   -0.6770   -0.7990    0.8630 C   0  0  0  0  0  0  0  0  0  0  0  0
    0.1000   -1.6100    1.4150 O   0  0  0  0  0  0  0  0  0  0  0  0
   -1.9900   -0.5430    1.4380 C   0  0  1  0  0  0  0  0  0  0  0  0
   -2.1890   -1.3040    2.6390 N   0  0  0  0  0  0  0  0  0  0  0  0
   -2.3650    0.9090    1.5850 C   0  0  0  0  0  0  0  0  0  0  0  0
   -4.0070    1.1090    2.3130 S   0  0  0  0  0  0  0  0  0  0  0  0
   -5.2910    0.4940    1.2240 C   0  0  0  0  0  0  0  0  0  0  0  0
   -6.5600    0.5060    1.5910 C   0  0  0  0  0  0  0  0  0  0  0  0
   -7.6940    0.0350    0.8020 C   0  0  0  0  0  0  0  0  0  0  0  0
   -7.5170    0.1440   -0.6950 C   0  0  0  0  0  0  0  0  0  0  0  0
   -6.4100   -0.8630   -1.0400 C   0  0  0  0  0  0  0  0  0  0  0  0
   -4.8960   -0.1530   -0.3800 S   0  0  0  0  0  0  0  0  0  0  0  0
   -4.4300    0.9730   -1.2960 O   0  0  0  0  0  0  0  0  0  0  0  0
    5.7350   -0.1880   -1.3240 O   0  0  0  0  0  0  0  0  0  0  0  0
  1  2  1  0
  2  3  1  0
  3  4  2  0
  3  5  1  0
  5  6  2  0
  5 28  1  0
  6  7  1  0
  7  8  2  0
  8  9  1  0
  8 28  1  0
  9 10  1  0
 10 11  1  0
 11 12  2  0
 11 13  1  0
 13 14  1  0
 14 15  1  0
 15 16  2  0
 15 17  1  0
 17 18  1  1
 17 19  1  0
 19 20  1  0
 20 21  1  0
 21 22  2  0
 21 26  1  0
 22 23  1  0
 23 24  1  0
 24 25  1  0
 26 25  1  6
 26 27  2  0
M  END
