
     RDKit          3D

 16 17  0  0  0  0  0  0  0  0999 V2000
    4.5650    0.3990   -1.4390 O   0  0  0  0  0  0  0  0  0  0  0  0
    3.6380    0.8300   -0.7300 C   0  0  0  0  0  0  0  0  0  0  0  0
    3.5560    2.1580   -0.4070 O   0  0  0  0  0  0  0  0  0  0  0  0
    2.6250   -0.1150   -0.2380 C   0  0  0  0  0  0  0  0  0  0  0  0
    2.7210   -1.4440   -0.5710 C   0  0  0  0  0  0  0  0  0  0  0  0
    1.8100   -2.3790   -0.1460 C   0  0  0  0  0  0  0  0  0  0  0  0
    0.7520   -1.9730    0.6470 C   0  0  0  0  0  0  0  0  0  0  0  0
    0.6540   -0.6250    0.9840 C   0  0  0  0  0  0  0  0  0  0  0  0
   -0.4180   -0.2090    1.7890 O   0  0  0  0  0  0  0  0  0  0  0  0
   -1.5900    0.1850    1.1580 C   0  0  0  0  0  0  0  0  0  0  0  0
   -2.5710   -0.7520    0.8920 C   0  0  0  0  0  0  0  0  0  0  0  0
   -3.7470   -0.3590    0.2600 C   0  0  0  0  0  0  0  0  0  0  0  0
   -3.9720    0.9540   -0.1180 C   0  0  0  0  0  0  0  0  0  0  0  0
   -2.9890    1.8740    0.1510 C   0  0  0  0  0  0  0  0  0  0  0  0
   -1.8190    1.5070    0.7760 C   0  0  0  0  0  0  0  0  0  0  0  0
    1.5780    0.2930    0.5480 C   0  0  0  0  0  0  0  0  0  0  0  0
  1  2  2  0
  2  3  1  0
  2  4  1  0
  4  5  2  0
  4 16  1  0
  5  6  1  0
  6  7  2  0
  7  8  1  0
  8  9  1  0
  8 16  2  0
  9 10  1  0
 10 11  2  0
 10 15  1  0
 11 12  1  0
 12 13  2  0
 13 14  1  0
 14 15  2  0
M  END
