
     RDKit          3D

 12 12  0  0  0  0  0  0  0  0999 V2000
    3.3880    0.2150   -1.6910 O   0  0  0  0  0  0  0  0  0  0  0  0
    2.4930   -0.1060   -0.9220 C   0  0  0  0  0  0  0  0  0  0  0  0
    2.4210    0.3170    0.4410 N   0  0  0  0  0  0  0  0  0  0  0  0
    1.2610    0.3270    1.2060 C   0  0  0  0  0  0  0  0  0  0  0  0
    0.0600   -0.0250    0.8740 C   0  0  0  0  0  0  0  0  0  0  0  0
   -0.2380   -0.5160   -0.4600 C   0  0  0  0  0  0  0  0  0  0  0  0
   -1.4340   -0.4830   -0.9560 C   0  0  0  0  0  0  0  0  0  0  0  0
   -2.5740    0.0750   -0.1500 C   0  0  1  0  0  0  0  0  0  0  0  0
   -2.9150   -0.8060    0.8570 F   0  0  0  0  0  0  0  0  0  0  0  0
   -2.2060    1.3170    0.3830 F   0  0  0  0  0  0  0  0  0  0  0  0
   -3.6730    0.3250   -0.9490 F   0  0  0  0  0  0  0  0  0  0  0  0
    1.1190   -1.1800   -1.4250 S   0  0  0  0  0  0  0  0  0  0  0  0
  1  2  2  0
  2  3  1  0
  2 12  1  0
  3  4  1  0
  4  5  2  0
  5  6  1  0
  6  7  2  3
  6 12  1  0
  7  8  1  0
  8  9  1  1
  8 10  1  0
  8 11  1  0
M  END
