
     RDKit          3D

 28 30  0  0  0  0  0  0  0  0999 V2000
   -6.8800   -1.2040    0.5650 C   0  0  0  0  0  0  0  0  0  0  0  0
   -5.5550   -0.5010    0.3270 C   0  0  1  0  0  0  0  0  0  0  0  0
   -4.8300   -0.3230    1.6280 C   0  0  0  0  0  0  0  0  0  0  0  0
   -4.7630   -1.3340   -0.6510 C   0  0  0  0  0  0  0  0  0  0  0  0
   -3.5020   -0.6300   -0.9920 C   0  0  0  0  0  0  0  0  0  0  0  0
   -3.4620    0.6860   -0.9450 C   0  0  0  0  0  0  0  0  0  0  0  0
   -2.2770    1.3050   -1.2690 O   0  0  0  0  0  0  0  0  0  0  0  0
   -1.0280    0.7130   -0.8680 C   0  0  1  0  0  0  0  0  0  0  0  0
   -0.7570    1.1310    0.5390 C   0  0  0  0  0  0  0  0  0  0  0  0
    0.4730    0.5960    1.0710 N   0  0  0  0  0  0  0  0  0  0  0  0
    1.7370    0.9240    0.4490 C   0  0  0  0  0  0  0  0  0  0  0  0
    1.6760    1.6820   -0.5480 O   0  0  0  0  0  0  0  0  0  0  0  0
    2.9450    0.4080    0.9540 N   0  0  0  0  0  0  0  0  0  0  0  0
    4.2350    0.7110    0.3720 C   0  0  0  0  0  0  0  0  0  0  0  0
    4.3960    1.7520   -0.5960 C   0  0  0  0  0  0  0  0  0  0  0  0
    6.1370    1.7110   -1.0190 S   0  0  0  0  0  0  0  0  0  0  0  0
    6.5270    0.3060    0.1280 C   0  0  0  0  0  0  0  0  0  0  0  0
    7.8540   -0.2430    0.2660 C   0  0  0  0  0  0  0  0  0  0  0  0
    8.1440   -1.1830    1.0260 O   0  0  0  0  0  0  0  0  0  0  0  0
    8.8800    0.3250   -0.5100 O   0  0  0  0  0  0  0  0  0  0  0  0
   10.4890   -0.2270   -0.4440 S   0  0  0  0  0  0  0  0  0  0  0  0
   10.6880   -0.9530    0.8800 O   0  0  0  0  0  0  0  0  0  0  0  0
    5.3440    0.0330    0.6820 C   0  0  0  0  0  0  0  0  0  0  0  0
   -1.0360   -0.7680   -1.0680 C   0  0  0  0  0  0  0  0  0  0  0  0
   -2.3270   -1.3300   -1.3710 N   0  0  0  0  0  0  0  0  0  0  0  0
   -4.6270    1.4980   -0.5640 C   0  0  0  0  0  0  0  0  0  0  0  0
   -4.5740    2.7670   -0.5260 O   0  0  0  0  0  0  0  0  0  0  0  0
   -5.7820    0.7830   -0.2520 O   0  0  0  0  0  0  0  0  0  0  0  0
  2  1  1  1
  2  3  1  0
  2  4  1  0
  2 28  1  0
  4  5  1  0
  5  6  2  0
  5 25  1  0
  6  7  1  0
  6 26  1  0
  7  8  1  0
  8  9  1  1
  8 24  1  0
  9 10  1  0
 10 11  1  0
 11 12  2  0
 11 13  1  0
 13 14  1  0
 14 15  2  0
 14 23  1  0
 15 16  1  0
 16 17  1  0
 17 18  1  0
 17 23  2  0
 18 19  2  0
 18 20  1  0
 20 21  1  0
 21 22  2  0
 24 25  1  0
 26 27  2  0
 26 28  1  0
M  END
