
     RDKit          3D

 12 12  0  0  0  0  0  0  0  0999 V2000
   -3.1580   -0.5570   -0.2180 C   0  0  0  0  0  0  0  0  0  0  0  0
   -1.7620   -0.7380   -0.5950 N   0  0  0  0  0  0  0  0  0  0  0  0
   -0.9760   -0.1740    0.5240 C   0  0  0  0  0  0  0  0  0  0  0  0
    0.4500   -0.3210    0.2160 C   0  0  0  0  0  0  0  0  0  0  0  0
    1.4210    0.5040    0.0810 C   0  0  0  0  0  0  0  0  0  0  0  0
    1.2840    1.9940    0.2340 C   0  0  1  0  0  0  0  0  0  0  0  0
    1.4660    2.6350   -0.9810 F   0  0  0  0  0  0  0  0  0  0  0  0
    0.1760    2.3450    0.9110 F   0  0  0  0  0  0  0  0  0  0  0  0
    2.3650    2.4550    1.0250 F   0  0  0  0  0  0  0  0  0  0  0  0
    2.6490    0.0060   -0.2190 O   0  0  0  0  0  0  0  0  0  0  0  0
    2.8530   -1.3340   -0.3000 C   0  0  0  0  0  0  0  0  0  0  0  0
    1.1680   -1.9760   -0.0690 S   0  0  0  0  0  0  0  0  0  0  0  0
  1  2  1  0
  2  3  1  0
  3  4  1  0
  4  5  2  0
  4 12  1  0
  5  6  1  0
  5 10  1  0
  6  7  1  6
  6  8  1  0
  6  9  1  0
 10 11  1  0
 11 12  1  0
M  END
