
     RDKit          3D

 22 23  0  0  0  0  0  0  0  0999 V2000
    5.8300   -0.2040    1.2510 C   0  0  0  0  0  0  0  0  0  0  0  0
    5.0920    0.4110    0.3480 C   0  0  0  0  0  0  0  0  0  0  0  0
    5.4930    1.3260   -0.7080 C   0  0  0  0  0  0  0  0  0  0  0  0
    6.6890    1.7220   -0.9690 N   0  0  0  0  0  0  0  0  0  0  0  0
    4.2750    1.7310   -1.4430 C   0  0  0  0  0  0  0  0  0  0  0  0
    3.2560    1.1180   -0.8800 C   0  0  0  0  0  0  0  0  0  0  0  0
    1.7590    1.0870   -1.1310 C   0  0  0  0  0  0  0  0  0  0  0  0
    1.3590   -0.3140   -1.1260 N   0  0  0  0  0  0  0  0  0  0  0  0
   -0.2630   -0.4310   -1.6150 S   0  0  2  0  0  0  0  0  0  0  0  0
   -0.2770   -1.3620   -2.8300 O   0  0  0  0  0  0  0  0  0  0  0  0
   -0.6910    0.9130   -2.1880 O   0  0  0  0  0  0  0  0  0  0  0  0
   -1.3770   -0.9810   -0.5250 N   0  0  0  0  0  0  0  0  0  0  0  0
   -1.7300   -2.3260   -0.4630 C   0  0  0  0  0  0  0  0  0  0  0  0
   -0.9790   -3.2290    0.4480 C   0  0  0  0  0  0  0  0  0  0  0  0
   -2.0430   -0.0590    0.3110 C   0  0  0  0  0  0  0  0  0  0  0  0
   -3.3160    0.3990   -0.4020 C   0  0  0  0  0  0  0  0  0  0  0  0
   -4.0650    1.3880    0.4530 C   0  0  2  0  0  0  0  0  0  0  0  0
   -4.4710    0.8010    1.7810 C   0  0  0  0  0  0  0  0  0  0  0  0
   -5.3130    1.8070   -0.2770 C   0  0  0  0  0  0  0  0  0  0  0  0
    1.5820   -0.9460    0.1250 C   0  0  0  0  0  0  0  0  0  0  0  0
    2.7020   -0.4330    0.9710 C   0  0  0  0  0  0  0  0  0  0  0  0
    3.6570    0.2990    0.2120 N   0  0  0  0  0  0  0  0  0  0  0  0
  1  2  2  0
  2  3  1  0
  2 22  1  0
  3  4  2  0
  3  5  1  0
  5  6  2  0
  6  7  1  0
  6 22  1  0
  7  8  1  0
  8  9  1  0
  8 20  1  0
  9 10  2  0
  9 11  2  0
  9 12  1  1
 12 13  1  0
 12 15  1  0
 13 14  1  0
 15 16  1  0
 16 17  1  0
 17 18  1  1
 17 19  1  0
 20 21  1  0
 21 22  1  0
M  END
