
     RDKit          3D

 18 21  0  0  0  0  0  0  0  0999 V2000
   -4.4180   -2.6440    0.0780 O   0  0  0  0  0  0  0  0  0  0  0  0
   -4.1980   -1.4200    0.1790 C   0  0  0  0  0  0  0  0  0  0  0  0
   -5.0880   -0.3930    0.4750 N   0  0  0  0  0  0  0  0  0  0  0  0
   -4.4370    0.8030    0.4870 C   0  0  0  0  0  0  0  0  0  0  0  0
   -4.3140    2.1470    0.6210 N   0  0  0  0  0  0  0  0  0  0  0  0
   -3.0250    2.5430    0.4130 N   0  0  0  0  0  0  0  0  0  0  0  0
   -2.2410    1.5140    0.1370 C   0  0  0  0  0  0  0  0  0  0  0  0
   -0.9350    1.1030   -0.1690 C   0  0  0  0  0  0  0  0  0  0  0  0
   -0.6390   -0.2540   -0.3870 C   0  0  0  0  0  0  0  0  0  0  0  0
    0.6920   -0.6440   -0.6940 N   0  0  0  0  0  0  0  0  0  0  0  0
    1.7930    0.2640   -0.7840 C   0  0  2  0  0  0  0  0  0  0  0  0
    3.0710   -0.4220   -1.1350 C   0  0  0  0  0  0  0  0  0  0  0  0
    4.1010   -0.0800   -0.1110 C   0  0  0  0  0  0  0  0  0  0  0  0
    3.3300    0.3950    1.0980 C   0  0  0  0  0  0  0  0  0  0  0  0
    2.0080    0.9070    0.5890 C   0  0  0  0  0  0  0  0  0  0  0  0
   -1.6170   -1.2610   -0.3120 C   0  0  0  0  0  0  0  0  0  0  0  0
   -2.9320   -0.9190   -0.0120 C   0  0  0  0  0  0  0  0  0  0  0  0
   -3.1280    0.4400    0.1860 N   0  0  0  0  0  0  0  0  0  0  0  0
  1  2  2  0
  2  3  1  0
  2 17  1  0
  3  4  2  0
  4  5  1  0
  4 18  1  0
  5  6  1  0
  6  7  2  0
  7  8  1  0
  7 18  1  0
  8  9  2  0
  9 10  1  0
  9 16  1  0
 11 10  1  1
 11 12  1  0
 11 15  1  0
 12 13  1  0
 13 14  1  0
 14 15  1  0
 16 17  2  0
 17 18  1  0
M  END
