
     RDKit          3D

 22 23  0  0  0  0  0  0  0  0999 V2000
    5.4480   -0.2900    0.7960 C   0  0  0  0  0  0  0  0  0  0  0  0
    4.4380   -1.1060    0.0030 C   0  0  0  0  0  0  0  0  0  0  0  0
    3.1500   -0.3890    0.0270 C   0  0  0  0  0  0  0  0  0  0  0  0
    2.2810   -0.6830    1.0820 C   0  0  0  0  0  0  0  0  0  0  0  0
    1.0890   -0.0600    1.1720 N   0  0  0  0  0  0  0  0  0  0  0  0
    0.7220    0.8510    0.2520 C   0  0  0  0  0  0  0  0  0  0  0  0
   -0.5540    1.5150    0.3700 N   0  0  0  0  0  0  0  0  0  0  0  0
   -1.4300    1.1980    1.4500 C   0  0  0  0  0  0  0  0  0  0  0  0
   -2.1440   -0.1340    1.3720 C   0  0  1  0  0  0  0  0  0  0  0  0
   -2.9460   -0.2460    2.6990 C   0  0  0  0  0  0  0  0  0  0  0  0
   -1.9330   -0.1790    3.6870 O   0  0  0  0  0  0  0  0  0  0  0  0
   -3.0280   -0.1630    0.2850 N   0  0  0  0  0  0  0  0  0  0  0  0
   -2.5070   -0.0540   -1.0250 C   0  0  0  0  0  0  0  0  0  0  0  0
   -3.2440    1.1460   -1.6630 C   0  0  0  0  0  0  0  0  0  0  0  0
   -5.0060    0.7060   -1.5710 S   0  0  0  0  0  0  0  0  0  0  0  0
   -5.3650   -0.2100   -0.0430 C   0  0  0  0  0  0  0  0  0  0  0  0
   -4.1230   -1.0610    0.2790 C   0  0  0  0  0  0  0  0  0  0  0  0
    1.5900    1.1300   -0.7820 C   0  0  0  0  0  0  0  0  0  0  0  0
    1.2510    1.9760   -1.6410 O   0  0  0  0  0  0  0  0  0  0  0  0
    2.7850    0.5160   -0.8890 N   0  0  0  0  0  0  0  0  0  0  0  0
    3.6720    0.8220   -1.9760 C   0  0  0  0  0  0  0  0  0  0  0  0
    3.4060   -0.0580   -3.1620 C   0  0  0  0  0  0  0  0  0  0  0  0
  1  2  1  0
  2  3  1  0
  3  4  2  0
  3 20  1  0
  4  5  1  0
  5  6  2  0
  6  7  1  0
  6 18  1  0
  7  8  1  0
  9  8  1  1
  9 10  1  0
  9 12  1  0
 10 11  1  0
 12 13  1  0
 12 17  1  0
 13 14  1  0
 14 15  1  0
 15 16  1  0
 16 17  1  0
 18 19  2  0
 18 20  1  0
 20 21  1  0
 21 22  1  0
M  END
