
     RDKit          3D

 18 19  0  0  0  0  0  0  0  0999 V2000
    3.9430   -0.5000    0.5760 C   0  0  0  0  0  0  0  0  0  0  0  0
    4.4550    0.9200    0.6510 C   0  0  0  0  0  0  0  0  0  0  0  0
    3.3480    1.8430    0.5620 N   0  0  0  0  0  0  0  0  0  0  0  0
    2.5800    2.0210   -0.6000 C   0  0  0  0  0  0  0  0  0  0  0  0
    1.4020    1.5730   -0.9060 C   0  0  0  0  0  0  0  0  0  0  0  0
    0.4750    0.7530   -0.1920 C   0  0  0  0  0  0  0  0  0  0  0  0
   -0.6790    0.4880   -0.8540 C   0  0  0  0  0  0  0  0  0  0  0  0
   -1.8420   -0.2920   -0.4690 C   0  0  0  0  0  0  0  0  0  0  0  0
   -2.9020   -0.1200   -1.3080 N   0  0  0  0  0  0  0  0  0  0  0  0
   -4.0700   -0.7580   -1.1220 C   0  0  0  0  0  0  0  0  0  0  0  0
   -5.2400   -0.5840   -2.0230 C   0  0  0  0  0  0  0  0  0  0  0  0
   -4.1790   -1.6080   -0.0450 C   0  0  0  0  0  0  0  0  0  0  0  0
   -3.1230   -1.7920    0.8090 N   0  0  0  0  0  0  0  0  0  0  0  0
   -1.9680   -1.1440    0.6020 C   0  0  0  0  0  0  0  0  0  0  0  0
   -0.9770   -1.4560    1.5930 N   0  0  0  0  0  0  0  0  0  0  0  0
    0.2930   -0.8520    1.8150 C   0  0  0  0  0  0  0  0  0  0  0  0
    1.0710   -1.3060    2.6790 O   0  0  0  0  0  0  0  0  0  0  0  0
    0.8080    0.2940    1.1090 N   0  0  0  0  0  0  0  0  0  0  0  0
  1  2  1  0
  2  3  1  0
  3  4  1  0
  4  5  2  3
  5  6  1  0
  6  7  2  0
  6 18  1  0
  7  8  1  0
  8  9  2  0
  8 14  1  0
  9 10  1  0
 10 11  1  0
 10 12  2  0
 12 13  1  0
 13 14  2  0
 14 15  1  0
 15 16  1  0
 16 17  2  0
 16 18  1  0
M  END
