
     RDKit          3D

 18 20  0  0  0  0  0  0  0  0999 V2000
   -1.2410   -1.9780   -0.9140 O   0  0  0  0  0  0  0  0  0  0  0  0
   -0.9000   -0.8610   -0.3940 C   0  0  0  0  0  0  0  0  0  0  0  0
    0.4750   -0.5600   -0.2020 N   0  0  0  0  0  0  0  0  0  0  0  0
    1.5190   -1.4840   -0.5790 C   0  0  0  0  0  0  0  0  0  0  0  0
    2.8670   -0.9880   -0.3070 C   0  0  0  0  0  0  0  0  0  0  0  0
    3.9970   -1.6880   -0.5320 N   0  0  0  0  0  0  0  0  0  0  0  0
    5.0650   -0.9530   -0.1790 C   0  0  0  0  0  0  0  0  0  0  0  0
    6.4450   -0.8690   -0.0740 C   0  0  0  0  0  0  0  0  0  0  0  0
    6.7960    0.3210    0.4260 N   0  0  0  0  0  0  0  0  0  0  0  0
    5.6740    1.0100    0.6470 C   0  0  0  0  0  0  0  0  0  0  0  0
    4.5850    0.2570    0.2860 C   0  0  0  0  0  0  0  0  0  0  0  0
    3.2340    0.2010    0.1930 N   0  0  0  0  0  0  0  0  0  0  0  0
   -1.8580    0.1080    0.0070 N   0  0  0  0  0  0  0  0  0  0  0  0
   -3.2700   -0.1420   -0.1660 C   0  0  2  0  0  0  0  0  0  0  0  0
   -3.9510    0.8690   -1.0210 C   0  0  0  0  0  0  0  0  0  0  0  0
   -5.1970    1.2480   -0.2850 C   0  0  0  0  0  0  0  0  0  0  0  0
   -4.8320    1.0540    1.1650 C   0  0  0  0  0  0  0  0  0  0  0  0
   -3.9960   -0.2090    1.1620 C   0  0  0  0  0  0  0  0  0  0  0  0
  1  2  2  0
  2  3  1  0
  2 13  1  0
  3  4  1  0
  4  5  1  0
  5  6  2  0
  5 12  1  0
  6  7  1  0
  7  8  2  0
  7 11  1  0
  8  9  1  0
  9 10  1  0
 10 11  2  0
 11 12  1  0
 14 13  1  1
 14 15  1  0
 14 18  1  0
 15 16  1  0
 16 17  1  0
 17 18  1  0
M  END
