
     RDKit          3D

 17 18  0  0  0  0  0  0  0  0999 V2000
   -5.4850   -0.4090    0.0440 C   0  0  0  0  0  0  0  0  0  0  0  0
   -4.0250   -0.0860   -0.0210 C   0  0  0  0  0  0  0  0  0  0  0  0
   -3.3290    0.2090    1.1340 C   0  0  0  0  0  0  0  0  0  0  0  0
   -1.9800    0.5110    1.1000 C   0  0  0  0  0  0  0  0  0  0  0  0
   -1.2760    0.5310   -0.0870 C   0  0  0  0  0  0  0  0  0  0  0  0
    0.1730    0.8550   -0.1300 C   0  0  0  0  0  0  0  0  0  0  0  0
    0.9930   -0.3270    0.0080 N   0  0  0  0  0  0  0  0  0  0  0  0
    2.4110   -0.1570   -0.0170 C   0  0  0  0  0  0  0  0  0  0  0  0
    2.9720    1.0900   -0.1660 C   0  0  0  0  0  0  0  0  0  0  0  0
    4.3380    1.2480   -0.1890 C   0  0  0  0  0  0  0  0  0  0  0  0
    5.0300    2.8500   -0.3820 Cl  0  0  0  0  0  0  0  0  0  0  0  0
    5.0980    0.1480   -0.0610 N   0  0  0  0  0  0  0  0  0  0  0  0
    4.5880   -1.1000    0.0890 C   0  0  0  0  0  0  0  0  0  0  0  0
    5.4500   -2.2240    0.2200 N   0  0  0  0  0  0  0  0  0  0  0  0
    3.2490   -1.2130    0.1060 N   0  0  0  0  0  0  0  0  0  0  0  0
   -1.9790    0.2350   -1.2390 C   0  0  0  0  0  0  0  0  0  0  0  0
   -3.3270   -0.0680   -1.2100 C   0  0  0  0  0  0  0  0  0  0  0  0
  1  2  1  0
  2  3  2  0
  2 17  1  0
  3  4  1  0
  4  5  2  0
  5  6  1  0
  5 16  1  0
  6  7  1  0
  7  8  1  0
  8  9  2  0
  8 15  1  0
  9 10  1  0
 10 11  1  0
 10 12  2  0
 12 13  1  0
 13 14  1  0
 13 15  2  0
 16 17  2  0
M  END
