
     RDKit          3D

 22 22  0  0  0  0  0  0  0  0999 V2000
   -5.9270    0.8630   -0.6320 C   0  0  0  0  0  0  0  0  0  0  0  0
   -4.9800    1.2970    0.4650 C   0  0  0  0  0  0  0  0  0  0  0  0
   -3.6170    0.5980    0.2940 C   0  0  0  0  0  0  0  0  0  0  0  0
   -2.7350    1.0680    1.3920 C   0  0  0  0  0  0  0  0  0  0  0  0
   -1.4120    0.5530    1.4350 N   0  0  0  0  0  0  0  0  0  0  0  0
   -0.5210    1.0290    2.5050 C   0  0  0  0  0  0  0  0  0  0  0  0
    0.8620    0.4230    2.3140 C   0  0  0  0  0  0  0  0  0  0  0  0
    1.2130    0.6380    0.9470 N   0  0  0  0  0  0  0  0  0  0  0  0
    2.6500    0.6960    0.8220 C   0  0  0  0  0  0  0  0  0  0  0  0
    3.3410   -0.5820    1.0720 C   0  0  0  0  0  0  0  0  0  0  0  0
    4.8240   -0.4410    0.9710 C   0  0  0  0  0  0  0  0  0  0  0  0
    5.4940    0.0860   -0.5420 S   0  0  1  0  0  0  0  0  0  0  0  0
    5.0320    1.6980   -1.0810 C   0  0  0  0  0  0  0  0  0  0  0  0
    7.0110    0.0350   -0.4440 O   0  0  0  0  0  0  0  0  0  0  0  0
    5.1500   -0.8890   -1.6700 O   0  0  0  0  0  0  0  0  0  0  0  0
    0.5760   -0.3160    0.1050 C   0  0  0  0  0  0  0  0  0  0  0  0
   -0.8570   -0.3940    0.5300 C   0  0  0  0  0  0  0  0  0  0  0  0
   -1.6280   -1.3360    0.0790 N   0  0  0  0  0  0  0  0  0  0  0  0
   -1.1110   -2.2950   -0.8220 C   0  0  0  0  0  0  0  0  0  0  0  0
   -1.2460   -2.2060   -2.1410 C   0  0  0  0  0  0  0  0  0  0  0  0
   -1.9700   -1.0610   -2.7530 C   0  0  0  0  0  0  0  0  0  0  0  0
   -0.7090   -3.1910   -3.0030 N   0  0  0  0  0  0  0  0  0  0  0  0
  1  2  1  0
  2  3  1  0
  3  4  1  0
  4  5  1  0
  5  6  1  0
  5 17  1  0
  6  7  1  0
  7  8  1  0
  8  9  1  0
  8 16  1  0
  9 10  1  0
 10 11  1  0
 11 12  1  0
 12 13  1  6
 12 14  2  0
 12 15  2  0
 16 17  1  0
 17 18  2  3
 18 19  1  0
 19 20  2  3
 20 21  1  0
 20 22  1  0
M  END
