
     RDKit          3D

 15 16  0  0  0  0  0  0  0  0999 V2000
    5.1620   -0.8860    0.4260 C   0  0  0  0  0  0  0  0  0  0  0  0
    3.8760   -0.2020    0.2680 C   0  0  0  0  0  0  0  0  0  0  0  0
    3.5280    1.0770    0.0090 C   0  0  0  0  0  0  0  0  0  0  0  0
    2.2500    1.3420   -0.0650 N   0  0  0  0  0  0  0  0  0  0  0  0
    1.3420    0.6330    0.0610 C   0  0  0  0  0  0  0  0  0  0  0  0
   -0.1500    0.5760    0.0470 C   0  0  0  0  0  0  0  0  0  0  0  0
   -0.8550   -0.5630    0.2610 C   0  0  0  0  0  0  0  0  0  0  0  0
   -2.2490   -0.5960    0.2450 C   0  0  0  0  0  0  0  0  0  0  0  0
   -2.9880   -1.8570    0.4820 C   0  0  0  0  0  0  0  0  0  0  0  0
   -2.9300    0.5730    0.0020 C   0  0  0  0  0  0  0  0  0  0  0  0
   -4.3530    0.5560   -0.0190 N   0  0  0  0  0  0  0  0  0  0  0  0
   -2.1840    1.7060   -0.2110 C   0  0  0  0  0  0  0  0  0  0  0  0
   -2.7960    2.7700   -0.4320 O   0  0  0  0  0  0  0  0  0  0  0  0
   -0.8430    1.7030   -0.1880 N   0  0  0  0  0  0  0  0  0  0  0  0
    2.2420   -0.9870    0.3970 S   0  0  0  0  0  0  0  0  0  0  0  0
  1  2  1  0
  2  3  2  0
  2 15  1  0
  3  4  1  0
  4  5  2  0
  5  6  1  0
  5 15  1  0
  6  7  2  0
  6 14  1  0
  7  8  1  0
  8  9  1  0
  8 10  2  0
 10 11  1  0
 10 12  1  0
 12 13  2  0
 12 14  1  0
M  END
