
     RDKit          3D

 15 16  0  0  0  0  0  0  0  0999 V2000
   -4.2080    0.9720    0.7500 C   0  0  0  0  0  0  0  0  0  0  0  0
   -2.7060    1.0360    0.4990 C   0  0  0  0  0  0  0  0  0  0  0  0
   -2.1390    2.1410    0.4510 O   0  0  0  0  0  0  0  0  0  0  0  0
   -1.9650   -0.1370    0.3250 N   0  0  0  0  0  0  0  0  0  0  0  0
   -0.5830   -0.2550    0.0860 C   0  0  0  0  0  0  0  0  0  0  0  0
    0.2630    0.8100   -0.0130 C   0  0  0  0  0  0  0  0  0  0  0  0
    1.6480    0.6460   -0.2550 C   0  0  0  0  0  0  0  0  0  0  0  0
    2.5570    1.5650   -0.3710 N   0  0  0  0  0  0  0  0  0  0  0  0
    3.7480    1.4110   -0.5790 C   0  0  0  0  0  0  0  0  0  0  0  0
    4.9150    2.1870   -0.7450 N   0  0  0  0  0  0  0  0  0  0  0  0
    3.8060   -0.4710   -0.6650 S   0  0  0  0  0  0  0  0  0  0  0  0
    2.0760   -0.6510   -0.3800 C   0  0  0  0  0  0  0  0  0  0  0  0
    1.2390   -1.7330   -0.2820 C   0  0  0  0  0  0  0  0  0  0  0  0
   -0.0950   -1.5710   -0.0490 C   0  0  0  0  0  0  0  0  0  0  0  0
   -0.9610   -2.7600    0.0500 C   0  0  0  0  0  0  0  0  0  0  0  0
  1  2  1  0
  2  3  2  0
  2  4  1  0
  4  5  1  0
  5  6  2  0
  5 14  1  0
  6  7  1  0
  7  8  1  0
  7 12  2  0
  8  9  2  0
  9 10  1  0
  9 11  1  0
 11 12  1  0
 12 13  1  0
 13 14  2  0
 14 15  1  0
M  END
