
     RDKit          3D

 15 15  0  0  0  0  0  0  0  0999 V2000
   -3.0140    0.2930    1.1640 C   0  0  0  0  0  0  0  0  0  0  0  0
   -2.4800    0.5670   -0.2380 C   0  0  2  0  0  0  0  0  0  0  0  0
   -3.0590    1.8710   -0.6880 C   0  0  0  0  0  0  0  0  0  0  0  0
   -2.9310   -0.5160   -1.1860 C   0  0  0  0  0  0  0  0  0  0  0  0
   -1.0120    0.6260   -0.1720 N   0  0  0  0  0  0  0  0  0  0  0  0
   -0.2640   -0.4650    0.2670 C   0  0  0  0  0  0  0  0  0  0  0  0
   -0.9370   -1.5090    0.6040 O   0  0  0  0  0  0  0  0  0  0  0  0
    1.1910   -0.5180    0.3740 C   0  0  0  0  0  0  0  0  0  0  0  0
    1.8780    0.5440    0.0340 C   0  0  0  0  0  0  0  0  0  0  0  0
    3.3050    0.7440    0.0490 N   0  0  0  0  0  0  0  0  0  0  0  0
    4.3090   -0.0220   -0.0770 C   0  0  0  0  0  0  0  0  0  0  0  0
    5.5730    0.5890    0.0010 N   0  0  0  0  0  0  0  0  0  0  0  0
    4.2290   -1.8020   -0.3360 S   0  0  0  0  0  0  0  0  0  0  0  0
    2.8600   -2.4190    0.6660 C   0  0  0  0  0  0  0  0  0  0  0  0
    1.7060   -1.8100    0.8680 C   0  0  0  0  0  0  0  0  0  0  0  0
  2  1  1  1
  2  3  1  0
  2  4  1  0
  2  5  1  0
  5  6  1  0
  6  7  2  0
  6  8  1  0
  8  9  2  0
  8 15  1  0
  9 10  1  0
 10 11  2  0
 11 12  1  0
 11 13  1  0
 13 14  1  0
 14 15  2  0
M  END
