
     RDKit          3D

 17 18  0  0  0  0  0  0  0  0999 V2000
    1.9080   -1.0580   -2.4380 O   0  0  0  0  0  0  0  0  0  0  0  0
    0.7010   -0.6320   -2.0240 N   0  0  0  0  0  0  0  0  0  0  0  0
    0.4490   -0.2680   -0.8190 C   0  0  0  0  0  0  0  0  0  0  0  0
    1.5390   -0.3320    0.1330 C   0  0  0  0  0  0  0  0  0  0  0  0
    2.5770   -1.2260    0.1010 C   0  0  0  0  0  0  0  0  0  0  0  0
    3.6360   -1.1040    0.9740 C   0  0  0  0  0  0  0  0  0  0  0  0
    3.6940   -0.0970    1.9000 C   0  0  0  0  0  0  0  0  0  0  0  0
    2.6690    0.7640    1.9120 N   0  0  0  0  0  0  0  0  0  0  0  0
    1.6090    0.6980    1.0850 C   0  0  0  0  0  0  0  0  0  0  0  0
   -0.9110    0.1840   -0.4510 C   0  0  0  0  0  0  0  0  0  0  0  0
   -1.2770    0.2730    0.8670 C   0  0  0  0  0  0  0  0  0  0  0  0
   -2.5660    0.5890    1.2970 C   0  0  0  0  0  0  0  0  0  0  0  0
   -3.5090    0.8190    0.3250 C   0  0  0  0  0  0  0  0  0  0  0  0
   -4.8310    1.1430    0.6780 O   0  0  0  0  0  0  0  0  0  0  0  0
   -3.2080    0.7440   -1.0100 C   0  0  0  0  0  0  0  0  0  0  0  0
   -1.8860    0.4220   -1.4030 C   0  0  0  0  0  0  0  0  0  0  0  0
   -1.6190    0.3580   -2.7320 O   0  0  0  0  0  0  0  0  0  0  0  0
  1  2  1  0
  2  3  2  3
  3  4  1  0
  3 10  1  0
  4  5  2  0
  4  9  1  0
  5  6  1  0
  6  7  2  0
  7  8  1  0
  8  9  2  0
 10 11  2  0
 10 16  1  0
 11 12  1  0
 12 13  2  0
 13 14  1  0
 13 15  1  0
 15 16  2  0
 16 17  1  0
M  END
