
     RDKit          3D

 22 23  0  0  0  0  0  0  0  0999 V2000
    1.3600   -1.3440   -2.2350 N   0  0  0  0  0  0  0  0  0  0  0  0
    0.9640   -1.4500   -0.8730 C   0  0  1  0  0  0  0  0  0  0  0  0
    2.0610   -1.1760    0.1270 C   0  0  2  0  0  0  0  0  0  0  0  0
    1.4610   -1.2550    1.4040 O   0  0  0  0  0  0  0  0  0  0  0  0
    2.6560    0.1930   -0.0410 C   0  0  2  0  0  0  0  0  0  0  0  0
    4.0590   -0.0180   -0.5430 C   0  0  0  0  0  0  0  0  0  0  0  0
    4.9100   -0.6320    0.1420 O   0  0  0  0  0  0  0  0  0  0  0  0
    4.4400    0.4650   -1.7830 O   0  0  0  0  0  0  0  0  0  0  0  0
    2.8020    0.9320    1.2580 C   0  0  2  0  0  0  0  0  0  0  0  0
    3.5750    0.2170    2.1760 O   0  0  0  0  0  0  0  0  0  0  0  0
    1.6150    1.2400    1.8850 O   0  0  0  0  0  0  0  0  0  0  0  0
    1.9060    0.8840   -0.9530 O   0  0  0  0  0  0  0  0  0  0  0  0
    0.5630    0.9400   -0.7540 C   0  0  0  0  0  0  0  0  0  0  0  0
   -0.1320   -0.4000   -0.6020 C   0  0  2  0  0  0  0  0  0  0  0  0
   -0.5380   -0.6360    0.6810 O   0  0  0  0  0  0  0  0  0  0  0  0
   -1.8510   -0.9110    0.8810 C   0  0  0  0  0  0  0  0  0  0  0  0
   -2.7380    0.2450    0.6300 C   0  0  2  0  0  0  0  0  0  0  0  0
   -2.4100    1.3460    1.4430 O   0  0  0  0  0  0  0  0  0  0  0  0
   -4.1910   -0.1170    1.0760 C   0  0  0  0  0  0  0  0  0  0  0  0
   -4.9510    0.9430    0.3550 C   0  0  0  0  0  0  0  0  0  0  0  0
   -4.1790    1.4380   -0.6480 O   0  0  0  0  0  0  0  0  0  0  0  0
   -3.0130    0.6620   -0.7690 C   0  0  0  0  0  0  0  0  0  0  0  0
  2  1  1  6
  2  3  1  0
  2 14  1  0
  3  4  1  1
  3  5  1  0
  5  6  1  6
  5  9  1  0
  5 12  1  0
  6  7  2  0
  6  8  1  0
  9 10  1  1
  9 11  1  0
 12 13  1  0
 13 14  1  0
 14 15  1  1
 15 16  1  0
 16 17  1  0
 17 18  1  1
 17 19  1  0
 17 22  1  0
 19 20  1  0
 20 21  1  0
 21 22  1  0
M  CHG  1   1   1
M  END
