
     RDKit          3D

 21 21  0  0  0  0  0  0  0  0999 V2000
    3.2010   -0.3130   -1.7630 C   0  0  0  0  0  0  0  0  0  0  0  0
    2.8350    0.8180   -0.8730 C   0  0  2  0  0  0  0  0  0  0  0  0
    3.7480    0.9250    0.3320 C   0  0  0  0  0  0  0  0  0  0  0  0
    3.7140   -0.3110    1.1810 C   0  0  1  0  0  0  0  0  0  0  0  0
    4.1090   -1.4390    0.4960 O   0  0  0  0  0  0  0  0  0  0  0  0
    4.5840   -0.1190    2.2510 O   0  0  0  0  0  0  0  0  0  0  0  0
    1.3840    0.7210   -0.4650 C   0  0  1  0  0  0  0  0  0  0  0  0
    1.0810    1.7980    0.3880 O   0  0  0  0  0  0  0  0  0  0  0  0
    0.5250    0.7260   -1.6770 C   0  0  1  0  0  0  0  0  0  0  0  0
    0.8250   -0.3180   -2.5450 O   0  0  0  0  0  0  0  0  0  0  0  0
   -0.9710    0.7870   -1.4090 C   0  0  1  0  0  0  0  0  0  0  0  0
   -1.5130    1.0200   -2.7090 O   0  0  0  0  0  0  0  0  0  0  0  0
   -1.5160   -0.2720   -0.8170 O   0  0  0  0  0  0  0  0  0  0  0  0
   -2.3370   -0.2880    0.2140 C   0  0  1  0  0  0  0  0  0  0  0  0
   -2.6320   -1.7390    0.5940 C   0  0  0  0  0  0  0  0  0  0  0  0
   -3.2410   -2.4560   -0.4960 N   0  0  0  0  0  0  0  0  0  0  0  0
   -1.7450    0.3730    1.4340 C   0  0  0  0  0  0  0  0  0  0  0  0
   -3.0040    0.4720    2.2920 C   0  0  0  0  0  0  0  0  0  0  0  0
   -4.0750    0.6310    1.4450 O   0  0  0  0  0  0  0  0  0  0  0  0
   -3.6340    0.4890    0.1250 C   0  0  1  0  0  0  0  0  0  0  0  0
   -3.4130    1.7670   -0.3610 O   0  0  0  0  0  0  0  0  0  0  0  0
  2  1  1  1
  2  3  1  0
  2  7  1  0
  3  4  1  0
  4  5  1  6
  4  6  1  0
  7  8  1  1
  7  9  1  0
  9 10  1  1
  9 11  1  0
 11 12  1  6
 11 13  1  0
 13 14  1  0
 14 15  1  1
 14 17  1  0
 14 20  1  0
 15 16  1  0
 17 18  1  0
 18 19  1  0
 19 20  1  0
 20 21  1  1
M  CHG  1  16   1
M  END
