
     RDKit          3D

 21 21  0  0  0  0  0  0  0  0999 V2000
    3.6850   -2.2010   -0.6150 C   0  0  0  0  0  0  0  0  0  0  0  0
    2.3930   -1.4600   -0.7090 C   0  0  1  0  0  0  0  0  0  0  0  0
    2.1070   -1.2660   -2.0590 O   0  0  0  0  0  0  0  0  0  0  0  0
    1.3660   -2.2630   -0.1910 O   0  0  0  0  0  0  0  0  0  0  0  0
    0.1770   -1.7090   -0.6020 C   0  0  0  0  0  0  0  0  0  0  0  0
   -0.0480   -0.4460    0.2030 C   0  0  2  0  0  0  0  0  0  0  0  0
   -1.2770    0.0910   -0.2530 O   0  0  0  0  0  0  0  0  0  0  0  0
   -2.4090    0.1740    0.5500 C   0  0  0  0  0  0  0  0  0  0  0  0
   -2.2640   -0.2650    1.7190 O   0  0  0  0  0  0  0  0  0  0  0  0
   -3.7000    0.7360    0.0770 C   0  0  1  0  0  0  0  0  0  0  0  0
   -3.6340    1.1590   -1.2410 O   0  0  0  0  0  0  0  0  0  0  0  0
   -4.7140   -0.4030    0.1240 C   0  0  0  0  0  0  0  0  0  0  0  0
   -4.3170   -1.4990   -0.7220 N   0  0  0  0  0  0  0  0  0  0  0  0
   -4.1860    1.8690    0.9220 C   0  0  0  0  0  0  0  0  0  0  0  0
   -5.4490    2.2340    0.4590 O   0  0  0  0  0  0  0  0  0  0  0  0
    1.0850    0.5140    0.1140 C   0  0  0  0  0  0  0  0  0  0  0  0
    2.4410   -0.1100   -0.0270 C   0  0  2  0  0  0  0  0  0  0  0  0
    3.2330    0.7530   -0.7470 O   0  0  0  0  0  0  0  0  0  0  0  0
    4.3310    1.1700   -0.0370 C   0  0  0  0  0  0  0  0  0  0  0  0
    3.9470    1.9340    1.1820 C   0  0  0  0  0  0  0  0  0  0  0  0
    5.1420    2.3080    1.8210 O   0  0  0  0  0  0  0  0  0  0  0  0
  2  1  1  6
  2  3  1  0
  2  4  1  0
  2 17  1  0
  4  5  1  0
  5  6  1  0
  6  7  1  6
  6 16  1  0
  7  8  1  0
  8  9  2  0
  8 10  1  0
 10 11  1  6
 10 12  1  0
 10 14  1  0
 12 13  1  0
 14 15  1  0
 16 17  1  0
 17 18  1  6
 18 19  1  0
 19 20  1  0
 20 21  1  0
M  CHG  1  13   1
M  END
