
     RDKit          3D

 22 22  0  0  0  0  0  0  0  0999 V2000
   -6.9270    0.2740   -0.1950 N   0  0  0  0  0  0  0  0  0  0  0  0
   -6.2540   -0.5370    0.7760 C   0  0  0  0  0  0  0  0  0  0  0  0
   -4.7710   -0.3130    0.7780 C   0  0  1  0  0  0  0  0  0  0  0  0
   -4.1770   -1.1260    1.7380 O   0  0  0  0  0  0  0  0  0  0  0  0
   -4.1940   -0.7390   -0.5750 C   0  0  1  0  0  0  0  0  0  0  0  0
   -4.7740    0.0600   -1.5400 O   0  0  0  0  0  0  0  0  0  0  0  0
   -2.6980   -0.5450   -0.5380 C   0  0  0  0  0  0  0  0  0  0  0  0
   -2.2200    0.2790   -1.3560 O   0  0  0  0  0  0  0  0  0  0  0  0
   -1.9120   -1.2420    0.3500 O   0  0  0  0  0  0  0  0  0  0  0  0
   -0.5260   -1.0560    0.3860 C   0  0  0  0  0  0  0  0  0  0  0  0
   -0.2040    0.3360    0.7670 C   0  0  0  0  0  0  0  0  0  0  0  0
    1.1650    0.6350    0.8370 O   0  0  0  0  0  0  0  0  0  0  0  0
    2.0530    0.5380   -0.1970 C   0  0  0  0  0  0  0  0  0  0  0  0
    1.6590    0.1580   -1.3060 O   0  0  0  0  0  0  0  0  0  0  0  0
    3.4730    0.8860    0.0150 C   0  0  1  0  0  0  0  0  0  0  0  0
    4.1400    0.0460    1.0630 C   0  0  0  0  0  0  0  0  0  0  0  0
    5.4940   -0.3650    0.4990 C   0  0  2  0  0  0  0  0  0  0  0  0
    6.4920   -0.3380    1.4420 O   0  0  0  0  0  0  0  0  0  0  0  0
    5.7100    0.6120   -0.6370 C   0  0  1  0  0  0  0  0  0  0  0  0
    5.9730    1.8910   -0.1580 O   0  0  0  0  0  0  0  0  0  0  0  0
    6.6420    0.1750   -1.5560 O   0  0  0  0  0  0  0  0  0  0  0  0
    4.3000    0.6670   -1.2380 C   0  0  0  0  0  0  0  0  0  0  0  0
  1  2  1  0
  2  3  1  0
  3  4  1  1
  3  5  1  0
  5  6  1  6
  5  7  1  0
  7  8  2  0
  7  9  1  0
  9 10  1  0
 10 11  1  0
 11 12  1  0
 12 13  1  0
 13 14  2  0
 15 13  1  6
 15 16  1  0
 15 22  1  0
 16 17  1  0
 17 18  1  1
 17 19  1  0
 19 20  1  1
 19 21  1  0
 19 22  1  0
M  CHG  1   1   1
M  END
