
     RDKit          3D

 21 21  0  0  0  0  0  0  0  0999 V2000
   -3.3370   -0.6320    1.3770 N   0  0  0  0  0  0  0  0  0  0  0  0
   -2.6470   -0.8100    0.1420 C   0  0  2  0  0  0  0  0  0  0  0  0
   -1.2810   -1.4280    0.2190 C   0  0  2  0  0  0  0  0  0  0  0  0
   -0.8910   -2.0690    1.5100 C   0  0  0  0  0  0  0  0  0  0  0  0
   -1.7100   -3.1090    1.9000 O   0  0  0  0  0  0  0  0  0  0  0  0
   -0.7050   -0.0310    0.0620 C   0  0  1  0  0  0  0  0  0  0  0  0
    0.3430   -0.0760   -0.8410 O   0  0  0  0  0  0  0  0  0  0  0  0
    1.5310    0.4040   -0.3590 C   0  0  2  0  0  0  0  0  0  0  0  0
    1.8660    1.5270   -1.1520 O   0  0  0  0  0  0  0  0  0  0  0  0
    2.6790   -0.5870   -0.5860 C   0  0  0  0  0  0  0  0  0  0  0  0
    3.8720   -0.0690   -0.0840 O   0  0  0  0  0  0  0  0  0  0  0  0
    4.9380   -0.9140   -0.2590 C   0  0  0  0  0  0  0  0  0  0  0  0
    6.1690   -0.2540    0.3180 C   0  0  0  0  0  0  0  0  0  0  0  0
    6.0380    0.0170    1.6690 O   0  0  0  0  0  0  0  0  0  0  0  0
   -2.0360    0.3630   -0.5320 C   0  0  1  0  0  0  0  0  0  0  0  0
   -1.9530    0.1480   -2.0530 C   0  0  0  0  0  0  0  0  0  0  0  0
   -3.2180   -0.0450   -2.5940 O   0  0  0  0  0  0  0  0  0  0  0  0
   -2.5270    1.7290   -0.2560 C   0  0  1  0  0  0  0  0  0  0  0  0
   -3.8700    1.8380   -0.5880 O   0  0  0  0  0  0  0  0  0  0  0  0
   -2.2230    2.3220    1.0670 C   0  0  0  0  0  0  0  0  0  0  0  0
   -2.5790    3.6930    0.9910 O   0  0  0  0  0  0  0  0  0  0  0  0
  2  1  1  1
  2  3  1  0
  2 15  1  0
  3  4  1  1
  3  6  1  0
  4  5  1  0
  6  7  1  6
  6 15  1  0
  7  8  1  0
  8  9  1  6
  8 10  1  0
 10 11  1  0
 11 12  1  0
 12 13  1  0
 13 14  1  0
 15 16  1  6
 15 18  1  0
 16 17  1  0
 18 19  1  1
 18 20  1  0
 20 21  1  0
M  CHG  1   1   1
M  END
