
     RDKit          3D

 22 22  0  0  0  0  0  0  0  0999 V2000
   -5.8300   -2.2200    0.1150 C   0  0  0  0  0  0  0  0  0  0  0  0
   -4.9880   -1.2350   -0.4410 O   0  0  0  0  0  0  0  0  0  0  0  0
   -4.0730   -0.5130    0.3110 C   0  0  0  0  0  0  0  0  0  0  0  0
   -4.0120   -0.7660    1.5380 O   0  0  0  0  0  0  0  0  0  0  0  0
   -3.2180    0.5140   -0.3610 C   0  0  1  0  0  0  0  0  0  0  0  0
   -4.0770    1.5220   -1.1060 C   0  0  0  0  0  0  0  0  0  0  0  0
   -4.9030    2.2890   -0.2050 N   0  0  0  0  0  0  0  0  0  0  0  0
   -2.3670    1.1330    0.5480 O   0  0  0  0  0  0  0  0  0  0  0  0
   -1.0730    0.8770    0.2070 C   0  0  2  0  0  0  0  0  0  0  0  0
   -0.2600    0.1800    1.2350 C   0  0  0  0  0  0  0  0  0  0  0  0
    1.1560    0.4720    0.7970 C   0  0  1  0  0  0  0  0  0  0  0  0
    1.8900    1.1340    1.7840 O   0  0  0  0  0  0  0  0  0  0  0  0
    1.8660   -0.7840    0.4170 C   0  0  0  0  0  0  0  0  0  0  0  0
    3.3030   -0.5510   -0.0170 C   0  0  2  0  0  0  0  0  0  0  0  0
    3.3740    0.2870   -1.1160 O   0  0  0  0  0  0  0  0  0  0  0  0
    3.9240   -1.7400   -0.3390 O   0  0  0  0  0  0  0  0  0  0  0  0
    5.0660   -2.0080    0.3910 C   0  0  0  0  0  0  0  0  0  0  0  0
    6.1460   -0.9980    0.2090 C   0  0  0  0  0  0  0  0  0  0  0  0
    6.4980   -0.9660   -1.1430 O   0  0  0  0  0  0  0  0  0  0  0  0
    0.9180    1.4220   -0.3590 C   0  0  1  0  0  0  0  0  0  0  0  0
    0.8790    0.8040   -1.5900 O   0  0  0  0  0  0  0  0  0  0  0  0
   -0.3260    2.0260   -0.0600 O   0  0  0  0  0  0  0  0  0  0  0  0
  1  2  1  0
  2  3  1  0
  3  4  2  0
  3  5  1  0
  5  6  1  1
  5  8  1  0
  6  7  1  0
  9  8  1  1
  9 10  1  0
  9 22  1  0
 10 11  1  0
 11 12  1  1
 11 13  1  0
 11 20  1  0
 13 14  1  0
 14 15  1  6
 14 16  1  0
 16 17  1  0
 17 18  1  0
 18 19  1  0
 20 21  1  6
 20 22  1  0
M  CHG  1   7   1
M  END
