
     RDKit          3D

 21 21  0  0  0  0  0  0  0  0999 V2000
    1.0100   -3.0490   -1.1890 C   0  0  0  0  0  0  0  0  0  0  0  0
    1.0760   -1.7310   -1.5270 O   0  0  0  0  0  0  0  0  0  0  0  0
    0.5200   -0.8400   -0.6010 C   0  0  2  0  0  0  0  0  0  0  0  0
   -0.5910   -0.2130   -1.1080 O   0  0  0  0  0  0  0  0  0  0  0  0
   -1.3210    0.5060   -0.1640 C   0  0  1  0  0  0  0  0  0  0  0  0
   -2.4260    1.2510   -0.8920 C   0  0  0  0  0  0  0  0  0  0  0  0
   -3.2860    2.0780   -0.0610 C   0  0  0  0  0  0  0  0  0  0  0  0
   -4.1520    1.6340    0.7190 O   0  0  0  0  0  0  0  0  0  0  0  0
   -3.1600    3.4740   -0.1130 O   0  0  0  0  0  0  0  0  0  0  0  0
   -1.9890   -0.4070    0.8450 C   0  0  0  0  0  0  0  0  0  0  0  0
   -2.9520   -1.3830    0.2450 C   0  0  2  0  0  0  0  0  0  0  0  0
   -3.4610   -2.1300    1.3390 O   0  0  0  0  0  0  0  0  0  0  0  0
   -2.4010   -2.2650   -0.6580 O   0  0  0  0  0  0  0  0  0  0  0  0
   -0.4380    1.4330    0.6110 C   0  0  0  0  0  0  0  0  0  0  0  0
    1.0000    1.4440    0.1800 C   0  0  1  0  0  0  0  0  0  0  0  0
    1.6870    2.1100    1.2320 O   0  0  0  0  0  0  0  0  0  0  0  0
    1.6030    0.1180   -0.1050 C   0  0  2  0  0  0  0  0  0  0  0  0
    2.6560    0.2690   -1.2020 C   0  0  0  0  0  0  0  0  0  0  0  0
    3.6960    1.1630   -0.7730 N   0  0  0  0  0  0  0  0  0  0  0  0
    2.2380   -0.5250    1.0970 C   0  0  0  0  0  0  0  0  0  0  0  0
    3.2410    0.2180    1.6840 O   0  0  0  0  0  0  0  0  0  0  0  0
  1  2  1  0
  3  2  1  6
  3  4  1  0
  3 17  1  0
  4  5  1  0
  5  6  1  6
  5 10  1  0
  5 14  1  0
  6  7  1  0
  7  8  2  0
  7  9  1  0
 10 11  1  0
 11 12  1  1
 11 13  1  0
 14 15  1  0
 15 16  1  1
 15 17  1  0
 17 18  1  6
 17 20  1  0
 18 19  1  0
 20 21  1  0
M  CHG  1  19   1
M  END
