
     RDKit          3D

 13 14  0  0  0  0  0  0  0  0999 V2000
    0.9340   -2.6470    0.9650 Cl  0  0  0  0  0  0  0  0  0  0  0  0
    1.2460   -1.6180   -0.4350 C   0  0  0  0  0  0  0  0  0  0  0  0
    1.3880   -0.1860   -0.1300 C   0  0  0  0  0  0  0  0  0  0  0  0
    2.7120    0.2810   -0.0460 C   0  0  0  0  0  0  0  0  0  0  0  0
    2.9030    1.5820    0.2200 N   0  0  0  0  0  0  0  0  0  0  0  0
    1.9090    2.4440    0.4060 N   0  0  0  0  0  0  0  0  0  0  0  0
    0.6400    1.9980    0.3260 C   0  0  0  0  0  0  0  0  0  0  0  0
    0.3400    0.6770    0.0570 C   0  0  0  0  0  0  0  0  0  0  0  0
   -1.0530    0.2630   -0.0000 C   0  0  0  0  0  0  0  0  0  0  0  0
   -2.0030    0.6980   -0.9370 C   0  0  0  0  0  0  0  0  0  0  0  0
   -3.1670    0.1250   -0.6330 N   0  0  0  0  0  0  0  0  0  0  0  0
   -3.0560   -0.6480    0.4250 N   0  0  0  0  0  0  0  0  0  0  0  0
   -1.7650   -0.5710    0.8220 C   0  0  0  0  0  0  0  0  0  0  0  0
  1  2  1  0
  2  3  1  0
  3  4  2  0
  3  8  1  0
  4  5  1  0
  5  6  2  0
  6  7  1  0
  7  8  2  0
  8  9  1  0
  9 10  1  0
  9 13  2  0
 10 11  2  0
 11 12  1  0
 12 13  1  0
M  END
