
     RDKit          3D

 13 14  0  0  0  0  0  0  0  0999 V2000
   -2.9050    0.8050   -0.8410 C   0  0  0  0  0  0  0  0  0  0  0  0
   -2.8430   -0.3270   -0.1810 C   0  0  0  0  0  0  0  0  0  0  0  0
   -3.9140   -0.6960    0.7700 C   0  0  0  0  0  0  0  0  0  0  0  0
   -5.1710    0.5630    0.8380 Cl  0  0  0  0  0  0  0  0  0  0  0  0
   -1.7630   -1.2150   -0.3600 N   0  0  0  0  0  0  0  0  0  0  0  0
   -0.4460   -0.7510   -0.0900 C   0  0  0  0  0  0  0  0  0  0  0  0
   -0.0790    0.4730    0.3300 N   0  0  0  0  0  0  0  0  0  0  0  0
    1.2670    0.5060    0.4660 C   0  0  0  0  0  0  0  0  0  0  0  0
    1.7350   -0.6920    0.1330 N   0  0  0  0  0  0  0  0  0  0  0  0
    0.6870   -1.4510   -0.2050 N   0  0  0  0  0  0  0  0  0  0  0  0
    3.1900   -0.7260    0.2620 C   0  0  0  0  0  0  0  0  0  0  0  0
    3.5520    0.7380    0.2200 C   0  0  0  0  0  0  0  0  0  0  0  0
    2.3750    1.4480    0.8620 C   0  0  0  0  0  0  0  0  0  0  0  0
  1  2  2  0
  2  3  1  0
  2  5  1  0
  3  4  1  0
  5  6  1  0
  6  7  1  0
  6 10  2  0
  7  8  2  0
  8  9  1  0
  8 13  1  0
  9 10  1  0
  9 11  1  0
 11 12  1  0
 12 13  1  0
M  END
