
     RDKit          3D

 22 24  0  0  0  0  0  0  0  0999 V2000
    4.2920   -1.7520    1.0660 C   0  0  0  0  0  0  0  0  0  0  0  0
    3.5910   -0.5630    0.4570 C   0  0  0  0  0  0  0  0  0  0  0  0
    4.2560    0.4680    0.0040 C   0  0  0  0  0  0  0  0  0  0  0  0
    6.0250    0.4010    0.1410 Cl  0  0  0  0  0  0  0  0  0  0  0  0
    3.5870    1.6180   -0.5930 C   0  0  0  0  0  0  0  0  0  0  0  0
    2.1240    1.6010   -0.6450 C   0  0  0  0  0  0  0  0  0  0  0  0
    1.4390    0.4150   -0.1210 C   0  0  0  0  0  0  0  0  0  0  0  0
   -0.0470    0.3620   -0.1770 C   0  0  0  0  0  0  0  0  0  0  0  0
   -0.7590    1.3920   -0.7030 C   0  0  0  0  0  0  0  0  0  0  0  0
   -2.1620    1.3350   -0.7520 C   0  0  0  0  0  0  0  0  0  0  0  0
   -2.8960    2.4480   -1.3180 C   0  0  0  0  0  0  0  0  0  0  0  0
   -2.2410    3.4580   -1.7590 O   0  0  0  0  0  0  0  0  0  0  0  0
   -2.8520    0.2480   -0.2750 C   0  0  0  0  0  0  0  0  0  0  0  0
   -4.2330    0.1650   -0.3110 C   0  0  0  0  0  0  0  0  0  0  0  0
   -4.9220   -0.9470    0.1770 C   0  0  0  0  0  0  0  0  0  0  0  0
   -6.6750   -0.9740    0.0950 Cl  0  0  0  0  0  0  0  0  0  0  0  0
   -4.1960   -1.9730    0.7020 C   0  0  0  0  0  0  0  0  0  0  0  0
   -2.7870   -1.9250    0.7550 C   0  0  0  0  0  0  0  0  0  0  0  0
   -2.1080   -2.9760    1.2890 O   0  0  0  0  0  0  0  0  0  0  0  0
   -2.1310   -0.8170    0.2670 C   0  0  0  0  0  0  0  0  0  0  0  0
   -0.7370   -0.7150    0.2950 C   0  0  0  0  0  0  0  0  0  0  0  0
    2.1160   -0.5730    0.3830 C   0  0  0  0  0  0  0  0  0  0  0  0
  1  2  1  0
  2  3  2  0
  2 22  1  0
  3  4  1  0
  3  5  1  0
  5  6  1  0
  6  7  1  0
  7  8  1  0
  7 22  2  0
  8  9  2  0
  8 21  1  0
  9 10  1  0
 10 11  1  0
 10 13  2  0
 11 12  2  0
 13 14  1  0
 13 20  1  0
 14 15  2  0
 15 16  1  0
 15 17  1  0
 17 18  2  0
 18 19  1  0
 18 20  1  0
 20 21  2  0
M  END
