
     RDKit          3D

 13 14  0  0  0  0  0  0  0  0999 V2000
   -4.8900    0.5050    1.6790 Cl  0  0  0  0  0  0  0  0  0  0  0  0
   -3.3870    0.1720    0.8400 C   0  0  0  0  0  0  0  0  0  0  0  0
   -2.1760    0.4860    1.4190 C   0  0  0  0  0  0  0  0  0  0  0  0
   -1.0260    0.2260    0.7670 N   0  0  0  0  0  0  0  0  0  0  0  0
   -0.9950   -0.3390   -0.4530 C   0  0  0  0  0  0  0  0  0  0  0  0
    0.2490   -0.6040   -1.1250 N   0  0  0  0  0  0  0  0  0  0  0  0
    1.4900   -0.2740   -0.5130 C   0  0  0  0  0  0  0  0  0  0  0  0
    1.9030    0.8770   -0.0030 C   0  0  0  0  0  0  0  0  0  0  0  0
    3.2830    0.7460    0.5310 C   0  0  0  0  0  0  0  0  0  0  0  0
    3.5850   -0.6400    0.2470 N   0  0  0  0  0  0  0  0  0  0  0  0
    2.5860   -1.2190   -0.3380 C   0  0  0  0  0  0  0  0  0  0  0  0
   -2.1760   -0.6450   -1.0160 N   0  0  0  0  0  0  0  0  0  0  0  0
   -3.3600   -0.4100   -0.4150 C   0  0  0  0  0  0  0  0  0  0  0  0
  1  2  1  0
  2  3  2  0
  2 13  1  0
  3  4  1  0
  4  5  2  0
  5  6  1  0
  5 12  1  0
  6  7  1  0
  7  8  2  0
  7 11  1  0
  8  9  1  0
  9 10  1  0
 10 11  2  0
 12 13  2  0
M  END
