
     RDKit          3D

 12 13  0  0  0  0  0  0  0  0999 V2000
   -3.5600    2.2660    0.6140 Cl  0  0  0  0  0  0  0  0  0  0  0  0
   -2.5420    1.0580   -0.1470 C   0  0  0  0  0  0  0  0  0  0  0  0
   -3.1160    0.2890   -1.1370 C   0  0  0  0  0  0  0  0  0  0  0  0
   -2.3370   -0.6380   -1.7230 N   0  0  0  0  0  0  0  0  0  0  0  0
   -1.0410   -0.8190   -1.3650 C   0  0  0  0  0  0  0  0  0  0  0  0
   -0.4700   -0.0480   -0.3750 C   0  0  0  0  0  0  0  0  0  0  0  0
    0.9260   -0.2160    0.0380 C   0  0  0  0  0  0  0  0  0  0  0  0
    1.7860   -1.1050   -0.4780 N   0  0  0  0  0  0  0  0  0  0  0  0
    2.9850   -0.9900    0.1300 C   0  0  0  0  0  0  0  0  0  0  0  0
    2.8690    0.0160    1.0670 C   0  0  0  0  0  0  0  0  0  0  0  0
    1.6030    0.4570    0.9760 N   0  0  0  0  0  0  0  0  0  0  0  0
   -1.2500    0.8760    0.2070 N   0  0  0  0  0  0  0  0  0  0  0  0
  1  2  1  0
  2  3  2  0
  2 12  1  0
  3  4  1  0
  4  5  2  0
  5  6  1  0
  6  7  1  0
  6 12  2  0
  7  8  2  0
  7 11  1  0
  8  9  1  0
  9 10  2  0
 10 11  1  0
M  END
