
     RDKit          3D

 13 14  0  0  0  0  0  0  0  0999 V2000
   -0.6470    0.7120   -2.7190 Cl  0  0  0  0  0  0  0  0  0  0  0  0
   -1.6680    0.5760   -1.2890 C   0  0  0  0  0  0  0  0  0  0  0  0
   -2.7490    1.2510   -1.0980 N   0  0  0  0  0  0  0  0  0  0  0  0
   -3.3320    0.9010    0.1580 C   0  0  0  0  0  0  0  0  0  0  0  0
   -2.3980   -0.1160    0.6910 C   0  0  0  0  0  0  0  0  0  0  0  0
   -1.4150   -0.3070   -0.1650 C   0  0  0  0  0  0  0  0  0  0  0  0
   -0.2960   -1.2010   -0.0480 N   0  0  0  0  0  0  0  0  0  0  0  0
    1.0300   -0.6980    0.0440 C   0  0  0  0  0  0  0  0  0  0  0  0
    2.1100   -1.5440    0.1560 C   0  0  0  0  0  0  0  0  0  0  0  0
    3.3630   -1.0600    0.2440 N   0  0  0  0  0  0  0  0  0  0  0  0
    3.6250    0.2590    0.2270 C   0  0  0  0  0  0  0  0  0  0  0  0
    2.5430    1.1080    0.1140 C   0  0  0  0  0  0  0  0  0  0  0  0
    1.2820    0.6250    0.0260 N   0  0  0  0  0  0  0  0  0  0  0  0
  1  2  1  0
  2  3  2  0
  2  6  1  0
  3  4  1  0
  4  5  1  0
  5  6  2  0
  6  7  1  0
  7  8  1  0
  8  9  2  0
  8 13  1  0
  9 10  1  0
 10 11  2  0
 11 12  1  0
 12 13  2  0
M  END
