
     RDKit          3D

 25 26  0  0  0  0  0  0  0  0999 V2000
   -3.2250   -2.5110   -0.3380 C   0  0  0  0  0  0  0  0  0  0  0  0
   -3.7670   -1.2320   -0.5200 O   0  0  0  0  0  0  0  0  0  0  0  0
   -3.0390   -0.0680   -0.2050 C   0  0  0  0  0  0  0  0  0  0  0  0
   -1.8470   -0.0700   -0.0390 N   0  0  0  0  0  0  0  0  0  0  0  0
   -0.6780   -0.7760   -0.0020 C   0  0  0  0  0  0  0  0  0  0  0  0
    0.4280   -0.4020   -0.8140 C   0  0  0  0  0  0  0  0  0  0  0  0
    1.6220   -1.0580   -0.7800 C   0  0  0  0  0  0  0  0  0  0  0  0
    2.9590   -0.5740   -1.8080 S   0  0  0  0  0  0  0  0  0  0  0  0
    3.9120    0.8070   -1.2090 C   0  0  0  0  0  0  0  0  0  0  0  0
    4.6210    0.6830   -0.0250 N   0  0  0  0  0  0  0  0  0  0  0  0
    5.3840    1.8530    0.2710 C   0  0  0  0  0  0  0  0  0  0  0  0
    5.2610   -0.5020    0.3640 C   0  0  0  0  0  0  0  0  0  0  0  0
    1.7440   -2.0940    0.0540 N   0  0  0  0  0  0  0  0  0  0  0  0
    0.7200   -2.4940    0.8500 C   0  0  0  0  0  0  0  0  0  0  0  0
    0.9270   -3.6770    1.7630 C   0  0  2  0  0  0  0  0  0  0  0  0
   -0.2320   -3.8310    2.4970 F   0  0  0  0  0  0  0  0  0  0  0  0
    1.9970   -3.4860    2.5860 F   0  0  0  0  0  0  0  0  0  0  0  0
    1.0670   -4.8230    0.9600 F   0  0  0  0  0  0  0  0  0  0  0  0
   -0.4340   -1.8350    0.7970 N   0  0  0  0  0  0  0  0  0  0  0  0
   -3.8470    1.1950   -0.0910 C   0  0  0  0  0  0  0  0  0  0  0  0
   -3.1970    2.3010    0.1790 C   0  0  0  0  0  0  0  0  0  0  0  0
   -3.8990    3.5930    0.3080 C   0  0  0  0  0  0  0  0  0  0  0  0
   -5.2810    3.4850    0.1640 O   0  0  0  0  0  0  0  0  0  0  0  0
   -5.9490    2.3170   -0.1210 C   0  0  0  0  0  0  0  0  0  0  0  0
   -5.2810    1.1870   -0.2500 C   0  0  0  0  0  0  0  0  0  0  0  0
  1  2  1  0
  2  3  1  0
  3  4  2  3
  3 20  1  0
  4  5  1  0
  5  6  2  0
  5 19  1  0
  6  7  1  0
  7  8  1  0
  7 13  2  0
  8  9  1  0
  9 10  1  0
 10 11  1  0
 10 12  1  0
 13 14  1  0
 14 15  1  0
 14 19  2  0
 15 16  1  1
 15 17  1  0
 15 18  1  0
 20 21  2  0
 20 25  1  0
 21 22  1  0
 22 23  1  0
 23 24  1  0
 24 25  2  0
M  END
