
     RDKit          3D

 25 27  0  0  0  0  0  0  0  0999 V2000
   -3.3250   -1.7030   -1.4100 O   0  0  0  0  0  0  0  0  0  0  0  0
   -3.1810   -0.9200   -0.4180 C   0  0  0  0  0  0  0  0  0  0  0  0
   -4.3850   -0.6380    0.4180 C   0  0  0  0  0  0  0  0  0  0  0  0
   -5.5850   -1.3770   -0.1120 C   0  0  0  0  0  0  0  0  0  0  0  0
   -6.7660   -1.0300    0.8020 C   0  0  1  0  0  0  0  0  0  0  0  0
   -7.8900   -1.7080    0.3250 F   0  0  0  0  0  0  0  0  0  0  0  0
   -6.4690   -1.4130    2.0950 F   0  0  0  0  0  0  0  0  0  0  0  0
   -7.0640    0.3130    0.7020 F   0  0  0  0  0  0  0  0  0  0  0  0
   -1.9550   -0.3240   -0.0900 N   0  0  0  0  0  0  0  0  0  0  0  0
   -1.8420    0.5530    1.0400 C   0  0  0  0  0  0  0  0  0  0  0  0
   -1.2310    1.8470    0.5750 C   0  0  0  0  0  0  0  0  0  0  0  0
   -0.0200    1.6520   -0.1980 N   0  0  0  0  0  0  0  0  0  0  0  0
    1.0170    1.2700    0.7030 C   0  0  0  0  0  0  0  0  0  0  0  0
    2.3420    1.0770    0.0960 C   0  0  0  0  0  0  0  0  0  0  0  0
    2.7260    1.5060   -1.1130 N   0  0  0  0  0  0  0  0  0  0  0  0
    3.9780    1.1560   -1.3340 O   0  0  0  0  0  0  0  0  0  0  0  0
    4.4270    0.5050   -0.2980 C   0  0  0  0  0  0  0  0  0  0  0  0
    5.7780   -0.0450   -0.1720 C   0  0  0  0  0  0  0  0  0  0  0  0
    6.8140   -0.0250   -1.0150 C   0  0  0  0  0  0  0  0  0  0  0  0
    7.9770   -0.5990   -0.6930 C   0  0  0  0  0  0  0  0  0  0  0  0
    8.0640   -1.2210    0.5610 C   0  0  0  0  0  0  0  0  0  0  0  0
    6.4060   -0.9290    1.2200 S   0  0  0  0  0  0  0  0  0  0  0  0
    3.4280    0.4470    0.5960 N   0  0  0  0  0  0  0  0  0  0  0  0
   -0.2310    0.7470   -1.3050 C   0  0  0  0  0  0  0  0  0  0  0  0
   -0.7800   -0.5790   -0.8790 C   0  0  0  0  0  0  0  0  0  0  0  0
  1  2  2  0
  2  3  1  0
  2  9  1  0
  3  4  1  0
  4  5  1  0
  5  6  1  6
  5  7  1  0
  5  8  1  0
  9 10  1  0
  9 25  1  0
 10 11  1  0
 11 12  1  0
 12 13  1  0
 12 24  1  0
 13 14  1  0
 14 15  2  0
 14 23  1  0
 15 16  1  0
 16 17  1  0
 17 18  1  0
 17 23  2  0
 18 19  2  0
 18 22  1  0
 19 20  1  0
 20 21  2  0
 21 22  1  0
 24 25  1  0
M  END
