
     RDKit          3D

 25 26  0  0  0  0  0  0  0  0999 V2000
   -4.4900   -0.9710   -0.0100 C   0  0  0  0  0  0  0  0  0  0  0  0
   -3.9480    0.3870    0.4070 C   0  0  0  0  0  0  0  0  0  0  0  0
   -2.7640    0.7130   -0.3430 N   0  0  0  0  0  0  0  0  0  0  0  0
   -1.4840    0.7580    0.3820 C   0  0  0  0  0  0  0  0  0  0  0  0
   -0.4990    0.1630   -0.1840 C   0  0  0  0  0  0  0  0  0  0  0  0
    0.8880   -0.0160    0.1930 C   0  0  0  0  0  0  0  0  0  0  0  0
    1.7330   -0.7340   -0.6010 C   0  0  0  0  0  0  0  0  0  0  0  0
    1.1120   -1.2970   -1.8190 C   0  0  0  0  0  0  0  0  0  0  0  0
    3.1290   -0.9730   -0.3130 C   0  0  0  0  0  0  0  0  0  0  0  0
    4.0050   -1.5410   -1.0900 C   0  0  0  0  0  0  0  0  0  0  0  0
    3.8470   -2.0740   -2.4280 C   0  0  0  0  0  0  0  0  0  0  0  0
    5.2930   -1.6830   -0.5570 F   0  0  0  0  0  0  0  0  0  0  0  0
    3.6580   -0.3870    0.9620 C   0  0  0  0  0  0  0  0  0  0  0  0
    4.8700   -0.5620    1.2770 O   0  0  0  0  0  0  0  0  0  0  0  0
    2.7650    0.3580    1.7860 C   0  0  0  0  0  0  0  0  0  0  0  0
    3.1660    0.8820    2.8910 O   0  0  0  0  0  0  0  0  0  0  0  0
    1.4000    0.5210    1.3710 N   0  0  0  0  0  0  0  0  0  0  0  0
    0.6110    1.3170    2.3140 C   0  0  0  0  0  0  0  0  0  0  0  0
   -0.0370    1.0890    3.3570 N   0  0  0  0  0  0  0  0  0  0  0  0
   -0.6020    2.0260    4.0220 N   0  0  0  0  0  0  0  0  0  0  0  0
   -0.5960    3.2000    3.7580 C   0  0  0  0  0  0  0  0  0  0  0  0
    0.4490    3.1090    2.1750 S   0  0  0  0  0  0  0  0  0  0  0  0
   -2.8030    0.9900   -1.7640 C   0  0  1  0  0  0  0  0  0  0  0  0
   -3.3020   -0.0960   -2.4740 F   0  0  0  0  0  0  0  0  0  0  0  0
   -3.6280    2.0760   -1.9890 F   0  0  0  0  0  0  0  0  0  0  0  0
  1  2  1  0
  2  3  1  0
  3  4  1  0
  3 23  1  0
  4  5  2  3
  5  6  1  0
  6  7  2  0
  6 17  1  0
  7  8  1  0
  7  9  1  0
  9 10  2  3
  9 13  1  0
 10 11  1  0
 10 12  1  0
 13 14  2  0
 13 15  1  0
 15 16  2  0
 15 17  1  0
 17 18  1  0
 18 19  2  0
 18 22  1  0
 19 20  1  0
 20 21  2  0
 21 22  1  0
 23 24  1  6
 23 25  1  0
M  END
