
     RDKit          3D

 25 27  0  0  0  0  0  0  0  0999 V2000
   -5.9610   -0.0440    2.1920 C   0  0  0  0  0  0  0  0  0  0  0  0
   -4.7580    0.2730    1.3790 C   0  0  0  0  0  0  0  0  0  0  0  0
   -4.7020   -0.1230    0.1150 C   0  0  0  0  0  0  0  0  0  0  0  0
   -5.7940   -0.8960   -0.5800 C   0  0  0  0  0  0  0  0  0  0  0  0
   -5.2780   -1.0480   -1.9470 C   0  0  0  0  0  0  0  0  0  0  0  0
   -4.1140   -0.4940   -2.0340 C   0  0  0  0  0  0  0  0  0  0  0  0
   -3.6780    0.0980   -0.8110 N   0  0  0  0  0  0  0  0  0  0  0  0
   -2.4150    0.7700   -0.5880 C   0  0  0  0  0  0  0  0  0  0  0  0
   -1.8840    1.7960   -0.5410 N   0  0  0  0  0  0  0  0  0  0  0  0
   -0.6150    2.0030   -0.3310 N   0  0  0  0  0  0  0  0  0  0  0  0
    0.1820    1.1810   -0.1560 C   0  0  0  0  0  0  0  0  0  0  0  0
    1.5950    1.0300    0.0850 N   0  0  0  0  0  0  0  0  0  0  0  0
    2.1890    0.2800    1.1360 C   0  0  0  0  0  0  0  0  0  0  0  0
    3.6860    0.2940    0.8480 C   0  0  1  0  0  0  0  0  0  0  0  0
    4.1310   -0.9190    0.1470 C   0  0  0  0  0  0  0  0  0  0  0  0
    3.1890   -1.6590   -0.2350 O   0  0  0  0  0  0  0  0  0  0  0  0
    5.4810   -1.3620   -0.1540 C   0  0  0  0  0  0  0  0  0  0  0  0
    6.6000   -0.7780    0.6220 C   0  0  1  0  0  0  0  0  0  0  0  0
    7.8340   -1.3160    0.2090 F   0  0  0  0  0  0  0  0  0  0  0  0
    6.7440    0.5650    0.6080 F   0  0  0  0  0  0  0  0  0  0  0  0
    6.4530   -1.2340    1.9470 F   0  0  0  0  0  0  0  0  0  0  0  0
    3.8990    1.4570   -0.0950 C   0  0  0  0  0  0  0  0  0  0  0  0
    2.5730    1.6210   -0.7370 C   0  0  0  0  0  0  0  0  0  0  0  0
    2.3170    2.2000   -1.8560 O   0  0  0  0  0  0  0  0  0  0  0  0
   -0.9040   -0.3650   -0.2730 S   0  0  0  0  0  0  0  0  0  0  0  0
  1  2  1  0
  2  3  2  3
  3  4  1  0
  3  7  1  0
  4  5  1  0
  5  6  2  0
  6  7  1  0
  7  8  1  0
  8  9  2  0
  8 25  1  0
  9 10  1  0
 10 11  2  0
 11 12  1  0
 11 25  1  0
 12 13  1  0
 12 23  1  0
 13 14  1  0
 14 15  1  6
 14 22  1  0
 15 16  2  0
 15 17  1  0
 17 18  1  0
 18 19  1  6
 18 20  1  0
 18 21  1  0
 22 23  1  0
 23 24  2  0
M  END
