
     RDKit          3D

 25 27  0  0  0  0  0  0  0  0999 V2000
   -6.3590    0.7920   -1.5220 C   0  0  0  0  0  0  0  0  0  0  0  0
   -5.0200    1.2270   -0.9270 C   0  0  1  0  0  0  0  0  0  0  0  0
   -4.9830    1.0340    0.5540 C   0  0  0  0  0  0  0  0  0  0  0  0
   -3.5130    0.9210    0.9700 C   0  0  0  0  0  0  0  0  0  0  0  0
   -3.0500   -0.4410    0.5070 C   0  0  2  0  0  0  0  0  0  0  0  0
   -1.6620   -0.6480    0.8230 N   0  0  0  0  0  0  0  0  0  0  0  0
   -0.9140    0.1820    1.5420 N   0  0  0  0  0  0  0  0  0  0  0  0
    0.3360   -0.3670    1.6160 C   0  0  0  0  0  0  0  0  0  0  0  0
    2.0240   -0.2510    2.2150 S   0  0  0  0  0  0  0  0  0  0  0  0
    2.5070   -1.8980    1.4060 C   0  0  0  0  0  0  0  0  0  0  0  0
    3.9420   -2.3390    1.6010 C   0  0  0  0  0  0  0  0  0  0  0  0
    4.7640   -1.7910    0.4800 C   0  0  0  0  0  0  0  0  0  0  0  0
    4.7270   -0.2750    0.4300 C   0  0  0  0  0  0  0  0  0  0  0  0
    5.5020    0.2000   -0.6240 O   0  0  0  0  0  0  0  0  0  0  0  0
    5.4590    1.5700   -0.6570 C   0  0  0  0  0  0  0  0  0  0  0  0
    6.3010    2.0950   -1.8030 C   0  0  1  0  0  0  0  0  0  0  0  0
    6.2660    3.4770   -1.8480 F   0  0  0  0  0  0  0  0  0  0  0  0
    7.6200    1.7370   -1.6210 F   0  0  0  0  0  0  0  0  0  0  0  0
    5.8260    1.6460   -3.0190 F   0  0  0  0  0  0  0  0  0  0  0  0
    1.4880   -2.1650    0.9300 N   0  0  0  0  0  0  0  0  0  0  0  0
    0.3640   -1.5450    0.9380 N   0  0  0  0  0  0  0  0  0  0  0  0
   -0.9200   -1.6980    0.4440 C   0  0  0  0  0  0  0  0  0  0  0  0
   -1.3610   -2.6500   -0.2500 O   0  0  0  0  0  0  0  0  0  0  0  0
   -3.3810   -0.6780   -0.9320 C   0  0  0  0  0  0  0  0  0  0  0  0
   -3.8830    0.5660   -1.6280 C   0  0  0  0  0  0  0  0  0  0  0  0
  2  1  1  6
  2  3  1  0
  2 25  1  0
  3  4  1  0
  4  5  1  0
  5  6  1  6
  5 24  1  0
  6  7  1  0
  6 22  1  0
  7  8  2  0
  8  9  1  0
  8 21  1  0
  9 10  1  0
 10 11  1  0
 10 20  2  0
 11 12  1  0
 12 13  1  0
 13 14  1  0
 14 15  1  0
 15 16  1  0
 16 17  1  6
 16 18  1  0
 16 19  1  0
 20 21  1  0
 21 22  1  0
 22 23  2  0
 24 25  1  0
M  END
