
     RDKit          3D

 22 24  0  0  0  0  0  0  0  0999 V2000
    4.9400    1.5210   -0.3140 C   0  0  0  0  0  0  0  0  0  0  0  0
    4.1950    0.2980   -0.0860 N   0  0  0  0  0  0  0  0  0  0  0  0
    4.6680   -0.9200    0.1280 N   0  0  0  0  0  0  0  0  0  0  0  0
    3.6970   -1.7820    0.3010 N   0  0  0  0  0  0  0  0  0  0  0  0
    2.5010   -1.1520    0.2060 C   0  0  0  0  0  0  0  0  0  0  0  0
    1.1890   -1.5600    0.3080 C   0  0  0  0  0  0  0  0  0  0  0  0
    0.2050   -0.6030    0.1580 C   0  0  0  0  0  0  0  0  0  0  0  0
   -1.2480   -1.0020    0.2580 C   0  0  1  0  0  0  0  0  0  0  0  0
   -1.7030   -0.9070    1.7010 C   0  0  0  0  0  0  0  0  0  0  0  0
   -0.9130   -1.7840    2.5820 C   0  0  0  0  0  0  0  0  0  0  0  0
   -0.0270   -1.2820    3.3160 O   0  0  0  0  0  0  0  0  0  0  0  0
   -1.0990   -3.1530    2.6410 O   0  0  0  0  0  0  0  0  0  0  0  0
   -2.0890   -0.0990   -0.5620 C   0  0  0  0  0  0  0  0  0  0  0  0
   -2.1430   -0.2140   -1.9500 C   0  0  0  0  0  0  0  0  0  0  0  0
   -2.9230    0.6410   -2.7050 C   0  0  0  0  0  0  0  0  0  0  0  0
   -3.6810    1.6380   -2.1480 C   0  0  0  0  0  0  0  0  0  0  0  0
   -4.6690    2.7180   -3.1100 Cl  0  0  0  0  0  0  0  0  0  0  0  0
   -3.6450    1.7680   -0.7850 C   0  0  0  0  0  0  0  0  0  0  0  0
   -2.8580    0.9070   -0.0220 C   0  0  0  0  0  0  0  0  0  0  0  0
    0.5330    0.7220   -0.0890 C   0  0  0  0  0  0  0  0  0  0  0  0
    1.8550    1.1110   -0.1890 C   0  0  0  0  0  0  0  0  0  0  0  0
    2.8470    0.1650   -0.0400 C   0  0  0  0  0  0  0  0  0  0  0  0
  1  2  1  0
  2  3  1  0
  2 22  1  0
  3  4  2  0
  4  5  1  0
  5  6  2  0
  5 22  1  0
  6  7  1  0
  7  8  1  0
  7 20  2  0
  8  9  1  1
  8 13  1  0
  9 10  1  0
 10 11  2  0
 10 12  1  0
 13 14  2  0
 13 19  1  0
 14 15  1  0
 15 16  2  0
 16 17  1  0
 16 18  1  0
 18 19  2  0
 20 21  1  0
 21 22  2  0
M  END
