
     RDKit          3D

 25 26  0  0  0  0  0  0  0  0999 V2000
    5.7440    2.5480   -0.4960 C   0  0  0  0  0  0  0  0  0  0  0  0
    5.9170    1.2600   -0.2660 C   0  0  0  0  0  0  0  0  0  0  0  0
    4.7080    0.0760   -0.8250 S   0  0  0  0  0  0  0  0  0  0  0  0
    4.3590   -1.1200    0.4300 C   0  0  0  0  0  0  0  0  0  0  0  0
    3.1720   -1.1900    0.9260 N   0  0  0  0  0  0  0  0  0  0  0  0
    2.1420   -0.3130    0.4730 C   0  0  0  0  0  0  0  0  0  0  0  0
    2.5670    0.9280    0.0580 N   0  0  0  0  0  0  0  0  0  0  0  0
    1.7190    1.8220   -0.3800 N   0  0  0  0  0  0  0  0  0  0  0  0
    0.3900    1.5210   -0.4280 C   0  0  0  0  0  0  0  0  0  0  0  0
   -0.0940    0.3090   -0.0310 C   0  0  0  0  0  0  0  0  0  0  0  0
   -1.5030   -0.0560   -0.0900 C   0  0  0  0  0  0  0  0  0  0  0  0
   -2.4270    0.9120   -0.5240 N   0  0  0  0  0  0  0  0  0  0  0  0
   -2.6400    2.0650    0.2680 C   0  0  0  0  0  0  0  0  0  0  0  0
   -3.3860    3.1570   -0.5140 C   0  0  0  0  0  0  0  0  0  0  0  0
   -4.2600    2.5740   -1.4290 O   0  0  0  0  0  0  0  0  0  0  0  0
   -4.7870    1.3770   -0.9490 C   0  0  0  0  0  0  0  0  0  0  0  0
   -3.7020    0.3050   -0.8230 C   0  0  0  0  0  0  0  0  0  0  0  0
    0.8190   -0.6580    0.4420 C   0  0  0  0  0  0  0  0  0  0  0  0
    0.3630   -1.9480    0.8750 C   0  0  0  0  0  0  0  0  0  0  0  0
    1.0200   -2.9510    1.3310 C   0  0  0  0  0  0  0  0  0  0  0  0
    0.3820   -4.1650    1.7130 O   0  0  0  0  0  0  0  0  0  0  0  0
   -0.1130   -5.0530    0.7150 C   0  0  2  0  0  0  0  0  0  0  0  0
   -0.6670   -6.1220    1.4000 F   0  0  0  0  0  0  0  0  0  0  0  0
    0.8640   -5.5250   -0.1110 F   0  0  0  0  0  0  0  0  0  0  0  0
   -1.0800   -4.4310   -0.0730 F   0  0  0  0  0  0  0  0  0  0  0  0
  1  2  2  0
  2  3  1  0
  3  4  1  0
  4  5  2  3
  5  6  1  0
  6  7  2  0
  6 18  1  0
  7  8  1  0
  8  9  2  0
  9 10  1  0
 10 11  1  0
 10 18  2  0
 11 12  1  0
 12 13  1  0
 12 17  1  0
 13 14  1  0
 14 15  1  0
 15 16  1  0
 16 17  1  0
 18 19  1  0
 19 20  2  3
 20 21  1  0
 21 22  1  0
 22 23  1  1
 22 24  1  0
 22 25  1  0
M  END
