
     RDKit          3D

 25 26  0  0  0  0  0  0  0  0999 V2000
   -6.1330   -0.6980   -1.9010 C   0  0  0  0  0  0  0  0  0  0  0  0
   -5.0610   -0.3600   -1.0490 O   0  0  0  0  0  0  0  0  0  0  0  0
   -3.7800   -0.0680   -1.5320 C   0  0  0  0  0  0  0  0  0  0  0  0
   -3.6730   -0.1320   -2.7820 O   0  0  0  0  0  0  0  0  0  0  0  0
   -2.6810    0.2800   -0.6340 C   0  0  0  0  0  0  0  0  0  0  0  0
   -1.4610    0.5620   -1.0540 N   0  0  0  0  0  0  0  0  0  0  0  0
   -0.5240    0.8450   -0.4700 C   0  0  0  0  0  0  0  0  0  0  0  0
    0.8670    1.1870   -0.6720 N   0  0  0  0  0  0  0  0  0  0  0  0
    1.7630    0.3410   -0.3030 C   0  0  0  0  0  0  0  0  0  0  0  0
    3.1710    0.6950   -0.5110 C   0  0  0  0  0  0  0  0  0  0  0  0
    4.1480   -0.1050   -0.1660 C   0  0  0  0  0  0  0  0  0  0  0  0
    5.5230    0.2710   -0.3840 C   0  0  0  0  0  0  0  0  0  0  0  0
    5.8270    1.5890   -1.0100 C   0  0  0  0  0  0  0  0  0  0  0  0
    6.5070   -0.5130   -0.0460 C   0  0  0  0  0  0  0  0  0  0  0  0
    6.2230   -1.8380    0.5820 C   0  0  1  0  0  0  0  0  0  0  0  0
    5.4960   -2.6150   -0.3080 F   0  0  0  0  0  0  0  0  0  0  0  0
    7.3920   -2.5160    0.8620 F   0  0  0  0  0  0  0  0  0  0  0  0
    5.5410   -1.7080    1.7740 F   0  0  0  0  0  0  0  0  0  0  0  0
   -1.2030    0.8020    1.3020 S   0  0  0  0  0  0  0  0  0  0  0  0
   -2.8320    0.3410    0.7080 C   0  0  0  0  0  0  0  0  0  0  0  0
   -3.9970    0.1030    1.5320 N   0  0  0  0  0  0  0  0  0  0  0  0
   -4.6350    0.9780    2.3390 C   0  0  0  0  0  0  0  0  0  0  0  0
   -5.6990    0.3600    2.9500 C   0  0  0  0  0  0  0  0  0  0  0  0
   -5.7190   -0.9000    2.5200 N   0  0  0  0  0  0  0  0  0  0  0  0
   -4.6900   -1.0400    1.6690 C   0  0  0  0  0  0  0  0  0  0  0  0
  1  2  1  0
  2  3  1  0
  3  4  2  0
  3  5  1  0
  5  6  1  0
  5 20  2  0
  6  7  2  0
  7  8  1  0
  7 19  1  0
  8  9  2  3
  9 10  1  0
 10 11  2  3
 11 12  1  0
 12 13  1  0
 12 14  2  3
 14 15  1  0
 15 16  1  6
 15 17  1  0
 15 18  1  0
 19 20  1  0
 20 21  1  0
 21 22  1  0
 21 25  1  0
 22 23  2  0
 23 24  1  0
 24 25  2  0
M  END
