
     RDKit          3D

 30 31  0  0  0  0  0  0  0  0999 V2000
    7.5450    0.7520   -2.3130 C   0  0  0  0  0  0  0  0  0  0  0  0
    6.4780    0.2630   -1.8380 C   0  0  0  0  0  0  0  0  0  0  0  0
    5.8780   -0.0030   -0.5890 C   0  0  0  0  0  0  0  0  0  0  0  0
    5.9930    0.0790    0.6900 C   0  0  0  0  0  0  0  0  0  0  0  0
    4.9900   -0.4070    1.5730 C   0  0  0  0  0  0  0  0  0  0  0  0
    3.7610   -1.0900    1.2380 C   0  0  0  0  0  0  0  0  0  0  0  0
    3.7760   -2.0200    0.3710 O   0  0  0  0  0  0  0  0  0  0  0  0
    2.4860   -0.8240    1.7910 N   0  0  0  0  0  0  0  0  0  0  0  0
    1.3340   -1.5260    1.4010 N   0  0  0  0  0  0  0  0  0  0  0  0
    0.1760   -0.8180    0.9830 C   0  0  0  0  0  0  0  0  0  0  0  0
    0.2320    0.4520    0.9770 O   0  0  0  0  0  0  0  0  0  0  0  0
   -1.0260   -1.3920    0.5700 N   0  0  0  0  0  0  0  0  0  0  0  0
   -2.1590   -0.6640    0.1440 N   0  0  0  0  0  0  0  0  0  0  0  0
   -2.8040   -0.9300   -1.0720 C   0  0  0  0  0  0  0  0  0  0  0  0
   -2.3510   -1.8710   -1.8160 O   0  0  0  0  0  0  0  0  0  0  0  0
   -3.9800   -0.1630   -1.5160 C   0  0  2  0  0  0  0  0  0  0  0  0
   -4.2390    0.9310   -0.6830 O   0  0  0  0  0  0  0  0  0  0  0  0
   -3.3770    1.9790   -0.4780 C   0  0  0  0  0  0  0  0  0  0  0  0
   -3.3890    2.8020    0.5500 C   0  0  0  0  0  0  0  0  0  0  0  0
   -2.3180    2.2110   -1.5260 C   0  0  0  0  0  0  0  0  0  0  0  0
   -5.2040   -1.0760   -1.6080 C   0  0  2  0  0  0  0  0  0  0  0  0
   -6.2870   -0.2890   -2.1370 N   0  0  0  0  0  0  0  0  0  0  0  0
   -7.4020   -0.5060   -1.2900 C   0  0  0  0  0  0  0  0  0  0  0  0
   -7.0120   -1.2190   -0.2360 C   0  0  0  0  0  0  0  0  0  0  0  0
   -7.8950   -1.6580    0.8950 C   0  0  0  0  0  0  0  0  0  0  0  0
   -5.6600   -1.4880   -0.3540 O   0  0  0  0  0  0  0  0  0  0  0  0
    5.4410   -0.1130    2.8430 C   0  0  0  0  0  0  0  0  0  0  0  0
    6.6090    0.4960    2.7640 N   0  0  0  0  0  0  0  0  0  0  0  0
    7.0070    0.6480    1.4700 C   0  0  0  0  0  0  0  0  0  0  0  0
    8.1160    1.2630    1.1260 C   0  0  0  0  0  0  0  0  0  0  0  0
  1  2  2  0
  2  3  1  0
  3  4  2  3
  4  5  1  0
  4 29  1  0
  5  6  1  0
  5 27  2  0
  6  7  2  0
  6  8  1  0
  8  9  1  0
  9 10  1  0
 10 11  2  0
 10 12  1  0
 12 13  1  0
 13 14  1  0
 14 15  2  0
 14 16  1  0
 16 17  1  1
 16 21  1  0
 17 18  1  0
 18 19  2  0
 18 20  1  0
 21 22  1  1
 21 26  1  0
 22 23  1  0
 23 24  2  0
 24 25  1  0
 24 26  1  0
 27 28  1  0
 28 29  1  0
 29 30  2  0
M  END
