
     RDKit          3D

 31 33  0  0  0  0  0  0  0  0999 V2000
   -9.6840   -1.4160    4.0220 C   0  0  0  0  0  0  0  0  0  0  0  0
   -8.7110   -2.1250    3.2890 O   0  0  0  0  0  0  0  0  0  0  0  0
   -7.7040   -1.3850    2.6690 C   0  0  0  0  0  0  0  0  0  0  0  0
   -7.6460   -0.0170    2.7530 C   0  0  0  0  0  0  0  0  0  0  0  0
   -6.6490    0.6940    2.1370 C   0  0  0  0  0  0  0  0  0  0  0  0
   -5.6550    0.0410    1.4010 C   0  0  0  0  0  0  0  0  0  0  0  0
   -5.6780   -1.3220    1.2940 C   0  0  0  0  0  0  0  0  0  0  0  0
   -4.7290   -2.0990    0.5880 N   0  0  0  0  0  0  0  0  0  0  0  0
   -3.6300   -1.6230   -0.1570 C   0  0  0  0  0  0  0  0  0  0  0  0
   -3.4310   -0.4000   -0.2410 O   0  0  0  0  0  0  0  0  0  0  0  0
   -2.7330   -2.5150   -0.8230 N   0  0  0  0  0  0  0  0  0  0  0  0
   -1.6010   -2.0560   -1.5890 C   0  0  0  0  0  0  0  0  0  0  0  0
   -0.6800   -1.2950   -0.7040 C   0  0  0  0  0  0  0  0  0  0  0  0
    0.5220   -0.7870   -1.4620 C   0  0  0  0  0  0  0  0  0  0  0  0
    0.6420   -1.0500   -2.6800 O   0  0  0  0  0  0  0  0  0  0  0  0
    1.5150   -0.0210   -0.8320 N   0  0  0  0  0  0  0  0  0  0  0  0
    2.6910    0.5220   -1.3900 C   0  0  0  0  0  0  0  0  0  0  0  0
    3.1900    0.1700   -2.6160 C   0  0  0  0  0  0  0  0  0  0  0  0
    4.3450    0.7370   -3.1640 C   0  0  0  0  0  0  0  0  0  0  0  0
    5.0330    1.6880   -2.4730 C   0  0  0  0  0  0  0  0  0  0  0  0
    4.5450    2.0530   -1.2350 C   0  0  0  0  0  0  0  0  0  0  0  0
    5.2720    3.0420   -0.4990 N   0  0  0  0  0  0  0  0  0  0  0  0
    6.5940    3.4870   -0.8430 C   0  0  0  0  0  0  0  0  0  0  0  0
    7.5520    2.4050   -0.6340 C   0  0  0  0  0  0  0  0  0  0  0  0
    8.3400    1.8520   -1.5160 C   0  0  0  0  0  0  0  0  0  0  0  0
    9.1350    0.7980   -0.8510 C   0  0  0  0  0  0  0  0  0  0  0  0
    8.6850    0.8350    0.5210 N   0  0  0  0  0  0  0  0  0  0  0  0
    7.7820    1.7440    0.6670 C   0  0  0  0  0  0  0  0  0  0  0  0
    3.4130    1.4990   -0.6970 C   0  0  0  0  0  0  0  0  0  0  0  0
   -6.7070   -2.0280    1.9310 C   0  0  0  0  0  0  0  0  0  0  0  0
   -6.8010   -3.3860    1.8720 O   0  0  0  0  0  0  0  0  0  0  0  0
  1  2  1  0
  2  3  1  0
  3  4  2  0
  3 30  1  0
  4  5  1  0
  5  6  2  0
  6  7  1  0
  7  8  1  0
  7 30  2  0
  8  9  1  0
  9 10  2  0
  9 11  1  0
 11 12  1  0
 12 13  1  0
 13 14  1  0
 14 15  2  0
 14 16  1  0
 16 17  1  0
 17 18  2  0
 17 29  1  0
 18 19  1  0
 19 20  2  0
 20 21  1  0
 21 22  1  0
 21 29  2  0
 22 23  1  0
 23 24  1  0
 24 25  2  0
 24 28  1  0
 25 26  1  0
 26 27  1  0
 27 28  2  0
 30 31  1  0
M  END
