
     RDKit          3D

 30 32  0  0  0  0  0  0  0  0999 V2000
    4.9010   -1.7840    2.3300 C   0  0  0  0  0  0  0  0  0  0  0  0
    4.6460   -0.7420    1.2960 C   0  0  0  0  0  0  0  0  0  0  0  0
    3.5260   -0.6270    0.6350 N   0  0  0  0  0  0  0  0  0  0  0  0
    3.3250    0.3090   -0.2880 C   0  0  0  0  0  0  0  0  0  0  0  0
    2.2040    0.3400   -1.0390 N   0  0  0  0  0  0  0  0  0  0  0  0
    1.0040   -0.2470   -1.3140 C   0  0  0  0  0  0  0  0  0  0  0  0
    0.6130    0.3180   -2.3890 O   0  0  0  0  0  0  0  0  0  0  0  0
    0.1540   -1.1960   -0.8110 N   0  0  0  0  0  0  0  0  0  0  0  0
   -1.0520   -1.5770   -1.3700 N   0  0  0  0  0  0  0  0  0  0  0  0
   -2.2840   -0.8940   -1.3070 C   0  0  0  0  0  0  0  0  0  0  0  0
   -3.1750   -1.2340   -0.3920 C   0  0  0  0  0  0  0  0  0  0  0  0
   -2.9110   -2.3060    0.5530 C   0  0  0  0  0  0  0  0  0  0  0  0
   -3.8140   -2.7310    1.5540 N   0  0  0  0  0  0  0  0  0  0  0  0
   -1.8100   -2.9470    0.5280 O   0  0  0  0  0  0  0  0  0  0  0  0
   -4.4520   -0.4950   -0.3600 C   0  0  1  0  0  0  0  0  0  0  0  0
   -5.5060   -1.3270    0.0890 O   0  0  0  0  0  0  0  0  0  0  0  0
   -4.4760    0.7160    0.4940 C   0  0  2  0  0  0  0  0  0  0  0  0
   -5.8370    1.4120    0.4630 C   0  0  0  0  0  0  0  0  0  0  0  0
   -3.4530    1.7690    0.1760 C   0  0  0  0  0  0  0  0  0  0  0  0
   -4.2580    0.3340    1.9500 C   0  0  0  0  0  0  0  0  0  0  0  0
   -4.7890   -0.1980   -1.8120 C   0  0  0  0  0  0  0  0  0  0  0  0
   -3.8420    0.5110   -2.4850 O   0  0  0  0  0  0  0  0  0  0  0  0
   -2.5370    0.1610   -2.3170 C   0  0  0  0  0  0  0  0  0  0  0  0
    4.3190    1.2120   -0.5770 N   0  0  0  0  0  0  0  0  0  0  0  0
    5.4690    1.1480    0.0560 C   0  0  0  0  0  0  0  0  0  0  0  0
    5.6380    0.1610    1.0030 C   0  0  0  0  0  0  0  0  0  0  0  0
    7.0110    0.2960    1.5590 C   0  0  0  0  0  0  0  0  0  0  0  0
    7.2050    1.7960    1.4050 C   0  0  0  0  0  0  0  0  0  0  0  0
    6.7000    1.9810   -0.0380 C   0  0  1  0  0  0  0  0  0  0  0  0
    7.6650    1.4480   -0.8750 O   0  0  0  0  0  0  0  0  0  0  0  0
  1  2  1  0
  2  3  2  0
  2 26  1  0
  3  4  1  0
  4  5  1  0
  4 24  2  0
  5  6  1  0
  6  7  2  0
  6  8  1  0
  8  9  1  0
  9 10  1  0
 10 11  2  0
 10 23  1  0
 11 12  1  0
 11 15  1  0
 12 13  1  0
 12 14  2  0
 15 16  1  1
 15 17  1  0
 15 21  1  0
 17 18  1  1
 17 19  1  0
 17 20  1  0
 21 22  1  0
 22 23  1  0
 24 25  1  0
 25 26  2  0
 25 29  1  0
 26 27  1  0
 27 28  1  0
 28 29  1  0
 29 30  1  6
M  END
