
     RDKit          3D

 29 31  0  0  0  0  0  0  0  0999 V2000
   -5.2040    0.1220    1.7830 C   0  0  0  0  0  0  0  0  0  0  0  0
   -4.1940    0.0320    0.7770 N   0  0  0  0  0  0  0  0  0  0  0  0
   -2.8620    0.2810    1.1650 C   0  0  0  0  0  0  0  0  0  0  0  0
   -1.9700   -0.7740    0.5880 C   0  0  0  0  0  0  0  0  0  0  0  0
   -0.8140   -0.4330   -0.1280 C   0  0  0  0  0  0  0  0  0  0  0  0
    0.0440   -1.3660   -0.6610 C   0  0  0  0  0  0  0  0  0  0  0  0
    1.2640   -1.0600   -1.3860 C   0  0  2  0  0  0  0  0  0  0  0  0
    2.0360   -2.3960   -1.5290 C   0  0  0  0  0  0  0  0  0  0  0  0
    2.3350   -2.9880   -0.1900 C   0  0  0  0  0  0  0  0  0  0  0  0
    3.0430   -4.0330   -0.1210 O   0  0  0  0  0  0  0  0  0  0  0  0
    1.8840   -2.4720    1.0200 O   0  0  0  0  0  0  0  0  0  0  0  0
    2.1820   -0.0150   -0.9440 C   0  0  0  0  0  0  0  0  0  0  0  0
    3.4180   -0.3180   -0.4120 C   0  0  0  0  0  0  0  0  0  0  0  0
    4.3220    0.6550    0.0430 C   0  0  0  0  0  0  0  0  0  0  0  0
    3.9860    1.9690   -0.0340 C   0  0  0  0  0  0  0  0  0  0  0  0
    2.7630    2.3150   -0.5620 C   0  0  0  0  0  0  0  0  0  0  0  0
    1.8760    1.3290   -1.0120 C   0  0  0  0  0  0  0  0  0  0  0  0
    2.7320    3.6610   -0.4980 N   0  0  0  0  0  0  0  0  0  0  0  0
    3.8680    4.0990    0.0340 N   0  0  0  0  0  0  0  0  0  0  0  0
    4.6610    3.0970    0.3330 N   0  0  0  0  0  0  0  0  0  0  0  0
    5.9740    3.0590    0.9340 C   0  0  0  0  0  0  0  0  0  0  0  0
   -0.3210   -2.6830   -0.4390 C   0  0  0  0  0  0  0  0  0  0  0  0
   -1.4500   -3.0540    0.2630 C   0  0  0  0  0  0  0  0  0  0  0  0
   -2.2940   -2.1060    0.7890 C   0  0  0  0  0  0  0  0  0  0  0  0
   -3.7270   -2.6070    1.6770 Cl  0  0  0  0  0  0  0  0  0  0  0  0
   -4.7510    0.4730   -0.7450 S   0  0  2  0  0  0  0  0  0  0  0  0
   -5.3300    2.1500   -0.8570 C   0  0  0  0  0  0  0  0  0  0  0  0
   -5.9610   -0.4180   -1.0520 O   0  0  0  0  0  0  0  0  0  0  0  0
   -3.7410    0.2000   -1.8200 O   0  0  0  0  0  0  0  0  0  0  0  0
  1  2  1  0
  2  3  1  0
  2 26  1  0
  3  4  1  0
  4  5  2  0
  4 24  1  0
  5  6  1  0
  6  7  1  0
  6 22  2  0
  7  8  1  1
  7 12  1  0
  8  9  1  0
  9 10  2  0
  9 11  1  0
 12 13  2  0
 12 17  1  0
 13 14  1  0
 14 15  2  0
 15 16  1  0
 15 20  1  0
 16 17  2  0
 16 18  1  0
 18 19  2  0
 19 20  1  0
 20 21  1  0
 22 23  1  0
 23 24  2  0
 24 25  1  0
 26 27  1  1
 26 28  2  0
 26 29  2  0
M  END
