
     RDKit          3D

 30 32  0  0  0  0  0  0  0  0999 V2000
    6.2390   -2.9840   -0.6820 C   0  0  0  0  0  0  0  0  0  0  0  0
    5.2630   -2.2570    0.0080 O   0  0  0  0  0  0  0  0  0  0  0  0
    4.7530   -1.0360   -0.4370 C   0  0  0  0  0  0  0  0  0  0  0  0
    5.2270   -0.5220   -1.6050 C   0  0  0  0  0  0  0  0  0  0  0  0
    4.7310    0.6820   -2.0530 C   0  0  0  0  0  0  0  0  0  0  0  0
    5.1830    1.2610   -3.2480 O   0  0  0  0  0  0  0  0  0  0  0  0
    3.7740    1.3370   -1.3170 C   0  0  0  0  0  0  0  0  0  0  0  0
    3.2790    2.5530   -1.7770 O   0  0  0  0  0  0  0  0  0  0  0  0
    3.2590    0.8410   -0.1100 C   0  0  0  0  0  0  0  0  0  0  0  0
    2.3230    1.5900    0.5000 O   0  0  0  0  0  0  0  0  0  0  0  0
    1.6090    1.3840    1.6600 C   0  0  0  0  0  0  0  0  0  0  0  0
    0.6900    0.2160    1.7070 C   0  0  0  0  0  0  0  0  0  0  0  0
   -0.3960    0.2880    0.6300 C   0  0  2  0  0  0  0  0  0  0  0  0
   -1.2320    1.5590    0.8320 C   0  0  0  0  0  0  0  0  0  0  0  0
   -2.2190    1.5810   -0.3170 C   0  0  2  0  0  0  0  0  0  0  0  0
   -3.0880    2.7780   -0.2750 C   0  0  0  0  0  0  0  0  0  0  0  0
   -3.1730    3.6760   -1.2600 N   0  0  0  0  0  0  0  0  0  0  0  0
   -4.0260    4.6210   -0.9300 N   0  0  0  0  0  0  0  0  0  0  0  0
   -4.4970    4.3300    0.2830 C   0  0  0  0  0  0  0  0  0  0  0  0
   -5.4590    5.0890    1.0440 N   0  0  0  0  0  0  0  0  0  0  0  0
   -3.9160    3.1790    0.7010 N   0  0  0  0  0  0  0  0  0  0  0  0
   -3.1040    0.3690   -0.1270 C   0  0  0  0  0  0  0  0  0  0  0  0
   -2.3430   -0.8910    0.0910 C   0  0  2  0  0  0  0  0  0  0  0  0
   -3.2630   -1.8300    0.8920 C   0  0  0  0  0  0  0  0  0  0  0  0
   -2.5990   -3.0970    1.0010 N   0  0  0  0  0  0  0  0  0  0  0  0
   -2.4090   -3.9100   -0.1410 C   0  0  0  0  0  0  0  0  0  0  0  0
   -1.1680   -4.7670   -0.2790 C   0  0  0  0  0  0  0  0  0  0  0  0
   -3.2980   -3.9180   -1.0630 N   0  0  0  0  0  0  0  0  0  0  0  0
   -1.1900   -0.8040    0.8100 O   0  0  0  0  0  0  0  0  0  0  0  0
    3.7880   -0.3600    0.2890 C   0  0  0  0  0  0  0  0  0  0  0  0
  1  2  1  0
  2  3  1  0
  3  4  2  0
  3 30  1  0
  4  5  1  0
  5  6  1  0
  5  7  2  0
  7  8  1  0
  7  9  1  0
  9 10  1  0
  9 30  2  0
 10 11  1  0
 11 12  1  0
 13 12  1  1
 13 14  1  0
 13 29  1  0
 14 15  1  0
 15 16  1  1
 15 22  1  0
 16 17  2  0
 16 21  1  0
 17 18  1  0
 18 19  2  0
 19 20  1  0
 19 21  1  0
 22 23  1  0
 23 24  1  1
 23 29  1  0
 24 25  1  0
 25 26  1  0
 26 27  1  0
 26 28  2  0
M  END
