
     RDKit          3D

 30 32  0  0  0  0  0  0  0  0999 V2000
   -4.2130    1.3770    2.3180 C   0  0  0  0  0  0  0  0  0  0  0  0
   -4.1070    0.1910    1.5140 N   0  0  0  0  0  0  0  0  0  0  0  0
   -4.4890   -1.0190    1.9480 C   0  0  0  0  0  0  0  0  0  0  0  0
   -4.2640   -1.9130    0.9340 C   0  0  0  0  0  0  0  0  0  0  0  0
   -3.7430   -1.1860   -0.0980 N   0  0  0  0  0  0  0  0  0  0  0  0
   -3.3670   -1.7920   -1.3250 C   0  0  0  0  0  0  0  0  0  0  0  0
   -2.0620   -2.4980   -1.4530 C   0  0  1  0  0  0  0  0  0  0  0  0
   -1.9690   -3.0090   -2.8740 C   0  0  0  0  0  0  0  0  0  0  0  0
   -2.9610   -3.6480   -3.3290 O   0  0  0  0  0  0  0  0  0  0  0  0
   -0.8350   -2.7820   -3.6440 N   0  0  0  0  0  0  0  0  0  0  0  0
    0.1590   -2.1740   -3.1520 C   0  0  0  0  0  0  0  0  0  0  0  0
    0.2340   -1.6470   -1.7630 C   0  0  0  0  0  0  0  0  0  0  0  0
    1.4560   -1.0020   -1.3560 C   0  0  0  0  0  0  0  0  0  0  0  0
    2.4090   -0.9050   -2.2270 O   0  0  0  0  0  0  0  0  0  0  0  0
    1.7670   -0.4540   -0.1170 N   0  0  0  0  0  0  0  0  0  0  0  0
    3.0640    0.1640    0.1000 N   0  0  0  0  0  0  0  0  0  0  0  0
    3.6370    0.0580    1.3620 C   0  0  0  0  0  0  0  0  0  0  0  0
    2.8900   -0.6220    2.2340 O   0  0  0  0  0  0  0  0  0  0  0  0
    4.8650    0.5440    1.8720 C   0  0  0  0  0  0  0  0  0  0  0  0
    5.8410    1.2060    1.4290 C   0  0  0  0  0  0  0  0  0  0  0  0
    6.1980    1.7970    0.1900 C   0  0  0  0  0  0  0  0  0  0  0  0
    5.4590    1.7720   -0.9430 O   0  0  0  0  0  0  0  0  0  0  0  0
    7.3760    2.4490    0.1070 C   0  0  0  0  0  0  0  0  0  0  0  0
    8.1810    2.5170    1.2150 O   0  0  0  0  0  0  0  0  0  0  0  0
   -0.8340   -1.8350   -1.0250 C   0  0  0  0  0  0  0  0  0  0  0  0
   -0.8220   -1.3990    0.3560 N   0  0  0  0  0  0  0  0  0  0  0  0
   -3.6490    0.1290    0.2750 C   0  0  0  0  0  0  0  0  0  0  0  0
   -3.1300    1.1770   -0.6270 C   0  0  2  0  0  0  0  0  0  0  0  0
   -2.0530    2.1310   -0.2100 C   0  0  0  0  0  0  0  0  0  0  0  0
   -3.4300    2.5910   -0.4780 C   0  0  0  0  0  0  0  0  0  0  0  0
  1  2  1  0
  2  3  1  0
  2 27  2  0
  3  4  2  0
  4  5  1  0
  5  6  1  0
  5 27  1  0
  7  6  1  6
  7  8  1  0
  7 25  1  0
  8  9  2  0
  8 10  1  0
 10 11  2  0
 11 12  1  0
 12 13  1  0
 12 25  2  0
 13 14  2  0
 13 15  1  0
 15 16  1  0
 16 17  1  0
 17 18  2  0
 17 19  1  0
 19 20  2  3
 20 21  1  0
 21 22  1  0
 21 23  2  3
 23 24  1  0
 25 26  1  0
 28 27  1  1
 28 29  1  0
 28 30  1  0
 29 30  1  0
M  CHG  1   2   1
M  END
