
     RDKit          3D

 30 33  0  0  0  0  0  0  0  0999 V2000
   -8.1220    2.3100    0.7150 C   0  0  0  0  0  0  0  0  0  0  0  0
   -6.8840    1.8440    0.1450 N   0  0  0  0  0  0  0  0  0  0  0  0
   -6.5860    1.9520   -1.1620 C   0  0  0  0  0  0  0  0  0  0  0  0
   -7.4290    2.4870   -1.9250 O   0  0  0  0  0  0  0  0  0  0  0  0
   -5.4200    1.5080   -1.6730 N   0  0  0  0  0  0  0  0  0  0  0  0
   -4.4840    0.9310   -0.9130 C   0  0  0  0  0  0  0  0  0  0  0  0
   -3.2830    0.4660   -1.4050 C   0  0  0  0  0  0  0  0  0  0  0  0
   -2.3380   -0.1250   -0.5920 C   0  0  0  0  0  0  0  0  0  0  0  0
   -1.0770   -0.6020   -1.1630 C   0  0  0  0  0  0  0  0  0  0  0  0
   -0.8580   -0.4540   -2.3980 O   0  0  0  0  0  0  0  0  0  0  0  0
   -0.0620   -1.2310   -0.4120 N   0  0  0  0  0  0  0  0  0  0  0  0
    1.1900   -1.7000   -0.9930 C   0  0  2  0  0  0  0  0  0  0  0  0
    1.1930   -3.1920   -0.7990 C   0  0  0  0  0  0  0  0  0  0  0  0
    2.3390   -3.8810   -1.2970 N   0  0  0  0  0  0  0  0  0  0  0  0
    0.2760   -3.8150   -0.2470 O   0  0  0  0  0  0  0  0  0  0  0  0
    2.3630   -1.1790   -0.2730 C   0  0  0  0  0  0  0  0  0  0  0  0
    3.4790   -0.6610   -0.8940 C   0  0  0  0  0  0  0  0  0  0  0  0
    4.3940   -0.2610    0.0860 C   0  0  0  0  0  0  0  0  0  0  0  0
    5.7170    0.3440   -0.1790 C   0  0  1  0  0  0  0  0  0  0  0  0
    5.8520    1.6290    0.6180 C   0  0  0  0  0  0  0  0  0  0  0  0
    6.3470    1.1360    1.9430 C   0  0  0  0  0  0  0  0  0  0  0  0
    6.5510   -0.2310    1.8410 O   0  0  0  0  0  0  0  0  0  0  0  0
    6.7870   -0.5150    0.5090 C   0  0  0  0  0  0  0  0  0  0  0  0
    3.8010   -0.5500    1.2500 N   0  0  0  0  0  0  0  0  0  0  0  0
    2.6000   -1.0920    1.0460 N   0  0  0  0  0  0  0  0  0  0  0  0
   -2.6530   -0.2310    0.7450 C   0  0  0  0  0  0  0  0  0  0  0  0
   -3.8350    0.2170    1.2770 C   0  0  0  0  0  0  0  0  0  0  0  0
   -4.7550    0.8010    0.4370 C   0  0  0  0  0  0  0  0  0  0  0  0
   -5.9390    1.2590    0.9250 C   0  0  0  0  0  0  0  0  0  0  0  0
   -6.1980    1.1470    2.1520 O   0  0  0  0  0  0  0  0  0  0  0  0
  1  2  1  0
  2  3  1  0
  2 29  1  0
  3  4  2  0
  3  5  1  0
  5  6  1  0
  6  7  2  0
  6 28  1  0
  7  8  1  0
  8  9  1  0
  8 26  2  0
  9 10  2  0
  9 11  1  0
 12 11  1  1
 12 13  1  0
 12 16  1  0
 13 14  1  0
 13 15  2  0
 16 17  2  0
 16 25  1  0
 17 18  1  0
 19 18  1  1
 18 24  2  0
 19 20  1  0
 19 23  1  0
 20 21  1  0
 21 22  1  0
 22 23  1  0
 24 25  1  0
 26 27  1  0
 27 28  2  0
 28 29  1  0
 29 30  2  0
M  END
