
     RDKit          3D

 30 32  0  0  0  0  0  0  0  0999 V2000
    4.4290    2.6990   -1.7730 C   0  0  0  0  0  0  0  0  0  0  0  0
    4.3790    2.5500   -0.3040 C   0  0  0  0  0  0  0  0  0  0  0  0
    4.9060    3.5030    0.5370 N   0  0  0  0  0  0  0  0  0  0  0  0
    4.7610    3.1060    1.7790 N   0  0  0  0  0  0  0  0  0  0  0  0
    4.1450    1.9060    1.7760 C   0  0  0  0  0  0  0  0  0  0  0  0
    3.7940    1.1210    2.9000 N   0  0  0  0  0  0  0  0  0  0  0  0
    3.8840    1.5190    0.4480 C   0  0  0  0  0  0  0  0  0  0  0  0
    3.2040    0.3330    0.1210 N   0  0  0  0  0  0  0  0  0  0  0  0
    2.4740    0.0190   -1.0220 C   0  0  0  0  0  0  0  0  0  0  0  0
    2.3320    0.8390   -1.9430 O   0  0  0  0  0  0  0  0  0  0  0  0
    1.8230   -1.3040   -1.2150 C   0  0  1  0  0  0  0  0  0  0  0  0
    0.9610   -1.7070   -0.0460 C   0  0  0  0  0  0  0  0  0  0  0  0
   -0.0480   -2.6580   -0.4390 N   0  0  0  0  0  0  0  0  0  0  0  0
   -1.2910   -2.8190    0.1760 C   0  0  0  0  0  0  0  0  0  0  0  0
   -1.6820   -3.9980    0.7530 C   0  0  0  0  0  0  0  0  0  0  0  0
   -2.8980   -4.1800    1.3630 C   0  0  0  0  0  0  0  0  0  0  0  0
   -3.7570   -3.1120    1.3860 C   0  0  0  0  0  0  0  0  0  0  0  0
   -3.4250   -1.8950    0.8230 C   0  0  0  0  0  0  0  0  0  0  0  0
   -2.1870   -1.7400    0.2130 C   0  0  0  0  0  0  0  0  0  0  0  0
   -1.7290   -0.6020   -0.3840 O   0  0  0  0  0  0  0  0  0  0  0  0
   -2.3690    0.6140   -0.4790 C   0  0  0  0  0  0  0  0  0  0  0  0
   -2.6310    1.3590    0.7780 C   0  0  1  0  0  0  0  0  0  0  0  0
   -1.3840    1.6370    1.4020 O   0  0  0  0  0  0  0  0  0  0  0  0
   -3.2830    2.7030    0.5490 C   0  0  1  0  0  0  0  0  0  0  0  0
   -4.5890    2.6030   -0.1700 C   0  0  0  0  0  0  0  0  0  0  0  0
   -3.4830    3.3880    1.7440 O   0  0  0  0  0  0  0  0  0  0  0  0
    0.2450   -3.5370   -1.5820 C   0  0  0  0  0  0  0  0  0  0  0  0
    0.4820   -2.6340   -2.7330 C   0  0  0  0  0  0  0  0  0  0  0  0
    0.1040   -3.0030   -3.8680 O   0  0  0  0  0  0  0  0  0  0  0  0
    1.1270   -1.4000   -2.4600 N   0  0  0  0  0  0  0  0  0  0  0  0
  1  2  1  0
  2  3  2  0
  2  7  1  0
  3  4  1  0
  4  5  1  0
  5  6  1  0
  5  7  2  0
  7  8  1  0
  8  9  1  0
  9 10  2  0
 11  9  1  1
 11 12  1  0
 11 30  1  0
 12 13  1  0
 13 14  1  0
 13 27  1  0
 14 15  2  0
 14 19  1  0
 15 16  1  0
 16 17  2  0
 17 18  1  0
 18 19  2  0
 19 20  1  0
 20 21  1  0
 21 22  1  0
 22 23  1  6
 22 24  1  0
 24 25  1  1
 24 26  1  0
 27 28  1  0
 28 29  2  0
 28 30  1  0
M  END
