
     RDKit          3D

 34 38  0  0  0  0  0  0  0  0999 V2000
   -2.9840   -2.0010    0.1920 C   0  0  0  0  0  0  0  0  0  0  0  0
   -2.2160   -0.8650    0.8290 C   0  0  1  0  0  0  0  0  0  0  0  0
   -2.5980   -0.9380    2.3090 C   0  0  0  0  0  0  0  0  0  0  0  0
   -0.7530   -1.2330    0.8020 C   0  0  0  0  0  0  0  0  0  0  0  0
   -0.4080   -2.4100    1.0480 O   0  0  0  0  0  0  0  0  0  0  0  0
    0.2450   -0.2780    0.5080 N   0  0  0  0  0  0  0  0  0  0  0  0
    1.6460   -0.4810    0.4430 C   0  0  0  0  0  0  0  0  0  0  0  0
    2.2190   -1.7010    0.6260 C   0  0  0  0  0  0  0  0  0  0  0  0
    3.5880   -1.8610    0.5370 C   0  0  0  0  0  0  0  0  0  0  0  0
    4.1780   -3.1520    0.7330 N   0  0  0  0  0  0  0  0  0  0  0  0
    4.5250   -3.9820   -0.2640 C   0  0  0  0  0  0  0  0  0  0  0  0
    5.0500   -5.1070    0.3360 C   0  0  0  0  0  0  0  0  0  0  0  0
    5.0240   -4.9620    1.7020 C   0  0  0  0  0  0  0  0  0  0  0  0
    4.4640   -3.7110    1.9200 C   0  0  0  0  0  0  0  0  0  0  0  0
    4.3670   -0.8250    0.2710 N   0  0  0  0  0  0  0  0  0  0  0  0
    3.8320    0.3940    0.0850 C   0  0  0  0  0  0  0  0  0  0  0  0
    2.4770    0.6060    0.1620 C   0  0  0  0  0  0  0  0  0  0  0  0
    1.9540    1.9330    0.0150 N   0  0  0  0  0  0  0  0  0  0  0  0
    2.7640    2.9350   -0.5520 C   0  0  0  0  0  0  0  0  0  0  0  0
    2.6900    4.1980    0.0220 C   0  0  0  0  0  0  0  0  0  0  0  0
    3.4010    5.2380   -0.4860 C   0  0  0  0  0  0  0  0  0  0  0  0
    4.2240    5.1130   -1.5810 C   0  0  0  0  0  0  0  0  0  0  0  0
    4.3090    3.8670   -2.1630 C   0  0  0  0  0  0  0  0  0  0  0  0
    3.5810    2.8050   -1.6420 C   0  0  0  0  0  0  0  0  0  0  0  0
   -2.4490    0.4020    0.2690 N   0  0  0  0  0  0  0  0  0  0  0  0
   -2.1410    0.6120   -1.0930 C   0  0  0  0  0  0  0  0  0  0  0  0
   -3.3410    0.5910   -2.0120 C   0  0  0  0  0  0  0  0  0  0  0  0
   -4.6280    0.4680   -1.3010 C   0  0  0  0  0  0  0  0  0  0  0  0
   -5.7270    0.0780   -2.0170 C   0  0  0  0  0  0  0  0  0  0  0  0
   -6.9080   -0.0460   -1.4080 N   0  0  0  0  0  0  0  0  0  0  0  0
   -7.1040    0.1950   -0.0900 C   0  0  0  0  0  0  0  0  0  0  0  0
   -5.9940    0.5860    0.6240 C   0  0  0  0  0  0  0  0  0  0  0  0
   -4.7660    0.7280    0.0550 C   0  0  0  0  0  0  0  0  0  0  0  0
   -3.5410    1.1460    0.7740 C   0  0  0  0  0  0  0  0  0  0  0  0
  2  1  1  6
  2  3  1  0
  2  4  1  0
  2 25  1  0
  4  5  2  0
  4  6  1  0
  6  7  1  0
  7  8  2  0
  7 17  1  0
  8  9  1  0
  9 10  1  0
  9 15  2  0
 10 11  1  0
 10 14  1  0
 11 12  2  0
 12 13  1  0
 13 14  2  0
 15 16  1  0
 16 17  2  0
 17 18  1  0
 18 19  1  0
 19 20  2  0
 19 24  1  0
 20 21  1  0
 21 22  2  0
 22 23  1  0
 23 24  2  0
 25 26  1  0
 25 34  1  0
 26 27  1  0
 27 28  1  0
 28 29  2  0
 28 33  1  0
 29 30  1  0
 30 31  2  0
 31 32  1  0
 32 33  2  0
 33 34  1  0
M  END
