
     RDKit          3D

 34 38  0  0  0  0  0  0  0  0999 V2000
    5.5310   -2.5760   -0.6660 C   0  0  0  0  0  0  0  0  0  0  0  0
    5.4710   -1.3330   -1.5350 C   0  0  2  0  0  0  0  0  0  0  0  0
    6.2560   -1.6650   -2.8060 C   0  0  0  0  0  0  0  0  0  0  0  0
    6.0990   -0.1730   -0.8120 C   0  0  0  0  0  0  0  0  0  0  0  0
    7.5470   -0.5360   -0.5230 C   0  0  0  0  0  0  0  0  0  0  0  0
    8.2140    0.5410    0.1740 N   0  0  0  0  0  0  0  0  0  0  0  0
    8.8640    1.5400   -0.4300 C   0  0  0  0  0  0  0  0  0  0  0  0
    9.3650    2.3660    0.5510 C   0  0  0  0  0  0  0  0  0  0  0  0
    8.9910    1.8250    1.7550 C   0  0  0  0  0  0  0  0  0  0  0  0
    8.2580    0.6630    1.5130 C   0  0  0  0  0  0  0  0  0  0  0  0
    4.0480   -0.9700   -1.8820 C   0  0  0  0  0  0  0  0  0  0  0  0
    3.3180   -0.7390   -0.6660 N   0  0  0  0  0  0  0  0  0  0  0  0
    1.9210   -0.3610   -0.7050 C   0  0  0  0  0  0  0  0  0  0  0  0
    1.3990   -0.2500   -1.8240 O   0  0  0  0  0  0  0  0  0  0  0  0
    1.1930   -0.1320    0.4620 N   0  0  0  0  0  0  0  0  0  0  0  0
   -0.1560    0.2250    0.5540 C   0  0  0  0  0  0  0  0  0  0  0  0
   -0.6980    0.6630    1.7670 C   0  0  0  0  0  0  0  0  0  0  0  0
   -2.0120    1.0100    1.9180 C   0  0  0  0  0  0  0  0  0  0  0  0
   -2.8830    0.9460    0.8670 C   0  0  0  0  0  0  0  0  0  0  0  0
   -4.2590    1.2960    0.9660 N   0  0  0  0  0  0  0  0  0  0  0  0
   -4.7760    2.4540    1.3530 N   0  0  0  0  0  0  0  0  0  0  0  0
   -6.1280    2.3990    1.3150 C   0  0  0  0  0  0  0  0  0  0  0  0
   -6.4770    1.1400    0.8800 C   0  0  0  0  0  0  0  0  0  0  0  0
   -7.7010    0.4930    0.6420 C   0  0  0  0  0  0  0  0  0  0  0  0
   -7.7460   -0.8060    0.1980 C   0  0  0  0  0  0  0  0  0  0  0  0
   -6.5110   -1.4400    0.0000 C   0  0  0  0  0  0  0  0  0  0  0  0
   -5.3540   -0.8010    0.2350 N   0  0  0  0  0  0  0  0  0  0  0  0
   -5.3030    0.4690    0.6690 C   0  0  0  0  0  0  0  0  0  0  0  0
   -9.0160   -1.5280   -0.0680 C   0  0  0  0  0  0  0  0  0  0  0  0
  -10.1090   -0.8500    0.7260 C   0  0  0  0  0  0  0  0  0  0  0  0
  -10.0960    0.6070    0.2740 C   0  0  0  0  0  0  0  0  0  0  0  0
   -8.9130    1.3040    0.9020 C   0  0  0  0  0  0  0  0  0  0  0  0
   -2.3740    0.5190   -0.3360 C   0  0  0  0  0  0  0  0  0  0  0  0
   -1.0160    0.1590   -0.4930 C   0  0  0  0  0  0  0  0  0  0  0  0
  2  1  1  1
  2  3  1  0
  2  4  1  0
  2 11  1  0
  4  5  1  0
  5  6  1  0
  6  7  1  0
  6 10  1  0
  7  8  2  0
  8  9  1  0
  9 10  2  0
 11 12  1  0
 12 13  1  0
 13 14  2  0
 13 15  1  0
 15 16  1  0
 16 17  2  0
 16 34  1  0
 17 18  1  0
 18 19  2  0
 19 20  1  0
 19 33  1  0
 20 21  1  0
 20 28  1  0
 21 22  2  0
 22 23  1  0
 23 24  2  0
 23 28  1  0
 24 25  1  0
 24 32  1  0
 25 26  2  0
 25 29  1  0
 26 27  1  0
 27 28  2  0
 29 30  1  0
 30 31  1  0
 31 32  1  0
 33 34  2  0
M  END
