
     RDKit          3D

 35 39  0  0  0  0  0  0  0  0999 V2000
   -3.7010    4.5840    0.5420 C   0  0  0  0  0  0  0  0  0  0  0  0
   -2.8290    3.4760    0.6110 O   0  0  0  0  0  0  0  0  0  0  0  0
   -1.9010    3.4230    1.6320 C   0  0  0  0  0  0  0  0  0  0  0  0
   -1.8160    4.4170    2.5660 C   0  0  0  0  0  0  0  0  0  0  0  0
   -0.8930    4.3770    3.5920 C   0  0  0  0  0  0  0  0  0  0  0  0
   -0.0380    3.2950    3.6630 C   0  0  0  0  0  0  0  0  0  0  0  0
   -0.0860    2.2690    2.7450 C   0  0  0  0  0  0  0  0  0  0  0  0
   -1.0210    2.3440    1.7340 C   0  0  0  0  0  0  0  0  0  0  0  0
   -1.1670    1.2970    0.7390 C   0  0  0  0  0  0  0  0  0  0  0  0
   -0.1660    0.8490    0.0490 C   0  0  0  0  0  0  0  0  0  0  0  0
    1.1660    1.3160    0.1690 N   0  0  0  0  0  0  0  0  0  0  0  0
    2.1640    0.7040   -0.6490 C   0  0  0  0  0  0  0  0  0  0  0  0
    3.5290    1.1270   -0.5850 N   0  0  0  0  0  0  0  0  0  0  0  0
    4.5670    0.1950   -0.8420 C   0  0  1  0  0  0  0  0  0  0  0  0
    5.9510    0.8500   -0.8070 C   0  0  0  0  0  0  0  0  0  0  0  0
    6.8430   -0.3820   -0.7570 C   0  0  0  0  0  0  0  0  0  0  0  0
    6.0410   -1.2590    0.1750 C   0  0  0  0  0  0  0  0  0  0  0  0
    6.4990   -2.2840    1.0010 C   0  0  0  0  0  0  0  0  0  0  0  0
    5.6360   -2.9850    1.8140 C   0  0  0  0  0  0  0  0  0  0  0  0
    4.3100   -2.6190    1.7660 C   0  0  0  0  0  0  0  0  0  0  0  0
    3.8490   -1.6080    0.9540 C   0  0  0  0  0  0  0  0  0  0  0  0
    4.7190   -0.8950    0.1270 C   0  0  0  0  0  0  0  0  0  0  0  0
    1.8300   -0.2310   -1.4520 N   0  0  0  0  0  0  0  0  0  0  0  0
    0.5360   -0.7290   -1.6120 N   0  0  0  0  0  0  0  0  0  0  0  0
   -0.4240   -0.2450   -0.9230 C   0  0  0  0  0  0  0  0  0  0  0  0
   -1.7050   -0.7680   -1.1090 O   0  0  0  0  0  0  0  0  0  0  0  0
   -1.8730   -1.9910   -1.8280 C   0  0  0  0  0  0  0  0  0  0  0  0
   -3.3140   -2.3010   -1.8680 C   0  0  0  0  0  0  0  0  0  0  0  0
   -3.7390   -3.4580   -2.4880 C   0  0  0  0  0  0  0  0  0  0  0  0
   -5.0700   -3.7440   -2.5260 C   0  0  0  0  0  0  0  0  0  0  0  0
   -6.0180   -2.9260   -1.9710 C   0  0  0  0  0  0  0  0  0  0  0  0
   -7.4560   -3.2940   -2.0450 C   0  0  0  0  0  0  0  0  0  0  0  0
   -5.5730   -1.7740   -1.3560 C   0  0  0  0  0  0  0  0  0  0  0  0
   -6.5100   -0.9620   -0.8050 F   0  0  0  0  0  0  0  0  0  0  0  0
   -4.2290   -1.4680   -1.3070 C   0  0  0  0  0  0  0  0  0  0  0  0
  1  2  1  0
  2  3  1  0
  3  4  2  0
  3  8  1  0
  4  5  1  0
  5  6  2  0
  6  7  1  0
  7  8  2  0
  8  9  1  0
  9 10  2  3
 10 11  1  0
 10 25  1  0
 11 12  1  0
 12 13  1  0
 12 23  2  0
 14 13  1  1
 14 15  1  0
 14 22  1  0
 15 16  1  0
 16 17  1  0
 17 18  2  0
 17 22  1  0
 18 19  1  0
 19 20  2  0
 20 21  1  0
 21 22  2  0
 23 24  1  0
 24 25  2  0
 25 26  1  0
 26 27  1  0
 27 28  1  0
 28 29  2  0
 28 35  1  0
 29 30  1  0
 30 31  2  0
 31 32  1  0
 31 33  1  0
 33 34  1  0
 33 35  2  0
M  END
