
     RDKit          3D

 34 37  0  0  0  0  0  0  0  0999 V2000
    2.3400    1.9480    0.3250 C   0  0  0  0  0  0  0  0  0  0  0  0
    2.5100    0.6570    0.7790 N   0  0  0  0  0  0  0  0  0  0  0  0
    2.1770    0.1970    2.0360 C   0  0  0  0  0  0  0  0  0  0  0  0
    0.8960   -0.5560    2.1140 C   0  0  0  0  0  0  0  0  0  0  0  0
    0.1200   -0.7770    0.9950 C   0  0  0  0  0  0  0  0  0  0  0  0
   -1.0640   -1.4750    1.0480 C   0  0  0  0  0  0  0  0  0  0  0  0
   -1.9420   -1.7460   -0.1050 C   0  0  2  0  0  0  0  0  0  0  0  0
   -1.2090   -1.9530   -1.4020 C   0  0  0  0  0  0  0  0  0  0  0  0
   -2.2060   -2.2190   -2.4610 C   0  0  0  0  0  0  0  0  0  0  0  0
   -3.2040   -1.4720   -2.7100 O   0  0  0  0  0  0  0  0  0  0  0  0
   -2.1330   -3.3590   -3.3050 O   0  0  0  0  0  0  0  0  0  0  0  0
   -2.9850   -0.6900   -0.2440 C   0  0  0  0  0  0  0  0  0  0  0  0
   -4.2410   -0.8820    0.3390 C   0  0  0  0  0  0  0  0  0  0  0  0
   -5.2420    0.0720    0.2600 C   0  0  0  0  0  0  0  0  0  0  0  0
   -5.0300    1.2550   -0.4030 C   0  0  0  0  0  0  0  0  0  0  0  0
   -3.7960    1.4640   -0.9850 C   0  0  0  0  0  0  0  0  0  0  0  0
   -2.8050    0.5040   -0.9000 C   0  0  0  0  0  0  0  0  0  0  0  0
   -3.8870    2.6840   -1.5490 N   0  0  0  0  0  0  0  0  0  0  0  0
   -5.1090    3.1840   -1.3210 N   0  0  0  0  0  0  0  0  0  0  0  0
   -5.8280    2.3410   -0.6280 N   0  0  0  0  0  0  0  0  0  0  0  0
   -7.2100    2.4940   -0.1620 C   0  0  0  0  0  0  0  0  0  0  0  0
   -1.4350   -1.9430    2.2860 C   0  0  0  0  0  0  0  0  0  0  0  0
   -0.6870   -1.7440    3.4330 C   0  0  0  0  0  0  0  0  0  0  0  0
    0.4940   -1.0370    3.3290 C   0  0  0  0  0  0  0  0  0  0  0  0
    1.4790   -0.7540    4.7630 Cl  0  0  0  0  0  0  0  0  0  0  0  0
    3.4290   -0.3630   -0.1790 S   0  0  1  0  0  0  0  0  0  0  0  0
    3.5460   -1.7570    0.3980 O   0  0  0  0  0  0  0  0  0  0  0  0
    2.8700   -0.5010   -1.5930 O   0  0  0  0  0  0  0  0  0  0  0  0
    5.0920    0.2020   -0.3810 C   0  0  0  0  0  0  0  0  0  0  0  0
    5.4240    0.9810   -1.4660 C   0  0  0  0  0  0  0  0  0  0  0  0
    6.7350    1.4130   -1.6000 C   0  0  0  0  0  0  0  0  0  0  0  0
    7.7000    1.0800   -0.6740 C   0  0  0  0  0  0  0  0  0  0  0  0
    7.3630    0.2960    0.4160 C   0  0  0  0  0  0  0  0  0  0  0  0
    6.0460   -0.1370    0.5480 C   0  0  0  0  0  0  0  0  0  0  0  0
  1  2  1  0
  2  3  1  0
 26  2  1  1
  3  4  1  0
  4  5  2  0
  4 24  1  0
  5  6  1  0
  6  7  1  0
  6 22  2  0
  7  8  1  6
  7 12  1  0
  8  9  1  0
  9 10  2  0
  9 11  1  0
 12 13  2  0
 12 17  1  0
 13 14  1  0
 14 15  2  0
 15 16  1  0
 15 20  1  0
 16 17  2  0
 16 18  1  0
 18 19  2  0
 19 20  1  0
 20 21  1  0
 22 23  1  0
 23 24  2  0
 24 25  1  0
 26 27  2  0
 26 28  2  0
 26 29  1  0
 29 30  2  0
 29 34  1  0
 30 31  1  0
 31 32  2  0
 32 33  1  0
 33 34  2  0
M  END
