
     RDKit          3D

 34 38  0  0  0  0  0  0  0  0999 V2000
    5.8290    3.6620    0.9450 C   0  0  0  0  0  0  0  0  0  0  0  0
    5.4830    2.2360    1.2410 C   0  0  0  0  0  0  0  0  0  0  0  0
    6.0890    1.5520    2.2780 C   0  0  0  0  0  0  0  0  0  0  0  0
    5.7130    0.2450    2.4840 C   0  0  0  0  0  0  0  0  0  0  0  0
    4.7580   -0.3750    1.6800 C   0  0  0  0  0  0  0  0  0  0  0  0
    4.1410    0.2820    0.6420 C   0  0  0  0  0  0  0  0  0  0  0  0
    3.1850   -0.2790   -0.2350 N   0  0  0  0  0  0  0  0  0  0  0  0
    2.9370   -1.6280   -0.5160 C   0  0  0  0  0  0  0  0  0  0  0  0
    3.6540   -2.4920    0.0490 O   0  0  0  0  0  0  0  0  0  0  0  0
    1.9120   -2.1100   -1.4260 C   0  0  0  0  0  0  0  0  0  0  0  0
    2.2690   -2.7640   -2.5880 C   0  0  0  0  0  0  0  0  0  0  0  0
    1.3540   -3.1590   -3.5300 C   0  0  0  0  0  0  0  0  0  0  0  0
    0.0190   -2.8910   -3.3060 C   0  0  0  0  0  0  0  0  0  0  0  0
   -0.3920   -2.2360   -2.1500 C   0  0  0  0  0  0  0  0  0  0  0  0
    0.5510   -1.8640   -1.2390 C   0  0  0  0  0  0  0  0  0  0  0  0
    0.1620   -1.2160    0.0160 C   0  0  0  0  0  0  0  0  0  0  0  0
   -1.2580   -1.0390    0.1910 N   0  0  0  0  0  0  0  0  0  0  0  0
   -2.0340   -2.1670    0.6520 C   0  0  0  0  0  0  0  0  0  0  0  0
   -3.4790   -1.9050    0.7850 C   0  0  0  0  0  0  0  0  0  0  0  0
   -4.0750   -1.4780    1.9790 C   0  0  0  0  0  0  0  0  0  0  0  0
   -5.4210   -1.3510    1.7470 C   0  0  0  0  0  0  0  0  0  0  0  0
   -5.6740   -1.6810    0.4610 N   0  0  0  0  0  0  0  0  0  0  0  0
   -4.5170   -2.0120   -0.1150 C   0  0  0  0  0  0  0  0  0  0  0  0
   -1.8900    0.1930   -0.0860 C   0  0  0  0  0  0  0  0  0  0  0  0
   -1.1460    1.2190   -0.6340 C   0  0  0  0  0  0  0  0  0  0  0  0
   -1.7110    2.4590   -0.9020 C   0  0  0  0  0  0  0  0  0  0  0  0
   -3.0410    2.6410   -0.6080 C   0  0  0  0  0  0  0  0  0  0  0  0
   -3.6030    3.8610   -0.8640 N   0  0  0  0  0  0  0  0  0  0  0  0
   -4.9030    4.0370   -0.5700 C   0  0  0  0  0  0  0  0  0  0  0  0
   -5.6590    3.0070   -0.0200 C   0  0  0  0  0  0  0  0  0  0  0  0
   -5.0540    1.8320    0.2100 N   0  0  0  0  0  0  0  0  0  0  0  0
   -3.7440    1.5920   -0.0650 C   0  0  0  0  0  0  0  0  0  0  0  0
   -3.1810    0.4110    0.1850 N   0  0  0  0  0  0  0  0  0  0  0  0
    4.5410    1.6170    0.4520 C   0  0  0  0  0  0  0  0  0  0  0  0
  1  2  1  0
  2  3  2  0
  2 34  1  0
  3  4  1  0
  4  5  2  0
  5  6  1  0
  6  7  1  0
  6 34  2  0
  7  8  1  0
  8  9  2  0
  8 10  1  0
 10 11  2  0
 10 15  1  0
 11 12  1  0
 12 13  2  0
 13 14  1  0
 14 15  2  0
 15 16  1  0
 16 17  1  0
 17 18  1  0
 17 24  1  0
 18 19  1  0
 19 20  1  0
 19 23  2  0
 20 21  2  0
 21 22  1  0
 22 23  1  0
 24 25  2  0
 24 33  1  0
 25 26  1  0
 26 27  2  0
 27 28  1  0
 27 32  1  0
 28 29  2  0
 29 30  1  0
 30 31  2  0
 31 32  1  0
 32 33  2  0
M  END
