
     RDKit          3D

 34 38  0  0  0  0  0  0  0  0999 V2000
    5.7360    3.1120    1.0780 C   0  0  0  0  0  0  0  0  0  0  0  0
    7.0440    2.4970    1.4730 C   0  0  0  0  0  0  0  0  0  0  0  0
    6.8740    1.1410    2.0680 C   0  0  0  0  0  0  0  0  0  0  0  0
    6.9600    0.8630    3.3830 N   0  0  0  0  0  0  0  0  0  0  0  0
    6.7600   -0.4230    3.5720 N   0  0  0  0  0  0  0  0  0  0  0  0
    6.5360   -1.0140    2.3610 C   0  0  0  0  0  0  0  0  0  0  0  0
    6.6070   -0.0320    1.4130 C   0  0  0  0  0  0  0  0  0  0  0  0
    6.4350   -0.1840   -0.0130 C   0  0  0  0  0  0  0  0  0  0  0  0
    7.4440   -0.4300   -0.7280 O   0  0  0  0  0  0  0  0  0  0  0  0
    5.1580   -0.0600   -0.6160 N   0  0  0  0  0  0  0  0  0  0  0  0
    3.9660    0.2180    0.1420 C   0  0  0  0  0  0  0  0  0  0  0  0
    2.9260   -0.8130   -0.1470 C   0  0  0  0  0  0  0  0  0  0  0  0
    2.7070   -0.9690   -1.5900 C   0  0  0  0  0  0  0  0  0  0  0  0
    1.3950   -1.4500   -2.0800 C   0  0  0  0  0  0  0  0  0  0  0  0
    1.1310   -2.8430   -1.4950 C   0  0  0  0  0  0  0  0  0  0  0  0
   -0.2080   -3.3580   -1.9810 C   0  0  0  0  0  0  0  0  0  0  0  0
   -1.3230   -2.4490   -1.5610 C   0  0  0  0  0  0  0  0  0  0  0  0
   -1.8310   -1.3910   -2.2160 N   0  0  0  0  0  0  0  0  0  0  0  0
   -2.8320   -0.8420   -1.4930 C   0  0  0  0  0  0  0  0  0  0  0  0
   -3.6840    0.2370   -1.6790 C   0  0  0  0  0  0  0  0  0  0  0  0
   -4.6330    0.5550   -0.7280 C   0  0  0  0  0  0  0  0  0  0  0  0
   -4.7620   -0.1920    0.4360 C   0  0  0  0  0  0  0  0  0  0  0  0
   -3.9170   -1.2560    0.6150 C   0  0  0  0  0  0  0  0  0  0  0  0
   -2.9530   -1.5880   -0.3390 C   0  0  0  0  0  0  0  0  0  0  0  0
   -2.0200   -2.5520   -0.4200 N   0  0  0  0  0  0  0  0  0  0  0  0
   -5.8100    0.2180    1.4060 C   0  0  0  0  0  0  0  0  0  0  0  0
   -7.1380    0.4670    0.6910 C   0  0  1  0  0  0  0  0  0  0  0  0
   -8.1090    1.1480    1.6220 C   0  0  0  0  0  0  0  0  0  0  0  0
   -7.6290    2.4770    2.1260 C   0  0  0  0  0  0  0  0  0  0  0  0
   -6.9670    1.1660   -0.6180 C   0  0  0  0  0  0  0  0  0  0  0  0
   -5.5790    1.6980   -0.8630 C   0  0  0  0  0  0  0  0  0  0  0  0
    3.6540   -0.6890   -2.4520 C   0  0  0  0  0  0  0  0  0  0  0  0
    4.9800   -0.2050   -2.0300 C   0  0  0  0  0  0  0  0  0  0  0  0
    5.9320    0.0750   -2.8290 N   0  0  0  0  0  0  0  0  0  0  0  0
  1  2  1  0
  2  3  1  0
  3  4  2  0
  3  7  1  0
  4  5  1  0
  5  6  1  0
  6  7  2  0
  7  8  1  0
  8  9  2  0
  8 10  1  0
 10 11  1  0
 10 33  1  0
 11 12  1  0
 12 13  1  0
 13 14  1  0
 13 32  2  0
 14 15  1  0
 15 16  1  0
 16 17  1  0
 17 18  2  0
 17 25  1  0
 18 19  1  0
 19 20  2  0
 19 24  1  0
 20 21  1  0
 21 22  2  0
 21 31  1  0
 22 23  1  0
 22 26  1  0
 23 24  2  0
 24 25  1  0
 26 27  1  0
 27 28  1  1
 27 30  1  0
 28 29  1  0
 30 31  1  0
 32 33  1  0
 33 34  2  0
M  END
