
     RDKit          3D

 34 38  0  0  0  0  0  0  0  0999 V2000
   -5.1170    1.8470   -1.5340 C   0  0  0  0  0  0  0  0  0  0  0  0
   -5.5270    2.5880   -0.3250 C   0  0  0  0  0  0  0  0  0  0  0  0
   -4.8220    2.3410    0.9520 C   0  0  0  0  0  0  0  0  0  0  0  0
   -3.3610    2.5950    0.8840 C   0  0  0  0  0  0  0  0  0  0  0  0
   -2.9810    3.9010    1.0900 N   0  0  0  0  0  0  0  0  0  0  0  0
   -1.7110    4.2420    0.9550 C   0  0  0  0  0  0  0  0  0  0  0  0
   -0.8130    3.3270    0.6240 N   0  0  0  0  0  0  0  0  0  0  0  0
   -1.0620    2.0300    0.4010 C   0  0  0  0  0  0  0  0  0  0  0  0
   -0.0740    1.0810    0.0970 N   0  0  0  0  0  0  0  0  0  0  0  0
    1.2870    1.3580   -0.0820 C   0  0  0  0  0  0  0  0  0  0  0  0
    1.8670    2.5920   -0.0230 C   0  0  0  0  0  0  0  0  0  0  0  0
    3.2410    2.8140   -0.1990 C   0  0  0  0  0  0  0  0  0  0  0  0
    4.0700    1.7530   -0.4440 C   0  0  0  0  0  0  0  0  0  0  0  0
    5.4370    1.9120   -0.6260 C   0  0  0  0  0  0  0  0  0  0  0  0
    5.9130    3.0890   -0.5580 O   0  0  0  0  0  0  0  0  0  0  0  0
    6.1870    0.8410   -0.8600 N   0  0  0  0  0  0  0  0  0  0  0  0
    5.6310   -0.3870   -0.9210 C   0  0  0  0  0  0  0  0  0  0  0  0
    6.4500   -1.4750   -1.1630 C   0  0  0  0  0  0  0  0  0  0  0  0
    5.9210   -2.7540   -1.2300 C   0  0  0  0  0  0  0  0  0  0  0  0
    6.8390   -3.8840   -1.4890 C   0  0  0  0  0  0  0  0  0  0  0  0
    4.5650   -2.9270   -1.0520 C   0  0  0  0  0  0  0  0  0  0  0  0
    3.7380   -1.8510   -0.8110 C   0  0  0  0  0  0  0  0  0  0  0  0
    4.2790   -0.5770   -0.7460 C   0  0  0  0  0  0  0  0  0  0  0  0
    3.4780    0.5100   -0.5030 C   0  0  0  0  0  0  0  0  0  0  0  0
    2.1720    0.3290   -0.3330 N   0  0  0  0  0  0  0  0  0  0  0  0
   -2.4150    1.6690    0.5460 C   0  0  0  0  0  0  0  0  0  0  0  0
   -2.7820    0.2600    0.4370 C   0  0  0  0  0  0  0  0  0  0  0  0
   -2.7380   -0.4560    1.7820 C   0  0  0  0  0  0  0  0  0  0  0  0
   -3.1410   -1.8560    1.5010 C   0  0  0  0  0  0  0  0  0  0  0  0
   -2.2500   -2.8500    1.1520 C   0  0  0  0  0  0  0  0  0  0  0  0
   -2.6840   -4.1520    0.8990 C   0  0  0  0  0  0  0  0  0  0  0  0
   -4.0300   -4.4250    1.0060 C   0  0  0  0  0  0  0  0  0  0  0  0
   -4.8940   -3.4330    1.3510 C   0  0  0  0  0  0  0  0  0  0  0  0
   -4.4410   -2.1890    1.5880 N   0  0  0  0  0  0  0  0  0  0  0  0
  1  2  1  0
  2  3  1  0
  3  4  1  0
  4  5  2  0
  4 26  1  0
  5  6  1  0
  6  7  2  0
  7  8  1  0
  8  9  1  0
  8 26  2  0
  9 10  1  0
 10 11  2  0
 10 25  1  0
 11 12  1  0
 12 13  2  0
 13 14  1  0
 13 24  1  0
 14 15  2  0
 14 16  1  0
 16 17  1  0
 17 18  2  0
 17 23  1  0
 18 19  1  0
 19 20  1  0
 19 21  2  0
 21 22  1  0
 22 23  2  0
 23 24  1  0
 24 25  2  0
 26 27  1  0
 27 28  1  0
 28 29  1  0
 29 30  2  0
 29 34  1  0
 30 31  1  0
 31 32  2  0
 32 33  1  0
 33 34  2  0
M  END
