
     RDKit          3D

 39 42  0  0  0  0  0  0  0  0999 V2000
   -0.4120   -2.9440   -0.1530 C   0  0  0  0  0  0  0  0  0  0  0  0
   -1.4350   -2.5870   -1.1570 C   0  0  0  0  0  0  0  0  0  0  0  0
   -2.1970   -1.5210   -0.9250 C   0  0  0  0  0  0  0  0  0  0  0  0
   -2.0840   -0.7170    0.2140 N   0  0  0  0  0  0  0  0  0  0  0  0
   -1.0470   -0.0110    0.4640 C   0  0  0  0  0  0  0  0  0  0  0  0
   -1.1260    0.7470    1.6890 N   0  0  0  0  0  0  0  0  0  0  0  0
   -2.2960    1.4730    2.0170 C   0  0  0  0  0  0  0  0  0  0  0  0
   -3.3880    1.6470    1.2050 C   0  0  0  0  0  0  0  0  0  0  0  0
   -4.4860    2.3810    1.6520 C   0  0  0  0  0  0  0  0  0  0  0  0
   -4.5470    2.9630    2.8970 C   0  0  0  0  0  0  0  0  0  0  0  0
   -5.7350    3.7430    3.3480 C   0  0  0  0  0  0  0  0  0  0  0  0
   -3.4530    2.7930    3.7170 C   0  0  0  0  0  0  0  0  0  0  0  0
   -2.3640    2.0700    3.2870 C   0  0  0  0  0  0  0  0  0  0  0  0
    0.1480    0.0780   -0.3650 C   0  0  0  0  0  0  0  0  0  0  0  0
    0.0450    0.1760   -1.7200 C   0  0  0  0  0  0  0  0  0  0  0  0
    1.1630    0.2530   -2.5420 C   0  0  0  0  0  0  0  0  0  0  0  0
    2.4360    0.2270   -1.9540 C   0  0  0  0  0  0  0  0  0  0  0  0
    3.4940    0.3440   -2.8800 N   0  0  0  0  0  0  0  0  0  0  0  0
    4.3660    1.4760   -3.0600 C   0  0  0  0  0  0  0  0  0  0  0  0
    4.7510    1.4120   -4.5440 C   0  0  0  0  0  0  0  0  0  0  0  0
    4.8750   -0.0730   -4.7560 C   0  0  0  0  0  0  0  0  0  0  0  0
    3.8710   -0.6780   -3.8290 C   0  0  0  0  0  0  0  0  0  0  0  0
    2.5810    0.1270   -0.5820 C   0  0  0  0  0  0  0  0  0  0  0  0
    3.8890    0.0760   -0.0470 N   0  0  0  0  0  0  0  0  0  0  0  0
    4.2520    0.0320    1.3070 C   0  0  0  0  0  0  0  0  0  0  0  0
    5.5870   -0.0160    1.6040 N   0  0  0  0  0  0  0  0  0  0  0  0
    6.0140   -0.0570    2.8700 C   0  0  0  0  0  0  0  0  0  0  0  0
    5.1370   -0.0530    3.9260 C   0  0  0  0  0  0  0  0  0  0  0  0
    3.7850   -0.0040    3.6280 C   0  0  0  0  0  0  0  0  0  0  0  0
    2.7530    0.0040    4.7050 C   0  0  0  0  0  0  0  0  0  0  0  0
    3.4400    0.0350    2.3510 N   0  0  0  0  0  0  0  0  0  0  0  0
    1.4190    0.0560    0.1750 C   0  0  0  0  0  0  0  0  0  0  0  0
   -3.1520   -1.2550   -1.9360 O   0  0  0  0  0  0  0  0  0  0  0  0
   -4.5110   -1.5300   -1.8010 C   0  0  0  0  0  0  0  0  0  0  0  0
   -4.8200   -2.9830   -1.5590 C   0  0  0  0  0  0  0  0  0  0  0  0
   -6.3380   -3.1090   -1.4380 C   0  0  1  0  0  0  0  0  0  0  0  0
   -6.7690   -2.3330   -0.3800 F   0  0  0  0  0  0  0  0  0  0  0  0
   -6.9230   -2.6130   -2.6100 F   0  0  0  0  0  0  0  0  0  0  0  0
   -6.7320   -4.4220   -1.3270 F   0  0  0  0  0  0  0  0  0  0  0  0
  1  2  1  0
  2  3  2  3
  3  4  1  0
  3 33  1  0
  4  5  2  3
  5  6  1  0
  5 14  1  0
  6  7  1  0
  7  8  2  0
  7 13  1  0
  8  9  1  0
  9 10  2  0
 10 11  1  0
 10 12  1  0
 12 13  2  0
 14 15  2  0
 14 32  1  0
 15 16  1  0
 16 17  2  0
 17 18  1  0
 17 23  1  0
 18 19  1  0
 18 22  1  0
 19 20  1  0
 20 21  1  0
 21 22  1  0
 23 24  1  0
 23 32  2  0
 24 25  1  0
 25 26  2  0
 25 31  1  0
 26 27  1  0
 27 28  2  0
 28 29  1  0
 29 30  1  0
 29 31  2  0
 33 34  1  0
 34 35  1  0
 35 36  1  0
 36 37  1  1
 36 38  1  0
 36 39  1  0
M  END
