
     RDKit          3D

 39 42  0  0  0  0  0  0  0  0999 V2000
   -9.3840    0.2860   -1.4340 C   0  0  0  0  0  0  0  0  0  0  0  0
   -9.1360    0.9130   -0.0770 C   0  0  0  0  0  0  0  0  0  0  0  0
   -7.7100    0.7070    0.3390 C   0  0  0  0  0  0  0  0  0  0  0  0
   -7.3740   -0.2570    1.2600 C   0  0  0  0  0  0  0  0  0  0  0  0
   -6.0930   -0.5070    1.6640 C   0  0  0  0  0  0  0  0  0  0  0  0
   -5.0660    0.2620    1.1050 C   0  0  0  0  0  0  0  0  0  0  0  0
   -3.7440    0.1110    1.4170 N   0  0  0  0  0  0  0  0  0  0  0  0
   -2.7730   -0.5030    0.9630 C   0  0  0  0  0  0  0  0  0  0  0  0
   -2.7620   -1.3670   -0.2060 C   0  0  0  0  0  0  0  0  0  0  0  0
   -3.8900   -1.7530   -0.9080 C   0  0  0  0  0  0  0  0  0  0  0  0
   -3.8270   -2.6720   -1.9630 C   0  0  0  0  0  0  0  0  0  0  0  0
   -2.6410   -3.2220   -2.3360 C   0  0  0  0  0  0  0  0  0  0  0  0
   -1.5160   -2.8570   -1.6600 C   0  0  0  0  0  0  0  0  0  0  0  0
   -1.5800   -1.9270   -0.5960 C   0  0  0  0  0  0  0  0  0  0  0  0
   -0.2830   -1.5530   -0.0650 C   0  0  0  0  0  0  0  0  0  0  0  0
    0.5330   -2.5160    0.1240 O   0  0  0  0  0  0  0  0  0  0  0  0
    0.1880   -0.2670    0.2520 N   0  0  0  0  0  0  0  0  0  0  0  0
    1.5510   -0.1060    0.7380 C   0  0  0  0  0  0  0  0  0  0  0  0
    2.1880    1.0540    1.0360 C   0  0  0  0  0  0  0  0  0  0  0  0
    3.4940    0.7220    1.4390 C   0  0  0  0  0  0  0  0  0  0  0  0
    4.5160    1.7200    1.8720 C   0  0  2  0  0  0  0  0  0  0  0  0
    3.9470    2.3690    2.9680 F   0  0  0  0  0  0  0  0  0  0  0  0
    4.7860    2.6120    0.8730 F   0  0  0  0  0  0  0  0  0  0  0  0
    5.6720    1.1520    2.3160 F   0  0  0  0  0  0  0  0  0  0  0  0
    3.6180   -0.5990    1.3780 N   0  0  0  0  0  0  0  0  0  0  0  0
    4.7890   -1.4710    1.6180 C   0  0  0  0  0  0  0  0  0  0  0  0
    5.3510   -1.8220    0.2850 C   0  0  0  0  0  0  0  0  0  0  0  0
    5.7820   -0.7300   -0.4820 N   0  0  0  0  0  0  0  0  0  0  0  0
    7.0120   -0.0700   -0.2790 C   0  0  0  0  0  0  0  0  0  0  0  0
    7.8510   -0.5130    0.7160 C   0  0  0  0  0  0  0  0  0  0  0  0
    9.0730    0.1120    0.9090 C   0  0  0  0  0  0  0  0  0  0  0  0
    9.3860    1.1640    0.0810 C   0  0  0  0  0  0  0  0  0  0  0  0
    8.5660    1.6180   -0.9100 C   0  0  0  0  0  0  0  0  0  0  0  0
    8.9500    2.7580   -1.7870 C   0  0  0  0  0  0  0  0  0  0  0  0
    7.3920    0.9810   -1.0620 N   0  0  0  0  0  0  0  0  0  0  0  0
    2.4340   -1.0750    0.9540 N   0  0  0  0  0  0  0  0  0  0  0  0
   -5.4150    1.2470    0.1650 C   0  0  0  0  0  0  0  0  0  0  0  0
   -6.7010    1.4630   -0.2060 C   0  0  0  0  0  0  0  0  0  0  0  0
   -7.0170    2.5170   -1.2000 C   0  0  0  0  0  0  0  0  0  0  0  0
  1  2  1  0
  2  3  1  0
  3  4  2  0
  3 38  1  0
  4  5  1  0
  5  6  2  0
  6  7  1  0
  6 37  1  0
  7  8  2  3
  8  9  1  0
  9 10  2  0
  9 14  1  0
 10 11  1  0
 11 12  2  0
 12 13  1  0
 13 14  2  0
 14 15  1  0
 15 16  2  0
 15 17  1  0
 17 18  1  0
 18 19  1  0
 18 36  2  0
 19 20  2  0
 20 21  1  0
 20 25  1  0
 21 22  1  1
 21 23  1  0
 21 24  1  0
 25 26  1  0
 25 36  1  0
 26 27  1  0
 27 28  1  0
 28 29  1  0
 29 30  2  0
 29 35  1  0
 30 31  1  0
 31 32  2  0
 32 33  1  0
 33 34  1  0
 33 35  2  0
 37 38  2  0
 38 39  1  0
M  END
