
     RDKit          3D

 39 42  0  0  0  0  0  0  0  0999 V2000
    8.2890    1.0890   -1.5430 C   0  0  0  0  0  0  0  0  0  0  0  0
    8.6100    1.4060   -0.1450 C   0  0  0  0  0  0  0  0  0  0  0  0
    7.6570    1.7730    0.6880 C   0  0  0  0  0  0  0  0  0  0  0  0
    6.3240    1.8520    0.2020 N   0  0  0  0  0  0  0  0  0  0  0  0
    5.6230    0.6340   -0.0690 C   0  0  0  0  0  0  0  0  0  0  0  0
    6.2390   -0.5670    0.1480 C   0  0  0  0  0  0  0  0  0  0  0  0
    5.5780   -1.7160   -0.1170 N   0  0  0  0  0  0  0  0  0  0  0  0
    4.3210   -1.7060   -0.5920 C   0  0  0  0  0  0  0  0  0  0  0  0
    3.7150   -0.4910   -0.8050 C   0  0  0  0  0  0  0  0  0  0  0  0
    2.3130   -0.4320   -1.3400 C   0  0  0  0  0  0  0  0  0  0  0  0
    1.3290   -0.4480   -0.2950 N   0  0  0  0  0  0  0  0  0  0  0  0
    0.8090    0.6150    0.3500 C   0  0  0  0  0  0  0  0  0  0  0  0
    1.1470    2.0540    0.1300 C   0  0  0  0  0  0  0  0  0  0  0  0
   -0.1220    0.2100    1.2890 C   0  0  0  0  0  0  0  0  0  0  0  0
   -0.1560   -1.1610    1.1960 C   0  0  0  0  0  0  0  0  0  0  0  0
   -1.0020   -2.0830    1.9580 C   0  0  0  0  0  0  0  0  0  0  0  0
   -0.5260   -2.5910    3.0030 O   0  0  0  0  0  0  0  0  0  0  0  0
   -2.3200   -2.3980    1.5370 N   0  0  0  0  0  0  0  0  0  0  0  0
   -3.0890   -3.3680    2.2910 C   0  0  0  0  0  0  0  0  0  0  0  0
   -2.8900   -1.7740    0.3850 C   0  0  0  0  0  0  0  0  0  0  0  0
   -2.5270   -2.0610   -0.9120 C   0  0  0  0  0  0  0  0  0  0  0  0
   -3.0950   -1.4290   -1.9990 C   0  0  0  0  0  0  0  0  0  0  0  0
   -4.0650   -0.4670   -1.8280 C   0  0  0  0  0  0  0  0  0  0  0  0
   -4.4490   -0.1590   -0.5430 C   0  0  0  0  0  0  0  0  0  0  0  0
   -5.4620    0.8330   -0.3430 N   0  0  0  0  0  0  0  0  0  0  0  0
   -6.1710    1.4930   -1.4150 C   0  0  2  0  0  0  0  0  0  0  0  0
   -7.1110    2.5260   -0.7650 C   0  0  0  0  0  0  0  0  0  0  0  0
   -8.1260    1.6030   -0.1050 C   0  0  0  0  0  0  0  0  0  0  0  0
   -8.1160    0.3140   -0.8560 C   0  0  0  0  0  0  0  0  0  0  0  0
   -7.2240    0.6110   -2.0620 C   0  0  0  0  0  0  0  0  0  0  0  0
   -3.8650   -0.8060    0.5290 C   0  0  0  0  0  0  0  0  0  0  0  0
    0.7530   -1.5460    0.2070 C   0  0  0  0  0  0  0  0  0  0  0  0
    1.0220   -2.9580   -0.1870 C   0  0  0  0  0  0  0  0  0  0  0  0
    4.3660    0.6470   -0.5440 N   0  0  0  0  0  0  0  0  0  0  0  0
    7.9420    2.0920    2.0900 C   0  0  0  0  0  0  0  0  0  0  0  0
    9.2250    1.9990    2.5100 F   0  0  0  0  0  0  0  0  0  0  0  0
    7.0010    2.4620    2.9370 C   0  0  0  0  0  0  0  0  0  0  0  0
    7.3100    2.7500    4.2330 F   0  0  0  0  0  0  0  0  0  0  0  0
    5.7100    2.5670    2.5390 F   0  0  0  0  0  0  0  0  0  0  0  0
  1  2  1  0
  2  3  2  3
  3  4  1  0
  3 35  1  0
  4  5  1  0
  5  6  2  0
  5 34  1  0
  6  7  1  0
  7  8  2  0
  8  9  1  0
  9 10  1  0
  9 34  2  0
 10 11  1  0
 11 12  1  0
 11 32  1  0
 12 13  1  0
 12 14  2  0
 14 15  1  0
 15 16  1  0
 15 32  2  0
 16 17  2  0
 16 18  1  0
 18 19  1  0
 18 20  1  0
 20 21  2  0
 20 31  1  0
 21 22  1  0
 22 23  2  0
 23 24  1  0
 24 25  1  0
 24 31  2  0
 26 25  1  1
 26 27  1  0
 26 30  1  0
 27 28  1  0
 28 29  1  0
 29 30  1  0
 32 33  1  0
 35 36  1  0
 35 37  2  3
 37 38  1  0
 37 39  1  0
M  END
