
     RDKit          3D

 39 42  0  0  0  0  0  0  0  0999 V2000
   -6.0700   -2.0680    0.2490 C   0  0  0  0  0  0  0  0  0  0  0  0
   -5.7160   -2.5510   -1.1500 C   0  0  0  0  0  0  0  0  0  0  0  0
   -4.5150   -3.3970   -1.1910 C   0  0  0  0  0  0  0  0  0  0  0  0
   -3.2150   -2.9050   -0.7330 C   0  0  0  0  0  0  0  0  0  0  0  0
   -2.5350   -1.7770   -1.3760 C   0  0  1  0  0  0  0  0  0  0  0  0
   -3.2060   -0.4550   -1.3870 C   0  0  0  0  0  0  0  0  0  0  0  0
   -3.3540    0.0720   -0.0560 N   0  0  0  0  0  0  0  0  0  0  0  0
   -4.4510    0.9050    0.3660 C   0  0  0  0  0  0  0  0  0  0  0  0
   -4.4740    1.2940    1.5570 O   0  0  0  0  0  0  0  0  0  0  0  0
   -5.4980    1.3020   -0.4980 N   0  0  0  0  0  0  0  0  0  0  0  0
   -6.6100    2.1190   -0.1630 C   0  0  0  0  0  0  0  0  0  0  0  0
   -6.8430    2.6670    1.0700 C   0  0  0  0  0  0  0  0  0  0  0  0
   -7.9550    3.4550    1.3080 C   0  0  0  0  0  0  0  0  0  0  0  0
   -8.1690    3.9930    2.5510 F   0  0  0  0  0  0  0  0  0  0  0  0
   -8.8450    3.6930    0.2880 C   0  0  0  0  0  0  0  0  0  0  0  0
   -9.9360    4.4710    0.5380 F   0  0  0  0  0  0  0  0  0  0  0  0
   -8.6290    3.1490   -0.9660 C   0  0  0  0  0  0  0  0  0  0  0  0
   -7.5240    2.3730   -1.1840 C   0  0  0  0  0  0  0  0  0  0  0  0
   -7.3130    1.8350   -2.4300 F   0  0  0  0  0  0  0  0  0  0  0  0
   -2.3260   -0.2370    0.9150 C   0  0  0  0  0  0  0  0  0  0  0  0
   -1.0800   -0.6370    0.2050 C   0  0  0  0  0  0  0  0  0  0  0  0
   -1.2020   -1.6120   -0.8160 N   0  0  0  0  0  0  0  0  0  0  0  0
   -0.2220   -1.2600   -1.8560 C   0  0  0  0  0  0  0  0  0  0  0  0
    1.1190   -1.3160   -1.1800 C   0  0  0  0  0  0  0  0  0  0  0  0
    2.1630   -0.5090   -1.4610 N   0  0  0  0  0  0  0  0  0  0  0  0
    3.2010   -0.8340   -0.6770 C   0  0  0  0  0  0  0  0  0  0  0  0
    4.4940   -0.3180   -0.5680 C   0  0  0  0  0  0  0  0  0  0  0  0
    5.3740   -0.8490    0.3400 C   0  0  0  0  0  0  0  0  0  0  0  0
    6.7300   -0.4040    0.5470 C   0  0  0  0  0  0  0  0  0  0  0  0
    7.2310    0.5780   -0.1460 C   0  0  0  0  0  0  0  0  0  0  0  0
    8.6310    1.0700    0.0370 C   0  0  0  0  0  0  0  0  0  0  0  0
    8.5100    2.5290    0.4420 C   0  0  2  0  0  0  0  0  0  0  0  0
    7.7930    3.2920   -0.6610 C   0  0  0  0  0  0  0  0  0  0  0  0
    9.8950    3.1350    0.6220 C   0  0  0  0  0  0  0  0  0  0  0  0
    4.9190   -1.9090    1.1310 C   0  0  0  0  0  0  0  0  0  0  0  0
    5.8490   -2.5010    2.1190 C   0  0  0  0  0  0  0  0  0  0  0  0
    3.6840   -2.3980    1.0230 N   0  0  0  0  0  0  0  0  0  0  0  0
    2.8070   -1.8780    0.1280 C   0  0  0  0  0  0  0  0  0  0  0  0
    1.5360   -2.1400   -0.2100 N   0  0  0  0  0  0  0  0  0  0  0  0
  1  2  1  0
  2  3  1  0
  3  4  1  0
  5  4  1  1
  5  6  1  0
  5 22  1  0
  6  7  1  0
  7  8  1  0
  7 20  1  0
  8  9  2  0
  8 10  1  0
 10 11  1  0
 11 12  2  0
 11 18  1  0
 12 13  1  0
 13 14  1  0
 13 15  2  0
 15 16  1  0
 15 17  1  0
 17 18  2  0
 18 19  1  0
 20 21  1  0
 21 22  1  0
 22 23  1  0
 23 24  1  0
 24 25  2  0
 24 39  1  0
 25 26  1  0
 26 27  2  0
 26 38  1  0
 27 28  1  0
 28 29  1  0
 28 35  2  0
 29 30  2  3
 30 31  1  0
 31 32  1  0
 32 33  1  6
 32 34  1  0
 35 36  1  0
 35 37  1  0
 37 38  2  0
 38 39  1  0
M  END
