
     RDKit          3D

 39 42  0  0  0  0  0  0  0  0999 V2000
    2.2700    0.5890   -0.6960 C   0  0  0  0  0  0  0  0  0  0  0  0
    2.3730    0.8380   -2.1340 C   0  0  0  0  0  0  0  0  0  0  0  0
    1.3970    0.2960   -3.0550 C   0  0  0  0  0  0  0  0  0  0  0  0
    0.4290   -0.3980   -2.7640 N   0  0  0  0  0  0  0  0  0  0  0  0
   -0.1440   -0.9350   -1.6200 C   0  0  0  0  0  0  0  0  0  0  0  0
   -1.3000   -0.3720   -1.0380 C   0  0  0  0  0  0  0  0  0  0  0  0
   -1.8880   -0.9000    0.0810 C   0  0  0  0  0  0  0  0  0  0  0  0
   -3.0870   -0.3660    0.7350 C   0  0  0  0  0  0  0  0  0  0  0  0
   -3.6030    0.7880    0.0840 N   0  0  0  0  0  0  0  0  0  0  0  0
   -4.7780    1.4350    0.5930 C   0  0  0  0  0  0  0  0  0  0  0  0
   -5.4220    0.9610    1.7130 C   0  0  0  0  0  0  0  0  0  0  0  0
   -6.5650    1.5820    2.2110 C   0  0  0  0  0  0  0  0  0  0  0  0
   -7.2080    1.0200    3.4210 C   0  0  0  0  0  0  0  0  0  0  0  0
   -7.0140    2.6710    1.5470 N   0  0  0  0  0  0  0  0  0  0  0  0
   -6.4010    3.1420    0.4600 C   0  0  0  0  0  0  0  0  0  0  0  0
   -6.8650    4.3320   -0.2950 C   0  0  0  0  0  0  0  0  0  0  0  0
   -5.2860    2.5160   -0.0060 N   0  0  0  0  0  0  0  0  0  0  0  0
   -1.3430   -2.0410    0.6930 C   0  0  0  0  0  0  0  0  0  0  0  0
   -1.9670   -2.6080    1.8900 C   0  0  0  0  0  0  0  0  0  0  0  0
   -0.2220   -2.5900    0.1320 C   0  0  0  0  0  0  0  0  0  0  0  0
    0.3640   -2.0550   -0.9930 C   0  0  0  0  0  0  0  0  0  0  0  0
    1.5190   -2.6390   -1.5530 O   0  0  0  0  0  0  0  0  0  0  0  0
    2.0120   -3.7660   -0.9140 C   0  0  0  0  0  0  0  0  0  0  0  0
    1.6380   -5.0340   -1.2580 C   0  0  0  0  0  0  0  0  0  0  0  0
    2.1760   -6.1280   -0.5690 C   0  0  0  0  0  0  0  0  0  0  0  0
    1.8140   -7.3900   -0.9010 F   0  0  0  0  0  0  0  0  0  0  0  0
    3.0870   -5.9290    0.4630 C   0  0  0  0  0  0  0  0  0  0  0  0
    3.6300   -6.9710    1.1560 F   0  0  0  0  0  0  0  0  0  0  0  0
    3.4610   -4.6480    0.8060 C   0  0  0  0  0  0  0  0  0  0  0  0
    4.3590   -4.4420    1.8240 F   0  0  0  0  0  0  0  0  0  0  0  0
    2.9130   -3.5960    0.1090 C   0  0  0  0  0  0  0  0  0  0  0  0
    3.3410    1.5560   -2.6430 C   0  0  0  0  0  0  0  0  0  0  0  0
    4.3850    2.1690   -1.8720 C   0  0  0  0  0  0  0  0  0  0  0  0
    5.6850    2.0850   -2.2670 N   0  0  0  0  0  0  0  0  0  0  0  0
    6.7040    2.6530   -1.6280 C   0  0  0  0  0  0  0  0  0  0  0  0
    6.4590    3.3830   -0.4840 C   0  0  0  0  0  0  0  0  0  0  0  0
    7.5500    4.0370    0.2700 C   0  0  0  0  0  0  0  0  0  0  0  0
    5.1290    3.4720   -0.0740 C   0  0  0  0  0  0  0  0  0  0  0  0
    4.1530    2.8750   -0.7650 N   0  0  0  0  0  0  0  0  0  0  0  0
  1  2  1  0
  2  3  1  0
  2 32  2  3
  3  4  2  3
  4  5  1  0
  5  6  2  0
  5 21  1  0
  6  7  1  0
  7  8  1  0
  7 18  2  0
  8  9  1  0
  9 10  1  0
 10 11  2  0
 10 17  1  0
 11 12  1  0
 12 13  1  0
 12 14  2  0
 14 15  1  0
 15 16  1  0
 15 17  2  0
 18 19  1  0
 18 20  1  0
 20 21  2  0
 21 22  1  0
 22 23  1  0
 23 24  2  0
 23 31  1  0
 24 25  1  0
 25 26  1  0
 25 27  2  0
 27 28  1  0
 27 29  1  0
 29 30  1  0
 29 31  2  0
 32 33  1  0
 33 34  2  0
 33 39  1  0
 34 35  1  0
 35 36  2  0
 36 37  1  0
 36 38  1  0
 38 39  2  0
M  END
