
     RDKit          3D

 39 42  0  0  0  0  0  0  0  0999 V2000
   -0.2940    5.4520    1.2910 C   0  0  0  0  0  0  0  0  0  0  0  0
   -1.5250    5.1120    1.0360 C   0  0  0  0  0  0  0  0  0  0  0  0
   -1.9110    3.7600    0.6380 C   0  0  0  0  0  0  0  0  0  0  0  0
   -0.8830    2.7810    0.5260 N   0  0  0  0  0  0  0  0  0  0  0  0
   -1.2010    1.4620    0.1400 C   0  0  0  0  0  0  0  0  0  0  0  0
   -2.4940    1.1330   -0.1480 C   0  0  0  0  0  0  0  0  0  0  0  0
   -2.8620   -0.1620   -0.5240 C   0  0  0  0  0  0  0  0  0  0  0  0
   -4.2530   -0.3640   -0.9320 C   0  0  0  0  0  0  0  0  0  0  0  0
   -4.5390   -0.7860   -2.2390 C   0  0  0  0  0  0  0  0  0  0  0  0
   -5.8480   -0.9050   -2.6400 C   0  0  0  0  0  0  0  0  0  0  0  0
   -6.2350   -1.3370   -4.0130 C   0  0  0  0  0  0  0  0  0  0  0  0
   -6.8940   -0.6120   -1.7570 C   0  0  0  0  0  0  0  0  0  0  0  0
   -8.1960   -0.7330   -2.1320 F   0  0  0  0  0  0  0  0  0  0  0  0
   -6.5640   -0.2040   -0.4920 C   0  0  0  0  0  0  0  0  0  0  0  0
   -7.5930    0.0880    0.3830 F   0  0  0  0  0  0  0  0  0  0  0  0
   -5.2580   -0.0800   -0.0800 C   0  0  0  0  0  0  0  0  0  0  0  0
   -4.9850    0.3320    1.2060 F   0  0  0  0  0  0  0  0  0  0  0  0
   -1.8790   -1.1320   -0.5980 C   0  0  0  0  0  0  0  0  0  0  0  0
   -2.1970   -2.5090   -0.8500 C   0  0  0  0  0  0  0  0  0  0  0  0
   -3.3110   -3.1560   -0.7480 C   0  0  0  0  0  0  0  0  0  0  0  0
   -3.3070   -4.6670   -1.1080 C   0  0  0  0  0  0  0  0  0  0  0  0
   -2.1730   -5.0770   -1.5920 C   0  0  0  0  0  0  0  0  0  0  0  0
   -0.9760   -5.5040   -2.0780 N   0  0  0  0  0  0  0  0  0  0  0  0
   -0.5580   -0.7700   -0.2970 C   0  0  0  0  0  0  0  0  0  0  0  0
    0.4670   -1.7410   -0.3370 N   0  0  0  0  0  0  0  0  0  0  0  0
    1.8280   -1.5380   -0.0830 C   0  0  0  0  0  0  0  0  0  0  0  0
    2.4630   -0.4080    0.3150 C   0  0  0  0  0  0  0  0  0  0  0  0
    3.8480   -0.3080    0.5320 C   0  0  0  0  0  0  0  0  0  0  0  0
    4.4570    0.9780    0.8920 C   0  0  0  0  0  0  0  0  0  0  0  0
    3.8430    2.0460    0.5220 O   0  0  0  0  0  0  0  0  0  0  0  0
    5.6380    1.0560    1.6020 N   0  0  0  0  0  0  0  0  0  0  0  0
    6.4240    2.2690    1.9070 C   0  0  0  0  0  0  0  0  0  0  0  0
    7.8660    1.7440    1.8460 C   0  0  0  0  0  0  0  0  0  0  0  0
    7.7850    0.2340    1.9810 C   0  0  0  0  0  0  0  0  0  0  0  0
    6.3410    0.0530    2.3630 C   0  0  0  0  0  0  0  0  0  0  0  0
    4.6050   -1.4210    0.3250 C   0  0  0  0  0  0  0  0  0  0  0  0
    3.9630   -2.5870   -0.0810 C   0  0  0  0  0  0  0  0  0  0  0  0
    2.6450   -2.6190   -0.2690 N   0  0  0  0  0  0  0  0  0  0  0  0
   -0.2900    0.4810    0.0500 N   0  0  0  0  0  0  0  0  0  0  0  0
  1  2  2  0
  2  3  1  0
  3  4  1  0
  4  5  1  0
  5  6  2  0
  5 39  1  0
  6  7  1  0
  7  8  1  0
  7 18  2  0
  8  9  2  0
  8 16  1  0
  9 10  1  0
 10 11  1  0
 10 12  2  0
 12 13  1  0
 12 14  1  0
 14 15  1  0
 14 16  2  0
 16 17  1  0
 18 19  1  0
 18 24  1  0
 19 20  2  3
 20 21  1  0
 21 22  1  0
 22 23  3  0
 24 25  1  0
 24 39  2  0
 25 26  1  0
 26 27  2  0
 26 38  1  0
 27 28  1  0
 28 29  1  0
 28 36  2  0
 29 30  2  0
 29 31  1  0
 31 32  1  0
 31 35  1  0
 32 33  1  0
 33 34  1  0
 34 35  1  0
 36 37  1  0
 37 38  2  0
M  END
