
     RDKit          3D

 39 42  0  0  0  0  0  0  0  0999 V2000
   -6.1930   -4.8740   -0.5390 C   0  0  0  0  0  0  0  0  0  0  0  0
   -5.7730   -3.8530   -1.1340 C   0  0  0  0  0  0  0  0  0  0  0  0
   -5.3230   -3.3140   -2.3640 C   0  0  0  0  0  0  0  0  0  0  0  0
   -4.8510   -2.0830   -2.4370 C   0  0  0  0  0  0  0  0  0  0  0  0
   -4.7470   -1.2200   -1.2750 C   0  0  0  0  0  0  0  0  0  0  0  0
   -5.7290   -0.6310   -0.5840 C   0  0  0  0  0  0  0  0  0  0  0  0
   -5.4640    0.0990    0.5920 C   0  0  0  0  0  0  0  0  0  0  0  0
   -6.6570    0.4840    1.3370 C   0  0  0  0  0  0  0  0  0  0  0  0
   -7.0370    1.6500    1.7130 C   0  0  0  0  0  0  0  0  0  0  0  0
   -6.2440    2.8430    1.3740 C   0  0  0  0  0  0  0  0  0  0  0  0
   -7.0190    3.6450    0.3270 C   0  0  1  0  0  0  0  0  0  0  0  0
   -7.2410    2.8800   -0.8200 F   0  0  0  0  0  0  0  0  0  0  0  0
   -8.1550    4.1540    0.8160 F   0  0  0  0  0  0  0  0  0  0  0  0
   -6.1600    4.6590   -0.0950 F   0  0  0  0  0  0  0  0  0  0  0  0
   -4.1430    0.2100    1.0620 C   0  0  0  0  0  0  0  0  0  0  0  0
   -3.1170   -0.3920    0.3910 C   0  0  0  0  0  0  0  0  0  0  0  0
   -1.8010   -0.7570    0.8600 C   0  0  0  0  0  0  0  0  0  0  0  0
   -0.5830   -0.1740    0.8580 N   0  0  0  0  0  0  0  0  0  0  0  0
    0.3990   -1.3220    0.9540 C   0  0  0  0  0  0  0  0  0  0  0  0
    1.7490   -0.9370    1.1830 C   0  0  0  0  0  0  0  0  0  0  0  0
    2.2420    0.3540    0.7880 N   0  0  0  0  0  0  0  0  0  0  0  0
    2.9910    0.2810   -0.4840 C   0  0  0  0  0  0  0  0  0  0  0  0
    4.0860    1.2550   -0.3550 C   0  0  0  0  0  0  0  0  0  0  0  0
    4.2750    1.8600    0.7520 O   0  0  0  0  0  0  0  0  0  0  0  0
    4.9580    1.5440   -1.4640 N   0  0  0  0  0  0  0  0  0  0  0  0
    6.0490    2.4710   -1.2890 C   0  0  0  0  0  0  0  0  0  0  0  0
    7.2380    1.7480   -0.6910 C   0  0  0  0  0  0  0  0  0  0  0  0
    8.4490    2.2240   -0.3760 N   0  0  0  0  0  0  0  0  0  0  0  0
    9.2910    1.2320    0.0110 C   0  0  0  0  0  0  0  0  0  0  0  0
   10.6120    1.1940    0.3720 C   0  0  0  0  0  0  0  0  0  0  0  0
   11.2580   -0.0300    0.6700 C   0  0  0  0  0  0  0  0  0  0  0  0
   10.4720   -1.1040    0.5650 N   0  0  0  0  0  0  0  0  0  0  0  0
    9.1890   -1.1160    0.2170 C   0  0  0  0  0  0  0  0  0  0  0  0
    8.5370    0.0950   -0.0740 C   0  0  0  0  0  0  0  0  0  0  0  0
    7.3070    0.4350   -0.4990 N   0  0  0  0  0  0  0  0  0  0  0  0
    1.1740    1.3370    0.6130 C   0  0  0  0  0  0  0  0  0  0  0  0
   -0.0550    0.9340    1.4400 C   0  0  0  0  0  0  0  0  0  0  0  0
   -3.4560   -1.0950   -0.7810 C   0  0  0  0  0  0  0  0  0  0  0  0
   -2.3120   -1.6480   -1.5270 C   0  0  0  0  0  0  0  0  0  0  0  0
  1  2  2  0
  2  3  1  0
  3  4  2  3
  4  5  1  0
  5  6  2  0
  5 38  1  0
  6  7  1  0
  7  8  1  0
  7 15  2  0
  8  9  2  3
  9 10  1  0
 10 11  1  0
 11 12  1  6
 11 13  1  0
 11 14  1  0
 15 16  1  0
 16 17  1  0
 16 38  2  0
 17 18  1  0
 18 19  1  0
 18 37  1  0
 19 20  1  0
 20 21  1  0
 21 22  1  0
 21 36  1  0
 22 23  1  0
 23 24  2  0
 23 25  1  0
 25 26  1  0
 26 27  1  0
 27 28  2  0
 27 35  1  0
 28 29  1  0
 29 30  2  0
 29 34  1  0
 30 31  1  0
 31 32  2  0
 32 33  1  0
 33 34  2  0
 34 35  1  0
 36 37  1  0
 38 39  1  0
M  END
