
     RDKit          3D

 39 43  0  0  0  0  0  0  0  0999 V2000
    4.9830   -2.5770    0.1310 C   0  0  0  0  0  0  0  0  0  0  0  0
    5.5460   -1.4180    0.6820 O   0  0  0  0  0  0  0  0  0  0  0  0
    4.8330   -0.2600    0.9940 C   0  0  0  0  0  0  0  0  0  0  0  0
    3.4660   -0.1520    0.7840 C   0  0  0  0  0  0  0  0  0  0  0  0
    2.7640    0.9910    1.0930 C   0  0  0  0  0  0  0  0  0  0  0  0
    1.3310    1.0740    0.8850 C   0  0  1  0  0  0  0  0  0  0  0  0
    0.7270    2.4040    1.1480 C   0  0  0  0  0  0  0  0  0  0  0  0
    1.2020    3.5230    0.3390 C   0  0  0  0  0  0  0  0  0  0  0  0
    2.0570    3.4830   -0.5820 O   0  0  0  0  0  0  0  0  0  0  0  0
    0.6860    4.8200    0.5650 O   0  0  0  0  0  0  0  0  0  0  0  0
    0.9330    0.6390   -0.5020 C   0  0  0  0  0  0  0  0  0  0  0  0
    1.8090    0.6890   -1.5580 C   0  0  0  0  0  0  0  0  0  0  0  0
    1.4070    0.2860   -2.8410 C   0  0  0  0  0  0  0  0  0  0  0  0
    0.1140   -0.1710   -3.0580 C   0  0  0  0  0  0  0  0  0  0  0  0
   -0.3170   -0.5980   -4.4070 C   0  0  0  0  0  0  0  0  0  0  0  0
   -0.7650   -0.2230   -2.0030 C   0  0  0  0  0  0  0  0  0  0  0  0
   -2.1390   -0.7180   -2.2750 C   0  0  0  0  0  0  0  0  0  0  0  0
   -2.9750   -0.7360   -1.1400 N   0  0  0  0  0  0  0  0  0  0  0  0
   -3.4090   -1.9780   -0.6320 C   0  0  0  0  0  0  0  0  0  0  0  0
   -4.8480   -2.3380   -0.8530 C   0  0  1  0  0  0  0  0  0  0  0  0
   -5.0440   -3.8450   -0.9440 C   0  0  0  0  0  0  0  0  0  0  0  0
   -5.6340   -1.9210    0.2460 O   0  0  0  0  0  0  0  0  0  0  0  0
   -5.4430   -0.7850    1.0150 C   0  0  0  0  0  0  0  0  0  0  0  0
   -6.0490   -0.8350    2.2490 C   0  0  0  0  0  0  0  0  0  0  0  0
   -5.9580    0.2100    3.1350 C   0  0  0  0  0  0  0  0  0  0  0  0
   -5.2510    1.3590    2.8170 C   0  0  0  0  0  0  0  0  0  0  0  0
   -4.6380    1.4400    1.5980 C   0  0  0  0  0  0  0  0  0  0  0  0
   -4.7450    0.3780    0.7310 C   0  0  0  0  0  0  0  0  0  0  0  0
   -3.8930    0.6350   -0.8010 S   0  0  1  0  0  0  0  0  0  0  0  0
   -3.0890    1.8880   -0.6290 O   0  0  0  0  0  0  0  0  0  0  0  0
   -4.9230    0.9420   -1.8690 O   0  0  0  0  0  0  0  0  0  0  0  0
   -0.3410    0.1810   -0.7520 C   0  0  0  0  0  0  0  0  0  0  0  0
    3.4760    2.0400    1.6270 C   0  0  0  0  0  0  0  0  0  0  0  0
    4.8300    1.9480    1.8410 C   0  0  0  0  0  0  0  0  0  0  0  0
    5.7400    2.7980    2.3340 N   0  0  0  0  0  0  0  0  0  0  0  0
    6.9370    2.2270    2.3340 N   0  0  0  0  0  0  0  0  0  0  0  0
    6.8230    0.9950    1.8410 N   0  0  0  0  0  0  0  0  0  0  0  0
    7.8750    0.0480    1.6700 C   0  0  0  0  0  0  0  0  0  0  0  0
    5.5100    0.8010    1.5260 C   0  0  0  0  0  0  0  0  0  0  0  0
  1  2  1  0
  2  3  1  0
  3  4  2  0
  3 39  1  0
  4  5  1  0
  5  6  1  0
  5 33  2  0
  6  7  1  6
  6 11  1  0
  7  8  1  0
  8  9  2  0
  8 10  1  0
 11 12  2  0
 11 32  1  0
 12 13  1  0
 13 14  2  0
 14 15  1  0
 14 16  1  0
 16 17  1  0
 16 32  2  0
 17 18  1  0
 18 19  1  0
 29 18  1  6
 19 20  1  0
 20 21  1  1
 20 22  1  0
 22 23  1  0
 23 24  2  0
 23 28  1  0
 24 25  1  0
 25 26  2  0
 26 27  1  0
 27 28  2  0
 28 29  1  0
 29 30  2  0
 29 31  2  0
 33 34  1  0
 34 35  1  0
 34 39  2  0
 35 36  2  0
 36 37  1  0
 37 38  1  0
 37 39  1  0
M  END
