
     RDKit          3D

 39 42  0  0  0  0  0  0  0  0999 V2000
   -4.1130    0.6570   -0.7540 C   0  0  0  0  0  0  0  0  0  0  0  0
   -3.0720   -0.3040   -0.2730 C   0  0  0  0  0  0  0  0  0  0  0  0
   -2.2000   -0.9980   -1.0270 N   0  0  0  0  0  0  0  0  0  0  0  0
   -1.3980   -1.7450   -0.2960 N   0  0  0  0  0  0  0  0  0  0  0  0
   -0.3420   -2.6130   -0.7800 C   0  0  0  0  0  0  0  0  0  0  0  0
    0.9790   -1.8350   -0.8430 C   0  0  0  0  0  0  0  0  0  0  0  0
    1.2920   -1.3490    0.5280 C   0  0  0  0  0  0  0  0  0  0  0  0
    2.4970   -0.6310    0.7120 N   0  0  0  0  0  0  0  0  0  0  0  0
    3.7790   -1.2190    0.4170 C   0  0  0  0  0  0  0  0  0  0  0  0
    3.8960   -2.3750   -0.0500 O   0  0  0  0  0  0  0  0  0  0  0  0
    4.9840   -0.4980    0.6520 N   0  0  0  0  0  0  0  0  0  0  0  0
    6.2430   -1.1010    0.3490 C   0  0  2  0  0  0  0  0  0  0  0  0
    6.8470   -1.7910    1.5700 C   0  0  0  0  0  0  0  0  0  0  0  0
    7.2230   -0.2260   -0.3050 C   0  0  0  0  0  0  0  0  0  0  0  0
    8.5410   -0.1120    0.1640 C   0  0  0  0  0  0  0  0  0  0  0  0
    9.4810    0.6910   -0.4180 C   0  0  0  0  0  0  0  0  0  0  0  0
   10.7400    0.7800    0.0600 F   0  0  0  0  0  0  0  0  0  0  0  0
    9.1450    1.4370   -1.5200 C   0  0  0  0  0  0  0  0  0  0  0  0
   10.1320    2.3340   -2.1960 C   0  0  0  0  0  0  0  0  0  0  0  0
    7.8500    1.3490   -2.0110 C   0  0  0  0  0  0  0  0  0  0  0  0
    7.4650    2.1480   -3.1900 C   0  0  0  0  0  0  0  0  0  0  0  0
    6.9090    0.5200   -1.3980 C   0  0  0  0  0  0  0  0  0  0  0  0
    5.6360    0.4500   -1.8940 F   0  0  0  0  0  0  0  0  0  0  0  0
   -1.7650   -1.5320    0.9890 C   0  0  0  0  0  0  0  0  0  0  0  0
   -2.8140   -0.6310    1.0420 C   0  0  0  0  0  0  0  0  0  0  0  0
   -3.4740   -0.1830    2.2850 C   0  0  0  0  0  0  0  0  0  0  0  0
   -4.7010   -0.8960    2.6770 C   0  0  0  0  0  0  0  0  0  0  0  0
   -5.8300   -0.8870    1.7270 C   0  0  0  0  0  0  0  0  0  0  0  0
   -6.1000   -1.8180    0.7450 C   0  0  0  0  0  0  0  0  0  0  0  0
   -7.2280   -1.4590    0.1360 N   0  0  0  0  0  0  0  0  0  0  0  0
   -7.6950   -0.3470    0.6740 N   0  0  0  0  0  0  0  0  0  0  0  0
   -8.9000    0.3450    0.3050 C   0  0  0  0  0  0  0  0  0  0  0  0
   -9.7900    0.8040    1.2480 C   0  0  0  0  0  0  0  0  0  0  0  0
  -10.9490    1.4670    0.8900 C   0  0  0  0  0  0  0  0  0  0  0  0
  -11.2480    1.6880   -0.4270 C   0  0  0  0  0  0  0  0  0  0  0  0
  -12.4050    2.3450   -0.7590 F   0  0  0  0  0  0  0  0  0  0  0  0
  -10.3590    1.2290   -1.3730 C   0  0  0  0  0  0  0  0  0  0  0  0
   -9.1930    0.5620   -1.0200 C   0  0  0  0  0  0  0  0  0  0  0  0
   -6.8590    0.0380    1.6590 C   0  0  0  0  0  0  0  0  0  0  0  0
  1  2  1  0
  2  3  2  0
  2 25  1  0
  3  4  1  0
  4  5  1  0
  4 24  1  0
  5  6  1  0
  6  7  1  0
  7  8  1  0
  8  9  1  0
  9 10  2  0
  9 11  1  0
 11 12  1  0
 12 13  1  1
 12 14  1  0
 14 15  2  0
 14 22  1  0
 15 16  1  0
 16 17  1  0
 16 18  2  0
 18 19  1  0
 18 20  1  0
 20 21  1  0
 20 22  2  0
 22 23  1  0
 24 25  2  0
 25 26  1  0
 26 27  1  0
 27 28  1  0
 28 29  1  0
 28 39  2  0
 29 30  2  0
 30 31  1  0
 31 32  1  0
 31 39  1  0
 32 33  2  0
 32 38  1  0
 33 34  1  0
 34 35  2  0
 35 36  1  0
 35 37  1  0
 37 38  2  0
M  END
