
     RDKit          3D

 13 13  0  0  0  0  0  0  0  0999 V2000
    2.6700    0.0680    0.9450 C   0  0  0  0  0  0  0  0  0  0  0  0
    2.1170    0.9730   -0.4850 S   0  0  1  0  0  0  0  0  0  0  0  0
    1.6370    2.3140   -0.0190 O   0  0  0  0  0  0  0  0  0  0  0  0
    3.2320    1.1550   -1.4850 O   0  0  0  0  0  0  0  0  0  0  0  0
    0.7990    0.1370   -1.1840 N   0  0  0  0  0  0  0  0  0  0  0  0
   -0.3850   -0.0610   -0.4480 C   0  0  0  0  0  0  0  0  0  0  0  0
   -0.5690    0.3720    0.8100 N   0  0  0  0  0  0  0  0  0  0  0  0
   -1.6880    0.1880    1.5130 C   0  0  0  0  0  0  0  0  0  0  0  0
   -1.8700    0.7380    3.0570 S   0  0  0  0  0  0  0  0  0  0  0  0
   -2.7060   -0.4680    0.9490 N   0  0  0  0  0  0  0  0  0  0  0  0
   -2.5860   -0.9350   -0.3270 C   0  0  0  0  0  0  0  0  0  0  0  0
   -3.5440   -1.5530   -0.8600 O   0  0  0  0  0  0  0  0  0  0  0  0
   -1.4410   -0.7280   -1.0000 N   0  0  0  0  0  0  0  0  0  0  0  0
  2  1  1  1
  2  3  2  0
  2  4  2  0
  2  5  1  0
  5  6  1  0
  6  7  2  0
  6 13  1  0
  7  8  1  0
  8  9  2  0
  8 10  1  0
 10 11  1  0
 11 12  2  0
 11 13  1  0
M  END
