
     RDKit          3D

 13 13  0  0  0  0  0  0  0  0999 V2000
    3.8690    0.7060    0.1960 N   0  0  0  0  0  0  0  0  0  0  0  0
    2.5910    0.1070   -0.0060 C   0  0  0  0  0  0  0  0  0  0  0  0
    2.5620   -0.9920   -0.6470 O   0  0  0  0  0  0  0  0  0  0  0  0
    1.1050    0.8570    0.6070 S   0  0  0  0  0  0  0  0  0  0  0  0
   -0.2770   -0.1820    0.1560 C   0  0  0  0  0  0  0  0  0  0  0  0
   -0.0910   -1.3360   -0.5440 N   0  0  0  0  0  0  0  0  0  0  0  0
   -1.1690   -2.0550   -0.8420 N   0  0  0  0  0  0  0  0  0  0  0  0
   -2.4160   -1.6980   -0.4880 C   0  0  0  0  0  0  0  0  0  0  0  0
   -3.3770   -2.4500   -0.8190 O   0  0  0  0  0  0  0  0  0  0  0  0
   -2.6240   -0.5560    0.2070 N   0  0  0  0  0  0  0  0  0  0  0  0
   -1.5510    0.2050    0.5300 C   0  0  0  0  0  0  0  0  0  0  0  0
   -1.7420    1.7360    1.4530 S   0  0  0  0  0  0  0  0  0  0  0  0
   -1.9480    3.0070    0.3490 O   0  0  0  0  0  0  0  0  0  0  0  0
  1  2  1  0
  2  3  2  0
  2  4  1  0
  4  5  1  0
  5  6  2  0
  5 11  1  0
  6  7  1  0
  7  8  1  0
  8  9  2  0
  8 10  1  0
 10 11  2  0
 11 12  1  0
 12 13  1  0
M  END
