
     RDKit          3D

 13 13  0  0  0  0  0  0  0  0999 V2000
   -1.9220   -1.0030    0.7890 N   0  0  0  0  0  0  0  0  0  0  0  0
   -1.6200   -1.0920   -0.5910 C   0  0  0  0  0  0  0  0  0  0  0  0
   -2.2640   -1.9180   -1.2890 O   0  0  0  0  0  0  0  0  0  0  0  0
   -0.5920   -0.2740   -1.2740 C   0  0  0  0  0  0  0  0  0  0  0  0
    0.0740    0.6300   -0.3760 N   0  0  0  0  0  0  0  0  0  0  0  0
    1.1850    0.3320    0.3130 C   0  0  0  0  0  0  0  0  0  0  0  0
    2.1170   -1.1510    0.3400 S   0  0  1  0  0  0  0  0  0  0  0  0
    3.3050   -0.9970   -0.5940 O   0  0  0  0  0  0  0  0  0  0  0  0
    2.6360   -1.3100    1.7410 O   0  0  0  0  0  0  0  0  0  0  0  0
    1.4800    1.4300    1.0230 N   0  0  0  0  0  0  0  0  0  0  0  0
    0.5630    2.3720    0.7650 N   0  0  0  0  0  0  0  0  0  0  0  0
   -0.3320    1.8830   -0.1160 C   0  0  0  0  0  0  0  0  0  0  0  0
   -1.6140    2.7070   -0.6970 S   0  0  0  0  0  0  0  0  0  0  0  0
  1  2  1  0
  2  3  2  0
  2  4  1  0
  4  5  1  0
  5  6  1  0
  5 12  1  0
  7  6  1  1
  6 10  2  0
  7  8  2  0
  7  9  2  0
 10 11  1  0
 11 12  1  0
 12 13  2  0
M  END
