
     RDKit          3D

 26 28  0  0  0  0  0  0  0  0999 V2000
   -5.2270    2.6080    1.8280 C   0  0  0  0  0  0  0  0  0  0  0  0
   -4.8590    1.8030    0.5850 C   0  0  0  0  0  0  0  0  0  0  0  0
   -3.3520    1.6930    0.5480 C   0  0  0  0  0  0  0  0  0  0  0  0
   -2.9040    0.9120   -0.6600 C   0  0  2  0  0  0  0  0  0  0  0  0
   -3.4210   -0.4250   -0.6850 N   0  0  0  0  0  0  0  0  0  0  0  0
   -1.4600    0.9120   -0.8510 C   0  0  0  0  0  0  0  0  0  0  0  0
   -0.7630    1.9770   -0.8960 O   0  0  0  0  0  0  0  0  0  0  0  0
   -0.7560   -0.3070   -0.9990 N   0  0  0  0  0  0  0  0  0  0  0  0
    0.6620   -0.3690   -1.1910 C   0  0  2  0  0  0  0  0  0  0  0  0
    1.1190   -0.9740   -2.4620 C   0  0  2  0  0  0  0  0  0  0  0  0
    0.1510   -1.0970   -3.4390 O   0  0  0  0  0  0  0  0  0  0  0  0
    1.5630   -2.3480   -2.0010 C   0  0  1  0  0  0  0  0  0  0  0  0
    2.7990   -2.7940   -2.7900 C   0  0  0  0  0  0  0  0  0  0  0  0
    2.4810   -2.9100   -4.1550 O   0  0  0  0  0  0  0  0  0  0  0  0
    1.9320   -2.2530   -0.6890 O   0  0  0  0  0  0  0  0  0  0  0  0
    1.4080   -1.1110   -0.1440 C   0  0  1  0  0  0  0  0  0  0  0  0
    2.4320   -0.3040    0.5170 N   0  0  0  0  0  0  0  0  0  0  0  0
    3.4420    0.3210   -0.0940 C   0  0  0  0  0  0  0  0  0  0  0  0
    4.1720    0.9560    0.8290 N   0  0  0  0  0  0  0  0  0  0  0  0
    3.6350    0.7420    2.0440 C   0  0  0  0  0  0  0  0  0  0  0  0
    3.9650    1.1440    3.3180 C   0  0  0  0  0  0  0  0  0  0  0  0
    5.0100    1.8950    3.4600 N   0  0  0  0  0  0  0  0  0  0  0  0
    3.2300    0.7700    4.3760 N   0  0  0  0  0  0  0  0  0  0  0  0
    2.1490   -0.0180    4.1470 C   0  0  0  0  0  0  0  0  0  0  0  0
    1.8080   -0.4220    2.9090 N   0  0  0  0  0  0  0  0  0  0  0  0
    2.5410   -0.0520    1.8340 C   0  0  0  0  0  0  0  0  0  0  0  0
  1  2  1  0
  2  3  1  0
  3  4  1  0
  4  5  1  1
  4  6  1  0
  6  7  2  0
  6  8  1  0
  9  8  1  1
  9 10  1  0
  9 16  1  0
 10 11  1  6
 10 12  1  0
 12 13  1  6
 12 15  1  0
 13 14  1  0
 15 16  1  0
 16 17  1  6
 17 18  1  0
 17 26  1  0
 18 19  2  0
 19 20  1  0
 20 21  1  0
 20 26  2  0
 21 22  2  0
 21 23  1  0
 23 24  2  0
 24 25  1  0
 25 26  1  0
M  CHG  1   5   1
M  END
