
     RDKit          3D

 12 12  0  0  0  0  0  0  0  0999 V2000
   -3.5050    0.0840   -1.0630 O   0  0  0  0  0  0  0  0  0  0  0  0
   -2.3000    0.1970   -0.6680 C   0  0  0  0  0  0  0  0  0  0  0  0
   -1.2610    0.0360   -1.5010 N   0  0  0  0  0  0  0  0  0  0  0  0
    0.0110    0.1560   -1.0810 C   0  0  0  0  0  0  0  0  0  0  0  0
    0.9800    0.0030   -1.8700 O   0  0  0  0  0  0  0  0  0  0  0  0
    0.3050    0.4470    0.2160 N   0  0  0  0  0  0  0  0  0  0  0  0
    1.6840    0.5680    0.6310 C   0  0  0  0  0  0  0  0  0  0  0  0
    2.2630   -1.0580    1.1610 S   0  0  0  0  0  0  0  0  0  0  0  0
    2.3240   -2.1660   -0.1430 O   0  0  0  0  0  0  0  0  0  0  0  0
   -0.7410    0.6060    1.0400 C   0  0  0  0  0  0  0  0  0  0  0  0
   -0.4150    0.9580    2.5970 S   0  0  0  0  0  0  0  0  0  0  0  0
   -2.0110    0.4850    0.6140 N   0  0  0  0  0  0  0  0  0  0  0  0
  1  2  2  0
  2  3  1  0
  2 12  1  0
  3  4  1  0
  4  5  2  0
  4  6  1  0
  6  7  1  0
  6 10  1  0
  7  8  1  0
  8  9  1  0
 10 11  2  0
 10 12  1  0
M  END
