
     RDKit          3D

 47 51  0  0  0  0  0  0  0  0999 V2000
    6.4970    5.5180   -3.1830 C   0  0  0  0  0  0  0  0  0  0  0  0
    5.8370    4.8530   -2.4740 C   0  0  0  0  0  0  0  0  0  0  0  0
    5.0210    4.0640   -1.6070 C   0  0  0  0  0  0  0  0  0  0  0  0
    4.6060    4.8710   -0.4590 C   0  0  0  0  0  0  0  0  0  0  0  0
    3.6100    4.4120    0.3280 C   0  0  0  0  0  0  0  0  0  0  0  0
    2.9910    3.2060    0.0800 C   0  0  0  0  0  0  0  0  0  0  0  0
    1.9580    2.8160    0.9340 O   0  0  0  0  0  0  0  0  0  0  0  0
    3.4120    2.4280   -1.0200 C   0  0  0  0  0  0  0  0  0  0  0  0
    2.6400    1.2450   -1.3610 C   0  0  0  0  0  0  0  0  0  0  0  0
    3.5160    0.0090   -1.4220 N   0  0  0  0  0  0  0  0  0  0  0  0
    2.5940   -0.9900   -2.0310 C   0  0  0  0  0  0  0  0  0  0  0  0
    1.3480   -1.0990   -1.4020 C   0  0  0  0  0  0  0  0  0  0  0  0
    0.7890   -2.4080   -2.0030 O   0  0  0  0  0  0  0  0  0  0  0  0
    0.3610   -0.8430   -0.6740 O   0  0  0  0  0  0  0  0  0  0  0  0
   -0.6890   -0.6300    0.0610 C   0  0  0  0  0  0  0  0  0  0  0  0
   -2.0860   -0.3490   -0.1780 C   0  0  1  0  0  0  0  0  0  0  0  0
   -3.2040   -0.9100   -0.6240 O   0  0  0  0  0  0  0  0  0  0  0  0
   -4.1890   -1.4060   -1.0520 C   0  0  2  0  0  0  0  0  0  0  0  0
   -5.0590   -0.3030   -1.8600 C   0  0  0  0  0  0  0  0  0  0  0  0
   -4.7650    0.2780   -3.0320 C   0  0  0  0  0  0  0  0  0  0  0  0
   -5.5560    1.3740   -3.4510 C   0  0  0  0  0  0  0  0  0  0  0  0
   -6.5960    1.8290   -2.6780 C   0  0  0  0  0  0  0  0  0  0  0  0
   -6.8280    1.1610   -1.4990 C   0  0  0  0  0  0  0  0  0  0  0  0
   -6.0670    0.1010   -1.0900 C   0  0  0  0  0  0  0  0  0  0  0  0
   -6.1220   -0.7610    0.0800 C   0  0  0  0  0  0  0  0  0  0  0  0
   -6.9890   -0.7880    1.1820 C   0  0  0  0  0  0  0  0  0  0  0  0
   -6.9850   -1.5920    2.1990 C   0  0  0  0  0  0  0  0  0  0  0  0
   -5.9330   -2.6060    2.1520 C   0  0  0  0  0  0  0  0  0  0  0  0
   -5.0500   -2.6740    1.1300 C   0  0  0  0  0  0  0  0  0  0  0  0
   -5.1830   -1.6700    0.0650 C   0  0  0  0  0  0  0  0  0  0  0  0
   -2.6200    0.2390    1.1470 C   0  0  0  0  0  0  0  0  0  0  0  0
   -2.3320    0.0910    2.3710 C   0  0  0  0  0  0  0  0  0  0  0  0
   -3.1960    0.8860    3.1350 C   0  0  0  0  0  0  0  0  0  0  0  0
   -3.9690    1.4870    2.2570 C   0  0  0  0  0  0  0  0  0  0  0  0
   -5.1170    2.4520    2.5060 C   0  0  0  0  0  0  0  0  0  0  0  0
   -5.8180    2.6180    1.1570 C   0  0  0  0  0  0  0  0  0  0  0  0
   -3.6680    1.1520    1.0060 O   0  0  0  0  0  0  0  0  0  0  0  0
    3.8550   -0.2870   -0.0740 C   0  0  0  0  0  0  0  0  0  0  0  0
    5.1150   -0.9670    0.2460 C   0  0  2  0  0  0  0  0  0  0  0  0
    6.1380   -0.1100   -0.2950 O   0  0  0  0  0  0  0  0  0  0  0  0
    5.3980   -2.3340   -0.1770 C   0  0  1  0  0  0  0  0  0  0  0  0
    6.8000   -2.6710    0.3780 C   0  0  0  0  0  0  0  0  0  0  0  0
    4.4780   -3.3720    0.4480 C   0  0  1  0  0  0  0  0  0  0  0  0
    4.9200   -4.5950   -0.1430 O   0  0  0  0  0  0  0  0  0  0  0  0
    4.7730   -3.5820    1.9150 C   0  0  0  0  0  0  0  0  0  0  0  0
    4.0250   -4.8170    2.2850 N   0  0  0  0  0  0  0  0  0  0  0  0
    4.4330    2.8890   -1.8520 C   0  0  0  0  0  0  0  0  0  0  0  0
  1  2  3  0
  2  3  1  0
  3  4  2  0
  3 47  1  0
  4  5  1  0
  5  6  2  0
  6  7  1  0
  6  8  1  0
  8  9  1  0
  8 47  2  0
  9 10  1  0
 10 11  1  0
 10 38  1  0
 11 12  1  0
 12 13  2  0
 12 14  1  0
 14 15  1  0
 16 15  1  1
 16 17  1  0
 16 31  1  0
 18 17  1  1
 18 19  1  0
 18 30  1  0
 19 20  2  0
 19 24  1  0
 20 21  1  0
 21 22  2  0
 22 23  1  0
 23 24  2  0
 24 25  1  0
 25 26  2  0
 25 30  1  0
 26 27  1  0
 27 28  2  0
 28 29  1  0
 29 30  2  0
 31 32  2  0
 31 37  1  0
 32 33  1  0
 33 34  2  0
 34 35  1  0
 34 37  1  0
 35 36  1  0
 38 39  1  0
 39 40  1  6
 39 41  1  0
 41 42  1  1
 41 43  1  0
 43 44  1  6
 43 45  1  0
 45 46  1  0
M  END
