
     RDKit          3D

 36 37  0  0  0  0  0  0  0  0999 V2000
    5.5720    4.4020    0.0150 C   0  0  0  0  0  0  0  0  0  0  0  0
    4.7760    3.4700    0.8750 C   0  0  0  0  0  0  0  0  0  0  0  0
    4.1490    2.3570    0.0990 C   0  0  1  0  0  0  0  0  0  0  0  0
    3.3130    2.9520   -0.8490 O   0  0  0  0  0  0  0  0  0  0  0  0
    1.9880    2.8830   -1.0940 C   0  0  0  0  0  0  0  0  0  0  0  0
    1.5370    4.0820   -1.4630 O   0  0  0  0  0  0  0  0  0  0  0  0
    0.9970    1.7860   -1.0320 C   0  0  0  0  0  0  0  0  0  0  0  0
    0.9610    0.5660   -1.4320 C   0  0  0  0  0  0  0  0  0  0  0  0
   -0.0510   -0.5500   -1.3700 C   0  0  2  0  0  0  0  0  0  0  0  0
   -1.1120   -0.3410   -2.4790 C   0  0  0  0  0  0  0  0  0  0  0  0
   -0.6540   -0.8720   -0.0510 C   0  0  1  0  0  0  0  0  0  0  0  0
   -2.0720   -0.8350   -0.1140 O   0  0  0  0  0  0  0  0  0  0  0  0
   -2.6260    0.2540    0.5410 C   0  0  2  0  0  0  0  0  0  0  0  0
   -3.3730   -0.1380    1.6480 O   0  0  0  0  0  0  0  0  0  0  0  0
   -4.6960   -0.3810    1.4160 C   0  0  2  0  0  0  0  0  0  0  0  0
   -5.0010   -1.5200    0.4970 C   0  0  0  0  0  0  0  0  0  0  0  0
   -5.4510    0.8860    1.0050 C   0  0  0  0  0  0  0  0  0  0  0  0
   -4.4490    1.8830    0.4880 C   0  0  2  0  0  0  0  0  0  0  0  0
   -5.0560    2.9800   -0.2040 N   0  0  0  0  0  0  0  0  0  0  0  0
   -5.8960    3.7120    0.6940 C   0  0  0  0  0  0  0  0  0  0  0  0
   -5.7920    2.6010   -1.3710 C   0  0  0  0  0  0  0  0  0  0  0  0
   -3.4100    1.1620   -0.3720 C   0  0  1  0  0  0  0  0  0  0  0  0
   -2.5600    2.1650   -0.8310 O   0  0  0  0  0  0  0  0  0  0  0  0
   -0.1500   -2.0410    0.6900 C   0  0  1  0  0  0  0  0  0  0  0  0
   -1.2210   -2.3860    1.7620 C   0  0  0  0  0  0  0  0  0  0  0  0
    0.1670   -3.2980   -0.0010 C   0  0  0  0  0  0  0  0  0  0  0  0
    1.1840   -4.1270    0.7760 C   0  0  1  0  0  0  0  0  0  0  0  0
    0.5860   -5.4700    1.0930 C   0  0  0  0  0  0  0  0  0  0  0  0
    2.4810   -4.3480   -0.0680 C   0  0  2  0  0  0  0  0  0  0  0  0
    3.1560   -5.2740    0.6660 O   0  0  0  0  0  0  0  0  0  0  0  0
    3.1030   -3.0270   -0.3580 C   0  0  0  0  0  0  0  0  0  0  0  0
    4.2780   -2.5720   -0.6320 C   0  0  0  0  0  0  0  0  0  0  0  0
    4.8200   -1.1800   -0.9100 C   0  0  0  0  0  0  0  0  0  0  0  0
    4.6740   -0.0380   -0.3310 C   0  0  0  0  0  0  0  0  0  0  0  0
    5.1610    1.3820   -0.5330 C   0  0  2  0  0  0  0  0  0  0  0  0
    6.4920    1.6310    0.0640 C   0  0  0  0  0  0  0  0  0  0  0  0
  1  2  1  0
  3  2  1  6
  3  4  1  0
  3 35  1  0
  4  5  1  0
  5  6  2  0
  5  7  1  0
  7  8  2  0
  8  9  1  0
  9 10  1  6
  9 11  1  0
 11 12  1  6
 11 24  1  0
 13 12  1  6
 13 14  1  0
 13 22  1  0
 14 15  1  0
 15 16  1  6
 15 17  1  0
 17 18  1  0
 18 19  1  6
 18 22  1  0
 19 20  1  0
 19 21  1  0
 22 23  1  1
 24 25  1  1
 24 26  1  0
 26 27  1  0
 27 28  1  6
 27 29  1  0
 29 30  1  1
 29 31  1  0
 31 32  2  0
 32 33  1  0
 33 34  2  0
 34 35  1  0
 35 36  1  1
M  END
