
     RDKit          3D

 47 52  0  0  0  0  0  0  0  0999 V2000
   -6.7560    5.7350   -2.2520 C   0  0  0  0  0  0  0  0  0  0  0  0
   -6.4780    5.0070   -1.0920 O   0  0  0  0  0  0  0  0  0  0  0  0
   -5.3010    4.3390   -0.8210 C   0  0  0  0  0  0  0  0  0  0  0  0
   -4.2610    4.3470   -1.7360 C   0  0  0  0  0  0  0  0  0  0  0  0
   -3.0850    3.6800   -1.4670 C   0  0  0  0  0  0  0  0  0  0  0  0
   -2.9250    2.9920   -0.2810 C   0  0  0  0  0  0  0  0  0  0  0  0
   -1.6500    2.2460    0.0260 C   0  0  0  0  0  0  0  0  0  0  0  0
   -1.9070    0.7900   -0.1800 C   0  0  0  0  0  0  0  0  0  0  0  0
   -0.7420   -0.1080    0.0760 C   0  0  1  0  0  0  0  0  0  0  0  0
   -0.2090   -0.0220    1.5080 C   0  0  0  0  0  0  0  0  0  0  0  0
    0.0410   -1.3910    1.9550 C   0  0  2  0  0  0  0  0  0  0  0  0
   -0.5740   -1.4560    3.3930 C   0  0  0  0  0  0  0  0  0  0  0  0
    1.3040   -2.0510    2.0730 C   0  0  1  0  0  0  0  0  0  0  0  0
    0.9340   -3.3650    2.5850 O   0  0  0  0  0  0  0  0  0  0  0  0
    2.3990   -2.2250    1.1480 C   0  0  1  0  0  0  0  0  0  0  0  0
    3.4440   -3.0920    1.9400 C   0  0  0  0  0  0  0  0  0  0  0  0
    2.1720   -3.0490   -0.0890 C   0  0  0  0  0  0  0  0  0  0  0  0
    3.2390   -1.0100    0.8330 C   0  0  2  0  0  0  0  0  0  0  0  0
    2.6060    0.0430    0.2490 O   0  0  0  0  0  0  0  0  0  0  0  0
    4.4610   -1.3610    0.0120 C   0  0  0  0  0  0  0  0  0  0  0  0
    5.2890   -0.1710   -0.3000 C   0  0  0  0  0  0  0  0  0  0  0  0
    5.0530    0.5630   -1.4410 C   0  0  0  0  0  0  0  0  0  0  0  0
    5.8290    1.6810   -1.7480 C   0  0  0  0  0  0  0  0  0  0  0  0
    6.8470    2.0810   -0.9250 C   0  0  0  0  0  0  0  0  0  0  0  0
    7.6900    3.2370   -1.1970 C   0  0  0  0  0  0  0  0  0  0  0  0
    9.0320    3.3690   -0.8270 C   0  0  0  0  0  0  0  0  0  0  0  0
    9.4610    4.6110   -1.2710 C   0  0  0  0  0  0  0  0  0  0  0  0
    8.4500    5.1820   -1.8650 O   0  0  0  0  0  0  0  0  0  0  0  0
    7.3830    4.4100   -1.8470 C   0  0  0  0  0  0  0  0  0  0  0  0
    7.0930    1.3550    0.2200 C   0  0  0  0  0  0  0  0  0  0  0  0
    6.3200    0.2490    0.5170 C   0  0  0  0  0  0  0  0  0  0  0  0
   -1.0110   -2.2180    1.1590 C   0  0  0  0  0  0  0  0  0  0  0  0
   -1.0930   -1.5090   -0.1130 N   0  0  0  0  0  0  0  0  0  0  0  0
   -1.4570   -2.0980   -1.3230 C   0  0  0  0  0  0  0  0  0  0  0  0
   -1.4850   -1.3640   -2.3690 O   0  0  0  0  0  0  0  0  0  0  0  0
   -1.8200   -3.5430   -1.4750 C   0  0  1  0  0  0  0  0  0  0  0  0
   -3.0520   -3.8270   -0.6790 C   0  0  0  0  0  0  0  0  0  0  0  0
   -4.0560   -4.2740   -1.7150 C   0  0  2  0  0  0  0  0  0  0  0  0
   -5.0390   -5.2750   -1.1560 C   0  0  0  0  0  0  0  0  0  0  0  0
   -3.1770   -4.8810   -2.7820 C   0  0  0  0  0  0  0  0  0  0  0  0
   -2.1300   -3.8510   -2.8590 N   0  0  0  0  0  0  0  0  0  0  0  0
   -3.9760    3.0010    0.6080 C   0  0  0  0  0  0  0  0  0  0  0  0
   -5.1710    3.6630    0.3680 C   0  0  0  0  0  0  0  0  0  0  0  0
   -6.1920    3.6250    1.3210 O   0  0  0  0  0  0  0  0  0  0  0  0
   -5.7970    3.5310    2.6790 C   0  0  0  0  0  0  0  0  0  0  0  0
   -4.7710    2.4490    2.8550 C   0  0  0  0  0  0  0  0  0  0  0  0
   -3.8590    2.3320    1.7960 O   0  0  0  0  0  0  0  0  0  0  0  0
  1  2  1  0
  2  3  1  0
  3  4  2  0
  3 43  1  0
  4  5  1  0
  5  6  2  0
  6  7  1  0
  6 42  1  0
  7  8  1  0
  9  8  1  1
  9 10  1  0
  9 33  1  0
 10 11  1  0
 11 12  1  1
 11 13  1  0
 11 32  1  0
 13 14  1  6
 13 15  1  0
 15 16  1  1
 15 17  1  0
 15 18  1  0
 18 19  1  6
 18 20  1  0
 20 21  1  0
 21 22  2  0
 21 31  1  0
 22 23  1  0
 23 24  2  0
 24 25  1  0
 24 30  1  0
 25 26  1  0
 25 29  2  0
 26 27  2  0
 27 28  1  0
 28 29  1  0
 30 31  2  0
 32 33  1  0
 33 34  1  0
 34 35  2  0
 36 34  1  6
 36 37  1  0
 36 41  1  0
 37 38  1  0
 38 39  1  1
 38 40  1  0
 40 41  1  0
 42 43  2  0
 42 47  1  0
 43 44  1  0
 44 45  1  0
 45 46  1  0
 46 47  1  0
M  END
