
     RDKit          3D

 47 51  0  0  0  0  0  0  0  0999 V2000
    3.4120   -4.6370   -2.3450 C   0  0  0  0  0  0  0  0  0  0  0  0
    4.3820   -3.7370   -1.6030 C   0  0  0  0  0  0  0  0  0  0  0  0
    3.7350   -2.6340   -1.0250 O   0  0  0  0  0  0  0  0  0  0  0  0
    4.3940   -1.6600   -0.2900 C   0  0  0  0  0  0  0  0  0  0  0  0
    5.7370   -1.7670   -0.1170 C   0  0  0  0  0  0  0  0  0  0  0  0
    6.4390   -0.8380    0.5970 C   0  0  0  0  0  0  0  0  0  0  0  0
    5.8650    0.2570    1.1860 C   0  0  0  0  0  0  0  0  0  0  0  0
    6.5450    1.3200    1.8610 C   0  0  0  0  0  0  0  0  0  0  0  0
    7.6850    1.8300    1.8440 C   0  0  0  0  0  0  0  0  0  0  0  0
    8.9180    1.6350    1.1280 C   0  0  0  0  0  0  0  0  0  0  0  0
    9.2310    0.9570   -0.0100 C   0  0  0  0  0  0  0  0  0  0  0  0
   10.5990    1.0850   -0.2620 C   0  0  0  0  0  0  0  0  0  0  0  0
   11.0680    1.8520    0.7520 C   0  0  0  0  0  0  0  0  0  0  0  0
   12.5190    2.2350    0.8590 C   0  0  0  0  0  0  0  0  0  0  0  0
   12.6550    3.0760    2.1090 C   0  0  0  0  0  0  0  0  0  0  0  0
   10.0960    2.1480    1.5220 O   0  0  0  0  0  0  0  0  0  0  0  0
    4.4620    0.3400    0.9880 C   0  0  0  0  0  0  0  0  0  0  0  0
    3.7520   -0.5860    0.2750 C   0  0  0  0  0  0  0  0  0  0  0  0
    2.2720   -0.4190    0.0800 C   0  0  1  0  0  0  0  0  0  0  0  0
    1.8600   -0.2850   -1.3160 C   0  0  0  0  0  0  0  0  0  0  0  0
    1.9610    0.8180   -1.8980 O   0  0  0  0  0  0  0  0  0  0  0  0
    1.3290   -1.4240   -2.0550 C   0  0  0  0  0  0  0  0  0  0  0  0
    1.5510   -1.5870   -3.2730 O   0  0  0  0  0  0  0  0  0  0  0  0
    0.5390   -2.3310   -1.2710 N   0  0  0  0  0  0  0  0  0  0  0  0
    0.3750   -2.0080    0.1090 C   0  0  0  0  0  0  0  0  0  0  0  0
   -0.7080   -2.3190    0.6470 O   0  0  0  0  0  0  0  0  0  0  0  0
    1.4220   -1.3410    0.8760 C   0  0  2  0  0  0  0  0  0  0  0  0
    1.4340    0.1200    1.1460 C   0  0  2  0  0  0  0  0  0  0  0  0
    0.2660    0.9840    0.9780 C   0  0  0  0  0  0  0  0  0  0  0  0
    0.0220    1.9060    1.8410 O   0  0  0  0  0  0  0  0  0  0  0  0
   -0.6890    0.9450   -0.0660 N   0  0  0  0  0  0  0  0  0  0  0  0
   -1.8170    1.8380   -0.1540 C   0  0  1  0  0  0  0  0  0  0  0  0
   -1.5530    2.9620   -1.1460 C   0  0  0  0  0  0  0  0  0  0  0  0
   -3.1060    1.1840   -0.4010 C   0  0  0  0  0  0  0  0  0  0  0  0
   -3.4300    0.0230    0.2610 C   0  0  0  0  0  0  0  0  0  0  0  0
   -4.6280   -0.6480    0.0820 C   0  0  0  0  0  0  0  0  0  0  0  0
   -5.5310   -0.0980   -0.8180 C   0  0  0  0  0  0  0  0  0  0  0  0
   -6.8270   -0.8040   -1.0350 C   0  0  0  0  0  0  0  0  0  0  0  0
   -7.8760   -0.3160   -0.0310 C   0  0  0  0  0  0  0  0  0  0  0  0
   -9.1450   -1.0960   -0.3480 C   0  0  0  0  0  0  0  0  0  0  0  0
  -10.2720   -0.7250    0.5810 C   0  0  2  0  0  0  0  0  0  0  0  0
  -11.4830   -1.5430    0.1880 C   0  0  0  0  0  0  0  0  0  0  0  0
  -10.6080    0.7280    0.5460 C   0  0  2  0  0  0  0  0  0  0  0  0
  -11.7490    1.0400    1.4980 C   0  0  0  0  0  0  0  0  0  0  0  0
  -10.8580    1.2210   -0.7240 O   0  0  0  0  0  0  0  0  0  0  0  0
   -5.2500    1.0600   -1.5020 C   0  0  0  0  0  0  0  0  0  0  0  0
   -4.0470    1.6750   -1.2800 C   0  0  0  0  0  0  0  0  0  0  0  0
  1  2  1  0
  2  3  1  0
  3  4  1  0
  4  5  2  0
  4 18  1  0
  5  6  1  0
  6  7  2  0
  7  8  1  0
  7 17  1  0
  8  9  2  3
  9 10  1  0
 10 11  2  0
 10 16  1  0
 11 12  1  0
 12 13  2  0
 13 14  1  0
 13 16  1  0
 14 15  1  0
 17 18  2  0
 19 18  1  6
 19 20  1  0
 19 27  1  0
 19 28  1  0
 20 21  2  0
 20 22  1  0
 22 23  2  0
 22 24  1  0
 24 25  1  0
 25 26  2  0
 27 25  1  6
 27 28  1  0
 28 29  1  6
 29 30  2  0
 29 31  1  0
 31 32  1  0
 32 33  1  6
 32 34  1  0
 34 35  2  0
 34 47  1  0
 35 36  1  0
 36 37  2  0
 37 38  1  0
 37 46  1  0
 38 39  1  0
 39 40  1  0
 40 41  1  0
 41 42  1  6
 41 43  1  0
 43 44  1  1
 43 45  1  0
 46 47  2  0
M  END
