
     RDKit          3D

 47 52  0  0  0  0  0  0  0  0999 V2000
   -4.0770    4.4190    0.5820 C   0  0  0  0  0  0  0  0  0  0  0  0
   -3.4900    3.3970   -0.3100 C   0  0  0  0  0  0  0  0  0  0  0  0
   -2.2100    2.7350    0.1850 C   0  0  2  0  0  0  0  0  0  0  0  0
   -1.1010    3.7540    0.4110 C   0  0  0  0  0  0  0  0  0  0  0  0
   -1.7590    1.9350   -1.0050 C   0  0  0  0  0  0  0  0  0  0  0  0
   -2.5280    1.9540    1.4180 C   0  0  1  0  0  0  0  0  0  0  0  0
   -3.4440    0.9800    1.1180 O   0  0  0  0  0  0  0  0  0  0  0  0
   -1.4640    1.6330    2.3390 C   0  0  0  0  0  0  0  0  0  0  0  0
   -1.4830    1.9840    3.6440 C   0  0  0  0  0  0  0  0  0  0  0  0
   -2.4940    2.6870    4.4600 C   0  0  0  0  0  0  0  0  0  0  0  0
   -0.1080    1.9560    4.1380 N   0  0  0  0  0  0  0  0  0  0  0  0
    0.6740    1.5820    2.9900 C   0  0  0  0  0  0  0  0  0  0  0  0
    1.8770    1.8740    2.5660 C   0  0  0  0  0  0  0  0  0  0  0  0
    2.3810    1.2970    1.3000 C   0  0  0  0  0  0  0  0  0  0  0  0
    3.5350    1.3810    0.6960 C   0  0  0  0  0  0  0  0  0  0  0  0
    4.7010    2.1000    1.1200 C   0  0  0  0  0  0  0  0  0  0  0  0
    5.7860    1.9790    0.3880 O   0  0  0  0  0  0  0  0  0  0  0  0
    4.9200    2.9320    2.1900 O   0  0  0  0  0  0  0  0  0  0  0  0
    5.9920    3.5770    2.6360 C   0  0  0  0  0  0  0  0  0  0  0  0
    3.4370    0.6010   -0.5850 C   0  0  1  0  0  0  0  0  0  0  0  0
    3.5880    1.6420   -1.7050 C   0  0  0  0  0  0  0  0  0  0  0  0
    4.5770   -0.3560   -0.6310 C   0  0  0  0  0  0  0  0  0  0  0  0
    5.2390   -0.5510    0.3880 O   0  0  0  0  0  0  0  0  0  0  0  0
    4.8910   -1.0300   -1.8320 N   0  0  0  0  0  0  0  0  0  0  0  0
    5.9300   -1.9590   -2.0430 C   0  0  0  0  0  0  0  0  0  0  0  0
    6.7420   -2.3870   -1.0270 C   0  0  0  0  0  0  0  0  0  0  0  0
    7.7480   -3.3210   -1.3150 C   0  0  0  0  0  0  0  0  0  0  0  0
    7.9270   -3.8030   -2.5820 C   0  0  0  0  0  0  0  0  0  0  0  0
    7.0970   -3.3640   -3.6100 C   0  0  0  0  0  0  0  0  0  0  0  0
    6.1090   -2.4540   -3.3530 C   0  0  0  0  0  0  0  0  0  0  0  0
    5.2560   -1.9960   -4.3730 O   0  0  0  0  0  0  0  0  0  0  0  0
    2.1160   -0.0560   -0.6200 C   0  0  0  0  0  0  0  0  0  0  0  0
    1.4380    0.4180    0.6170 C   0  0  0  0  0  0  0  0  0  0  0  0
    0.1920    0.1280    1.0740 C   0  0  0  0  0  0  0  0  0  0  0  0
   -0.5710   -0.7820    0.2480 C   0  0  0  0  0  0  0  0  0  0  0  0
   -0.1070   -1.1690   -0.9120 O   0  0  0  0  0  0  0  0  0  0  0  0
   -1.7810   -1.3660    0.4880 O   0  0  0  0  0  0  0  0  0  0  0  0
   -2.5290   -2.2200   -0.2910 C   0  0  1  0  0  0  0  0  0  0  0  0
   -2.6800   -3.5970    0.3240 C   0  0  0  0  0  0  0  0  0  0  0  0
   -2.8660   -4.5500   -0.8220 C   0  0  0  0  0  0  0  0  0  0  0  0
   -3.9050   -4.0850   -1.7830 C   0  0  0  0  0  0  0  0  0  0  0  0
   -4.6210   -2.8370   -1.4590 C   0  0  1  0  0  0  0  0  0  0  0  0
   -5.8740   -3.0140   -0.6110 C   0  0  2  0  0  0  0  0  0  0  0  0
   -6.9660   -3.8550   -1.0940 C   0  0  0  0  0  0  0  0  0  0  0  0
   -7.0890   -2.3250   -1.1880 C   0  0  0  0  0  0  0  0  0  0  0  0
   -3.7990   -1.7330   -0.8730 C   0  0  0  0  0  0  0  0  0  0  0  0
   -0.2860    0.7510    2.2420 C   0  0  2  0  0  0  0  0  0  0  0  0
  1  2  1  0
  2  3  1  0
  3  4  1  1
  3  5  1  0
  3  6  1  0
  6  7  1  6
  6  8  1  0
  8  9  2  0
 47  8  1  6
  9 10  1  0
  9 11  1  0
 11 12  1  0
 12 13  2  0
 12 47  1  0
 13 14  1  0
 14 15  2  0
 14 33  1  0
 15 16  1  0
 15 20  1  0
 16 17  2  0
 16 18  1  0
 18 19  1  0
 20 21  1  6
 20 22  1  0
 20 32  1  0
 22 23  2  0
 22 24  1  0
 24 25  1  0
 25 26  2  0
 25 30  1  0
 26 27  1  0
 27 28  2  0
 28 29  1  0
 29 30  2  0
 30 31  1  0
 32 33  1  0
 33 34  2  0
 34 35  1  0
 34 47  1  0
 35 36  2  0
 35 37  1  0
 38 37  1  1
 38 39  1  0
 38 46  1  0
 39 40  1  0
 40 41  1  0
 42 41  1  1
 42 43  1  0
 42 46  1  0
 43 44  1  6
 43 45  1  0
 44 45  1  0
M  END
