
     RDKit          3D

 47 51  0  0  0  0  0  0  0  0999 V2000
   -4.7860    0.0430    1.4820 C   0  0  0  0  0  0  0  0  0  0  0  0
   -3.4210   -0.4070    1.1190 C   0  0  0  0  0  0  0  0  0  0  0  0
   -2.7850   -1.3250    1.9250 C   0  0  0  0  0  0  0  0  0  0  0  0
   -1.5280   -1.8080    1.6400 C   0  0  0  0  0  0  0  0  0  0  0  0
   -0.8390   -1.4120    0.5470 C   0  0  0  0  0  0  0  0  0  0  0  0
    0.6260   -1.8060    0.3410 C   0  0  2  0  0  0  0  0  0  0  0  0
    1.4390   -0.6750    0.0810 C   0  0  0  0  0  0  0  0  0  0  0  0
    1.1140    0.4160    0.7120 O   0  0  0  0  0  0  0  0  0  0  0  0
    2.5800   -0.4870   -0.7700 N   0  0  0  0  0  0  0  0  0  0  0  0
    3.1950    0.8130   -0.8300 C   0  0  0  0  0  0  0  0  0  0  0  0
    4.2630    1.0790   -1.7730 C   0  0  2  0  0  0  0  0  0  0  0  0
    4.0040    0.9060   -3.1260 O   0  0  0  0  0  0  0  0  0  0  0  0
    5.6340    0.6630   -1.3410 C   0  0  0  0  0  0  0  0  0  0  0  0
    5.7140    0.7420    0.0510 O   0  0  0  0  0  0  0  0  0  0  0  0
    6.9860    0.4970    0.5120 C   0  0  0  0  0  0  0  0  0  0  0  0
    7.9870    1.5800    0.2260 C   0  0  0  0  0  0  0  0  0  0  0  0
    7.6790    2.8580    0.9410 C   0  0  2  0  0  0  0  0  0  0  0  0
    7.6850    2.5670    2.3120 O   0  0  0  0  0  0  0  0  0  0  0  0
    6.4030    3.4750    0.5010 C   0  0  0  0  0  0  0  0  0  0  0  0
    6.3850    3.8080   -0.8360 O   0  0  0  0  0  0  0  0  0  0  0  0
    0.7620   -3.1520   -0.1540 C   0  0  1  0  0  0  0  0  0  0  0  0
    2.1990   -3.3430   -0.3010 O   0  0  0  0  0  0  0  0  0  0  0  0
    0.3930   -4.2400    0.7620 C   0  0  0  0  0  0  0  0  0  0  0  0
    0.7270   -4.3050    2.0830 C   0  0  0  0  0  0  0  0  0  0  0  0
    0.4690   -5.3710    2.9040 C   0  0  0  0  0  0  0  0  0  0  0  0
   -0.1700   -6.4680    2.3930 C   0  0  0  0  0  0  0  0  0  0  0  0
   -0.5390   -6.4720    1.0610 C   0  0  0  0  0  0  0  0  0  0  0  0
   -0.2650   -5.3880    0.2660 C   0  0  0  0  0  0  0  0  0  0  0  0
   -0.7150   -5.3720   -1.1310 C   0  0  0  0  0  0  0  0  0  0  0  0
    0.3060   -5.6230   -2.1530 C   0  0  0  0  0  0  0  0  0  0  0  0
    1.4630   -5.8100   -1.8440 O   0  0  0  0  0  0  0  0  0  0  0  0
   -1.4510   -0.4920   -0.2820 C   0  0  0  0  0  0  0  0  0  0  0  0
   -0.7970   -0.1490   -1.4440 C   0  0  0  0  0  0  0  0  0  0  0  0
   -1.3710    0.7050   -2.3800 C   0  0  0  0  0  0  0  0  0  0  0  0
   -2.6120    1.2030   -2.1170 C   0  0  0  0  0  0  0  0  0  0  0  0
   -3.2760    0.8410   -0.9160 C   0  0  0  0  0  0  0  0  0  0  0  0
   -4.5460    1.4960   -0.7650 C   0  0  0  0  0  0  0  0  0  0  0  0
   -5.5350    1.1480   -1.6370 C   0  0  0  0  0  0  0  0  0  0  0  0
   -6.7300    1.8180   -1.6430 C   0  0  0  0  0  0  0  0  0  0  0  0
   -6.9040    2.8680   -0.7330 C   0  0  0  0  0  0  0  0  0  0  0  0
   -5.9150    3.2310    0.1530 C   0  0  0  0  0  0  0  0  0  0  0  0
   -4.7300    2.5020    0.0980 C   0  0  0  0  0  0  0  0  0  0  0  0
   -6.0690    4.3420    1.1270 C   0  0  0  0  0  0  0  0  0  0  0  0
   -7.1680    5.2820    0.8120 C   0  0  0  0  0  0  0  0  0  0  0  0
   -7.9630    4.9870   -0.4090 C   0  0  0  0  0  0  0  0  0  0  0  0
   -8.0870    3.5870   -0.6890 O   0  0  0  0  0  0  0  0  0  0  0  0
   -2.7330    0.0100   -0.0030 C   0  0  0  0  0  0  0  0  0  0  0  0
  1  2  1  0
  2  3  2  0
  2 47  1  0
  3  4  1  0
  4  5  2  0
  5  6  1  0
  5 32  1  0
  6  7  1  6
  6 21  1  0
  7  8  2  0
  7  9  1  0
  9 10  1  0
 10 11  1  0
 11 12  1  6
 11 13  1  0
 13 14  1  0
 14 15  1  0
 15 16  1  0
 16 17  1  0
 17 18  1  1
 17 19  1  0
 19 20  1  0
 21 22  1  1
 21 23  1  0
 23 24  2  0
 23 28  1  0
 24 25  1  0
 25 26  2  0
 26 27  1  0
 27 28  2  0
 28 29  1  0
 29 30  1  0
 30 31  2  0
 32 33  2  0
 32 47  1  0
 33 34  1  0
 34 35  2  0
 35 36  1  0
 36 37  1  0
 36 47  2  0
 37 38  2  0
 37 42  1  0
 38 39  1  0
 39 40  2  0
 40 41  1  0
 40 46  1  0
 41 42  2  0
 41 43  1  0
 43 44  1  0
 44 45  1  0
 45 46  1  0
M  END
