
     RDKit          3D

 47 51  0  0  0  0  0  0  0  0999 V2000
    1.7070    4.3100   -3.7010 C   0  0  0  0  0  0  0  0  0  0  0  0
    0.9080    3.6280   -2.7880 O   0  0  0  0  0  0  0  0  0  0  0  0
   -0.4450    3.5020   -2.9990 C   0  0  0  0  0  0  0  0  0  0  0  0
   -1.0010    4.0600   -4.1270 C   0  0  0  0  0  0  0  0  0  0  0  0
   -2.3620    3.9540   -4.3750 C   0  0  0  0  0  0  0  0  0  0  0  0
   -3.1370    3.2800   -3.4700 C   0  0  0  0  0  0  0  0  0  0  0  0
   -2.5410    2.7220   -2.3290 C   0  0  0  0  0  0  0  0  0  0  0  0
   -1.2030    2.8190   -2.0740 C   0  0  0  0  0  0  0  0  0  0  0  0
   -0.5910    2.2700   -0.9480 N   0  0  0  0  0  0  0  0  0  0  0  0
   -1.1760    1.5450    0.1190 C   0  0  0  0  0  0  0  0  0  0  0  0
   -2.4140    1.3540    0.0970 O   0  0  0  0  0  0  0  0  0  0  0  0
   -0.3530    1.0420    1.2250 C   0  0  0  0  0  0  0  0  0  0  0  0
   -0.3770    1.7480    2.4430 C   0  0  0  0  0  0  0  0  0  0  0  0
    0.3980    1.3970    3.5210 C   0  0  0  0  0  0  0  0  0  0  0  0
    0.3170    2.1440    4.6880 O   0  0  0  0  0  0  0  0  0  0  0  0
   -0.5320    3.2570    4.8170 C   0  0  0  0  0  0  0  0  0  0  0  0
   -0.3260    3.7970    6.2370 C   0  0  0  0  0  0  0  0  0  0  0  0
   -0.6610    2.7980    7.1310 O   0  0  0  0  0  0  0  0  0  0  0  0
    1.2250    0.3170    3.4020 C   0  0  0  0  0  0  0  0  0  0  0  0
    1.2430   -0.3670    2.2150 C   0  0  0  0  0  0  0  0  0  0  0  0
    0.4600   -0.0310    1.0950 C   0  0  0  0  0  0  0  0  0  0  0  0
    0.5000   -0.9250   -0.0970 C   0  0  2  0  0  0  0  0  0  0  0  0
    0.8480   -0.3580   -1.3730 C   0  0  0  0  0  0  0  0  0  0  0  0
    2.0230    0.1850   -1.6760 C   0  0  0  0  0  0  0  0  0  0  0  0
    3.1870    0.3190   -0.8120 C   0  0  1  0  0  0  0  0  0  0  0  0
    4.4360   -0.3170   -1.4810 C   0  0  0  0  0  0  0  0  0  0  0  0
    5.3520   -0.6940   -0.3380 C   0  0  1  0  0  0  0  0  0  0  0  0
    6.7280   -1.0880   -0.8260 C   0  0  0  0  0  0  0  0  0  0  0  0
    5.4180    0.5040    0.5910 C   0  0  0  0  0  0  0  0  0  0  0  0
    5.0500    1.7840   -0.1560 C   0  0  0  0  0  0  0  0  0  0  0  0
    3.5960    1.7590   -0.5780 C   0  0  2  0  0  0  0  0  0  0  0  0
    2.8740    2.3440    0.4690 O   0  0  0  0  0  0  0  0  0  0  0  0
   -0.1230   -0.4180   -2.4900 C   0  0  0  0  0  0  0  0  0  0  0  0
    0.0590    0.1700   -3.5850 O   0  0  0  0  0  0  0  0  0  0  0  0
   -1.3090   -1.1580   -2.3460 N   0  0  0  0  0  0  0  0  0  0  0  0
   -1.5740   -1.8360   -1.1390 C   0  0  0  0  0  0  0  0  0  0  0  0
   -2.7440   -2.6190   -1.0730 C   0  0  0  0  0  0  0  0  0  0  0  0
   -3.0450   -3.3520    0.0310 C   0  0  0  0  0  0  0  0  0  0  0  0
   -4.2710   -4.1800    0.1180 C   0  0  1  0  0  0  0  0  0  0  0  0
   -4.7020   -4.1850    1.5680 C   0  0  0  0  0  0  0  0  0  0  0  0
   -5.3230   -3.6450   -0.6300 O   0  0  0  0  0  0  0  0  0  0  0  0
   -4.0660   -5.5890   -0.3190 C   0  0  0  0  0  0  0  0  0  0  0  0
   -5.3670   -6.3460   -0.1940 C   0  0  0  0  0  0  0  0  0  0  0  0
   -5.8640   -6.3820    1.0830 O   0  0  0  0  0  0  0  0  0  0  0  0
   -2.1680   -3.3060    1.0910 C   0  0  0  0  0  0  0  0  0  0  0  0
   -1.0300   -2.5430    1.0270 C   0  0  0  0  0  0  0  0  0  0  0  0
   -0.7120   -1.7850   -0.1030 C   0  0  0  0  0  0  0  0  0  0  0  0
  1  2  1  0
  2  3  1  0
  3  4  2  0
  3  8  1  0
  4  5  1  0
  5  6  2  0
  6  7  1  0
  7  8  2  0
  8  9  1  0
  9 10  1  0
 10 11  2  0
 10 12  1  0
 12 13  2  0
 12 21  1  0
 13 14  1  0
 14 15  1  0
 14 19  2  0
 15 16  1  0
 16 17  1  0
 17 18  1  0
 19 20  1  0
 20 21  2  0
 22 21  1  1
 22 23  1  0
 22 47  1  0
 23 24  2  3
 23 33  1  0
 25 24  1  6
 25 26  1  0
 25 31  1  0
 26 27  1  0
 27 28  1  6
 27 29  1  0
 29 30  1  0
 30 31  1  0
 31 32  1  1
 33 34  2  0
 33 35  1  0
 35 36  1  0
 36 37  2  0
 36 47  1  0
 37 38  1  0
 38 39  1  0
 38 45  2  0
 39 40  1  1
 39 41  1  0
 39 42  1  0
 42 43  1  0
 43 44  1  0
 45 46  1  0
 46 47  2  0
M  END
