
     RDKit          3D

 47 51  0  0  0  0  0  0  0  0999 V2000
   -3.8660    6.6590    0.5660 C   0  0  0  0  0  0  0  0  0  0  0  0
   -3.1440    5.7990   -0.4360 C   0  0  0  0  0  0  0  0  0  0  0  0
   -1.9780    5.2730    0.1690 O   0  0  0  0  0  0  0  0  0  0  0  0
   -1.1000    4.4300   -0.5360 C   0  0  0  0  0  0  0  0  0  0  0  0
   -1.4480    4.1930   -1.7410 O   0  0  0  0  0  0  0  0  0  0  0  0
    0.1160    3.8600    0.0340 C   0  0  1  0  0  0  0  0  0  0  0  0
    0.9230    5.0550    0.6050 C   0  0  0  0  0  0  0  0  0  0  0  0
    0.0480    2.8620    1.1030 C   0  0  0  0  0  0  0  0  0  0  0  0
   -0.6020    1.5500    0.8970 C   0  0  1  0  0  0  0  0  0  0  0  0
   -2.0430    1.6930    0.5870 C   0  0  0  0  0  0  0  0  0  0  0  0
   -2.5820    0.6640   -0.3880 C   0  0  2  0  0  0  0  0  0  0  0  0
   -2.5580   -0.6500    0.2470 C   0  0  0  0  0  0  0  0  0  0  0  0
   -3.3970   -0.8170    1.3510 C   0  0  0  0  0  0  0  0  0  0  0  0
   -3.4540   -2.0440    1.9970 C   0  0  0  0  0  0  0  0  0  0  0  0
   -2.7090   -3.1320    1.5950 C   0  0  0  0  0  0  0  0  0  0  0  0
   -2.8280   -4.3920    2.3340 C   0  0  1  0  0  0  0  0  0  0  0  0
   -3.8520   -4.3590    3.4200 C   0  0  0  0  0  0  0  0  0  0  0  0
   -3.1190   -5.4190    1.4480 O   0  0  0  0  0  0  0  0  0  0  0  0
   -1.8930   -2.9410    0.5080 C   0  0  0  0  0  0  0  0  0  0  0  0
   -1.1380   -4.0380    0.0970 O   0  0  0  0  0  0  0  0  0  0  0  0
   -1.8290   -1.7260   -0.1420 C   0  0  0  0  0  0  0  0  0  0  0  0
   -1.7800    0.7810   -1.6320 C   0  0  0  0  0  0  0  0  0  0  0  0
   -2.4870    0.7490   -2.8740 C   0  0  0  0  0  0  0  0  0  0  0  0
   -2.3290   -0.2610   -3.7890 C   0  0  0  0  0  0  0  0  0  0  0  0
   -2.9830   -0.3050   -4.9960 C   0  0  0  0  0  0  0  0  0  0  0  0
   -3.8480    0.7120   -5.3210 C   0  0  0  0  0  0  0  0  0  0  0  0
   -4.0510    1.7610   -4.4370 C   0  0  0  0  0  0  0  0  0  0  0  0
   -3.3770    1.7750   -3.2290 C   0  0  0  0  0  0  0  0  0  0  0  0
   -0.4300    0.8230   -1.4910 C   0  0  0  0  0  0  0  0  0  0  0  0
    0.4470    0.9470   -2.6230 C   0  0  0  0  0  0  0  0  0  0  0  0
    1.9170    1.0050   -2.5290 C   0  0  0  0  0  0  0  0  0  0  0  0
   -0.0490    1.0200   -3.7990 O   0  0  0  0  0  0  0  0  0  0  0  0
    0.1120    0.7110   -0.1150 C   0  0  0  0  0  0  0  0  0  0  0  0
    1.1180   -0.0660    0.1010 C   0  0  0  0  0  0  0  0  0  0  0  0
    1.8310   -0.3460    1.3300 C   0  0  0  0  0  0  0  0  0  0  0  0
    1.4620    0.1970    2.3830 O   0  0  0  0  0  0  0  0  0  0  0  0
    2.9630   -1.2270    1.4250 N   0  0  0  0  0  0  0  0  0  0  0  0
    3.5850   -1.4640    2.7030 C   0  0  0  0  0  0  0  0  0  0  0  0
    4.7280   -2.4020    2.6590 C   0  0  1  0  0  0  0  0  0  0  0  0
    4.2000   -3.8090    2.4160 C   0  0  0  0  0  0  0  0  0  0  0  0
    4.9820   -4.4930    1.4970 O   0  0  0  0  0  0  0  0  0  0  0  0
    4.8000   -3.9410    0.2070 C   0  0  0  0  0  0  0  0  0  0  0  0
    4.7890   -2.4300    0.2590 C   0  0  2  0  0  0  0  0  0  0  0  0
    5.5780   -1.9410   -0.9460 C   0  0  0  0  0  0  0  0  0  0  0  0
    6.8960   -2.4140   -0.9040 O   0  0  0  0  0  0  0  0  0  0  0  0
    5.5890   -2.0200    1.4760 C   0  0  0  0  0  0  0  0  0  0  0  0
    3.4300   -1.8180    0.2190 C   0  0  0  0  0  0  0  0  0  0  0  0
  1  2  1  0
  2  3  1  0
  3  4  1  0
  4  5  2  0
  4  6  1  0
  6  7  1  1
  6  8  1  0
  9  8  1  6
  9 10  1  0
  9 33  1  0
 10 11  1  0
 11 12  1  1
 11 22  1  0
 12 13  2  0
 12 21  1  0
 13 14  1  0
 14 15  2  0
 15 16  1  0
 15 19  1  0
 16 17  1  1
 16 18  1  0
 19 20  1  0
 19 21  2  0
 22 23  1  0
 22 29  2  0
 23 24  2  0
 23 28  1  0
 24 25  1  0
 25 26  2  0
 26 27  1  0
 27 28  2  0
 29 30  1  0
 29 33  1  0
 30 31  1  0
 30 32  2  0
 33 34  2  3
 34 35  1  0
 35 36  2  0
 35 37  1  0
 37 38  1  0
 37 47  1  0
 39 38  1  6
 39 40  1  0
 39 46  1  0
 40 41  1  0
 41 42  1  0
 42 43  1  0
 43 44  1  6
 43 46  1  0
 43 47  1  0
 44 45  1  0
M  END
