
     RDKit          3D

 47 52  0  0  0  0  0  0  0  0999 V2000
    3.0210   -0.8450    4.7180 C   0  0  0  0  0  0  0  0  0  0  0  0
    2.8120   -1.0720    3.2780 C   0  0  0  0  0  0  0  0  0  0  0  0
    3.5030   -0.4060    2.3320 C   0  0  0  0  0  0  0  0  0  0  0  0
    4.4700    0.5340    2.7620 O   0  0  0  0  0  0  0  0  0  0  0  0
    5.2140    1.2450    1.8510 C   0  0  0  0  0  0  0  0  0  0  0  0
    6.2460    2.2480    2.2750 C   0  0  0  0  0  0  0  0  0  0  0  0
    6.8340    2.8040    1.1410 O   0  0  0  0  0  0  0  0  0  0  0  0
    5.0100    1.0340    0.5610 C   0  0  0  0  0  0  0  0  0  0  0  0
    5.7550    1.7440   -0.4010 O   0  0  0  0  0  0  0  0  0  0  0  0
    4.0310    0.0840    0.0560 C   0  0  0  0  0  0  0  0  0  0  0  0
    3.3120   -0.6010    0.9260 C   0  0  0  0  0  0  0  0  0  0  0  0
    2.2470   -1.5340    0.4650 C   0  0  1  0  0  0  0  0  0  0  0  0
    2.4470   -1.9260   -0.9390 C   0  0  0  0  0  0  0  0  0  0  0  0
    3.2230   -3.0450   -1.1430 C   0  0  0  0  0  0  0  0  0  0  0  0
    3.5190   -3.4540   -2.4220 C   0  0  0  0  0  0  0  0  0  0  0  0
    3.0410   -2.7480   -3.5000 C   0  0  0  0  0  0  0  0  0  0  0  0
    2.2760   -1.6440   -3.2720 C   0  0  0  0  0  0  0  0  0  0  0  0
    1.9480   -1.1900   -1.9640 C   0  0  0  0  0  0  0  0  0  0  0  0
    1.1440    0.0100   -1.9360 C   0  0  0  0  0  0  0  0  0  0  0  0
    0.4880    0.2380   -3.0450 O   0  0  0  0  0  0  0  0  0  0  0  0
    0.9050    0.9950   -1.0010 N   0  0  0  0  0  0  0  0  0  0  0  0
    0.0570    2.1430   -1.2320 C   0  0  0  0  0  0  0  0  0  0  0  0
    0.6560    3.2840   -1.7220 C   0  0  0  0  0  0  0  0  0  0  0  0
    2.1280    3.3120   -1.9940 C   0  0  0  0  0  0  0  0  0  0  0  0
   -0.0320    4.4470   -1.9940 C   0  0  0  0  0  0  0  0  0  0  0  0
   -1.3730    4.4210   -1.7490 C   0  0  0  0  0  0  0  0  0  0  0  0
   -1.9900    3.2850   -1.2560 C   0  0  0  0  0  0  0  0  0  0  0  0
   -1.3060    2.1320   -0.9900 C   0  0  0  0  0  0  0  0  0  0  0  0
   -1.8350    0.9360   -0.3870 C   0  0  0  0  0  0  0  0  0  0  0  0
   -1.0010    0.0720    0.0980 O   0  0  0  0  0  0  0  0  0  0  0  0
   -3.1960    0.5940   -0.2630 N   0  0  0  0  0  0  0  0  0  0  0  0
   -3.4870   -0.6160    0.5750 C   0  0  0  0  0  0  0  0  0  0  0  0
   -3.6010   -0.2130    2.0400 C   0  0  1  0  0  0  0  0  0  0  0  0
   -3.8860   -1.3820    2.9780 C   0  0  0  0  0  0  0  0  0  0  0  0
   -2.5710   -0.6650    3.0030 C   0  0  0  0  0  0  0  0  0  0  0  0
   -4.3270    1.1130   -0.9410 C   0  0  2  0  0  0  0  0  0  0  0  0
   -5.3450    1.8230   -0.1040 C   0  0  0  0  0  0  0  0  0  0  0  0
   -6.4210    0.7850    0.1360 C   0  0  0  0  0  0  0  0  0  0  0  0
   -6.3220   -0.1870   -1.0290 C   0  0  0  0  0  0  0  0  0  0  0  0
   -5.0990    0.1290   -1.7990 C   0  0  2  0  0  0  0  0  0  0  0  0
   -4.3180   -0.9890   -2.3710 C   0  0  0  0  0  0  0  0  0  0  0  0
   -5.2160   -1.7920   -3.1250 O   0  0  0  0  0  0  0  0  0  0  0  0
    2.3210   -2.6920    1.4330 C   0  0  2  0  0  0  0  0  0  0  0  0
    1.3830   -3.8140    1.1270 C   0  0  0  0  0  0  0  0  0  0  0  0
    0.0710   -3.2710    1.1760 O   0  0  0  0  0  0  0  0  0  0  0  0
    1.9070   -2.0770    2.7600 C   0  0  0  0  0  0  0  0  0  0  0  0
    0.8830   -2.3880    3.3770 O   0  0  0  0  0  0  0  0  0  0  0  0
  1  2  1  0
  2  3  2  0
  2 46  1  0
  3  4  1  0
  3 11  1  0
  4  5  1  0
  5  6  1  0
  5  8  2  0
  6  7  1  0
  8  9  1  0
  8 10  1  0
 10 11  2  0
 11 12  1  0
 12 13  1  6
 12 43  1  0
 13 14  2  0
 13 18  1  0
 14 15  1  0
 15 16  2  0
 16 17  1  0
 17 18  2  0
 18 19  1  0
 19 20  2  0
 19 21  1  0
 21 22  1  0
 22 23  2  0
 22 28  1  0
 23 24  1  0
 23 25  1  0
 25 26  2  0
 26 27  1  0
 27 28  2  0
 28 29  1  0
 29 30  2  0
 29 31  1  0
 31 32  1  0
 36 31  1  1
 33 32  1  6
 33 34  1  0
 33 35  1  0
 34 35  1  0
 36 37  1  0
 36 40  1  0
 37 38  1  0
 38 39  1  0
 39 40  1  0
 40 41  1  1
 41 42  1  0
 43 44  1  6
 43 46  1  0
 44 45  1  0
 46 47  2  0
M  END
