
     RDKit          3D

  6  5  0  0  0  0  0  0  0  0999 V2000
   -2.2900    0.6560   -0.0590 C   0  0  0  0  0  0  0  0  0  0  0  0
   -1.1590   -0.2890   -0.2940 C   0  0  0  0  0  0  0  0  0  0  0  0
    0.1040    0.2680    0.0340 O   0  0  0  0  0  0  0  0  0  0  0  0
    1.2410   -0.4750   -0.1260 C   0  0  0  0  0  0  0  0  0  0  0  0
    2.6050    0.0530    0.2020 C   0  0  0  0  0  0  0  0  0  0  0  0
    1.1190   -1.6510   -0.5690 O   0  0  0  0  0  0  0  0  0  0  0  0
  1  2  1  0
  2  3  1  0
  3  4  1  0
  4  5  1  0
  4  6  2  0
M  END
