
     RDKit          3D

  6  5  0  0  0  0  0  0  0  0999 V2000
   -0.7250    1.2060   -0.1460 C   0  0  0  0  0  0  0  0  0  0  0  0
   -0.0860    0.0610    0.5660 C   0  0  2  0  0  0  0  0  0  0  0  0
    1.3820    0.0050    0.2030 C   0  0  0  0  0  0  0  0  0  0  0  0
    1.9480    1.2180    0.6060 O   0  0  0  0  0  0  0  0  0  0  0  0
   -0.6950   -1.2740    0.2210 C   0  0  0  0  0  0  0  0  0  0  0  0
   -2.0480   -1.3400    0.5370 O   0  0  0  0  0  0  0  0  0  0  0  0
  2  1  1  6
  2  3  1  0
  2  5  1  0
  3  4  1  0
  5  6  1  0
M  END
