
     RDKit          3D

  6  6  0  0  0  0  0  0  0  0999 V2000
    1.9870    0.6170   -0.0120 C   0  0  0  0  0  0  0  0  0  0  0  0
    0.6540    0.8880    0.3390 O   0  0  0  0  0  0  0  0  0  0  0  0
   -0.0970   -0.2290   -0.0000 C   0  0  2  0  0  0  0  0  0  0  0  0
   -1.3220    0.1130   -0.8300 C   0  0  0  0  0  0  0  0  0  0  0  0
   -2.0940    0.2150    0.3190 O   0  0  0  0  0  0  0  0  0  0  0  0
   -1.1660   -0.6320    0.9620 C   0  0  0  0  0  0  0  0  0  0  0  0
  1  2  1  0
  3  2  1  1
  3  4  1  0
  3  6  1  0
  4  5  1  0
  5  6  1  0
M  END
