
     RDKit          3D

  6  5  0  0  0  0  0  0  0  0999 V2000
    0.8370    1.3220   -0.0160 C   0  0  0  0  0  0  0  0  0  0  0  0
    0.2540   -0.0380    0.3140 C   0  0  2  0  0  0  0  0  0  0  0  0
    1.0930   -1.0680   -0.3730 C   0  0  0  0  0  0  0  0  0  0  0  0
   -1.1890   -0.0530   -0.0910 C   0  0  2  0  0  0  0  0  0  0  0  0
   -1.8320    0.9610    0.6380 O   0  0  0  0  0  0  0  0  0  0  0  0
   -1.8300   -1.2400    0.1630 O   0  0  0  0  0  0  0  0  0  0  0  0
  2  1  1  6
  2  3  1  0
  2  4  1  0
  4  5  1  1
  4  6  1  0
M  END
