
     RDKit          3D

  5  4  0  0  0  0  0  0  0  0999 V2000
   -1.1580   -0.5080   -0.0670 C   0  0  0  0  0  0  0  0  0  0  0  0
   -0.3860    0.7180    0.3260 C   0  0  0  0  0  0  0  0  0  0  0  0
    0.9300    0.4610    0.7200 O   0  0  0  0  0  0  0  0  0  0  0  0
    1.8730   -0.1320   -0.0990 C   0  0  0  0  0  0  0  0  0  0  0  0
    1.5060   -0.4510   -1.2620 O   0  0  0  0  0  0  0  0  0  0  0  0
  1  2  1  0
  2  3  1  0
  3  4  1  0
  4  5  2  0
M  END
