
     RDKit          3D

 27 29  0  0  0  0  0  0  0  0999 V2000
   -2.4480   -3.5620    0.5550 C   0  0  0  0  0  0  0  0  0  0  0  0
   -2.2240   -2.1300    0.0630 C   0  0  0  0  0  0  0  0  0  0  0  0
   -3.1310   -1.1820    0.8160 C   0  0  2  0  0  0  0  0  0  0  0  0
   -4.5580   -1.6320    0.5350 C   0  0  0  0  0  0  0  0  0  0  0  0
   -2.9700    0.1930    0.2530 C   0  0  2  0  0  0  0  0  0  0  0  0
   -3.3230    0.1830   -1.1330 N   0  0  0  0  0  0  0  0  0  0  0  0
   -1.6520    0.7920    0.5230 C   0  0  0  0  0  0  0  0  0  0  0  0
   -1.2660    0.8390    1.7200 O   0  0  0  0  0  0  0  0  0  0  0  0
   -0.7870    1.3200   -0.4630 N   0  0  0  0  0  0  0  0  0  0  0  0
    0.5060    1.9040   -0.1560 C   0  0  2  0  0  0  0  0  0  0  0  0
    0.4410    3.3500   -0.6710 C   0  0  2  0  0  0  0  0  0  0  0  0
   -0.3200    3.3120   -1.8500 O   0  0  0  0  0  0  0  0  0  0  0  0
    1.9060    3.5790   -0.9700 C   0  0  1  0  0  0  0  0  0  0  0  0
    2.5690    4.0130    0.3020 C   0  0  0  0  0  0  0  0  0  0  0  0
    3.9260    4.1990    0.1800 O   0  0  0  0  0  0  0  0  0  0  0  0
    2.3650    2.3980   -1.4820 O   0  0  0  0  0  0  0  0  0  0  0  0
    1.6080    1.3530   -1.0310 C   0  0  1  0  0  0  0  0  0  0  0  0
    2.3780    0.3340   -0.3620 N   0  0  0  0  0  0  0  0  0  0  0  0
    3.4260    0.5370    0.4480 C   0  0  0  0  0  0  0  0  0  0  0  0
    3.8940   -0.6490    0.8900 N   0  0  0  0  0  0  0  0  0  0  0  0
    3.1490   -1.6280    0.3670 C   0  0  0  0  0  0  0  0  0  0  0  0
    3.1780   -3.0010    0.4760 C   0  0  0  0  0  0  0  0  0  0  0  0
    4.1420   -3.6800    1.2750 N   0  0  0  0  0  0  0  0  0  0  0  0
    2.2460   -3.7130   -0.2110 N   0  0  0  0  0  0  0  0  0  0  0  0
    1.3150   -3.1220   -0.9790 C   0  0  0  0  0  0  0  0  0  0  0  0
    1.3060   -1.7810   -1.0710 N   0  0  0  0  0  0  0  0  0  0  0  0
    2.1970   -0.9940   -0.4200 C   0  0  0  0  0  0  0  0  0  0  0  0
  1  2  1  0
  2  3  1  0
  3  4  1  6
  3  5  1  0
  5  6  1  6
  5  7  1  0
  7  8  2  0
  7  9  1  0
 10  9  1  6
 10 11  1  0
 10 17  1  0
 11 12  1  6
 11 13  1  0
 13 14  1  1
 13 16  1  0
 14 15  1  0
 16 17  1  0
 17 18  1  1
 18 19  1  0
 18 27  1  0
 19 20  2  0
 20 21  1  0
 21 22  2  0
 21 27  1  0
 22 23  1  0
 22 24  1  0
 24 25  2  0
 25 26  1  0
 26 27  2  0
M  CHG  1   6   1
M  END
