
     RDKit          3D

  6  6  0  0  0  0  0  0  0  0999 V2000
    1.8780   -0.4970    0.9290 O   0  0  0  0  0  0  0  0  0  0  0  0
    1.1180   -0.4600   -0.2530 C   0  0  2  0  0  0  0  0  0  0  0  0
    0.4520    0.8810   -0.3650 C   0  0  0  0  0  0  0  0  0  0  0  0
   -0.9970    0.5950   -0.0890 C   0  0  0  0  0  0  0  0  0  0  0  0
   -1.0510   -0.8830    0.0860 C   0  0  0  0  0  0  0  0  0  0  0  0
    0.1460   -1.4280   -0.2920 O   0  0  0  0  0  0  0  0  0  0  0  0
  2  1  1  1
  2  3  1  0
  2  6  1  0
  3  4  1  0
  4  5  1  0
  5  6  1  0
M  END
