
     RDKit          3D

 17 17  0  0  0  0  0  0  0  0999 V2000
    4.1550    1.8130    0.4240 O   0  0  0  0  0  0  0  0  0  0  0  0
    3.5890    0.7570   -0.2810 C   0  0  0  0  0  0  0  0  0  0  0  0
    2.2440    0.3500    0.3190 C   0  0  1  0  0  0  0  0  0  0  0  0
    1.3800    1.4090    0.2790 O   0  0  0  0  0  0  0  0  0  0  0  0
    0.4970    1.2880   -0.7960 C   0  0  0  0  0  0  0  0  0  0  0  0
   -0.3770    0.0570   -0.6970 C   0  0  2  0  0  0  0  0  0  0  0  0
   -0.6340   -0.3120   -2.0420 O   0  0  0  0  0  0  0  0  0  0  0  0
   -1.6670    0.3110   -0.0110 C   0  0  1  0  0  0  0  0  0  0  0  0
   -2.5510   -0.8940    0.1000 C   0  0  0  0  0  0  0  0  0  0  0  0
   -3.7370   -0.5190    0.7650 O   0  0  0  0  0  0  0  0  0  0  0  0
   -1.5270    1.0200    1.3120 C   0  0  1  0  0  0  0  0  0  0  0  0
   -0.9240    2.2700    1.1860 O   0  0  0  0  0  0  0  0  0  0  0  0
   -2.7560    1.2380    1.9270 O   0  0  0  0  0  0  0  0  0  0  0  0
    0.4520   -1.0530   -0.1250 C   0  0  1  0  0  0  0  0  0  0  0  0
    0.2810   -2.3490   -0.9330 C   0  0  0  0  0  0  0  0  0  0  0  0
    1.1590   -3.2920   -0.4520 O   0  0  0  0  0  0  0  0  0  0  0  0
    1.8010   -0.7350   -0.3690 O   0  0  0  0  0  0  0  0  0  0  0  0
  1  2  1  0
  3  2  1  6
  3  4  1  0
  3 17  1  0
  4  5  1  0
  5  6  1  0
  6  7  1  6
  6  8  1  0
  6 14  1  0
  8  9  1  1
  8 11  1  0
  9 10  1  0
 11 12  1  6
 11 13  1  0
 14 15  1  6
 14 17  1  0
 15 16  1  0
M  END
