
     RDKit          3D

 19 21  0  0  0  0  0  0  0  0999 V2000
    3.3100    2.5010    0.1400 N   0  0  0  0  0  0  0  0  0  0  0  0
    3.2400    1.0900   -0.0320 C   0  0  0  0  0  0  0  0  0  0  0  0
    4.3620    0.3220   -0.2170 C   0  0  0  0  0  0  0  0  0  0  0  0
    4.3080   -1.0450   -0.3850 C   0  0  0  0  0  0  0  0  0  0  0  0
    3.0690   -1.6450   -0.3630 C   0  0  0  0  0  0  0  0  0  0  0  0
    1.8850   -0.9250   -0.1780 C   0  0  0  0  0  0  0  0  0  0  0  0
    1.9990    0.4290   -0.0170 C   0  0  0  0  0  0  0  0  0  0  0  0
    0.6430    0.9770    0.1590 C   0  0  0  0  0  0  0  0  0  0  0  0
   -0.2550   -0.1320    0.0910 N   0  0  0  0  0  0  0  0  0  0  0  0
   -1.6920    0.0120    0.2230 C   0  0  1  0  0  0  0  0  0  0  0  0
   -2.4340   -0.4640   -1.0050 C   0  0  0  0  0  0  0  0  0  0  0  0
   -3.8310    0.1210   -0.9340 C   0  0  0  0  0  0  0  0  0  0  0  0
   -4.3700   -0.0330    0.4410 C   0  0  0  0  0  0  0  0  0  0  0  0
   -5.5210    0.4850    0.6420 O   0  0  0  0  0  0  0  0  0  0  0  0
   -3.6730   -0.7060    1.4820 N   0  0  0  0  0  0  0  0  0  0  0  0
   -2.2360   -0.7330    1.3800 C   0  0  0  0  0  0  0  0  0  0  0  0
   -1.5660   -1.3460    2.2200 O   0  0  0  0  0  0  0  0  0  0  0  0
    0.4870   -1.3140   -0.1170 C   0  0  0  0  0  0  0  0  0  0  0  0
    0.0180   -2.4570   -0.2240 O   0  0  0  0  0  0  0  0  0  0  0  0
  1  2  1  0
  2  3  2  0
  2  7  1  0
  3  4  1  0
  4  5  2  0
  5  6  1  0
  6  7  2  0
  6 18  1  0
  7  8  1  0
  8  9  1  0
 10  9  1  6
  9 18  1  0
 10 11  1  0
 10 16  1  0
 11 12  1  0
 12 13  1  0
 13 14  2  0
 13 15  1  0
 15 16  1  0
 16 17  2  0
 18 19  2  0
M  END
