
     RDKit          3D

 10 10  0  0  0  0  0  0  0  0999 V2000
   -0.1240   -1.6410    1.2790 O   0  0  0  0  0  0  0  0  0  0  0  0
   -0.9340   -0.8330    0.7720 C   0  0  0  0  0  0  0  0  0  0  0  0
   -2.2760   -0.6930    1.0840 O   0  0  0  0  0  0  0  0  0  0  0  0
   -2.8290    0.3110    0.2830 C   0  0  0  0  0  0  0  0  0  0  0  0
   -1.7910    0.8110   -0.5250 O   0  0  0  0  0  0  0  0  0  0  0  0
   -0.6140    0.1440   -0.2750 C   0  0  0  0  0  0  0  0  0  0  0  0
    0.5380    0.3370   -0.8460 C   0  0  0  0  0  0  0  0  0  0  0  0
    1.7000   -0.3970   -0.5260 N   0  0  0  0  0  0  0  0  0  0  0  0
    3.2650    0.3740   -0.6070 S   0  0  0  0  0  0  0  0  0  0  0  0
    3.6790    0.8460    1.0130 O   0  0  0  0  0  0  0  0  0  0  0  0
  1  2  2  0
  2  3  1  0
  2  6  1  0
  3  4  1  0
  4  5  1  0
  5  6  1  0
  6  7  2  3
  7  8  1  0
  8  9  1  0
  9 10  1  0
M  END
