
     RDKit          3D

 18 20  0  0  0  0  0  0  0  0999 V2000
    4.4410   -1.3320    0.7240 C   0  0  0  0  0  0  0  0  0  0  0  0
    3.1630   -1.0340    0.5280 C   0  0  0  0  0  0  0  0  0  0  0  0
    2.1760   -1.9840    0.5310 C   0  0  0  0  0  0  0  0  0  0  0  0
    0.8240   -1.6620    0.3220 C   0  0  0  0  0  0  0  0  0  0  0  0
    0.4240   -0.3710    0.1040 C   0  0  0  0  0  0  0  0  0  0  0  0
   -0.9070    0.0250   -0.1120 N   0  0  0  0  0  0  0  0  0  0  0  0
   -2.0570   -0.7660   -0.1500 C   0  0  0  0  0  0  0  0  0  0  0  0
   -1.9780   -1.9950    0.0210 O   0  0  0  0  0  0  0  0  0  0  0  0
   -3.3900   -0.1920   -0.3890 C   0  0  0  0  0  0  0  0  0  0  0  0
   -3.7020    1.1430   -0.6020 C   0  0  0  0  0  0  0  0  0  0  0  0
   -5.0560    1.2350   -0.7810 C   0  0  0  0  0  0  0  0  0  0  0  0
   -5.5510   -0.0130   -0.6790 N   0  0  0  0  0  0  0  0  0  0  0  0
   -4.5510   -0.8480   -0.4460 N   0  0  0  0  0  0  0  0  0  0  0  0
    1.4430    0.5980    0.1020 C   0  0  0  0  0  0  0  0  0  0  0  0
    2.7530    0.2640    0.3070 C   0  0  0  0  0  0  0  0  0  0  0  0
    3.4910    1.3750    0.2530 C   0  0  0  0  0  0  0  0  0  0  0  0
    2.6910    2.4800    0.0100 O   0  0  0  0  0  0  0  0  0  0  0  0
    1.3600    2.0660   -0.1000 C   0  0  0  0  0  0  0  0  0  0  0  0
  1  2  2  0
  2  3  1  0
  2 15  1  0
  3  4  2  0
  4  5  1  0
  5  6  1  0
  5 14  2  0
  6  7  1  0
  7  8  2  0
  7  9  1  0
  9 10  2  0
  9 13  1  0
 10 11  1  0
 11 12  2  0
 12 13  1  0
 14 15  1  0
 14 18  1  0
 15 16  2  0
 16 17  1  0
 17 18  1  0
M  END
