
     RDKit          3D

 10 10  0  0  0  0  0  0  0  0999 V2000
   -3.1650   -1.5140   -1.3690 O   0  0  0  0  0  0  0  0  0  0  0  0
   -2.3400   -0.7700   -0.7790 C   0  0  0  0  0  0  0  0  0  0  0  0
   -2.5060    0.3340   -0.0210 O   0  0  0  0  0  0  0  0  0  0  0  0
   -1.4370    0.9530    0.5030 C   0  0  0  0  0  0  0  0  0  0  0  0
   -1.5180    2.0020    1.2300 O   0  0  0  0  0  0  0  0  0  0  0  0
   -0.1640    0.3520    0.1900 C   0  0  0  0  0  0  0  0  0  0  0  0
    1.0330    0.7230    0.5530 C   0  0  0  0  0  0  0  0  0  0  0  0
    2.1650   -0.0250    0.1250 N   0  0  0  0  0  0  0  0  0  0  0  0
    2.2520   -1.3500    0.1810 O   0  0  0  0  0  0  0  0  0  0  0  0
   -0.5710   -1.0550   -0.8310 S   0  0  0  0  0  0  0  0  0  0  0  0
  1  2  2  0
  2  3  1  0
  2 10  1  0
  3  4  1  0
  4  5  2  0
  4  6  1  0
  6  7  2  3
  6 10  1  0
  7  8  1  0
  8  9  1  0
M  END
