
     RDKit          3D

 10 10  0  0  0  0  0  0  0  0999 V2000
    4.1560    0.0320   -0.7570 O   0  0  0  0  0  0  0  0  0  0  0  0
    2.8970   -0.1760   -0.0010 S   0  0  2  0  0  0  0  0  0  0  0  0
    2.9730   -1.4260    0.8580 O   0  0  0  0  0  0  0  0  0  0  0  0
    1.5390   -0.3180   -1.0540 N   0  0  0  0  0  0  0  0  0  0  0  0
    0.3300   -0.1460   -0.6300 C   0  0  0  0  0  0  0  0  0  0  0  0
    0.1250    0.1770    0.7810 C   0  0  0  0  0  0  0  0  0  0  0  0
   -1.1620    0.4050    1.1530 O   0  0  0  0  0  0  0  0  0  0  0  0
   -2.1320   -0.1940    0.4070 C   0  0  0  0  0  0  0  0  0  0  0  0
   -1.9780    0.2690   -1.0310 C   0  0  0  0  0  0  0  0  0  0  0  0
   -0.7550   -0.2620   -1.4860 O   0  0  0  0  0  0  0  0  0  0  0  0
  1  2  2  0
  2  3  2  0
  2  4  1  6
  4  5  2  3
  5  6  1  0
  5 10  1  0
  6  7  1  0
  7  8  1  0
  8  9  1  0
  9 10  1  0
M  END
