
     RDKit          3D

 18 20  0  0  0  0  0  0  0  0999 V2000
   -0.8230   -2.2810   -0.7870 C   0  0  0  0  0  0  0  0  0  0  0  0
   -0.6700   -1.5520    0.4590 O   0  0  0  0  0  0  0  0  0  0  0  0
   -1.3500   -0.3250    0.4620 C   0  0  0  0  0  0  0  0  0  0  0  0
   -0.8270    0.9110    0.2140 C   0  0  0  0  0  0  0  0  0  0  0  0
    0.4520    1.3450   -0.0920 C   0  0  0  0  0  0  0  0  0  0  0  0
    1.6050    0.4600   -0.1470 C   0  0  0  0  0  0  0  0  0  0  0  0
    2.8840    0.8640   -0.5490 C   0  0  0  0  0  0  0  0  0  0  0  0
    3.7420   -0.2240   -0.4840 C   0  0  0  0  0  0  0  0  0  0  0  0
    2.9170   -1.2630   -0.0340 C   0  0  0  0  0  0  0  0  0  0  0  0
    3.2630   -2.6050    0.2150 N   0  0  0  0  0  0  0  0  0  0  0  0
    1.7070   -0.7880    0.1360 O   0  0  0  0  0  0  0  0  0  0  0  0
    0.6310    2.7140   -0.2940 C   0  0  0  0  0  0  0  0  0  0  0  0
   -0.4150    3.5810   -0.1900 C   0  0  0  0  0  0  0  0  0  0  0  0
   -1.6800    3.1310    0.1190 C   0  0  0  0  0  0  0  0  0  0  0  0
   -1.9080    1.7970    0.3260 C   0  0  0  0  0  0  0  0  0  0  0  0
   -2.9980    1.0780    0.6290 N   0  0  0  0  0  0  0  0  0  0  0  0
   -2.6830   -0.1920    0.7150 N   0  0  0  0  0  0  0  0  0  0  0  0
   -3.5340   -1.3200    1.0190 C   0  0  0  0  0  0  0  0  0  0  0  0
  1  2  1  0
  2  3  1  0
  3  4  2  0
  3 17  1  0
  4  5  1  0
  4 15  1  0
  5  6  1  0
  5 12  2  0
  6  7  2  0
  6 11  1  0
  7  8  1  0
  8  9  2  0
  9 10  1  0
  9 11  1  0
 12 13  1  0
 13 14  2  0
 14 15  1  0
 15 16  2  0
 16 17  1  0
 17 18  1  0
M  END
