
     RDKit          3D

 33 36  0  0  0  0  0  0  0  0999 V2000
    8.4020   -2.5010   -1.1580 C   0  0  0  0  0  0  0  0  0  0  0  0
    8.2250   -2.6420    0.3350 C   0  0  0  0  0  0  0  0  0  0  0  0
    7.1370   -1.9520    0.8210 O   0  0  0  0  0  0  0  0  0  0  0  0
    7.2350   -0.5910    0.5680 C   0  0  0  0  0  0  0  0  0  0  0  0
    6.0280    0.1600    1.1110 C   0  0  0  0  0  0  0  0  0  0  0  0
    4.8670   -0.3470    0.4800 O   0  0  0  0  0  0  0  0  0  0  0  0
    3.6150    0.1750    0.8010 C   0  0  0  0  0  0  0  0  0  0  0  0
    3.5210    1.1820    1.7310 C   0  0  0  0  0  0  0  0  0  0  0  0
    2.2960    1.7150    2.0660 C   0  0  0  0  0  0  0  0  0  0  0  0
    2.2130    2.7610    3.0340 N   0  0  0  0  0  0  0  0  0  0  0  0
    1.1280    1.2350    1.4610 C   0  0  0  0  0  0  0  0  0  0  0  0
    1.1990    0.2340    0.5320 C   0  0  0  0  0  0  0  0  0  0  0  0
    0.0560   -0.2580   -0.1200 N   0  0  0  0  0  0  0  0  0  0  0  0
   -1.1080    0.5400   -0.3330 C   0  0  0  0  0  0  0  0  0  0  0  0
   -1.0550    1.9130   -0.4200 C   0  0  0  0  0  0  0  0  0  0  0  0
   -2.2050    2.6490   -0.6000 C   0  0  0  0  0  0  0  0  0  0  0  0
   -3.4290    2.0160   -0.6970 C   0  0  0  0  0  0  0  0  0  0  0  0
   -4.7050    2.4840   -0.8740 C   0  0  0  0  0  0  0  0  0  0  0  0
   -5.0760    3.9290   -1.0130 C   0  0  0  0  0  0  0  0  0  0  0  0
   -5.0340    4.6040    0.3070 C   0  0  0  0  0  0  0  0  0  0  0  0
   -4.7290    3.9790    1.2930 O   0  0  0  0  0  0  0  0  0  0  0  0
   -5.4970    1.4120   -0.8920 N   0  0  0  0  0  0  0  0  0  0  0  0
   -4.8160    0.2900   -0.7390 N   0  0  0  0  0  0  0  0  0  0  0  0
   -5.3120   -1.0480   -0.7070 C   0  0  0  0  0  0  0  0  0  0  0  0
   -5.7930   -1.6480    0.4380 C   0  0  0  0  0  0  0  0  0  0  0  0
   -6.2700   -2.9220    0.4860 C   0  0  0  0  0  0  0  0  0  0  0  0
   -6.2750   -3.6600   -0.6750 C   0  0  0  0  0  0  0  0  0  0  0  0
   -5.8100   -3.1280   -1.8570 C   0  0  0  0  0  0  0  0  0  0  0  0
   -5.7980   -3.8530   -3.0730 N   0  0  0  0  0  0  0  0  0  0  0  0
   -5.3310   -1.8140   -1.8510 C   0  0  0  0  0  0  0  0  0  0  0  0
   -3.5020    0.6340   -0.6120 C   0  0  0  0  0  0  0  0  0  0  0  0
   -2.3550   -0.0960   -0.4330 C   0  0  0  0  0  0  0  0  0  0  0  0
    2.4660   -0.2830    0.2190 C   0  0  0  0  0  0  0  0  0  0  0  0
  1  2  1  0
  2  3  1  0
  3  4  1  0
  4  5  1  0
  5  6  1  0
  6  7  1  0
  7  8  2  0
  7 33  1  0
  8  9  1  0
  9 10  1  0
  9 11  2  0
 11 12  1  0
 12 13  1  0
 12 33  2  0
 13 14  1  0
 14 15  2  0
 14 32  1  0
 15 16  1  0
 16 17  2  0
 17 18  1  0
 17 31  1  0
 18 19  1  0
 18 22  2  0
 19 20  1  0
 20 21  2  0
 22 23  1  0
 23 24  1  0
 23 31  1  0
 24 25  2  0
 24 30  1  0
 25 26  1  0
 26 27  2  0
 27 28  1  0
 28 29  1  0
 28 30  2  0
 31 32  2  0
M  END
