
     RDKit          3D

 33 36  0  0  0  0  0  0  0  0999 V2000
   -6.0080    3.6650    0.2810 C   0  0  0  0  0  0  0  0  0  0  0  0
   -4.5410    3.3250    0.3730 C   0  0  0  0  0  0  0  0  0  0  0  0
   -4.2850    1.8500    0.3970 C   0  0  2  0  0  0  0  0  0  0  0  0
   -2.8420    1.5680    0.4940 N   0  0  0  0  0  0  0  0  0  0  0  0
   -2.7690    0.1720    0.8780 C   0  0  2  0  0  0  0  0  0  0  0  0
   -1.3960   -0.2450    1.3400 C   0  0  0  0  0  0  0  0  0  0  0  0
   -0.3680   -0.0560    0.2920 C   0  0  0  0  0  0  0  0  0  0  0  0
   -0.7700    0.4170   -0.8100 O   0  0  0  0  0  0  0  0  0  0  0  0
    1.0230   -0.3890    0.5000 C   0  0  0  0  0  0  0  0  0  0  0  0
    1.4870   -0.8800    1.6200 C   0  0  0  0  0  0  0  0  0  0  0  0
    0.5810   -1.0820    2.6400 O   0  0  0  0  0  0  0  0  0  0  0  0
    0.9170   -1.5550    3.9200 C   0  0  0  0  0  0  0  0  0  0  0  0
    2.8730   -1.2160    1.8400 C   0  0  0  0  0  0  0  0  0  0  0  0
    3.2360   -1.6870    2.9550 O   0  0  0  0  0  0  0  0  0  0  0  0
    3.9040   -1.0590    0.8780 N   0  0  0  0  0  0  0  0  0  0  0  0
    5.2730   -1.3850    1.0750 C   0  0  0  0  0  0  0  0  0  0  0  0
    5.8490   -1.9670    2.2000 C   0  0  0  0  0  0  0  0  0  0  0  0
    7.1730   -2.0980    1.8950 N   0  0  0  0  0  0  0  0  0  0  0  0
    7.3980   -1.6360    0.6820 N   0  0  0  0  0  0  0  0  0  0  0  0
    6.2490   -1.1860    0.1430 C   0  0  0  0  0  0  0  0  0  0  0  0
    6.0850   -0.6110   -1.1780 C   0  0  0  0  0  0  0  0  0  0  0  0
    6.6360   -1.2780   -2.2810 C   0  0  0  0  0  0  0  0  0  0  0  0
    6.5380   -0.7940   -3.5660 C   0  0  0  0  0  0  0  0  0  0  0  0
    5.8830    0.3830   -3.8150 C   0  0  0  0  0  0  0  0  0  0  0  0
    5.3310    1.0610   -2.7510 C   0  0  0  0  0  0  0  0  0  0  0  0
    5.4340    0.5640   -1.4450 C   0  0  0  0  0  0  0  0  0  0  0  0
   -3.3000   -0.6300   -0.1820 N   0  0  0  0  0  0  0  0  0  0  0  0
   -4.3180   -0.0900   -1.0090 C   0  0  0  0  0  0  0  0  0  0  0  0
   -4.8480    1.1260   -0.7800 C   0  0  0  0  0  0  0  0  0  0  0  0
   -5.8770    1.4110   -1.8020 C   0  0  0  0  0  0  0  0  0  0  0  0
   -5.8780    0.2060   -2.6530 C   0  0  0  0  0  0  0  0  0  0  0  0
   -4.9860   -0.6250   -2.1790 C   0  0  0  0  0  0  0  0  0  0  0  0
   -4.6830   -1.9750   -2.7720 C   0  0  0  0  0  0  0  0  0  0  0  0
  1  2  1  0
  3  2  1  6
  3  4  1  0
  3 29  1  0
  4  5  1  0
  5  6  1  6
  5 27  1  0
  6  7  1  0
  7  8  2  0
  7  9  1  0
  9 10  2  3
 10 11  1  0
 10 13  1  0
 11 12  1  0
 13 14  2  0
 13 15  1  0
 15 16  1  0
 16 17  2  0
 16 20  1  0
 17 18  1  0
 18 19  1  0
 19 20  2  0
 20 21  1  0
 21 22  2  0
 21 26  1  0
 22 23  1  0
 23 24  2  0
 24 25  1  0
 25 26  2  0
 27 28  1  0
 28 29  2  0
 28 32  1  0
 29 30  1  0
 30 31  1  0
 31 32  2  0
 32 33  1  0
M  END
