
     RDKit          3D

 33 35  0  0  0  0  0  0  0  0999 V2000
   -8.0560   -2.2330    1.8950 C   0  0  0  0  0  0  0  0  0  0  0  0
   -7.8060   -1.2430    1.0300 C   0  0  0  0  0  0  0  0  0  0  0  0
   -8.4410    0.0560    1.1400 C   0  0  0  0  0  0  0  0  0  0  0  0
   -7.5700    1.2080    1.4720 C   0  0  0  0  0  0  0  0  0  0  0  0
   -6.4380    1.5250    0.5860 C   0  0  0  0  0  0  0  0  0  0  0  0
   -5.4350    0.5110    0.5650 N   0  0  0  0  0  0  0  0  0  0  0  0
   -4.2800    0.6500   -0.2900 C   0  0  0  0  0  0  0  0  0  0  0  0
   -4.1680    1.6660   -1.0100 O   0  0  0  0  0  0  0  0  0  0  0  0
   -3.2640   -0.3410   -0.3340 N   0  0  0  0  0  0  0  0  0  0  0  0
   -2.1070   -0.2650   -1.1510 C   0  0  0  0  0  0  0  0  0  0  0  0
   -2.1180   -0.7770   -2.4100 C   0  0  0  0  0  0  0  0  0  0  0  0
   -3.3490   -1.4230   -2.9440 C   0  0  0  0  0  0  0  0  0  0  0  0
   -1.0340   -0.7120   -3.1860 N   0  0  0  0  0  0  0  0  0  0  0  0
    0.0740   -0.1200   -2.6740 C   0  0  0  0  0  0  0  0  0  0  0  0
    1.0470   -0.1080   -3.4670 O   0  0  0  0  0  0  0  0  0  0  0  0
    0.1670    0.4150   -1.4270 C   0  0  0  0  0  0  0  0  0  0  0  0
   -0.9600    0.3450   -0.6330 C   0  0  0  0  0  0  0  0  0  0  0  0
   -1.0000    0.8710    0.5700 C   0  0  0  0  0  0  0  0  0  0  0  0
    0.1470    1.5220    1.1620 C   0  0  0  0  0  0  0  0  0  0  0  0
    1.3920    1.5870    0.3770 C   0  0  0  0  0  0  0  0  0  0  0  0
    1.2980    1.0190   -1.0160 C   0  0  0  0  0  0  0  0  0  0  0  0
    2.4050    1.1560   -1.9580 C   0  0  0  0  0  0  0  0  0  0  0  0
    3.6520    0.3960   -1.7260 C   0  0  0  0  0  0  0  0  0  0  0  0
    4.4380    0.7170   -0.5800 N   0  0  0  0  0  0  0  0  0  0  0  0
    5.6480   -0.0320   -0.2720 C   0  0  0  0  0  0  0  0  0  0  0  0
    5.9040   -0.9410   -1.0860 O   0  0  0  0  0  0  0  0  0  0  0  0
    6.4250    0.2640    0.8360 N   0  0  0  0  0  0  0  0  0  0  0  0
    7.6040   -0.4520    1.1730 C   0  0  0  0  0  0  0  0  0  0  0  0
    8.4360    0.0810    2.1630 C   0  0  0  0  0  0  0  0  0  0  0  0
    9.5790   -0.5620    2.5460 C   0  0  0  0  0  0  0  0  0  0  0  0
    9.9810   -1.7590    1.9920 C   0  0  0  0  0  0  0  0  0  0  0  0
    9.1740   -2.2960    1.0180 C   0  0  0  0  0  0  0  0  0  0  0  0
    8.0020   -1.6390    0.6230 C   0  0  0  0  0  0  0  0  0  0  0  0
  1  2  2  0
  2  3  1  0
  3  4  1  0
  4  5  1  0
  5  6  1  0
  6  7  1  0
  7  8  2  0
  7  9  1  0
  9 10  1  0
 10 11  2  0
 10 17  1  0
 11 12  1  0
 11 13  1  0
 13 14  1  0
 14 15  2  0
 14 16  1  0
 16 17  1  0
 16 21  2  0
 17 18  2  0
 18 19  1  0
 19 20  1  0
 20 21  1  0
 21 22  1  0
 22 23  1  0
 23 24  1  0
 24 25  1  0
 25 26  2  0
 25 27  1  0
 27 28  1  0
 28 29  2  0
 28 33  1  0
 29 30  1  0
 30 31  2  0
 31 32  1  0
 32 33  2  0
M  END
