
     RDKit          3D

 32 35  0  0  0  0  0  0  0  0999 V2000
    1.8500    0.9810    0.9710 C   0  0  0  0  0  0  0  0  0  0  0  0
    2.7150    0.1420    0.1260 C   0  0  1  0  0  0  0  0  0  0  0  0
    3.9300   -0.1800    0.9530 C   0  0  2  0  0  0  0  0  0  0  0  0
    3.5690   -0.8710    2.1340 O   0  0  0  0  0  0  0  0  0  0  0  0
    4.6070    1.0280    1.5040 C   0  0  0  0  0  0  0  0  0  0  0  0
    5.6950    1.5130    0.8800 C   0  0  0  0  0  0  0  0  0  0  0  0
    6.4520    2.6710    1.2960 C   0  0  0  0  0  0  0  0  0  0  0  0
    5.9030    3.3190    2.3960 O   0  0  0  0  0  0  0  0  0  0  0  0
    4.8030    2.8550    3.0610 C   0  0  0  0  0  0  0  0  0  0  0  0
    4.1790    1.7790    2.6570 C   0  0  0  0  0  0  0  0  0  0  0  0
    2.2310   -0.8330   -0.8130 C   0  0  1  0  0  0  0  0  0  0  0  0
    3.3970   -1.4820   -1.5510 C   0  0  0  0  0  0  0  0  0  0  0  0
    3.8350   -2.8000   -1.0370 C   0  0  0  0  0  0  0  0  0  0  0  0
    3.1080   -3.4430    0.0640 C   0  0  0  0  0  0  0  0  0  0  0  0
    1.7360   -2.9290    0.4180 C   0  0  0  0  0  0  0  0  0  0  0  0
    1.3410   -2.0090   -0.6870 C   0  0  2  0  0  0  0  0  0  0  0  0
    1.1550   -2.8660   -1.9120 C   0  0  0  0  0  0  0  0  0  0  0  0
    0.2230   -1.0740   -0.5470 C   0  0  2  0  0  0  0  0  0  0  0  0
   -1.1590   -1.4020   -0.9890 C   0  0  0  0  0  0  0  0  0  0  0  0
   -2.0710   -0.2570   -0.7010 C   0  0  0  0  0  0  0  0  0  0  0  0
   -1.6720    0.8050   -0.1600 O   0  0  0  0  0  0  0  0  0  0  0  0
   -3.4620   -0.3000   -1.0270 N   0  0  0  0  0  0  0  0  0  0  0  0
   -4.3560    0.8040   -0.7520 C   0  0  1  0  0  0  0  0  0  0  0  0
   -5.0380    1.3210   -1.9920 C   0  0  0  0  0  0  0  0  0  0  0  0
   -5.1390    2.6910   -1.9770 O   0  0  0  0  0  0  0  0  0  0  0  0
   -6.1480    3.1890   -1.1940 C   0  0  0  0  0  0  0  0  0  0  0  0
   -6.1460    2.6760    0.2170 C   0  0  0  0  0  0  0  0  0  0  0  0
   -6.6010    1.2410    0.2870 C   0  0  0  0  0  0  0  0  0  0  0  0
   -5.4070    0.3200    0.2370 C   0  0  2  0  0  0  0  0  0  0  0  0
   -4.7410    0.1660    1.5760 C   0  0  0  0  0  0  0  0  0  0  0  0
   -5.8840   -0.9200   -0.2410 O   0  0  0  0  0  0  0  0  0  0  0  0
    1.0640   -0.2790   -1.5480 C   0  0  0  0  0  0  0  0  0  0  0  0
  2  1  1  1
  2  3  1  0
  2 11  1  0
  3  4  1  1
  3  5  1  0
  5  6  2  0
  5 10  1  0
  6  7  1  0
  7  8  1  0
  8  9  1  0
  9 10  2  0
 11 12  1  6
 11 16  1  0
 11 32  1  0
 12 13  1  0
 13 14  1  0
 14 15  1  0
 15 16  1  0
 16 17  1  6
 16 18  1  0
 18 19  1  6
 18 32  1  0
 19 20  1  0
 20 21  2  0
 20 22  1  0
 23 22  1  6
 23 24  1  0
 23 29  1  0
 24 25  1  0
 25 26  1  0
 26 27  1  0
 27 28  1  0
 28 29  1  0
 29 30  1  1
 29 31  1  0
M  END
