
     RDKit          3D

 33 36  0  0  0  0  0  0  0  0999 V2000
   -0.3800    2.7760   -1.9820 C   0  0  0  0  0  0  0  0  0  0  0  0
   -0.4610    3.7830   -1.0880 C   0  0  0  0  0  0  0  0  0  0  0  0
    0.1580    5.0540   -1.5150 C   0  0  0  0  0  0  0  0  0  0  0  0
   -1.0940    3.5770    0.1810 C   0  0  0  0  0  0  0  0  0  0  0  0
   -1.2530    4.4580    1.1170 C   0  0  0  0  0  0  0  0  0  0  0  0
   -0.8500    5.8670    1.1540 C   0  0  0  0  0  0  0  0  0  0  0  0
   -1.6380    2.1720    0.4620 C   0  0  0  0  0  0  0  0  0  0  0  0
   -0.5370    1.2010    0.4610 N   0  0  0  0  0  0  0  0  0  0  0  0
   -0.7620   -0.1610    0.6600 C   0  0  0  0  0  0  0  0  0  0  0  0
   -2.0670   -0.5180    0.8560 N   0  0  0  0  0  0  0  0  0  0  0  0
   -2.3940   -1.7940    1.0570 C   0  0  0  0  0  0  0  0  0  0  0  0
   -3.7180   -2.1450    1.2550 O   0  0  0  0  0  0  0  0  0  0  0  0
   -4.4680   -2.5770    0.1710 C   0  0  0  0  0  0  0  0  0  0  0  0
   -3.9630   -2.6770   -1.1080 C   0  0  0  0  0  0  0  0  0  0  0  0
   -4.7850   -3.1210   -2.1440 C   0  0  0  0  0  0  0  0  0  0  0  0
   -6.1010   -3.4660   -1.9210 C   0  0  0  0  0  0  0  0  0  0  0  0
   -6.5870   -3.3600   -0.6390 C   0  0  0  0  0  0  0  0  0  0  0  0
   -5.7820   -2.9200    0.4000 C   0  0  0  0  0  0  0  0  0  0  0  0
   -6.3040   -2.8180    1.7180 N   0  0  0  0  0  0  0  0  0  0  0  0
   -1.4650   -2.7600    1.0730 N   0  0  0  0  0  0  0  0  0  0  0  0
   -0.1690   -2.4700    0.8860 C   0  0  0  0  0  0  0  0  0  0  0  0
    0.9440   -3.2260    0.8540 N   0  0  0  0  0  0  0  0  0  0  0  0
    1.9960   -2.4240    0.6290 C   0  0  0  0  0  0  0  0  0  0  0  0
    3.3400   -2.7110    0.5100 C   0  0  0  0  0  0  0  0  0  0  0  0
    4.2730   -1.7190    0.2750 C   0  0  0  0  0  0  0  0  0  0  0  0
    5.6320   -2.0100    0.1540 O   0  0  0  0  0  0  0  0  0  0  0  0
    6.5270   -0.9440   -0.0860 C   0  0  0  0  0  0  0  0  0  0  0  0
    7.9500   -1.3970   -0.1930 C   0  0  0  0  0  0  0  0  0  0  0  0
    8.7240   -0.2380   -0.4310 O   0  0  0  0  0  0  0  0  0  0  0  0
    3.8050   -0.4360    0.1650 C   0  0  0  0  0  0  0  0  0  0  0  0
    2.4430   -0.1060    0.2810 C   0  0  0  0  0  0  0  0  0  0  0  0
    1.5500   -1.1100    0.5130 C   0  0  0  0  0  0  0  0  0  0  0  0
    0.1930   -1.1400    0.6740 C   0  0  0  0  0  0  0  0  0  0  0  0
  1  2  2  0
  2  3  1  0
  2  4  1  0
  4  5  2  3
  4  7  1  0
  5  6  1  0
  7  8  1  0
  8  9  1  0
  9 10  2  0
  9 33  1  0
 10 11  1  0
 11 12  1  0
 11 20  2  0
 12 13  1  0
 13 14  2  0
 13 18  1  0
 14 15  1  0
 15 16  2  0
 16 17  1  0
 17 18  2  0
 18 19  1  0
 20 21  1  0
 21 22  1  0
 21 33  2  0
 22 23  1  0
 23 24  2  0
 23 32  1  0
 24 25  1  0
 25 26  1  0
 25 30  2  0
 26 27  1  0
 27 28  1  0
 28 29  1  0
 30 31  1  0
 31 32  2  0
 32 33  1  0
M  END
