
     RDKit          3D

 32 33  0  0  0  0  0  0  0  0999 V2000
   -2.8930    4.1410   -1.2760 C   0  0  0  0  0  0  0  0  0  0  0  0
   -3.0110    2.8700   -0.5490 C   0  0  0  0  0  0  0  0  0  0  0  0
   -4.1590    2.4960   -0.1490 O   0  0  0  0  0  0  0  0  0  0  0  0
   -1.9130    2.0340   -0.2670 N   0  0  0  0  0  0  0  0  0  0  0  0
   -2.0340    0.7520    0.4670 C   0  0  2  0  0  0  0  0  0  0  0  0
   -1.3460    0.9820    1.7690 C   0  0  1  0  0  0  0  0  0  0  0  0
   -2.0330    0.4710    2.8770 O   0  0  0  0  0  0  0  0  0  0  0  0
    0.0690    0.5140    1.6830 C   0  0  0  0  0  0  0  0  0  0  0  0
    0.1450   -0.8830    1.1860 C   0  0  1  0  0  0  0  0  0  0  0  0
    1.5070   -1.0850    0.8870 O   0  0  0  0  0  0  0  0  0  0  0  0
    2.0080   -0.4030   -0.1680 C   0  0  2  0  0  0  0  0  0  0  0  0
    2.6340   -1.4270   -1.1010 C   0  0  2  0  0  0  0  0  0  0  0  0
    3.2490   -2.4310   -0.3970 O   0  0  0  0  0  0  0  0  0  0  0  0
    3.4980   -0.8150   -2.1510 C   0  0  1  0  0  0  0  0  0  0  0  0
    2.7720   -0.1490   -3.1270 O   0  0  0  0  0  0  0  0  0  0  0  0
    4.4420    0.0630   -1.6540 O   0  0  0  0  0  0  0  0  0  0  0  0
    4.4870    0.0560   -0.2620 C   0  0  1  0  0  0  0  0  0  0  0  0
    5.4780    1.1620    0.1230 C   0  0  0  0  0  0  0  0  0  0  0  0
    6.7390    0.8880   -0.4240 O   0  0  0  0  0  0  0  0  0  0  0  0
    3.1730    0.4460    0.3670 C   0  0  2  0  0  0  0  0  0  0  0  0
    3.3140    0.3120    1.7450 O   0  0  0  0  0  0  0  0  0  0  0  0
   -0.1200   -1.8180    2.3050 C   0  0  0  0  0  0  0  0  0  0  0  0
   -1.2470   -1.9510    2.8130 O   0  0  0  0  0  0  0  0  0  0  0  0
    0.8870   -2.5970    2.8430 O   0  0  0  0  0  0  0  0  0  0  0  0
   -0.6730   -1.2370    0.1550 O   0  0  0  0  0  0  0  0  0  0  0  0
   -1.5260   -0.3450   -0.3580 C   0  0  1  0  0  0  0  0  0  0  0  0
   -2.6490   -1.0420   -1.0920 C   0  0  1  0  0  0  0  0  0  0  0  0
   -2.0670   -1.7680   -2.1980 O   0  0  0  0  0  0  0  0  0  0  0  0
   -3.3680   -2.1050   -0.3250 C   0  0  2  0  0  0  0  0  0  0  0  0
   -4.2930   -2.6500   -1.2790 O   0  0  0  0  0  0  0  0  0  0  0  0
   -4.2490   -1.6240    0.7900 C   0  0  0  0  0  0  0  0  0  0  0  0
   -5.0270   -2.7060    1.2980 O   0  0  0  0  0  0  0  0  0  0  0  0
  1  2  1  0
  2  3  2  0
  2  4  1  0
  5  4  1  6
  5  6  1  0
  5 26  1  0
  6  7  1  1
  6  8  1  0
  8  9  1  0
  9 10  1  6
  9 22  1  0
  9 25  1  0
 11 10  1  1
 11 12  1  0
 11 20  1  0
 12 13  1  1
 12 14  1  0
 14 15  1  6
 14 16  1  0
 16 17  1  0
 17 18  1  6
 17 20  1  0
 18 19  1  0
 20 21  1  1
 22 23  2  0
 22 24  1  0
 26 25  1  1
 26 27  1  0
 27 28  1  6
 27 29  1  0
 29 30  1  6
 29 31  1  0
 31 32  1  0
M  CHG  1  24  -1
M  END
