
     RDKit          3D

  9  9  0  0  0  0  0  0  0  0999 V2000
    0.2040    1.2240    0.8240 O   0  0  0  0  0  0  0  0  0  0  0  0
    0.1750    0.1770    0.1960 C   0  0  0  0  0  0  0  0  0  0  0  0
    1.4140   -0.5640   -0.1170 C   0  0  0  0  0  0  0  0  0  0  0  0
    2.6490    0.0900    0.4010 C   0  0  1  0  0  0  0  0  0  0  0  0
    4.0410   -0.9320   -0.0640 Cl  0  0  0  0  0  0  0  0  0  0  0  0
    2.8760    1.7370   -0.1580 Cl  0  0  0  0  0  0  0  0  0  0  0  0
   -1.1300   -0.3680   -0.2640 C   0  0  1  0  0  0  0  0  0  0  0  0
   -2.3600   -0.1200    0.5250 C   0  0  0  0  0  0  0  0  0  0  0  0
   -2.1630    0.6170   -0.7600 C   0  0  0  0  0  0  0  0  0  0  0  0
  1  2  2  0
  2  3  1  0
  7  2  1  1
  3  4  1  0
  4  5  1  6
  4  6  1  0
  7  8  1  0
  7  9  1  0
  8  9  1  0
M  END
