
     RDKit          3D

  9  9  0  0  0  0  0  0  0  0999 V2000
    2.4460    0.4240    0.5380 C   0  0  0  0  0  0  0  0  0  0  0  0
    1.0870    0.0370    0.0770 C   0  0  0  0  0  0  0  0  0  0  0  0
    0.7760   -0.8410   -0.9120 C   0  0  0  0  0  0  0  0  0  0  0  0
   -0.6000   -0.8790   -0.9820 C   0  0  0  0  0  0  0  0  0  0  0  0
   -1.0630   -0.0180   -0.0280 C   0  0  0  0  0  0  0  0  0  0  0  0
   -2.4820    0.3110    0.3110 C   0  0  1  0  0  0  0  0  0  0  0  0
   -2.8550   -0.0460    2.0050 Cl  0  0  0  0  0  0  0  0  0  0  0  0
   -2.7260    2.0350   -0.0510 Cl  0  0  0  0  0  0  0  0  0  0  0  0
   -0.0320    0.5020    0.5740 O   0  0  0  0  0  0  0  0  0  0  0  0
  1  2  1  0
  2  3  2  0
  2  9  1  0
  3  4  1  0
  4  5  2  0
  5  6  1  0
  5  9  1  0
  6  7  1  1
  6  8  1  0
M  END
