
     RDKit          3D

  8  8  0  0  0  0  0  0  0  0999 V2000
   -1.8190   -0.8170    0.1610 C   0  0  0  0  0  0  0  0  0  0  0  0
   -0.3670   -0.7610   -0.0890 C   0  0  0  0  0  0  0  0  0  0  0  0
    0.4160   -1.7840   -0.1830 O   0  0  0  0  0  0  0  0  0  0  0  0
    1.6650   -1.4450   -0.4100 C   0  0  0  0  0  0  0  0  0  0  0  0
    1.6640   -0.0600   -0.4640 C   0  0  0  0  0  0  0  0  0  0  0  0
    3.0650    0.9400   -0.7430 Cl  0  0  0  0  0  0  0  0  0  0  0  0
    0.3790    0.3860   -0.2620 C   0  0  0  0  0  0  0  0  0  0  0  0
   -0.1250    1.7650   -0.2290 C   0  0  0  0  0  0  0  0  0  0  0  0
  1  2  1  0
  2  3  1  0
  2  7  2  0
  3  4  1  0
  4  5  2  0
  5  6  1  0
  5  7  1  0
  7  8  1  0
M  END
