
     RDKit          3D

  9  9  0  0  0  0  0  0  0  0999 V2000
    3.0390    1.6760   -0.7770 Cl  0  0  0  0  0  0  0  0  0  0  0  0
    2.4410   -0.0030   -0.6440 C   0  0  0  0  0  0  0  0  0  0  0  0
    1.0820   -0.0160   -0.0690 C   0  0  0  0  0  0  0  0  0  0  0  0
    0.7140   -0.0950    1.2610 C   0  0  0  0  0  0  0  0  0  0  0  0
   -0.6670   -0.0720    1.2760 C   0  0  0  0  0  0  0  0  0  0  0  0
   -1.0780    0.0190   -0.0270 C   0  0  0  0  0  0  0  0  0  0  0  0
   -2.4640    0.0760   -0.5350 C   0  0  0  0  0  0  0  0  0  0  0  0
   -3.0850   -1.5690   -0.8600 Cl  0  0  0  0  0  0  0  0  0  0  0  0
   -0.0220    0.0500   -0.7890 O   0  0  0  0  0  0  0  0  0  0  0  0
  1  2  1  0
  2  3  1  0
  3  4  2  0
  3  9  1  0
  4  5  1  0
  5  6  2  0
  6  7  1  0
  6  9  1  0
  7  8  1  0
M  END
