
     RDKit          3D

 12 13  0  0  0  0  0  0  0  0999 V2000
   -2.4490   -0.2650    0.6900 C   0  0  0  0  0  0  0  0  0  0  0  0
   -2.1980    0.1900   -0.7100 C   0  0  1  0  0  0  0  0  0  0  0  0
   -1.2570    1.7750   -0.6160 S   0  0  0  0  0  0  0  0  0  0  0  0
    0.3290    0.9390   -0.2970 C   0  0  0  0  0  0  0  0  0  0  0  0
    0.1830   -0.2990   -0.7200 C   0  0  0  0  0  0  0  0  0  0  0  0
    1.3180   -1.1410   -0.5630 O   0  0  0  0  0  0  0  0  0  0  0  0
    2.3040   -0.9030    0.3930 C   0  0  0  0  0  0  0  0  0  0  0  0
    2.6260    0.5560    0.4140 C   0  0  0  0  0  0  0  0  0  0  0  0
    3.8250    0.9770    0.5420 O   0  0  0  0  0  0  0  0  0  0  0  0
    1.5320    1.4450    0.2870 N   0  0  0  0  0  0  0  0  0  0  0  0
   -1.1030   -0.6250   -1.2820 C   0  0  0  0  0  0  0  0  0  0  0  0
   -1.3250   -1.5100   -2.1760 O   0  0  0  0  0  0  0  0  0  0  0  0
  2  1  1  1
  2  3  1  0
  2 11  1  0
  3  4  1  0
  4  5  2  0
  4 10  1  0
  5  6  1  0
  5 11  1  0
  6  7  1  0
  7  8  1  0
  8  9  2  0
  8 10  1  0
 11 12  2  0
M  END
