
     RDKit          3D

 12 12  0  0  0  0  0  0  0  0999 V2000
    1.9880   -0.5280    1.6080 N   0  0  0  0  0  0  0  0  0  0  0  0
    1.8800    0.4350    0.7660 C   0  0  0  0  0  0  0  0  0  0  0  0
    3.2770    1.5880    0.7480 S   0  0  0  0  0  0  0  0  0  0  0  0
    2.9820    2.8130   -0.4250 O   0  0  0  0  0  0  0  0  0  0  0  0
    0.7570    0.6420   -0.1280 C   0  0  0  0  0  0  0  0  0  0  0  0
    0.8510    1.7670   -0.9680 O   0  0  0  0  0  0  0  0  0  0  0  0
   -0.3170   -0.1080   -0.2230 C   0  0  0  0  0  0  0  0  0  0  0  0
   -0.5970   -1.2950    0.5460 C   0  0  0  0  0  0  0  0  0  0  0  0
   -1.7270   -2.0200    0.3940 C   0  0  0  0  0  0  0  0  0  0  0  0
   -2.7100   -1.5890   -0.5880 C   0  0  0  0  0  0  0  0  0  0  0  0
   -2.4610   -0.5020   -1.2980 C   0  0  0  0  0  0  0  0  0  0  0  0
   -1.3150    0.2490   -1.1570 O   0  0  0  0  0  0  0  0  0  0  0  0
  1  2  2  0
  2  3  1  0
  2  5  1  0
  3  4  1  0
  5  6  1  0
  5  7  2  3
  7  8  1  0
  7 12  1  0
  8  9  2  0
  9 10  1  0
 10 11  2  0
 11 12  1  0
M  END
