
     RDKit          3D

 12 13  0  0  0  0  0  0  0  0999 V2000
   -2.3420    0.4330   -0.9780 C   0  0  0  0  0  0  0  0  0  0  0  0
   -2.1020   -0.2720    0.3370 C   0  0  1  0  0  0  0  0  0  0  0  0
   -1.1100   -1.4210    0.1760 C   0  0  0  0  0  0  0  0  0  0  0  0
    0.2010   -0.6850    0.1600 C   0  0  0  0  0  0  0  0  0  0  0  0
    1.3310   -1.1250   -0.3390 C   0  0  0  0  0  0  0  0  0  0  0  0
    2.7460   -0.0990   -0.2520 S   0  0  1  0  0  0  0  0  0  0  0  0
    3.8260   -0.8060    0.5210 O   0  0  0  0  0  0  0  0  0  0  0  0
    3.2520    0.2130   -1.6300 O   0  0  0  0  0  0  0  0  0  0  0  0
    2.2650    1.3400    0.5230 N   0  0  0  0  0  0  0  0  0  0  0  0
    0.9380    1.4920    0.9450 C   0  0  0  0  0  0  0  0  0  0  0  0
   -0.0220    0.5910    0.7940 C   0  0  0  0  0  0  0  0  0  0  0  0
   -1.3700    0.6150    1.1640 O   0  0  0  0  0  0  0  0  0  0  0  0
  2  1  1  6
  2  3  1  0
  2 12  1  0
  3  4  1  0
  4  5  2  0
  4 11  1  0
  5  6  1  0
  6  7  2  0
  6  8  2  0
  6  9  1  1
  9 10  1  0
 10 11  2  0
 11 12  1  0
M  END
