
     RDKit          3D

 12 12  0  0  0  0  0  0  0  0999 V2000
   -2.5770   -2.0540   -0.0040 O   0  0  0  0  0  0  0  0  0  0  0  0
   -2.9250   -0.7950    0.7050 S   0  0  2  0  0  0  0  0  0  0  0  0
   -3.6430   -1.1440    1.9900 O   0  0  0  0  0  0  0  0  0  0  0  0
   -3.9860    0.1110   -0.2150 O   0  0  0  0  0  0  0  0  0  0  0  0
   -1.5020    0.1630    1.1560 C   0  0  0  0  0  0  0  0  0  0  0  0
   -0.7500    0.6510    0.0140 C   0  0  0  0  0  0  0  0  0  0  0  0
    0.4890    0.3530   -0.2180 C   0  0  0  0  0  0  0  0  0  0  0  0
    1.2910   -0.5060    0.6250 C   0  0  0  0  0  0  0  0  0  0  0  0
    2.5600   -0.7580    0.3120 C   0  0  0  0  0  0  0  0  0  0  0  0
    3.2220   -0.2160   -0.8520 C   0  0  0  0  0  0  0  0  0  0  0  0
    2.5320    0.5740   -1.6530 C   0  0  0  0  0  0  0  0  0  0  0  0
    1.1830    0.8780   -1.3750 N   0  0  0  0  0  0  0  0  0  0  0  0
  1  2  2  0
  2  3  2  0
  2  4  1  6
  2  5  1  0
  5  6  1  0
  6  7  2  3
  7  8  1  0
  7 12  1  0
  8  9  2  0
  9 10  1  0
 10 11  2  0
 11 12  1  0
M  END
