
     RDKit          3D

 12 13  0  0  0  0  0  0  0  0999 V2000
   -0.7060    3.6840   -0.4470 O   0  0  0  0  0  0  0  0  0  0  0  0
   -0.3340    2.4740   -0.3250 C   0  0  0  0  0  0  0  0  0  0  0  0
   -1.2600    1.4780   -0.7050 N   0  0  0  0  0  0  0  0  0  0  0  0
   -0.9210    0.1200   -0.6730 C   0  0  2  0  0  0  0  0  0  0  0  0
   -1.8670   -0.7980    0.0420 C   0  0  0  0  0  0  0  0  0  0  0  0
   -1.3370   -2.1800   -0.0100 C   0  0  0  0  0  0  0  0  0  0  0  0
    0.4580   -1.9600   -0.0330 S   0  0  0  0  0  0  0  0  0  0  0  0
    0.4000   -0.1250   -0.1160 C   0  0  0  0  0  0  0  0  0  0  0  0
    1.2280    0.7860    0.2440 C   0  0  0  0  0  0  0  0  0  0  0  0
    2.5670    0.3440    0.7910 C   0  0  0  0  0  0  0  0  0  0  0  0
    2.6260   -1.0390    0.7890 O   0  0  0  0  0  0  0  0  0  0  0  0
    0.9320    2.1390    0.1620 O   0  0  0  0  0  0  0  0  0  0  0  0
  1  2  2  0
  2  3  1  0
  2 12  1  0
  3  4  1  0
  4  5  1  1
  4  8  1  0
  5  6  1  0
  6  7  1  0
  7  8  1  0
  8  9  2  0
  9 10  1  0
  9 12  1  0
 10 11  1  0
M  END
