
     RDKit          3D

 12 12  0  0  0  0  0  0  0  0999 V2000
    3.2440    0.2920    0.4340 C   0  0  0  0  0  0  0  0  0  0  0  0
    2.1800   -0.5010    0.1730 C   0  0  0  0  0  0  0  0  0  0  0  0
    2.3420   -1.9170   -0.0430 C   0  0  0  0  0  0  0  0  0  0  0  0
    3.3730   -2.5870   -0.0290 O   0  0  0  0  0  0  0  0  0  0  0  0
    0.6900   -2.4890   -0.3380 S   0  0  0  0  0  0  0  0  0  0  0  0
   -0.1040   -0.8950   -0.1690 C   0  0  0  0  0  0  0  0  0  0  0  0
   -1.5490   -0.6750   -0.3080 C   0  0  0  0  0  0  0  0  0  0  0  0
   -2.2680   -1.6660   -0.5600 O   0  0  0  0  0  0  0  0  0  0  0  0
   -2.1350    0.5580   -0.1740 O   0  0  0  0  0  0  0  0  0  0  0  0
   -3.5060    0.8190   -0.2960 C   0  0  0  0  0  0  0  0  0  0  0  0
    0.8280   -0.0230    0.0890 C   0  0  0  0  0  0  0  0  0  0  0  0
    0.4770    1.3800    0.2800 N   0  0  0  0  0  0  0  0  0  0  0  0
  1  2  2  0
  2  3  1  0
  2 11  1  0
  3  4  2  0
  3  5  1  0
  5  6  1  0
  6  7  1  0
  6 11  2  0
  7  8  2  0
  7  9  1  0
  9 10  1  0
 11 12  1  0
M  END
