
     RDKit          3D

 16 16  0  0  0  0  0  0  0  0999 V2000
   -1.9810   -2.0420   -0.7500 C   0  0  0  0  0  0  0  0  0  0  0  0
   -0.9000   -0.9430   -0.5100 C   0  0  2  0  0  0  0  0  0  0  0  0
   -0.3220   -0.8040   -1.7670 O   0  0  0  0  0  0  0  0  0  0  0  0
    0.0210   -1.4760    0.5180 C   0  0  0  0  0  0  0  0  0  0  0  0
    1.1860   -0.8350    0.7830 O   0  0  0  0  0  0  0  0  0  0  0  0
    2.0940   -0.7180   -0.2340 C   0  0  0  0  0  0  0  0  0  0  0  0
    3.3740   -0.0810    0.2460 C   0  0  2  0  0  0  0  0  0  0  0  0
    4.0120   -0.8110    1.2460 O   0  0  0  0  0  0  0  0  0  0  0  0
    3.0750    1.3290    0.6880 C   0  0  0  0  0  0  0  0  0  0  0  0
    2.2590    1.3080    1.8130 O   0  0  0  0  0  0  0  0  0  0  0  0
   -1.6420    0.3090   -0.1810 C   0  0  2  0  0  0  0  0  0  0  0  0
   -2.7020    0.4760   -1.2680 C   0  0  0  0  0  0  0  0  0  0  0  0
   -0.8320    1.5480   -0.1640 C   0  0  0  0  0  0  0  0  0  0  0  0
   -1.3600    2.3320    0.8920 O   0  0  0  0  0  0  0  0  0  0  0  0
   -2.4890    1.6250    1.3040 C   0  0  0  0  0  0  0  0  0  0  0  0
   -2.2360    0.2710    1.0790 O   0  0  0  0  0  0  0  0  0  0  0  0
  2  1  1  6
  2  3  1  0
  2  4  1  0
  2 11  1  0
  4  5  1  0
  5  6  1  0
  6  7  1  0
  7  8  1  1
  7  9  1  0
  9 10  1  0
 11 12  1  6
 11 13  1  0
 11 16  1  0
 13 14  1  0
 14 15  1  0
 15 16  1  0
M  END
