
     RDKit          3D

 15 15  0  0  0  0  0  0  0  0999 V2000
   -1.8830   -2.7280   -0.3350 C   0  0  0  0  0  0  0  0  0  0  0  0
   -1.9870   -1.5480    0.3170 O   0  0  0  0  0  0  0  0  0  0  0  0
   -1.6190   -0.3960   -0.3150 C   0  0  1  0  0  0  0  0  0  0  0  0
   -2.7960    0.3500   -0.6720 O   0  0  0  0  0  0  0  0  0  0  0  0
   -0.7870    0.4600    0.5650 C   0  0  2  0  0  0  0  0  0  0  0  0
   -1.5480    0.6780    1.7490 O   0  0  0  0  0  0  0  0  0  0  0  0
   -0.8290    1.8590   -0.0950 C   0  0  0  0  0  0  0  0  0  0  0  0
   -0.0380    2.8700    0.6780 C   0  0  0  0  0  0  0  0  0  0  0  0
   -0.1500    4.0870   -0.0150 O   0  0  0  0  0  0  0  0  0  0  0  0
    0.5540    0.0780    0.9610 C   0  0  0  0  0  0  0  0  0  0  0  0
    1.6450   -0.1130    0.0100 C   0  0  2  0  0  0  0  0  0  0  0  0
    1.5410   -1.1530   -1.0440 C   0  0  0  0  0  0  0  0  0  0  0  0
    2.9070   -1.3930   -1.3550 O   0  0  0  0  0  0  0  0  0  0  0  0
    3.5890   -1.2040   -0.1680 C   0  0  0  0  0  0  0  0  0  0  0  0
    2.8040   -0.5070    0.7260 O   0  0  0  0  0  0  0  0  0  0  0  0
  1  2  1  0
  2  3  1  0
  3  4  1  1
  3  5  1  0
  5  6  1  1
  5  7  1  0
  5 10  1  0
  7  8  1  0
  8  9  1  0
 11 10  1  1
 11 12  1  0
 11 15  1  0
 12 13  1  0
 13 14  1  0
 14 15  1  0
M  END
