
     RDKit          3D

 16 16  0  0  0  0  0  0  0  0999 V2000
    5.2720   -0.0790   -0.3390 C   0  0  0  0  0  0  0  0  0  0  0  0
    4.7240    0.3910    0.8320 O   0  0  0  0  0  0  0  0  0  0  0  0
    3.4060    0.8060    0.5640 C   0  0  2  0  0  0  0  0  0  0  0  0
    3.3110    2.1870    0.8830 O   0  0  0  0  0  0  0  0  0  0  0  0
    2.6040    0.1630    1.4680 O   0  0  0  0  0  0  0  0  0  0  0  0
    1.5980   -0.5470    0.8430 C   0  0  0  0  0  0  0  0  0  0  0  0
    0.6820    0.3700    0.1210 C   0  0  0  0  0  0  0  0  0  0  0  0
   -0.3410   -0.2420   -0.5310 O   0  0  0  0  0  0  0  0  0  0  0  0
   -1.2460   -0.9780    0.1510 C   0  0  2  0  0  0  0  0  0  0  0  0
   -0.7640   -2.0760    0.8540 O   0  0  0  0  0  0  0  0  0  0  0  0
   -2.2130   -1.5520   -0.8740 C   0  0  0  0  0  0  0  0  0  0  0  0
   -3.1140   -0.5350   -1.4700 C   0  0  0  0  0  0  0  0  0  0  0  0
   -3.6760    0.4600   -0.5180 C   0  0  0  0  0  0  0  0  0  0  0  0
   -2.6150    1.0180    0.3990 C   0  0  1  0  0  0  0  0  0  0  0  0
   -3.1450    1.9640    1.2500 O   0  0  0  0  0  0  0  0  0  0  0  0
   -2.0460   -0.1710    1.1630 C   0  0  0  0  0  0  0  0  0  0  0  0
  1  2  1  0
  2  3  1  0
  3  4  1  1
  3  5  1  0
  5  6  1  0
  6  7  1  0
  7  8  1  0
  8  9  1  0
  9 10  1  1
  9 11  1  0
  9 16  1  0
 11 12  1  0
 12 13  1  0
 13 14  1  0
 14 15  1  1
 14 16  1  0
M  END
