
     RDKit          3D

 16 16  0  0  0  0  0  0  0  0999 V2000
    4.8390   -2.0300   -0.0500 C   0  0  0  0  0  0  0  0  0  0  0  0
    3.8980   -1.7620    0.8260 C   0  0  0  0  0  0  0  0  0  0  0  0
    3.1130   -0.4960    0.7160 C   0  0  0  0  0  0  0  0  0  0  0  0
    1.7740   -0.8460    0.5600 O   0  0  0  0  0  0  0  0  0  0  0  0
    0.9650    0.2880    0.4490 C   0  0  1  0  0  0  0  0  0  0  0  0
    0.3460    0.2180   -0.7930 O   0  0  0  0  0  0  0  0  0  0  0  0
   -0.9210   -0.3880   -0.6340 C   0  0  2  0  0  0  0  0  0  0  0  0
   -1.4280   -0.8160   -1.9740 C   0  0  0  0  0  0  0  0  0  0  0  0
   -2.6730   -1.4150   -1.8430 O   0  0  0  0  0  0  0  0  0  0  0  0
   -1.8130    0.7040   -0.0550 C   0  0  1  0  0  0  0  0  0  0  0  0
   -3.1300    0.3230    0.0450 O   0  0  0  0  0  0  0  0  0  0  0  0
   -3.9200    1.1650   -0.7320 C   0  0  0  0  0  0  0  0  0  0  0  0
   -1.2710    1.0450    1.3150 C   0  0  2  0  0  0  0  0  0  0  0  0
   -1.0810    2.4220    1.4070 O   0  0  0  0  0  0  0  0  0  0  0  0
    0.0130    0.3340    1.5980 C   0  0  2  0  0  0  0  0  0  0  0  0
    0.6040    0.9660    2.7080 O   0  0  0  0  0  0  0  0  0  0  0  0
  1  2  2  0
  2  3  1  0
  3  4  1  0
  5  4  1  1
  5  6  1  0
  5 15  1  0
  6  7  1  0
  7  8  1  6
  7 10  1  0
  8  9  1  0
 10 11  1  1
 10 13  1  0
 11 12  1  0
 13 14  1  6
 13 15  1  0
 15 16  1  1
M  END
