
     RDKit          3D

 16 16  0  0  0  0  0  0  0  0999 V2000
    5.2690    0.8200   -0.1190 C   0  0  0  0  0  0  0  0  0  0  0  0
    3.8970    0.8970    0.1120 O   0  0  0  0  0  0  0  0  0  0  0  0
    3.5270   -0.0370    1.0800 C   0  0  0  0  0  0  0  0  0  0  0  0
    2.1640    0.0340    1.3140 O   0  0  0  0  0  0  0  0  0  0  0  0
    1.4100   -0.2200    0.1900 C   0  0  2  0  0  0  0  0  0  0  0  0
    0.6040    1.0240   -0.2010 C   0  0  0  0  0  0  0  0  0  0  0  0
   -0.5260    0.5340   -1.0750 C   0  0  2  0  0  0  0  0  0  0  0  0
   -1.0660    1.5330   -1.8640 O   0  0  0  0  0  0  0  0  0  0  0  0
   -1.5780   -0.1230   -0.1850 C   0  0  2  0  0  0  0  0  0  0  0  0
   -2.4330    0.8050    0.3410 O   0  0  0  0  0  0  0  0  0  0  0  0
   -3.7620    0.6090    0.0670 C   0  0  0  0  0  0  0  0  0  0  0  0
   -4.3170   -0.6910    0.5640 C   0  0  0  0  0  0  0  0  0  0  0  0
   -5.6820   -0.7130    0.1930 O   0  0  0  0  0  0  0  0  0  0  0  0
   -0.8350   -0.7680    0.9680 C   0  0  0  0  0  0  0  0  0  0  0  0
    0.4730   -1.3630    0.4810 C   0  0  2  0  0  0  0  0  0  0  0  0
    1.0380   -2.1720    1.4410 O   0  0  0  0  0  0  0  0  0  0  0  0
  1  2  1  0
  2  3  1  0
  3  4  1  0
  5  4  1  1
  5  6  1  0
  5 15  1  0
  6  7  1  0
  7  8  1  1
  7  9  1  0
  9 10  1  1
  9 14  1  0
 10 11  1  0
 11 12  1  0
 12 13  1  0
 14 15  1  0
 15 16  1  1
M  END
