
     RDKit          3D

 16 16  0  0  0  0  0  0  0  0999 V2000
   -3.0250   -1.6460    1.8340 C   0  0  0  0  0  0  0  0  0  0  0  0
   -1.9660   -1.4270    0.8890 O   0  0  0  0  0  0  0  0  0  0  0  0
   -1.8350   -0.2100    0.2300 C   0  0  0  0  0  0  0  0  0  0  0  0
   -2.6930    0.6630    0.5180 O   0  0  0  0  0  0  0  0  0  0  0  0
   -0.7510    0.0320   -0.7450 C   0  0  2  0  0  0  0  0  0  0  0  0
   -0.8330   -0.9430   -1.9030 C   0  0  0  0  0  0  0  0  0  0  0  0
    0.6480    0.0130   -0.1740 C   0  0  2  0  0  0  0  0  0  0  0  0
    0.7800   -0.4700    1.0940 O   0  0  0  0  0  0  0  0  0  0  0  0
    1.8170   -1.3730    1.2770 C   0  0  0  0  0  0  0  0  0  0  0  0
    3.1730   -0.8270    0.9780 C   0  0  0  0  0  0  0  0  0  0  0  0
    4.1230   -1.8320    1.2020 O   0  0  0  0  0  0  0  0  0  0  0  0
    0.6980    1.5300   -0.2990 C   0  0  2  0  0  0  0  0  0  0  0  0
    0.4900    2.2140    0.8850 O   0  0  0  0  0  0  0  0  0  0  0  0
   -0.5320    1.4220   -1.1900 C   0  0  2  0  0  0  0  0  0  0  0  0
   -1.5350    2.4640   -0.8000 C   0  0  0  0  0  0  0  0  0  0  0  0
   -0.2350    1.5570   -2.5660 O   0  0  0  0  0  0  0  0  0  0  0  0
  1  2  1  0
  2  3  1  0
  3  4  2  0
  3  5  1  0
  5  6  1  6
  5  7  1  0
  5 14  1  0
  7  8  1  1
  7 12  1  0
  8  9  1  0
  9 10  1  0
 10 11  1  0
 12 13  1  1
 12 14  1  0
 14 15  1  1
 14 16  1  0
M  END
