
     RDKit          3D

 16 16  0  0  0  0  0  0  0  0999 V2000
    3.8070   -0.2130    0.6120 C   0  0  0  0  0  0  0  0  0  0  0  0
    3.1260    0.0520   -0.5770 O   0  0  0  0  0  0  0  0  0  0  0  0
    2.2800   -0.9420   -0.9560 C   0  0  0  0  0  0  0  0  0  0  0  0
    1.1490   -1.3020   -0.0890 C   0  0  2  0  0  0  0  0  0  0  0  0
    0.4990   -2.4500   -0.6420 O   0  0  0  0  0  0  0  0  0  0  0  0
    0.0310   -0.2430    0.0300 C   0  0  1  0  0  0  0  0  0  0  0  0
   -0.9620   -0.9250    0.9260 C   0  0  0  0  0  0  0  0  0  0  0  0
   -2.1990   -0.2720    1.3100 C   0  0  1  0  0  0  0  0  0  0  0  0
   -1.9840    0.9090    2.0120 O   0  0  0  0  0  0  0  0  0  0  0  0
   -3.2780   -0.1470    0.2850 C   0  0  0  0  0  0  0  0  0  0  0  0
   -3.4800   -1.3380   -0.4080 O   0  0  0  0  0  0  0  0  0  0  0  0
    0.6320    0.9820    0.6230 C   0  0  0  0  0  0  0  0  0  0  0  0
   -0.3110    2.0490    0.4800 O   0  0  0  0  0  0  0  0  0  0  0  0
   -0.2220    2.3610   -0.8950 C   0  0  0  0  0  0  0  0  0  0  0  0
   -0.6040    1.1940   -1.7250 C   0  0  0  0  0  0  0  0  0  0  0  0
   -0.4080   -0.0450   -1.2480 O   0  0  0  0  0  0  0  0  0  0  0  0
  1  2  1  0
  2  3  1  0
  3  4  1  0
  4  5  1  6
  4  6  1  0
  6  7  1  1
  6 12  1  0
  6 16  1  0
  7  8  1  0
  8  9  1  6
  8 10  1  0
 10 11  1  0
 12 13  1  0
 13 14  1  0
 14 15  1  0
 15 16  1  0
M  END
