
     RDKit          3D

 13 13  0  0  0  0  0  0  0  0999 V2000
    4.0890   -0.0490    1.4180 C   0  0  0  0  0  0  0  0  0  0  0  0
    3.1400    0.0290    0.5000 C   0  0  0  0  0  0  0  0  0  0  0  0
    1.8700   -0.5050    0.5250 O   0  0  0  0  0  0  0  0  0  0  0  0
    1.1840   -0.1940   -0.6420 C   0  0  0  0  0  0  0  0  0  0  0  0
   -0.2050   -0.5920   -0.9790 C   0  0  0  0  0  0  0  0  0  0  0  0
   -1.1610   -0.0770   -0.0110 N   0  0  0  0  0  0  0  0  0  0  0  0
   -2.5480   -0.3440   -0.1490 C   0  0  0  0  0  0  0  0  0  0  0  0
   -3.0110   -1.0280   -1.0980 O   0  0  0  0  0  0  0  0  0  0  0  0
   -3.4450    0.1820    0.8240 N   0  0  0  0  0  0  0  0  0  0  0  0
   -4.8720   -0.0370    0.7660 C   0  0  0  0  0  0  0  0  0  0  0  0
    1.9490    0.5270   -1.4440 C   0  0  0  0  0  0  0  0  0  0  0  0
    3.2550    0.7240   -0.7780 C   0  0  0  0  0  0  0  0  0  0  0  0
    4.2610    1.3710   -1.2400 N   0  0  0  0  0  0  0  0  0  0  0  0
  1  2  2  0
  2  3  1  0
  2 12  1  0
  3  4  1  0
  4  5  1  0
  4 11  2  0
  5  6  1  0
  6  7  1  0
  7  8  2  0
  7  9  1  0
  9 10  1  0
 11 12  1  0
 12 13  2  0
M  END
