
     RDKit          3D

 13 13  0  0  0  0  0  0  0  0999 V2000
    3.4950    0.5530    1.2620 C   0  0  0  0  0  0  0  0  0  0  0  0
    2.9880   -0.4520    0.2860 C   0  0  0  0  0  0  0  0  0  0  0  0
    1.6830   -0.3470   -0.1550 N   0  0  0  0  0  0  0  0  0  0  0  0
    1.2180    0.6850   -0.9660 C   0  0  0  0  0  0  0  0  0  0  0  0
   -0.2910    0.7810   -0.6260 C   0  0  0  0  0  0  0  0  0  0  0  0
   -0.5450   -0.6830   -0.3550 C   0  0  2  0  0  0  0  0  0  0  0  0
   -0.2220   -1.3910   -1.5220 O   0  0  0  0  0  0  0  0  0  0  0  0
   -1.8270   -1.0320    0.1960 C   0  0  0  0  0  0  0  0  0  0  0  0
   -2.0630   -2.3920    0.5450 N   0  0  0  0  0  0  0  0  0  0  0  0
   -2.7630   -0.1990    0.3800 N   0  0  0  0  0  0  0  0  0  0  0  0
   -2.5990    1.1130    0.0550 O   0  0  0  0  0  0  0  0  0  0  0  0
   -3.5890    2.0970    0.2510 C   0  0  0  0  0  0  0  0  0  0  0  0
    0.6310   -0.9390    0.6040 C   0  0  0  0  0  0  0  0  0  0  0  0
  1  2  1  0
  2  3  1  0
  3  4  1  0
  3 13  1  0
  4  5  1  0
  5  6  1  0
  6  7  1  6
  6  8  1  0
  6 13  1  0
  8  9  1  0
  8 10  2  3
 10 11  1  0
 11 12  1  0
M  END
