
     RDKit          3D

 13 13  0  0  0  0  0  0  0  0999 V2000
   -3.8130   -2.2960   -0.2660 C   0  0  0  0  0  0  0  0  0  0  0  0
   -2.8440   -1.1590   -0.1240 C   0  0  0  0  0  0  0  0  0  0  0  0
   -1.4980   -1.4280   -0.0070 C   0  0  0  0  0  0  0  0  0  0  0  0
   -0.6400   -0.3560    0.1210 C   0  0  0  0  0  0  0  0  0  0  0  0
    0.7450   -0.5840    0.2440 O   0  0  0  0  0  0  0  0  0  0  0  0
    1.6480    0.4880    0.3760 C   0  0  0  0  0  0  0  0  0  0  0  0
    3.0380   -0.0870    0.4840 C   0  0  0  0  0  0  0  0  0  0  0  0
    4.0990    0.9740    0.6310 C   0  0  0  0  0  0  0  0  0  0  0  0
    5.3270    0.3110    0.7190 O   0  0  0  0  0  0  0  0  0  0  0  0
   -1.0900    0.9120    0.1340 N   0  0  0  0  0  0  0  0  0  0  0  0
   -2.4030    1.1570    0.0190 C   0  0  0  0  0  0  0  0  0  0  0  0
   -2.8500    2.5060    0.0350 N   0  0  0  0  0  0  0  0  0  0  0  0
   -3.2470    0.1260   -0.1060 N   0  0  0  0  0  0  0  0  0  0  0  0
  1  2  1  0
  2  3  2  0
  2 13  1  0
  3  4  1  0
  4  5  1  0
  4 10  2  0
  5  6  1  0
  6  7  1  0
  7  8  1  0
  8  9  1  0
 10 11  1  0
 11 12  1  0
 11 13  2  0
M  END
