
     RDKit          3D

 13 13  0  0  0  0  0  0  0  0999 V2000
   -3.3070   -0.3340    1.2270 C   0  0  0  0  0  0  0  0  0  0  0  0
   -2.8070   -0.1890   -0.1630 C   0  0  0  0  0  0  0  0  0  0  0  0
   -1.5080   -0.2010   -0.4740 C   0  0  0  0  0  0  0  0  0  0  0  0
   -0.4390   -0.3530    0.4720 N   0  0  0  0  0  0  0  0  0  0  0  0
    0.9330   -0.3630    0.1230 C   0  0  0  0  0  0  0  0  0  0  0  0
    1.2190   -0.2300   -1.0930 O   0  0  0  0  0  0  0  0  0  0  0  0
    1.9720   -0.5150    1.0800 N   0  0  0  0  0  0  0  0  0  0  0  0
    3.3340   -0.5050    0.6130 C   0  0  0  0  0  0  0  0  0  0  0  0
    3.7400    0.7680   -0.0720 C   0  0  0  0  0  0  0  0  0  0  0  0
    3.6050    1.8460    0.8070 O   0  0  0  0  0  0  0  0  0  0  0  0
   -1.4450   -0.0330   -1.9110 C   0  0  0  0  0  0  0  0  0  0  0  0
   -2.6350    0.0710   -2.4170 N   0  0  0  0  0  0  0  0  0  0  0  0
   -3.6090   -0.0140   -1.3890 C   0  0  0  0  0  0  0  0  0  0  0  0
  1  2  1  0
  2  3  2  0
  2 13  1  0
  3  4  1  0
  3 11  1  0
  4  5  1  0
  5  6  2  0
  5  7  1  0
  7  8  1  0
  8  9  1  0
  9 10  1  0
 11 12  2  0
 12 13  1  0
M  END
