
     RDKit          3D

 13 13  0  0  0  0  0  0  0  0999 V2000
    0.7540   -1.9590   -0.4500 C   0  0  0  0  0  0  0  0  0  0  0  0
    0.5110   -0.6870    0.1800 N   0  0  0  0  0  0  0  0  0  0  0  0
    1.6170    0.0620    0.7180 C   0  0  0  0  0  0  0  0  0  0  0  0
    2.5410    0.5860   -0.3120 C   0  0  0  0  0  0  0  0  0  0  0  0
    3.6690    1.3390    0.1040 N   0  0  0  0  0  0  0  0  0  0  0  0
    2.4000    0.4130   -1.5490 O   0  0  0  0  0  0  0  0  0  0  0  0
   -0.8330   -0.2240    0.2460 C   0  0  0  0  0  0  0  0  0  0  0  0
   -1.5120   -0.4160    1.3490 C   0  0  0  0  0  0  0  0  0  0  0  0
   -2.9030    0.0020    1.5710 C   0  0  0  0  0  0  0  0  0  0  0  0
   -3.4240    0.6370    0.4560 O   0  0  0  0  0  0  0  0  0  0  0  0
   -2.7280    0.8400   -0.6920 C   0  0  0  0  0  0  0  0  0  0  0  0
   -1.4750    0.4550   -0.8710 C   0  0  0  0  0  0  0  0  0  0  0  0
   -0.7990    0.6960   -2.0880 N   0  0  0  0  0  0  0  0  0  0  0  0
  1  2  1  0
  2  3  1  0
  2  7  1  0
  3  4  1  0
  4  5  1  0
  4  6  2  0
  7  8  2  0
  7 12  1  0
  8  9  1  0
  9 10  1  0
 10 11  1  0
 11 12  2  0
 12 13  1  0
M  END
