
     RDKit          3D

 13 13  0  0  0  0  0  0  0  0999 V2000
    4.8750   -1.2770    0.3870 N   0  0  0  0  0  0  0  0  0  0  0  0
    3.8930   -0.2740    0.2030 C   0  0  0  0  0  0  0  0  0  0  0  0
    4.2290    0.9280    0.0980 O   0  0  0  0  0  0  0  0  0  0  0  0
    2.4690   -0.6700    0.1360 C   0  0  0  0  0  0  0  0  0  0  0  0
    1.5830    0.5530   -0.0640 C   0  0  0  0  0  0  0  0  0  0  0  0
    0.1530    0.1030   -0.1250 C   0  0  0  0  0  0  0  0  0  0  0  0
   -0.1230   -1.0960   -0.0170 O   0  0  0  0  0  0  0  0  0  0  0  0
   -0.8550    1.0510   -0.3050 N   0  0  0  0  0  0  0  0  0  0  0  0
   -2.2510    0.7460   -0.3800 C   0  0  0  0  0  0  0  0  0  0  0  0
   -2.8280   -0.4180   -0.2980 C   0  0  0  0  0  0  0  0  0  0  0  0
   -4.2930   -0.2050   -0.4330 C   0  0  0  0  0  0  0  0  0  0  0  0
   -4.4310    1.2450   -0.6010 C   0  0  0  0  0  0  0  0  0  0  0  0
   -3.2560    1.7640   -0.5670 N   0  0  0  0  0  0  0  0  0  0  0  0
  1  2  1  0
  2  3  2  0
  2  4  1  0
  4  5  1  0
  5  6  1  0
  6  7  2  0
  6  8  1  0
  8  9  1  0
  9 10  2  0
  9 13  1  0
 10 11  1  0
 11 12  1  0
 12 13  2  0
M  END
