
     RDKit          3D

 13 13  0  0  0  0  0  0  0  0999 V2000
    3.5110   -0.3410    0.4370 C   0  0  0  0  0  0  0  0  0  0  0  0
    2.4590   -1.1570   -0.2620 C   0  0  0  0  0  0  0  0  0  0  0  0
    1.2110   -1.2460    0.6350 C   0  0  0  0  0  0  0  0  0  0  0  0
    0.7150    0.1040    0.8810 C   0  0  0  0  0  0  0  0  0  0  0  0
   -0.4380    0.6280    0.5960 C   0  0  0  0  0  0  0  0  0  0  0  0
   -0.7080    2.0640    0.9610 C   0  0  0  0  0  0  0  0  0  0  0  0
   -0.9950    2.8050   -0.1840 O   0  0  0  0  0  0  0  0  0  0  0  0
   -1.5130   -0.0920   -0.0660 C   0  0  0  0  0  0  0  0  0  0  0  0
   -1.6020   -1.3530   -0.5160 N   0  0  0  0  0  0  0  0  0  0  0  0
   -2.7730   -1.6250   -1.0690 C   0  0  0  0  0  0  0  0  0  0  0  0
   -3.1240   -2.7270   -1.5700 O   0  0  0  0  0  0  0  0  0  0  0  0
   -3.4820   -0.4830   -0.9750 N   0  0  0  0  0  0  0  0  0  0  0  0
   -2.7360    0.4300   -0.3790 N   0  0  0  0  0  0  0  0  0  0  0  0
  1  2  1  0
  2  3  1  0
  3  4  1  0
  4  5  2  3
  5  6  1  0
  5  8  1  0
  6  7  1  0
  8  9  2  0
  8 13  1  0
  9 10  1  0
 10 11  2  0
 10 12  1  0
 12 13  1  0
M  END
