
     RDKit          3D

 26 26  0  0  0  0  0  0  0  0999 V2000
    8.5700    2.3610   -2.0390 C   0  0  0  0  0  0  0  0  0  0  0  0
    8.2690    1.9970   -0.7340 O   0  0  0  0  0  0  0  0  0  0  0  0
    8.5760    0.6390   -0.5580 C   0  0  0  0  0  0  0  0  0  0  0  0
    8.2550    0.2190    0.8590 C   0  0  0  0  0  0  0  0  0  0  0  0
    6.8820    0.4180    1.1260 O   0  0  0  0  0  0  0  0  0  0  0  0
    5.8580   -0.1850    0.4590 C   0  0  0  0  0  0  0  0  0  0  0  0
    6.0900   -0.9890   -0.4710 O   0  0  0  0  0  0  0  0  0  0  0  0
    4.4830    0.0980    0.8180 C   0  0  0  0  0  0  0  0  0  0  0  0
    4.1810    0.8990    1.7430 O   0  0  0  0  0  0  0  0  0  0  0  0
    3.4280   -0.5360    0.1190 N   0  0  0  0  0  0  0  0  0  0  0  0
    2.0310   -0.3030    0.4190 C   0  0  0  0  0  0  0  0  0  0  0  0
    1.1960   -1.1260   -0.5030 C   0  0  0  0  0  0  0  0  0  0  0  0
   -0.2710   -0.9200   -0.2430 C   0  0  0  0  0  0  0  0  0  0  0  0
   -0.6380   -0.1340    0.6680 O   0  0  0  0  0  0  0  0  0  0  0  0
   -1.2600   -1.5700   -0.9770 N   0  0  0  0  0  0  0  0  0  0  0  0
   -2.6970   -1.3050   -0.6610 C   0  0  0  0  0  0  0  0  0  0  0  0
   -3.3400   -0.6850    0.0560 N   0  0  0  0  0  0  0  0  0  0  0  0
   -4.6500   -0.5880    0.1700 C   0  0  0  0  0  0  0  0  0  0  0  0
   -5.4110    0.2800    1.1610 C   0  0  0  0  0  0  0  0  0  0  0  0
   -5.9290    1.5340    0.5190 C   0  0  0  0  0  0  0  0  0  0  0  0
   -6.6630    2.3040    1.6210 C   0  0  0  0  0  0  0  0  0  0  0  0
   -5.7640    2.5900    2.6420 O   0  0  0  0  0  0  0  0  0  0  0  0
   -5.3590   -1.3580   -0.7150 C   0  0  0  0  0  0  0  0  0  0  0  0
   -6.7720   -1.6070   -0.9950 C   0  0  0  0  0  0  0  0  0  0  0  0
   -6.9470   -2.5680   -2.0890 N   0  0  0  0  0  0  0  0  0  0  0  0
   -3.9690   -2.1850   -1.6730 S   0  0  0  0  0  0  0  0  0  0  0  0
  1  2  1  0
  2  3  1  0
  3  4  1  0
  4  5  1  0
  5  6  1  0
  6  7  2  0
  6  8  1  0
  8  9  2  0
  8 10  1  0
 10 11  1  0
 11 12  1  0
 12 13  1  0
 13 14  2  0
 13 15  1  0
 15 16  1  0
 16 17  2  0
 16 26  1  0
 17 18  1  0
 18 19  1  0
 18 23  2  0
 19 20  1  0
 20 21  1  0
 21 22  1  0
 23 24  1  0
 23 26  1  0
 24 25  1  0
M  CHG  1  25   1
M  END
