
     RDKit          3D

 26 26  0  0  0  0  0  0  0  0999 V2000
    8.3170   -0.9290    2.0970 N   0  0  0  0  0  0  0  0  0  0  0  0
    7.6630   -1.3150    0.8700 C   0  0  0  0  0  0  0  0  0  0  0  0
    8.3720   -1.7140   -0.0880 O   0  0  0  0  0  0  0  0  0  0  0  0
    6.2380   -1.2420    0.7610 N   0  0  0  0  0  0  0  0  0  0  0  0
    5.5930   -1.6160   -0.4200 C   0  0  0  0  0  0  0  0  0  0  0  0
    6.3510   -2.0310   -1.3790 O   0  0  0  0  0  0  0  0  0  0  0  0
    4.1610   -1.6010   -0.7130 C   0  0  0  0  0  0  0  0  0  0  0  0
    3.3570   -1.0920    0.2930 O   0  0  0  0  0  0  0  0  0  0  0  0
    3.4180    0.2390    0.7570 C   0  0  0  0  0  0  0  0  0  0  0  0
    4.2300    0.9940    0.2350 O   0  0  0  0  0  0  0  0  0  0  0  0
    2.4540    0.5510    1.8470 C   0  0  0  0  0  0  0  0  0  0  0  0
    0.7630    0.5960    1.2730 S   0  0  0  0  0  0  0  0  0  0  0  0
    0.3910    1.9420    0.1880 C   0  0  0  0  0  0  0  0  0  0  0  0
    1.3360    2.9100   -0.0480 C   0  0  0  0  0  0  0  0  0  0  0  0
    1.0790    3.9510   -0.9070 C   0  0  0  0  0  0  0  0  0  0  0  0
   -0.1480    3.9770   -1.5090 C   0  0  0  0  0  0  0  0  0  0  0  0
   -1.1240    2.9920   -1.2760 C   0  0  0  0  0  0  0  0  0  0  0  0
   -0.8770    1.9520   -0.4210 C   0  0  0  0  0  0  0  0  0  0  0  0
   -1.7890    0.9240   -0.1160 N   0  0  0  0  0  0  0  0  0  0  0  0
   -3.0770    0.7250   -0.6340 C   0  0  0  0  0  0  0  0  0  0  0  0
   -3.5310    1.5170   -1.4760 O   0  0  0  0  0  0  0  0  0  0  0  0
   -3.9370   -0.4280   -0.2020 C   0  0  0  0  0  0  0  0  0  0  0  0
   -5.1360   -0.4330   -0.8980 O   0  0  0  0  0  0  0  0  0  0  0  0
   -5.9510   -1.4900   -0.5010 C   0  0  0  0  0  0  0  0  0  0  0  0
   -7.2050   -1.4630   -1.3150 C   0  0  0  0  0  0  0  0  0  0  0  0
   -8.1170   -2.5420   -0.9580 N   0  0  0  0  0  0  0  0  0  0  0  0
  1  2  1  0
  2  3  2  0
  2  4  1  0
  4  5  1  0
  5  6  2  0
  5  7  1  0
  7  8  1  0
  8  9  1  0
  9 10  2  0
  9 11  1  0
 11 12  1  0
 12 13  1  0
 13 14  2  0
 13 18  1  0
 14 15  1  0
 15 16  2  0
 16 17  1  0
 17 18  2  0
 18 19  1  0
 19 20  1  0
 20 21  2  0
 20 22  1  0
 22 23  1  0
 23 24  1  0
 24 25  1  0
 25 26  1  0
M  CHG  1  26   1
M  END
