
     RDKit          3D

 26 26  0  0  0  0  0  0  0  0999 V2000
    7.1010    0.9970   -0.9360 C   0  0  0  0  0  0  0  0  0  0  0  0
    5.9280    0.2170   -0.4420 C   0  0  0  0  0  0  0  0  0  0  0  0
    5.8260   -0.7810    0.4260 C   0  0  0  0  0  0  0  0  0  0  0  0
    4.6140   -1.3240    0.7030 C   0  0  0  0  0  0  0  0  0  0  0  0
    4.4000   -2.4680    1.6990 C   0  0  0  0  0  0  0  0  0  0  0  0
    3.9340   -1.9070    3.0030 C   0  0  0  0  0  0  0  0  0  0  0  0
    4.8830   -1.0080    3.5430 O   0  0  0  0  0  0  0  0  0  0  0  0
    3.5400   -0.8030    0.0610 C   0  0  0  0  0  0  0  0  0  0  0  0
    2.0860   -1.1070    0.0710 C   0  0  0  0  0  0  0  0  0  0  0  0
    1.3850   -0.2020   -0.8580 N   0  0  0  0  0  0  0  0  0  0  0  0
   -0.0150   -0.2800   -1.0410 C   0  0  0  0  0  0  0  0  0  0  0  0
   -0.6240   -1.1630   -0.3680 O   0  0  0  0  0  0  0  0  0  0  0  0
   -0.7260    0.5720   -1.9250 N   0  0  0  0  0  0  0  0  0  0  0  0
   -2.1420    0.5270   -2.0550 C   0  0  0  0  0  0  0  0  0  0  0  0
   -2.9670    1.0120   -0.9080 C   0  0  1  0  0  0  0  0  0  0  0  0
   -4.3270    0.7410   -1.1700 O   0  0  0  0  0  0  0  0  0  0  0  0
   -5.0730    1.8620   -1.4350 C   0  0  0  0  0  0  0  0  0  0  0  0
   -6.5210    1.4890   -1.7070 C   0  0  0  0  0  0  0  0  0  0  0  0
   -6.6440    0.6070   -2.8350 N   0  0  0  0  0  0  0  0  0  0  0  0
   -2.5410    0.7690    0.4460 C   0  0  0  0  0  0  0  0  0  0  0  0
   -1.4240    1.2540    0.8560 O   0  0  0  0  0  0  0  0  0  0  0  0
   -3.2560    0.0200    1.4150 N   0  0  0  0  0  0  0  0  0  0  0  0
   -2.7500   -0.1610    2.7240 C   0  0  0  0  0  0  0  0  0  0  0  0
   -1.6510    0.3300    3.0930 O   0  0  0  0  0  0  0  0  0  0  0  0
   -3.4590   -0.9080    3.6860 O   0  0  0  0  0  0  0  0  0  0  0  0
    4.2680    0.4810   -0.9540 S   0  0  0  0  0  0  0  0  0  0  0  0
  1  2  1  0
  2  3  2  0
  2 26  1  0
  3  4  1  0
  4  5  1  0
  4  8  2  0
  5  6  1  0
  6  7  1  0
  8  9  1  0
  8 26  1  0
  9 10  1  0
 10 11  1  0
 11 12  2  0
 11 13  1  0
 13 14  1  0
 15 14  1  6
 15 16  1  0
 15 20  1  0
 16 17  1  0
 17 18  1  0
 18 19  1  0
 20 21  2  0
 20 22  1  0
 22 23  1  0
 23 24  2  0
 23 25  1  0
M  CHG  1  19   1
M  END
