
     RDKit          3D

 26 26  0  0  0  0  0  0  0  0999 V2000
   -4.2060   -3.2270   -0.4180 N   0  0  0  0  0  0  0  0  0  0  0  0
   -3.1070   -3.2970   -1.3910 C   0  0  0  0  0  0  0  0  0  0  0  0
   -2.0900   -2.2300   -1.1350 C   0  0  0  0  0  0  0  0  0  0  0  0
   -1.5280   -2.3790    0.2470 C   0  0  1  0  0  0  0  0  0  0  0  0
   -0.8650   -3.7560    0.3370 C   0  0  0  0  0  0  0  0  0  0  0  0
    0.2150   -3.9010   -0.5000 O   0  0  0  0  0  0  0  0  0  0  0  0
   -0.6410   -1.3050    0.6120 N   0  0  0  0  0  0  0  0  0  0  0  0
   -0.9190   -0.5590    1.8040 C   0  0  0  0  0  0  0  0  0  0  0  0
   -1.7850    0.5860    1.5360 C   0  0  0  0  0  0  0  0  0  0  0  0
   -2.9830    0.8130    1.0030 C   0  0  0  0  0  0  0  0  0  0  0  0
   -3.4930    2.0540    0.9230 C   0  0  0  0  0  0  0  0  0  0  0  0
   -2.7680    3.0950    1.3970 C   0  0  0  0  0  0  0  0  0  0  0  0
   -2.9940    4.5280    1.4750 C   0  0  0  0  0  0  0  0  0  0  0  0
   -2.1680    5.3290    1.9650 O   0  0  0  0  0  0  0  0  0  0  0  0
   -4.1830    5.0190    0.9810 O   0  0  0  0  0  0  0  0  0  0  0  0
   -1.2760    2.2540    1.9890 S   0  0  0  0  0  0  0  0  0  0  0  0
    0.4710   -0.9970   -0.1850 C   0  0  0  0  0  0  0  0  0  0  0  0
    0.8090   -1.5560   -1.2530 O   0  0  0  0  0  0  0  0  0  0  0  0
    1.3810    0.1200    0.2570 C   0  0  0  0  0  0  0  0  0  0  0  0
    2.4790    0.3060   -0.6680 N   0  0  0  0  0  0  0  0  0  0  0  0
    3.4160    1.3440   -0.3540 C   0  0  0  0  0  0  0  0  0  0  0  0
    3.2530    2.0350    0.6860 O   0  0  0  0  0  0  0  0  0  0  0  0
    4.5310    1.6200   -1.1830 N   0  0  0  0  0  0  0  0  0  0  0  0
    5.4780    2.6550   -0.8800 C   0  0  0  0  0  0  0  0  0  0  0  0
    6.1750    2.4420    0.4450 C   0  0  0  0  0  0  0  0  0  0  0  0
    7.0720    3.4980    0.6440 O   0  0  0  0  0  0  0  0  0  0  0  0
  1  2  1  0
  2  3  1  0
  4  3  1  6
  4  5  1  0
  4  7  1  0
  5  6  1  0
  7  8  1  0
  7 17  1  0
  8  9  1  0
  9 10  2  0
  9 16  1  0
 10 11  1  0
 11 12  2  0
 12 13  1  0
 12 16  1  0
 13 14  2  0
 13 15  1  0
 17 18  2  0
 17 19  1  0
 19 20  1  0
 20 21  1  0
 21 22  2  0
 21 23  1  0
 23 24  1  0
 24 25  1  0
 25 26  1  0
M  CHG  1   1   1
M  END
