
     RDKit          3D

 21 22  0  0  0  0  0  0  0  0999 V2000
    3.4250    1.5250    0.6350 C   0  0  0  0  0  0  0  0  0  0  0  0
    2.7850    0.2230    0.3200 C   0  0  1  0  0  0  0  0  0  0  0  0
    3.7130   -0.9010    0.7480 C   0  0  2  0  0  0  0  0  0  0  0  0
    3.9330   -0.7900    2.1160 O   0  0  0  0  0  0  0  0  0  0  0  0
    4.9390   -0.8150    0.0930 O   0  0  0  0  0  0  0  0  0  0  0  0
    1.1920   -0.0050    1.2040 S   0  0  0  0  0  0  0  0  0  0  0  0
    0.0590    0.0910   -0.2420 C   0  0  1  0  0  0  0  0  0  0  0  0
   -0.2920   -1.2340   -0.7630 C   0  0  0  0  0  0  0  0  0  0  0  0
   -1.6860   -1.6910   -0.5570 C   0  0  1  0  0  0  0  0  0  0  0  0
   -1.7790   -3.1320   -0.5110 N   0  0  0  0  0  0  0  0  0  0  0  0
   -2.3240   -1.0260    0.6260 C   0  0  0  0  0  0  0  0  0  0  0  0
   -2.3870    0.4490    0.2640 C   0  0  1  0  0  0  0  0  0  0  0  0
   -3.0990    1.1650    1.2230 O   0  0  0  0  0  0  0  0  0  0  0  0
   -4.2590    1.6960    0.7020 C   0  0  1  0  0  0  0  0  0  0  0  0
   -5.4080    1.2780    1.3380 O   0  0  0  0  0  0  0  0  0  0  0  0
   -4.1620    3.0890    0.8010 O   0  0  0  0  0  0  0  0  0  0  0  0
   -1.0250    1.0390    0.0570 C   0  0  0  0  0  0  0  0  0  0  0  0
    1.0040    0.7680   -1.2460 C   0  0  1  0  0  0  0  0  0  0  0  0
    1.1280    2.0980   -0.9360 O   0  0  0  0  0  0  0  0  0  0  0  0
    2.3330    0.0730   -1.1060 C   0  0  2  0  0  0  0  0  0  0  0  0
    2.2900   -1.2620   -1.4280 O   0  0  0  0  0  0  0  0  0  0  0  0
  2  1  1  6
  2  3  1  0
  2  6  1  0
  2 20  1  0
  3  4  1  1
  3  5  1  0
  6  7  1  0
  7  8  1  6
  7 17  1  0
  7 18  1  0
  8  9  1  0
  9 10  1  1
  9 11  1  0
 11 12  1  0
 12 13  1  1
 12 17  1  0
 13 14  1  0
 14 15  1  1
 14 16  1  0
 18 19  1  1
 18 20  1  0
 20 21  1  1
M  CHG  1  10   1
M  END
