
     RDKit          3D

 26 26  0  0  0  0  0  0  0  0999 V2000
   -6.2510    1.6620   -1.1420 C   0  0  0  0  0  0  0  0  0  0  0  0
   -5.8000    0.8320   -0.0090 C   0  0  0  0  0  0  0  0  0  0  0  0
   -4.4360    0.6990    0.2680 O   0  0  0  0  0  0  0  0  0  0  0  0
   -3.7920   -0.5140   -0.0050 C   0  0  0  0  0  0  0  0  0  0  0  0
   -2.3210   -0.3510    0.4010 C   0  0  2  0  0  0  0  0  0  0  0  0
   -2.2630   -0.0520    1.7590 O   0  0  0  0  0  0  0  0  0  0  0  0
   -1.8020    0.8300   -0.3700 C   0  0  0  0  0  0  0  0  0  0  0  0
   -0.4360    1.1360   -0.0130 N   0  0  0  0  0  0  0  0  0  0  0  0
    0.6450    0.2000   -0.1870 C   0  0  0  0  0  0  0  0  0  0  0  0
    0.3940   -0.9230   -0.6690 O   0  0  0  0  0  0  0  0  0  0  0  0
    1.9770    0.5230    0.1720 N   0  0  0  0  0  0  0  0  0  0  0  0
    3.0840   -0.3920    0.0010 C   0  0  1  0  0  0  0  0  0  0  0  0
    4.3070    0.2700    0.5300 C   0  0  0  0  0  0  0  0  0  0  0  0
    4.2120    1.4230    1.0060 O   0  0  0  0  0  0  0  0  0  0  0  0
    5.5550   -0.3330    0.5210 O   0  0  0  0  0  0  0  0  0  0  0  0
    6.6690    0.3630    1.0420 C   0  0  0  0  0  0  0  0  0  0  0  0
    6.9350    1.6230    0.3440 C   0  0  0  0  0  0  0  0  0  0  0  0
    6.1370    2.0690   -0.7390 N   0  0  0  0  0  0  0  0  0  0  0  0
    7.8960    2.3390    0.7080 O   0  0  0  0  0  0  0  0  0  0  0  0
    2.8980   -1.6690    0.7640 C   0  0  0  0  0  0  0  0  0  0  0  0
    2.9860   -2.7960   -0.2300 C   0  0  0  0  0  0  0  0  0  0  0  0
    3.7960   -2.2200   -1.3670 C   0  0  0  0  0  0  0  0  0  0  0  0
    3.2860   -0.8030   -1.4470 C   0  0  0  0  0  0  0  0  0  0  0  0
   -6.6380    0.1850    0.7850 C   0  0  0  0  0  0  0  0  0  0  0  0
   -8.0380    0.2800    0.5550 N   0  0  0  0  0  0  0  0  0  0  0  0
   -6.0800   -0.8160    2.1520 S   0  0  0  0  0  0  0  0  0  0  0  0
  1  2  1  0
  2  3  1  0
  2 24  2  3
  3  4  1  0
  4  5  1  0
  5  6  1  1
  5  7  1  0
  7  8  1  0
  8  9  1  0
  9 10  2  0
  9 11  1  0
 12 11  1  6
 12 13  1  0
 12 20  1  0
 12 23  1  0
 13 14  2  0
 13 15  1  0
 15 16  1  0
 16 17  1  0
 17 18  1  0
 17 19  2  0
 20 21  1  0
 21 22  1  0
 22 23  1  0
 24 25  1  0
 24 26  1  0
M  CHG  1  25   1
M  END
