
     RDKit          3D

 26 26  0  0  0  0  0  0  0  0999 V2000
   -0.7340   -3.8110    1.5250 C   0  0  0  0  0  0  0  0  0  0  0  0
   -1.6590   -2.6580    1.2800 C   0  0  0  0  0  0  0  0  0  0  0  0
   -1.4990   -2.1350   -0.1270 C   0  0  1  0  0  0  0  0  0  0  0  0
   -1.8440   -3.3270   -1.0420 C   0  0  0  0  0  0  0  0  0  0  0  0
   -1.7350   -2.9800   -2.3680 O   0  0  0  0  0  0  0  0  0  0  0  0
   -2.4240   -1.0390   -0.4870 C   0  0  0  0  0  0  0  0  0  0  0  0
   -2.3670    0.1540    0.2870 N   0  0  0  0  0  0  0  0  0  0  0  0
   -3.6080    0.9260    0.0820 C   0  0  0  0  0  0  0  0  0  0  0  0
   -3.3350    2.3550    0.4400 C   0  0  0  0  0  0  0  0  0  0  0  0
   -4.5870    3.1640    0.2450 C   0  0  0  0  0  0  0  0  0  0  0  0
   -4.5840    4.5730    0.4620 N   0  0  0  0  0  0  0  0  0  0  0  0
   -5.6420    2.5830   -0.1120 O   0  0  0  0  0  0  0  0  0  0  0  0
   -0.0910   -1.7610   -0.4400 C   0  0  0  0  0  0  0  0  0  0  0  0
    0.4350   -2.2740   -1.4460 O   0  0  0  0  0  0  0  0  0  0  0  0
    0.5470   -0.8620    0.4070 N   0  0  0  0  0  0  0  0  0  0  0  0
    1.8630   -0.4110    0.2400 C   0  0  0  0  0  0  0  0  0  0  0  0
    2.5020    0.2410    1.3140 C   0  0  0  0  0  0  0  0  0  0  0  0
    3.7780    0.7160    1.2040 C   0  0  0  0  0  0  0  0  0  0  0  0
    4.5220    0.5920    0.0490 C   0  0  0  0  0  0  0  0  0  0  0  0
    5.8180    1.0700   -0.0760 O   0  0  0  0  0  0  0  0  0  0  0  0
    5.9740    2.6880   -0.6400 S   0  0  1  0  0  0  0  0  0  0  0  0
    7.5930    3.0530   -1.0670 N   0  0  0  0  0  0  0  0  0  0  0  0
    5.1420    2.7720   -1.8970 O   0  0  0  0  0  0  0  0  0  0  0  0
    5.4080    3.5910    0.3930 O   0  0  0  0  0  0  0  0  0  0  0  0
    3.9000   -0.0440   -1.0000 C   0  0  0  0  0  0  0  0  0  0  0  0
    2.5940   -0.5390   -0.9130 C   0  0  0  0  0  0  0  0  0  0  0  0
  1  2  1  0
  3  2  1  1
  3  4  1  0
  3  6  1  0
  3 13  1  0
  4  5  1  0
  6  7  1  0
  7  8  1  0
  8  9  1  0
  9 10  1  0
 10 11  1  0
 10 12  2  0
 13 14  2  0
 13 15  1  0
 15 16  1  0
 16 17  2  0
 16 26  1  0
 17 18  1  0
 18 19  2  0
 19 20  1  0
 19 25  1  0
 20 21  1  0
 21 22  1  6
 21 23  2  0
 21 24  2  0
 25 26  2  0
M  CHG  1   7   1
M  END
