
     RDKit          3D

 26 26  0  0  0  0  0  0  0  0999 V2000
    0.9530    5.7260   -1.8310 N   0  0  0  0  0  0  0  0  0  0  0  0
    0.8000    4.3700   -1.3570 C   0  0  0  0  0  0  0  0  0  0  0  0
    1.6280    3.4940   -1.6810 O   0  0  0  0  0  0  0  0  0  0  0  0
   -0.2830    4.0140   -0.5220 N   0  0  0  0  0  0  0  0  0  0  0  0
   -0.5700    2.7440    0.0260 C   0  0  0  0  0  0  0  0  0  0  0  0
   -1.8120    2.5970    0.6030 C   0  0  0  0  0  0  0  0  0  0  0  0
   -2.1780    1.4060    1.1730 C   0  0  0  0  0  0  0  0  0  0  0  0
   -1.3250    0.3490    1.1790 C   0  0  0  0  0  0  0  0  0  0  0  0
   -1.6680   -0.8460    1.7440 O   0  0  0  0  0  0  0  0  0  0  0  0
   -2.9030   -1.0750    2.3280 C   0  0  0  0  0  0  0  0  0  0  0  0
   -3.9780   -0.9830    1.3210 C   0  0  0  0  0  0  0  0  0  0  0  0
   -5.2110   -1.0730    1.6600 O   0  0  0  0  0  0  0  0  0  0  0  0
   -3.6550   -0.8000   -0.0190 O   0  0  0  0  0  0  0  0  0  0  0  0
   -4.6890   -0.7250   -0.9850 C   0  0  2  0  0  0  0  0  0  0  0  0
   -4.5600   -2.1880   -2.0830 S   0  0  0  0  0  0  0  0  0  0  0  0
   -4.5290    0.4670   -1.8220 C   0  0  0  0  0  0  0  0  0  0  0  0
   -3.6210    1.2710   -1.7110 O   0  0  0  0  0  0  0  0  0  0  0  0
   -0.0490    0.4820    0.5930 C   0  0  0  0  0  0  0  0  0  0  0  0
    0.7830   -0.6540    0.6360 N   0  0  0  0  0  0  0  0  0  0  0  0
    2.0720   -0.7090    0.1020 C   0  0  0  0  0  0  0  0  0  0  0  0
    2.6150    0.2320   -0.4630 O   0  0  0  0  0  0  0  0  0  0  0  0
    2.8310   -2.0070    0.2340 C   0  0  0  0  0  0  0  0  0  0  0  0
    4.1700   -1.8350   -0.4020 C   0  0  0  0  0  0  0  0  0  0  0  0
    4.9180   -3.1640   -0.2540 C   0  0  0  0  0  0  0  0  0  0  0  0
    5.0770   -3.5140    1.1300 N   0  0  0  0  0  0  0  0  0  0  0  0
    0.2990    1.6830    0.0280 C   0  0  0  0  0  0  0  0  0  0  0  0
  1  2  1  0
  2  3  2  0
  2  4  1  0
  4  5  1  0
  5  6  2  0
  5 26  1  0
  6  7  1  0
  7  8  2  0
  8  9  1  0
  8 18  1  0
  9 10  1  0
 10 11  1  0
 11 12  2  0
 11 13  1  0
 13 14  1  0
 14 15  1  6
 14 16  1  0
 16 17  2  0
 18 19  1  0
 18 26  2  0
 19 20  1  0
 20 21  2  0
 20 22  1  0
 22 23  1  0
 23 24  1  0
 24 25  1  0
M  CHG  1  25   1
M  END
