
     RDKit          3D

 27 29  0  0  0  0  0  0  0  0999 V2000
    7.5820    0.4880   -0.7260 N   0  0  0  0  0  0  0  0  0  0  0  0
    6.4240   -0.1810   -0.3260 C   0  0  0  0  0  0  0  0  0  0  0  0
    6.4500   -1.2060    0.5740 N   0  0  0  0  0  0  0  0  0  0  0  0
    5.2950   -1.7560    1.0590 C   0  0  0  0  0  0  0  0  0  0  0  0
    4.1260   -1.2810    0.6490 N   0  0  0  0  0  0  0  0  0  0  0  0
    4.0420   -0.2550   -0.2530 C   0  0  0  0  0  0  0  0  0  0  0  0
    5.2020    0.2800   -0.7270 C   0  0  0  0  0  0  0  0  0  0  0  0
    4.8210    1.2470   -1.6190 N   0  0  0  0  0  0  0  0  0  0  0  0
    3.4920    1.2850   -1.6570 C   0  0  0  0  0  0  0  0  0  0  0  0
    3.0630    0.3830   -0.8240 N   0  0  0  0  0  0  0  0  0  0  0  0
    1.6780    0.1130   -0.5310 C   0  0  2  0  0  0  0  0  0  0  0  0
    1.0250    1.3610   -0.2910 O   0  0  0  0  0  0  0  0  0  0  0  0
   -0.1040    0.8640    0.2180 C   0  0  2  0  0  0  0  0  0  0  0  0
   -1.3570    1.6250    0.3480 C   0  0  0  0  0  0  0  0  0  0  0  0
   -2.1360    0.6520    0.9740 O   0  0  0  0  0  0  0  0  0  0  0  0
   -3.4420    0.5360    0.0510 P   0  0  0  0  0  0  0  0  0  0  0  0
   -3.7490    1.9000   -0.5910 O   0  0  0  0  0  0  0  0  0  0  0  0
   -3.1020   -0.5490   -1.2500 O   0  0  0  0  0  0  0  0  0  0  0  0
   -4.9230    0.5070    0.6030 O   0  0  0  0  0  0  0  0  0  0  0  0
   -6.1420   -0.5160   -0.2000 P   0  0  0  0  0  0  0  0  0  0  0  0
   -7.4710   -0.5740    0.8880 O   0  0  0  0  0  0  0  0  0  0  0  0
   -5.4970   -1.9930   -0.4900 O   0  0  0  0  0  0  0  0  0  0  0  0
   -6.4240    0.3510   -1.5010 O   0  0  0  0  0  0  0  0  0  0  0  0
    0.2840    0.0620    1.4070 C   0  0  1  0  0  0  0  0  0  0  0  0
   -0.6610   -0.9540    1.6100 O   0  0  0  0  0  0  0  0  0  0  0  0
    1.5730   -0.5470    0.8220 C   0  0  1  0  0  0  0  0  0  0  0  0
    1.4500   -1.9120    0.7960 O   0  0  0  0  0  0  0  0  0  0  0  0
  1  2  1  0
  2  3  2  0
  2  7  1  0
  3  4  1  0
  4  5  2  0
  5  6  1  0
  6  7  2  0
  6 10  1  0
  7  8  1  0
  8  9  2  0
  9 10  1  0
 11 10  1  1
 11 12  1  0
 11 26  1  0
 12 13  1  0
 13 14  1  1
 13 24  1  0
 14 15  1  0
 15 16  1  0
 16 17  1  0
 16 18  1  0
 16 19  1  0
 19 20  1  0
 20 21  1  0
 20 22  1  0
 20 23  1  0
 24 25  1  6
 24 26  1  0
 26 27  1  6
M  END
