
     RDKit          3D

 20 20  0  0  0  0  0  0  0  0999 V2000
    6.3720    0.0520    0.3290 C   0  0  0  0  0  0  0  0  0  0  0  0
    5.0200   -0.0770    0.7220 O   0  0  0  0  0  0  0  0  0  0  0  0
    3.9750   -0.2090   -0.1630 C   0  0  0  0  0  0  0  0  0  0  0  0
    4.2280   -0.2170   -1.3870 O   0  0  0  0  0  0  0  0  0  0  0  0
    2.6450   -0.3350    0.2490 O   0  0  0  0  0  0  0  0  0  0  0  0
    1.6070   -0.4680   -0.6740 C   0  0  0  0  0  0  0  0  0  0  0  0
    1.9410   -0.4670   -1.8680 O   0  0  0  0  0  0  0  0  0  0  0  0
    0.2620   -0.5960   -0.2920 N   0  0  0  0  0  0  0  0  0  0  0  0
   -0.0940   -0.6010    1.1650 C   0  0  0  0  0  0  0  0  0  0  0  0
   -1.4750   -0.0030    1.2080 C   0  0  1  0  0  0  0  0  0  0  0  0
   -1.5830    1.4280    2.3730 P   0  0  0  0  0  0  0  0  0  0  0  0
   -3.2050    1.4960    2.9900 O   0  0  0  0  0  0  0  0  0  0  0  0
   -0.5390    1.0760    3.7200 O   0  0  0  0  0  0  0  0  0  0  0  0
   -1.7310    0.4490   -0.2420 C   0  0  2  0  0  0  0  0  0  0  0  0
   -3.1920    0.4530   -0.5130 C   0  0  0  0  0  0  0  0  0  0  0  0
   -3.4630    0.8870   -1.8560 N   0  0  0  0  0  0  0  0  0  0  0  0
   -0.9990   -0.7430   -0.9090 C   0  0  1  0  0  0  0  0  0  0  0  0
   -1.1380   -0.7570   -2.3360 C   0  0  0  0  0  0  0  0  0  0  0  0
   -0.2020   -0.4070   -3.0900 O   0  0  0  0  0  0  0  0  0  0  0  0
   -2.2990   -1.1530   -3.0130 O   0  0  0  0  0  0  0  0  0  0  0  0
  1  2  1  0
  2  3  1  0
  3  4  2  0
  3  5  1  0
  5  6  1  0
  6  7  2  0
  6  8  1  0
  8  9  1  0
  8 17  1  0
  9 10  1  0
 10 11  1  1
 10 14  1  0
 11 12  1  0
 11 13  1  0
 14 15  1  6
 14 17  1  0
 15 16  1  0
 17 18  1  6
 18 19  2  0
 18 20  1  0
M  END
