
     RDKit          3D

 20 21  0  0  0  0  0  0  0  0999 V2000
    5.4560    1.6240   -2.1450 O   0  0  0  0  0  0  0  0  0  0  0  0
    5.0000    0.8290   -1.2790 C   0  0  0  0  0  0  0  0  0  0  0  0
    5.0030    1.0060    0.1200 N   0  0  0  0  0  0  0  0  0  0  0  0
    4.0070    0.1130    0.6780 C   0  0  0  0  0  0  0  0  0  0  0  0
    3.5920   -0.7890   -0.4560 C   0  0  1  0  0  0  0  0  0  0  0  0
    2.1710   -0.6130   -0.8300 C   0  0  0  0  0  0  0  0  0  0  0  0
    1.8750   -0.1860   -1.9720 O   0  0  0  0  0  0  0  0  0  0  0  0
    1.1170   -0.8960    0.0240 O   0  0  0  0  0  0  0  0  0  0  0  0
   -0.2340   -0.7330   -0.3190 C   0  0  1  0  0  0  0  0  0  0  0  0
   -0.9520   -2.0170   -0.0870 C   0  0  0  0  0  0  0  0  0  0  0  0
   -0.5540   -3.1470   -0.0300 O   0  0  0  0  0  0  0  0  0  0  0  0
   -2.3910   -1.6090    0.0790 C   0  0  0  0  0  0  0  0  0  0  0  0
   -2.3150   -0.2510    0.5790 N   0  0  0  0  0  0  0  0  0  0  0  0
   -3.4180    0.5740    1.0130 C   0  0  0  0  0  0  0  0  0  0  0  0
   -4.1330    1.5730   -0.3690 P   0  0  0  0  0  0  0  0  0  0  0  0
   -5.0460    0.6370   -1.4740 O   0  0  0  0  0  0  0  0  0  0  0  0
   -5.0050    2.9390    0.2320 O   0  0  0  0  0  0  0  0  0  0  0  0
   -0.9600    0.1810    0.5880 C   0  0  0  0  0  0  0  0  0  0  0  0
   -0.4710    1.1550    1.2430 O   0  0  0  0  0  0  0  0  0  0  0  0
    4.3890   -0.4080   -1.5580 O   0  0  0  0  0  0  0  0  0  0  0  0
  1  2  2  0
  2  3  1  0
  2 20  1  0
  3  4  1  0
  4  5  1  0
  5  6  1  6
  5 20  1  0
  6  7  2  0
  6  8  1  0
  9  8  1  1
  9 10  1  0
  9 18  1  0
 10 11  2  0
 10 12  1  0
 12 13  1  0
 13 14  1  0
 13 18  1  0
 14 15  1  0
 15 16  1  0
 15 17  1  0
 18 19  2  0
M  END
