
     RDKit          3D

 20 21  0  0  0  0  0  0  0  0999 V2000
   -1.5890    0.9030    1.5400 N   0  0  0  0  0  0  0  0  0  0  0  0
   -2.3000    0.3830    0.4330 C   0  0  2  0  0  0  0  0  0  0  0  0
   -1.6370   -0.6800   -0.3620 C   0  0  0  0  0  0  0  0  0  0  0  0
   -0.3640   -0.9240   -0.5640 C   0  0  0  0  0  0  0  0  0  0  0  0
    0.7790   -0.1530   -0.0220 C   0  0  0  0  0  0  0  0  0  0  0  0
    0.7330    0.8320    0.6880 O   0  0  0  0  0  0  0  0  0  0  0  0
    2.0850   -0.6210   -0.3740 N   0  0  0  0  0  0  0  0  0  0  0  0
    3.2560    0.0900    0.1240 C   0  0  0  0  0  0  0  0  0  0  0  0
    4.4050   -0.5020   -0.3160 O   0  0  0  0  0  0  0  0  0  0  0  0
    5.8100    0.3270    0.2650 P   0  0  0  0  0  0  0  0  0  0  0  0
    5.6450    0.7020    1.9530 O   0  0  0  0  0  0  0  0  0  0  0  0
    5.9660    1.8230   -0.5960 O   0  0  0  0  0  0  0  0  0  0  0  0
   -0.2270   -2.1190   -1.4230 C   0  0  0  0  0  0  0  0  0  0  0  0
   -1.5090   -2.4670   -1.8080 O   0  0  0  0  0  0  0  0  0  0  0  0
   -2.3950   -1.6760   -1.1640 C   0  0  0  0  0  0  0  0  0  0  0  0
   -3.6570   -1.7730   -1.2360 O   0  0  0  0  0  0  0  0  0  0  0  0
   -3.0190    1.3850   -0.4000 C   0  0  0  0  0  0  0  0  0  0  0  0
   -4.2100    0.7420   -0.7260 O   0  0  0  0  0  0  0  0  0  0  0  0
   -4.5510    0.2370    0.5280 C   0  0  0  0  0  0  0  0  0  0  0  0
   -3.4100   -0.2980    1.0410 O   0  0  0  0  0  0  0  0  0  0  0  0
  2  1  1  1
  2  3  1  0
  2 17  1  0
  2 20  1  0
  3  4  2  0
  3 15  1  0
  4  5  1  0
  4 13  1  0
  5  6  2  0
  5  7  1  0
  7  8  1  0
  8  9  1  0
  9 10  1  0
 10 11  1  0
 10 12  1  0
 13 14  1  0
 14 15  1  0
 15 16  2  0
 17 18  1  0
 18 19  1  0
 19 20  1  0
M  END
