
     RDKit          3D

 36 36  0  0  0  0  0  0  0  0999 V2000
    4.4930    0.0720   -1.2960 N   0  0  0  0  0  0  0  0  0  0  0  0
    3.3740    0.5420   -0.8600 C   0  0  0  0  0  0  0  0  0  0  0  0
    3.1820    1.9460   -0.9270 N   0  0  0  0  0  0  0  0  0  0  0  0
    4.5560    3.0960   -0.8460 P   0  0  0  0  0  0  0  0  0  0  0  0
    5.4340    2.8070    0.6210 O   0  0  0  0  0  0  0  0  0  0  0  0
    5.6500    2.8670   -2.1710 O   0  0  0  0  0  0  0  0  0  0  0  0
    2.4270   -0.3700   -0.3500 N   0  0  0  0  0  0  0  0  0  0  0  0
    2.5990   -0.8610    0.9910 C   0  0  0  0  0  0  0  0  0  0  0  0
    1.8280   -0.0640    1.9880 C   0  0  0  0  0  0  0  0  0  0  0  0
    2.1260    1.1550    2.0930 O   0  0  0  0  0  0  0  0  0  0  0  0
    0.8030   -0.6270    2.7930 N   0  0  0  0  0  0  0  0  0  0  0  0
    0.6040   -0.1130    4.1030 C   0  0  0  0  0  0  0  0  0  0  0  0
   -0.2880   -0.5620    4.8790 O   0  0  0  0  0  0  0  0  0  0  0  0
    1.3790    0.9230    4.6240 O   0  0  0  0  0  0  0  0  0  0  0  0
   -0.0660   -1.7060    2.3610 C   0  0  0  0  0  0  0  0  0  0  0  0
   -1.4710   -1.1740    2.1970 C   0  0  0  0  0  0  0  0  0  0  0  0
   -2.0350   -1.4210    0.9710 O   0  0  0  0  0  0  0  0  0  0  0  0
   -2.5700   -0.2550    0.3620 C   0  0  1  0  0  0  0  0  0  0  0  0
   -2.9260   -0.5850   -0.9420 N   0  0  0  0  0  0  0  0  0  0  0  0
   -3.5510    0.3020   -1.8120 C   0  0  0  0  0  0  0  0  0  0  0  0
   -2.7620    1.4860   -2.2950 C   0  0  0  0  0  0  0  0  0  0  0  0
   -3.6220    2.2140   -3.1550 O   0  0  0  0  0  0  0  0  0  0  0  0
   -3.7880    0.0860    1.1980 C   0  0  1  0  0  0  0  0  0  0  0  0
   -4.4670    1.2000    0.6930 O   0  0  0  0  0  0  0  0  0  0  0  0
   -4.7280   -1.0780    1.2550 C   0  0  0  0  0  0  0  0  0  0  0  0
   -5.9110   -0.8910    0.8820 O   0  0  0  0  0  0  0  0  0  0  0  0
   -4.3400   -2.3140    1.6940 O   0  0  0  0  0  0  0  0  0  0  0  0
   -1.5060    0.7620    0.5080 C   0  0  0  0  0  0  0  0  0  0  0  0
   -1.7890    1.8270    1.1180 O   0  0  0  0  0  0  0  0  0  0  0  0
   -0.2180    0.6520    0.0320 O   0  0  0  0  0  0  0  0  0  0  0  0
    0.1550    0.1290   -1.1940 C   0  0  0  0  0  0  0  0  0  0  0  0
    1.3250   -0.7960   -1.1480 C   0  0  1  0  0  0  0  0  0  0  0  0
    1.7330   -1.0510   -2.6060 C   0  0  0  0  0  0  0  0  0  0  0  0
    2.7130   -2.0500   -2.6510 O   0  0  0  0  0  0  0  0  0  0  0  0
    3.2130   -2.3860   -4.2570 P   0  0  0  0  0  0  0  0  0  0  0  0
    3.6670   -3.7990   -4.6990 O   0  0  0  0  0  0  0  0  0  0  0  0
  1  2  2  0
  2  3  1  0
  2  7  1  0
  3  4  1  0
  4  5  1  0
  4  6  1  0
  7  8  1  0
  7 32  1  0
  8  9  1  0
  9 10  2  0
  9 11  1  0
 11 12  1  0
 11 15  1  0
 12 13  2  0
 12 14  1  0
 15 16  1  0
 16 17  1  0
 17 18  1  0
 18 19  1  6
 18 23  1  0
 18 28  1  0
 19 20  1  0
 20 21  1  0
 21 22  1  0
 23 24  1  6
 23 25  1  0
 25 26  2  0
 25 27  1  0
 28 29  2  0
 28 30  1  0
 30 31  1  0
 31 32  1  0
 32 33  1  6
 33 34  1  0
 34 35  1  0
 35 36  2  0
M  END
