
     RDKit          3D

 35 38  0  0  0  0  0  0  0  0999 V2000
   -0.8630    3.3060   -0.4910 O   0  0  0  0  0  0  0  0  0  0  0  0
   -1.6500    2.3640   -0.3560 C   0  0  0  0  0  0  0  0  0  0  0  0
   -3.0310    2.6940   -0.2420 N   0  0  0  0  0  0  0  0  0  0  0  0
   -3.4890    4.0730   -0.2840 C   0  0  0  0  0  0  0  0  0  0  0  0
   -4.9840    4.1460   -0.1420 C   0  0  0  0  0  0  0  0  0  0  0  0
   -5.3680    3.5510    1.1440 N   0  0  0  0  0  0  0  0  0  0  0  0
   -6.7190    3.6200    1.2660 O   0  0  0  0  0  0  0  0  0  0  0  0
   -1.2500    0.9790   -0.3090 C   0  0  0  0  0  0  0  0  0  0  0  0
   -2.0980   -0.0950   -0.1610 N   0  0  0  0  0  0  0  0  0  0  0  0
   -1.3890   -1.2240   -0.1600 C   0  0  0  0  0  0  0  0  0  0  0  0
   -1.8260   -2.6310   -0.0310 C   0  0  1  0  0  0  0  0  0  0  0  0
   -1.0150   -3.3590    0.8630 O   0  0  0  0  0  0  0  0  0  0  0  0
   -1.7810   -4.3250    1.2550 O   0  0  0  0  0  0  0  0  0  0  0  0
   -2.9930   -3.9000    1.4070 O   0  0  0  0  0  0  0  0  0  0  0  0
   -3.1660   -2.7650    0.6360 C   0  0  2  0  0  0  0  0  0  0  0  0
   -4.3140   -2.8460   -0.3230 C   0  0  0  0  0  0  0  0  0  0  0  0
   -5.3810   -2.3530    0.3830 O   0  0  0  0  0  0  0  0  0  0  0  0
   -4.9000   -1.3830    1.2330 N   0  0  0  0  0  0  0  0  0  0  0  0
   -3.5290   -1.6380    1.4820 C   0  0  0  0  0  0  0  0  0  0  0  0
   -2.8030   -1.0120    2.2690 O   0  0  0  0  0  0  0  0  0  0  0  0
   -0.1460   -0.8680   -0.3010 O   0  0  0  0  0  0  0  0  0  0  0  0
   -0.0090    0.4220   -0.3940 C   0  0  0  0  0  0  0  0  0  0  0  0
    1.2670    1.0720   -0.5560 C   0  0  0  0  0  0  0  0  0  0  0  0
    1.3700    2.3020   -0.6410 O   0  0  0  0  0  0  0  0  0  0  0  0
    2.4790    0.3210   -0.6260 N   0  0  0  0  0  0  0  0  0  0  0  0
    3.7530    0.9840   -0.7890 C   0  0  0  0  0  0  0  0  0  0  0  0
    4.5100    0.4260   -1.9820 C   0  0  0  0  0  0  0  0  0  0  0  0
    5.2250   -0.6800   -1.5200 O   0  0  0  0  0  0  0  0  0  0  0  0
    4.2200   -1.7290   -0.6110 P   0  0  0  0  0  0  0  0  0  0  0  0
    4.8880   -2.0800    0.9310 O   0  0  0  0  0  0  0  0  0  0  0  0
    6.1710   -1.5480    1.0550 C   0  0  0  0  0  0  0  0  0  0  0  0
    7.3270   -2.2480   -0.2390 P   0  0  0  0  0  0  0  0  0  0  0  0
    8.0770   -3.6950    0.3220 O   0  0  0  0  0  0  0  0  0  0  0  0
    8.5070   -1.0470   -0.6590 O   0  0  0  0  0  0  0  0  0  0  0  0
    2.4740   -1.1250   -0.5370 C   0  0  0  0  0  0  0  0  0  0  0  0
  1  2  2  0
  2  3  1  0
  2  8  1  0
  3  4  1  0
  4  5  1  0
  5  6  1  0
  6  7  1  0
  8  9  1  0
  8 22  2  0
  9 10  2  0
 11 10  1  1
 10 21  1  0
 11 12  1  0
 11 15  1  0
 12 13  1  0
 13 14  1  0
 14 15  1  0
 15 16  1  6
 15 19  1  0
 16 17  1  0
 17 18  1  0
 18 19  1  0
 19 20  2  0
 21 22  1  0
 22 23  1  0
 23 24  2  0
 23 25  1  0
 25 26  1  0
 25 35  1  0
 26 27  1  0
 27 28  1  0
 28 29  1  0
 29 30  1  0
 29 35  1  0
 30 31  1  0
 31 32  1  0
 32 33  1  0
 32 34  1  0
M  END
