
     RDKit          3D

 36 38  0  0  0  0  0  0  0  0999 V2000
    7.8100    0.0290   -1.4420 N   0  0  0  0  0  0  0  0  0  0  0  0
    7.3110   -0.8000   -2.2140 C   0  0  0  0  0  0  0  0  0  0  0  0
    6.0650   -1.2850   -1.8600 N   0  0  0  0  0  0  0  0  0  0  0  0
    5.4620   -2.5220   -2.0420 C   0  0  0  0  0  0  0  0  0  0  0  0
    6.2440   -3.3120   -2.5640 O   0  0  0  0  0  0  0  0  0  0  0  0
    4.0830   -2.8160   -1.6520 C   0  0  0  0  0  0  0  0  0  0  0  0
    3.5260   -1.6220   -1.0400 O   0  0  0  0  0  0  0  0  0  0  0  0
    2.2090   -1.7030   -0.5980 C   0  0  0  0  0  0  0  0  0  0  0  0
    1.4640   -2.8590   -0.7330 C   0  0  0  0  0  0  0  0  0  0  0  0
    0.1820   -2.8850   -0.2860 N   0  0  0  0  0  0  0  0  0  0  0  0
   -0.3820   -1.7990    0.2900 C   0  0  0  0  0  0  0  0  0  0  0  0
    0.3180   -0.6190    0.4500 C   0  0  0  0  0  0  0  0  0  0  0  0
    1.6260   -0.5880   -0.0050 C   0  0  0  0  0  0  0  0  0  0  0  0
   -0.5380    0.3060    1.0740 O   0  0  0  0  0  0  0  0  0  0  0  0
   -1.4850   -0.5030    1.7420 C   0  0  1  0  0  0  0  0  0  0  0  0
   -0.9750   -1.0460    3.0400 C   0  0  0  0  0  0  0  0  0  0  0  0
   -1.6700   -0.3070    4.0040 O   0  0  0  0  0  0  0  0  0  0  0  0
   -2.7380    0.2760    3.4280 N   0  0  0  0  0  0  0  0  0  0  0  0
   -2.7020    0.2030    2.1170 C   0  0  0  0  0  0  0  0  0  0  0  0
   -3.7530    0.7680    1.3990 O   0  0  0  0  0  0  0  0  0  0  0  0
   -4.2180    2.0490    1.6650 C   0  0  0  0  0  0  0  0  0  0  0  0
   -3.6760    2.7090    2.5830 O   0  0  0  0  0  0  0  0  0  0  0  0
   -5.3400    2.6610    0.8940 C   0  0  1  0  0  0  0  0  0  0  0  0
   -6.5440    1.7370    1.0810 C   0  0  0  0  0  0  0  0  0  0  0  0
   -6.1160    0.4720    0.6400 O   0  0  0  0  0  0  0  0  0  0  0  0
   -7.3730   -0.7150    0.7890 P   0  0  0  0  0  0  0  0  0  0  0  0
   -7.4850   -1.1280    2.4670 O   0  0  0  0  0  0  0  0  0  0  0  0
   -8.8950   -0.1220    0.2040 O   0  0  0  0  0  0  0  0  0  0  0  0
   -5.6080    3.9450    1.2920 O   0  0  0  0  0  0  0  0  0  0  0  0
   -5.5110    4.8710    0.2560 C   0  0  0  0  0  0  0  0  0  0  0  0
   -6.4340    4.5260   -0.7490 O   0  0  0  0  0  0  0  0  0  0  0  0
   -1.6620   -1.5570    0.8270 O   0  0  0  0  0  0  0  0  0  0  0  0
    7.9940   -0.7650   -3.4960 N   0  0  0  0  0  0  0  0  0  0  0  0
    9.7290   -0.8990   -3.7100 P   0  0  0  0  0  0  0  0  0  0  0  0
   10.4820   -2.0640   -2.6910 O   0  0  0  0  0  0  0  0  0  0  0  0
   10.5490    0.6160   -3.5110 O   0  0  0  0  0  0  0  0  0  0  0  0
  1  2  2  0
  2  3  1  0
  2 33  1  0
  3  4  1  0
  4  5  2  0
  4  6  1  0
  6  7  1  0
  7  8  1  0
  8  9  2  0
  8 13  1  0
  9 10  1  0
 10 11  2  0
 11 12  1  0
 11 32  1  0
 12 13  2  0
 12 14  1  0
 14 15  1  0
 15 16  1  1
 15 19  1  0
 15 32  1  0
 16 17  1  0
 17 18  1  0
 18 19  2  0
 19 20  1  0
 20 21  1  0
 21 22  2  0
 21 23  1  0
 23 24  1  1
 23 29  1  0
 24 25  1  0
 25 26  1  0
 26 27  1  0
 26 28  1  0
 29 30  1  0
 30 31  1  0
 33 34  1  0
 34 35  1  0
 34 36  1  0
M  END
