
     RDKit          3D

 35 37  0  0  0  0  0  0  0  0999 V2000
    0.6120    7.0740    0.5130 N   0  0  0  0  0  0  0  0  0  0  0  0
    0.6430    5.8510   -0.2610 C   0  0  0  0  0  0  0  0  0  0  0  0
    0.7330    4.6720    0.6630 C   0  0  0  0  0  0  0  0  0  0  0  0
    0.7690    4.8680    1.8990 O   0  0  0  0  0  0  0  0  0  0  0  0
    0.7770    3.3790    0.2130 O   0  0  0  0  0  0  0  0  0  0  0  0
    0.8590    2.2830    1.0350 C   0  0  0  0  0  0  0  0  0  0  0  0
    0.8960    2.4660    2.2790 O   0  0  0  0  0  0  0  0  0  0  0  0
    0.9070    0.8660    0.5270 C   0  0  2  0  0  0  0  0  0  0  0  0
    0.8670    0.7970   -0.8190 O   0  0  0  0  0  0  0  0  0  0  0  0
    1.9370    0.3620   -1.5170 C   0  0  0  0  0  0  0  0  0  0  0  0
    2.4400   -1.0170   -1.3060 C   0  0  1  0  0  0  0  0  0  0  0  0
    1.5720   -2.0500   -1.6060 O   0  0  0  0  0  0  0  0  0  0  0  0
    1.7670   -3.1930   -2.3030 C   0  0  0  0  0  0  0  0  0  0  0  0
    0.8340   -3.7200   -2.9440 O   0  0  0  0  0  0  0  0  0  0  0  0
    3.0130   -3.7940   -2.3120 O   0  0  0  0  0  0  0  0  0  0  0  0
    4.3350   -2.7270   -1.7660 P   0  0  0  0  0  0  0  0  0  0  0  0
    4.5790   -3.0590   -0.0850 O   0  0  0  0  0  0  0  0  0  0  0  0
    3.6800   -1.1130   -1.9470 O   0  0  0  0  0  0  0  0  0  0  0  0
   -0.2970    0.1000    1.1180 C   0  0  1  0  0  0  0  0  0  0  0  0
   -1.4630    0.6240    0.6510 O   0  0  0  0  0  0  0  0  0  0  0  0
   -2.2460    1.2550    1.5700 C   0  0  0  0  0  0  0  0  0  0  0  0
   -2.7200    0.4700    2.7350 C   0  0  0  0  0  0  0  0  0  0  0  0
   -3.7650   -0.9930    2.3210 P   0  0  0  0  0  0  0  0  0  0  0  0
   -3.8660   -2.1370    3.3740 O   0  0  0  0  0  0  0  0  0  0  0  0
   -0.2100   -1.3340    0.9320 C   0  0  0  0  0  0  0  0  0  0  0  0
    0.7800   -1.9020    1.5590 O   0  0  0  0  0  0  0  0  0  0  0  0
   -1.0030   -2.2350    0.1910 N   0  0  0  0  0  0  0  0  0  0  0  0
   -0.7330   -3.6560    0.4190 C   0  0  0  0  0  0  0  0  0  0  0  0
   -1.6080   -4.5460   -0.3280 C   0  0  0  0  0  0  0  0  0  0  0  0
   -2.5420   -4.2040   -1.1390 N   0  0  0  0  0  0  0  0  0  0  0  0
   -2.8130   -2.8430   -1.3850 C   0  0  0  0  0  0  0  0  0  0  0  0
   -3.6640   -2.1520   -2.1450 N   0  0  0  0  0  0  0  0  0  0  0  0
   -3.4440   -0.8640   -1.9710 O   0  0  0  0  0  0  0  0  0  0  0  0
   -2.4880   -0.6910   -1.1320 N   0  0  0  0  0  0  0  0  0  0  0  0
   -2.0370   -1.8980   -0.7150 C   0  0  0  0  0  0  0  0  0  0  0  0
  1  2  1  0
  2  3  1  0
  3  4  2  0
  3  5  1  0
  5  6  1  0
  6  7  2  0
  6  8  1  0
  8  9  1  6
  8 19  1  0
  9 10  1  0
 11 10  1  6
 11 12  1  0
 11 18  1  0
 12 13  1  0
 13 14  2  0
 13 15  1  0
 15 16  1  0
 16 17  1  0
 16 18  1  0
 19 20  1  6
 19 25  1  0
 20 21  1  0
 21 22  1  0
 22 23  1  0
 23 24  2  0
 25 26  2  0
 25 27  1  0
 27 28  1  0
 27 35  1  0
 28 29  1  0
 29 30  2  0
 30 31  1  0
 31 32  2  0
 31 35  1  0
 32 33  1  0
 33 34  1  0
 34 35  2  0
M  END
