
     RDKit          3D

 41 44  0  0  0  0  0  0  0  0999 V2000
    0.7460    0.5330    4.5090 C   0  0  0  0  0  0  0  0  0  0  0  0
    0.8060   -0.1400    3.2080 C   0  0  0  0  0  0  0  0  0  0  0  0
    1.9980   -0.2980    2.5980 C   0  0  0  0  0  0  0  0  0  0  0  0
    3.2080    0.2380    3.3180 C   0  0  0  0  0  0  0  0  0  0  0  0
    2.0680   -1.0620    1.4000 C   0  0  0  0  0  0  0  0  0  0  0  0
    3.0680   -1.2750    0.6140 C   0  0  0  0  0  0  0  0  0  0  0  0
    4.4360   -0.9590    0.4710 C   0  0  0  0  0  0  0  0  0  0  0  0
    5.1130   -0.2720    1.2550 O   0  0  0  0  0  0  0  0  0  0  0  0
    5.2160   -1.4320   -0.6730 N   0  0  0  0  0  0  0  0  0  0  0  0
    6.5890   -1.1370   -0.8260 C   0  0  0  0  0  0  0  0  0  0  0  0
    7.5600   -1.6940   -0.0250 C   0  0  0  0  0  0  0  0  0  0  0  0
    8.9330   -1.4290   -0.2130 C   0  0  0  0  0  0  0  0  0  0  0  0
    9.3450   -0.5910   -1.2150 C   0  0  0  0  0  0  0  0  0  0  0  0
    8.3600   -0.0270   -2.0180 C   0  0  0  0  0  0  0  0  0  0  0  0
    7.0340   -0.2800   -1.8430 C   0  0  0  0  0  0  0  0  0  0  0  0
    8.8710    0.9070   -3.0750 C   0  0  1  0  0  0  0  0  0  0  0  0
    7.7930    1.5840   -3.6310 O   0  0  0  0  0  0  0  0  0  0  0  0
    9.8680    1.8860   -2.4780 C   0  0  0  0  0  0  0  0  0  0  0  0
   10.8310    1.2530   -1.5270 C   0  0  0  0  0  0  0  0  0  0  0  0
   10.7650   -0.2770   -1.5440 C   0  0  0  0  0  0  0  0  0  0  0  0
    0.6030   -2.0190    0.9680 S   0  0  2  0  0  0  0  0  0  0  0  0
    0.0200   -2.5750    2.2330 O   0  0  0  0  0  0  0  0  0  0  0  0
    1.1490   -3.2770    0.2470 O   0  0  0  0  0  0  0  0  0  0  0  0
   -0.4320   -1.2670   -0.0680 N   0  0  0  0  0  0  0  0  0  0  0  0
   -1.7540   -1.0350    0.3830 C   0  0  0  0  0  0  0  0  0  0  0  0
   -2.5160   -0.3560   -0.7730 C   0  0  1  0  0  0  0  0  0  0  0  0
   -1.9420    0.9560   -1.1310 C   0  0  0  0  0  0  0  0  0  0  0  0
   -2.2740   -1.3060   -2.0130 C   0  0  0  0  0  0  0  0  0  0  0  0
   -3.9660   -0.4350   -0.5630 C   0  0  0  0  0  0  0  0  0  0  0  0
   -4.6590   -1.5730   -0.1150 C   0  0  0  0  0  0  0  0  0  0  0  0
   -5.9780   -1.3340   -0.1510 C   0  0  0  0  0  0  0  0  0  0  0  0
   -7.0350   -2.3230    0.2460 C   0  0  0  0  0  0  0  0  0  0  0  0
   -6.1920   -0.0700   -0.6110 N   0  0  0  0  0  0  0  0  0  0  0  0
   -7.4840    0.4710   -0.8670 C   0  0  0  0  0  0  0  0  0  0  0  0
   -8.2440    1.1510    0.1640 C   0  0  1  0  0  0  0  0  0  0  0  0
   -8.5500    0.3430    1.4070 C   0  0  0  0  0  0  0  0  0  0  0  0
   -9.2850    1.4080    2.2300 C   0  0  0  0  0  0  0  0  0  0  0  0
   -8.8250    2.6880    1.5770 C   0  0  2  0  0  0  0  0  0  0  0  0
   -9.9900    3.3210    0.8750 C   0  0  0  0  0  0  0  0  0  0  0  0
   -7.7760    2.3260    0.7070 O   0  0  0  0  0  0  0  0  0  0  0  0
   -4.9760    0.4520   -0.8490 C   0  0  0  0  0  0  0  0  0  0  0  0
  1  2  1  0
  2  3  2  3
  3  4  1  0
  3  5  1  0
  5  6  2  3
  5 21  1  0
  6  7  1  0
  7  8  2  0
  7  9  1  0
  9 10  1  0
 10 11  2  0
 10 15  1  0
 11 12  1  0
 12 13  2  0
 13 14  1  0
 13 20  1  0
 14 15  2  0
 14 16  1  0
 16 17  1  1
 16 18  1  0
 18 19  1  0
 19 20  1  0
 21 22  2  0
 21 23  2  0
 21 24  1  6
 24 25  1  0
 25 26  1  0
 26 27  1  6
 26 28  1  0
 26 29  1  0
 29 30  1  0
 29 41  2  0
 30 31  2  0
 31 32  1  0
 31 33  1  0
 33 34  1  0
 33 41  1  0
 35 34  1  6
 35 36  1  0
 35 40  1  0
 36 37  1  0
 37 38  1  0
 38 39  1  6
 38 40  1  0
M  END
