
     RDKit          3D

 41 44  0  0  0  0  0  0  0  0999 V2000
    5.8100   -3.5780   -5.4540 C   0  0  0  0  0  0  0  0  0  0  0  0
    5.9680   -2.9350   -4.2750 C   0  0  0  0  0  0  0  0  0  0  0  0
    4.8140   -2.4980   -3.5760 C   0  0  0  0  0  0  0  0  0  0  0  0
    4.6650   -1.8660   -2.4380 C   0  0  0  0  0  0  0  0  0  0  0  0
    3.3310   -1.5140   -1.9080 C   0  0  0  0  0  0  0  0  0  0  0  0
    2.1480   -1.7050   -2.4640 C   0  0  0  0  0  0  0  0  0  0  0  0
    3.5260   -0.8860   -0.6020 C   0  0  2  0  0  0  0  0  0  0  0  0
    2.8160    0.3810   -0.5190 N   0  0  0  0  0  0  0  0  0  0  0  0
    1.6640    0.5580    0.2870 C   0  0  0  0  0  0  0  0  0  0  0  0
    1.2560   -0.4610    0.9460 O   0  0  0  0  0  0  0  0  0  0  0  0
    0.9300    1.7530    0.4230 N   0  0  0  0  0  0  0  0  0  0  0  0
   -0.2700    1.7440    1.2910 C   0  0  1  0  0  0  0  0  0  0  0  0
    0.3010    1.8100    2.7010 C   0  0  0  0  0  0  0  0  0  0  0  0
    0.3780    2.9260    3.3480 C   0  0  0  0  0  0  0  0  0  0  0  0
    0.9900    2.8630    4.7350 C   0  0  0  0  0  0  0  0  0  0  0  0
   -0.2580    4.1530    2.9020 C   0  0  0  0  0  0  0  0  0  0  0  0
   -0.9660    4.0990    1.8070 C   0  0  0  0  0  0  0  0  0  0  0  0
   -1.1650    2.8310    1.0150 C   0  0  0  0  0  0  0  0  0  0  0  0
   -2.1660    2.8220    0.1660 C   0  0  0  0  0  0  0  0  0  0  0  0
   -2.7940    1.9390   -0.7570 C   0  0  0  0  0  0  0  0  0  0  0  0
   -3.8860    2.5090   -1.3940 C   0  0  0  0  0  0  0  0  0  0  0  0
   -4.1550    3.8380   -1.0230 O   0  0  0  0  0  0  0  0  0  0  0  0
   -4.7450    1.8680   -2.3590 C   0  0  0  0  0  0  0  0  0  0  0  0
   -4.7950    2.4420   -3.6250 O   0  0  0  0  0  0  0  0  0  0  0  0
   -5.2450    3.7470   -3.6280 C   0  0  0  0  0  0  0  0  0  0  0  0
   -2.4290    0.3240   -1.2430 S   0  0  1  0  0  0  0  0  0  0  0  0
   -2.7700    0.1460   -2.7520 O   0  0  0  0  0  0  0  0  0  0  0  0
   -0.9570    0.0090   -1.2100 O   0  0  0  0  0  0  0  0  0  0  0  0
   -3.3520   -0.8590   -0.4290 N   0  0  0  0  0  0  0  0  0  0  0  0
   -3.2060   -0.9470    0.9660 C   0  0  0  0  0  0  0  0  0  0  0  0
   -4.0600   -2.0120    1.6120 C   0  0  1  0  0  0  0  0  0  0  0  0
   -3.7750   -3.3900    1.0950 C   0  0  0  0  0  0  0  0  0  0  0  0
   -4.1380   -4.2810    2.2330 C   0  0  0  0  0  0  0  0  0  0  0  0
   -3.5380   -3.5490    3.4190 C   0  0  0  0  0  0  0  0  0  0  0  0
   -3.6390   -2.0960    3.0640 C   0  0  0  0  0  0  0  0  0  0  0  0
    4.9690   -0.7650   -0.3880 C   0  0  0  0  0  0  0  0  0  0  0  0
    5.6880   -0.1950    0.6620 C   0  0  0  0  0  0  0  0  0  0  0  0
    7.0570   -0.2110    0.6880 C   0  0  0  0  0  0  0  0  0  0  0  0
    7.7180   -0.8080   -0.3540 C   0  0  0  0  0  0  0  0  0  0  0  0
    6.9910   -1.3760   -1.4020 C   0  0  0  0  0  0  0  0  0  0  0  0
    5.6120   -1.3730   -1.4530 C   0  0  0  0  0  0  0  0  0  0  0  0
  1  2  2  0
  2  3  1  0
  3  4  2  3
  4  5  1  0
  4 41  1  0
  5  6  2  0
  5  7  1  0
  7  8  1  6
  7 36  1  0
  8  9  1  0
  9 10  2  0
  9 11  1  0
 12 11  1  6
 12 13  1  0
 12 18  1  0
 13 14  2  0
 14 15  1  0
 14 16  1  0
 16 17  2  0
 17 18  1  0
 18 19  2  3
 19 20  1  0
 20 21  2  3
 20 26  1  0
 21 22  1  0
 21 23  1  0
 23 24  1  0
 24 25  1  0
 26 27  2  0
 26 28  2  0
 26 29  1  1
 29 30  1  0
 31 30  1  6
 31 32  1  0
 31 35  1  0
 32 33  1  0
 33 34  1  0
 34 35  1  0
 36 37  2  0
 36 41  1  0
 37 38  1  0
 38 39  2  0
 39 40  1  0
 40 41  2  0
M  END
