
     RDKit          3D

 41 44  0  0  0  0  0  0  0  0999 V2000
    5.5870   -3.4060    0.2090 C   0  0  0  0  0  0  0  0  0  0  0  0
    5.3830   -2.0160    0.1940 C   0  0  0  0  0  0  0  0  0  0  0  0
    4.3120   -1.6870   -0.7260 C   0  0  0  0  0  0  0  0  0  0  0  0
    3.0770   -0.9960   -0.3760 N   0  0  0  0  0  0  0  0  0  0  0  0
    2.4170   -1.3200    0.8370 C   0  0  0  0  0  0  0  0  0  0  0  0
    0.9840   -1.2840    0.8510 C   0  0  2  0  0  0  0  0  0  0  0  0
    0.6460   -1.2540    2.3080 O   0  0  0  0  0  0  0  0  0  0  0  0
    0.4620   -2.6920    0.5020 C   0  0  0  0  0  0  0  0  0  0  0  0
    1.1750   -3.8260    0.8800 C   0  0  0  0  0  0  0  0  0  0  0  0
    0.5740   -5.0890    0.7840 C   0  0  0  0  0  0  0  0  0  0  0  0
   -0.7000   -5.1930    0.3210 C   0  0  0  0  0  0  0  0  0  0  0  0
   -1.3760   -4.0840   -0.0450 C   0  0  0  0  0  0  0  0  0  0  0  0
   -0.7660   -2.7900    0.0470 C   0  0  0  0  0  0  0  0  0  0  0  0
   -1.5670   -1.7920   -0.5850 C   0  0  0  0  0  0  0  0  0  0  0  0
   -1.3520   -1.7600   -1.8980 O   0  0  0  0  0  0  0  0  0  0  0  0
   -2.5060   -0.8880   -0.1300 N   0  0  0  0  0  0  0  0  0  0  0  0
   -3.2840   -0.1530   -1.1520 C   0  0  0  0  0  0  0  0  0  0  0  0
   -4.7000   -0.5530   -0.7600 C   0  0  0  0  0  0  0  0  0  0  0  0
   -5.0730    0.0640    0.6000 C   0  0  2  0  0  0  0  0  0  0  0  0
   -5.9890    1.1770    0.1800 C   0  0  0  0  0  0  0  0  0  0  0  0
   -7.1050    0.7280   -0.5720 C   0  0  0  0  0  0  0  0  0  0  0  0
   -7.8790    1.6740   -1.2200 C   0  0  0  0  0  0  0  0  0  0  0  0
   -7.6210    3.0160   -1.1380 C   0  0  0  0  0  0  0  0  0  0  0  0
   -8.3360    4.0550   -1.9230 C   0  0  0  0  0  0  0  0  0  0  0  0
   -8.8630    4.8520   -2.5230 N   0  0  0  0  0  0  0  0  0  0  0  0
   -6.5640    3.3960   -0.3780 C   0  0  0  0  0  0  0  0  0  0  0  0
   -5.7090    2.5180    0.2930 C   0  0  0  0  0  0  0  0  0  0  0  0
   -3.9180    0.4100    1.4240 C   0  0  2  0  0  0  0  0  0  0  0  0
   -3.3860    1.6800    1.3960 O   0  0  0  0  0  0  0  0  0  0  0  0
   -2.7700   -0.5750    1.2260 C   0  0  0  0  0  0  0  0  0  0  0  0
    2.6430    0.0010   -1.2620 C   0  0  0  0  0  0  0  0  0  0  0  0
    1.2670    0.7210   -1.4540 S   0  0  0  0  0  0  0  0  0  0  0  0
    3.7390    0.3780   -2.1450 O   0  0  0  0  0  0  0  0  0  0  0  0
    4.5260    1.3780   -1.3650 C   0  0  0  0  0  0  0  0  0  0  0  0
    5.6780    1.8170   -1.8210 C   0  0  0  0  0  0  0  0  0  0  0  0
    6.4770    2.7420   -1.1970 C   0  0  0  0  0  0  0  0  0  0  0  0
    6.0050    3.2250    0.0310 C   0  0  0  0  0  0  0  0  0  0  0  0
    6.8560    4.2780    0.7290 C   0  0  0  0  0  0  0  0  0  0  0  0
    6.1950    4.6320    1.9210 O   0  0  0  0  0  0  0  0  0  0  0  0
    4.8090    2.8100    0.5850 C   0  0  0  0  0  0  0  0  0  0  0  0
    4.0650    1.8430   -0.1870 C   0  0  0  0  0  0  0  0  0  0  0  0
  1  2  2  0
  2  3  1  0
  3  4  1  0
  4  5  1  0
  4 31  1  0
  5  6  1  0
  6  7  1  1
  6  8  1  0
  8  9  2  0
  8 13  1  0
  9 10  1  0
 10 11  2  0
 11 12  1  0
 12 13  2  0
 13 14  1  0
 14 15  2  0
 14 16  1  0
 16 17  1  0
 16 30  1  0
 17 18  1  0
 18 19  1  0
 19 20  1  6
 19 28  1  0
 20 21  2  0
 20 27  1  0
 21 22  1  0
 22 23  2  0
 23 24  1  0
 23 26  1  0
 24 25  3  0
 26 27  2  0
 28 29  1  6
 28 30  1  0
 31 32  2  0
 31 33  1  0
 33 34  1  0
 34 35  2  0
 34 41  1  0
 35 36  1  0
 36 37  2  0
 37 38  1  0
 37 40  1  0
 38 39  1  0
 40 41  2  0
M  END
