
     RDKit          3D

 41 44  0  0  0  0  0  0  0  0999 V2000
   -0.6580   -4.3380   -4.8860 C   0  0  0  0  0  0  0  0  0  0  0  0
   -0.8170   -3.4580   -3.6740 C   0  0  0  0  0  0  0  0  0  0  0  0
   -2.0180   -3.3820   -3.0030 C   0  0  0  0  0  0  0  0  0  0  0  0
   -2.1560   -2.5710   -1.8850 C   0  0  0  0  0  0  0  0  0  0  0  0
   -1.0930   -1.8010   -1.3950 C   0  0  0  0  0  0  0  0  0  0  0  0
   -1.3380   -0.8970   -0.2570 C   0  0  2  0  0  0  0  0  0  0  0  0
   -2.3770   -1.4560    0.6360 N   0  0  0  0  0  0  0  0  0  0  0  0
   -2.1060   -1.8540    1.9710 C   0  0  0  0  0  0  0  0  0  0  0  0
   -0.9240   -1.7130    2.3800 O   0  0  0  0  0  0  0  0  0  0  0  0
   -3.1950   -2.4170    2.8500 C   0  0  1  0  0  0  0  0  0  0  0  0
   -2.5880   -2.7870    4.1620 C   0  0  0  0  0  0  0  0  0  0  0  0
   -4.3180   -1.4130    2.9940 C   0  0  0  0  0  0  0  0  0  0  0  0
   -5.2800   -2.0010    3.8090 O   0  0  0  0  0  0  0  0  0  0  0  0
   -1.8630    0.4500   -0.6850 C   0  0  0  0  0  0  0  0  0  0  0  0
   -2.9370    0.5740   -1.5360 C   0  0  0  0  0  0  0  0  0  0  0  0
   -3.4550    1.7920   -1.9220 C   0  0  0  0  0  0  0  0  0  0  0  0
   -4.6130    1.8800   -2.8430 C   0  0  0  0  0  0  0  0  0  0  0  0
   -2.8960    2.9450   -1.4540 C   0  0  0  0  0  0  0  0  0  0  0  0
   -3.4340    4.2910   -1.8460 C   0  0  0  0  0  0  0  0  0  0  0  0
   -1.8110    2.8590   -0.5950 C   0  0  0  0  0  0  0  0  0  0  0  0
   -1.3020    1.6080   -0.2180 C   0  0  0  0  0  0  0  0  0  0  0  0
   -0.1830    1.6350    0.6380 N   0  0  0  0  0  0  0  0  0  0  0  0
    0.0770    2.7460    1.9210 S   0  0  2  0  0  0  0  0  0  0  0  0
   -1.1710    2.6390    3.1740 C   0  0  0  0  0  0  0  0  0  0  0  0
    0.1520    4.1420    1.3570 O   0  0  0  0  0  0  0  0  0  0  0  0
    1.4390    2.4940    2.5560 O   0  0  0  0  0  0  0  0  0  0  0  0
    0.0840   -1.8810   -2.0550 C   0  0  0  0  0  0  0  0  0  0  0  0
    1.2780   -1.2110   -1.5610 C   0  0  0  0  0  0  0  0  0  0  0  0
    1.8590   -0.4560   -2.3630 O   0  0  0  0  0  0  0  0  0  0  0  0
    1.8060   -1.3640   -0.2720 N   0  0  0  0  0  0  0  0  0  0  0  0
    2.9380   -0.7470    0.2910 C   0  0  0  0  0  0  0  0  0  0  0  0
    3.2730   -1.0420    1.6080 C   0  0  0  0  0  0  0  0  0  0  0  0
    4.3460   -0.4850    2.2460 C   0  0  0  0  0  0  0  0  0  0  0  0
    5.1560    0.4120    1.5980 C   0  0  0  0  0  0  0  0  0  0  0  0
    4.8700    0.7340    0.3090 C   0  0  0  0  0  0  0  0  0  0  0  0
    3.7700    0.1510   -0.3210 C   0  0  0  0  0  0  0  0  0  0  0  0
    5.6900    1.6830   -0.4410 C   0  0  0  0  0  0  0  0  0  0  0  0
    6.8770    2.2010    0.2970 C   0  0  0  0  0  0  0  0  0  0  0  0
    6.6190    2.3350    1.7860 C   0  0  0  0  0  0  0  0  0  0  0  0
    6.2920    0.9870    2.3420 C   0  0  0  0  0  0  0  0  0  0  0  0
    0.2150   -2.7070   -3.1910 C   0  0  0  0  0  0  0  0  0  0  0  0
  1  2  1  0
  2  3  2  0
  2 41  1  0
  3  4  1  0
  4  5  2  0
  5  6  1  0
  5 27  1  0
  6  7  1  1
  6 14  1  0
  7  8  1  0
  8  9  2  0
  8 10  1  0
 10 11  1  1
 10 12  1  0
 12 13  1  0
 14 15  2  0
 14 21  1  0
 15 16  1  0
 16 17  1  0
 16 18  2  0
 18 19  1  0
 18 20  1  0
 20 21  2  0
 21 22  1  0
 22 23  1  0
 23 24  1  1
 23 25  2  0
 23 26  2  0
 27 28  1  0
 27 41  2  0
 28 29  2  0
 28 30  1  0
 30 31  1  0
 31 32  2  0
 31 36  1  0
 32 33  1  0
 33 34  2  0
 34 35  1  0
 34 40  1  0
 35 36  2  0
 35 37  1  0
 37 38  1  0
 38 39  1  0
 39 40  1  0
M  END
