
     RDKit          3D

 41 44  0  0  0  0  0  0  0  0999 V2000
   -6.7180    0.4960   -3.9720 C   0  0  0  0  0  0  0  0  0  0  0  0
   -6.0100    0.3030   -2.6750 C   0  0  0  0  0  0  0  0  0  0  0  0
   -5.5840    1.3880   -1.9640 C   0  0  0  0  0  0  0  0  0  0  0  0
   -4.9260    1.2390   -0.7630 C   0  0  0  0  0  0  0  0  0  0  0  0
   -4.5270    2.4050   -0.1140 O   0  0  0  0  0  0  0  0  0  0  0  0
   -4.6550   -0.0180   -0.1980 C   0  0  0  0  0  0  0  0  0  0  0  0
   -4.0360   -0.0760    1.0850 C   0  0  0  0  0  0  0  0  0  0  0  0
   -4.5600    0.3990    2.1790 C   0  0  0  0  0  0  0  0  0  0  0  0
   -5.8000    1.0600    2.4790 C   0  0  0  0  0  0  0  0  0  0  0  0
   -6.0700    1.5000    3.7240 C   0  0  0  0  0  0  0  0  0  0  0  0
   -7.4090    2.1240    3.7200 C   0  0  0  0  0  0  0  0  0  0  0  0
   -7.8780    1.9600    2.3580 C   0  0  0  0  0  0  0  0  0  0  0  0
   -6.9500    1.3520    1.6480 C   0  0  0  0  0  0  0  0  0  0  0  0
   -2.6660   -0.6540    1.2460 N   0  0  0  0  0  0  0  0  0  0  0  0
   -2.4140   -1.9960    0.9550 C   0  0  0  0  0  0  0  0  0  0  0  0
   -1.9620   -2.4460   -0.3780 C   0  0  0  0  0  0  0  0  0  0  0  0
   -0.7680   -1.9360   -0.8490 O   0  0  0  0  0  0  0  0  0  0  0  0
   -1.7230    0.2590    1.7410 C   0  0  0  0  0  0  0  0  0  0  0  0
   -2.2580    1.4570    1.9170 O   0  0  0  0  0  0  0  0  0  0  0  0
   -0.3380    0.2210    2.1050 C   0  0  1  0  0  0  0  0  0  0  0  0
    0.1480   -0.8790    3.0060 C   0  0  0  0  0  0  0  0  0  0  0  0
    0.9360   -1.6880    2.0790 N   0  0  0  0  0  0  0  0  0  0  0  0
    1.5060   -0.8350    1.0930 C   0  0  0  0  0  0  0  0  0  0  0  0
    2.6240   -1.1070    0.4920 N   0  0  0  0  0  0  0  0  0  0  0  0
    3.3600   -0.1360   -0.6910 S   0  0  1  0  0  0  0  0  0  0  0  0
    2.9490   -0.6830   -2.0510 O   0  0  0  0  0  0  0  0  0  0  0  0
    2.8610    1.2940   -0.6700 O   0  0  0  0  0  0  0  0  0  0  0  0
    5.1020   -0.2010   -0.5110 C   0  0  0  0  0  0  0  0  0  0  0  0
    5.7910    0.6910    0.2860 C   0  0  0  0  0  0  0  0  0  0  0  0
    7.1630    0.6420    0.4300 C   0  0  0  0  0  0  0  0  0  0  0  0
    7.9130   -0.3130   -0.2250 C   0  0  0  0  0  0  0  0  0  0  0  0
    9.3990   -0.3810   -0.0810 C   0  0  0  0  0  0  0  0  0  0  0  0
   10.0950    0.4530   -1.1180 C   0  0  2  0  0  0  0  0  0  0  0  0
    9.6300    1.8950   -0.9270 C   0  0  0  0  0  0  0  0  0  0  0  0
    9.7440   -0.0510   -2.4830 C   0  0  0  0  0  0  0  0  0  0  0  0
    7.2270   -1.2060   -1.0220 C   0  0  0  0  0  0  0  0  0  0  0  0
    5.8560   -1.1580   -1.1670 C   0  0  0  0  0  0  0  0  0  0  0  0
    0.5970    0.3090    0.9490 C   0  0  0  0  0  0  0  0  0  0  0  0
   -5.1020   -1.0810   -0.9460 C   0  0  0  0  0  0  0  0  0  0  0  0
   -5.7580   -0.9370   -2.1450 C   0  0  0  0  0  0  0  0  0  0  0  0
   -6.2010   -2.1360   -2.8840 C   0  0  0  0  0  0  0  0  0  0  0  0
  1  2  1  0
  2  3  2  0
  2 40  1  0
  3  4  1  0
  4  5  1  0
  4  6  2  0
  6  7  1  0
  6 39  1  0
  7  8  2  3
  7 14  1  0
  8  9  1  0
  9 10  2  0
  9 13  1  0
 10 11  1  0
 11 12  1  0
 12 13  2  0
 14 15  1  0
 14 18  1  0
 15 16  1  0
 16 17  1  0
 18 19  2  0
 20 18  1  6
 20 21  1  0
 20 38  1  0
 21 22  1  0
 22 23  1  0
 23 24  2  3
 23 38  1  0
 25 24  1  1
 25 26  2  0
 25 27  2  0
 25 28  1  0
 28 29  2  0
 28 37  1  0
 29 30  1  0
 30 31  2  0
 31 32  1  0
 31 36  1  0
 32 33  1  0
 33 34  1  6
 33 35  1  0
 36 37  2  0
 39 40  2  0
 40 41  1  0
M  END
