
     RDKit          3D

 40 43  0  0  0  0  0  0  0  0999 V2000
   -8.5060    4.4230    2.1850 N   0  0  0  0  0  0  0  0  0  0  0  0
   -7.1130    4.4390    1.9910 C   0  0  0  0  0  0  0  0  0  0  0  0
   -6.5130    3.5350    1.1840 C   0  0  0  0  0  0  0  0  0  0  0  0
   -7.2850    2.5630    0.5260 C   0  0  0  0  0  0  0  0  0  0  0  0
   -7.0220    1.6040   -0.2670 C   0  0  0  0  0  0  0  0  0  0  0  0
   -5.7690    1.1520   -0.7960 C   0  0  0  0  0  0  0  0  0  0  0  0
   -5.7900    0.0860   -1.6610 C   0  0  0  0  0  0  0  0  0  0  0  0
   -4.4980   -0.3640   -2.1980 C   0  0  2  0  0  0  0  0  0  0  0  0
   -4.6780   -1.5680   -3.1180 C   0  0  0  0  0  0  0  0  0  0  0  0
   -5.5120   -1.1680   -4.1640 O   0  0  0  0  0  0  0  0  0  0  0  0
   -3.5400   -0.6610   -1.0990 C   0  0  0  0  0  0  0  0  0  0  0  0
   -3.6830    0.3290    0.0030 C   0  0  1  0  0  0  0  0  0  0  0  0
   -4.5640   -0.1740    1.1140 C   0  0  0  0  0  0  0  0  0  0  0  0
   -3.7730   -0.4390    2.3730 C   0  0  0  0  0  0  0  0  0  0  0  0
   -2.4700   -1.1370    1.9640 C   0  0  0  0  0  0  0  0  0  0  0  0
   -1.6540   -0.2430    1.1800 N   0  0  0  0  0  0  0  0  0  0  0  0
   -0.2450   -0.3150    1.0530 C   0  0  0  0  0  0  0  0  0  0  0  0
    0.3620    0.5430    0.3700 O   0  0  0  0  0  0  0  0  0  0  0  0
    0.5220   -1.3700    1.7080 C   0  0  0  0  0  0  0  0  0  0  0  0
   -0.0140   -2.3160    2.3230 O   0  0  0  0  0  0  0  0  0  0  0  0
    1.9570   -1.3540    1.6710 N   0  0  0  0  0  0  0  0  0  0  0  0
    2.8330   -2.2780    2.2470 C   0  0  0  0  0  0  0  0  0  0  0  0
    2.4970   -3.4410    2.8790 C   0  0  0  0  0  0  0  0  0  0  0  0
    3.4270   -4.3190    3.4360 C   0  0  0  0  0  0  0  0  0  0  0  0
    4.7450   -4.0230    3.3600 C   0  0  0  0  0  0  0  0  0  0  0  0
    5.1360   -2.8610    2.7350 C   0  0  0  0  0  0  0  0  0  0  0  0
    4.2260   -1.9870    2.1790 C   0  0  0  0  0  0  0  0  0  0  0  0
    4.5610   -0.8430    1.5590 O   0  0  0  0  0  0  0  0  0  0  0  0
    5.7730   -0.2780    1.2990 C   0  0  0  0  0  0  0  0  0  0  0  0
    6.6360   -1.0880    0.3820 C   0  0  0  0  0  0  0  0  0  0  0  0
    5.9770   -1.3470   -0.9520 C   0  0  0  0  0  0  0  0  0  0  0  0
    5.5840    0.1190   -1.8910 S   0  0  0  0  0  0  0  0  0  0  0  0
    7.0510    0.9140   -2.5100 C   0  0  0  0  0  0  0  0  0  0  0  0
    6.9250    2.1350   -3.1630 C   0  0  0  0  0  0  0  0  0  0  0  0
    8.0070    2.7850   -3.6720 C   0  0  0  0  0  0  0  0  0  0  0  0
    9.2940    2.2730   -3.5700 C   0  0  0  0  0  0  0  0  0  0  0  0
    9.4300    1.0780   -2.9310 C   0  0  0  0  0  0  0  0  0  0  0  0
    8.3200    0.4090   -2.4100 C   0  0  0  0  0  0  0  0  0  0  0  0
   -2.3550    0.8320    0.4600 C   0  0  0  0  0  0  0  0  0  0  0  0
   -4.4030    1.6150   -0.5460 C   0  0  0  0  0  0  0  0  0  0  0  0
  1  2  1  0
  2  3  2  3
  3  4  1  0
  4  5  2  3
  5  6  1  0
  6  7  2  0
  6 40  1  0
  7  8  1  0
  8  9  1  1
  8 11  1  0
  9 10  1  0
 12 11  1  6
 12 13  1  0
 12 39  1  0
 12 40  1  0
 13 14  1  0
 14 15  1  0
 15 16  1  0
 16 17  1  0
 16 39  1  0
 17 18  2  0
 17 19  1  0
 19 20  2  0
 19 21  1  0
 21 22  1  0
 22 23  2  0
 22 27  1  0
 23 24  1  0
 24 25  2  0
 25 26  1  0
 26 27  2  0
 27 28  1  0
 28 29  1  0
 29 30  1  0
 30 31  1  0
 31 32  1  0
 32 33  1  0
 33 34  2  0
 33 38  1  0
 34 35  1  0
 35 36  2  0
 36 37  1  0
 37 38  2  0
M  END
