
     RDKit          3D

 41 45  0  0  0  0  0  0  0  0999 V2000
   -5.3510    0.3640    1.8160 C   0  0  0  0  0  0  0  0  0  0  0  0
   -6.4980   -0.2410    1.1480 C   0  0  0  0  0  0  0  0  0  0  0  0
   -7.2350   -1.0670    1.8950 C   0  0  0  0  0  0  0  0  0  0  0  0
   -8.4280   -1.8580    1.6470 C   0  0  0  0  0  0  0  0  0  0  0  0
   -9.3900   -1.4990    0.8140 C   0  0  0  0  0  0  0  0  0  0  0  0
   -9.5250   -0.0210   -0.2130 S   0  0  0  0  0  0  0  0  0  0  0  0
   -7.8870    0.2410   -0.8910 C   0  0  0  0  0  0  0  0  0  0  0  0
   -6.7020    0.1200   -0.2280 C   0  0  0  0  0  0  0  0  0  0  0  0
   -5.5300    0.3410   -0.9990 C   0  0  2  0  0  0  0  0  0  0  0  0
   -4.2050   -0.1200   -0.6860 C   0  0  0  0  0  0  0  0  0  0  0  0
   -3.6900   -1.3170   -0.8540 C   0  0  0  0  0  0  0  0  0  0  0  0
   -2.3480   -1.4240   -0.4300 N   0  0  0  0  0  0  0  0  0  0  0  0
   -1.8490   -0.0790   -0.3300 C   0  0  2  0  0  0  0  0  0  0  0  0
   -0.8840    0.1550    0.7850 C   0  0  1  0  0  0  0  0  0  0  0  0
   -1.4240   -0.1100    2.1550 C   0  0  0  0  0  0  0  0  0  0  0  0
   -0.3240    0.2930    3.1460 C   0  0  0  0  0  0  0  0  0  0  0  0
    0.9300   -0.5070    2.9560 C   0  0  0  0  0  0  0  0  0  0  0  0
    1.3350   -0.5630    1.5560 N   0  0  0  0  0  0  0  0  0  0  0  0
    2.7000   -0.4060    1.2270 C   0  0  0  0  0  0  0  0  0  0  0  0
    3.5250   -0.2260    2.1510 O   0  0  0  0  0  0  0  0  0  0  0  0
    3.2220   -0.4410   -0.1540 C   0  0  1  0  0  0  0  0  0  0  0  0
    2.9110   -1.7490   -0.8370 C   0  0  0  0  0  0  0  0  0  0  0  0
    2.6510    0.7170   -0.9390 C   0  0  0  0  0  0  0  0  0  0  0  0
    4.6430   -0.2710   -0.1720 O   0  0  0  0  0  0  0  0  0  0  0  0
    5.5020   -1.1300    0.4610 C   0  0  0  0  0  0  0  0  0  0  0  0
    5.0230   -2.1100    1.0870 O   0  0  0  0  0  0  0  0  0  0  0  0
    6.9800   -0.9760    0.4570 C   0  0  0  0  0  0  0  0  0  0  0  0
    7.3040    0.1740   -0.2940 O   0  0  0  0  0  0  0  0  0  0  0  0
    8.6120    0.5420   -0.4540 C   0  0  0  0  0  0  0  0  0  0  0  0
    9.6250   -0.1970    0.1080 C   0  0  0  0  0  0  0  0  0  0  0  0
   10.9360    0.1730   -0.0540 C   0  0  0  0  0  0  0  0  0  0  0  0
   11.2330    1.2920   -0.7850 C   0  0  0  0  0  0  0  0  0  0  0  0
   10.2620    2.0570   -1.3630 C   0  0  0  0  0  0  0  0  0  0  0  0
    8.9280    1.6680   -1.1900 C   0  0  0  0  0  0  0  0  0  0  0  0
    7.9250    2.4630   -1.7890 N   0  0  0  0  0  0  0  0  0  0  0  0
    0.2940   -0.7850    0.5610 C   0  0  0  0  0  0  0  0  0  0  0  0
   -3.0920    0.7250   -0.2480 C   0  0  0  0  0  0  0  0  0  0  0  0
   -3.0650    1.9210    0.1430 O   0  0  0  0  0  0  0  0  0  0  0  0
   -5.5980    1.6050   -1.8240 C   0  0  0  0  0  0  0  0  0  0  0  0
   -6.8180    1.5790   -2.6930 C   0  0  0  0  0  0  0  0  0  0  0  0
   -7.8520    0.6000   -2.2970 C   0  0  0  0  0  0  0  0  0  0  0  0
  1  2  1  0
  2  3  2  0
  2  8  1  0
  3  4  1  0
  4  5  2  0
  5  6  1  0
  6  7  1  0
  7  8  2  0
  7 41  1  0
  8  9  1  0
  9 10  1  1
  9 39  1  0
 10 11  2  0
 10 37  1  0
 11 12  1  0
 13 12  1  1
 13 14  1  0
 13 37  1  0
 14 15  1  1
 14 36  1  0
 15 16  1  0
 16 17  1  0
 17 18  1  0
 18 19  1  0
 18 36  1  0
 19 20  2  0
 19 21  1  0
 21 22  1  6
 21 23  1  0
 21 24  1  0
 24 25  1  0
 25 26  2  0
 25 27  1  0
 27 28  1  0
 28 29  1  0
 29 30  2  0
 29 34  1  0
 30 31  1  0
 31 32  2  0
 32 33  1  0
 33 34  2  0
 34 35  1  0
 37 38  2  0
 39 40  1  0
 40 41  1  0
M  END
