
     RDKit          3D

 33 36  0  0  0  0  0  0  0  0999 V2000
    5.8280    1.5160   -1.3530 C   0  0  0  0  0  0  0  0  0  0  0  0
    4.6500    0.7620   -1.3290 O   0  0  0  0  0  0  0  0  0  0  0  0
    4.7900   -0.3600   -0.6250 N   0  0  0  0  0  0  0  0  0  0  0  0
    6.0660   -1.0610   -0.7650 C   0  0  0  0  0  0  0  0  0  0  0  0
    3.7700   -0.8650    0.2130 C   0  0  0  0  0  0  0  0  0  0  0  0
    4.0260   -1.9490    0.8400 O   0  0  0  0  0  0  0  0  0  0  0  0
    2.4780   -0.2470    0.4040 C   0  0  0  0  0  0  0  0  0  0  0  0
    2.0310    0.9050   -0.1770 C   0  0  0  0  0  0  0  0  0  0  0  0
    0.7470    1.0990    0.2990 C   0  0  0  0  0  0  0  0  0  0  0  0
    0.4570    0.0810    1.1390 C   0  0  0  0  0  0  0  0  0  0  0  0
   -0.7120   -0.2950    1.9510 C   0  0  0  0  0  0  0  0  0  0  0  0
   -1.9820    0.0750    1.4470 N   0  0  0  0  0  0  0  0  0  0  0  0
   -2.4220    0.1050    0.1080 C   0  0  0  0  0  0  0  0  0  0  0  0
   -2.6760   -1.0730   -0.6120 C   0  0  0  0  0  0  0  0  0  0  0  0
   -2.5180   -2.4320   -0.1270 C   0  0  0  0  0  0  0  0  0  0  0  0
   -1.8780   -3.4150   -0.8500 C   0  0  0  0  0  0  0  0  0  0  0  0
   -1.7550   -4.7000   -0.3700 C   0  0  0  0  0  0  0  0  0  0  0  0
   -1.1260   -5.6840   -1.0690 F   0  0  0  0  0  0  0  0  0  0  0  0
   -2.2860   -5.0120    0.8690 C   0  0  0  0  0  0  0  0  0  0  0  0
   -2.1790   -6.2750    1.3720 F   0  0  0  0  0  0  0  0  0  0  0  0
   -2.9290   -4.0660    1.6180 C   0  0  0  0  0  0  0  0  0  0  0  0
   -3.6040   -4.4710    3.1950 Cl  0  0  0  0  0  0  0  0  0  0  0  0
   -3.0350   -2.7820    1.1050 C   0  0  0  0  0  0  0  0  0  0  0  0
   -3.0910   -0.6600   -1.8190 N   0  0  0  0  0  0  0  0  0  0  0  0
   -3.1030    0.6620   -1.8670 N   0  0  0  0  0  0  0  0  0  0  0  0
   -2.6910    1.1820   -0.6740 C   0  0  0  0  0  0  0  0  0  0  0  0
   -2.6360    2.5980   -0.3710 C   0  0  0  0  0  0  0  0  0  0  0  0
   -3.0180    3.5290   -1.3460 C   0  0  0  0  0  0  0  0  0  0  0  0
   -3.0140    4.8730   -1.1200 C   0  0  0  0  0  0  0  0  0  0  0  0
   -2.6290    5.3300    0.0840 N   0  0  0  0  0  0  0  0  0  0  0  0
   -2.2630    4.4690    1.0200 C   0  0  0  0  0  0  0  0  0  0  0  0
   -2.2480    3.1000    0.8480 C   0  0  0  0  0  0  0  0  0  0  0  0
    1.5450   -0.7080    1.1660 O   0  0  0  0  0  0  0  0  0  0  0  0
  1  2  1  0
  2  3  1  0
  3  4  1  0
  3  5  1  0
  5  6  2  0
  5  7  1  0
  7  8  2  0
  7 33  1  0
  8  9  1  0
  9 10  2  0
 10 11  1  0
 10 33  1  0
 11 12  1  0
 12 13  1  0
 13 14  1  0
 13 26  2  0
 14 15  1  0
 14 24  2  0
 15 16  2  0
 15 23  1  0
 16 17  1  0
 17 18  1  0
 17 19  2  0
 19 20  1  0
 19 21  1  0
 21 22  1  0
 21 23  2  0
 24 25  1  0
 25 26  1  0
 26 27  1  0
 27 28  2  0
 27 32  1  0
 28 29  1  0
 29 30  2  0
 30 31  1  0
 31 32  2  0
M  END
