
     RDKit          3D

 34 36  0  0  0  0  0  0  0  0999 V2000
   -5.1200   -2.5310   -0.1700 O   0  0  0  0  0  0  0  0  0  0  0  0
   -5.7650   -2.0560    0.9460 C   0  0  0  0  0  0  0  0  0  0  0  0
   -5.6350   -0.5630    1.0960 C   0  0  1  0  0  0  0  0  0  0  0  0
   -4.3590   -0.0970    1.2140 O   0  0  0  0  0  0  0  0  0  0  0  0
   -3.5880   -0.0830    0.0850 C   0  0  2  0  0  0  0  0  0  0  0  0
   -2.4200    0.6450    0.4220 O   0  0  0  0  0  0  0  0  0  0  0  0
   -1.2840   -0.1390    0.2610 C   0  0  1  0  0  0  0  0  0  0  0  0
   -0.4010    0.6130   -0.7370 C   0  0  1  0  0  0  0  0  0  0  0  0
   -0.3130    2.0430   -0.3010 C   0  0  0  0  0  0  0  0  0  0  0  0
   -1.6070    2.5590   -0.2400 O   0  0  0  0  0  0  0  0  0  0  0  0
    0.8280   -0.0080   -0.8400 O   0  0  0  0  0  0  0  0  0  0  0  0
    1.6220    0.0820    0.3010 C   0  0  2  0  0  0  0  0  0  0  0  0
    2.8030   -0.5090   -0.0480 O   0  0  0  0  0  0  0  0  0  0  0  0
    3.9260    0.2630   -0.0360 C   0  0  1  0  0  0  0  0  0  0  0  0
    4.8730   -0.2750    1.0180 C   0  0  2  0  0  0  0  0  0  0  0  0
    5.6140    0.8530    1.7290 C   0  0  0  0  0  0  0  0  0  0  0  0
    6.5460    1.4750    0.9450 O   0  0  0  0  0  0  0  0  0  0  0  0
    5.6880   -1.2730    0.5810 O   0  0  0  0  0  0  0  0  0  0  0  0
    6.3750   -1.0560   -0.5810 C   0  0  1  0  0  0  0  0  0  0  0  0
    7.1760   -2.2020   -0.7990 O   0  0  0  0  0  0  0  0  0  0  0  0
    5.3620   -0.9380   -1.7020 C   0  0  2  0  0  0  0  0  0  0  0  0
    5.9820   -0.7580   -2.9330 O   0  0  0  0  0  0  0  0  0  0  0  0
    4.5240    0.2880   -1.4080 C   0  0  1  0  0  0  0  0  0  0  0  0
    3.4940    0.2880   -2.3690 O   0  0  0  0  0  0  0  0  0  0  0  0
    0.9050   -0.5240    1.4450 C   0  0  1  0  0  0  0  0  0  0  0  0
    1.4570   -0.1570    2.6930 O   0  0  0  0  0  0  0  0  0  0  0  0
   -0.5460   -0.2190    1.5610 C   0  0  2  0  0  0  0  0  0  0  0  0
   -1.1300   -1.2380    2.3360 O   0  0  0  0  0  0  0  0  0  0  0  0
   -4.2020    0.5920   -1.0890 C   0  0  1  0  0  0  0  0  0  0  0  0
   -3.5620    0.1580   -2.2610 O   0  0  0  0  0  0  0  0  0  0  0  0
   -5.6690    0.2930   -1.2650 C   0  0  2  0  0  0  0  0  0  0  0  0
   -6.2300    1.3590   -1.9690 O   0  0  0  0  0  0  0  0  0  0  0  0
   -6.3970    0.1960    0.0520 C   0  0  2  0  0  0  0  0  0  0  0  0
   -6.6430    1.4780    0.5080 O   0  0  0  0  0  0  0  0  0  0  0  0
  1  2  1  0
  3  2  1  6
  3  4  1  0
  3 33  1  0
  4  5  1  0
  5  6  1  1
  5 29  1  0
  7  6  1  1
  7  8  1  0
  7 27  1  0
  8  9  1  1
  8 11  1  0
  9 10  1  0
 11 12  1  0
 12 13  1  6
 12 25  1  0
 14 13  1  6
 14 15  1  0
 14 23  1  0
 15 16  1  6
 15 18  1  0
 16 17  1  0
 18 19  1  0
 19 20  1  6
 19 21  1  0
 21 22  1  6
 21 23  1  0
 23 24  1  6
 25 26  1  1
 25 27  1  0
 27 28  1  1
 29 30  1  6
 29 31  1  0
 31 32  1  6
 31 33  1  0
 33 34  1  1
M  END
