
     RDKit          3D

 34 36  0  0  0  0  0  0  0  0999 V2000
    2.5860    0.2280   -3.8370 N   0  0  0  0  0  0  0  0  0  0  0  0
    3.0230   -0.3610   -2.9620 C   0  0  0  0  0  0  0  0  0  0  0  0
    3.6260   -1.1480   -1.7520 C   0  0  0  0  0  0  0  0  0  0  0  0
    2.5300   -1.5670   -0.9260 C   0  0  0  0  0  0  0  0  0  0  0  0
    1.5390   -0.6610   -0.8210 C   0  0  0  0  0  0  0  0  0  0  0  0
    0.3490   -0.8770   -0.1050 C   0  0  0  0  0  0  0  0  0  0  0  0
   -0.4340    0.2770    0.0420 C   0  0  0  0  0  0  0  0  0  0  0  0
   -1.6500    0.1630    0.7860 C   0  0  0  0  0  0  0  0  0  0  0  0
   -2.5510    1.1030    0.9660 C   0  0  0  0  0  0  0  0  0  0  0  0
   -2.3240    2.6710    0.2310 Cl  0  0  0  0  0  0  0  0  0  0  0  0
   -3.7000    0.9630    1.8480 C   0  0  0  0  0  0  0  0  0  0  0  0
   -4.7170    1.8500    1.8940 C   0  0  0  0  0  0  0  0  0  0  0  0
   -5.6420    1.4670    2.8160 C   0  0  0  0  0  0  0  0  0  0  0  0
   -5.1440    0.2880    3.3460 C   0  0  0  0  0  0  0  0  0  0  0  0
   -5.8690   -0.4450    4.3940 C   0  0  1  0  0  0  0  0  0  0  0  0
   -6.1310   -1.9370    4.0280 C   0  0  0  0  0  0  0  0  0  0  0  0
   -5.2980   -1.5340    5.1950 C   0  0  0  0  0  0  0  0  0  0  0  0
   -3.9880    0.0290    2.7380 O   0  0  0  0  0  0  0  0  0  0  0  0
    0.0100    1.4250   -0.7170 C   0  0  0  0  0  0  0  0  0  0  0  0
    0.3730    2.6600   -0.2550 C   0  0  0  0  0  0  0  0  0  0  0  0
    0.6680    3.7470   -1.0740 C   0  0  0  0  0  0  0  0  0  0  0  0
    1.1280    5.2940   -0.3850 Cl  0  0  0  0  0  0  0  0  0  0  0  0
    0.5940    3.5700   -2.4190 N   0  0  0  0  0  0  0  0  0  0  0  0
    0.2440    2.3660   -2.8980 C   0  0  0  0  0  0  0  0  0  0  0  0
    0.1460    2.2560   -4.3530 C   0  0  0  0  0  0  0  0  0  0  0  0
   -0.1890    1.1500   -4.8970 O   0  0  0  0  0  0  0  0  0  0  0  0
   -0.0410    1.3280   -2.1200 C   0  0  0  0  0  0  0  0  0  0  0  0
    4.8270   -1.5310   -2.0360 C   0  0  0  0  0  0  0  0  0  0  0  0
    5.4960   -1.3400   -3.2650 C   0  0  0  0  0  0  0  0  0  0  0  0
    6.8200   -1.8180   -3.4670 N   0  0  0  0  0  0  0  0  0  0  0  0
    4.9430   -0.7320   -4.2430 O   0  0  0  0  0  0  0  0  0  0  0  0
    5.5690   -2.2380   -0.9200 C   0  0  0  0  0  0  0  0  0  0  0  0
    6.8730   -2.6790   -1.1810 N   0  0  0  0  0  0  0  0  0  0  0  0
    5.0320   -2.4180    0.1820 O   0  0  0  0  0  0  0  0  0  0  0  0
  1  2  3  0
  2  3  1  0
  3  4  1  0
  3 28  2  3
  4  5  2  3
  5  6  1  0
  6  7  2  3
  7  8  1  0
  7 19  1  0
  8  9  2  3
  9 10  1  0
  9 11  1  0
 11 12  2  0
 11 18  1  0
 12 13  1  0
 13 14  2  0
 15 14  1  6
 14 18  1  0
 15 16  1  0
 15 17  1  0
 16 17  1  0
 19 20  2  0
 19 27  1  0
 20 21  1  0
 21 22  1  0
 21 23  2  0
 23 24  1  0
 24 25  1  0
 24 27  2  0
 25 26  2  0
 28 29  1  0
 28 32  1  0
 29 30  1  0
 29 31  2  0
 32 33  1  0
 32 34  2  0
M  END
