
     RDKit          3D

 34 36  0  0  0  0  0  0  0  0999 V2000
   -4.7980   -2.9540   -0.9240 C   0  0  0  0  0  0  0  0  0  0  0  0
   -5.2770   -1.8390   -0.0690 C   0  0  0  0  0  0  0  0  0  0  0  0
   -4.3940   -1.4060    1.0570 C   0  0  1  0  0  0  0  0  0  0  0  0
   -5.1330   -0.2820    1.8140 C   0  0  0  0  0  0  0  0  0  0  0  0
   -4.0650   -2.5030    2.0100 C   0  0  0  0  0  0  0  0  0  0  0  0
   -3.1580   -0.7480    0.6090 N   0  0  0  0  0  0  0  0  0  0  0  0
   -2.2910   -0.3040    1.6220 C   0  0  0  0  0  0  0  0  0  0  0  0
   -2.6680   -0.6090    2.8430 O   0  0  0  0  0  0  0  0  0  0  0  0
   -1.0690    0.4220    1.5570 C   0  0  0  0  0  0  0  0  0  0  0  0
   -0.6030    0.8230    0.2590 N   0  0  0  0  0  0  0  0  0  0  0  0
    0.2980    0.2250   -0.5350 C   0  0  0  0  0  0  0  0  0  0  0  0
    0.8550   -0.8810   -0.2010 N   0  0  0  0  0  0  0  0  0  0  0  0
    1.9080   -1.5260   -1.0530 C   0  0  0  0  0  0  0  0  0  0  0  0
    3.0050   -1.8340   -0.0210 C   0  0  2  0  0  0  0  0  0  0  0  0
    2.9870   -0.5970    0.8440 O   0  0  0  0  0  0  0  0  0  0  0  0
    4.3480   -1.7620   -0.5760 C   0  0  0  0  0  0  0  0  0  0  0  0
    4.6880   -1.8780   -1.8840 C   0  0  0  0  0  0  0  0  0  0  0  0
    6.0070   -1.7030   -2.3680 C   0  0  0  0  0  0  0  0  0  0  0  0
    6.3340   -1.8000   -4.0890 Cl  0  0  0  0  0  0  0  0  0  0  0  0
    7.0180   -1.3950   -1.4810 C   0  0  0  0  0  0  0  0  0  0  0  0
    6.7230   -1.2640   -0.1470 C   0  0  0  0  0  0  0  0  0  0  0  0
    7.7670   -0.9400    0.6810 O   0  0  0  0  0  0  0  0  0  0  0  0
    7.5680   -0.7400    2.0640 C   0  0  0  0  0  0  0  0  0  0  0  0
    5.4140   -1.4490    0.3100 C   0  0  0  0  0  0  0  0  0  0  0  0
    0.4770    0.9840   -1.6230 N   0  0  0  0  0  0  0  0  0  0  0  0
   -0.3150    2.0940   -1.5250 C   0  0  0  0  0  0  0  0  0  0  0  0
   -0.5060    3.1840   -2.2900 C   0  0  0  0  0  0  0  0  0  0  0  0
   -1.3470    4.2020   -1.9120 C   0  0  0  0  0  0  0  0  0  0  0  0
   -1.6010    5.6760   -2.8650 Cl  0  0  0  0  0  0  0  0  0  0  0  0
   -2.0330    4.1540   -0.7060 C   0  0  0  0  0  0  0  0  0  0  0  0
   -2.9520    5.2670   -0.3330 C   0  0  0  0  0  0  0  0  0  0  0  0
   -2.1560    6.4220   -0.0950 O   0  0  0  0  0  0  0  0  0  0  0  0
   -1.8230    3.0260    0.0460 C   0  0  0  0  0  0  0  0  0  0  0  0
   -0.9840    1.9810   -0.3330 C   0  0  0  0  0  0  0  0  0  0  0  0
  1  2  1  0
  2  3  1  0
  3  4  1  1
  3  5  1  0
  3  6  1  0
  6  7  1  0
  7  8  2  0
  7  9  1  0
  9 10  1  0
 10 11  1  0
 10 34  1  0
 11 12  2  3
 11 25  1  0
 12 13  1  0
 13 14  1  0
 14 15  1  1
 14 16  1  0
 16 17  2  0
 16 24  1  0
 17 18  1  0
 18 19  1  0
 18 20  2  0
 20 21  1  0
 21 22  1  0
 21 24  2  0
 22 23  1  0
 25 26  1  0
 26 27  2  0
 26 34  1  0
 27 28  1  0
 28 29  1  0
 28 30  2  0
 30 31  1  0
 30 33  1  0
 31 32  1  0
 33 34  2  0
M  END
