
     RDKit          3D

 38 42  0  0  0  0  0  0  0  0999 V2000
    4.7800    1.2660    3.7770 C   0  0  0  0  0  0  0  0  0  0  0  0
    4.4920    0.5970    2.5750 O   0  0  0  0  0  0  0  0  0  0  0  0
    5.0520    1.0440    1.3960 C   0  0  0  0  0  0  0  0  0  0  0  0
    5.8910    2.1460    1.4220 C   0  0  0  0  0  0  0  0  0  0  0  0
    6.4610    2.6100    0.2610 C   0  0  0  0  0  0  0  0  0  0  0  0
    6.1840    1.9560   -0.9390 C   0  0  0  0  0  0  0  0  0  0  0  0
    5.3470    0.8650   -0.9280 C   0  0  0  0  0  0  0  0  0  0  0  0
    5.0750    0.2270   -2.0890 F   0  0  0  0  0  0  0  0  0  0  0  0
    4.7630    0.3810    0.2210 C   0  0  0  0  0  0  0  0  0  0  0  0
    3.8950   -0.7390    0.2850 N   0  0  0  0  0  0  0  0  0  0  0  0
    2.4630   -0.5930    0.1390 C   0  0  0  0  0  0  0  0  0  0  0  0
    2.0850    0.5800   -0.0430 O   0  0  0  0  0  0  0  0  0  0  0  0
    1.5940   -1.7670    0.2090 C   0  0  0  0  0  0  0  0  0  0  0  0
    2.0480   -3.0120    0.4070 O   0  0  0  0  0  0  0  0  0  0  0  0
    1.0660   -3.8600    0.4260 C   0  0  0  0  0  0  0  0  0  0  0  0
    1.0000   -5.2440    0.5950 C   0  0  0  0  0  0  0  0  0  0  0  0
   -0.2040   -5.9160    0.5720 C   0  0  0  0  0  0  0  0  0  0  0  0
   -0.2100   -7.6540    0.7910 Cl  0  0  0  0  0  0  0  0  0  0  0  0
   -1.3530   -5.1880    0.3780 C   0  0  0  0  0  0  0  0  0  0  0  0
   -2.5470   -5.8190    0.3510 F   0  0  0  0  0  0  0  0  0  0  0  0
   -1.3300   -3.8010    0.2050 C   0  0  0  0  0  0  0  0  0  0  0  0
   -0.0980   -3.1800    0.2370 C   0  0  0  0  0  0  0  0  0  0  0  0
    0.2390   -1.8230    0.0950 C   0  0  0  0  0  0  0  0  0  0  0  0
   -0.6910   -0.7290   -0.1250 C   0  0  0  0  0  0  0  0  0  0  0  0
   -0.4090    0.4760   -0.2520 O   0  0  0  0  0  0  0  0  0  0  0  0
   -2.0770   -0.9980   -0.2150 O   0  0  0  0  0  0  0  0  0  0  0  0
   -3.0100   -0.0160   -0.4220 C   0  0  0  0  0  0  0  0  0  0  0  0
   -3.5900    0.6300    0.6430 C   0  0  0  0  0  0  0  0  0  0  0  0
   -3.2340    0.2930    1.9000 F   0  0  0  0  0  0  0  0  0  0  0  0
   -4.5450    1.6350    0.4440 C   0  0  0  0  0  0  0  0  0  0  0  0
   -4.9040    1.9750   -0.8320 C   0  0  0  0  0  0  0  0  0  0  0  0
   -4.3370    1.3410   -1.9140 C   0  0  0  0  0  0  0  0  0  0  0  0
   -3.3870    0.3430   -1.6850 C   0  0  0  0  0  0  0  0  0  0  0  0
   -2.8120   -0.3000   -2.7660 O   0  0  0  0  0  0  0  0  0  0  0  0
   -4.7560    1.7420   -3.2770 C   0  0  0  0  0  0  0  0  0  0  0  0
   -5.2150    3.1820   -3.2260 C   0  0  0  0  0  0  0  0  0  0  0  0
   -6.3160    3.1950   -2.3400 O   0  0  0  0  0  0  0  0  0  0  0  0
   -5.9110    3.0340   -1.0390 C   0  0  0  0  0  0  0  0  0  0  0  0
  1  2  1  0
  2  3  1  0
  3  4  2  0
  3  9  1  0
  4  5  1  0
  5  6  2  0
  6  7  1  0
  7  8  1  0
  7  9  2  0
  9 10  1  0
 10 11  1  0
 11 12  2  0
 11 13  1  0
 13 14  1  0
 13 23  2  0
 14 15  1  0
 15 16  2  0
 15 22  1  0
 16 17  1  0
 17 18  1  0
 17 19  2  0
 19 20  1  0
 19 21  1  0
 21 22  2  0
 22 23  1  0
 23 24  1  0
 24 25  2  0
 24 26  1  0
 26 27  1  0
 27 28  2  0
 27 33  1  0
 28 29  1  0
 28 30  1  0
 30 31  2  0
 31 32  1  0
 31 38  1  0
 32 33  2  0
 32 35  1  0
 33 34  1  0
 35 36  1  0
 36 37  1  0
 37 38  1  0
M  END
