
     RDKit          3D

 38 41  0  0  0  0  0  0  0  0999 V2000
   -1.7010    1.3450    1.0770 O   0  0  0  0  0  0  0  0  0  0  0  0
   -1.2810    1.5770   -0.0770 C   0  0  0  0  0  0  0  0  0  0  0  0
   -1.5370    2.7650   -0.7250 O   0  0  0  0  0  0  0  0  0  0  0  0
   -2.2770    3.7980   -0.1570 C   0  0  0  0  0  0  0  0  0  0  0  0
   -1.6560    4.3270    1.1100 C   0  0  0  0  0  0  0  0  0  0  0  0
   -2.4270    5.3590    1.6450 O   0  0  0  0  0  0  0  0  0  0  0  0
   -0.5290    0.5660   -0.6890 O   0  0  0  0  0  0  0  0  0  0  0  0
   -0.2690   -0.6230   -0.0490 C   0  0  0  0  0  0  0  0  0  0  0  0
   -1.1660   -1.6640   -0.2150 C   0  0  0  0  0  0  0  0  0  0  0  0
   -2.3070   -1.4590   -1.0810 C   0  0  0  0  0  0  0  0  0  0  0  0
   -3.5410   -1.5540   -0.6240 C   0  0  0  0  0  0  0  0  0  0  0  0
   -3.8890   -1.8560    0.7550 C   0  0  0  0  0  0  0  0  0  0  0  0
   -5.1690   -1.9730    1.1460 C   0  0  0  0  0  0  0  0  0  0  0  0
   -6.2650   -1.8060    0.2210 C   0  0  0  0  0  0  0  0  0  0  0  0
   -7.4810   -1.5520    0.6390 C   0  0  0  0  0  0  0  0  0  0  0  0
   -8.5030   -1.3950   -0.2180 F   0  0  0  0  0  0  0  0  0  0  0  0
   -6.0190   -1.9240   -1.2610 C   0  0  0  0  0  0  0  0  0  0  0  0
   -4.6690   -1.3830   -1.5470 C   0  0  0  0  0  0  0  0  0  0  0  0
   -4.4210   -0.7370   -2.6210 O   0  0  0  0  0  0  0  0  0  0  0  0
   -0.9570   -2.8920    0.4050 C   0  0  0  0  0  0  0  0  0  0  0  0
   -2.0460   -4.2460    0.1570 Cl  0  0  0  0  0  0  0  0  0  0  0  0
    0.1640   -3.0880    1.2060 C   0  0  0  0  0  0  0  0  0  0  0  0
    1.0560   -2.0510    1.3710 C   0  0  0  0  0  0  0  0  0  0  0  0
    2.1710   -2.1860    2.1440 F   0  0  0  0  0  0  0  0  0  0  0  0
    0.8370   -0.8280    0.7450 C   0  0  0  0  0  0  0  0  0  0  0  0
    1.8040    0.2330    0.9480 C   0  0  0  0  0  0  0  0  0  0  0  0
    1.6020    1.0060    1.9290 O   0  0  0  0  0  0  0  0  0  0  0  0
    2.9300    0.4130    0.0990 N   0  0  0  0  0  0  0  0  0  0  0  0
    3.8510    1.5000    0.3710 C   0  0  0  0  0  0  0  0  0  0  0  0
    5.2310    0.9130    0.2160 C   0  0  0  0  0  0  0  0  0  0  0  0
    6.3400    0.9700    0.9270 C   0  0  0  0  0  0  0  0  0  0  0  0
    6.4380    1.6680    2.0870 F   0  0  0  0  0  0  0  0  0  0  0  0
    7.3780    0.1730    0.2470 C   0  0  0  0  0  0  0  0  0  0  0  0
    6.6830   -0.3430   -0.9590 C   0  0  0  0  0  0  0  0  0  0  0  0
    5.4330    0.0910   -0.9730 C   0  0  0  0  0  0  0  0  0  0  0  0
    4.2460   -0.0470   -1.8560 C   0  0  1  0  0  0  0  0  0  0  0  0
    4.4750   -0.8600   -2.9420 O   0  0  0  0  0  0  0  0  0  0  0  0
    3.0990   -0.5050   -1.0000 C   0  0  0  0  0  0  0  0  0  0  0  0
  1  2  2  0
  2  3  1  0
  2  7  1  0
  3  4  1  0
  4  5  1  0
  5  6  1  0
  7  8  1  0
  8  9  2  0
  8 25  1  0
  9 10  1  0
  9 20  1  0
 10 11  2  3
 11 12  1  0
 11 18  1  0
 12 13  2  0
 13 14  1  0
 14 15  2  3
 14 17  1  0
 15 16  1  0
 17 18  1  0
 18 19  2  0
 20 21  1  0
 20 22  2  0
 22 23  1  0
 23 24  1  0
 23 25  2  0
 25 26  1  0
 26 27  2  0
 26 28  1  0
 28 29  1  0
 28 38  1  0
 29 30  1  0
 30 31  2  0
 30 35  1  0
 31 32  1  0
 31 33  1  0
 33 34  1  0
 34 35  2  0
 35 36  1  0
 36 37  1  6
 36 38  1  0
M  END
