
     RDKit          3D

 38 41  0  0  0  0  0  0  0  0999 V2000
   -3.1880    0.9490    1.6420 C   0  0  0  0  0  0  0  0  0  0  0  0
   -3.6030    0.4490    0.2900 C   0  0  0  0  0  0  0  0  0  0  0  0
   -2.7100    0.0230   -0.6420 C   0  0  0  0  0  0  0  0  0  0  0  0
   -1.2980   -0.0930   -0.3860 C   0  0  0  0  0  0  0  0  0  0  0  0
   -0.7220   -0.8250    0.5260 C   0  0  0  0  0  0  0  0  0  0  0  0
    0.7500   -0.7360    0.5550 C   0  0  0  0  0  0  0  0  0  0  0  0
    1.6280   -1.1090    1.4800 C   0  0  0  0  0  0  0  0  0  0  0  0
    3.0460   -0.8700    1.1800 C   0  0  0  0  0  0  0  0  0  0  0  0
    3.8850   -1.2160    2.0440 O   0  0  0  0  0  0  0  0  0  0  0  0
    3.4860   -0.2980    0.0210 O   0  0  0  0  0  0  0  0  0  0  0  0
    4.8060   -0.0520   -0.3130 C   0  0  0  0  0  0  0  0  0  0  0  0
    5.5990   -0.9690   -0.9660 C   0  0  0  0  0  0  0  0  0  0  0  0
    6.9320   -0.6700   -1.2830 C   0  0  0  0  0  0  0  0  0  0  0  0
    7.7000   -1.6210   -1.9410 O   0  0  0  0  0  0  0  0  0  0  0  0
    7.4820    0.5490   -0.9490 C   0  0  0  0  0  0  0  0  0  0  0  0
    8.8980    0.8370   -1.3020 C   0  0  0  0  0  0  0  0  0  0  0  0
   10.0490    0.0170   -0.2340 Cl  0  0  0  0  0  0  0  0  0  0  0  0
    6.6810    1.4590   -0.2970 C   0  0  0  0  0  0  0  0  0  0  0  0
    5.3560    1.1660    0.0200 C   0  0  0  0  0  0  0  0  0  0  0  0
    4.5210    2.1470    0.7150 C   0  0  0  0  0  0  0  0  0  0  0  0
    5.2760    3.2930    0.9490 O   0  0  0  0  0  0  0  0  0  0  0  0
    1.3340   -1.7010    2.7000 O   0  0  0  0  0  0  0  0  0  0  0  0
    0.1400   -2.2350    3.2530 C   0  0  0  0  0  0  0  0  0  0  0  0
   -1.0670   -1.4090    2.8440 C   0  0  0  0  0  0  0  0  0  0  0  0
   -1.4840   -1.7140    1.4220 C   0  0  0  0  0  0  0  0  0  0  0  0
   -3.1690   -0.3730   -1.8900 C   0  0  0  0  0  0  0  0  0  0  0  0
   -4.4880   -0.3640   -2.2510 C   0  0  0  0  0  0  0  0  0  0  0  0
   -4.9410   -0.7600   -3.5020 O   0  0  0  0  0  0  0  0  0  0  0  0
   -5.0600    0.1860   -4.5680 C   0  0  1  0  0  0  0  0  0  0  0  0
   -5.5270   -0.4250   -5.7130 F   0  0  0  0  0  0  0  0  0  0  0  0
   -5.9660    1.1840   -4.2320 F   0  0  0  0  0  0  0  0  0  0  0  0
   -3.8530    0.7810   -4.8470 F   0  0  0  0  0  0  0  0  0  0  0  0
   -5.3810    0.0690   -1.2930 C   0  0  0  0  0  0  0  0  0  0  0  0
   -4.9470    0.4730   -0.0330 C   0  0  0  0  0  0  0  0  0  0  0  0
   -5.9470    0.8960    0.8820 N   0  0  0  0  0  0  0  0  0  0  0  0
   -7.3630    0.6200    0.7300 C   0  0  0  0  0  0  0  0  0  0  0  0
   -7.6890   -0.1240   -0.5240 C   0  0  0  0  0  0  0  0  0  0  0  0
   -6.7450    0.1160   -1.5570 O   0  0  0  0  0  0  0  0  0  0  0  0
  1  2  1  0
  2  3  2  0
  2 34  1  0
  3  4  1  0
  3 26  1  0
  4  5  2  3
  5  6  1  0
  5 25  1  0
  6  7  2  0
  7  8  1  0
  7 22  1  0
  8  9  2  0
  8 10  1  0
 10 11  1  0
 11 12  2  0
 11 19  1  0
 12 13  1  0
 13 14  1  0
 13 15  2  0
 15 16  1  0
 15 18  1  0
 16 17  1  0
 18 19  2  0
 19 20  1  0
 20 21  1  0
 22 23  1  0
 23 24  1  0
 24 25  1  0
 26 27  2  0
 27 28  1  0
 27 33  1  0
 28 29  1  0
 29 30  1  6
 29 31  1  0
 29 32  1  0
 33 34  2  0
 33 38  1  0
 34 35  1  0
 35 36  1  0
 36 37  1  0
 37 38  1  0
M  END
