
     RDKit          3D

 38 42  0  0  0  0  0  0  0  0999 V2000
   -8.7390   -4.1350   -1.2790 C   0  0  0  0  0  0  0  0  0  0  0  0
   -9.2680   -2.9950   -0.5570 N   0  0  0  0  0  0  0  0  0  0  0  0
  -10.7000   -2.8280   -0.4340 C   0  0  0  0  0  0  0  0  0  0  0  0
   -8.3440   -2.0480    0.0300 C   0  0  0  0  0  0  0  0  0  0  0  0
   -7.0870   -2.3640    0.1420 C   0  0  0  0  0  0  0  0  0  0  0  0
   -6.0770   -1.4730    0.7230 C   0  0  0  0  0  0  0  0  0  0  0  0
   -6.6750   -0.2570    1.1950 N   0  0  0  0  0  0  0  0  0  0  0  0
   -5.8250    0.7190    1.8760 C   0  0  0  0  0  0  0  0  0  0  0  0
   -4.7790    1.1460    0.9010 C   0  0  0  0  0  0  0  0  0  0  0  0
   -3.5540    0.5170    0.8320 C   0  0  0  0  0  0  0  0  0  0  0  0
   -2.6110    0.9750   -0.0940 C   0  0  0  0  0  0  0  0  0  0  0  0
   -2.8770    2.0280   -0.9290 C   0  0  0  0  0  0  0  0  0  0  0  0
   -1.8570    2.5120   -1.8890 C   0  0  0  0  0  0  0  0  0  0  0  0
   -1.0630    3.5680   -1.1800 C   0  0  0  0  0  0  0  0  0  0  0  0
    0.0340    4.1840   -1.9500 C   0  0  0  0  0  0  0  0  0  0  0  0
    1.1250    3.2510   -2.3390 C   0  0  0  0  0  0  0  0  0  0  0  0
    1.8350    2.6330   -1.1980 C   0  0  0  0  0  0  0  0  0  0  0  0
    1.4650    1.3990   -0.7380 C   0  0  0  0  0  0  0  0  0  0  0  0
    2.1360    0.8470    0.3610 C   0  0  0  0  0  0  0  0  0  0  0  0
    3.1570    1.4770    1.0140 C   0  0  0  0  0  0  0  0  0  0  0  0
    3.8640    0.8980    2.1760 C   0  0  0  0  0  0  0  0  0  0  0  0
    5.0440    0.1570    1.6490 N   0  0  0  0  0  0  0  0  0  0  0  0
    5.8870   -0.5210    2.5520 C   0  0  0  0  0  0  0  0  0  0  0  0
    6.9350   -1.1850    2.1330 C   0  0  0  0  0  0  0  0  0  0  0  0
    7.2960   -1.2650    0.7230 C   0  0  0  0  0  0  0  0  0  0  0  0
    8.4340   -1.9860    0.2750 N   0  0  0  0  0  0  0  0  0  0  0  0
    8.9020   -2.0000   -1.0940 C   0  0  0  0  0  0  0  0  0  0  0  0
   10.3610   -2.3830   -1.0290 C   0  0  0  0  0  0  0  0  0  0  0  0
   10.5860   -2.9550    0.3400 C   0  0  0  0  0  0  0  0  0  0  0  0
    9.2840   -2.7990    1.1030 C   0  0  0  0  0  0  0  0  0  0  0  0
    6.4980   -0.6250   -0.1150 C   0  0  0  0  0  0  0  0  0  0  0  0
    5.2990    0.1450    0.2390 C   0  0  0  0  0  0  0  0  0  0  0  0
    3.5350    2.7420    0.5400 C   0  0  0  0  0  0  0  0  0  0  0  0
    2.8700    3.2760   -0.5390 C   0  0  0  0  0  0  0  0  0  0  0  0
   -4.0930    2.6550   -0.8630 C   0  0  0  0  0  0  0  0  0  0  0  0
   -5.0370    2.2080    0.0520 C   0  0  0  0  0  0  0  0  0  0  0  0
   -8.0270    0.0710    1.0600 C   0  0  0  0  0  0  0  0  0  0  0  0
   -8.8620   -0.7790    0.5000 C   0  0  0  0  0  0  0  0  0  0  0  0
  1  2  1  0
  2  3  1  0
  2  4  1  0
  4  5  2  0
  4 38  1  0
  5  6  1  0
  6  7  1  0
  7  8  1  0
  7 37  1  0
  8  9  1  0
  9 10  2  0
  9 36  1  0
 10 11  1  0
 11 12  2  0
 12 13  1  0
 12 35  1  0
 13 14  1  0
 14 15  1  0
 15 16  1  0
 16 17  1  0
 17 18  2  0
 17 34  1  0
 18 19  1  0
 19 20  2  0
 20 21  1  0
 20 33  1  0
 21 22  1  0
 22 23  1  0
 22 32  1  0
 23 24  2  0
 24 25  1  0
 25 26  1  0
 25 31  2  0
 26 27  1  0
 26 30  1  0
 27 28  1  0
 28 29  1  0
 29 30  1  0
 31 32  1  0
 33 34  2  0
 35 36  2  0
 37 38  2  0
M  END
