
     RDKit          3D

 38 41  0  0  0  0  0  0  0  0999 V2000
   -3.3680   -3.6950    0.8340 C   0  0  0  0  0  0  0  0  0  0  0  0
   -3.0480   -2.2410    0.5830 C   0  0  1  0  0  0  0  0  0  0  0  0
   -4.4110   -1.5580    0.3630 C   0  0  0  0  0  0  0  0  0  0  0  0
   -2.4510   -1.6470    1.7860 C   0  0  0  0  0  0  0  0  0  0  0  0
   -1.6200   -0.4480    1.5500 C   0  0  0  0  0  0  0  0  0  0  0  0
   -1.0130    0.3400    2.9890 Cl  0  0  0  0  0  0  0  0  0  0  0  0
   -1.4310    0.1070    0.3590 C   0  0  0  0  0  0  0  0  0  0  0  0
   -0.5860    1.2710    0.2140 C   0  0  0  0  0  0  0  0  0  0  0  0
    0.0910    1.6560    1.4100 O   0  0  0  0  0  0  0  0  0  0  0  0
    1.4380    1.1470    1.5340 C   0  0  0  0  0  0  0  0  0  0  0  0
    1.4560   -0.2500    1.4440 O   0  0  0  0  0  0  0  0  0  0  0  0
    2.6410   -0.9440    1.5370 C   0  0  0  0  0  0  0  0  0  0  0  0
    2.7080   -2.3070    1.4560 C   0  0  0  0  0  0  0  0  0  0  0  0
    3.9120   -2.9820    1.5520 C   0  0  0  0  0  0  0  0  0  0  0  0
    5.0950   -2.2900    1.7340 C   0  0  0  0  0  0  0  0  0  0  0  0
    6.3080   -2.9600    1.8320 O   0  0  0  0  0  0  0  0  0  0  0  0
    5.0300   -0.9250    1.8160 C   0  0  0  0  0  0  0  0  0  0  0  0
    6.1670   -0.2020    1.9950 F   0  0  0  0  0  0  0  0  0  0  0  0
    3.8350   -0.2640    1.7200 C   0  0  0  0  0  0  0  0  0  0  0  0
   -0.3800    1.9520   -0.8860 C   0  0  0  0  0  0  0  0  0  0  0  0
   -0.9280    1.6570   -2.1490 O   0  0  0  0  0  0  0  0  0  0  0  0
   -0.8540    2.7850   -2.9870 C   0  0  0  0  0  0  0  0  0  0  0  0
    0.2940    3.4590   -2.4730 O   0  0  0  0  0  0  0  0  0  0  0  0
    0.4140    3.1350   -1.0860 C   0  0  0  0  0  0  0  0  0  0  0  0
    1.1360    3.8900   -0.2910 C   0  0  0  0  0  0  0  0  0  0  0  0
    1.8530    5.0540   -0.7890 C   0  0  0  0  0  0  0  0  0  0  0  0
    2.4420    5.1580   -1.9320 O   0  0  0  0  0  0  0  0  0  0  0  0
    3.0060    6.3500   -2.0870 C   0  0  0  0  0  0  0  0  0  0  0  0
    3.6950    6.7700   -3.1670 F   0  0  0  0  0  0  0  0  0  0  0  0
    2.7640    7.0880   -0.9510 C   0  0  0  0  0  0  0  0  0  0  0  0
    2.0310    6.2700   -0.1200 C   0  0  0  0  0  0  0  0  0  0  0  0
    1.5510    6.5530    1.1250 F   0  0  0  0  0  0  0  0  0  0  0  0
   -2.1540   -0.5170   -0.7840 C   0  0  0  0  0  0  0  0  0  0  0  0
   -2.6000    0.1310   -1.7090 O   0  0  0  0  0  0  0  0  0  0  0  0
   -2.2890   -2.0240   -0.6900 C   0  0  1  0  0  0  0  0  0  0  0  0
   -0.9470   -2.6390   -0.7720 C   0  0  0  0  0  0  0  0  0  0  0  0
   -3.1080   -2.4820   -1.8770 C   0  0  0  0  0  0  0  0  0  0  0  0
   -3.4230   -3.8760   -1.7740 N   0  0  0  0  0  0  0  0  0  0  0  0
  2  1  1  1
  2  3  1  0
  2  4  1  0
  2 35  1  0
  4  5  1  0
  5  6  1  0
  5  7  2  0
  7  8  1  0
  7 33  1  0
  8  9  1  0
  8 20  2  3
  9 10  1  0
 10 11  1  0
 11 12  1  0
 12 13  2  0
 12 19  1  0
 13 14  1  0
 14 15  2  0
 15 16  1  0
 15 17  1  0
 17 18  1  0
 17 19  2  0
 20 21  1  0
 20 24  1  0
 21 22  1  0
 22 23  1  0
 23 24  1  0
 24 25  2  3
 25 26  1  0
 26 27  1  0
 26 31  2  0
 27 28  1  0
 28 29  1  0
 28 30  2  0
 30 31  1  0
 31 32  1  0
 33 34  2  0
 33 35  1  0
 35 36  1  1
 35 37  1  0
 37 38  1  0
M  END
