
     RDKit          3D

 38 41  0  0  0  0  0  0  0  0999 V2000
    8.3490   -1.2820    1.9200 C   0  0  0  0  0  0  0  0  0  0  0  0
    8.1480   -1.1070    0.4310 C   0  0  0  0  0  0  0  0  0  0  0  0
    6.9260   -0.4850    0.1110 O   0  0  0  0  0  0  0  0  0  0  0  0
    5.6820   -1.0470    0.4690 C   0  0  0  0  0  0  0  0  0  0  0  0
    5.7820   -2.1120    1.0750 O   0  0  0  0  0  0  0  0  0  0  0  0
    4.4640   -0.3450    0.1050 C   0  0  0  0  0  0  0  0  0  0  0  0
    4.6110    0.9010   -0.5580 C   0  0  0  0  0  0  0  0  0  0  0  0
    3.4900    1.5920   -0.8790 C   0  0  0  0  0  0  0  0  0  0  0  0
    2.2100    1.1510   -0.5930 C   0  0  0  0  0  0  0  0  0  0  0  0
    2.0290   -0.0470    0.0500 C   0  0  0  0  0  0  0  0  0  0  0  0
    3.1910   -0.7940    0.3890 C   0  0  0  0  0  0  0  0  0  0  0  0
    3.0730   -2.1350    0.8720 N   0  0  0  0  0  0  0  0  0  0  0  0
    1.7520   -2.7100    0.9940 C   0  0  0  0  0  0  0  0  0  0  0  0
    1.5860   -3.6650    1.7510 O   0  0  0  0  0  0  0  0  0  0  0  0
    0.6570   -2.0720    0.1550 C   0  0  0  0  0  0  0  0  0  0  0  0
    0.7800   -0.5890    0.5140 C   0  0  2  0  0  0  0  0  0  0  0  0
   -0.4620    0.1110    0.5280 C   0  0  0  0  0  0  0  0  0  0  0  0
   -0.6160    1.3320    0.6730 O   0  0  0  0  0  0  0  0  0  0  0  0
   -1.6820   -0.6050    0.3610 O   0  0  0  0  0  0  0  0  0  0  0  0
   -2.9070    0.0710    0.3680 C   0  0  0  0  0  0  0  0  0  0  0  0
   -4.0460   -0.9020    0.1260 C   0  0  0  0  0  0  0  0  0  0  0  0
   -3.6920   -2.1400   -0.0400 C   0  0  0  0  0  0  0  0  0  0  0  0
   -4.6160   -3.2470   -0.2850 C   0  0  2  0  0  0  0  0  0  0  0  0
   -5.2790   -3.1560   -1.4880 F   0  0  0  0  0  0  0  0  0  0  0  0
   -5.5000   -3.4490    0.7810 F   0  0  0  0  0  0  0  0  0  0  0  0
   -3.9230   -4.4760   -0.3580 F   0  0  0  0  0  0  0  0  0  0  0  0
   -5.3740   -0.3400    0.0790 C   0  0  0  0  0  0  0  0  0  0  0  0
   -6.8170   -1.3050   -0.2190 Cl  0  0  0  0  0  0  0  0  0  0  0  0
   -5.5100    0.9750    0.2980 C   0  0  0  0  0  0  0  0  0  0  0  0
   -6.8360    1.5540    0.2510 C   0  0  0  0  0  0  0  0  0  0  0  0
   -7.3740    2.3750    1.2280 C   0  0  0  0  0  0  0  0  0  0  0  0
   -8.5880    2.7280    0.8310 O   0  0  0  0  0  0  0  0  0  0  0  0
   -8.8630    2.1910   -0.3300 C   0  0  0  0  0  0  0  0  0  0  0  0
   -7.7850    1.4440   -0.7300 C   0  0  0  0  0  0  0  0  0  0  0  0
   -7.6620    0.7190   -1.8910 O   0  0  0  0  0  0  0  0  0  0  0  0
    1.2590    2.1440   -1.1310 C   0  0  0  0  0  0  0  0  0  0  0  0
    2.0670    2.8870   -2.2460 C   0  0  0  0  0  0  0  0  0  0  0  0
    3.4380    2.9130   -1.6000 C   0  0  0  0  0  0  0  0  0  0  0  0
  1  2  1  0
  2  3  1  0
  3  4  1  0
  4  5  2  0
  4  6  1  0
  6  7  2  0
  6 11  1  0
  7  8  1  0
  8  9  2  0
  8 38  1  0
  9 10  1  0
  9 36  1  0
 10 11  2  0
 10 16  1  0
 11 12  1  0
 12 13  1  0
 13 14  2  0
 13 15  1  0
 15 16  1  0
 16 17  1  6
 17 18  2  0
 17 19  1  0
 19 20  1  0
 20 21  1  0
 21 22  2  3
 21 27  1  0
 22 23  1  0
 23 24  1  6
 23 25  1  0
 23 26  1  0
 27 28  1  0
 27 29  2  3
 29 30  1  0
 30 31  2  0
 30 34  1  0
 31 32  1  0
 32 33  1  0
 33 34  2  0
 34 35  1  0
 36 37  1  0
 37 38  1  0
M  END
