
     RDKit          3D

 37 41  0  0  0  0  0  0  0  0999 V2000
   -7.4350    2.3840    1.5310 O   0  0  0  0  0  0  0  0  0  0  0  0
   -6.9170    1.3120    1.3230 C   0  0  0  0  0  0  0  0  0  0  0  0
   -6.5430    0.4530    2.4650 C   0  0  0  0  0  0  0  0  0  0  0  0
   -6.1390   -0.9490    1.9890 C   0  0  0  0  0  0  0  0  0  0  0  0
   -5.1300   -0.7410    0.9080 C   0  0  0  0  0  0  0  0  0  0  0  0
   -3.9420   -1.4160    0.8770 C   0  0  0  0  0  0  0  0  0  0  0  0
   -3.7000   -2.2990    1.8780 F   0  0  0  0  0  0  0  0  0  0  0  0
   -3.0310   -1.1960   -0.1440 C   0  0  0  0  0  0  0  0  0  0  0  0
   -3.2690   -0.2860   -1.1810 C   0  0  0  0  0  0  0  0  0  0  0  0
   -2.3240   -0.1610   -2.2800 C   0  0  0  0  0  0  0  0  0  0  0  0
   -2.7530    0.2290   -3.4030 O   0  0  0  0  0  0  0  0  0  0  0  0
   -0.9000   -0.4520   -2.1980 C   0  0  0  0  0  0  0  0  0  0  0  0
   -0.2880   -0.3240   -0.9630 C   0  0  0  0  0  0  0  0  0  0  0  0
    1.0820   -0.4920   -0.7850 C   0  0  0  0  0  0  0  0  0  0  0  0
    1.8290   -0.7930   -1.8940 C   0  0  0  0  0  0  0  0  0  0  0  0
    1.2300   -0.9190   -3.1180 C   0  0  0  0  0  0  0  0  0  0  0  0
   -0.1530   -0.7540   -3.3120 C   0  0  0  0  0  0  0  0  0  0  0  0
   -0.6380   -0.9070   -4.5810 O   0  0  0  0  0  0  0  0  0  0  0  0
    3.1490   -0.9040   -1.4280 O   0  0  0  0  0  0  0  0  0  0  0  0
    3.0850   -1.1630   -0.0480 C   0  0  1  0  0  0  0  0  0  0  0  0
    4.2970   -0.6520    0.6770 C   0  0  0  0  0  0  0  0  0  0  0  0
    4.3130   -0.8420    1.8910 O   0  0  0  0  0  0  0  0  0  0  0  0
    5.3370   -0.0030    0.0100 N   0  0  0  0  0  0  0  0  0  0  0  0
    6.5090    0.5100    0.5990 C   0  0  0  0  0  0  0  0  0  0  0  0
    6.7920    0.4370    1.9440 C   0  0  0  0  0  0  0  0  0  0  0  0
    7.9940    0.9820    2.4250 C   0  0  0  0  0  0  0  0  0  0  0  0
    8.2350    0.8890    3.7610 F   0  0  0  0  0  0  0  0  0  0  0  0
    8.8730    1.5790    1.5680 C   0  0  0  0  0  0  0  0  0  0  0  0
   10.0180    2.0930    2.0660 F   0  0  0  0  0  0  0  0  0  0  0  0
    8.6160    1.6670    0.2150 C   0  0  0  0  0  0  0  0  0  0  0  0
    7.4420    1.1330   -0.2480 C   0  0  0  0  0  0  0  0  0  0  0  0
    7.1040    1.2390   -1.9710 Cl  0  0  0  0  0  0  0  0  0  0  0  0
    1.9240   -0.4220    0.3230 O   0  0  0  0  0  0  0  0  0  0  0  0
   -4.4610    0.3920   -1.1510 C   0  0  0  0  0  0  0  0  0  0  0  0
   -4.8070    1.3130   -2.1120 O   0  0  0  0  0  0  0  0  0  0  0  0
   -5.3790    0.1510   -0.1000 C   0  0  0  0  0  0  0  0  0  0  0  0
   -6.6690    0.8870   -0.0710 C   0  0  0  0  0  0  0  0  0  0  0  0
  1  2  2  0
  2  3  1  0
  2 37  1  0
  3  4  1  0
  4  5  1  0
  5  6  2  0
  5 36  1  0
  6  7  1  0
  6  8  1  0
  8  9  2  0
  9 10  1  0
  9 34  1  0
 10 11  2  0
 10 12  1  0
 12 13  2  0
 12 17  1  0
 13 14  1  0
 14 15  2  0
 14 33  1  0
 15 16  1  0
 15 19  1  0
 16 17  2  0
 17 18  1  0
 19 20  1  0
 20 21  1  1
 20 33  1  0
 21 22  2  0
 21 23  1  0
 23 24  1  0
 24 25  2  0
 24 31  1  0
 25 26  1  0
 26 27  1  0
 26 28  2  0
 28 29  1  0
 28 30  1  0
 30 31  2  0
 31 32  1  0
 34 35  1  0
 34 36  2  0
 36 37  1  0
M  END
