
     RDKit          3D

 25 27  0  0  0  0  0  0  0  0999 V2000
   -6.0340    1.9950    1.5570 C   0  0  0  0  0  0  0  0  0  0  0  0
   -6.7120    0.4080    1.1440 S   0  0  0  0  0  0  0  0  0  0  0  0
   -5.8600   -0.5210   -0.0780 C   0  0  0  0  0  0  0  0  0  0  0  0
   -6.3670   -1.6830   -0.4240 N   0  0  0  0  0  0  0  0  0  0  0  0
   -4.6560   -0.1130   -0.7360 N   0  0  0  0  0  0  0  0  0  0  0  0
   -4.6060    1.2080   -1.3100 C   0  0  0  0  0  0  0  0  0  0  0  0
   -3.5560   -1.0000   -0.8340 C   0  0  0  0  0  0  0  0  0  0  0  0
   -2.3370   -0.6500   -0.0330 C   0  0  1  0  0  0  0  0  0  0  0  0
   -2.7570   -0.6200    1.4230 C   0  0  0  0  0  0  0  0  0  0  0  0
   -3.3620   -2.2790    1.7750 Cl  0  0  0  0  0  0  0  0  0  0  0  0
   -1.3020   -1.7560   -0.1350 C   0  0  0  0  0  0  0  0  0  0  0  0
   -0.0430   -1.3540   -0.8270 C   0  0  0  0  0  0  0  0  0  0  0  0
    0.5660   -0.1670   -0.2970 N   0  0  2  0  0  0  0  0  0  0  0  0
    1.4800   -0.4230    0.8090 C   0  0  0  0  0  0  0  0  0  0  0  0
    2.8830   -0.1240    0.4360 C   0  0  0  0  0  0  0  0  0  0  0  0
    3.5310    1.0890    0.4880 C   0  0  0  0  0  0  0  0  0  0  0  0
    4.8340    0.8880    0.0440 C   0  0  0  0  0  0  0  0  0  0  0  0
    4.9490   -0.4520   -0.2700 C   0  0  0  0  0  0  0  0  0  0  0  0
    3.7490   -1.0380   -0.0200 N   0  0  0  0  0  0  0  0  0  0  0  0
    6.1870   -1.0710   -0.7800 C   0  0  0  0  0  0  0  0  0  0  0  0
    7.2320   -0.0170   -1.0500 C   0  0  0  0  0  0  0  0  0  0  0  0
    7.2440    1.0580    0.0130 C   0  0  0  0  0  0  0  0  0  0  0  0
    5.9530    1.8350   -0.1070 C   0  0  0  0  0  0  0  0  0  0  0  0
   -0.3890    0.8150    0.1430 C   0  0  0  0  0  0  0  0  0  0  0  0
   -1.7410    0.6180   -0.5240 C   0  0  0  0  0  0  0  0  0  0  0  0
  1  2  1  0
  2  3  1  0
  3  4  2  0
  3  5  1  0
  5  6  1  0
  5  7  1  0
  8  7  1  6
  8  9  1  0
  8 11  1  0
  8 25  1  0
  9 10  1  0
 11 12  1  0
 12 13  1  0
 13 14  1  1
 13 24  1  0
 14 15  1  0
 15 16  2  0
 15 19  1  0
 16 17  1  0
 17 18  2  0
 17 23  1  0
 18 19  1  0
 18 20  1  0
 20 21  1  0
 21 22  1  0
 22 23  1  0
 24 25  1  0
M  CHG  2   4   1  13   1
M  END
