
     RDKit          3D

 25 27  0  0  0  0  0  0  0  0999 V2000
   -3.4520   -0.2070   -1.6260 C   0  0  0  0  0  0  0  0  0  0  0  0
   -3.0070    0.0180   -0.4340 C   0  0  0  0  0  0  0  0  0  0  0  0
   -3.1500   -0.9630    0.6250 C   0  0  0  0  0  0  0  0  0  0  0  0
   -4.2400   -1.6670    0.7610 C   0  0  0  0  0  0  0  0  0  0  0  0
   -5.4500   -1.6100   -0.0670 C   0  0  0  0  0  0  0  0  0  0  0  0
   -4.2740   -2.8420    2.0920 Cl  0  0  0  0  0  0  0  0  0  0  0  0
   -2.0280   -1.1260    1.5840 C   0  0  0  0  0  0  0  0  0  0  0  0
   -0.8400   -0.4120    1.2230 N   0  0  0  0  0  0  0  0  0  0  0  0
   -0.1050   -1.3350    0.3430 C   0  0  0  0  0  0  0  0  0  0  0  0
    1.2410   -0.8550   -0.0010 C   0  0  0  0  0  0  0  0  0  0  0  0
    2.0610    0.6470    0.6220 S   0  0  0  0  0  0  0  0  0  0  0  0
    3.6260    0.2800   -0.3410 C   0  0  0  0  0  0  0  0  0  0  0  0
    4.7600    1.2500   -0.2100 C   0  0  0  0  0  0  0  0  0  0  0  0
    4.8220    2.3410    0.5000 C   0  0  0  0  0  0  0  0  0  0  0  0
    6.1620    2.9850    0.3170 C   0  0  0  0  0  0  0  0  0  0  0  0
    6.8190    2.0930   -0.5920 N   0  0  0  0  0  0  0  0  0  0  0  0
    6.0430    1.1300   -0.8840 C   0  0  0  0  0  0  0  0  0  0  0  0
    3.3290   -0.7190   -0.8700 N   0  0  0  0  0  0  0  0  0  0  0  0
    2.2250   -1.4100   -0.8240 C   0  0  0  0  0  0  0  0  0  0  0  0
    1.8860   -2.7080   -1.5350 C   0  0  0  0  0  0  0  0  0  0  0  0
    1.9430   -3.8880   -0.6300 C   0  0  0  0  0  0  0  0  0  0  0  0
   -0.9610    0.8110    0.5360 C   0  0  0  0  0  0  0  0  0  0  0  0
   -2.2700    1.2550    0.0060 C   0  0  2  0  0  0  0  0  0  0  0  0
   -3.0450    2.0830    0.8720 N   0  0  0  0  0  0  0  0  0  0  0  0
   -3.2200    3.3880    0.3030 C   0  0  0  0  0  0  0  0  0  0  0  0
  1  2  2  0
  2  3  1  0
  2 23  1  0
  3  4  2  3
  3  7  1  0
  4  5  1  0
  4  6  1  0
  7  8  1  0
  8  9  1  0
  8 22  1  0
  9 10  1  0
 10 11  1  0
 10 19  2  0
 11 12  1  0
 12 13  1  0
 12 18  2  0
 13 14  2  0
 13 17  1  0
 14 15  1  0
 15 16  1  0
 16 17  2  0
 18 19  1  0
 19 20  1  0
 20 21  1  0
 22 23  1  0
 23 24  1  1
 24 25  1  0
M  CHG  2  16   1  24   1
M  END
