
     RDKit          3D

 25 27  0  0  0  0  0  0  0  0999 V2000
   -4.0320    1.9250    1.6780 C   0  0  0  0  0  0  0  0  0  0  0  0
   -4.5950    1.3720    0.3640 C   0  0  0  0  0  0  0  0  0  0  0  0
   -5.8300    1.6910   -0.0450 C   0  0  0  0  0  0  0  0  0  0  0  0
   -6.2200    1.2580   -1.2910 C   0  0  0  0  0  0  0  0  0  0  0  0
   -4.7850    0.3850   -1.8650 S   0  0  0  0  0  0  0  0  0  0  0  0
   -3.7820    0.6420   -0.4440 C   0  0  0  0  0  0  0  0  0  0  0  0
   -2.4480    0.0530   -0.2220 C   0  0  2  0  0  0  0  0  0  0  0  0
   -1.6410    0.0320   -1.5150 C   0  0  0  0  0  0  0  0  0  0  0  0
   -0.3130   -0.5070   -1.1940 N   0  0  0  0  0  0  0  0  0  0  0  0
    0.2230    0.1380   -0.0460 C   0  0  0  0  0  0  0  0  0  0  0  0
    1.7070    0.1080    0.0130 C   0  0  0  0  0  0  0  0  0  0  0  0
    2.3310   -1.0040    0.5150 C   0  0  0  0  0  0  0  0  0  0  0  0
    3.7150   -0.9960    0.6180 C   0  0  0  0  0  0  0  0  0  0  0  0
    4.4460    0.1030    0.2250 C   0  0  0  0  0  0  0  0  0  0  0  0
    5.8660    0.0700    0.3660 N   0  0  0  0  0  0  0  0  0  0  0  0
    6.6440   -0.9850    0.0050 C   0  0  0  0  0  0  0  0  0  0  0  0
    7.9770   -0.6620    0.3060 C   0  0  0  0  0  0  0  0  0  0  0  0
    7.9660    0.5580    0.8270 N   0  0  0  0  0  0  0  0  0  0  0  0
    6.6860    0.9820    0.8550 C   0  0  0  0  0  0  0  0  0  0  0  0
    3.8000    1.2100   -0.2800 C   0  0  0  0  0  0  0  0  0  0  0  0
    4.7830    2.5820   -0.7800 Cl  0  0  0  0  0  0  0  0  0  0  0  0
    2.4260    1.2130   -0.3870 C   0  0  0  0  0  0  0  0  0  0  0  0
   -2.6090   -1.3490    0.1920 N   0  0  1  0  0  0  0  0  0  0  0  0
   -3.3160   -1.4370    1.4450 C   0  0  0  0  0  0  0  0  0  0  0  0
   -3.3670   -2.1430   -0.7580 C   0  0  0  0  0  0  0  0  0  0  0  0
  1  2  1  0
  2  3  1  0
  2  6  2  0
  3  4  2  0
  4  5  1  0
  5  6  1  0
  6  7  1  0
  7  8  1  6
  7 23  1  0
  8  9  1  0
  9 10  1  0
 10 11  1  0
 11 12  2  0
 11 22  1  0
 12 13  1  0
 13 14  2  0
 14 15  1  0
 14 20  1  0
 15 16  1  0
 15 19  1  0
 16 17  2  0
 17 18  1  0
 18 19  2  0
 20 21  1  0
 20 22  2  0
 23 24  1  1
 23 25  1  0
M  CHG  3   9   1  18   1  23   1
M  END
