
     RDKit          3D

 24 26  0  0  0  0  0  0  0  0999 V2000
   -2.2500   -4.2240   -0.8560 C   0  0  0  0  0  0  0  0  0  0  0  0
   -1.8190   -3.8250    0.5450 C   0  0  0  0  0  0  0  0  0  0  0  0
   -1.9610   -2.3220    0.6440 C   0  0  0  0  0  0  0  0  0  0  0  0
   -1.0780   -1.6260   -0.3960 C   0  0  0  0  0  0  0  0  0  0  0  0
   -1.2920   -0.1740   -0.2140 C   0  0  0  0  0  0  0  0  0  0  0  0
   -0.3150    0.5690    0.0810 N   0  0  0  0  0  0  0  0  0  0  0  0
    1.0230    0.1700    0.2700 C   0  0  0  0  0  0  0  0  0  0  0  0
    1.4370   -0.5930    1.3420 C   0  0  0  0  0  0  0  0  0  0  0  0
    2.7510   -0.9850    1.5280 C   0  0  0  0  0  0  0  0  0  0  0  0
    3.7110   -0.6090    0.6130 C   0  0  0  0  0  0  0  0  0  0  0  0
    3.3100    0.1590   -0.4720 C   0  0  0  0  0  0  0  0  0  0  0  0
    1.9940    0.5400   -0.6400 C   0  0  0  0  0  0  0  0  0  0  0  0
    4.3110    0.5150   -1.3690 O   0  0  0  0  0  0  0  0  0  0  0  0
    5.6580    0.7020   -0.9520 C   0  0  0  0  0  0  0  0  0  0  0  0
    6.0920   -0.2820    0.0840 C   0  0  0  0  0  0  0  0  0  0  0  0
    5.0500   -0.9580    0.7210 O   0  0  0  0  0  0  0  0  0  0  0  0
   -2.9150    0.4530   -0.4210 S   0  0  0  0  0  0  0  0  0  0  0  0
   -3.1330    2.1760   -0.2000 C   0  0  0  0  0  0  0  0  0  0  0  0
   -2.1360    3.0630    0.1210 C   0  0  0  0  0  0  0  0  0  0  0  0
   -2.4200    4.4310    0.2760 C   0  0  0  0  0  0  0  0  0  0  0  0
   -3.6960    4.9220    0.1130 C   0  0  0  0  0  0  0  0  0  0  0  0
   -4.6480    4.0260   -0.2010 N   0  0  0  0  0  0  0  0  0  0  0  0
   -4.4030    2.7130   -0.3540 C   0  0  0  0  0  0  0  0  0  0  0  0
   -5.3460    1.9180   -0.6510 O   0  0  0  0  0  0  0  0  0  0  0  0
  1  2  1  0
  2  3  1  0
  3  4  1  0
  4  5  1  0
  5  6  2  3
  5 17  1  0
  6  7  1  0
  7  8  2  0
  7 12  1  0
  8  9  1  0
  9 10  2  0
 10 11  1  0
 10 16  1  0
 11 12  2  0
 11 13  1  0
 13 14  1  0
 14 15  1  0
 15 16  1  0
 17 18  1  0
 18 19  2  0
 18 23  1  0
 19 20  1  0
 20 21  2  0
 21 22  1  0
 22 23  1  0
 23 24  2  0
M  END
