
     RDKit          3D

 25 28  0  0  0  0  0  0  0  0999 V2000
    5.2650   -0.9100    0.9390 C   0  0  0  0  0  0  0  0  0  0  0  0
    4.1450    0.0350    0.9850 N   0  0  2  0  0  0  0  0  0  0  0  0
    2.9530   -0.7550    1.1710 C   0  0  0  0  0  0  0  0  0  0  0  0
    1.6910    0.0810    1.1340 C   0  0  0  0  0  0  0  0  0  0  0  0
    1.7980    1.0940    0.1360 N   0  0  2  0  0  0  0  0  0  0  0  0
    0.4960    1.3540   -0.3860 N   0  0  0  0  0  0  0  0  0  0  0  0
    0.2750    0.4110   -1.4070 C   0  0  0  0  0  0  0  0  0  0  0  0
   -1.0560    0.2940   -2.0320 C   0  0  0  0  0  0  0  0  0  0  0  0
   -2.1540   -0.0300   -1.1430 N   0  0  0  0  0  0  0  0  0  0  0  0
   -2.8600    1.0030   -0.4870 C   0  0  0  0  0  0  0  0  0  0  0  0
   -2.4960    2.3090   -0.7470 C   0  0  0  0  0  0  0  0  0  0  0  0
   -3.1390    3.3750   -0.1530 C   0  0  0  0  0  0  0  0  0  0  0  0
   -4.1740    3.1780    0.7290 C   0  0  0  0  0  0  0  0  0  0  0  0
   -4.5560    1.8890    1.0040 C   0  0  0  0  0  0  0  0  0  0  0  0
   -3.8950    0.8560    0.3950 C   0  0  0  0  0  0  0  0  0  0  0  0
   -4.4850   -0.7670    0.8140 S   0  0  0  0  0  0  0  0  0  0  0  0
   -3.4610   -1.8810   -0.1120 C   0  0  0  0  0  0  0  0  0  0  0  0
   -3.7320   -3.2140    0.0750 C   0  0  0  0  0  0  0  0  0  0  0  0
   -2.9690   -4.1350   -0.6010 C   0  0  0  0  0  0  0  0  0  0  0  0
   -1.9680   -3.6930   -1.4340 C   0  0  0  0  0  0  0  0  0  0  0  0
   -0.9750   -4.8710   -2.3120 Cl  0  0  0  0  0  0  0  0  0  0  0  0
   -1.7280   -2.3440   -1.5940 C   0  0  0  0  0  0  0  0  0  0  0  0
   -2.4880   -1.3930   -0.9210 C   0  0  0  0  0  0  0  0  0  0  0  0
    2.7540    0.7900   -0.8870 C   0  0  0  0  0  0  0  0  0  0  0  0
    4.1280    0.8310   -0.2150 C   0  0  0  0  0  0  0  0  0  0  0  0
  2  1  1  6
  2  3  1  0
  2 25  1  0
  3  4  1  0
  4  5  1  0
  5  6  1  6
  5 24  1  0
  6  7  1  0
  7  8  1  0
  8  9  1  0
  9 10  1  0
  9 23  1  0
 10 11  2  0
 10 15  1  0
 11 12  1  0
 12 13  2  0
 13 14  1  0
 14 15  2  0
 15 16  1  0
 16 17  1  0
 17 18  2  0
 17 23  1  0
 18 19  1  0
 19 20  2  0
 20 21  1  0
 20 22  1  0
 22 23  2  0
 24 25  1  0
M  CHG  3   2   1   5   1   6   1
M  END
