
     RDKit          3D

 25 26  0  0  0  0  0  0  0  0999 V2000
    8.6040   -0.0400   -0.2940 C   0  0  0  0  0  0  0  0  0  0  0  0
    7.1720   -0.0060   -0.6450 C   0  0  0  0  0  0  0  0  0  0  0  0
    6.2360   -0.3010    0.2780 C   0  0  0  0  0  0  0  0  0  0  0  0
    6.6210   -0.6510    1.6120 C   0  0  0  0  0  0  0  0  0  0  0  0
    5.8810   -0.9790    2.5910 C   0  0  0  0  0  0  0  0  0  0  0  0
    4.1570   -1.0960    2.5660 Cl  0  0  0  0  0  0  0  0  0  0  0  0
    4.8410   -0.2430   -0.1630 C   0  0  0  0  0  0  0  0  0  0  0  0
    3.8660    1.0360    0.6700 S   0  0  0  0  0  0  0  0  0  0  0  0
    2.1890    1.0050    0.0410 C   0  0  0  0  0  0  0  0  0  0  0  0
    1.2260    1.7910    0.4360 N   0  0  0  0  0  0  0  0  0  0  0  0
    0.0370    1.4880   -0.2760 C   0  0  0  0  0  0  0  0  0  0  0  0
   -1.1420    1.7690    0.0850 N   0  0  0  0  0  0  0  0  0  0  0  0
   -2.2960    1.4370   -0.6770 C   0  0  0  0  0  0  0  0  0  0  0  0
   -2.2770    1.8220   -2.1080 C   0  0  0  0  0  0  0  0  0  0  0  0
   -3.3530    0.8270   -0.2040 C   0  0  0  0  0  0  0  0  0  0  0  0
   -4.4760    0.5370   -1.0760 C   0  0  0  0  0  0  0  0  0  0  0  0
   -5.5590   -0.1690   -0.5390 N   0  0  0  0  0  0  0  0  0  0  0  0
   -5.9080   -1.3730   -1.2840 C   0  0  0  0  0  0  0  0  0  0  0  0
   -5.6550   -0.3830    0.8480 C   0  0  0  0  0  0  0  0  0  0  0  0
   -4.7490    0.2800    1.7070 N   0  0  0  0  0  0  0  0  0  0  0  0
   -3.4020    0.4370    1.2090 C   0  0  1  0  0  0  0  0  0  0  0  0
   -2.5050   -0.7160    1.5270 C   0  0  0  0  0  0  0  0  0  0  0  0
   -2.7960   -1.9710    0.7830 C   0  0  0  0  0  0  0  0  0  0  0  0
    0.4640    0.7830   -1.5110 C   0  0  0  0  0  0  0  0  0  0  0  0
    1.6990    0.0760   -1.0020 C   0  0  0  0  0  0  0  0  0  0  0  0
  1  2  1  0
  2  3  2  3
  3  4  1  0
  3  7  1  0
  4  5  2  3
  5  6  1  0
  7  8  1  0
  8  9  1  0
  9 10  2  0
  9 25  1  0
 10 11  1  0
 11 12  2  3
 11 24  1  0
 12 13  1  0
 13 14  1  0
 13 15  2  3
 15 16  1  0
 15 21  1  0
 16 17  1  0
 17 18  1  0
 17 19  1  0
 19 20  1  0
 20 21  1  0
 21 22  1  6
 22 23  1  0
 24 25  1  0
M  CHG  2  10   1  20   1
M  END
