
     RDKit          3D

 13 12  0  0  0  0  0  0  0  0999 V2000
    3.7070   -2.9760   -0.1190 N   0  0  0  0  0  0  0  0  0  0  0  0
    2.8680   -1.8540   -0.1500 C   0  0  0  0  0  0  0  0  0  0  0  0
    2.2350   -1.5770   -1.1880 O   0  0  0  0  0  0  0  0  0  0  0  0
    2.7370   -1.0040    1.0490 C   0  0  0  0  0  0  0  0  0  0  0  0
    1.8140    0.1120    0.8090 N   0  0  0  0  0  0  0  0  0  0  0  0
    0.4550   -0.1170    0.4580 C   0  0  0  0  0  0  0  0  0  0  0  0
    0.1370   -1.3380    0.3770 O   0  0  0  0  0  0  0  0  0  0  0  0
   -0.5290    0.9180    0.2030 C   0  0  0  0  0  0  0  0  0  0  0  0
   -1.9080    0.6080   -0.1540 C   0  0  0  0  0  0  0  0  0  0  0  0
   -2.4530   -0.5430   -0.2940 C   0  0  0  0  0  0  0  0  0  0  0  0
   -3.8530   -0.6360   -0.6560 N   0  0  0  0  0  0  0  0  0  0  0  0
   -0.1420    2.1880    0.3010 C   0  0  0  0  0  0  0  0  0  0  0  0
   -1.0990    3.1950    0.0520 N   0  0  0  0  0  0  0  0  0  0  0  0
  1  2  1  0
  2  3  2  0
  2  4  1  0
  4  5  1  0
  5  6  1  0
  6  7  2  0
  6  8  1  0
  8  9  1  0
  8 12  2  3
  9 10  2  3
 10 11  1  0
 12 13  1  0
M  CHG  2  11   1  13   1
M  END
