
     RDKit          3D

 12 12  0  0  0  0  0  0  0  0999 V2000
   -0.5450   -1.7790    1.1390 N   0  0  0  0  0  0  0  0  0  0  0  0
   -1.3130   -0.9100    0.3040 C   0  0  0  0  0  0  0  0  0  0  0  0
   -2.5950   -1.0530   -0.0390 C   0  0  0  0  0  0  0  0  0  0  0  0
   -2.9780    0.0730   -0.9110 C   0  0  1  0  0  0  0  0  0  0  0  0
   -3.9770    0.9050   -0.2590 N   0  0  0  0  0  0  0  0  0  0  0  0
   -1.7460    0.8950   -1.0310 C   0  0  0  0  0  0  0  0  0  0  0  0
   -0.7970    0.3010   -0.3170 C   0  0  0  0  0  0  0  0  0  0  0  0
    0.5350    0.7870   -0.1810 N   0  0  0  0  0  0  0  0  0  0  0  0
    1.6270   -0.0540   -0.2600 N   0  0  0  0  0  0  0  0  0  0  0  0
    2.7050    0.5560    0.5110 C   0  0  0  0  0  0  0  0  0  0  0  0
    3.9110   -0.3450    0.3820 C   0  0  0  0  0  0  0  0  0  0  0  0
    4.2300   -0.4220   -0.9730 O   0  0  0  0  0  0  0  0  0  0  0  0
  1  2  1  0
  2  3  2  0
  2  7  1  0
  3  4  1  0
  4  5  1  1
  4  6  1  0
  6  7  2  0
  7  8  1  0
  8  9  1  0
  9 10  1  0
 10 11  1  0
 11 12  1  0
M  CHG  2   5   1   9   1
M  END
