
     RDKit          3D

 13 12  0  0  0  0  0  0  0  0999 V2000
    3.2640   -0.6350    2.1100 N   0  0  0  0  0  0  0  0  0  0  0  0
    3.5130   -0.6620    0.7160 C   0  0  0  0  0  0  0  0  0  0  0  0
    4.6800   -0.8740    0.3420 O   0  0  0  0  0  0  0  0  0  0  0  0
    2.3860   -0.4390   -0.2370 C   0  0  0  0  0  0  0  0  0  0  0  0
    1.2090   -0.2270    0.2220 C   0  0  0  0  0  0  0  0  0  0  0  0
   -0.0570    0.0190   -0.5000 C   0  0  0  0  0  0  0  0  0  0  0  0
   -1.1220    0.2070    0.2380 C   0  0  0  0  0  0  0  0  0  0  0  0
   -2.4810    0.4600    0.1780 C   0  0  0  0  0  0  0  0  0  0  0  0
   -3.2680    0.6200   -0.7890 N   0  0  0  0  0  0  0  0  0  0  0  0
   -3.1530    0.5660    1.5170 N   0  0  0  0  0  0  0  0  0  0  0  0
   -0.0740    0.0420   -1.9360 C   0  0  0  0  0  0  0  0  0  0  0  0
    1.1120   -0.1670   -2.7560 N   0  0  0  0  0  0  0  0  0  0  0  0
   -1.0640    0.2360   -2.6890 O   0  0  0  0  0  0  0  0  0  0  0  0
  1  2  1  0
  2  3  2  0
  2  4  1  0
  4  5  2  3
  5  6  1  0
  6  7  2  3
  6 11  1  0
  7  8  1  0
  8  9  2  0
  8 10  1  0
 11 12  1  0
 11 13  2  0
M  CHG  2   9   1  10   1
M  END
