
     RDKit          3D

 12 11  0  0  0  0  0  0  0  0999 V2000
   -2.0110   -0.9320    1.0220 C   0  0  0  0  0  0  0  0  0  0  0  0
   -0.9460   -0.0080    0.8910 O   0  0  0  0  0  0  0  0  0  0  0  0
   -0.4910    0.4870   -0.3080 C   0  0  0  0  0  0  0  0  0  0  0  0
   -1.0740    1.5340   -0.8380 C   0  0  0  0  0  0  0  0  0  0  0  0
   -2.2160    2.2480   -0.2320 C   0  0  0  0  0  0  0  0  0  0  0  0
   -1.8780    3.6590    0.0260 N   0  0  0  0  0  0  0  0  0  0  0  0
    0.6290   -0.1770   -0.9440 C   0  0  0  0  0  0  0  0  0  0  0  0
    1.2540   -1.2250   -0.4570 C   0  0  0  0  0  0  0  0  0  0  0  0
    2.3970   -1.8770   -1.1400 C   0  0  0  0  0  0  0  0  0  0  0  0
    2.7340   -1.2270   -2.3900 N   0  0  0  0  0  0  0  0  0  0  0  0
    0.8490   -1.7660    0.7490 O   0  0  0  0  0  0  0  0  0  0  0  0
    1.6330   -1.8230    1.8700 N   0  0  0  0  0  0  0  0  0  0  0  0
  1  2  1  0
  2  3  1  0
  3  4  2  3
  3  7  1  0
  4  5  1  0
  5  6  1  0
  7  8  2  3
  8  9  1  0
  8 11  1  0
  9 10  1  0
 11 12  1  0
M  CHG  2   6   1  12   1
M  END
