
     RDKit          3D

 13 13  0  0  0  0  0  0  0  0999 V2000
    2.1500    0.6380    2.3350 N   0  0  0  0  0  0  0  0  0  0  0  0
    1.4250    0.8680    1.1080 C   0  0  2  0  0  0  0  0  0  0  0  0
    0.0510    0.1910    1.1140 C   0  0  0  0  0  0  0  0  0  0  0  0
   -0.0680   -0.4790   -0.1270 N   0  0  0  0  0  0  0  0  0  0  0  0
   -1.3850   -0.6700   -0.6220 C   0  0  2  0  0  0  0  0  0  0  0  0
   -2.1400    0.5830   -0.9120 C   0  0  0  0  0  0  0  0  0  0  0  0
   -3.4620    0.2480   -1.4080 N   0  0  0  0  0  0  0  0  0  0  0  0
   -2.1620   -1.4880    0.3890 C   0  0  0  0  0  0  0  0  0  0  0  0
   -2.2400   -0.8640    1.6230 O   0  0  0  0  0  0  0  0  0  0  0  0
    0.8480    0.1510   -1.0160 C   0  0  0  0  0  0  0  0  0  0  0  0
    2.0740    0.2230   -0.0930 C   0  0  1  0  0  0  0  0  0  0  0  0
    3.1210    0.8960   -0.6160 O   0  0  0  0  0  0  0  0  0  0  0  0
    4.2620    0.2280   -0.7380 N   0  0  0  0  0  0  0  0  0  0  0  0
  2  1  1  1
  2  3  1  0
  2 11  1  0
  3  4  1  0
  4  5  1  0
  4 10  1  0
  5  6  1  1
  5  8  1  0
  6  7  1  0
  8  9  1  0
 10 11  1  0
 11 12  1  6
 12 13  1  0
M  CHG  2   7   1  13   1
M  END
