
     RDKit          3D

 13 12  0  0  0  0  0  0  0  0999 V2000
   -5.7590   -0.2780   -0.7670 N   0  0  0  0  0  0  0  0  0  0  0  0
   -4.4200   -0.4360   -0.3000 C   0  0  0  0  0  0  0  0  0  0  0  0
   -4.0380   -1.6070   -0.0850 O   0  0  0  0  0  0  0  0  0  0  0  0
   -3.5640    0.6690   -0.0890 N   0  0  0  0  0  0  0  0  0  0  0  0
   -2.2000    0.5270    0.3840 C   0  0  0  0  0  0  0  0  0  0  0  0
   -1.3390   -0.2820   -0.5280 C   0  0  1  0  0  0  0  0  0  0  0  0
   -1.2400    0.2740   -1.8000 O   0  0  0  0  0  0  0  0  0  0  0  0
   -0.0100   -0.5290    0.1020 C   0  0  0  0  0  0  0  0  0  0  0  0
    0.7650    0.7150    0.4270 C   0  0  0  0  0  0  0  0  0  0  0  0
    2.0560    0.3950    1.0360 N   0  0  0  0  0  0  0  0  0  0  0  0
    3.0860    0.8510    0.1490 C   0  0  0  0  0  0  0  0  0  0  0  0
    3.5680   -0.2040   -0.8080 C   0  0  0  0  0  0  0  0  0  0  0  0
    4.1200   -1.3590   -0.1850 N   0  0  0  0  0  0  0  0  0  0  0  0
  1  2  1  0
  2  3  2  0
  2  4  1  0
  4  5  1  0
  5  6  1  0
  6  7  1  6
  6  8  1  0
  8  9  1  0
  9 10  1  0
 10 11  1  0
 11 12  1  0
 12 13  1  0
M  CHG  2  10   1  13   1
M  END
