
     RDKit          3D

 13 12  0  0  0  0  0  0  0  0999 V2000
   -5.3770    0.3160   -0.0050 N   0  0  0  0  0  0  0  0  0  0  0  0
   -4.4570    0.9690   -0.9200 C   0  0  0  0  0  0  0  0  0  0  0  0
   -3.1320    0.2440   -0.8290 C   0  0  0  0  0  0  0  0  0  0  0  0
   -2.6530    0.3550    0.6200 C   0  0  0  0  0  0  0  0  0  0  0  0
   -1.3880   -0.3080    0.8210 N   0  0  0  0  0  0  0  0  0  0  0  0
   -0.2010    0.0420    0.1360 C   0  0  0  0  0  0  0  0  0  0  0  0
   -0.2500    0.9850   -0.6980 O   0  0  0  0  0  0  0  0  0  0  0  0
    1.0210   -0.6670    0.3930 N   0  0  0  0  0  0  0  0  0  0  0  0
    2.2130   -0.2760   -0.3310 C   0  0  0  0  0  0  0  0  0  0  0  0
    3.3430   -1.1610    0.1120 C   0  0  2  0  0  0  0  0  0  0  0  0
    3.5260   -0.9920    1.4860 O   0  0  0  0  0  0  0  0  0  0  0  0
    4.6140   -0.8020   -0.6290 C   0  0  0  0  0  0  0  0  0  0  0  0
    4.9370    0.5800   -0.3480 N   0  0  0  0  0  0  0  0  0  0  0  0
  1  2  1  0
  2  3  1  0
  3  4  1  0
  4  5  1  0
  5  6  1  0
  6  7  2  0
  6  8  1  0
  8  9  1  0
  9 10  1  0
 10 11  1  1
 10 12  1  0
 12 13  1  0
M  CHG  2   1   1  13   1
M  END
