
     RDKit          3D

 13 12  0  0  0  0  0  0  0  0999 V2000
    0.0460   -1.7080    1.8660 N   0  0  0  0  0  0  0  0  0  0  0  0
    1.0450   -0.9400    1.2060 C   0  0  0  0  0  0  0  0  0  0  0  0
    2.1910   -1.1080    1.7600 O   0  0  0  0  0  0  0  0  0  0  0  0
    0.7950   -0.1050    0.0880 C   0  0  0  0  0  0  0  0  0  0  0  0
   -0.4910    0.0780   -0.5260 C   0  0  0  0  0  0  0  0  0  0  0  0
   -1.6850   -0.3320   -0.3710 C   0  0  0  0  0  0  0  0  0  0  0  0
   -2.1970   -1.2190    0.5860 N   0  0  0  0  0  0  0  0  0  0  0  0
   -2.7080    0.1830   -1.3200 C   0  0  0  0  0  0  0  0  0  0  0  0
   -4.0350   -0.2430   -1.1850 N   0  0  0  0  0  0  0  0  0  0  0  0
   -2.3500    0.9700   -2.1980 O   0  0  0  0  0  0  0  0  0  0  0  0
    1.7930    0.5790   -0.4690 C   0  0  0  0  0  0  0  0  0  0  0  0
    3.1970    0.6430   -0.1300 C   0  0  0  0  0  0  0  0  0  0  0  0
    3.5860    2.0250    0.2080 N   0  0  0  0  0  0  0  0  0  0  0  0
  1  2  1  0
  2  3  2  0
  2  4  1  0
  4  5  1  0
  4 11  2  3
  5  6  2  3
  6  7  1  0
  6  8  1  0
  8  9  1  0
  8 10  2  0
 11 12  1  0
 12 13  1  0
M  CHG  2   9   1  13   1
M  END
