
     RDKit          3D

 22 22  0  0  0  0  0  0  0  0999 V2000
    5.0350    1.7340    1.0490 C   0  0  0  0  0  0  0  0  0  0  0  0
    4.8190    0.2370    1.0840 C   0  0  0  0  0  0  0  0  0  0  0  0
    4.3860   -0.3240   -0.1480 N   0  0  0  0  0  0  0  0  0  0  0  0
    5.3430   -0.8370   -1.1050 C   0  0  0  0  0  0  0  0  0  0  0  0
    5.6030   -2.3060   -0.8350 C   0  0  0  0  0  0  0  0  0  0  0  0
    6.1140   -2.5080    0.4430 O   0  0  0  0  0  0  0  0  0  0  0  0
    2.9630   -0.3790   -0.4530 C   0  0  0  0  0  0  0  0  0  0  0  0
    2.7190   -0.9340   -1.5240 O   0  0  0  0  0  0  0  0  0  0  0  0
    2.0390    0.1730    0.4470 C   0  0  0  0  0  0  0  0  0  0  0  0
    0.7880    0.3170    0.5660 C   0  0  0  0  0  0  0  0  0  0  0  0
   -0.3650   -0.0440   -0.2200 C   0  0  0  0  0  0  0  0  0  0  0  0
   -1.6200    0.2750    0.2070 C   0  0  0  0  0  0  0  0  0  0  0  0
   -1.9760    1.0060    1.4790 C   0  0  0  0  0  0  0  0  0  0  0  0
   -2.6280   -0.1800   -0.7280 C   0  0  0  0  0  0  0  0  0  0  0  0
   -3.9550   -0.1010   -0.7190 C   0  0  0  0  0  0  0  0  0  0  0  0
   -4.8510    0.4690    0.2320 C   0  0  0  0  0  0  0  0  0  0  0  0
   -6.1860    0.4430    0.0440 C   0  0  0  0  0  0  0  0  0  0  0  0
   -6.7110   -0.1970   -1.1850 C   0  0  0  0  0  0  0  0  0  0  0  0
   -7.0650    1.0390    1.0440 C   0  0  0  0  0  0  0  0  0  0  0  0
   -1.9060   -0.8200   -1.7950 N   0  0  0  0  0  0  0  0  0  0  0  0
   -0.5290   -0.7230   -1.4590 C   0  0  0  0  0  0  0  0  0  0  0  0
    0.3440   -1.2020   -2.2180 O   0  0  0  0  0  0  0  0  0  0  0  0
  1  2  1  0
  2  3  1  0
  3  4  1  0
  3  7  1  0
  4  5  1  0
  5  6  1  0
  7  8  2  0
  7  9  1  0
  9 10  2  3
 10 11  1  0
 11 12  2  0
 11 21  1  0
 12 13  1  0
 12 14  1  0
 14 15  2  3
 14 20  1  0
 15 16  1  0
 16 17  2  3
 17 18  1  0
 17 19  1  0
 20 21  1  0
 21 22  2  0
M  END
