
     RDKit          3D

 22 22  0  0  0  0  0  0  0  0999 V2000
   -5.0200    2.1160   -0.6440 C   0  0  0  0  0  0  0  0  0  0  0  0
   -4.2310    1.0160   -1.3220 C   0  0  0  0  0  0  0  0  0  0  0  0
   -3.8560   -0.1200   -0.4260 C   0  0  0  0  0  0  0  0  0  0  0  0
   -2.8450    0.0840    0.6230 C   0  0  2  0  0  0  0  0  0  0  0  0
   -2.8350   -1.2780    1.3950 C   0  0  0  0  0  0  0  0  0  0  0  0
   -3.0440    1.1210    1.6240 C   0  0  0  0  0  0  0  0  0  0  0  0
   -1.4910    0.1990    0.0400 N   0  0  0  0  0  0  0  0  0  0  0  0
   -0.7200   -0.9180   -0.3620 C   0  0  0  0  0  0  0  0  0  0  0  0
   -1.2670   -2.0470   -0.1220 O   0  0  0  0  0  0  0  0  0  0  0  0
    0.6030   -0.8700   -1.0100 C   0  0  1  0  0  0  0  0  0  0  0  0
    1.7090   -0.4870   -0.1770 N   0  0  0  0  0  0  0  0  0  0  0  0
    2.4070    0.7210   -0.5180 C   0  0  0  0  0  0  0  0  0  0  0  0
    1.9360    1.3480   -1.5250 O   0  0  0  0  0  0  0  0  0  0  0  0
    3.5620    1.2430    0.1750 C   0  0  0  0  0  0  0  0  0  0  0  0
    4.0950    2.3770   -0.2390 C   0  0  0  0  0  0  0  0  0  0  0  0
    5.2860    2.9730    0.4300 C   0  0  0  0  0  0  0  0  0  0  0  0
    5.8370    2.1820    1.4120 O   0  0  0  0  0  0  0  0  0  0  0  0
    5.2580    0.9890    1.8470 C   0  0  0  0  0  0  0  0  0  0  0  0
    4.1730    0.5190    1.2690 C   0  0  0  0  0  0  0  0  0  0  0  0
    0.9330   -2.3990   -1.2860 C   0  0  1  0  0  0  0  0  0  0  0  0
    2.2770   -2.5050   -1.9420 C   0  0  0  0  0  0  0  0  0  0  0  0
    0.8790   -3.1010    0.0370 C   0  0  0  0  0  0  0  0  0  0  0  0
  1  2  1  0
  2  3  1  0
  3  4  1  0
  4  5  1  1
  4  6  1  0
  4  7  1  0
  7  8  1  0
  8  9  2  0
  8 10  1  0
 10 11  1  1
 10 20  1  0
 11 12  1  0
 12 13  2  0
 12 14  1  0
 14 15  2  0
 14 19  1  0
 15 16  1  0
 16 17  1  0
 17 18  1  0
 18 19  2  0
 20 21  1  1
 20 22  1  0
M  END
