
     RDKit          3D

 22 22  0  0  0  0  0  0  0  0999 V2000
    1.4720    6.1970    3.2780 C   0  0  0  0  0  0  0  0  0  0  0  0
    1.7200    5.0080    2.5190 O   0  0  0  0  0  0  0  0  0  0  0  0
    2.9470    4.3940    2.6480 C   0  0  0  0  0  0  0  0  0  0  0  0
    3.1680    3.2660    2.0130 C   0  0  0  0  0  0  0  0  0  0  0  0
    2.2120    2.5880    1.1640 C   0  0  0  0  0  0  0  0  0  0  0  0
    2.4940    1.4340    0.5290 C   0  0  0  0  0  0  0  0  0  0  0  0
    1.4860    0.8590   -0.2710 N   0  0  0  0  0  0  0  0  0  0  0  0
    0.9460   -0.4480   -0.0480 C   0  0  0  0  0  0  0  0  0  0  0  0
    1.4950   -1.0730    0.9200 O   0  0  0  0  0  0  0  0  0  0  0  0
   -0.1030   -0.9750   -0.8360 N   0  0  0  0  0  0  0  0  0  0  0  0
   -0.6320   -2.2690   -0.5970 C   0  0  1  0  0  0  0  0  0  0  0  0
    0.4770   -3.2720   -0.8890 C   0  0  0  0  0  0  0  0  0  0  0  0
   -0.8360   -2.3740    0.9300 C   0  0  0  0  0  0  0  0  0  0  0  0
   -1.8240   -2.6790   -1.3470 C   0  0  0  0  0  0  0  0  0  0  0  0
   -3.1000   -1.9810   -1.2650 C   0  0  2  0  0  0  0  0  0  0  0  0
   -3.7560   -1.8960    0.0880 C   0  0  0  0  0  0  0  0  0  0  0  0
   -4.0950   -2.9170   -2.0270 C   0  0  0  0  0  0  0  0  0  0  0  0
   -3.2650   -0.6930   -2.0310 C   0  0  0  0  0  0  0  0  0  0  0  0
    3.7950    0.8200    0.6800 C   0  0  0  0  0  0  0  0  0  0  0  0
    4.7270    1.3870    1.4460 C   0  0  0  0  0  0  0  0  0  0  0  0
    4.4960    2.6290    2.1600 C   0  0  0  0  0  0  0  0  0  0  0  0
    5.3750    3.1800    2.8900 O   0  0  0  0  0  0  0  0  0  0  0  0
  1  2  1  0
  2  3  1  0
  3  4  2  3
  4  5  1  0
  4 21  1  0
  5  6  2  0
  6  7  1  0
  6 19  1  0
  7  8  1  0
  8  9  2  0
  8 10  1  0
 10 11  1  0
 11 12  1  6
 11 13  1  0
 11 14  1  0
 14 15  1  0
 15 16  1  1
 15 17  1  0
 15 18  1  0
 19 20  2  0
 20 21  1  0
 21 22  2  0
M  END
