
     RDKit          3D

 22 22  0  0  0  0  0  0  0  0999 V2000
    6.9530    0.7410   -0.8530 C   0  0  0  0  0  0  0  0  0  0  0  0
    6.2710    0.3030    0.1900 C   0  0  0  0  0  0  0  0  0  0  0  0
    4.7630    0.2600    0.1160 C   0  0  2  0  0  0  0  0  0  0  0  0
    4.3120    0.8990   -1.1920 C   0  0  0  0  0  0  0  0  0  0  0  0
    4.2740    1.1510    1.2230 C   0  0  0  0  0  0  0  0  0  0  0  0
    2.8370    1.1780    1.2360 N   0  0  0  0  0  0  0  0  0  0  0  0
    2.1110   -0.0060    1.4440 C   0  0  0  0  0  0  0  0  0  0  0  0
    2.6440   -1.1120    1.6260 O   0  0  0  0  0  0  0  0  0  0  0  0
    0.6060    0.0810    1.4440 C   0  0  0  0  0  0  0  0  0  0  0  0
    0.0700   -1.2900    1.6810 C   0  0  0  0  0  0  0  0  0  0  0  0
   -1.4070   -1.2180    1.6920 N   0  0  0  0  0  0  0  0  0  0  0  0
   -2.1350   -0.8090    0.5570 C   0  0  0  0  0  0  0  0  0  0  0  0
   -1.4720   -0.5200   -0.4570 O   0  0  0  0  0  0  0  0  0  0  0  0
   -3.5720   -0.7210    0.5410 C   0  0  0  0  0  0  0  0  0  0  0  0
   -4.2110   -1.0520    1.6780 C   0  0  0  0  0  0  0  0  0  0  0  0
   -5.6530   -1.0070    1.7970 C   0  0  0  0  0  0  0  0  0  0  0  0
   -6.3700   -0.6320    0.7660 C   0  0  0  0  0  0  0  0  0  0  0  0
   -5.7970   -0.2540   -0.5100 C   0  0  0  0  0  0  0  0  0  0  0  0
   -6.5270    0.1020   -1.4820 O   0  0  0  0  0  0  0  0  0  0  0  0
   -4.3290   -0.2940   -0.6490 C   0  0  0  0  0  0  0  0  0  0  0  0
   -3.7620    0.0340   -1.7670 C   0  0  0  0  0  0  0  0  0  0  0  0
   -4.5960    0.4630   -2.9440 C   0  0  0  0  0  0  0  0  0  0  0  0
  1  2  2  0
  2  3  1  0
  3  4  1  6
  3  5  1  0
  5  6  1  0
  6  7  1  0
  7  8  2  0
  7  9  1  0
  9 10  1  0
 10 11  1  0
 11 12  1  0
 12 13  2  0
 12 14  1  0
 14 15  2  0
 14 20  1  0
 15 16  1  0
 16 17  2  0
 17 18  1  0
 18 19  2  0
 18 20  1  0
 20 21  2  3
 21 22  1  0
M  END
