
     RDKit          3D

 22 22  0  0  0  0  0  0  0  0999 V2000
    3.5930   -2.8940   -0.0360 C   0  0  0  0  0  0  0  0  0  0  0  0
    4.1090   -1.8260    0.5300 C   0  0  0  0  0  0  0  0  0  0  0  0
    4.8680   -1.9840    1.8000 C   0  0  0  0  0  0  0  0  0  0  0  0
    3.9220   -0.5180   -0.0750 C   0  0  0  0  0  0  0  0  0  0  0  0
    4.4660    0.5140    0.5120 C   0  0  0  0  0  0  0  0  0  0  0  0
    4.4220    1.9250    0.0980 C   0  0  0  0  0  0  0  0  0  0  0  0
    3.1910   -0.4030   -1.2220 O   0  0  0  0  0  0  0  0  0  0  0  0
    1.8180   -0.4610   -1.4040 C   0  0  0  0  0  0  0  0  0  0  0  0
    1.1200    0.6520   -0.6730 C   0  0  1  0  0  0  0  0  0  0  0  0
    1.4790    1.9370   -1.4450 C   0  0  0  0  0  0  0  0  0  0  0  0
   -0.3320    0.4140   -0.8750 N   0  0  0  0  0  0  0  0  0  0  0  0
   -1.1930    0.2520    0.2320 C   0  0  0  0  0  0  0  0  0  0  0  0
   -0.7400    0.3080    1.4160 O   0  0  0  0  0  0  0  0  0  0  0  0
   -2.6300    0.0170   -0.0350 C   0  0  2  0  0  0  0  0  0  0  0  0
   -3.3960   -0.1300    1.1670 N   0  0  0  0  0  0  0  0  0  0  0  0
   -3.4750    0.8920    2.1440 C   0  0  0  0  0  0  0  0  0  0  0  0
   -4.2930    0.6820    3.3840 C   0  0  0  0  0  0  0  0  0  0  0  0
   -2.8510    1.9530    1.9410 O   0  0  0  0  0  0  0  0  0  0  0  0
   -2.8330   -1.2290   -0.9010 C   0  0  0  0  0  0  0  0  0  0  0  0
   -4.2810   -1.0700   -1.3010 C   0  0  0  0  0  0  0  0  0  0  0  0
   -4.4770    0.4150   -1.4450 C   0  0  0  0  0  0  0  0  0  0  0  0
   -3.2390    1.0840   -0.9140 C   0  0  0  0  0  0  0  0  0  0  0  0
  1  2  2  0
  2  3  1  0
  2  4  1  0
  4  5  2  3
  4  7  1  0
  5  6  1  0
  7  8  1  0
  8  9  1  0
  9 10  1  6
  9 11  1  0
 11 12  1  0
 12 13  2  0
 12 14  1  0
 14 15  1  1
 14 19  1  0
 14 22  1  0
 15 16  1  0
 16 17  1  0
 16 18  2  0
 19 20  1  0
 20 21  1  0
 21 22  1  0
M  END
