
     RDKit          3D

 22 22  0  0  0  0  0  0  0  0999 V2000
    4.1760    0.7920    0.1980 C   0  0  0  0  0  0  0  0  0  0  0  0
    3.9790   -0.1690   -0.6510 C   0  0  0  0  0  0  0  0  0  0  0  0
    4.9850   -1.2070   -1.1050 C   0  0  0  0  0  0  0  0  0  0  0  0
    4.6530   -1.1030   -2.6110 C   0  0  0  0  0  0  0  0  0  0  0  0
    3.1690   -1.0350   -2.5760 C   0  0  0  0  0  0  0  0  0  0  0  0
    2.7800   -0.4830   -1.4060 C   0  0  0  0  0  0  0  0  0  0  0  0
    1.3910   -0.2690   -1.0480 C   0  0  0  0  0  0  0  0  0  0  0  0
    0.4650   -0.5670   -1.9010 O   0  0  0  0  0  0  0  0  0  0  0  0
    0.9150    0.2420    0.1770 N   0  0  0  0  0  0  0  0  0  0  0  0
   -0.5080    0.4180    0.4110 C   0  0  0  0  0  0  0  0  0  0  0  0
   -0.9140    1.6510    0.4790 C   0  0  0  0  0  0  0  0  0  0  0  0
   -2.2160    2.1930    0.6940 C   0  0  0  0  0  0  0  0  0  0  0  0
   -2.3790    3.5210    0.7230 C   0  0  0  0  0  0  0  0  0  0  0  0
   -3.7350    4.0580    0.9460 C   0  0  0  0  0  0  0  0  0  0  0  0
   -3.6730    4.8970    2.2190 C   0  0  0  0  0  0  0  0  0  0  0  0
   -1.3400   -0.7070    0.6190 C   0  0  0  0  0  0  0  0  0  0  0  0
   -2.6150   -0.5130    0.7600 O   0  0  0  0  0  0  0  0  0  0  0  0
   -0.9320   -2.0500    0.6990 N   0  0  0  0  0  0  0  0  0  0  0  0
    0.3940   -2.5670    0.6530 C   0  0  0  0  0  0  0  0  0  0  0  0
   -1.9830   -3.1020    0.8440 C   0  0  0  0  0  0  0  0  0  0  0  0
   -2.4100   -3.5480   -0.5410 C   0  0  0  0  0  0  0  0  0  0  0  0
   -2.9250   -2.5100   -1.2870 O   0  0  0  0  0  0  0  0  0  0  0  0
  1  2  2  0
  2  3  1  0
  2  6  1  0
  3  4  1  0
  4  5  1  0
  5  6  2  0
  6  7  1  0
  7  8  2  0
  7  9  1  0
  9 10  1  0
 10 11  2  3
 10 16  1  0
 11 12  1  0
 12 13  2  3
 13 14  1  0
 14 15  1  0
 16 17  2  0
 16 18  1  0
 18 19  1  0
 18 20  1  0
 20 21  1  0
 21 22  1  0
M  END
