
     RDKit          3D

 22 22  0  0  0  0  0  0  0  0999 V2000
   -3.0400   -0.3350    3.3280 C   0  0  0  0  0  0  0  0  0  0  0  0
   -2.3690    0.1630    2.0710 C   0  0  0  0  0  0  0  0  0  0  0  0
   -2.4470   -0.4970    0.9600 C   0  0  0  0  0  0  0  0  0  0  0  0
   -1.8790   -0.1700   -0.3170 C   0  0  0  0  0  0  0  0  0  0  0  0
   -2.0440   -1.0200   -1.3690 C   0  0  0  0  0  0  0  0  0  0  0  0
   -2.7880   -2.2810   -1.2690 C   0  0  2  0  0  0  0  0  0  0  0  0
   -2.1590   -3.0700   -0.3030 F   0  0  0  0  0  0  0  0  0  0  0  0
   -2.7540   -2.9620   -2.4920 F   0  0  0  0  0  0  0  0  0  0  0  0
   -4.0840   -2.0870   -0.8910 F   0  0  0  0  0  0  0  0  0  0  0  0
   -1.1000    0.9740   -0.6210 N   0  0  0  0  0  0  0  0  0  0  0  0
   -1.7590    2.2200   -0.8450 C   0  0  0  0  0  0  0  0  0  0  0  0
   -1.9010    3.1890    0.2550 C   0  0  0  0  0  0  0  0  0  0  0  0
   -2.5780    4.3150   -0.3240 O   0  0  0  0  0  0  0  0  0  0  0  0
    0.2890    0.7720   -0.7910 C   0  0  0  0  0  0  0  0  0  0  0  0
    0.9920    1.7640   -1.0650 O   0  0  0  0  0  0  0  0  0  0  0  0
    0.9370   -0.5410   -0.6590 C   0  0  0  0  0  0  0  0  0  0  0  0
    2.4350   -0.4700   -0.8790 C   0  0  1  0  0  0  0  0  0  0  0  0
    2.7700   -0.0040   -2.1230 O   0  0  0  0  0  0  0  0  0  0  0  0
    3.1520    0.2920    0.1860 C   0  0  0  0  0  0  0  0  0  0  0  0
    4.1200   -0.6320    0.8630 C   0  0  0  0  0  0  0  0  0  0  0  0
    4.3970   -1.6600   -0.2140 C   0  0  0  0  0  0  0  0  0  0  0  0
    2.9820   -1.8880   -0.7580 C   0  0  0  0  0  0  0  0  0  0  0  0
  1  2  1  0
  2  3  2  3
  3  4  1  0
  4  5  2  3
  4 10  1  0
  5  6  1  0
  6  7  1  1
  6  8  1  0
  6  9  1  0
 10 11  1  0
 10 14  1  0
 11 12  1  0
 12 13  1  0
 14 15  2  0
 14 16  1  0
 16 17  1  0
 17 18  1  6
 17 19  1  0
 17 22  1  0
 19 20  1  0
 20 21  1  0
 21 22  1  0
M  END
