
     RDKit          3D

 22 22  0  0  0  0  0  0  0  0999 V2000
    5.5760    0.7890    1.3170 C   0  0  0  0  0  0  0  0  0  0  0  0
    4.7760    0.5910    0.0970 C   0  0  0  0  0  0  0  0  0  0  0  0
    3.6570    0.0500   -0.1540 C   0  0  0  0  0  0  0  0  0  0  0  0
    2.6890   -0.6110    0.7130 C   0  0  0  0  0  0  0  0  0  0  0  0
    1.5830   -1.1010    0.1000 C   0  0  0  0  0  0  0  0  0  0  0  0
    1.5880   -0.8510   -1.3050 O   0  0  0  0  0  0  0  0  0  0  0  0
    0.4740   -1.8140    0.6880 C   0  0  0  0  0  0  0  0  0  0  0  0
   -0.8030   -1.1370    0.5970 N   0  0  0  0  0  0  0  0  0  0  0  0
   -1.5460   -1.0570   -0.5890 C   0  0  0  0  0  0  0  0  0  0  0  0
   -1.2620   -1.7640   -1.7270 C   0  0  0  0  0  0  0  0  0  0  0  0
   -2.0420   -1.6850   -2.8860 C   0  0  0  0  0  0  0  0  0  0  0  0
   -3.1400   -0.8670   -2.8850 C   0  0  0  0  0  0  0  0  0  0  0  0
   -3.4450   -0.1390   -1.7310 C   0  0  0  0  0  0  0  0  0  0  0  0
   -2.6920   -0.2010   -0.5870 C   0  0  0  0  0  0  0  0  0  0  0  0
   -2.9720    0.4940    0.5410 O   0  0  0  0  0  0  0  0  0  0  0  0
   -3.9530    1.3880    0.8440 C   0  0  0  0  0  0  0  0  0  0  0  0
   -3.8720    2.6510    0.0410 C   0  0  0  0  0  0  0  0  0  0  0  0
   -2.6370    3.2610    0.2920 O   0  0  0  0  0  0  0  0  0  0  0  0
    2.8000   -0.7440    2.1600 C   0  0  1  0  0  0  0  0  0  0  0  0
    1.5790   -1.0180    2.7560 F   0  0  0  0  0  0  0  0  0  0  0  0
    3.6770   -1.7740    2.5060 F   0  0  0  0  0  0  0  0  0  0  0  0
    3.2330    0.4260    2.7950 F   0  0  0  0  0  0  0  0  0  0  0  0
  1  2  1  0
  2  3  2  3
  3  4  1  0
  4  5  2  3
  4 19  1  0
  5  6  1  0
  5  7  1  0
  7  8  1  0
  8  9  1  0
  9 10  2  0
  9 14  1  0
 10 11  1  0
 11 12  2  0
 12 13  1  0
 13 14  2  0
 14 15  1  0
 15 16  1  0
 16 17  1  0
 17 18  1  0
 19 20  1  1
 19 21  1  0
 19 22  1  0
M  END
