
     RDKit          3D

 22 22  0  0  0  0  0  0  0  0999 V2000
    2.3300    1.2290    0.8240 O   0  0  0  0  0  0  0  0  0  0  0  0
    2.2460    0.2580    0.0640 C   0  0  0  0  0  0  0  0  0  0  0  0
    0.8920   -0.1730   -0.4100 C   0  0  0  0  0  0  0  0  0  0  0  0
   -0.1240    0.7280    0.1840 C   0  0  0  0  0  0  0  0  0  0  0  0
   -1.5560    0.4100   -0.2420 C   0  0  0  0  0  0  0  0  0  0  0  0
   -1.9640   -0.9600    0.1540 C   0  0  0  0  0  0  0  0  0  0  0  0
   -3.3050   -1.4380   -0.1710 C   0  0  0  0  0  0  0  0  0  0  0  0
   -4.5320   -0.9210    0.3940 C   0  0  0  0  0  0  0  0  0  0  0  0
   -5.0060    0.4570    0.3080 C   0  0  1  0  0  0  0  0  0  0  0  0
   -6.3100    0.4410    0.9660 O   0  0  0  0  0  0  0  0  0  0  0  0
   -4.3490    1.3920    1.1410 O   0  0  0  0  0  0  0  0  0  0  0  0
   -5.2510    1.0390   -1.0300 C   0  0  2  0  0  0  0  0  0  0  0  0
   -5.6940    2.3540   -0.8890 F   0  0  0  0  0  0  0  0  0  0  0  0
   -6.3130    0.3650   -1.6570 F   0  0  0  0  0  0  0  0  0  0  0  0
   -4.2080    0.9760   -1.9090 F   0  0  0  0  0  0  0  0  0  0  0  0
    3.3640   -0.4720   -0.3870 N   0  0  0  0  0  0  0  0  0  0  0  0
    4.6950   -0.1890   -0.0340 C   0  0  0  0  0  0  0  0  0  0  0  0
    5.1100    0.8650    0.7090 C   0  0  0  0  0  0  0  0  0  0  0  0
    6.4630    1.0690    1.0210 C   0  0  0  0  0  0  0  0  0  0  0  0
    7.4270    0.1910    0.5770 C   0  0  0  0  0  0  0  0  0  0  0  0
    7.0270   -0.8950   -0.1840 C   0  0  0  0  0  0  0  0  0  0  0  0
    5.6990   -1.0580   -0.4670 C   0  0  0  0  0  0  0  0  0  0  0  0
  1  2  2  0
  2  3  1  0
  2 16  1  0
  3  4  1  0
  4  5  1  0
  5  6  1  0
  6  7  1  0
  7  8  1  0
  8  9  1  0
  9 10  1  1
  9 11  1  0
  9 12  1  0
 12 13  1  1
 12 14  1  0
 12 15  1  0
 16 17  1  0
 17 18  2  0
 17 22  1  0
 18 19  1  0
 19 20  2  0
 20 21  1  0
 21 22  2  0
M  END
