
     RDKit          3D

 22 22  0  0  0  0  0  0  0  0999 V2000
    3.9460    0.6950    2.3490 C   0  0  0  0  0  0  0  0  0  0  0  0
    2.7340   -0.1800    2.5060 C   0  0  0  0  0  0  0  0  0  0  0  0
    1.9090   -0.1870    1.3560 O   0  0  0  0  0  0  0  0  0  0  0  0
    2.3830   -0.6180    0.1010 C   0  0  0  0  0  0  0  0  0  0  0  0
    3.5810   -0.9820    0.1310 O   0  0  0  0  0  0  0  0  0  0  0  0
    1.5520   -0.6320   -1.1010 C   0  0  0  0  0  0  0  0  0  0  0  0
    1.8650   -0.9910   -2.3230 C   0  0  0  0  0  0  0  0  0  0  0  0
    3.1430   -1.4920   -2.8600 C   0  0  2  0  0  0  0  0  0  0  0  0
    4.1770   -1.6580   -2.0330 F   0  0  0  0  0  0  0  0  0  0  0  0
    3.4860   -0.6750   -3.9540 F   0  0  0  0  0  0  0  0  0  0  0  0
    2.8710   -2.7610   -3.4200 F   0  0  0  0  0  0  0  0  0  0  0  0
    0.6520   -0.8030   -3.2050 C   0  0  0  0  0  0  0  0  0  0  0  0
   -0.1270    0.2790   -2.4110 C   0  0  0  0  0  0  0  0  0  0  0  0
    0.1170   -0.1810   -1.0400 C   0  0  0  0  0  0  0  0  0  0  0  0
   -0.6430   -0.3110   -0.0020 C   0  0  0  0  0  0  0  0  0  0  0  0
   -1.9910    0.0350    0.3100 C   0  0  0  0  0  0  0  0  0  0  0  0
   -2.4500   -0.3450    1.5450 C   0  0  0  0  0  0  0  0  0  0  0  0
   -1.6200   -1.0470    2.4550 N   0  0  0  0  0  0  0  0  0  0  0  0
   -2.8980    0.8550   -0.4130 C   0  0  0  0  0  0  0  0  0  0  0  0
   -2.6230    1.4780   -1.4630 O   0  0  0  0  0  0  0  0  0  0  0  0
   -4.3390    1.0460    0.0580 C   0  0  0  0  0  0  0  0  0  0  0  0
   -4.4460    2.1700    1.0500 C   0  0  0  0  0  0  0  0  0  0  0  0
  1  2  1  0
  2  3  1  0
  3  4  1  0
  4  5  2  0
  4  6  1  0
  6  7  2  0
  6 14  1  0
  7  8  1  0
  7 12  1  0
  8  9  1  1
  8 10  1  0
  8 11  1  0
 12 13  1  0
 13 14  1  0
 14 15  2  3
 15 16  1  0
 16 17  2  3
 16 19  1  0
 17 18  1  0
 19 20  2  0
 19 21  1  0
 21 22  1  0
M  END
