
     RDKit          3D

 22 22  0  0  0  0  0  0  0  0999 V2000
   -0.7980   -2.3870    1.8980 N   0  0  0  0  0  0  0  0  0  0  0  0
   -1.2620   -1.9690    3.1820 C   0  0  0  0  0  0  0  0  0  0  0  0
   -1.8960   -0.6380    3.1780 C   0  0  0  0  0  0  0  0  0  0  0  0
   -2.3980   -0.0770    4.3170 C   0  0  0  0  0  0  0  0  0  0  0  0
   -2.3260   -0.7350    5.4910 F   0  0  0  0  0  0  0  0  0  0  0  0
   -2.9840    1.1640    4.2820 C   0  0  0  0  0  0  0  0  0  0  0  0
   -3.0530    1.8210    3.0960 C   0  0  0  0  0  0  0  0  0  0  0  0
   -2.5400    1.2460    1.9290 C   0  0  0  0  0  0  0  0  0  0  0  0
   -1.9480    0.0110    1.9260 C   0  0  0  0  0  0  0  0  0  0  0  0
   -1.4480   -0.5740    0.8290 O   0  0  0  0  0  0  0  0  0  0  0  0
   -1.3480   -0.1580   -0.4520 C   0  0  0  0  0  0  0  0  0  0  0  0
   -0.4730    0.9740   -0.7820 C   0  0  0  0  0  0  0  0  0  0  0  0
   -0.5330    2.2560   -0.3250 O   0  0  0  0  0  0  0  0  0  0  0  0
    0.5370    0.7190   -1.6600 C   0  0  0  0  0  0  0  0  0  0  0  0
    1.4590    1.7730   -2.0520 C   0  0  0  0  0  0  0  0  0  0  0  0
    2.4530    1.6330   -2.8810 C   0  0  0  0  0  0  0  0  0  0  0  0
    2.8770    0.4510   -3.5920 C   0  0  0  0  0  0  0  0  0  0  0  0
    3.9320    0.5250   -4.4010 C   0  0  0  0  0  0  0  0  0  0  0  0
    4.5710    1.6970   -4.5330 F   0  0  0  0  0  0  0  0  0  0  0  0
    2.2580   -0.7970   -3.5010 O   0  0  0  0  0  0  0  0  0  0  0  0
    2.9100   -1.9580   -3.0740 C   0  0  0  0  0  0  0  0  0  0  0  0
    3.9830   -2.3170   -3.8430 F   0  0  0  0  0  0  0  0  0  0  0  0
  1  2  1  0
  2  3  1  0
  3  4  2  0
  3  9  1  0
  4  5  1  0
  4  6  1  0
  6  7  2  0
  7  8  1  0
  8  9  2  0
  9 10  1  0
 10 11  1  0
 11 12  1  0
 12 13  1  0
 12 14  2  3
 14 15  1  0
 15 16  2  3
 16 17  1  0
 17 18  2  3
 17 20  1  0
 18 19  1  0
 20 21  1  0
 21 22  1  0
M  END
