
     RDKit          3D

 22 22  0  0  0  0  0  0  0  0999 V2000
    5.0250    0.2650   -2.3950 C   0  0  0  0  0  0  0  0  0  0  0  0
    3.8580    1.2090   -2.3110 C   0  0  2  0  0  0  0  0  0  0  0  0
    3.9130    2.0910   -3.4120 F   0  0  0  0  0  0  0  0  0  0  0  0
    4.0210    2.0250   -1.2120 F   0  0  0  0  0  0  0  0  0  0  0  0
    2.5650    0.5270   -2.2670 C   0  0  0  0  0  0  0  0  0  0  0  0
    2.0620   -0.1920   -1.3270 C   0  0  0  0  0  0  0  0  0  0  0  0
    0.7510   -0.7740   -1.5050 N   0  0  0  0  0  0  0  0  0  0  0  0
   -0.3720   -0.4150   -0.7210 C   0  0  0  0  0  0  0  0  0  0  0  0
   -0.2480    0.4510    0.1670 O   0  0  0  0  0  0  0  0  0  0  0  0
   -1.6910   -1.0570   -0.9470 C   0  0  0  0  0  0  0  0  0  0  0  0
   -2.7500   -0.5480   -0.0260 C   0  0  1  0  0  0  0  0  0  0  0  0
   -3.9380   -1.2440   -0.3560 O   0  0  0  0  0  0  0  0  0  0  0  0
   -2.4760   -0.8140    1.4130 C   0  0  0  0  0  0  0  0  0  0  0  0
   -2.7840    0.3520    2.3150 C   0  0  0  0  0  0  0  0  0  0  0  0
   -4.0760    1.0330    1.9830 C   0  0  0  0  0  0  0  0  0  0  0  0
   -4.3360    1.2060    0.5300 C   0  0  0  0  0  0  0  0  0  0  0  0
   -3.0710    0.9200   -0.2690 C   0  0  0  0  0  0  0  0  0  0  0  0
    2.7130   -0.4820   -0.0760 C   0  0  0  0  0  0  0  0  0  0  0  0
    3.9380    0.0290    0.1830 F   0  0  0  0  0  0  0  0  0  0  0  0
    2.1880   -1.2350    0.8690 C   0  0  0  0  0  0  0  0  0  0  0  0
    2.9190   -1.4830    2.1250 C   0  0  0  0  0  0  0  0  0  0  0  0
    3.1640   -2.8420    2.3280 O   0  0  0  0  0  0  0  0  0  0  0  0
  2  1  1  6
  2  3  1  0
  2  4  1  0
  2  5  1  0
  5  6  2  3
  6  7  1  0
  6 18  1  0
  7  8  1  0
  8  9  2  0
  8 10  1  0
 10 11  1  0
 11 12  1  6
 11 13  1  0
 11 17  1  0
 13 14  1  0
 14 15  1  0
 15 16  1  0
 16 17  1  0
 18 19  1  0
 18 20  2  3
 20 21  1  0
 21 22  1  0
M  END
