
     RDKit          3D

 22 22  0  0  0  0  0  0  0  0999 V2000
   -3.8230    0.3600   -2.1180 C   0  0  0  0  0  0  0  0  0  0  0  0
   -4.4520   -0.1290   -0.9010 C   0  0  0  0  0  0  0  0  0  0  0  0
   -3.8820   -0.0120    0.3030 C   0  0  0  0  0  0  0  0  0  0  0  0
   -4.6010   -0.5340    1.4340 N   0  0  0  0  0  0  0  0  0  0  0  0
   -2.5860    0.5950    0.5020 C   0  0  0  0  0  0  0  0  0  0  0  0
   -1.9380    0.7740    1.6070 C   0  0  0  0  0  0  0  0  0  0  0  0
   -2.3320    0.4120    2.9630 C   0  0  2  0  0  0  0  0  0  0  0  0
   -2.6710   -0.8910    3.1060 F   0  0  0  0  0  0  0  0  0  0  0  0
   -3.2900    1.2580    3.5160 F   0  0  0  0  0  0  0  0  0  0  0  0
   -1.1940    0.5820    3.8110 F   0  0  0  0  0  0  0  0  0  0  0  0
   -1.9470    1.0510   -0.6740 O   0  0  0  0  0  0  0  0  0  0  0  0
   -0.5950    0.8340   -0.9090 C   0  0  0  0  0  0  0  0  0  0  0  0
   -0.3150   -0.6580   -0.8990 C   0  0  0  0  0  0  0  0  0  0  0  0
    1.1900   -0.8170   -1.1590 C   0  0  0  0  0  0  0  0  0  0  0  0
    1.9040   -0.1550   -0.1350 O   0  0  0  0  0  0  0  0  0  0  0  0
    3.2870   -0.1760   -0.1790 C   0  0  0  0  0  0  0  0  0  0  0  0
    3.9480   -0.8270   -1.1960 C   0  0  0  0  0  0  0  0  0  0  0  0
    5.3410   -0.8530   -1.2480 C   0  0  0  0  0  0  0  0  0  0  0  0
    6.1090   -0.2300   -0.2860 C   0  0  0  0  0  0  0  0  0  0  0  0
    5.4470    0.4220    0.7330 C   0  0  0  0  0  0  0  0  0  0  0  0
    4.0690    0.4480    0.7840 C   0  0  0  0  0  0  0  0  0  0  0  0
    3.3840    1.1000    1.8030 O   0  0  0  0  0  0  0  0  0  0  0  0
  1  2  1  0
  2  3  2  3
  3  4  1  0
  3  5  1  0
  5  6  2  3
  5 11  1  0
  6  7  1  0
  7  8  1  6
  7  9  1  0
  7 10  1  0
 11 12  1  0
 12 13  1  0
 13 14  1  0
 14 15  1  0
 15 16  1  0
 16 17  2  0
 16 21  1  0
 17 18  1  0
 18 19  2  0
 19 20  1  0
 20 21  2  0
 21 22  1  0
M  END
