
     RDKit          3D

 22 22  0  0  0  0  0  0  0  0999 V2000
   -6.5600    1.3660   -2.9050 C   0  0  0  0  0  0  0  0  0  0  0  0
   -5.8220    0.7700   -1.9400 C   0  0  0  0  0  0  0  0  0  0  0  0
   -6.2680    0.8470   -0.6400 O   0  0  0  0  0  0  0  0  0  0  0  0
   -4.6180    0.0990   -2.3780 C   0  0  0  0  0  0  0  0  0  0  0  0
   -3.7540   -0.5440   -1.6180 C   0  0  0  0  0  0  0  0  0  0  0  0
   -3.8500   -0.7000   -0.1890 C   0  0  0  0  0  0  0  0  0  0  0  0
   -2.8900   -1.3750    0.4630 C   0  0  0  0  0  0  0  0  0  0  0  0
   -1.8520   -1.8910   -0.2210 O   0  0  0  0  0  0  0  0  0  0  0  0
   -0.6310   -1.4340   -0.6440 C   0  0  0  0  0  0  0  0  0  0  0  0
    0.2560   -0.9850    0.4890 C   0  0  0  0  0  0  0  0  0  0  0  0
    1.5920   -0.5340   -0.0250 C   0  0  0  0  0  0  0  0  0  0  0  0
    1.7770   -0.5900   -1.2590 O   0  0  0  0  0  0  0  0  0  0  0  0
    2.6330   -0.0580    0.8020 N   0  0  0  0  0  0  0  0  0  0  0  0
    3.8920    0.3620    0.2670 C   0  0  2  0  0  0  0  0  0  0  0  0
    5.0670   -0.4220    0.8050 C   0  0  0  0  0  0  0  0  0  0  0  0
    6.2250    0.5220    0.4530 C   0  0  0  0  0  0  0  0  0  0  0  0
    5.6840    1.8350    0.9800 C   0  0  0  0  0  0  0  0  0  0  0  0
    4.2330    1.7850    0.5920 C   0  0  0  0  0  0  0  0  0  0  0  0
   -3.0440   -1.5170    1.9440 C   0  0  1  0  0  0  0  0  0  0  0  0
   -2.0020   -0.9260    2.6020 F   0  0  0  0  0  0  0  0  0  0  0  0
   -4.2160   -0.9460    2.3490 F   0  0  0  0  0  0  0  0  0  0  0  0
   -3.1480   -2.8760    2.2800 F   0  0  0  0  0  0  0  0  0  0  0  0
  1  2  2  0
  2  3  1  0
  2  4  1  0
  4  5  2  3
  5  6  1  0
  6  7  2  3
  7  8  1  0
  7 19  1  0
  8  9  1  0
  9 10  1  0
 10 11  1  0
 11 12  2  0
 11 13  1  0
 14 13  1  1
 14 15  1  0
 14 18  1  0
 15 16  1  0
 16 17  1  0
 17 18  1  0
 19 20  1  1
 19 21  1  0
 19 22  1  0
M  END
