
     RDKit          3D

 22 22  0  0  0  0  0  0  0  0999 V2000
    4.5440   -2.5530   -0.1940 C   0  0  0  0  0  0  0  0  0  0  0  0
    4.4220   -1.3970    0.3950 C   0  0  0  0  0  0  0  0  0  0  0  0
    5.6000   -0.9250    1.0000 O   0  0  0  0  0  0  0  0  0  0  0  0
    3.2320   -0.5740    0.4860 C   0  0  0  0  0  0  0  0  0  0  0  0
    3.2790    0.5940    1.1310 C   0  0  0  0  0  0  0  0  0  0  0  0
    4.4060    1.2180    1.8020 C   0  0  1  0  0  0  0  0  0  0  0  0
    5.4500    1.5430    0.9490 F   0  0  0  0  0  0  0  0  0  0  0  0
    3.9610    2.4850    2.2730 F   0  0  0  0  0  0  0  0  0  0  0  0
    4.9110    0.5210    2.8860 F   0  0  0  0  0  0  0  0  0  0  0  0
    2.0050   -1.0380   -0.1280 C   0  0  0  0  0  0  0  0  0  0  0  0
    1.9690   -2.1300   -0.7280 O   0  0  0  0  0  0  0  0  0  0  0  0
    0.7800   -0.2980   -0.0920 N   0  0  0  0  0  0  0  0  0  0  0  0
   -0.4170   -0.8510   -0.7450 C   0  0  0  0  0  0  0  0  0  0  0  0
   -1.5640    0.1140   -0.5660 C   0  0  1  0  0  0  0  0  0  0  0  0
   -1.1920    1.4290   -1.1980 C   0  0  0  0  0  0  0  0  0  0  0  0
   -2.2790    2.4740   -1.0790 C   0  0  0  0  0  0  0  0  0  0  0  0
   -1.7620    3.6280   -1.7160 O   0  0  0  0  0  0  0  0  0  0  0  0
   -2.8370   -0.4500   -1.1710 C   0  0  0  0  0  0  0  0  0  0  0  0
   -4.0470   -0.1190   -0.3360 C   0  0  0  0  0  0  0  0  0  0  0  0
   -3.9970   -1.0600    0.8760 C   0  0  0  0  0  0  0  0  0  0  0  0
   -2.6000   -0.9890    1.4010 C   0  0  0  0  0  0  0  0  0  0  0  0
   -1.8350    0.2300    0.9170 C   0  0  0  0  0  0  0  0  0  0  0  0
  1  2  2  0
  2  3  1  0
  2  4  1  0
  4  5  2  3
  4 10  1  0
  5  6  1  0
  6  7  1  6
  6  8  1  0
  6  9  1  0
 10 11  2  0
 10 12  1  0
 12 13  1  0
 14 13  1  1
 14 15  1  0
 14 18  1  0
 14 22  1  0
 15 16  1  0
 16 17  1  0
 18 19  1  0
 19 20  1  0
 20 21  1  0
 21 22  1  0
M  END
