
     RDKit          3D

 22 21  0  0  0  0  0  0  0  0999 V2000
   -4.8330    1.1260   -0.8270 C   0  0  0  0  0  0  0  0  0  0  0  0
   -4.7930   -0.0440   -0.3320 C   0  0  0  0  0  0  0  0  0  0  0  0
   -3.7400   -0.9840   -0.1160 C   0  0  0  0  0  0  0  0  0  0  0  0
   -4.2450   -2.1280    0.4900 C   0  0  0  0  0  0  0  0  0  0  0  0
   -3.4240   -3.2640    0.8360 C   0  0  1  0  0  0  0  0  0  0  0  0
   -2.8760   -3.8430   -0.2960 F   0  0  0  0  0  0  0  0  0  0  0  0
   -2.5390   -2.9870    1.8290 F   0  0  0  0  0  0  0  0  0  0  0  0
   -4.2640   -4.2700    1.4110 F   0  0  0  0  0  0  0  0  0  0  0  0
   -2.3480   -1.0080   -0.3460 C   0  0  0  0  0  0  0  0  0  0  0  0
   -1.4010   -0.3370   -0.8380 C   0  0  0  0  0  0  0  0  0  0  0  0
   -1.3290    0.9560   -1.4920 C   0  0  0  0  0  0  0  0  0  0  0  0
   -0.5020    1.9120   -0.7440 N   0  0  0  0  0  0  0  0  0  0  0  0
   -0.4810    3.1600   -1.4510 C   0  0  0  0  0  0  0  0  0  0  0  0
    0.0170   -1.0100   -0.7340 C   0  0  0  0  0  0  0  0  0  0  0  0
    0.7760   -0.0910    0.0210 O   0  0  0  0  0  0  0  0  0  0  0  0
    2.0880   -0.2860    0.3510 C   0  0  0  0  0  0  0  0  0  0  0  0
    2.6570   -1.3370   -0.0330 O   0  0  0  0  0  0  0  0  0  0  0  0
    2.7780    0.7570    1.1490 C   0  0  0  0  0  0  0  0  0  0  0  0
    4.2160    0.4110    1.4390 C   0  0  2  0  0  0  0  0  0  0  0  0
    5.0170    0.2390    0.1620 C   0  0  0  0  0  0  0  0  0  0  0  0
    4.3640   -0.7910    2.3170 C   0  0  0  0  0  0  0  0  0  0  0  0
    4.7690    1.5080    2.1110 O   0  0  0  0  0  0  0  0  0  0  0  0
  1  2  2  0
  2  3  1  0
  3  4  2  3
  3  9  1  0
  4  5  1  0
  5  6  1  6
  5  7  1  0
  5  8  1  0
  9 10  2  3
 10 11  1  0
 10 14  1  0
 11 12  1  0
 12 13  1  0
 14 15  1  0
 15 16  1  0
 16 17  2  0
 16 18  1  0
 18 19  1  0
 19 20  1  6
 19 21  1  0
 19 22  1  0
M  END
