
     RDKit          3D

 22 22  0  0  0  0  0  0  0  0999 V2000
   -2.3280   -2.8130    0.0260 C   0  0  0  0  0  0  0  0  0  0  0  0
   -3.6360   -2.1830    0.4740 C   0  0  1  0  0  0  0  0  0  0  0  0
   -4.6570   -3.0170    0.1180 F   0  0  0  0  0  0  0  0  0  0  0  0
   -3.6040   -2.0810    1.8690 F   0  0  0  0  0  0  0  0  0  0  0  0
   -3.8140   -0.8380   -0.1530 C   0  0  0  0  0  0  0  0  0  0  0  0
   -2.9450    0.1440    0.0080 C   0  0  0  0  0  0  0  0  0  0  0  0
   -1.8150   -0.1450    0.8200 N   0  0  0  0  0  0  0  0  0  0  0  0
   -0.4800   -0.1260    0.3590 C   0  0  0  0  0  0  0  0  0  0  0  0
   -0.2720    0.1570   -0.8360 O   0  0  0  0  0  0  0  0  0  0  0  0
    0.5970   -0.4340    1.2790 C   0  0  0  0  0  0  0  0  0  0  0  0
    1.9680   -0.3920    0.7530 C   0  0  1  0  0  0  0  0  0  0  0  0
    2.8430   -0.7260    1.8160 O   0  0  0  0  0  0  0  0  0  0  0  0
    2.2170   -1.4250   -0.3240 C   0  0  0  0  0  0  0  0  0  0  0  0
    3.7310   -1.5670   -0.4120 C   0  0  0  0  0  0  0  0  0  0  0  0
    4.2640   -0.2910   -0.9680 C   0  0  0  0  0  0  0  0  0  0  0  0
    3.7930    0.9440   -0.3200 C   0  0  0  0  0  0  0  0  0  0  0  0
    2.4250    0.9350    0.2460 C   0  0  0  0  0  0  0  0  0  0  0  0
   -3.1810    1.4240   -0.6250 C   0  0  0  0  0  0  0  0  0  0  0  0
   -4.3150    1.5600   -1.3860 F   0  0  0  0  0  0  0  0  0  0  0  0
   -2.3800    2.4700   -0.5220 C   0  0  0  0  0  0  0  0  0  0  0  0
   -2.6650    3.7610   -1.1910 C   0  0  0  0  0  0  0  0  0  0  0  0
   -1.6050    4.0450   -2.0680 O   0  0  0  0  0  0  0  0  0  0  0  0
  2  1  1  6
  2  3  1  0
  2  4  1  0
  2  5  1  0
  5  6  2  3
  6  7  1  0
  6 18  1  0
  7  8  1  0
  8  9  2  0
  8 10  1  0
 10 11  1  0
 11 12  1  1
 11 13  1  0
 11 17  1  0
 13 14  1  0
 14 15  1  0
 15 16  1  0
 16 17  1  0
 18 19  1  0
 18 20  2  3
 20 21  1  0
 21 22  1  0
M  END
