
     RDKit          3D

 22 22  0  0  0  0  0  0  0  0999 V2000
    3.3120   -2.7820    0.1020 C   0  0  0  0  0  0  0  0  0  0  0  0
    3.8070   -1.6500   -0.1430 C   0  0  0  0  0  0  0  0  0  0  0  0
    5.1850   -1.7040   -0.5860 O   0  0  0  0  0  0  0  0  0  0  0  0
    3.2740   -0.3240   -0.0710 C   0  0  0  0  0  0  0  0  0  0  0  0
    4.1880    0.6300   -0.4430 C   0  0  0  0  0  0  0  0  0  0  0  0
    4.0350    2.0570   -0.5020 C   0  0  2  0  0  0  0  0  0  0  0  0
    5.2880    2.6020   -0.9340 F   0  0  0  0  0  0  0  0  0  0  0  0
    3.8060    2.7220    0.6740 F   0  0  0  0  0  0  0  0  0  0  0  0
    3.1520    2.4030   -1.5190 F   0  0  0  0  0  0  0  0  0  0  0  0
    1.9770    0.1560    0.3120 C   0  0  0  0  0  0  0  0  0  0  0  0
    1.8050    1.4270    0.2590 O   0  0  0  0  0  0  0  0  0  0  0  0
    0.8610   -0.5750    0.7410 N   0  0  0  0  0  0  0  0  0  0  0  0
   -0.4540   -0.1060    1.0850 C   0  0  0  0  0  0  0  0  0  0  0  0
   -1.3730    0.3690    0.0220 C   0  0  2  0  0  0  0  0  0  0  0  0
   -0.8730    1.4890   -0.7810 C   0  0  0  0  0  0  0  0  0  0  0  0
   -1.8530    2.0080   -1.8420 C   0  0  0  0  0  0  0  0  0  0  0  0
   -2.9950    2.4900   -1.2520 O   0  0  0  0  0  0  0  0  0  0  0  0
   -2.7290    0.7380    0.6140 C   0  0  0  0  0  0  0  0  0  0  0  0
   -3.1790   -0.2840    1.6530 C   0  0  0  0  0  0  0  0  0  0  0  0
   -3.2750   -1.5950    0.9420 C   0  0  0  0  0  0  0  0  0  0  0  0
   -2.9060   -1.5710   -0.5030 C   0  0  0  0  0  0  0  0  0  0  0  0
   -1.6430   -0.8770   -0.8550 C   0  0  0  0  0  0  0  0  0  0  0  0
  1  2  2  0
  2  3  1  0
  2  4  1  0
  4  5  2  3
  4 10  1  0
  5  6  1  0
  6  7  1  6
  6  8  1  0
  6  9  1  0
 10 11  2  0
 10 12  1  0
 12 13  1  0
 14 13  1  1
 14 15  1  0
 14 18  1  0
 14 22  1  0
 15 16  1  0
 16 17  1  0
 18 19  1  0
 19 20  1  0
 20 21  1  0
 21 22  1  0
M  END
