
     RDKit          3D

 22 22  0  0  0  0  0  0  0  0999 V2000
   -0.9010   -4.8580    0.0040 C   0  0  0  0  0  0  0  0  0  0  0  0
   -0.3470   -3.4600   -0.1020 C   0  0  0  0  0  0  0  0  0  0  0  0
    1.0000   -3.2520   -0.2990 C   0  0  0  0  0  0  0  0  0  0  0  0
    1.5110   -1.9520   -0.3970 C   0  0  0  0  0  0  0  0  0  0  0  0
    2.9590   -1.7020   -0.6090 C   0  0  0  0  0  0  0  0  0  0  0  0
    0.6870   -0.8560   -0.3000 C   0  0  0  0  0  0  0  0  0  0  0  0
    1.2440    0.4740   -0.4050 N   0  0  0  0  0  0  0  0  0  0  0  0
    1.7810    1.1330    0.7320 C   0  0  0  0  0  0  0  0  0  0  0  0
    2.2620    2.4940    0.4980 C   0  0  0  0  0  0  0  0  0  0  0  0
    2.8410    3.1860    1.7360 C   0  0  0  0  0  0  0  0  0  0  0  0
    3.2640    4.4410    1.4390 F   0  0  0  0  0  0  0  0  0  0  0  0
    2.2670    3.1890   -0.6010 C   0  0  0  0  0  0  0  0  0  0  0  0
    1.8230    2.8250   -1.8230 F   0  0  0  0  0  0  0  0  0  0  0  0
    2.7860    4.4800   -0.5730 F   0  0  0  0  0  0  0  0  0  0  0  0
   -0.6540   -1.0500   -0.1050 C   0  0  0  0  0  0  0  0  0  0  0  0
   -1.5480    0.0890   -0.0260 C   0  0  0  0  0  0  0  0  0  0  0  0
   -1.0800    1.2410   -0.1430 O   0  0  0  0  0  0  0  0  0  0  0  0
   -2.9090   -0.0320    0.1750 O   0  0  0  0  0  0  0  0  0  0  0  0
   -3.7990    1.0520    0.2560 C   0  0  0  0  0  0  0  0  0  0  0  0
   -3.8160    1.8960   -0.9980 C   0  0  0  0  0  0  0  0  0  0  0  0
   -4.7210    2.9350   -0.8210 O   0  0  0  0  0  0  0  0  0  0  0  0
   -1.1620   -2.3600   -0.0070 C   0  0  0  0  0  0  0  0  0  0  0  0
  1  2  1  0
  2  3  2  0
  2 22  1  0
  3  4  1  0
  4  5  1  0
  4  6  2  0
  6  7  1  0
  6 15  1  0
  7  8  1  0
  8  9  1  0
  9 10  1  0
  9 12  2  3
 10 11  1  0
 12 13  1  0
 12 14  1  0
 15 16  1  0
 15 22  2  0
 16 17  2  0
 16 18  1  0
 18 19  1  0
 19 20  1  0
 20 21  1  0
M  END
