
     RDKit          3D

 22 22  0  0  0  0  0  0  0  0999 V2000
    5.1350   -0.5280    2.1140 C   0  0  0  0  0  0  0  0  0  0  0  0
    4.5600   -0.8720    0.8020 C   0  0  0  0  0  0  0  0  0  0  0  0
    3.4380   -0.3110    0.3300 C   0  0  0  0  0  0  0  0  0  0  0  0
    2.9260   -0.6950   -0.9710 C   0  0  0  0  0  0  0  0  0  0  0  0
    1.8410   -0.1610   -1.4430 C   0  0  0  0  0  0  0  0  0  0  0  0
    1.4010   -0.5820   -2.7150 O   0  0  0  0  0  0  0  0  0  0  0  0
    1.0030    0.8510   -0.7880 C   0  0  0  0  0  0  0  0  0  0  0  0
   -0.3560    0.3840   -0.5730 N   0  0  0  0  0  0  0  0  0  0  0  0
   -1.2750    1.2790    0.0570 C   0  0  0  0  0  0  0  0  0  0  0  0
   -0.8910    2.5420    0.4490 C   0  0  0  0  0  0  0  0  0  0  0  0
   -1.7640    3.4070    1.0540 C   0  0  0  0  0  0  0  0  0  0  0  0
   -3.0620    3.0230    1.2850 C   0  0  0  0  0  0  0  0  0  0  0  0
   -3.4640    1.7740    0.9040 C   0  0  0  0  0  0  0  0  0  0  0  0
   -2.5810    0.9100    0.2960 C   0  0  0  0  0  0  0  0  0  0  0  0
   -3.0520   -0.3400   -0.0650 O   0  0  0  0  0  0  0  0  0  0  0  0
   -4.3810   -0.7460    0.1660 C   0  0  0  0  0  0  0  0  0  0  0  0
   -4.6310   -2.1550   -0.3240 C   0  0  0  0  0  0  0  0  0  0  0  0
   -3.8260   -3.0830    0.2920 O   0  0  0  0  0  0  0  0  0  0  0  0
    3.6500   -1.7060   -1.7710 C   0  0  1  0  0  0  0  0  0  0  0  0
    2.9970   -1.9380   -2.9630 F   0  0  0  0  0  0  0  0  0  0  0  0
    4.9410   -1.3170   -2.0630 F   0  0  0  0  0  0  0  0  0  0  0  0
    3.6410   -2.9200   -1.0820 F   0  0  0  0  0  0  0  0  0  0  0  0
  1  2  1  0
  2  3  2  3
  3  4  1  0
  4  5  2  3
  4 19  1  0
  5  6  1  0
  5  7  1  0
  7  8  1  0
  8  9  1  0
  9 10  2  0
  9 14  1  0
 10 11  1  0
 11 12  2  0
 12 13  1  0
 13 14  2  0
 14 15  1  0
 15 16  1  0
 16 17  1  0
 17 18  1  0
 19 20  1  6
 19 21  1  0
 19 22  1  0
M  END
