
     RDKit          3D

 22 22  0  0  0  0  0  0  0  0999 V2000
   -3.8990    1.8750   -1.5410 C   0  0  0  0  0  0  0  0  0  0  0  0
   -3.0400    2.1680   -0.3400 C   0  0  0  0  0  0  0  0  0  0  0  0
   -2.0330    1.1840   -0.2360 O   0  0  0  0  0  0  0  0  0  0  0  0
   -2.4190   -0.1530   -0.0840 C   0  0  0  0  0  0  0  0  0  0  0  0
   -3.6530   -0.3470   -0.0550 O   0  0  0  0  0  0  0  0  0  0  0  0
   -1.4520   -1.2350    0.0300 C   0  0  0  0  0  0  0  0  0  0  0  0
   -1.7210   -2.5100    0.1580 C   0  0  0  0  0  0  0  0  0  0  0  0
   -2.9870   -3.2680    0.2260 C   0  0  2  0  0  0  0  0  0  0  0  0
   -3.1600   -3.7030    1.5460 F   0  0  0  0  0  0  0  0  0  0  0  0
   -2.8170   -4.4700   -0.5180 F   0  0  0  0  0  0  0  0  0  0  0  0
   -4.0950   -2.6880   -0.2420 F   0  0  0  0  0  0  0  0  0  0  0  0
   -0.4100   -3.2510    0.2820 C   0  0  0  0  0  0  0  0  0  0  0  0
    0.4780   -2.3180   -0.5910 C   0  0  0  0  0  0  0  0  0  0  0  0
    0.0530   -1.0290    0.0010 C   0  0  0  0  0  0  0  0  0  0  0  0
    0.6080    0.0330    0.4610 C   0  0  0  0  0  0  0  0  0  0  0  0
    1.9590    0.5180    0.5690 C   0  0  0  0  0  0  0  0  0  0  0  0
    2.1050    1.7370    1.1820 C   0  0  0  0  0  0  0  0  0  0  0  0
    0.9160    2.3650    1.6320 N   0  0  0  0  0  0  0  0  0  0  0  0
    3.1820   -0.0230    0.0570 C   0  0  0  0  0  0  0  0  0  0  0  0
    3.2470   -1.0440   -0.6380 O   0  0  0  0  0  0  0  0  0  0  0  0
    4.4940    0.6810    0.3760 C   0  0  0  0  0  0  0  0  0  0  0  0
    4.6150    1.8320   -0.5580 C   0  0  0  0  0  0  0  0  0  0  0  0
  1  2  1  0
  2  3  1  0
  3  4  1  0
  4  5  2  0
  4  6  1  0
  6  7  2  0
  6 14  1  0
  7  8  1  0
  7 12  1  0
  8  9  1  1
  8 10  1  0
  8 11  1  0
 12 13  1  0
 13 14  1  0
 14 15  2  3
 15 16  1  0
 16 17  2  3
 16 19  1  0
 17 18  1  0
 19 20  2  0
 19 21  1  0
 21 22  1  0
M  END
