
     RDKit          3D

 30 34  0  0  0  0  0  0  0  0999 V2000
    6.1080    1.6720    1.9700 C   0  0  0  0  0  0  0  0  0  0  0  0
    5.4800    0.7370    0.9870 C   0  0  0  0  0  0  0  0  0  0  0  0
    4.0420    0.4130    1.3570 C   0  0  1  0  0  0  0  0  0  0  0  0
    3.2790    1.7270    1.3690 C   0  0  0  0  0  0  0  0  0  0  0  0
    1.8520    1.1960    1.1690 C   0  0  0  0  0  0  0  0  0  0  0  0
    2.1060    0.0080    0.2980 C   0  0  2  0  0  0  0  0  0  0  0  0
    1.1480   -1.1420    0.6290 C   0  0  0  0  0  0  0  0  0  0  0  0
    1.3570   -2.2630   -0.2440 N   0  0  0  0  0  0  0  0  0  0  0  0
    2.5310   -3.1380   -0.2820 C   0  0  0  0  0  0  0  0  0  0  0  0
    2.4820   -3.5920   -1.6810 C   0  0  0  0  0  0  0  0  0  0  0  0
    3.4350   -3.9670   -2.3850 O   0  0  0  0  0  0  0  0  0  0  0  0
    1.1310   -3.5210   -2.0810 N   0  0  0  0  0  0  0  0  0  0  0  0
    0.4710   -2.7460   -1.2440 C   0  0  0  0  0  0  0  0  0  0  0  0
   -0.9600   -2.4480   -1.3520 C   0  0  0  0  0  0  0  0  0  0  0  0
   -1.7980   -3.4270   -1.9000 C   0  0  0  0  0  0  0  0  0  0  0  0
   -3.1520   -3.2570   -2.0530 C   0  0  0  0  0  0  0  0  0  0  0  0
   -3.6910   -2.0510   -1.6360 C   0  0  0  0  0  0  0  0  0  0  0  0
   -5.0530   -1.8210   -1.7660 C   0  0  0  0  0  0  0  0  0  0  0  0
   -5.5850   -0.6230   -1.3530 C   0  0  0  0  0  0  0  0  0  0  0  0
   -4.7330    0.3330   -0.8120 C   0  0  0  0  0  0  0  0  0  0  0  0
   -5.2620    1.5490   -0.3900 C   0  0  0  0  0  0  0  0  0  0  0  0
   -4.4380    2.5130    0.1500 C   0  0  0  0  0  0  0  0  0  0  0  0
   -3.0820    2.3110    0.2910 C   0  0  0  0  0  0  0  0  0  0  0  0
   -2.2660    3.3150    0.8470 O   0  0  0  0  0  0  0  0  0  0  0  0
   -2.8000    4.5430    1.2730 C   0  0  0  0  0  0  0  0  0  0  0  0
   -2.5510    1.1100   -0.1240 C   0  0  0  0  0  0  0  0  0  0  0  0
   -3.3780    0.1390   -0.6680 C   0  0  0  0  0  0  0  0  0  0  0  0
   -2.8630   -1.0880   -1.0960 C   0  0  0  0  0  0  0  0  0  0  0  0
   -1.5220   -1.2960   -0.9620 N   0  0  0  0  0  0  0  0  0  0  0  0
    3.4170   -0.3550    0.4180 O   0  0  0  0  0  0  0  0  0  0  0  0
  1  2  1  0
  3  2  1  6
  3  4  1  0
  3 30  1  0
  4  5  1  0
  5  6  1  0
  6  7  1  1
  6 30  1  0
  7  8  1  0
  8  9  1  0
  8 13  1  0
  9 10  1  0
 10 11  2  0
 10 12  1  0
 12 13  2  0
 13 14  1  0
 14 15  2  0
 14 29  1  0
 15 16  1  0
 16 17  2  0
 17 18  1  0
 17 28  1  0
 18 19  2  0
 19 20  1  0
 20 21  2  0
 20 27  1  0
 21 22  1  0
 22 23  2  0
 23 24  1  0
 23 26  1  0
 24 25  1  0
 26 27  2  0
 27 28  1  0
 28 29  2  0
M  END
