
     RDKit          3D

 30 33  0  0  0  0  0  0  0  0999 V2000
   -7.7710   -1.3420    0.3390 C   0  0  0  0  0  0  0  0  0  0  0  0
   -6.5850   -0.7320    0.0910 C   0  0  0  0  0  0  0  0  0  0  0  0
   -5.2700   -1.3820    0.0180 C   0  0  0  0  0  0  0  0  0  0  0  0
   -4.3210   -0.2770   -0.2730 C   0  0  0  0  0  0  0  0  0  0  0  0
   -2.8730   -0.5590   -0.4070 C   0  0  0  0  0  0  0  0  0  0  0  0
   -2.0870    0.3690   -0.6360 O   0  0  0  0  0  0  0  0  0  0  0  0
   -2.3520   -1.8300   -0.2850 O   0  0  0  0  0  0  0  0  0  0  0  0
   -0.9720   -2.1010   -0.4100 C   0  0  0  0  0  0  0  0  0  0  0  0
   -0.2010   -1.3690    0.6290 C   0  0  0  0  0  0  0  0  0  0  0  0
   -0.8600   -0.6610    1.4360 O   0  0  0  0  0  0  0  0  0  0  0  0
    1.2160   -1.4690    0.7010 N   0  0  0  0  0  0  0  0  0  0  0  0
    1.9610   -2.2730   -0.2160 C   0  0  0  0  0  0  0  0  0  0  0  0
    3.4540   -2.2820    0.1230 C   0  0  0  0  0  0  0  0  0  0  0  0
    3.8470   -0.8550    0.2840 C   0  0  0  0  0  0  0  0  0  0  0  0
    3.0550   -0.0550    1.1100 C   0  0  0  0  0  0  0  0  0  0  0  0
    3.6190    1.1580    1.0830 N   0  0  0  0  0  0  0  0  0  0  0  0
    4.7050    1.1130    0.2800 C   0  0  0  0  0  0  0  0  0  0  0  0
    4.8460   -0.1350   -0.2140 N   0  0  0  0  0  0  0  0  0  0  0  0
    5.7590   -0.7920   -1.0820 C   0  0  0  0  0  0  0  0  0  0  0  0
    7.0310   -0.5860   -1.4680 C   0  0  0  0  0  0  0  0  0  0  0  0
    8.0140    0.4340   -1.1320 C   0  0  0  0  0  0  0  0  0  0  0  0
    7.8820    1.6850   -0.6570 C   0  0  0  0  0  0  0  0  0  0  0  0
    6.7540    2.5400   -0.2830 C   0  0  0  0  0  0  0  0  0  0  0  0
    5.4940    2.3230    0.0890 C   0  0  0  0  0  0  0  0  0  0  0  0
    1.8960   -0.7260    1.7410 C   0  0  0  0  0  0  0  0  0  0  0  0
   -4.9370    0.8770   -0.3700 C   0  0  0  0  0  0  0  0  0  0  0  0
   -4.3620    2.2160   -0.6490 C   0  0  0  0  0  0  0  0  0  0  0  0
   -4.5990    3.1720    0.5030 C   0  0  0  0  0  0  0  0  0  0  0  0
   -6.3890    0.6820   -0.1520 C   0  0  0  0  0  0  0  0  0  0  0  0
   -7.3160    1.6320   -0.1770 C   0  0  0  0  0  0  0  0  0  0  0  0
  1  2  2  0
  2  3  1  0
  2 29  1  0
  3  4  1  0
  4  5  1  0
  4 26  2  0
  5  6  2  0
  5  7  1  0
  7  8  1  0
  8  9  1  0
  9 10  2  0
  9 11  1  0
 11 12  1  0
 11 25  1  0
 12 13  1  0
 13 14  1  0
 14 15  2  0
 14 18  1  0
 15 16  1  0
 15 25  1  0
 16 17  2  0
 17 18  1  0
 17 24  1  0
 18 19  1  0
 19 20  2  0
 20 21  1  0
 21 22  2  0
 22 23  1  0
 23 24  2  0
 26 27  1  0
 26 29  1  0
 27 28  1  0
 29 30  2  0
M  END
