
     RDKit          3D

 31 31  0  0  0  0  0  0  0  0999 V2000
    5.2300   -0.6050    1.4650 O   0  0  0  0  0  0  0  0  0  0  0  0
    5.3470    0.2410    0.5650 C   0  0  0  0  0  0  0  0  0  0  0  0
    6.6080    0.9420    0.5390 N   0  0  0  0  0  0  0  0  0  0  0  0
    7.5750    0.6740    1.4430 O   0  0  0  0  0  0  0  0  0  0  0  0
    4.3730    0.6100   -0.4600 C   0  0  2  0  0  0  0  0  0  0  0  0
    4.9430    0.2890   -1.7000 F   0  0  0  0  0  0  0  0  0  0  0  0
    4.1580    1.9840   -0.5170 F   0  0  0  0  0  0  0  0  0  0  0  0
    3.0460   -0.0520   -0.3870 C   0  0  2  0  0  0  0  0  0  0  0  0
    3.1500   -1.4460   -0.4810 F   0  0  0  0  0  0  0  0  0  0  0  0
    2.3470    0.3830   -1.5380 F   0  0  0  0  0  0  0  0  0  0  0  0
    2.1810    0.3270    0.7650 C   0  0  1  0  0  0  0  0  0  0  0  0
    2.8040    0.0240    1.9480 F   0  0  0  0  0  0  0  0  0  0  0  0
    1.9120    1.6750    0.7290 F   0  0  0  0  0  0  0  0  0  0  0  0
    0.8990   -0.4920    0.7280 C   0  0  2  0  0  0  0  0  0  0  0  0
    1.2450   -1.8570    0.8090 F   0  0  0  0  0  0  0  0  0  0  0  0
    0.2190   -0.2540   -0.4180 F   0  0  0  0  0  0  0  0  0  0  0  0
    0.0560   -0.2240    1.9400 C   0  0  1  0  0  0  0  0  0  0  0  0
    0.7450   -0.5630    3.1050 F   0  0  0  0  0  0  0  0  0  0  0  0
   -0.0800    1.1700    2.0230 F   0  0  0  0  0  0  0  0  0  0  0  0
   -1.2800   -0.8920    1.8940 C   0  0  2  0  0  0  0  0  0  0  0  0
   -1.9330   -0.6030    3.1140 F   0  0  0  0  0  0  0  0  0  0  0  0
   -1.2440   -2.2450    1.7710 F   0  0  0  0  0  0  0  0  0  0  0  0
   -2.1010   -0.2210    0.8080 C   0  0  0  0  0  0  0  0  0  0  0  0
   -1.7640    0.9070    0.4110 O   0  0  0  0  0  0  0  0  0  0  0  0
   -3.2300   -0.8610    0.2620 N   0  0  0  0  0  0  0  0  0  0  0  0
   -4.0940   -0.3660   -0.7440 C   0  0  0  0  0  0  0  0  0  0  0  0
   -4.0270    0.8690   -1.3260 C   0  0  0  0  0  0  0  0  0  0  0  0
   -4.8900    1.3210   -2.3160 C   0  0  0  0  0  0  0  0  0  0  0  0
   -5.8750    0.4940   -2.7500 C   0  0  0  0  0  0  0  0  0  0  0  0
   -5.9840   -0.7760   -2.1860 C   0  0  0  0  0  0  0  0  0  0  0  0
   -5.1260   -1.1900   -1.2200 C   0  0  0  0  0  0  0  0  0  0  0  0
  1  2  2  0
  2  3  1  0
  2  5  1  0
  3  4  1  0
  5  6  1  6
  5  7  1  0
  5  8  1  0
  8  9  1  6
  8 10  1  0
  8 11  1  0
 11 12  1  1
 11 13  1  0
 11 14  1  0
 14 15  1  6
 14 16  1  0
 14 17  1  0
 17 18  1  1
 17 19  1  0
 17 20  1  0
 20 21  1  1
 20 22  1  0
 20 23  1  0
 23 24  2  0
 23 25  1  0
 25 26  1  0
 26 27  2  0
 26 31  1  0
 27 28  1  0
 28 29  2  0
 29 30  1  0
 30 31  2  0
M  END
