
     RDKit          3D

 30 34  0  0  0  0  0  0  0  0999 V2000
    7.0510   -1.5170    0.5530 C   0  0  0  0  0  0  0  0  0  0  0  0
    5.6310   -1.1810    0.2950 C   0  0  0  0  0  0  0  0  0  0  0  0
    4.6040   -1.9050    0.8580 C   0  0  0  0  0  0  0  0  0  0  0  0
    3.2980   -1.5690    0.6010 C   0  0  0  0  0  0  0  0  0  0  0  0
    2.9170   -0.4970   -0.2270 C   0  0  0  0  0  0  0  0  0  0  0  0
    1.5250   -0.3110   -0.5130 C   0  0  0  0  0  0  0  0  0  0  0  0
    0.8700   -1.4670   -0.4550 O   0  0  0  0  0  0  0  0  0  0  0  0
    0.7120    0.7580   -0.8310 N   0  0  0  0  0  0  0  0  0  0  0  0
   -0.6500    0.3530   -1.2130 C   0  0  0  0  0  0  0  0  0  0  0  0
   -1.6490    0.1510   -0.2240 C   0  0  0  0  0  0  0  0  0  0  0  0
   -1.6340    0.2060    1.0890 C   0  0  0  0  0  0  0  0  0  0  0  0
   -0.5530    0.4970    1.9520 N   0  0  0  0  0  0  0  0  0  0  0  0
   -0.7450    0.5010    3.2190 C   0  0  0  0  0  0  0  0  0  0  0  0
   -2.0410    0.2160    3.8300 C   0  0  0  0  0  0  0  0  0  0  0  0
   -3.0810   -0.0600    3.0640 C   0  0  0  0  0  0  0  0  0  0  0  0
   -2.9040   -0.0730    1.6550 N   0  0  0  0  0  0  0  0  0  0  0  0
   -3.8220   -0.3330    0.5690 C   0  0  0  0  0  0  0  0  0  0  0  0
   -5.0350   -0.6120    0.7580 O   0  0  0  0  0  0  0  0  0  0  0  0
   -3.0390   -0.1950   -0.6420 C   0  0  0  0  0  0  0  0  0  0  0  0
   -3.5280   -0.3260   -1.8620 C   0  0  0  0  0  0  0  0  0  0  0  0
   -4.8870   -0.6710   -2.2050 C   0  0  0  0  0  0  0  0  0  0  0  0
   -5.6270   -1.7130   -1.7330 C   0  0  0  0  0  0  0  0  0  0  0  0
   -6.8960   -1.6330   -2.3290 C   0  0  0  0  0  0  0  0  0  0  0  0
   -6.8910   -0.5960   -3.1080 O   0  0  0  0  0  0  0  0  0  0  0  0
   -5.7080    0.0170   -3.0710 C   0  0  0  0  0  0  0  0  0  0  0  0
    1.0160    2.1330   -0.7350 C   0  0  2  0  0  0  0  0  0  0  0  0
    2.1400    3.0070   -0.5600 C   0  0  0  0  0  0  0  0  0  0  0  0
    1.4050    2.6700    0.6800 C   0  0  0  0  0  0  0  0  0  0  0  0
    3.9590    0.1940   -0.7680 C   0  0  0  0  0  0  0  0  0  0  0  0
    5.2710   -0.1360   -0.5150 C   0  0  0  0  0  0  0  0  0  0  0  0
  1  2  1  0
  2  3  2  0
  2 30  1  0
  3  4  1  0
  4  5  2  0
  5  6  1  0
  5 29  1  0
  6  7  2  0
  6  8  1  0
  8  9  1  0
 26  8  1  1
  9 10  1  0
 10 11  2  0
 10 19  1  0
 11 12  1  0
 11 16  1  0
 12 13  2  0
 13 14  1  0
 14 15  2  0
 15 16  1  0
 16 17  1  0
 17 18  2  0
 17 19  1  0
 19 20  2  3
 20 21  1  0
 21 22  1  0
 21 25  2  0
 22 23  2  0
 23 24  1  0
 24 25  1  0
 26 27  1  0
 26 28  1  0
 27 28  1  0
 29 30  2  0
M  END
