
     RDKit          3D

 30 34  0  0  0  0  0  0  0  0999 V2000
   -4.6840   -4.8040   -2.4370 C   0  0  0  0  0  0  0  0  0  0  0  0
   -4.6660   -3.5150   -1.8880 O   0  0  0  0  0  0  0  0  0  0  0  0
   -3.4950   -2.9500   -1.3720 C   0  0  0  0  0  0  0  0  0  0  0  0
   -2.4840   -3.6820   -1.4400 O   0  0  0  0  0  0  0  0  0  0  0  0
   -3.5090   -1.6110   -0.8090 C   0  0  0  0  0  0  0  0  0  0  0  0
   -4.6510   -0.8300   -0.7350 C   0  0  0  0  0  0  0  0  0  0  0  0
   -4.3030    0.3120   -0.1600 N   0  0  0  0  0  0  0  0  0  0  0  0
   -2.9640    0.3130    0.1490 C   0  0  0  0  0  0  0  0  0  0  0  0
   -2.2750    1.4590    0.7960 C   0  0  1  0  0  0  0  0  0  0  0  0
   -3.2860    2.5940    1.0550 C   0  0  0  0  0  0  0  0  0  0  0  0
   -2.6980    3.3030    2.2510 C   0  0  0  0  0  0  0  0  0  0  0  0
   -1.4170    2.4890    2.4810 C   0  0  0  0  0  0  0  0  0  0  0  0
   -1.8670    1.2150    2.0980 O   0  0  0  0  0  0  0  0  0  0  0  0
   -2.4960   -0.8630   -0.2540 N   0  0  0  0  0  0  0  0  0  0  0  0
   -1.1730   -1.3670   -0.2140 C   0  0  2  0  0  0  0  0  0  0  0  0
   -0.9100   -2.0830    1.0890 C   0  0  0  0  0  0  0  0  0  0  0  0
    0.5790   -2.1110    1.1660 C   0  0  0  0  0  0  0  0  0  0  0  0
    1.1180   -1.3670    0.0120 N   0  0  0  0  0  0  0  0  0  0  0  0
    2.1900   -0.5460    0.5130 C   0  0  0  0  0  0  0  0  0  0  0  0
    2.9400    0.0790   -0.5920 C   0  0  0  0  0  0  0  0  0  0  0  0
    2.7220   -0.1440   -1.9290 C   0  0  0  0  0  0  0  0  0  0  0  0
    3.4940    0.4650   -2.9090 C   0  0  0  0  0  0  0  0  0  0  0  0
    4.4970    1.3080   -2.4810 C   0  0  0  0  0  0  0  0  0  0  0  0
    4.7490    1.5580   -1.1580 C   0  0  0  0  0  0  0  0  0  0  0  0
    5.7810    2.4220   -0.8110 C   0  0  0  0  0  0  0  0  0  0  0  0
    5.9950    2.6400    0.5220 C   0  0  0  0  0  0  0  0  0  0  0  0
    5.2460    2.0510    1.5190 C   0  0  0  0  0  0  0  0  0  0  0  0
    4.2300    1.1980    1.1230 C   0  0  0  0  0  0  0  0  0  0  0  0
    3.9750    0.9470   -0.2060 C   0  0  0  0  0  0  0  0  0  0  0  0
   -0.0290   -0.4010   -0.2300 C   0  0  0  0  0  0  0  0  0  0  0  0
  1  2  1  0
  2  3  1  0
  3  4  2  0
  3  5  1  0
  5  6  2  0
  5 14  1  0
  6  7  1  0
  7  8  2  0
  9  8  1  1
  8 14  1  0
  9 10  1  0
  9 13  1  0
 10 11  1  0
 11 12  1  0
 12 13  1  0
 15 14  1  1
 15 16  1  0
 15 30  1  0
 16 17  1  0
 17 18  1  0
 18 19  1  0
 18 30  1  0
 19 20  1  0
 20 21  2  0
 20 29  1  0
 21 22  1  0
 22 23  2  0
 23 24  1  0
 24 25  2  0
 24 29  1  0
 25 26  1  0
 26 27  2  0
 27 28  1  0
 28 29  2  0
M  END
