
     RDKit          3D

 30 34  0  0  0  0  0  0  0  0999 V2000
    0.2030    4.7320    1.7300 C   0  0  0  0  0  0  0  0  0  0  0  0
   -0.3980    4.8660    0.3510 C   0  0  0  0  0  0  0  0  0  0  0  0
    0.5170    4.2810   -0.6980 C   0  0  0  0  0  0  0  0  0  0  0  0
    0.7850    2.9450   -0.5210 O   0  0  0  0  0  0  0  0  0  0  0  0
   -0.4400    2.1700   -0.5590 C   0  0  0  0  0  0  0  0  0  0  0  0
   -0.0600    0.8170   -0.3680 C   0  0  0  0  0  0  0  0  0  0  0  0
    1.2920    0.5690   -0.2750 N   0  0  0  0  0  0  0  0  0  0  0  0
    1.8000   -0.6580   -0.1410 C   0  0  0  0  0  0  0  0  0  0  0  0
    3.2490   -0.7910   -0.0500 C   0  0  0  0  0  0  0  0  0  0  0  0
    3.8220   -2.0390    0.0930 C   0  0  0  0  0  0  0  0  0  0  0  0
    5.1890   -2.1990    0.1820 C   0  0  0  0  0  0  0  0  0  0  0  0
    6.0460   -1.1200    0.1320 C   0  0  0  0  0  0  0  0  0  0  0  0
    7.5290   -1.3000    0.2300 C   0  0  0  0  0  0  0  0  0  0  0  0
    5.4840    0.1310   -0.0100 C   0  0  0  0  0  0  0  0  0  0  0  0
    4.0990    0.2910   -0.1000 C   0  0  0  0  0  0  0  0  0  0  0  0
    0.9890   -1.7130   -0.0910 N   0  0  0  0  0  0  0  0  0  0  0  0
   -0.3450   -1.5730   -0.1720 C   0  0  0  0  0  0  0  0  0  0  0  0
   -1.1460   -2.6600   -0.1180 N   0  0  0  0  0  0  0  0  0  0  0  0
   -2.4790   -2.5300   -0.2000 C   0  0  0  0  0  0  0  0  0  0  0  0
   -2.9500   -1.2950   -0.3370 C   0  0  0  0  0  0  0  0  0  0  0  0
   -2.2220   -0.1130   -0.3950 C   0  0  0  0  0  0  0  0  0  0  0  0
   -0.8520   -0.2840   -0.3110 C   0  0  0  0  0  0  0  0  0  0  0  0
   -3.1000    1.0010   -0.4020 C   0  0  0  0  0  0  0  0  0  0  0  0
   -2.9480    2.2010   -0.4460 O   0  0  0  0  0  0  0  0  0  0  0  0
   -4.4240    0.4250   -0.3350 O   0  0  0  0  0  0  0  0  0  0  0  0
   -4.3420   -0.9190   -0.6730 C   0  0  2  0  0  0  0  0  0  0  0  0
   -5.2710   -1.9000   -0.1300 C   0  0  0  0  0  0  0  0  0  0  0  0
   -4.7290   -3.2750   -0.0020 C   0  0  0  0  0  0  0  0  0  0  0  0
   -5.7120   -4.3770    0.1690 C   0  0  0  0  0  0  0  0  0  0  0  0
   -3.4480   -3.6150   -0.0250 C   0  0  0  0  0  0  0  0  0  0  0  0
  1  2  1  0
  2  3  1  0
  3  4  1  0
  4  5  1  0
  5  6  1  0
  6  7  2  0
  6 22  1  0
  7  8  1  0
  8  9  1  0
  8 16  2  0
  9 10  2  0
  9 15  1  0
 10 11  1  0
 11 12  2  0
 12 13  1  0
 12 14  1  0
 14 15  2  0
 16 17  1  0
 17 18  2  0
 17 22  1  0
 18 19  1  0
 19 20  2  0
 19 30  1  0
 20 21  1  0
 20 26  1  0
 21 22  2  0
 21 23  1  0
 23 24  2  0
 23 25  1  0
 25 26  1  0
 26 27  1  1
 27 28  1  0
 28 29  1  0
 28 30  2  0
M  END
