
     RDKit          3D

 30 34  0  0  0  0  0  0  0  0999 V2000
    5.9780    2.3130    1.7160 C   0  0  0  0  0  0  0  0  0  0  0  0
    5.3590    1.8380    0.4320 C   0  0  1  0  0  0  0  0  0  0  0  0
    4.8850    0.4310    0.5010 C   0  0  0  0  0  0  0  0  0  0  0  0
    3.5630    0.1680    0.0810 N   0  0  0  0  0  0  0  0  0  0  0  0
    2.6320   -0.2650    1.0640 C   0  0  0  0  0  0  0  0  0  0  0  0
    1.3130   -0.5060    0.3970 C   0  0  0  0  0  0  0  0  0  0  0  0
    1.1520   -1.5270   -0.5030 C   0  0  0  0  0  0  0  0  0  0  0  0
   -0.0430   -1.8140   -1.1520 C   0  0  0  0  0  0  0  0  0  0  0  0
   -0.1650   -2.8590   -2.0300 C   0  0  0  0  0  0  0  0  0  0  0  0
   -1.3620   -3.1830   -2.6810 C   0  0  0  0  0  0  0  0  0  0  0  0
   -2.4280   -2.3740   -2.3780 C   0  0  0  0  0  0  0  0  0  0  0  0
   -2.3130   -1.3160   -1.4940 C   0  0  0  0  0  0  0  0  0  0  0  0
   -1.1220   -1.0030   -0.8560 C   0  0  0  0  0  0  0  0  0  0  0  0
   -0.9600    0.0180    0.0450 C   0  0  0  0  0  0  0  0  0  0  0  0
   -2.0620    0.8780    0.3120 N   0  0  0  0  0  0  0  0  0  0  0  0
   -1.9050    1.8870    1.3160 C   0  0  0  0  0  0  0  0  0  0  0  0
   -0.8170    1.9420    1.9360 O   0  0  0  0  0  0  0  0  0  0  0  0
   -2.9820    2.8580    1.6440 C   0  0  0  0  0  0  0  0  0  0  0  0
   -3.6510    2.4630    2.9210 C   0  0  0  0  0  0  0  0  0  0  0  0
   -4.9020    1.9190    2.9380 C   0  0  0  0  0  0  0  0  0  0  0  0
   -5.1810    1.6820    4.2890 C   0  0  0  0  0  0  0  0  0  0  0  0
   -4.0720    2.1030    4.9780 C   0  0  0  0  0  0  0  0  0  0  0  0
   -3.1560    2.5740    4.1280 O   0  0  0  0  0  0  0  0  0  0  0  0
    0.2430    0.2520    0.6560 N   0  0  0  0  0  0  0  0  0  0  0  0
   -3.6230   -2.8530   -3.1430 C   0  0  0  0  0  0  0  0  0  0  0  0
   -3.2950   -4.2860   -3.4160 C   0  0  0  0  0  0  0  0  0  0  0  0
   -1.7820   -4.2380   -3.6390 C   0  0  0  0  0  0  0  0  0  0  0  0
    2.9950    0.9640   -0.9370 C   0  0  0  0  0  0  0  0  0  0  0  0
    3.7990    2.2020   -1.1760 C   0  0  0  0  0  0  0  0  0  0  0  0
    4.3180    2.6630    0.0190 O   0  0  0  0  0  0  0  0  0  0  0  0
  2  1  1  1
  2  3  1  0
  2 30  1  0
  3  4  1  0
  4  5  1  0
  4 28  1  0
  5  6  1  0
  6  7  2  0
  6 24  1  0
  7  8  1  0
  8  9  2  0
  8 13  1  0
  9 10  1  0
 10 11  2  0
 10 27  1  0
 11 12  1  0
 11 25  1  0
 12 13  2  0
 13 14  1  0
 14 15  1  0
 14 24  2  0
 15 16  1  0
 16 17  2  0
 16 18  1  0
 18 19  1  0
 19 20  2  0
 19 23  1  0
 20 21  1  0
 21 22  2  0
 22 23  1  0
 25 26  1  0
 26 27  1  0
 28 29  1  0
 29 30  1  0
M  END
