
     RDKit          3D

 30 34  0  0  0  0  0  0  0  0999 V2000
    6.5690   -2.4960   -0.0550 C   0  0  0  0  0  0  0  0  0  0  0  0
    6.1620   -1.2830    0.2600 C   0  0  0  0  0  0  0  0  0  0  0  0
    4.8220   -0.7690    0.0340 C   0  0  0  0  0  0  0  0  0  0  0  0
    3.5590   -1.0120   -0.4430 C   0  0  0  0  0  0  0  0  0  0  0  0
    2.8110    0.1430   -0.2540 C   0  0  0  0  0  0  0  0  0  0  0  0
    1.3770    0.3610   -0.6160 C   0  0  2  0  0  0  0  0  0  0  0  0
    1.2280    1.5200   -1.5960 C   0  0  0  0  0  0  0  0  0  0  0  0
   -0.1590    1.4770   -2.0990 C   0  0  0  0  0  0  0  0  0  0  0  0
   -0.4170    1.7160   -3.3160 O   0  0  0  0  0  0  0  0  0  0  0  0
   -1.2130    1.1510   -1.1460 C   0  0  0  0  0  0  0  0  0  0  0  0
   -2.5530    1.1100   -1.2430 N   0  0  0  0  0  0  0  0  0  0  0  0
   -3.0990    0.7530   -0.0900 N   0  0  0  0  0  0  0  0  0  0  0  0
   -4.4860    0.6030    0.1870 C   0  0  0  0  0  0  0  0  0  0  0  0
   -5.1590    1.4730    1.0190 C   0  0  0  0  0  0  0  0  0  0  0  0
   -6.5040    1.3310    1.2900 C   0  0  0  0  0  0  0  0  0  0  0  0
   -7.2250    0.3020    0.7310 C   0  0  0  0  0  0  0  0  0  0  0  0
   -6.5820   -0.5840   -0.1030 C   0  0  0  0  0  0  0  0  0  0  0  0
   -7.3550   -1.7170   -0.7250 C   0  0  0  0  0  0  0  0  0  0  0  0
   -5.2330   -0.4350   -0.3710 C   0  0  0  0  0  0  0  0  0  0  0  0
   -4.5850   -1.3890   -1.2570 C   0  0  0  0  0  0  0  0  0  0  0  0
   -4.5150   -1.2200   -2.4970 O   0  0  0  0  0  0  0  0  0  0  0  0
   -2.0740    0.5570    0.7800 C   0  0  0  0  0  0  0  0  0  0  0  0
   -2.2750    0.1430    2.1950 C   0  0  0  0  0  0  0  0  0  0  0  0
   -0.8680    0.8000    0.1440 C   0  0  0  0  0  0  0  0  0  0  0  0
    0.5520    0.7410    0.6080 C   0  0  0  0  0  0  0  0  0  0  0  0
    3.5940    1.0190    0.3060 O   0  0  0  0  0  0  0  0  0  0  0  0
    4.8070    0.5310    0.5020 C   0  0  0  0  0  0  0  0  0  0  0  0
    6.1450    0.8880    1.0450 C   0  0  0  0  0  0  0  0  0  0  0  0
    6.9550   -0.2800    0.8690 N   0  0  0  0  0  0  0  0  0  0  0  0
    8.3510   -0.3570    1.2710 C   0  0  0  0  0  0  0  0  0  0  0  0
  1  2  2  0
  2  3  1  0
  2 29  1  0
  3  4  1  0
  3 27  2  0
  4  5  2  0
  6  5  1  1
  5 26  1  0
  6  7  1  0
  6 25  1  0
  7  8  1  0
  8  9  2  0
  8 10  1  0
 10 11  2  0
 10 24  1  0
 11 12  1  0
 12 13  1  0
 12 22  1  0
 13 14  2  0
 13 19  1  0
 14 15  1  0
 15 16  2  0
 16 17  1  0
 17 18  1  0
 17 19  2  0
 19 20  1  0
 20 21  2  0
 22 23  1  0
 22 24  2  0
 24 25  1  0
 26 27  1  0
 27 28  1  0
 28 29  1  0
 29 30  1  0
M  END
