
     RDKit          3D

 16 15  0  0  0  0  0  0  0  0999 V2000
   -4.0330    0.6750    2.1860 O   0  0  0  0  0  0  0  0  0  0  0  0
   -3.3340    0.1670    1.2470 C   0  0  0  0  0  0  0  0  0  0  0  0
   -3.9850   -0.4010    0.1680 O   0  0  0  0  0  0  0  0  0  0  0  0
   -1.8600    0.1850    1.3200 C   0  0  0  0  0  0  0  0  0  0  0  0
   -1.2480    0.0020   -0.0280 C   0  0  2  0  0  0  0  0  0  0  0  0
    0.2150   -0.0140    0.0810 N   0  0  0  0  0  0  0  0  0  0  0  0
    0.9020   -1.1470   -0.3950 C   0  0  0  0  0  0  0  0  0  0  0  0
    0.2240   -2.1050   -0.8990 O   0  0  0  0  0  0  0  0  0  0  0  0
    2.3510   -1.3410   -0.3700 C   0  0  0  0  0  0  0  0  0  0  0  0
    3.3000   -0.0200    0.3320 P   0  0  1  0  0  0  0  0  0  0  0  0
    2.9220    0.3690    1.7150 O   0  0  0  0  0  0  0  0  0  0  0  0
    4.9380   -0.4940    0.3750 O   0  0  0  0  0  0  0  0  0  0  0  0
    3.2430    1.3160   -0.7370 O   0  0  0  0  0  0  0  0  0  0  0  0
   -1.6410    1.1650   -0.8990 C   0  0  0  0  0  0  0  0  0  0  0  0
   -0.7590    1.9350   -1.3940 O   0  0  0  0  0  0  0  0  0  0  0  0
   -2.9420    1.4660   -1.2110 O   0  0  0  0  0  0  0  0  0  0  0  0
  1  2  2  0
  2  3  1  0
  2  4  1  0
  5  4  1  1
  5  6  1  0
  5 14  1  0
  6  7  1  0
  7  8  2  0
  7  9  1  0
  9 10  1  0
 10 11  2  0
 10 12  1  1
 10 13  1  0
 14 15  2  0
 14 16  1  0
M  END
