
     RDKit          3D

 26 27  0  0  0  0  0  0  0  0999 V2000
    7.3880   -3.0210   -0.6880 C   0  0  0  0  0  0  0  0  0  0  0  0
    6.0100   -2.6570   -0.6020 O   0  0  0  0  0  0  0  0  0  0  0  0
    5.5430   -1.4050   -0.3230 C   0  0  0  0  0  0  0  0  0  0  0  0
    6.4040   -0.4960   -0.1220 O   0  0  0  0  0  0  0  0  0  0  0  0
    4.1420   -1.0490   -0.2430 C   0  0  0  0  0  0  0  0  0  0  0  0
    3.7870    0.1890    0.0250 C   0  0  0  0  0  0  0  0  0  0  0  0
    2.3560    0.5480    0.1040 C   0  0  0  0  0  0  0  0  0  0  0  0
    1.9640    1.7720    0.3700 C   0  0  0  0  0  0  0  0  0  0  0  0
    0.6110    2.0960    0.4370 N   0  0  0  0  0  0  0  0  0  0  0  0
   -0.3510    1.2290    0.2350 C   0  0  0  0  0  0  0  0  0  0  0  0
   -1.5990    1.7450    0.3560 O   0  0  0  0  0  0  0  0  0  0  0  0
   -2.0490    3.0410    0.3470 C   0  0  0  0  0  0  0  0  0  0  0  0
   -1.2910    4.1700    0.2000 C   0  0  0  0  0  0  0  0  0  0  0  0
   -1.8880    5.4410    0.2140 C   0  0  0  0  0  0  0  0  0  0  0  0
   -3.2400    5.5730    0.3750 C   0  0  0  0  0  0  0  0  0  0  0  0
   -4.0390    4.4600    0.5270 C   0  0  0  0  0  0  0  0  0  0  0  0
   -3.4360    3.2480    0.5090 C   0  0  0  0  0  0  0  0  0  0  0  0
   -0.0280   -0.1840   -0.0990 C   0  0  2  0  0  0  0  0  0  0  0  0
   -0.8150   -1.1770    0.5500 N   0  0  0  0  0  0  0  0  0  0  0  0
   -1.9150   -1.6570   -0.2040 C   0  0  2  0  0  0  0  0  0  0  0  0
   -2.9090   -0.6630   -0.6070 C   0  0  0  0  0  0  0  0  0  0  0  0
   -2.5050   -2.8830    0.5290 C   0  0  0  0  0  0  0  0  0  0  0  0
   -3.6570   -3.4120   -0.2620 C   0  0  0  0  0  0  0  0  0  0  0  0
   -4.3760   -4.9370    0.5640 P   0  0  0  0  0  0  0  0  0  0  0  0
   -3.4940   -6.2220    0.6280 O   0  0  0  0  0  0  0  0  0  0  0  0
    1.4000   -0.5260   -0.0760 C   0  0  0  0  0  0  0  0  0  0  0  0
  1  2  1  0
  2  3  1  0
  3  4  2  0
  3  5  1  0
  5  6  2  3
  6  7  1  0
  7  8  2  0
  7 26  1  0
  8  9  1  0
  9 10  2  0
 10 11  1  0
 10 18  1  0
 11 12  1  0
 12 13  2  0
 12 17  1  0
 13 14  1  0
 14 15  2  0
 15 16  1  0
 16 17  2  0
 18 19  1  1
 18 26  1  0
 19 20  1  0
 20 21  1  1
 20 22  1  0
 22 23  1  0
 23 24  1  0
 24 25  2  0
M  END
