
     RDKit          3D

 27 28  0  0  0  0  0  0  0  0999 V2000
    7.8060    0.3000    0.1370 C   0  0  0  0  0  0  0  0  0  0  0  0
    6.5100    0.3730   -0.6380 C   0  0  0  0  0  0  0  0  0  0  0  0
    5.4820    1.2560   -0.0150 C   0  0  0  0  0  0  0  0  0  0  0  0
    5.0250    0.9220    1.3350 C   0  0  0  0  0  0  0  0  0  0  0  0
    4.3740   -0.3610    1.6120 C   0  0  0  0  0  0  0  0  0  0  0  0
    3.0890   -0.7580    1.0290 C   0  0  0  0  0  0  0  0  0  0  0  0
    2.9000   -0.9990   -0.4020 C   0  0  1  0  0  0  0  0  0  0  0  0
    3.7970   -2.1200   -0.9330 C   0  0  0  0  0  0  0  0  0  0  0  0
    1.5390   -1.4760   -0.7500 N   0  0  0  0  0  0  0  0  0  0  0  0
    0.6020   -0.4590   -0.4350 C   0  0  0  0  0  0  0  0  0  0  0  0
   -0.8210   -0.8440   -0.8670 C   0  0  0  0  0  0  0  0  0  0  0  0
   -1.6740    0.3420   -0.4700 C   0  0  2  0  0  0  0  0  0  0  0  0
   -1.5180    0.4710    0.9140 O   0  0  0  0  0  0  0  0  0  0  0  0
   -2.5610    1.7260    1.5090 P   0  0  0  0  0  0  0  0  0  0  0  0
   -2.8340    1.4170    3.1950 O   0  0  0  0  0  0  0  0  0  0  0  0
   -3.9290    2.2180    3.5640 C   0  0  0  0  0  0  0  0  0  0  0  0
   -4.2780    2.0550    5.0070 C   0  0  0  0  0  0  0  0  0  0  0  0
   -4.0990    1.4910    0.6950 O   0  0  0  0  0  0  0  0  0  0  0  0
   -4.1050    0.1640    0.2530 C   0  0  1  0  0  0  0  0  0  0  0  0
   -5.4030   -0.2790   -0.1310 N   0  0  0  0  0  0  0  0  0  0  0  0
   -5.6070   -0.9380   -1.3660 C   0  0  0  0  0  0  0  0  0  0  0  0
   -6.5180   -1.8070   -1.5260 O   0  0  0  0  0  0  0  0  0  0  0  0
   -4.7470   -0.6190   -2.5120 C   0  0  1  0  0  0  0  0  0  0  0  0
   -4.6300   -1.8480   -3.4230 C   0  0  0  0  0  0  0  0  0  0  0  0
   -5.2620    0.5690   -3.2930 C   0  0  0  0  0  0  0  0  0  0  0  0
   -3.3690   -0.3010   -2.0570 C   0  0  0  0  0  0  0  0  0  0  0  0
   -3.0890    0.0450   -0.8220 C   0  0  0  0  0  0  0  0  0  0  0  0
  1  2  1  0
  2  3  1  0
  3  4  1  0
  4  5  1  0
  5  6  1  0
  6  7  1  0
  7  8  1  1
  7  9  1  0
  9 10  1  0
 10 11  1  0
 12 11  1  1
 12 13  1  0
 12 27  1  0
 13 14  1  0
 14 15  1  0
 14 18  1  0
 15 16  1  0
 16 17  1  0
 18 19  1  0
 19 20  1  6
 19 27  1  0
 20 21  1  0
 21 22  2  0
 21 23  1  0
 23 24  1  6
 23 25  1  0
 23 26  1  0
 26 27  2  0
M  END
