
     RDKit          3D

 27 28  0  0  0  0  0  0  0  0999 V2000
   -8.0220    0.9890    2.3140 C   0  0  0  0  0  0  0  0  0  0  0  0
   -6.8490    0.9140    1.6040 C   0  0  0  0  0  0  0  0  0  0  0  0
   -6.2050   -0.3560    1.5720 C   0  0  0  0  0  0  0  0  0  0  0  0
   -5.2180   -0.9820    1.1400 C   0  0  0  0  0  0  0  0  0  0  0  0
   -4.0440   -0.9000    0.3850 C   0  0  0  0  0  0  0  0  0  0  0  0
   -3.2830   -2.0480    0.2450 C   0  0  0  0  0  0  0  0  0  0  0  0
   -3.7040   -3.2990    0.8710 C   0  0  0  0  0  0  0  0  0  0  0  0
   -3.4730    0.2490   -0.3070 C   0  0  0  0  0  0  0  0  0  0  0  0
   -3.8570    1.3920   -0.4030 O   0  0  0  0  0  0  0  0  0  0  0  0
   -2.2380    0.0650   -1.0240 O   0  0  0  0  0  0  0  0  0  0  0  0
   -1.6200    1.1170   -1.7170 C   0  0  2  0  0  0  0  0  0  0  0  0
   -1.4430    0.8490   -3.1770 C   0  0  0  0  0  0  0  0  0  0  0  0
   -0.0120    0.4580   -3.4710 C   0  0  0  0  0  0  0  0  0  0  0  0
    0.4140   -0.4770   -2.3290 C   0  0  0  0  0  0  0  0  0  0  0  0
    0.6860    0.4100   -1.2150 N   0  0  0  0  0  0  0  0  0  0  0  0
    1.8370    0.3500   -0.3990 C   0  0  0  0  0  0  0  0  0  0  0  0
    1.9320    1.2030    0.5450 O   0  0  0  0  0  0  0  0  0  0  0  0
    2.9180   -0.6220   -0.5690 C   0  0  2  0  0  0  0  0  0  0  0  0
    3.5990   -1.2390    0.6130 C   0  0  0  0  0  0  0  0  0  0  0  0
    4.3310   -0.2580   -0.2840 C   0  0  2  0  0  0  0  0  0  0  0  0
    4.6750    1.0350    0.4180 C   0  0  0  0  0  0  0  0  0  0  0  0
    6.0940    1.1350    0.5600 N   0  0  0  0  0  0  0  0  0  0  0  0
    6.6440    0.1620    1.4820 C   0  0  0  0  0  0  0  0  0  0  0  0
    8.1550    0.3260    1.5840 C   0  0  0  0  0  0  0  0  0  0  0  0
   -0.3370    1.4070   -0.9770 C   0  0  0  0  0  0  0  0  0  0  0  0
   -6.3590    2.4770    0.8400 P   0  0  0  0  0  0  0  0  0  0  0  0
   -5.3170    3.4570    1.4820 O   0  0  0  0  0  0  0  0  0  0  0  0
  1  2  2  0
  2  3  1  0
  2 26  1  0
  3  4  2  3
  4  5  1  0
  5  6  2  3
  5  8  1  0
  6  7  1  0
  8  9  2  0
  8 10  1  0
 11 10  1  1
 11 12  1  0
 11 25  1  0
 12 13  1  0
 13 14  1  0
 14 15  1  0
 15 16  1  0
 15 25  1  0
 16 17  2  0
 18 16  1  1
 18 19  1  0
 18 20  1  0
 19 20  1  0
 20 21  1  1
 21 22  1  0
 22 23  1  0
 23 24  1  0
 26 27  2  0
M  END
