
     RDKit          3D

 27 28  0  0  0  0  0  0  0  0999 V2000
   -6.3950   -2.2210   -1.2390 C   0  0  0  0  0  0  0  0  0  0  0  0
   -5.5150   -1.9570   -0.2530 C   0  0  0  0  0  0  0  0  0  0  0  0
   -5.5040   -2.8170    0.9330 C   0  0  0  0  0  0  0  0  0  0  0  0
   -4.5850   -0.8070   -0.3970 C   0  0  0  0  0  0  0  0  0  0  0  0
   -3.2270   -1.3310   -0.3480 N   0  0  0  0  0  0  0  0  0  0  0  0
   -2.2580   -0.2780   -0.5390 C   0  0  2  0  0  0  0  0  0  0  0  0
   -1.0300   -0.8430   -1.1870 C   0  0  0  0  0  0  0  0  0  0  0  0
    0.0210    0.2220   -1.4160 C   0  0  0  0  0  0  0  0  0  0  0  0
    0.2840    0.9490   -0.0980 C   0  0  1  0  0  0  0  0  0  0  0  0
    1.4720    1.8060   -0.1550 C   0  0  0  0  0  0  0  0  0  0  0  0
    2.6760    1.1160   -0.4550 O   0  0  0  0  0  0  0  0  0  0  0  0
    3.2510    0.1120    0.2940 C   0  0  0  0  0  0  0  0  0  0  0  0
    2.6490   -0.2220    1.3520 O   0  0  0  0  0  0  0  0  0  0  0  0
    4.5000   -0.5420   -0.1060 C   0  0  0  0  0  0  0  0  0  0  0  0
    5.2010   -0.2130   -1.2350 C   0  0  0  0  0  0  0  0  0  0  0  0
    6.3820   -0.8280   -1.6150 C   0  0  0  0  0  0  0  0  0  0  0  0
    6.8710   -1.8320   -0.7960 C   0  0  0  0  0  0  0  0  0  0  0  0
    8.4440   -2.6550   -1.2850 P   0  0  0  0  0  0  0  0  0  0  0  0
    9.5680   -1.7880   -1.9320 O   0  0  0  0  0  0  0  0  0  0  0  0
    6.1940   -2.1900    0.3460 C   0  0  0  0  0  0  0  0  0  0  0  0
    5.0010   -1.5420    0.6930 C   0  0  0  0  0  0  0  0  0  0  0  0
   -0.9870    1.5730    0.3390 C   0  0  2  0  0  0  0  0  0  0  0  0
   -1.0030    2.6360    1.3510 C   0  0  0  0  0  0  0  0  0  0  0  0
   -0.3290    3.8340    0.9690 N   0  0  0  0  0  0  0  0  0  0  0  0
   -0.2630    4.9220    1.9250 C   0  0  0  0  0  0  0  0  0  0  0  0
   -0.8140    4.7190    3.0310 O   0  0  0  0  0  0  0  0  0  0  0  0
   -1.9090    0.3950    0.7710 C   0  0  0  0  0  0  0  0  0  0  0  0
  1  2  2  0
  2  3  1  0
  2  4  1  0
  4  5  1  0
  6  5  1  1
  6  7  1  0
  6 27  1  0
  7  8  1  0
  8  9  1  0
  9 10  1  6
  9 22  1  0
 10 11  1  0
 11 12  1  0
 12 13  2  0
 12 14  1  0
 14 15  2  0
 14 21  1  0
 15 16  1  0
 16 17  2  0
 17 18  1  0
 17 20  1  0
 18 19  2  0
 20 21  2  0
 22 23  1  1
 22 27  1  0
 23 24  1  0
 24 25  1  0
 25 26  2  0
M  END
