
     RDKit          3D

 27 28  0  0  0  0  0  0  0  0999 V2000
   -5.9980    3.8900   -0.1960 C   0  0  0  0  0  0  0  0  0  0  0  0
   -6.7490    2.7500   -0.2220 O   0  0  0  0  0  0  0  0  0  0  0  0
   -6.0190    1.6640    0.2080 C   0  0  0  0  0  0  0  0  0  0  0  0
   -4.8100    1.3780   -0.6260 C   0  0  0  0  0  0  0  0  0  0  0  0
   -4.1130    0.1510   -0.0460 C   0  0  2  0  0  0  0  0  0  0  0  0
   -3.7200    0.4400    1.3510 C   0  0  0  0  0  0  0  0  0  0  0  0
   -3.0950   -0.2840   -0.9400 N   0  0  0  0  0  0  0  0  0  0  0  0
   -2.2470   -1.3650   -0.6330 C   0  0  0  0  0  0  0  0  0  0  0  0
   -2.6780   -2.6740   -0.8010 C   0  0  0  0  0  0  0  0  0  0  0  0
   -3.9680   -2.8870   -1.2490 O   0  0  0  0  0  0  0  0  0  0  0  0
   -1.8780   -3.7550   -0.5420 C   0  0  0  0  0  0  0  0  0  0  0  0
   -0.5960   -3.5470   -0.0970 C   0  0  0  0  0  0  0  0  0  0  0  0
   -0.1580   -2.2440    0.0730 C   0  0  0  0  0  0  0  0  0  0  0  0
   -0.9470   -1.1480   -0.1830 C   0  0  0  0  0  0  0  0  0  0  0  0
   -0.4630    0.2230    0.0090 C   0  0  0  0  0  0  0  0  0  0  0  0
    0.9310    0.2030    0.4050 N   0  0  0  0  0  0  0  0  0  0  0  0
    1.9550   -0.2380   -0.4820 C   0  0  0  0  0  0  0  0  0  0  0  0
    1.5890   -0.6060   -1.6400 O   0  0  0  0  0  0  0  0  0  0  0  0
    3.3500   -0.2730   -0.1030 C   0  0  0  0  0  0  0  0  0  0  0  0
    3.8240   -0.0320    1.1590 C   0  0  0  0  0  0  0  0  0  0  0  0
    5.1810   -0.0790    1.4590 C   0  0  0  0  0  0  0  0  0  0  0  0
    6.1070   -0.3720    0.4920 C   0  0  0  0  0  0  0  0  0  0  0  0
    7.9140   -0.4420    0.8650 P   0  0  0  0  0  0  0  0  0  0  0  0
    8.7160    0.9820    0.0020 C   0  0  0  0  0  0  0  0  0  0  0  0
    8.1580   -0.3450    2.5730 O   0  0  0  0  0  0  0  0  0  0  0  0
    5.6380   -0.6170   -0.7840 C   0  0  0  0  0  0  0  0  0  0  0  0
    4.2950   -0.5700   -1.0780 C   0  0  0  0  0  0  0  0  0  0  0  0
  1  2  1  0
  2  3  1  0
  3  4  1  0
  4  5  1  0
  5  6  1  1
  5  7  1  0
  7  8  1  0
  8  9  2  0
  8 14  1  0
  9 10  1  0
  9 11  1  0
 11 12  2  0
 12 13  1  0
 13 14  2  0
 14 15  1  0
 15 16  1  0
 16 17  1  0
 17 18  2  0
 17 19  1  0
 19 20  2  0
 19 27  1  0
 20 21  1  0
 21 22  2  0
 22 23  1  0
 22 26  1  0
 23 24  1  0
 23 25  1  0
 26 27  2  0
M  END
