
     RDKit          3D

 27 28  0  0  0  0  0  0  0  0999 V2000
   -4.4680   -3.5730   -0.7140 C   0  0  0  0  0  0  0  0  0  0  0  0
   -3.8260   -2.2220   -0.3430 C   0  0  0  0  0  0  0  0  0  0  0  0
   -3.0300   -2.4640    0.7400 O   0  0  0  0  0  0  0  0  0  0  0  0
   -2.2160   -1.2130    1.5070 P   0  0  0  0  0  0  0  0  0  0  0  0
   -2.8220   -0.8110    3.0700 O   0  0  0  0  0  0  0  0  0  0  0  0
   -1.7300    0.2170    0.5100 C   0  0  1  0  0  0  0  0  0  0  0  0
   -0.2710    0.2100    0.1350 C   0  0  0  0  0  0  0  0  0  0  0  0
    0.5890    0.2830    1.3930 C   0  0  0  0  0  0  0  0  0  0  0  0
    1.9300    0.2880    1.1290 N   0  0  0  0  0  0  0  0  0  0  0  0
    2.7720   -0.7580    0.7040 C   0  0  1  0  0  0  0  0  0  0  0  0
    2.3680   -1.4060   -0.6190 C   0  0  0  0  0  0  0  0  0  0  0  0
    3.3300   -2.4220   -0.9060 O   0  0  0  0  0  0  0  0  0  0  0  0
    3.3390   -3.4550   -0.0100 C   0  0  0  0  0  0  0  0  0  0  0  0
    4.0360    0.0340    0.2700 C   0  0  0  0  0  0  0  0  0  0  0  0
    3.8600    1.1000   -0.6300 C   0  0  0  0  0  0  0  0  0  0  0  0
    4.8890    1.9630   -0.9410 C   0  0  0  0  0  0  0  0  0  0  0  0
    6.1050    1.7700   -0.3570 C   0  0  0  0  0  0  0  0  0  0  0  0
    6.2810    0.7110    0.5400 C   0  0  0  0  0  0  0  0  0  0  0  0
    5.2410   -0.1730    0.8660 C   0  0  0  0  0  0  0  0  0  0  0  0
    5.4680   -1.1850    1.7450 O   0  0  0  0  0  0  0  0  0  0  0  0
   -2.5560    0.6070   -0.5610 N   0  0  0  0  0  0  0  0  0  0  0  0
   -3.4110    1.7420   -0.3210 C   0  0  0  0  0  0  0  0  0  0  0  0
   -4.7630    1.6970   -0.5830 C   0  0  0  0  0  0  0  0  0  0  0  0
   -5.5620    2.7920   -0.3350 C   0  0  0  0  0  0  0  0  0  0  0  0
   -5.0500    3.9620    0.1720 C   0  0  0  0  0  0  0  0  0  0  0  0
   -3.6780    4.0260    0.4420 C   0  0  0  0  0  0  0  0  0  0  0  0
   -2.8950    2.9130    0.1860 C   0  0  0  0  0  0  0  0  0  0  0  0
  1  2  1  0
  2  3  1  0
  3  4  1  0
  4  5  1  0
  4  6  1  0
  6  7  1  6
  6 21  1  0
  7  8  1  0
  8  9  1  0
  9 10  1  0
 10 11  1  6
 10 14  1  0
 11 12  1  0
 12 13  1  0
 14 15  2  0
 14 19  1  0
 15 16  1  0
 16 17  2  0
 17 18  1  0
 18 19  2  0
 19 20  1  0
 21 22  1  0
 22 23  2  0
 22 27  1  0
 23 24  1  0
 24 25  2  0
 25 26  1  0
 26 27  2  0
M  END
