
     RDKit          3D

 24 25  0  0  0  0  0  0  0  0999 V2000
   -4.1370    3.0930   -0.6080 C   0  0  0  0  0  0  0  0  0  0  0  0
   -3.1570    2.0000   -0.6320 C   0  0  0  0  0  0  0  0  0  0  0  0
   -3.4690    0.8550    0.1100 C   0  0  0  0  0  0  0  0  0  0  0  0
   -2.5580   -0.2020    0.1080 C   0  0  0  0  0  0  0  0  0  0  0  0
   -2.8530   -1.4300    0.8800 C   0  0  2  0  0  0  0  0  0  0  0  0
   -4.3080   -1.3810    1.3830 C   0  0  0  0  0  0  0  0  0  0  0  0
   -1.9930   -1.5770    2.1220 C   0  0  0  0  0  0  0  0  0  0  0  0
   -1.4030   -0.0880   -0.6110 C   0  0  0  0  0  0  0  0  0  0  0  0
   -0.4820   -1.1610   -0.6120 N   0  0  0  0  0  0  0  0  0  0  0  0
    0.6190   -1.2300    0.2700 C   0  0  0  0  0  0  0  0  0  0  0  0
    0.8390   -0.3230    1.1120 O   0  0  0  0  0  0  0  0  0  0  0  0
    1.5420   -2.3280    0.2560 N   0  0  0  0  0  0  0  0  0  0  0  0
    2.6710   -2.3920    1.1590 C   0  0  0  0  0  0  0  0  0  0  0  0
    3.7690   -1.4920    0.7410 C   0  0  0  0  0  0  0  0  0  0  0  0
    4.6960   -1.8490   -0.2150 C   0  0  0  0  0  0  0  0  0  0  0  0
    5.7110   -1.0090   -0.5970 C   0  0  0  0  0  0  0  0  0  0  0  0
    5.8070    0.2380   -0.0020 C   0  0  0  0  0  0  0  0  0  0  0  0
    6.8000    1.1740   -0.3140 N   0  0  0  0  0  0  0  0  0  0  0  0
    4.8780    0.5560    0.9340 N   0  0  0  0  0  0  0  0  0  0  0  0
    3.9110   -0.2720    1.2830 N   0  0  0  0  0  0  0  0  0  0  0  0
   -1.1060    1.0680   -1.3500 C   0  0  0  0  0  0  0  0  0  0  0  0
    0.1270    1.1110   -2.0760 N   0  0  0  0  0  0  0  0  0  0  0  0
   -1.9960    2.1090   -1.3520 C   0  0  0  0  0  0  0  0  0  0  0  0
   -1.7240    3.3380   -2.1120 C   0  0  0  0  0  0  0  0  0  0  0  0
  1  2  1  0
  2  3  2  0
  2 23  1  0
  3  4  1  0
  4  5  1  0
  4  8  2  0
  5  6  1  1
  5  7  1  0
  8  9  1  0
  8 21  1  0
  9 10  1  0
 10 11  2  0
 10 12  1  0
 12 13  1  0
 13 14  1  0
 14 15  2  0
 14 20  1  0
 15 16  1  0
 16 17  2  0
 17 18  1  0
 17 19  1  0
 19 20  2  0
 21 22  1  0
 21 23  2  0
 23 24  1  0
M  END
