
     RDKit          3D

 24 25  0  0  0  0  0  0  0  0999 V2000
   -3.9040   -1.7990    1.6340 C   0  0  0  0  0  0  0  0  0  0  0  0
   -3.8550   -1.2130    0.4600 C   0  0  0  0  0  0  0  0  0  0  0  0
   -5.0450   -0.9140   -0.2870 C   0  0  0  0  0  0  0  0  0  0  0  0
   -6.3970   -1.2700    0.2530 C   0  0  0  0  0  0  0  0  0  0  0  0
   -5.0530   -0.3230   -1.4640 C   0  0  0  0  0  0  0  0  0  0  0  0
   -6.2870   -0.0450   -2.1750 C   0  0  0  0  0  0  0  0  0  0  0  0
   -7.4460   -0.2590   -1.9010 N   0  0  0  0  0  0  0  0  0  0  0  0
   -2.5360   -0.8470   -0.0690 C   0  0  0  0  0  0  0  0  0  0  0  0
   -2.1460   -0.6080   -1.3060 N   0  0  0  0  0  0  0  0  0  0  0  0
   -0.8310   -0.2910   -1.2720 C   0  0  0  0  0  0  0  0  0  0  0  0
   -0.0570    0.0330   -2.4780 C   0  0  0  0  0  0  0  0  0  0  0  0
   -0.3690   -0.3280    0.0100 C   0  0  0  0  0  0  0  0  0  0  0  0
    0.9460   -0.0720    0.6030 C   0  0  0  0  0  0  0  0  0  0  0  0
    1.0750   -0.1820    1.8750 O   0  0  0  0  0  0  0  0  0  0  0  0
    2.0920    0.2870   -0.1010 N   0  0  0  0  0  0  0  0  0  0  0  0
    3.4020    0.5530    0.4450 C   0  0  0  0  0  0  0  0  0  0  0  0
    3.7430    0.5020    1.7540 C   0  0  0  0  0  0  0  0  0  0  0  0
    5.0270    0.7760    2.1810 C   0  0  0  0  0  0  0  0  0  0  0  0
    5.9720    1.1060    1.2480 C   0  0  0  0  0  0  0  0  0  0  0  0
    7.3040    1.3980    1.6330 N   0  0  0  0  0  0  0  0  0  0  0  0
    5.6350    1.1610   -0.0870 C   0  0  0  0  0  0  0  0  0  0  0  0
    6.6900    1.5280   -1.1020 C   0  0  0  0  0  0  0  0  0  0  0  0
    4.3890    0.8890   -0.4440 N   0  0  0  0  0  0  0  0  0  0  0  0
   -1.4430   -0.6750    0.7460 N   0  0  0  0  0  0  0  0  0  0  0  0
  1  2  2  0
  2  3  1  0
  2  8  1  0
  3  4  1  0
  3  5  2  3
  5  6  1  0
  6  7  2  0
  8  9  2  0
  8 24  1  0
  9 10  1  0
 10 11  1  0
 10 12  2  0
 12 13  1  0
 12 24  1  0
 13 14  2  0
 13 15  1  0
 15 16  1  0
 16 17  2  0
 16 23  1  0
 17 18  1  0
 18 19  2  0
 19 20  1  0
 19 21  1  0
 21 22  1  0
 21 23  2  0
M  END
