
     RDKit          3D

 24 25  0  0  0  0  0  0  0  0999 V2000
    4.8670   -0.9120    0.9790 C   0  0  0  0  0  0  0  0  0  0  0  0
    3.5580   -1.1450    1.7010 C   0  0  0  0  0  0  0  0  0  0  0  0
    2.7430   -2.2310    1.0420 C   0  0  0  0  0  0  0  0  0  0  0  0
    2.3810   -1.9430   -0.3780 C   0  0  0  0  0  0  0  0  0  0  0  0
    1.5720   -0.7220   -0.5590 C   0  0  0  0  0  0  0  0  0  0  0  0
    2.1200    0.1910   -1.3400 C   0  0  0  0  0  0  0  0  0  0  0  0
    3.3940   -0.0590   -1.9250 N   0  0  0  0  0  0  0  0  0  0  0  0
    1.4920    1.4900   -1.6630 C   0  0  0  0  0  0  0  0  0  0  0  0
    2.4890    2.4550   -2.2300 C   0  0  0  0  0  0  0  0  0  0  0  0
    0.2920    1.8620   -1.5220 N   0  0  0  0  0  0  0  0  0  0  0  0
   -0.8490    1.1260   -0.9940 C   0  0  0  0  0  0  0  0  0  0  0  0
   -2.0860    1.6910   -1.3760 N   0  0  0  0  0  0  0  0  0  0  0  0
   -2.1510    3.0750   -1.5990 N   0  0  0  0  0  0  0  0  0  0  0  0
   -1.7610    4.0530   -0.6580 C   0  0  0  0  0  0  0  0  0  0  0  0
   -1.8540    5.4260   -0.9630 N   0  0  0  0  0  0  0  0  0  0  0  0
   -1.3280    3.6870    0.4580 O   0  0  0  0  0  0  0  0  0  0  0  0
   -0.8820    0.0250   -0.2700 C   0  0  0  0  0  0  0  0  0  0  0  0
   -2.1470   -0.5510    0.1670 C   0  0  2  0  0  0  0  0  0  0  0  0
   -2.1580   -0.7670    1.6950 C   0  0  0  0  0  0  0  0  0  0  0  0
   -3.5860   -1.0970    2.0690 C   0  0  0  0  0  0  0  0  0  0  0  0
   -4.4220   -1.5690    0.9200 C   0  0  0  0  0  0  0  0  0  0  0  0
   -3.7140   -2.4400   -0.0600 C   0  0  0  0  0  0  0  0  0  0  0  0
   -2.3250   -1.9480   -0.4020 C   0  0  0  0  0  0  0  0  0  0  0  0
    0.3220   -0.6940    0.1170 N   0  0  0  0  0  0  0  0  0  0  0  0
  1  2  1  0
  2  3  1  0
  3  4  1  0
  4  5  1  0
  5  6  2  0
  5 24  1  0
  6  7  1  0
  6  8  1  0
  8  9  1  0
  8 10  2  0
 10 11  1  0
 11 12  1  0
 11 17  2  0
 12 13  1  0
 13 14  1  0
 14 15  1  0
 14 16  2  0
 18 17  1  6
 17 24  1  0
 18 19  1  0
 18 23  1  0
 19 20  1  0
 20 21  1  0
 21 22  1  0
 22 23  1  0
M  END
