
     RDKit          3D

 24 25  0  0  0  0  0  0  0  0999 V2000
   -0.3870   -3.3960   -1.8400 C   0  0  0  0  0  0  0  0  0  0  0  0
   -0.6340   -2.0920   -1.1570 C   0  0  0  0  0  0  0  0  0  0  0  0
    0.4320   -1.2620   -0.8170 C   0  0  0  0  0  0  0  0  0  0  0  0
    0.2050   -0.0680   -0.1920 C   0  0  0  0  0  0  0  0  0  0  0  0
    1.2640    0.8050    0.1520 N   0  0  0  0  0  0  0  0  0  0  0  0
    2.6010    0.7530   -0.2730 C   0  0  0  0  0  0  0  0  0  0  0  0
    2.9620   -0.1480   -1.0600 O   0  0  0  0  0  0  0  0  0  0  0  0
    3.5790    1.7040    0.1680 N   0  0  0  0  0  0  0  0  0  0  0  0
    4.9310    1.6100   -0.2900 C   0  0  0  0  0  0  0  0  0  0  0  0
    5.6330    0.3310    0.0620 C   0  0  1  0  0  0  0  0  0  0  0  0
    7.0480    0.4430   -0.5160 C   0  0  0  0  0  0  0  0  0  0  0  0
    5.8250    0.2140    1.5740 C   0  0  0  0  0  0  0  0  0  0  0  0
   -1.1090    0.2870    0.0890 C   0  0  0  0  0  0  0  0  0  0  0  0
   -2.1720   -0.5000   -0.2300 C   0  0  0  0  0  0  0  0  0  0  0  0
   -3.5550   -0.1440    0.0570 C   0  0  0  0  0  0  0  0  0  0  0  0
   -3.9140    1.0200    0.6770 C   0  0  0  0  0  0  0  0  0  0  0  0
   -5.2540    1.3210    0.9320 C   0  0  0  0  0  0  0  0  0  0  0  0
   -5.6340    2.5940    1.6090 C   0  0  0  0  0  0  0  0  0  0  0  0
   -6.2240    0.4220    0.5490 C   0  0  0  0  0  0  0  0  0  0  0  0
   -7.4930    0.6540    0.7650 N   0  0  0  0  0  0  0  0  0  0  0  0
   -5.8360   -0.7080   -0.0550 N   0  0  0  0  0  0  0  0  0  0  0  0
   -4.5630   -0.9740   -0.2880 N   0  0  0  0  0  0  0  0  0  0  0  0
   -1.9260   -1.7110   -0.8650 C   0  0  0  0  0  0  0  0  0  0  0  0
   -3.0240   -2.5500   -1.2080 N   0  0  0  0  0  0  0  0  0  0  0  0
  1  2  1  0
  2  3  2  0
  2 23  1  0
  3  4  1  0
  4  5  1  0
  4 13  2  0
  5  6  1  0
  6  7  2  0
  6  8  1  0
  8  9  1  0
  9 10  1  0
 10 11  1  6
 10 12  1  0
 13 14  1  0
 14 15  1  0
 14 23  2  0
 15 16  1  0
 15 22  2  0
 16 17  2  0
 17 18  1  0
 17 19  1  0
 19 20  2  0
 19 21  1  0
 21 22  1  0
 23 24  1  0
M  END
