
     RDKit          3D

 24 25  0  0  0  0  0  0  0  0999 V2000
    4.2870   -2.7770   -1.7020 C   0  0  0  0  0  0  0  0  0  0  0  0
    3.0590   -1.9600   -1.7780 C   0  0  0  0  0  0  0  0  0  0  0  0
    2.6750   -1.1690   -0.7500 C   0  0  0  0  0  0  0  0  0  0  0  0
    1.4760   -0.3860   -0.8530 C   0  0  0  0  0  0  0  0  0  0  0  0
    0.9890    0.4120    0.0510 C   0  0  0  0  0  0  0  0  0  0  0  0
    1.6960    0.5760    1.3370 C   0  0  0  0  0  0  0  0  0  0  0  0
    0.8210    0.2020    2.4610 N   0  0  0  0  0  0  0  0  0  0  0  0
   -0.3360    0.9920   -0.1280 C   0  0  0  0  0  0  0  0  0  0  0  0
   -0.6670    2.3270   -0.1100 C   0  0  0  0  0  0  0  0  0  0  0  0
    0.3330    3.4500   -0.0450 C   0  0  0  0  0  0  0  0  0  0  0  0
    1.5290    3.0750   -0.1480 N   0  0  0  0  0  0  0  0  0  0  0  0
    0.2120    4.6840    0.5700 N   0  0  0  0  0  0  0  0  0  0  0  0
   -0.6620    5.7490    0.4310 C   0  0  0  0  0  0  0  0  0  0  0  0
   -0.6450    6.8910    1.2220 N   0  0  0  0  0  0  0  0  0  0  0  0
   -1.4670    5.5630   -0.4930 O   0  0  0  0  0  0  0  0  0  0  0  0
   -1.9860    2.4040   -0.0940 N   0  0  0  0  0  0  0  0  0  0  0  0
   -2.4970    1.1980   -0.1050 C   0  0  0  0  0  0  0  0  0  0  0  0
   -1.4680    0.2920   -0.1260 N   0  0  0  0  0  0  0  0  0  0  0  0
   -1.7240   -1.0960   -0.1200 C   0  0  2  0  0  0  0  0  0  0  0  0
   -1.1250   -1.9340    0.9520 C   0  0  0  0  0  0  0  0  0  0  0  0
   -1.7080   -3.3190    0.8870 C   0  0  0  0  0  0  0  0  0  0  0  0
   -2.7200   -3.5740   -0.1660 C   0  0  0  0  0  0  0  0  0  0  0  0
   -2.4880   -2.9200   -1.4880 C   0  0  0  0  0  0  0  0  0  0  0  0
   -1.4610   -1.8040   -1.4230 C   0  0  0  0  0  0  0  0  0  0  0  0
  1  2  1  0
  2  3  2  3
  3  4  1  0
  4  5  2  3
  5  6  1  0
  5  8  1  0
  6  7  1  0
  8  9  2  0
  8 18  1  0
  9 10  1  0
  9 16  1  0
 10 11  2  0
 10 12  1  0
 12 13  1  0
 13 14  1  0
 13 15  2  0
 16 17  2  0
 17 18  1  0
 19 18  1  6
 19 20  1  0
 19 24  1  0
 20 21  1  0
 21 22  1  0
 22 23  1  0
 23 24  1  0
M  END
