
     RDKit          3D

 10  9  0  0  0  0  0  0  0  0999 V2000
   -1.7080   -2.0110    0.3850 N   0  0  0  0  0  0  0  0  0  0  0  0
   -0.9920   -1.2910   -0.3940 C   0  0  0  0  0  0  0  0  0  0  0  0
   -0.2470   -1.9490   -1.8570 Cl  0  0  0  0  0  0  0  0  0  0  0  0
   -0.7430    0.1120   -0.1290 C   0  0  0  0  0  0  0  0  0  0  0  0
    0.4190    0.5090    0.2790 C   0  0  0  0  0  0  0  0  0  0  0  0
    1.6480    0.8360    0.5650 C   0  0  0  0  0  0  0  0  0  0  0  0
    2.8960    1.1290    0.6400 C   0  0  0  0  0  0  0  0  0  0  0  0
    4.1310    1.0570    0.6440 O   0  0  0  0  0  0  0  0  0  0  0  0
   -2.0770    1.2620   -0.3820 S   0  0  0  0  0  0  0  0  0  0  0  0
   -1.4620    3.3660    0.0890 Br  0  0  0  0  0  0  0  0  0  0  0  0
  1  2  2  0
  2  3  1  0
  2  4  1  0
  4  5  2  0
  4  9  1  0
  5  6  2  0
  6  7  2  0
  7  8  2  0
  9 10  1  0
M  END
