
     RDKit          3D

 36 39  0  0  0  0  0  0  0  0999 V2000
   -6.1660   -3.8180    1.6920 C   0  0  0  0  0  0  0  0  0  0  0  0
   -5.4410   -2.6320    1.2040 N   0  0  0  0  0  0  0  0  0  0  0  0
   -5.7230   -2.0820   -0.0530 C   0  0  0  0  0  0  0  0  0  0  0  0
   -6.5330   -2.8520   -0.8970 C   0  0  0  0  0  0  0  0  0  0  0  0
   -6.8680   -2.4510   -2.1730 C   0  0  0  0  0  0  0  0  0  0  0  0
   -6.3690   -1.2360   -2.6170 C   0  0  0  0  0  0  0  0  0  0  0  0
   -5.5560   -0.4400   -1.8010 C   0  0  0  0  0  0  0  0  0  0  0  0
   -5.2460   -0.8740   -0.5260 C   0  0  0  0  0  0  0  0  0  0  0  0
   -4.3770   -0.0520    0.3250 C   0  0  2  0  0  0  0  0  0  0  0  0
   -4.5240    1.4060    0.3100 C   0  0  0  0  0  0  0  0  0  0  0  0
   -4.4350    2.3330   -0.7620 C   0  0  0  0  0  0  0  0  0  0  0  0
   -5.5360    2.7570   -1.5210 C   0  0  0  0  0  0  0  0  0  0  0  0
   -5.1210    3.6770   -2.4360 C   0  0  0  0  0  0  0  0  0  0  0  0
   -3.7980    3.8440   -2.2760 C   0  0  0  0  0  0  0  0  0  0  0  0
   -3.4130    3.0330   -1.2720 N   0  0  0  0  0  0  0  0  0  0  0  0
   -2.9840   -0.5130    0.3510 N   0  0  0  0  0  0  0  0  0  0  0  0
   -2.1360   -0.0570   -0.6840 C   0  0  0  0  0  0  0  0  0  0  0  0
   -0.9810    0.7310   -0.1390 C   0  0  0  0  0  0  0  0  0  0  0  0
   -0.1450    0.0070    0.7120 O   0  0  0  0  0  0  0  0  0  0  0  0
    0.8580    0.8370    1.2200 C   0  0  1  0  0  0  0  0  0  0  0  0
    0.5070    0.9900    2.7320 C   0  0  0  0  0  0  0  0  0  0  0  0
    0.3840   -0.3610    3.3540 C   0  0  0  0  0  0  0  0  0  0  0  0
    0.7420   -1.5160    2.4910 C   0  0  0  0  0  0  0  0  0  0  0  0
    1.9670   -1.2710    1.6350 C   0  0  0  0  0  0  0  0  0  0  0  0
    2.1650    0.1530    1.2410 C   0  0  1  0  0  0  0  0  0  0  0  0
    3.0230    0.2820   -0.0070 C   0  0  0  0  0  0  0  0  0  0  0  0
    4.2630   -0.4000    0.1370 N   0  0  1  0  0  0  0  0  0  0  0  0
    4.4230   -1.6330   -0.5510 C   0  0  0  0  0  0  0  0  0  0  0  0
    3.6420   -1.8430   -1.7960 C   0  0  0  0  0  0  0  0  0  0  0  0
    3.9920   -3.1350   -2.2710 O   0  0  0  0  0  0  0  0  0  0  0  0
    5.4550    0.4290    0.0260 C   0  0  1  0  0  0  0  0  0  0  0  0
    5.9070    0.7170   -1.3620 C   0  0  0  0  0  0  0  0  0  0  0  0
    7.4120    1.0490   -1.2460 C   0  0  0  0  0  0  0  0  0  0  0  0
    7.6930    1.9110   -0.0550 C   0  0  0  0  0  0  0  0  0  0  0  0
    6.4930    2.5960    0.5140 C   0  0  0  0  0  0  0  0  0  0  0  0
    5.4430    1.6120    0.9310 C   0  0  0  0  0  0  0  0  0  0  0  0
  1  2  1  0
  2  3  1  0
  3  4  2  0
  3  8  1  0
  4  5  1  0
  5  6  2  0
  6  7  1  0
  7  8  2  0
  8  9  1  0
  9 10  1  6
  9 16  1  0
 10 11  1  0
 11 12  2  0
 11 15  1  0
 12 13  1  0
 13 14  2  0
 14 15  1  0
 16 17  1  0
 17 18  1  0
 18 19  1  0
 20 19  1  6
 20 21  1  0
 20 25  1  0
 21 22  1  0
 22 23  1  0
 23 24  1  0
 24 25  1  0
 25 26  1  6
 27 26  1  6
 27 28  1  0
 27 31  1  0
 28 29  1  0
 29 30  1  0
 31 32  1  6
 31 36  1  0
 32 33  1  0
 33 34  1  0
 34 35  1  0
 35 36  1  0
M  CHG  2  16   1  27   1
M  END
