
     RDKit          3D

 37 41  0  0  0  0  0  0  0  0999 V2000
    0.6190   -4.9330    4.0590 C   0  0  0  0  0  0  0  0  0  0  0  0
    0.7020   -3.7280    3.3980 O   0  0  0  0  0  0  0  0  0  0  0  0
   -0.3010   -3.1900    2.6320 C   0  0  0  0  0  0  0  0  0  0  0  0
   -1.5320   -3.7740    2.4120 C   0  0  0  0  0  0  0  0  0  0  0  0
   -2.4880   -3.1940    1.6430 C   0  0  0  0  0  0  0  0  0  0  0  0
   -2.2100   -1.9340    1.0400 C   0  0  0  0  0  0  0  0  0  0  0  0
   -3.1990   -1.3970    0.2790 O   0  0  0  0  0  0  0  0  0  0  0  0
   -3.3170   -0.9940   -0.9950 C   0  0  0  0  0  0  0  0  0  0  0  0
   -3.5340    0.3080   -1.3800 C   0  0  0  0  0  0  0  0  0  0  0  0
   -3.6740    1.3580   -0.3960 C   0  0  0  0  0  0  0  0  0  0  0  0
   -2.7310    2.3350   -0.1970 C   0  0  0  0  0  0  0  0  0  0  0  0
   -2.9140    3.3120    0.7680 C   0  0  0  0  0  0  0  0  0  0  0  0
   -4.0660    3.2960    1.5380 C   0  0  0  0  0  0  0  0  0  0  0  0
   -5.0160    2.3400    1.3610 C   0  0  0  0  0  0  0  0  0  0  0  0
   -4.8060    1.3820    0.3930 C   0  0  0  0  0  0  0  0  0  0  0  0
   -3.6340    0.5920   -2.7240 C   0  0  0  0  0  0  0  0  0  0  0  0
   -3.8350    1.7760   -3.1550 O   0  0  0  0  0  0  0  0  0  0  0  0
   -3.5260   -0.3680   -3.6730 N   0  0  0  0  0  0  0  0  0  0  0  0
   -3.3170   -1.6260   -3.3000 N   0  0  0  0  0  0  0  0  0  0  0  0
   -3.2090   -1.9740   -2.0120 C   0  0  0  0  0  0  0  0  0  0  0  0
   -3.0120   -3.1770   -1.7240 O   0  0  0  0  0  0  0  0  0  0  0  0
   -0.9980   -1.3080    1.2270 C   0  0  0  0  0  0  0  0  0  0  0  0
   -0.7230   -0.0750    0.6400 O   0  0  0  0  0  0  0  0  0  0  0  0
    0.4730    0.6020    0.8310 C   0  0  2  0  0  0  0  0  0  0  0  0
    0.3500    2.0810    1.0840 C   0  0  0  0  0  0  0  0  0  0  0  0
    1.4580    0.3490   -0.2940 C   0  0  0  0  0  0  0  0  0  0  0  0
    1.1620   -0.4120   -1.2380 O   0  0  0  0  0  0  0  0  0  0  0  0
    2.7160    0.9950   -0.2390 N   0  0  0  0  0  0  0  0  0  0  0  0
    3.7300    0.8060   -1.2200 C   0  0  0  0  0  0  0  0  0  0  0  0
    3.6130   -0.0050   -2.2580 N   0  0  0  0  0  0  0  0  0  0  0  0
    4.6150   -0.1690   -3.1590 C   0  0  0  0  0  0  0  0  0  0  0  0
    5.8130    0.5090   -3.0330 C   0  0  0  0  0  0  0  0  0  0  0  0
    5.9700    1.3750   -1.9480 C   0  0  0  0  0  0  0  0  0  0  0  0
    4.9140    1.4940   -1.0720 C   0  0  0  0  0  0  0  0  0  0  0  0
    5.7340    2.4730   -0.2910 C   0  0  0  0  0  0  0  0  0  0  0  0
    6.8800    2.3150   -1.2530 C   0  0  0  0  0  0  0  0  0  0  0  0
   -0.0710   -1.9480    2.0170 C   0  0  0  0  0  0  0  0  0  0  0  0
  1  2  1  0
  2  3  1  0
  3  4  2  0
  3 37  1  0
  4  5  1  0
  5  6  2  0
  6  7  1  0
  6 22  1  0
  7  8  1  0
  8  9  2  0
  8 20  1  0
  9 10  1  0
  9 16  1  0
 10 11  2  0
 10 15  1  0
 11 12  1  0
 12 13  2  0
 13 14  1  0
 14 15  2  0
 16 17  2  0
 16 18  1  0
 18 19  1  0
 19 20  1  0
 20 21  2  0
 22 23  1  0
 22 37  2  0
 23 24  1  0
 24 25  1  6
 24 26  1  0
 26 27  2  0
 26 28  1  0
 28 29  1  0
 29 30  2  0
 29 34  1  0
 30 31  1  0
 31 32  2  0
 32 33  1  0
 33 34  2  0
 33 36  1  0
 34 35  1  0
 35 36  1  0
M  END
