
     RDKit          3D

 39 43  0  0  0  0  0  0  0  0999 V2000
    2.3810   -4.4920   -2.2050 C   0  0  0  0  0  0  0  0  0  0  0  0
    2.6250   -3.3070   -1.5070 O   0  0  0  0  0  0  0  0  0  0  0  0
    1.5930   -2.4530   -1.1710 C   0  0  0  0  0  0  0  0  0  0  0  0
    0.2840   -2.7000   -1.4930 C   0  0  0  0  0  0  0  0  0  0  0  0
   -0.7200   -1.8240   -1.1430 C   0  0  0  0  0  0  0  0  0  0  0  0
   -0.4220   -0.6450   -0.4400 C   0  0  0  0  0  0  0  0  0  0  0  0
   -1.4960    0.2340    0.0000 C   0  0  0  0  0  0  0  0  0  0  0  0
   -2.7180   -0.2510   -0.0100 N   0  0  0  0  0  0  0  0  0  0  0  0
   -3.8160    0.4670    0.3910 N   0  0  0  0  0  0  0  0  0  0  0  0
   -5.1510   -0.1120    0.3630 C   0  0  2  0  0  0  0  0  0  0  0  0
   -6.1310    0.6260   -0.4710 C   0  0  0  0  0  0  0  0  0  0  0  0
   -7.4950    0.7750    0.1130 C   0  0  0  0  0  0  0  0  0  0  0  0
   -8.2020   -0.5410    0.2300 C   0  0  0  0  0  0  0  0  0  0  0  0
   -7.4070   -1.6600    0.7960 C   0  0  0  0  0  0  0  0  0  0  0  0
   -6.5970   -1.3130    2.0200 C   0  0  0  0  0  0  0  0  0  0  0  0
   -5.6190   -0.2150    1.8000 C   0  0  0  0  0  0  0  0  0  0  0  0
   -3.6100    1.7920    0.8410 C   0  0  0  0  0  0  0  0  0  0  0  0
   -4.4140    2.3020    1.6760 O   0  0  0  0  0  0  0  0  0  0  0  0
   -2.4520    2.5050    0.3000 C   0  0  2  0  0  0  0  0  0  0  0  0
   -2.7620    2.9760   -1.1210 C   0  0  0  0  0  0  0  0  0  0  0  0
   -1.6340    3.8900   -1.5180 C   0  0  0  0  0  0  0  0  0  0  0  0
   -0.4250    3.5080   -1.1940 C   0  0  0  0  0  0  0  0  0  0  0  0
   -0.1120    2.2670   -0.4830 C   0  0  0  0  0  0  0  0  0  0  0  0
   -1.1970    1.6650    0.3240 C   0  0  2  0  0  0  0  0  0  0  0  0
    0.8790   -0.4370   -0.1380 C   0  0  0  0  0  0  0  0  0  0  0  0
    1.9180   -1.2930   -0.4730 C   0  0  0  0  0  0  0  0  0  0  0  0
    3.3060   -1.0410   -0.1320 C   0  0  0  0  0  0  0  0  0  0  0  0
    3.6710   -0.5960    1.1460 C   0  0  0  0  0  0  0  0  0  0  0  0
    4.9830   -0.3570    1.4600 C   0  0  0  0  0  0  0  0  0  0  0  0
    6.0030   -0.5360    0.5540 C   0  0  0  0  0  0  0  0  0  0  0  0
    7.3810   -0.2540    0.9660 C   0  0  0  0  0  0  0  0  0  0  0  0
    7.6250    0.1660    2.1420 O   0  0  0  0  0  0  0  0  0  0  0  0
    8.4950   -0.4270    0.1050 N   0  0  0  0  0  0  0  0  0  0  0  0
    9.8180   -0.1360    0.5590 C   0  0  0  0  0  0  0  0  0  0  0  0
    9.9520    1.2790    0.9550 C   0  0  0  0  0  0  0  0  0  0  0  0
    8.8440    2.1530    0.8530 N   0  0  0  0  0  0  0  0  0  0  0  0
   11.0620    1.6840    1.3790 O   0  0  0  0  0  0  0  0  0  0  0  0
    5.6710   -0.9720   -0.7080 C   0  0  0  0  0  0  0  0  0  0  0  0
    4.3350   -1.2170   -1.0310 C   0  0  0  0  0  0  0  0  0  0  0  0
  1  2  1  0
  2  3  1  0
  3  4  2  0
  3 26  1  0
  4  5  1  0
  5  6  2  0
  6  7  1  0
  6 25  1  0
  7  8  2  0
  7 24  1  0
  8  9  1  0
 10  9  1  1
  9 17  1  0
 10 11  1  0
 10 16  1  0
 11 12  1  0
 12 13  1  0
 13 14  1  0
 14 15  1  0
 15 16  1  0
 17 18  2  0
 17 19  1  0
 19 20  1  6
 19 24  1  0
 20 21  1  0
 21 22  2  0
 22 23  1  0
 24 23  1  6
 25 26  2  0
 26 27  1  0
 27 28  2  0
 27 39  1  0
 28 29  1  0
 29 30  2  0
 30 31  1  0
 30 38  1  0
 31 32  2  0
 31 33  1  0
 33 34  1  0
 34 35  1  0
 35 36  1  0
 35 37  2  0
 38 39  2  0
M  END
