
     RDKit          3D

 36 39  0  0  0  0  0  0  0  0999 V2000
   11.4870    2.3480    0.0340 C   0  0  0  0  0  0  0  0  0  0  0  0
   10.9730    1.0220   -0.2070 N   0  0  0  0  0  0  0  0  0  0  0  0
    9.5650    1.1220   -0.5170 C   0  0  0  0  0  0  0  0  0  0  0  0
    8.7910    0.1210    0.2980 C   0  0  0  0  0  0  0  0  0  0  0  0
    7.3080    0.2660   -0.0670 C   0  0  0  0  0  0  0  0  0  0  0  0
    6.5040   -0.7240    0.7330 C   0  0  0  0  0  0  0  0  0  0  0  0
    5.0610   -0.6210    0.3870 C   0  0  0  0  0  0  0  0  0  0  0  0
    4.5340    0.7400    0.6840 C   0  0  0  0  0  0  0  0  0  0  0  0
    3.0510    0.8710    0.3650 C   0  0  0  0  0  0  0  0  0  0  0  0
    2.7480    0.6170   -1.0680 C   0  0  0  0  0  0  0  0  0  0  0  0
    1.4170    0.7200   -1.3760 O   0  0  0  0  0  0  0  0  0  0  0  0
    0.3310   -0.0010   -0.9830 C   0  0  0  0  0  0  0  0  0  0  0  0
    0.3590   -1.1070   -0.1310 C   0  0  0  0  0  0  0  0  0  0  0  0
   -0.8070   -1.7620    0.2080 C   0  0  0  0  0  0  0  0  0  0  0  0
   -1.9780   -1.2990   -0.3080 C   0  0  0  0  0  0  0  0  0  0  0  0
   -2.0610   -0.2040   -1.1630 C   0  0  0  0  0  0  0  0  0  0  0  0
   -0.8990    0.4400   -1.4940 C   0  0  0  0  0  0  0  0  0  0  0  0
   -3.1860    0.4520   -1.8720 C   0  0  1  0  0  0  0  0  0  0  0  0
   -2.9700    0.3390   -3.2510 O   0  0  0  0  0  0  0  0  0  0  0  0
   -4.5080   -0.1060   -1.5120 C   0  0  1  0  0  0  0  0  0  0  0  0
   -4.9490    0.1720   -0.1820 N   0  0  0  0  0  0  0  0  0  0  0  0
   -5.1350    1.5590    0.0850 C   0  0  0  0  0  0  0  0  0  0  0  0
   -5.6120    1.8230    1.5010 C   0  0  2  0  0  0  0  0  0  0  0  0
   -5.7680    3.3210    1.6560 C   0  0  0  0  0  0  0  0  0  0  0  0
   -4.6580    1.3370    2.5420 C   0  0  0  0  0  0  0  0  0  0  0  0
   -6.9690    1.1980    1.7530 C   0  0  0  0  0  0  0  0  0  0  0  0
   -5.6150    0.0970   -2.5270 C   0  0  0  0  0  0  0  0  0  0  0  0
   -6.0640   -1.3190   -2.1820 C   0  0  0  0  0  0  0  0  0  0  0  0
   -4.6470   -1.6110   -1.8540 C   0  0  2  0  0  0  0  0  0  0  0  0
   -4.3580   -2.2640   -0.5500 C   0  0  0  0  0  0  0  0  0  0  0  0
   -5.3180   -3.0120   -0.0300 N   0  0  0  0  0  0  0  0  0  0  0  0
   -5.1050   -3.5750    1.1790 C   0  0  0  0  0  0  0  0  0  0  0  0
   -6.1440   -4.3740    1.7210 N   0  0  0  0  0  0  0  0  0  0  0  0
   -3.9320   -3.4040    1.8970 C   0  0  0  0  0  0  0  0  0  0  0  0
   -2.9140   -2.6160    1.3560 C   0  0  0  0  0  0  0  0  0  0  0  0
   -3.1450   -2.0580    0.1330 C   0  0  0  0  0  0  0  0  0  0  0  0
  1  2  1  0
  2  3  1  0
  3  4  1  0
  4  5  1  0
  5  6  1  0
  6  7  1  0
  7  8  1  0
  8  9  1  0
  9 10  1  0
 10 11  1  0
 11 12  1  0
 12 13  2  0
 12 17  1  0
 13 14  1  0
 14 15  2  0
 15 16  1  0
 15 36  1  0
 16 17  2  0
 16 18  1  0
 18 19  1  6
 18 20  1  0
 20 21  1  1
 20 27  1  0
 20 29  1  0
 21 22  1  0
 22 23  1  0
 23 24  1  6
 23 25  1  0
 23 26  1  0
 27 28  1  0
 29 28  1  1
 29 30  1  0
 30 31  2  0
 30 36  1  0
 31 32  1  0
 32 33  1  0
 32 34  2  0
 34 35  1  0
 35 36  2  0
M  CHG  2   2   1  31   1
M  END
