
     RDKit          3D

 36 38  0  0  0  0  0  0  0  0999 V2000
   -5.6960   -3.9630    1.2110 C   0  0  0  0  0  0  0  0  0  0  0  0
   -5.4140   -2.8130    0.1920 C   0  0  0  0  0  0  0  0  0  0  0  0
   -4.5180   -1.8260    0.8010 C   0  0  0  0  0  0  0  0  0  0  0  0
   -4.0930   -0.5920    0.1370 C   0  0  2  0  0  0  0  0  0  0  0  0
   -5.3860    0.2040   -0.2080 C   0  0  0  0  0  0  0  0  0  0  0  0
   -6.1340    0.5540    0.9460 N   0  0  0  0  0  0  0  0  0  0  0  0
   -3.1230   -0.5080   -0.8530 N   0  0  0  0  0  0  0  0  0  0  0  0
   -3.2500   -0.9280   -2.1680 C   0  0  0  0  0  0  0  0  0  0  0  0
   -3.3510   -2.3050   -2.6340 C   0  0  0  0  0  0  0  0  0  0  0  0
   -2.2790   -3.2120   -2.2820 N   0  0  0  0  0  0  0  0  0  0  0  0
   -1.7750   -0.5320   -0.3770 C   0  0  0  0  0  0  0  0  0  0  0  0
   -1.0240    0.5750    0.0980 C   0  0  0  0  0  0  0  0  0  0  0  0
    0.2800    0.2640    0.6020 C   0  0  0  0  0  0  0  0  0  0  0  0
    0.6870   -1.1270    0.7150 C   0  0  0  0  0  0  0  0  0  0  0  0
    2.1340   -1.2560    1.1110 C   0  0  0  0  0  0  0  0  0  0  0  0
    2.9910   -0.6730    0.1590 O   0  0  0  0  0  0  0  0  0  0  0  0
    4.3490   -0.6040    0.2360 C   0  0  0  0  0  0  0  0  0  0  0  0
    5.0030   -1.1240    1.3230 C   0  0  0  0  0  0  0  0  0  0  0  0
    6.3750   -1.0480    1.3890 C   0  0  0  0  0  0  0  0  0  0  0  0
    7.0830   -0.4510    0.3670 C   0  0  0  0  0  0  0  0  0  0  0  0
    8.5460   -0.3620    0.4460 C   0  0  2  0  0  0  0  0  0  0  0  0
    8.9940    1.0100    0.0500 C   0  0  0  0  0  0  0  0  0  0  0  0
    9.0990   -1.3330   -0.5900 C   0  0  0  0  0  0  0  0  0  0  0  0
    6.4080    0.0650   -0.7160 C   0  0  0  0  0  0  0  0  0  0  0  0
    5.0320   -0.0090   -0.7880 C   0  0  0  0  0  0  0  0  0  0  0  0
    1.1350    1.2430    0.9920 C   0  0  0  0  0  0  0  0  0  0  0  0
    0.8190    2.5640    0.9310 C   0  0  0  0  0  0  0  0  0  0  0  0
    1.6960    3.5570    1.3250 C   0  0  0  0  0  0  0  0  0  0  0  0
    1.3660    4.9150    1.2570 C   0  0  0  0  0  0  0  0  0  0  0  0
    0.1010    5.1820    0.7680 C   0  0  0  0  0  0  0  0  0  0  0  0
   -0.7630    4.2280    0.3810 N   0  0  0  0  0  0  0  0  0  0  0  0
   -0.4060    2.9110    0.4620 C   0  0  0  0  0  0  0  0  0  0  0  0
   -1.3060    1.9080    0.0540 C   0  0  0  0  0  0  0  0  0  0  0  0
   -2.6140    2.3810   -0.4100 C   0  0  0  0  0  0  0  0  0  0  0  0
   -2.6530    3.7900   -0.4550 O   0  0  0  0  0  0  0  0  0  0  0  0
   -3.9120    4.2130   -0.8940 C   0  0  0  0  0  0  0  0  0  0  0  0
  1  2  1  0
  2  3  1  0
  4  3  1  6
  4  5  1  0
  4  7  1  0
  5  6  1  0
  7  8  1  0
  7 11  1  0
  8  9  1  0
  9 10  1  0
 11 12  1  0
 12 13  2  0
 12 33  1  0
 13 14  1  0
 13 26  1  0
 14 15  1  0
 15 16  1  0
 16 17  1  0
 17 18  2  0
 17 25  1  0
 18 19  1  0
 19 20  2  0
 20 21  1  0
 20 24  1  0
 21 22  1  6
 21 23  1  0
 24 25  2  0
 26 27  2  0
 27 28  1  0
 27 32  1  0
 28 29  2  0
 29 30  1  0
 30 31  2  0
 31 32  1  0
 32 33  2  0
 33 34  1  0
 34 35  1  0
 35 36  1  0
M  CHG  2   6   1  10   1
M  END
