
     RDKit          3D

 20 23  0  0  0  0  0  0  0  0999 V2000
   -3.0630   -0.6160    1.4030 C   0  0  0  0  0  0  0  0  0  0  0  0
   -2.4320   -0.6760   -0.0370 C   0  0  2  0  0  0  0  0  0  0  0  0
   -1.5950   -1.8470   -0.1080 C   0  0  0  0  0  0  0  0  0  0  0  0
   -0.2770   -1.7370   -0.1220 C   0  0  0  0  0  0  0  0  0  0  0  0
    0.4220   -0.4780   -0.1000 C   0  0  0  0  0  0  0  0  0  0  0  0
   -0.2920    0.7120   -0.1040 C   0  0  0  0  0  0  0  0  0  0  0  0
    0.2850    1.9430   -0.0700 C   0  0  0  0  0  0  0  0  0  0  0  0
    1.6510    2.0620   -0.0300 C   0  0  0  0  0  0  0  0  0  0  0  0
    2.3910    0.9180   -0.0240 C   0  0  0  0  0  0  0  0  0  0  0  0
    3.7620    1.0130    0.0160 C   0  0  0  0  0  0  0  0  0  0  0  0
    4.5430   -0.1060    0.0230 C   0  0  0  0  0  0  0  0  0  0  0  0
    5.9440   -0.0360    0.0640 O   0  0  0  0  0  0  0  0  0  0  0  0
    3.9580   -1.3420   -0.0110 C   0  0  0  0  0  0  0  0  0  0  0  0
    2.5840   -1.4850   -0.0520 C   0  0  0  0  0  0  0  0  0  0  0  0
    1.8030   -0.3570   -0.0590 C   0  0  0  0  0  0  0  0  0  0  0  0
   -1.7390    0.6160   -0.1640 C   0  0  0  0  0  0  0  0  0  0  0  0
   -2.6640    1.5540   -0.4470 C   0  0  0  0  0  0  0  0  0  0  0  0
   -4.0260    0.9000   -0.5340 C   0  0  0  0  0  0  0  0  0  0  0  0
   -3.5560   -0.5110   -0.9610 C   0  0  0  0  0  0  0  0  0  0  0  0
   -4.0630   -1.1680   -1.8210 O   0  0  0  0  0  0  0  0  0  0  0  0
  2  1  1  1
  2  3  1  0
  2 16  1  0
  2 19  1  0
  3  4  2  0
  4  5  1  0
  5  6  2  0
  5 15  1  0
  6  7  1  0
  6 16  1  0
  7  8  2  0
  8  9  1  0
  9 10  2  0
  9 15  1  0
 10 11  1  0
 11 12  1  0
 11 13  2  0
 13 14  1  0
 14 15  2  0
 16 17  2  0
 17 18  1  0
 18 19  1  0
 19 20  2  0
M  END
