
     RDKit          3D

 20 22  0  0  0  0  0  0  0  0999 V2000
   -4.2240   -2.3660   -0.0300 C   0  0  0  0  0  0  0  0  0  0  0  0
   -4.0630   -0.8730    0.1260 C   0  0  2  0  0  0  0  0  0  0  0  0
   -2.8390   -0.5360    0.9590 C   0  0  0  0  0  0  0  0  0  0  0  0
   -2.1050    0.5590    0.2760 C   0  0  1  0  0  0  0  0  0  0  0  0
   -1.0900   -0.0420   -0.4760 O   0  0  0  0  0  0  0  0  0  0  0  0
    0.1750    0.2800   -0.0310 C   0  0  2  0  0  0  0  0  0  0  0  0
    0.9460    0.8130   -1.2160 C   0  0  0  0  0  0  0  0  0  0  0  0
    2.4100    0.6890   -1.0490 C   0  0  0  0  0  0  0  0  0  0  0  0
    3.0090    0.0060   -0.1030 C   0  0  0  0  0  0  0  0  0  0  0  0
    4.4650   -0.0480   -0.0340 C   0  0  0  0  0  0  0  0  0  0  0  0
    5.1950   -0.6840    0.8450 C   0  0  0  0  0  0  0  0  0  0  0  0
    6.6400   -0.4900    0.5710 C   0  0  0  0  0  0  0  0  0  0  0  0
    6.6430    0.3690   -0.6210 C   0  0  0  0  0  0  0  0  0  0  0  0
    5.3840    0.6030   -0.9410 C   0  0  0  0  0  0  0  0  0  0  0  0
    2.2020   -0.7240    0.9130 C   0  0  0  0  0  0  0  0  0  0  0  0
    0.8360   -1.0380    0.3920 C   0  0  0  0  0  0  0  0  0  0  0  0
   -2.8990    1.4170   -0.6330 C   0  0  0  0  0  0  0  0  0  0  0  0
   -4.2990    1.6790   -0.3260 C   0  0  0  0  0  0  0  0  0  0  0  0
   -4.8630    1.0670    0.9200 C   0  0  0  0  0  0  0  0  0  0  0  0
   -5.1470   -0.2950    0.7750 O   0  0  0  0  0  0  0  0  0  0  0  0
  2  1  1  1
  2  3  1  0
  2 20  1  0
  3  4  1  0
  4  5  1  6
  4 17  1  0
  6  5  1  6
  6  7  1  0
  6 16  1  0
  7  8  1  0
  8  9  2  0
  9 10  1  0
  9 15  1  0
 10 11  2  0
 10 14  1  0
 11 12  1  0
 12 13  1  0
 13 14  2  0
 15 16  1  0
 17 18  1  0
 18 19  1  0
 19 20  1  0
M  END
