
     RDKit          3D

 20 22  0  0  0  0  0  0  0  0999 V2000
   -3.0140   -0.7460    1.6800 C   0  0  0  0  0  0  0  0  0  0  0  0
   -3.0080    0.0550    0.6830 C   0  0  0  0  0  0  0  0  0  0  0  0
   -1.9270    0.5960   -0.0280 C   0  0  0  0  0  0  0  0  0  0  0  0
   -2.1030    1.5670   -0.9750 C   0  0  0  0  0  0  0  0  0  0  0  0
   -0.9520    2.1860   -1.7440 C   0  0  0  0  0  0  0  0  0  0  0  0
   -0.1420    2.9510   -0.7100 C   0  0  0  0  0  0  0  0  0  0  0  0
    0.8680    2.1420    0.0110 C   0  0  2  0  0  0  0  0  0  0  0  0
    2.1170    2.3150   -0.6260 O   0  0  0  0  0  0  0  0  0  0  0  0
    0.5820    0.7070    0.2100 C   0  0  0  0  0  0  0  0  0  0  0  0
    1.7410   -0.0410    0.4430 C   0  0  0  0  0  0  0  0  0  0  0  0
    1.7110   -1.4000    0.5460 C   0  0  0  0  0  0  0  0  0  0  0  0
    0.5220   -2.0820    0.4170 C   0  0  0  0  0  0  0  0  0  0  0  0
   -0.6740   -1.3570    0.1780 C   0  0  0  0  0  0  0  0  0  0  0  0
   -1.7790   -2.1940   -0.2140 C   0  0  0  0  0  0  0  0  0  0  0  0
   -2.6560   -1.8830   -1.3360 C   0  0  0  0  0  0  0  0  0  0  0  0
   -1.9840   -3.2470    0.4330 O   0  0  0  0  0  0  0  0  0  0  0  0
   -0.5860   -0.0040    0.0950 C   0  0  0  0  0  0  0  0  0  0  0  0
    3.0850   -1.9690    0.8030 C   0  0  0  0  0  0  0  0  0  0  0  0
    3.8000   -0.7250    1.3110 C   0  0  0  0  0  0  0  0  0  0  0  0
    3.1260    0.4270    0.6170 C   0  0  0  0  0  0  0  0  0  0  0  0
  1  2  2  0
  2  3  1  0
  3  4  2  0
  3 17  1  0
  4  5  1  0
  5  6  1  0
  6  7  1  0
  7  8  1  6
  7  9  1  0
  9 10  2  0
  9 17  1  0
 10 11  1  0
 10 20  1  0
 11 12  2  0
 11 18  1  0
 12 13  1  0
 13 14  1  0
 13 17  2  0
 14 15  1  0
 14 16  2  0
 18 19  1  0
 19 20  1  0
M  END
