
     RDKit          3D

 20 23  0  0  0  0  0  0  0  0999 V2000
   -4.0620    1.2730    1.7910 C   0  0  0  0  0  0  0  0  0  0  0  0
   -3.7130    1.4530    0.3160 C   0  0  2  0  0  0  0  0  0  0  0  0
   -4.7690    0.8660   -0.5370 C   0  0  0  0  0  0  0  0  0  0  0  0
   -3.8500   -0.2630   -0.8330 C   0  0  0  0  0  0  0  0  0  0  0  0
   -3.6360   -1.4290   -1.4440 C   0  0  0  0  0  0  0  0  0  0  0  0
   -2.3690   -2.1520   -1.3470 C   0  0  1  0  0  0  0  0  0  0  0  0
   -2.0460   -2.6660   -2.6070 O   0  0  0  0  0  0  0  0  0  0  0  0
   -1.2580   -1.3450   -0.7890 C   0  0  0  0  0  0  0  0  0  0  0  0
    0.0150   -1.7340   -0.9770 C   0  0  0  0  0  0  0  0  0  0  0  0
    1.1500   -0.9960   -0.4660 C   0  0  0  0  0  0  0  0  0  0  0  0
    1.4300    0.3470   -0.4470 C   0  0  0  0  0  0  0  0  0  0  0  0
    2.6600    0.5370    0.1660 C   0  0  0  0  0  0  0  0  0  0  0  0
    3.0780   -0.7290    0.4970 C   0  0  0  0  0  0  0  0  0  0  0  0
    2.1800   -1.5730    0.1150 O   0  0  0  0  0  0  0  0  0  0  0  0
    4.3840   -0.9760    1.1880 C   0  0  0  0  0  0  0  0  0  0  0  0
    5.3210    0.1550    0.7700 C   0  0  0  0  0  0  0  0  0  0  0  0
    4.6960    1.4360    1.2310 C   0  0  0  0  0  0  0  0  0  0  0  0
    3.4460    1.7370    0.4590 C   0  0  0  0  0  0  0  0  0  0  0  0
   -1.5680   -0.1520   -0.0360 C   0  0  0  0  0  0  0  0  0  0  0  0
   -2.8030    0.3750   -0.1200 C   0  0  0  0  0  0  0  0  0  0  0  0
  2  1  1  1
  2  3  1  0
  2 20  1  0
  3  4  1  0
  4  5  2  0
  4 20  1  0
  5  6  1  0
  6  7  1  6
  6  8  1  0
  8  9  2  3
  8 19  1  0
  9 10  1  0
 10 11  2  0
 10 14  1  0
 11 12  1  0
 12 13  2  0
 12 18  1  0
 13 14  1  0
 13 15  1  0
 15 16  1  0
 16 17  1  0
 17 18  1  0
 19 20  2  0
M  END
