
     RDKit          3D

 20 22  0  0  0  0  0  0  0  0999 V2000
   -2.7910    2.6000    1.6980 C   0  0  0  0  0  0  0  0  0  0  0  0
   -2.4860    1.2520    1.2500 C   0  0  0  0  0  0  0  0  0  0  0  0
   -3.3060    0.3670    1.7570 O   0  0  0  0  0  0  0  0  0  0  0  0
   -1.4330    0.7600    0.3460 C   0  0  0  0  0  0  0  0  0  0  0  0
   -0.4920    1.3990   -0.2920 C   0  0  0  0  0  0  0  0  0  0  0  0
   -0.2130    2.8470   -0.2880 C   0  0  0  0  0  0  0  0  0  0  0  0
    0.8740    3.3950   -1.1830 C   0  0  0  0  0  0  0  0  0  0  0  0
   -0.7640    3.7340    0.3600 O   0  0  0  0  0  0  0  0  0  0  0  0
    0.3230    0.4050   -1.0780 C   0  0  1  0  0  0  0  0  0  0  0  0
    1.6800    0.1820   -0.4230 C   0  0  0  0  0  0  0  0  0  0  0  0
    2.0040   -0.8670    0.3450 C   0  0  0  0  0  0  0  0  0  0  0  0
    3.3900   -0.7980    0.8230 C   0  0  0  0  0  0  0  0  0  0  0  0
    3.8740    0.4370    0.2040 C   0  0  0  0  0  0  0  0  0  0  0  0
    2.8710    0.9790   -0.5020 C   0  0  0  0  0  0  0  0  0  0  0  0
   -0.4140   -0.8810   -0.8040 C   0  0  0  0  0  0  0  0  0  0  0  0
   -1.3950   -0.6950    0.0110 C   0  0  0  0  0  0  0  0  0  0  0  0
   -2.2340   -1.8700    0.4390 C   0  0  0  0  0  0  0  0  0  0  0  0
   -1.3880   -3.1250    0.4870 C   0  0  0  0  0  0  0  0  0  0  0  0
   -0.5820   -3.3830   -0.7280 C   0  0  0  0  0  0  0  0  0  0  0  0
   -0.0600   -2.1880   -1.4270 C   0  0  0  0  0  0  0  0  0  0  0  0
  1  2  1  0
  2  3  2  0
  2  4  1  0
  4  5  2  0
  4 16  1  0
  5  6  1  0
  5  9  1  0
  6  7  1  0
  6  8  2  0
  9 10  1  1
  9 15  1  0
 10 11  2  0
 10 14  1  0
 11 12  1  0
 12 13  1  0
 13 14  2  0
 15 16  2  0
 15 20  1  0
 16 17  1  0
 17 18  1  0
 18 19  1  0
 19 20  1  0
M  END
