
     RDKit          3D

 20 22  0  0  0  0  0  0  0  0999 V2000
   -2.5080   -3.1140   -0.6330 C   0  0  0  0  0  0  0  0  0  0  0  0
   -1.9930   -2.3030    0.5160 C   0  0  1  0  0  0  0  0  0  0  0  0
   -0.5750   -1.8890    0.2430 C   0  0  0  0  0  0  0  0  0  0  0  0
    0.3340   -2.7490   -0.3550 O   0  0  0  0  0  0  0  0  0  0  0  0
   -0.3830   -0.6290    0.6600 C   0  0  0  0  0  0  0  0  0  0  0  0
    0.8850    0.0750    0.5420 C   0  0  0  0  0  0  0  0  0  0  0  0
    0.9820    1.2560    0.9570 O   0  0  0  0  0  0  0  0  0  0  0  0
    2.0760   -0.5560   -0.0550 C   0  0  0  0  0  0  0  0  0  0  0  0
    3.2690    0.3620   -0.0700 C   0  0  2  0  0  0  0  0  0  0  0  0
    3.6660    0.7970    1.3050 C   0  0  0  0  0  0  0  0  0  0  0  0
    2.9860    1.5970   -0.9000 C   0  0  0  0  0  0  0  0  0  0  0  0
    4.4500   -0.3550   -0.6890 C   0  0  0  0  0  0  0  0  0  0  0  0
   -1.6520   -0.1120    1.2380 C   0  0  1  0  0  0  0  0  0  0  0  0
   -2.0120    1.2320    0.7180 C   0  0  0  0  0  0  0  0  0  0  0  0
   -1.8010    2.5210    0.9000 C   0  0  0  0  0  0  0  0  0  0  0  0
   -2.5790    3.2700   -0.0980 C   0  0  0  0  0  0  0  0  0  0  0  0
   -3.2700    2.2380   -0.8810 C   0  0  0  0  0  0  0  0  0  0  0  0
   -2.9300    1.0620   -0.3960 C   0  0  0  0  0  0  0  0  0  0  0  0
   -3.1710   -0.4030   -0.6080 C   0  0  0  0  0  0  0  0  0  0  0  0
   -2.7490   -1.0020    0.6900 C   0  0  1  0  0  0  0  0  0  0  0  0
  2  1  1  6
  2  3  1  0
  2 20  1  0
  3  4  1  0
  3  5  2  0
  5  6  1  0
 13  5  1  6
  6  7  2  0
  6  8  1  0
  8  9  1  0
  9 10  1  1
  9 11  1  0
  9 12  1  0
 13 14  1  0
 13 20  1  0
 14 15  2  0
 14 18  1  0
 15 16  1  0
 16 17  1  0
 17 18  2  0
 18 19  1  0
 20 19  1  6
M  END
