
     RDKit          3D

 20 21  0  0  0  0  0  0  0  0999 V2000
    4.2340   -0.2880    0.4750 C   0  0  0  0  0  0  0  0  0  0  0  0
    3.5430    0.5730   -0.5460 C   0  0  0  0  0  0  0  0  0  0  0  0
    2.2200    0.6830   -0.5670 C   0  0  0  0  0  0  0  0  0  0  0  0
    1.7130    1.5710   -1.6320 C   0  0  0  0  0  0  0  0  0  0  0  0
    0.8730    2.5850   -1.4630 C   0  0  0  0  0  0  0  0  0  0  0  0
    0.2530    3.0830   -0.2510 C   0  0  0  0  0  0  0  0  0  0  0  0
    0.2190    4.4060   -0.2310 O   0  0  0  0  0  0  0  0  0  0  0  0
   -0.3030    2.3830    0.8820 C   0  0  0  0  0  0  0  0  0  0  0  0
   -1.3670    1.6300    1.0550 C   0  0  0  0  0  0  0  0  0  0  0  0
   -2.4250    1.1860    0.1830 C   0  0  0  0  0  0  0  0  0  0  0  0
   -3.8180    1.7120    0.5070 C   0  0  0  0  0  0  0  0  0  0  0  0
   -2.4190    0.3690   -0.8450 C   0  0  0  0  0  0  0  0  0  0  0  0
   -1.2750   -0.3670   -1.4350 C   0  0  0  0  0  0  0  0  0  0  0  0
   -0.5620   -1.3030   -0.5650 C   0  0  2  0  0  0  0  0  0  0  0  0
   -1.6710   -2.0560    0.2160 C   0  0  0  0  0  0  0  0  0  0  0  0
   -1.0440   -3.1740    0.9460 C   0  0  0  0  0  0  0  0  0  0  0  0
    0.2460   -3.2690    1.1540 C   0  0  0  0  0  0  0  0  0  0  0  0
    1.2170   -2.2770    0.6860 C   0  0  0  0  0  0  0  0  0  0  0  0
    0.4660   -0.9240    0.3830 C   0  0  1  0  0  0  0  0  0  0  0  0
    1.3350    0.0890    0.2510 O   0  0  0  0  0  0  0  0  0  0  0  0
  1  2  1  0
  2  3  2  3
  3  4  1  0
  3 20  1  0
  4  5  2  0
  5  6  1  0
  6  7  2  0
  6  8  1  0
  8  9  2  0
  9 10  1  0
 10 11  1  0
 10 12  2  0
 12 13  1  0
 14 13  1  1
 14 15  1  0
 14 19  1  0
 15 16  1  0
 16 17  2  0
 17 18  1  0
 19 18  1  6
 19 20  1  0
M  END
