
     RDKit          3D

 20 23  0  0  0  0  0  0  0  0999 V2000
    1.9510    0.4500   -2.3420 O   0  0  0  0  0  0  0  0  0  0  0  0
    0.7350    0.4480   -1.9490 C   0  0  0  0  0  0  0  0  0  0  0  0
   -0.1970    0.5320   -2.9500 O   0  0  0  0  0  0  0  0  0  0  0  0
   -1.5340    0.7440   -2.7040 C   0  0  0  0  0  0  0  0  0  0  0  0
   -2.0530    0.4840   -1.3550 C   0  0  1  0  0  0  0  0  0  0  0  0
   -3.0130   -0.6660   -1.3830 C   0  0  0  0  0  0  0  0  0  0  0  0
   -3.5760   -1.0690   -0.0680 C   0  0  0  0  0  0  0  0  0  0  0  0
   -3.8640    0.1220    0.8210 C   0  0  0  0  0  0  0  0  0  0  0  0
   -2.7050    0.2790    1.7630 C   0  0  0  0  0  0  0  0  0  0  0  0
   -1.3850    0.2990    1.0560 C   0  0  0  0  0  0  0  0  0  0  0  0
   -0.4160    0.2140    2.0280 C   0  0  0  0  0  0  0  0  0  0  0  0
    0.9200    0.2050    1.7250 C   0  0  0  0  0  0  0  0  0  0  0  0
    1.3110    0.2820    0.4070 C   0  0  0  0  0  0  0  0  0  0  0  0
    2.7470    0.2550    0.0970 C   0  0  2  0  0  0  0  0  0  0  0  0
    3.2520   -1.0170   -0.4450 C   0  0  0  0  0  0  0  0  0  0  0  0
    4.5300   -1.1530   -0.1370 C   0  0  0  0  0  0  0  0  0  0  0  0
    4.9700    0.0570    0.6580 C   0  0  0  0  0  0  0  0  0  0  0  0
    3.6150    0.3840    1.3620 C   0  0  0  0  0  0  0  0  0  0  0  0
    0.3330    0.3670   -0.5650 C   0  0  0  0  0  0  0  0  0  0  0  0
   -1.0300    0.3780   -0.2750 C   0  0  0  0  0  0  0  0  0  0  0  0
  1  2  2  0
  2  3  1  0
  2 19  1  0
  3  4  1  0
  5  4  1  6
  5  6  1  0
  5 20  1  0
  6  7  1  0
  7  8  1  0
  8  9  1  0
  9 10  1  0
 10 11  1  0
 10 20  2  0
 11 12  2  0
 12 13  1  0
 14 13  1  1
 13 19  2  0
 14 15  1  0
 14 18  1  0
 15 16  2  0
 16 17  1  0
 17 18  1  0
 19 20  1  0
M  END
