
     RDKit          3D

 20 22  0  0  0  0  0  0  0  0999 V2000
   -2.2880   -0.6140    1.6290 C   0  0  0  0  0  0  0  0  0  0  0  0
   -2.0710    0.5550    1.0430 C   0  0  0  0  0  0  0  0  0  0  0  0
   -2.5470    1.8010    1.7130 C   0  0  0  0  0  0  0  0  0  0  0  0
   -2.3220    3.0020    0.9070 C   0  0  0  0  0  0  0  0  0  0  0  0
   -1.7260    2.9910   -0.2690 C   0  0  0  0  0  0  0  0  0  0  0  0
   -1.2450    1.7660   -0.8710 C   0  0  0  0  0  0  0  0  0  0  0  0
   -1.4050    0.5900   -0.2370 C   0  0  0  0  0  0  0  0  0  0  0  0
   -0.8610   -0.6040   -0.9430 C   0  0  2  0  0  0  0  0  0  0  0  0
   -1.9630   -1.4150   -1.5860 C   0  0  0  0  0  0  0  0  0  0  0  0
   -1.5710   -2.7590   -1.9840 C   0  0  0  0  0  0  0  0  0  0  0  0
   -0.6580   -3.4500   -1.3560 C   0  0  0  0  0  0  0  0  0  0  0  0
    0.0180   -2.8670   -0.1930 C   0  0  0  0  0  0  0  0  0  0  0  0
    0.1910   -1.3690   -0.2400 C   0  0  1  0  0  0  0  0  0  0  0  0
    1.5930   -1.0420   -0.7010 C   0  0  0  0  0  0  0  0  0  0  0  0
    2.2040   -1.9000   -1.3140 O   0  0  0  0  0  0  0  0  0  0  0  0
    2.2440    0.2340   -0.4550 C   0  0  2  0  0  0  0  0  0  0  0  0
    3.6540    0.0870    0.0960 C   0  0  0  0  0  0  0  0  0  0  0  0
    3.8330    1.4650    0.7490 C   0  0  0  0  0  0  0  0  0  0  0  0
    2.4190    1.6660    1.2730 C   0  0  0  0  0  0  0  0  0  0  0  0
    1.5920    1.1420    0.3190 O   0  0  0  0  0  0  0  0  0  0  0  0
  1  2  2  0
  2  3  1  0
  2  7  1  0
  3  4  1  0
  4  5  2  0
  5  6  1  0
  6  7  2  0
  8  7  1  1
  8  9  1  0
  8 13  1  0
  9 10  1  0
 10 11  2  0
 11 12  1  0
 12 13  1  0
 13 14  1  6
 14 15  2  0
 16 14  1  1
 16 17  1  0
 16 20  1  0
 17 18  1  0
 18 19  1  0
 19 20  1  0
M  END
