
     RDKit          3D

 20 23  0  0  0  0  0  0  0  0999 V2000
   -2.0680    3.7860   -0.4660 C   0  0  0  0  0  0  0  0  0  0  0  0
   -2.2580    2.2350   -0.3470 C   0  0  0  0  0  0  0  0  0  0  0  0
   -0.9530    1.6010   -0.1880 C   0  0  0  0  0  0  0  0  0  0  0  0
   -0.6640    0.3440   -0.0470 C   0  0  0  0  0  0  0  0  0  0  0  0
   -1.6180   -0.6840   -0.0220 C   0  0  0  0  0  0  0  0  0  0  0  0
   -1.2200   -2.0060    0.1340 C   0  0  0  0  0  0  0  0  0  0  0  0
    0.0970   -2.3380    0.2660 C   0  0  0  0  0  0  0  0  0  0  0  0
    1.0370   -1.3550    0.2430 C   0  0  0  0  0  0  0  0  0  0  0  0
    2.3620   -1.7810    0.3850 C   0  0  0  0  0  0  0  0  0  0  0  0
    3.3550   -0.8300    0.3690 C   0  0  0  0  0  0  0  0  0  0  0  0
    3.0460    0.4930    0.2200 C   0  0  0  0  0  0  0  0  0  0  0  0
    1.7180    0.8680    0.0840 C   0  0  0  0  0  0  0  0  0  0  0  0
    0.6720   -0.0380    0.0900 C   0  0  0  0  0  0  0  0  0  0  0  0
    4.3240    1.2510    0.2450 C   0  0  0  0  0  0  0  0  0  0  0  0
    5.3430    0.1840   -0.0080 C   0  0  0  0  0  0  0  0  0  0  0  0
    4.7280   -0.9820    0.4880 O   0  0  0  0  0  0  0  0  0  0  0  0
   -2.4040   -2.9100    0.1310 C   0  0  0  0  0  0  0  0  0  0  0  0
   -3.5480   -1.9930   -0.0440 C   0  0  1  0  0  0  0  0  0  0  0  0
   -4.4800   -2.0550    0.9910 O   0  0  0  0  0  0  0  0  0  0  0  0
   -2.9300   -0.6430   -0.1260 C   0  0  0  0  0  0  0  0  0  0  0  0
  1  2  1  0
  2  3  1  0
  3  4  2  3
  4  5  1  0
  4 13  1  0
  5  6  1  0
  5 20  2  0
  6  7  2  0
  6 17  1  0
  7  8  1  0
  8  9  2  0
  8 13  1  0
  9 10  1  0
 10 11  2  0
 10 16  1  0
 11 12  1  0
 11 14  1  0
 12 13  2  0
 14 15  1  0
 15 16  1  0
 17 18  1  0
 18 19  1  1
 18 20  1  0
M  END
