
     RDKit          3D

 23 25  0  0  0  0  0  0  0  0999 V2000
    1.0740   -2.5860   -1.7450 C   0  0  0  0  0  0  0  0  0  0  0  0
    0.8000   -1.7670   -0.7480 C   0  0  0  0  0  0  0  0  0  0  0  0
   -0.4910   -1.9000   -0.2540 O   0  0  0  0  0  0  0  0  0  0  0  0
   -1.1160   -1.3400    0.8290 C   0  0  0  0  0  0  0  0  0  0  0  0
   -2.5630   -1.8370    0.7840 C   0  0  0  0  0  0  0  0  0  0  0  0
   -3.5090   -0.7810    0.3310 C   0  0  0  0  0  0  0  0  0  0  0  0
   -4.8180   -0.7840    0.5070 C   0  0  0  0  0  0  0  0  0  0  0  0
   -5.3670    0.4530   -0.0970 C   0  0  0  0  0  0  0  0  0  0  0  0
   -4.1560    1.4060    0.0140 C   0  0  0  0  0  0  0  0  0  0  0  0
   -3.0730    0.4450   -0.4050 C   0  0  0  0  0  0  0  0  0  0  0  0
   -2.0570    0.2810   -1.0510 N   0  0  0  0  0  0  0  0  0  0  0  0
   -1.0520    0.5900   -1.8570 N   0  0  0  0  0  0  0  0  0  0  0  0
    0.0210    1.4870   -1.5510 C   0  0  0  0  0  0  0  0  0  0  0  0
    0.1350    2.4360   -2.4450 O   0  0  0  0  0  0  0  0  0  0  0  0
    0.9220    1.4750   -0.4650 N   0  0  0  0  0  0  0  0  0  0  0  0
    0.9320    2.7560    0.3150 C   0  0  0  0  0  0  0  0  0  0  0  0
    1.8390    0.5420    0.0210 C   0  0  2  0  0  0  0  0  0  0  0  0
    3.2250    1.1730   -0.2900 C   0  0  0  0  0  0  0  0  0  0  0  0
    4.2100    0.9580    0.7980 C   0  0  0  0  0  0  0  0  0  0  0  0
    4.2920   -0.3230    1.2690 O   0  0  0  0  0  0  0  0  0  0  0  0
    4.3470   -1.2420    0.2140 C   0  0  0  0  0  0  0  0  0  0  0  0
    2.9640   -1.5930   -0.1960 C   0  0  0  0  0  0  0  0  0  0  0  0
    1.8220   -0.8730   -0.3050 C   0  0  0  0  0  0  0  0  0  0  0  0
  1  2  2  0
  2  3  1  0
  2 23  1  0
  3  4  1  0
  4  5  1  0
  5  6  1  0
  6  7  2  0
  6 10  1  0
  7  8  1  0
  8  9  1  0
  9 10  1  0
 10 11  2  0
 11 12  1  0
 12 13  1  0
 13 14  2  0
 13 15  1  0
 15 16  1  0
 15 17  1  0
 17 18  1  6
 17 23  1  0
 18 19  1  0
 19 20  1  0
 20 21  1  0
 21 22  1  0
 22 23  2  0
M  END
