
     RDKit          3D

 23 25  0  0  0  0  0  0  0  0999 V2000
    7.1080   -0.0810   -1.1400 C   0  0  0  0  0  0  0  0  0  0  0  0
    5.8220    0.1520   -0.6090 O   0  0  0  0  0  0  0  0  0  0  0  0
    4.7360   -0.4650   -1.1420 C   0  0  0  0  0  0  0  0  0  0  0  0
    4.9160   -1.2590   -2.1350 O   0  0  0  0  0  0  0  0  0  0  0  0
    3.3410   -0.3230   -0.7000 C   0  0  0  0  0  0  0  0  0  0  0  0
    3.0650    0.4710    0.3180 C   0  0  0  0  0  0  0  0  0  0  0  0
    4.2480    1.1530    0.9180 C   0  0  0  0  0  0  0  0  0  0  0  0
    1.8240    0.7910    0.9510 N   0  0  0  0  0  0  0  0  0  0  0  0
    0.6240    0.3780    0.7870 C   0  0  0  0  0  0  0  0  0  0  0  0
   -0.3280    1.0410    1.7210 C   0  0  0  0  0  0  0  0  0  0  0  0
   -1.7200    1.0200    1.0840 C   0  0  0  0  0  0  0  0  0  0  0  0
   -2.0450   -0.3270    0.6460 N   0  0  0  0  0  0  0  0  0  0  0  0
   -3.2310   -1.0510    1.0370 C   0  0  0  0  0  0  0  0  0  0  0  0
   -4.4770   -0.4610    0.4790 C   0  0  0  0  0  0  0  0  0  0  0  0
   -5.4880   -0.0020    1.1750 C   0  0  0  0  0  0  0  0  0  0  0  0
   -6.5170    0.4930    0.2460 C   0  0  0  0  0  0  0  0  0  0  0  0
   -5.9600    0.2590   -1.0880 C   0  0  0  0  0  0  0  0  0  0  0  0
   -4.7790   -0.2940   -0.9280 C   0  0  0  0  0  0  0  0  0  0  0  0
   -1.0940   -0.9360   -0.2240 C   0  0  0  0  0  0  0  0  0  0  0  0
    0.1920   -0.6200   -0.1830 C   0  0  0  0  0  0  0  0  0  0  0  0
    1.0180   -1.3400   -1.1480 C   0  0  0  0  0  0  0  0  0  0  0  0
    0.4510   -2.2600   -1.7540 O   0  0  0  0  0  0  0  0  0  0  0  0
    2.3800   -1.0920   -1.4540 N   0  0  0  0  0  0  0  0  0  0  0  0
  1  2  1  0
  2  3  1  0
  3  4  2  0
  3  5  1  0
  5  6  2  0
  5 23  1  0
  6  7  1  0
  6  8  1  0
  8  9  2  0
  9 10  1  0
  9 20  1  0
 10 11  1  0
 11 12  1  0
 12 13  1  0
 12 19  1  0
 13 14  1  0
 14 15  2  0
 14 18  1  0
 15 16  1  0
 16 17  1  0
 17 18  2  0
 19 20  2  0
 20 21  1  0
 21 22  2  0
 21 23  1  0
M  END
