
     RDKit          3D

 23 25  0  0  0  0  0  0  0  0999 V2000
   -3.9120    0.8640    0.9000 C   0  0  0  0  0  0  0  0  0  0  0  0
   -2.6860    0.6360    0.6040 C   0  0  0  0  0  0  0  0  0  0  0  0
   -1.5420    1.5730    0.6770 C   0  0  0  0  0  0  0  0  0  0  0  0
   -1.6840    2.7920    1.0400 C   0  0  0  0  0  0  0  0  0  0  0  0
   -2.8220    3.5810    1.4470 C   0  0  0  0  0  0  0  0  0  0  0  0
   -0.2290    1.0220    0.3040 C   0  0  0  0  0  0  0  0  0  0  0  0
    0.0460   -0.2020   -0.0330 C   0  0  0  0  0  0  0  0  0  0  0  0
    1.3050   -0.7610   -0.4450 C   0  0  0  0  0  0  0  0  0  0  0  0
    1.2730   -2.0050   -0.7840 O   0  0  0  0  0  0  0  0  0  0  0  0
    2.5520   -0.1090   -0.5190 N   0  0  0  0  0  0  0  0  0  0  0  0
    2.9340    1.2340   -0.2070 C   0  0  0  0  0  0  0  0  0  0  0  0
    4.4330    1.3400   -0.4500 C   0  0  0  0  0  0  0  0  0  0  0  0
    4.7640    0.1940   -1.3430 C   0  0  0  0  0  0  0  0  0  0  0  0
    3.7670   -0.8640   -1.0000 C   0  0  0  0  0  0  0  0  0  0  0  0
   -1.0190   -1.1910    0.5080 C   0  0  2  0  0  0  0  0  0  0  0  0
   -0.7430   -2.5790    0.3120 C   0  0  0  0  0  0  0  0  0  0  0  0
    0.3330   -3.1730    1.0310 O   0  0  0  0  0  0  0  0  0  0  0  0
   -1.3170   -3.5130   -0.4410 C   0  0  0  0  0  0  0  0  0  0  0  0
   -2.4620   -3.3930   -1.3340 C   0  0  0  0  0  0  0  0  0  0  0  0
   -3.2600   -2.4200   -1.4670 N   0  0  0  0  0  0  0  0  0  0  0  0
   -3.2810   -1.1630   -0.7960 C   0  0  0  0  0  0  0  0  0  0  0  0
   -4.2550   -0.4060   -1.0270 O   0  0  0  0  0  0  0  0  0  0  0  0
   -2.2760   -0.6880    0.1190 N   0  0  0  0  0  0  0  0  0  0  0  0
  1  2  2  0
  2  3  1  0
  2 23  1  0
  3  4  2  3
  3  6  1  0
  4  5  1  0
  6  7  2  0
  7  8  1  0
 15  7  1  6
  8  9  2  0
  8 10  1  0
 10 11  1  0
 10 14  1  0
 11 12  1  0
 12 13  1  0
 13 14  1  0
 15 16  1  0
 15 23  1  0
 16 17  1  0
 16 18  2  0
 18 19  1  0
 19 20  2  0
 20 21  1  0
 21 22  2  0
 21 23  1  0
M  END
