
     RDKit          3D

 23 25  0  0  0  0  0  0  0  0999 V2000
    6.7380    0.4950    1.3720 C   0  0  0  0  0  0  0  0  0  0  0  0
    6.1740    0.1510    0.0970 N   0  0  0  0  0  0  0  0  0  0  0  0
    4.7540    0.3340   -0.1210 C   0  0  0  0  0  0  0  0  0  0  0  0
    3.9860   -0.6580   -0.4520 C   0  0  0  0  0  0  0  0  0  0  0  0
    2.5830   -0.7240   -0.7170 C   0  0  0  0  0  0  0  0  0  0  0  0
    2.1620   -1.9260   -1.0130 O   0  0  0  0  0  0  0  0  0  0  0  0
    1.5980    0.2460   -0.7160 N   0  0  0  0  0  0  0  0  0  0  0  0
    1.5620    1.6560   -0.4960 C   0  0  0  0  0  0  0  0  0  0  0  0
    0.6710    2.0930   -1.6800 C   0  0  0  0  0  0  0  0  0  0  0  0
   -0.4560    1.0980   -1.5810 C   0  0  0  0  0  0  0  0  0  0  0  0
    0.1460   -0.1030   -0.9660 C   0  0  2  0  0  0  0  0  0  0  0  0
   -0.4070   -0.5690    0.2910 C   0  0  0  0  0  0  0  0  0  0  0  0
    0.4660   -0.9160    1.1770 O   0  0  0  0  0  0  0  0  0  0  0  0
   -1.7320   -0.7090    0.7400 N   0  0  0  0  0  0  0  0  0  0  0  0
   -1.9960   -1.1300    2.0960 C   0  0  0  0  0  0  0  0  0  0  0  0
   -3.3600   -0.7630    2.5540 C   0  0  0  0  0  0  0  0  0  0  0  0
   -3.8890    0.5380    1.9390 C   0  0  0  0  0  0  0  0  0  0  0  0
   -4.0100    0.2550    0.4880 C   0  0  0  0  0  0  0  0  0  0  0  0
   -5.0470    0.5370   -0.2270 C   0  0  0  0  0  0  0  0  0  0  0  0
   -4.9930    0.2030   -1.5760 O   0  0  0  0  0  0  0  0  0  0  0  0
   -4.0000   -0.4950   -2.2340 C   0  0  0  0  0  0  0  0  0  0  0  0
   -2.8470   -0.7840   -1.3730 C   0  0  0  0  0  0  0  0  0  0  0  0
   -2.8380   -0.4430   -0.1130 C   0  0  0  0  0  0  0  0  0  0  0  0
  1  2  1  0
  2  3  1  0
  3  4  2  3
  4  5  1  0
  5  6  2  0
  5  7  1  0
  7  8  1  0
  7 11  1  0
  8  9  1  0
  9 10  1  0
 10 11  1  0
 11 12  1  1
 12 13  2  0
 12 14  1  0
 14 15  1  0
 14 23  1  0
 15 16  1  0
 16 17  1  0
 17 18  1  0
 18 19  2  0
 18 23  1  0
 19 20  1  0
 20 21  1  0
 21 22  1  0
 22 23  2  0
M  END
