
     RDKit          3D

 18 18  0  0  0  0  0  0  0  0999 V2000
    3.0730    0.6980    1.2910 C   0  0  0  0  0  0  0  0  0  0  0  0
    2.1900   -0.4170    0.8240 C   0  0  2  0  0  0  0  0  0  0  0  0
    2.8380   -1.3970   -0.0700 C   0  0  0  0  0  0  0  0  0  0  0  0
    4.0770   -1.3610   -0.5210 C   0  0  0  0  0  0  0  0  0  0  0  0
    5.2770   -0.1000   -0.1490 S   0  0  0  0  0  0  0  0  0  0  0  0
    0.9750    0.2130    0.1520 C   0  0  0  0  0  0  0  0  0  0  0  0
    0.2420    1.0450    1.0290 N   0  0  0  0  0  0  0  0  0  0  0  0
   -1.1480    1.8060    0.4260 S   0  0  1  0  0  0  0  0  0  0  0  0
   -1.7800    2.5670    1.6060 O   0  0  0  0  0  0  0  0  0  0  0  0
   -0.8080    2.7600   -0.6450 O   0  0  0  0  0  0  0  0  0  0  0  0
   -2.3720    0.6680   -0.0930 C   0  0  0  0  0  0  0  0  0  0  0  0
   -3.3120    0.1560    0.7510 C   0  0  0  0  0  0  0  0  0  0  0  0
   -4.1850   -0.7520    0.0620 C   0  0  0  0  0  0  0  0  0  0  0  0
   -5.5800   -1.6800    0.7380 S   0  0  0  0  0  0  0  0  0  0  0  0
   -3.8390   -0.8430   -1.1980 C   0  0  0  0  0  0  0  0  0  0  0  0
   -2.6520    0.0640   -1.3740 C   0  0  0  0  0  0  0  0  0  0  0  0
   -2.0380    0.2310   -2.5130 C   0  0  0  0  0  0  0  0  0  0  0  0
   -0.6870    1.2570   -2.7690 Cl  0  0  0  0  0  0  0  0  0  0  0  0
  2  1  1  6
  2  3  1  0
  2  6  1  0
  3  4  2  3
  4  5  1  0
  6  7  1  0
  8  7  1  1
  8  9  2  0
  8 10  2  0
  8 11  1  0
 11 12  2  0
 11 16  1  0
 12 13  1  0
 13 14  1  0
 13 15  2  0
 15 16  1  0
 16 17  2  3
 17 18  1  0
M  END
