
     RDKit          3D

 18 18  0  0  0  0  0  0  0  0999 V2000
   -1.0820   -2.5380   -0.2720 C   0  0  0  0  0  0  0  0  0  0  0  0
   -1.6600   -1.1040   -0.5000 C   0  0  1  0  0  0  0  0  0  0  0  0
   -1.8610   -0.9430   -1.9820 C   0  0  0  0  0  0  0  0  0  0  0  0
   -2.9310   -1.0310    0.2640 C   0  0  0  0  0  0  0  0  0  0  0  0
   -0.5460   -0.2140   -0.0600 C   0  0  2  0  0  0  0  0  0  0  0  0
   -0.7250    1.2420   -0.1680 C   0  0  0  0  0  0  0  0  0  0  0  0
   -2.0040    2.0240    0.7130 S   0  0  2  0  0  0  0  0  0  0  0  0
   -1.9140    1.7820    2.4280 N   0  0  0  0  0  0  0  0  0  0  0  0
   -3.3740    1.8700    0.1930 O   0  0  0  0  0  0  0  0  0  0  0  0
   -1.7240    3.5490    0.5620 O   0  0  0  0  0  0  0  0  0  0  0  0
    0.8940   -0.8030   -1.0290 S   0  0  0  0  0  0  0  0  0  0  0  0
    2.4360   -0.1510   -0.4350 C   0  0  0  0  0  0  0  0  0  0  0  0
    2.4870    0.3880    0.7470 C   0  0  0  0  0  0  0  0  0  0  0  0
    3.5990    0.9930    1.4720 C   0  0  0  0  0  0  0  0  0  0  0  0
    5.1300    0.8300    0.5640 S   0  0  0  0  0  0  0  0  0  0  0  0
    4.7940    0.0680   -0.9910 C   0  0  0  0  0  0  0  0  0  0  0  0
    3.5890   -0.3190   -1.3230 C   0  0  0  0  0  0  0  0  0  0  0  0
    3.4030   -1.0690   -2.9190 Cl  0  0  0  0  0  0  0  0  0  0  0  0
  2  1  1  6
  2  3  1  0
  2  4  1  0
  2  5  1  0
  5  6  1  6
  5 11  1  0
  6  7  1  0
  7  8  1  1
  7  9  2  0
  7 10  2  0
 11 12  1  0
 12 13  2  0
 12 17  1  0
 13 14  1  0
 14 15  1  0
 15 16  1  0
 16 17  2  0
 17 18  1  0
M  END
