
     RDKit          3D

 18 19  0  0  0  0  0  0  0  0999 V2000
   -1.5690   -2.2340    0.5550 C   0  0  0  0  0  0  0  0  0  0  0  0
   -1.7690   -0.9630   -0.1960 C   0  0  0  0  0  0  0  0  0  0  0  0
   -1.2360    0.1870    0.2170 C   0  0  0  0  0  0  0  0  0  0  0  0
   -0.4470    0.1540    1.4320 C   0  0  0  0  0  0  0  0  0  0  0  0
    0.8760    0.7480    1.4880 C   0  0  0  0  0  0  0  0  0  0  0  0
    1.9090    0.2380    0.5580 C   0  0  0  0  0  0  0  0  0  0  0  0
    1.8610   -0.7010   -0.3710 C   0  0  0  0  0  0  0  0  0  0  0  0
    3.1770   -0.8490   -1.0480 C   0  0  0  0  0  0  0  0  0  0  0  0
    4.0020    0.1600   -0.3600 C   0  0  0  0  0  0  0  0  0  0  0  0
    3.2980    0.7710    0.5390 C   0  0  0  0  0  0  0  0  0  0  0  0
    3.8480    2.0510    1.6110 Cl  0  0  0  0  0  0  0  0  0  0  0  0
   -1.5660    1.5780   -0.7740 S   0  0  2  0  0  0  0  0  0  0  0  0
   -0.8780    1.4600   -2.1040 O   0  0  0  0  0  0  0  0  0  0  0  0
   -1.2520    2.8690   -0.1640 O   0  0  0  0  0  0  0  0  0  0  0  0
   -3.2890    1.5470   -1.0940 N   0  0  0  0  0  0  0  0  0  0  0  0
   -3.8390    0.3640   -1.6410 C   0  0  0  0  0  0  0  0  0  0  0  0
   -5.3590    0.3260   -2.1810 S   0  0  0  0  0  0  0  0  0  0  0  0
   -2.7770   -1.0640   -1.7020 S   0  0  0  0  0  0  0  0  0  0  0  0
  1  2  1  0
  2  3  2  0
  2 18  1  0
  3  4  1  0
  3 12  1  0
  4  5  1  0
  5  6  1  0
  6  7  2  0
  6 10  1  0
  7  8  1  0
  8  9  1  0
  9 10  2  0
 10 11  1  0
 12 13  2  0
 12 14  2  0
 12 15  1  6
 15 16  1  0
 16 17  2  0
 16 18  1  0
M  END
