
     RDKit          3D

 18 19  0  0  0  0  0  0  0  0999 V2000
   -3.6710    0.2230    0.6470 C   0  0  0  0  0  0  0  0  0  0  0  0
   -2.9120    1.4020    0.1430 C   0  0  0  0  0  0  0  0  0  0  0  0
   -2.4990    1.2930   -1.3090 C   0  0  2  0  0  0  0  0  0  0  0  0
   -3.6710    1.1510   -2.2270 C   0  0  0  0  0  0  0  0  0  0  0  0
   -1.3680   -0.0820   -1.5810 S   0  0  1  0  0  0  0  0  0  0  0  0
    0.1860    0.0910   -0.8130 C   0  0  0  0  0  0  0  0  0  0  0  0
    0.8030   -0.8710   -0.0510 C   0  0  0  0  0  0  0  0  0  0  0  0
    0.0630   -2.0900    0.0890 C   0  0  0  0  0  0  0  0  0  0  0  0
    0.3620   -3.2810    0.7780 N   0  0  0  0  0  0  0  0  0  0  0  0
   -1.4360   -2.1720   -0.6850 S   0  0  0  0  0  0  0  0  0  0  0  0
    2.1050   -0.5000    0.4550 C   0  0  0  0  0  0  0  0  0  0  0  0
    2.9600   -1.0890    1.1970 C   0  0  0  0  0  0  0  0  0  0  0  0
    2.8000   -2.6880    1.8950 Cl  0  0  0  0  0  0  0  0  0  0  0  0
    4.1890   -0.3230    1.5290 C   0  0  0  0  0  0  0  0  0  0  0  0
    4.4640    0.7170    0.5310 C   0  0  0  0  0  0  0  0  0  0  0  0
    2.8210    1.0780   -0.0340 S   0  0  2  0  0  0  0  0  0  0  0  0
    2.1810    2.1990    0.6950 O   0  0  0  0  0  0  0  0  0  0  0  0
    2.7980    1.2300   -1.5260 O   0  0  0  0  0  0  0  0  0  0  0  0
  1  2  1  0
  2  3  1  0
  3  4  1  6
  3  5  1  0
  5  6  1  1
  6  7  2  0
  7  8  1  0
  7 11  1  0
  8  9  1  0
  8 10  2  0
 11 12  2  0
 11 16  1  0
 12 13  1  0
 12 14  1  0
 14 15  1  0
 16 15  1  1
 16 17  2  0
 16 18  2  0
 10  5  1  0
M  END
