
     RDKit          3D

 18 19  0  0  0  0  0  0  0  0999 V2000
   -1.3410   -2.3100   -1.8580 N   0  0  0  0  0  0  0  0  0  0  0  0
   -1.9030   -1.2260   -1.1340 C   0  0  0  0  0  0  0  0  0  0  0  0
   -3.2020   -1.2480   -0.6850 C   0  0  0  0  0  0  0  0  0  0  0  0
   -4.1700   -2.6570   -1.0270 Cl  0  0  0  0  0  0  0  0  0  0  0  0
   -3.7090   -0.1720    0.0190 C   0  0  0  0  0  0  0  0  0  0  0  0
   -2.9070    0.9380    0.2750 C   0  0  0  0  0  0  0  0  0  0  0  0
   -3.5810    2.2720    1.1630 S   0  0  2  0  0  0  0  0  0  0  0  0
   -4.1810    3.2920    0.2170 O   0  0  0  0  0  0  0  0  0  0  0  0
   -2.5250    2.8950    2.0160 O   0  0  0  0  0  0  0  0  0  0  0  0
   -1.5930    0.9420   -0.1890 C   0  0  0  0  0  0  0  0  0  0  0  0
   -1.0950   -0.1200   -0.8820 C   0  0  0  0  0  0  0  0  0  0  0  0
    0.5840   -0.1430   -1.4820 S   0  0  0  0  0  0  0  0  0  0  0  0
    1.6920   -0.8800   -0.2350 C   0  0  2  0  0  0  0  0  0  0  0  0
    1.7570    0.0340    0.9410 C   0  0  0  0  0  0  0  0  0  0  0  0
    3.1840    0.3370    1.3760 C   0  0  0  0  0  0  0  0  0  0  0  0
    3.7300    1.3600    0.3970 C   0  0  0  0  0  0  0  0  0  0  0  0
    3.7980    0.4890   -1.2180 S   0  0  0  0  0  0  0  0  0  0  0  0
    3.0080   -1.1230   -0.9210 C   0  0  0  0  0  0  0  0  0  0  0  0
  1  2  1  0
  2  3  2  0
  2 11  1  0
  3  4  1  0
  3  5  1  0
  5  6  2  0
  7  6  1  6
  6 10  1  0
  7  8  2  0
  7  9  2  0
 10 11  2  0
 11 12  1  0
 13 12  1  6
 13 14  1  0
 13 18  1  0
 14 15  1  0
 15 16  1  0
 16 17  1  0
 17 18  1  0
M  END
