
     RDKit          3D

 27 29  0  0  0  0  0  0  0  0999 V2000
   -3.7810   -0.8840    3.9250 C   0  0  0  0  0  0  0  0  0  0  0  0
   -3.2290   -1.3410    2.8330 C   0  0  0  0  0  0  0  0  0  0  0  0
   -3.0990   -0.5290    1.6440 C   0  0  0  0  0  0  0  0  0  0  0  0
   -3.7400    0.6900    1.6090 C   0  0  0  0  0  0  0  0  0  0  0  0
   -3.6580    1.5090    0.4880 C   0  0  0  0  0  0  0  0  0  0  0  0
   -4.3330    2.8300    0.4150 C   0  0  0  0  0  0  0  0  0  0  0  0
   -2.9220    1.0550   -0.5710 C   0  0  0  0  0  0  0  0  0  0  0  0
   -2.8200    1.9350   -1.7950 C   0  0  0  0  0  0  0  0  0  0  0  0
   -2.2640   -0.1830   -0.5550 C   0  0  0  0  0  0  0  0  0  0  0  0
   -1.5530   -0.5710   -1.8170 C   0  0  0  0  0  0  0  0  0  0  0  0
   -0.9610   -1.7840   -1.8180 O   0  0  0  0  0  0  0  0  0  0  0  0
   -2.3550   -0.9570    0.5470 C   0  0  0  0  0  0  0  0  0  0  0  0
   -1.7480   -2.1640    0.6610 O   0  0  0  0  0  0  0  0  0  0  0  0
   -0.5430   -2.4910    1.2590 C   0  0  0  0  0  0  0  0  0  0  0  0
    0.6780   -1.8250    0.7680 C   0  0  0  0  0  0  0  0  0  0  0  0
    1.6230   -2.4600   -0.0330 C   0  0  0  0  0  0  0  0  0  0  0  0
    2.7540   -1.8050   -0.4720 C   0  0  0  0  0  0  0  0  0  0  0  0
    3.0130   -0.4910   -0.1450 C   0  0  0  0  0  0  0  0  0  0  0  0
    4.2220    0.1970   -0.6190 C   0  0  0  0  0  0  0  0  0  0  0  0
    5.4390   -0.4460   -0.5530 C   0  0  0  0  0  0  0  0  0  0  0  0
    6.6130    0.1510   -0.9850 C   0  0  0  0  0  0  0  0  0  0  0  0
    6.5140    1.4310   -1.4900 C   0  0  0  0  0  0  0  0  0  0  0  0
    5.3280    2.0680   -1.5590 N   0  0  0  0  0  0  0  0  0  0  0  0
    4.1970    1.4630   -1.1310 C   0  0  0  0  0  0  0  0  0  0  0  0
    3.0890    2.0610   -1.1960 O   0  0  0  0  0  0  0  0  0  0  0  0
    2.0840    0.1500    0.6480 C   0  0  0  0  0  0  0  0  0  0  0  0
    0.9550   -0.5070    1.0860 C   0  0  0  0  0  0  0  0  0  0  0  0
  1  2  2  0
  2  3  1  0
  3  4  2  0
  3 12  1  0
  4  5  1  0
  5  6  1  0
  5  7  2  0
  7  8  1  0
  7  9  1  0
  9 10  1  0
  9 12  2  0
 10 11  1  0
 12 13  1  0
 13 14  1  0
 14 15  1  0
 15 16  2  0
 15 27  1  0
 16 17  1  0
 17 18  2  0
 18 19  1  0
 18 26  1  0
 19 20  2  0
 19 24  1  0
 20 21  1  0
 21 22  2  0
 22 23  1  0
 23 24  1  0
 24 25  2  0
 26 27  2  0
M  END
