
     RDKit          3D

 18 18  0  0  0  0  0  0  0  0999 V2000
    3.5610    2.1210   -0.4840 C   0  0  0  0  0  0  0  0  0  0  0  0
    2.8760    1.1280    0.0570 C   0  0  0  0  0  0  0  0  0  0  0  0
    3.1760   -0.4650   -0.6790 S   0  0  0  0  0  0  0  0  0  0  0  0
    1.9510   -1.5990   -0.1400 C   0  0  0  0  0  0  0  0  0  0  0  0
    0.7880   -1.4830    0.5210 C   0  0  0  0  0  0  0  0  0  0  0  0
    0.0580   -2.7740    0.7700 C   0  0  0  0  0  0  0  0  0  0  0  0
    0.1350   -0.3110    1.0380 C   0  0  0  0  0  0  0  0  0  0  0  0
   -1.5790   -0.4690    1.3360 S   0  0  1  0  0  0  0  0  0  0  0  0
   -2.0380   -1.8000    1.7420 O   0  0  0  0  0  0  0  0  0  0  0  0
   -1.8940    0.4680    2.5020 O   0  0  0  0  0  0  0  0  0  0  0  0
   -2.5360    0.0450   -0.0050 N   0  0  0  0  0  0  0  0  0  0  0  0
   -2.2800   -0.7500   -1.1840 C   0  0  0  0  0  0  0  0  0  0  0  0
   -3.1890   -0.1780   -2.2870 C   0  0  0  0  0  0  0  0  0  0  0  0
   -2.7010    1.5560   -2.4940 S   0  0  0  0  0  0  0  0  0  0  0  0
    0.6090    0.9210    1.3120 C   0  0  0  0  0  0  0  0  0  0  0  0
    1.9830    1.4420    1.1500 C   0  0  0  0  0  0  0  0  0  0  0  0
    2.4510    2.2320    2.0650 C   0  0  0  0  0  0  0  0  0  0  0  0
    4.0360    2.9420    2.1120 Cl  0  0  0  0  0  0  0  0  0  0  0  0
  1  2  2  0
  2  3  1  0
  2 16  1  0
  3  4  1  0
  4  5  2  0
  5  6  1  0
  5  7  1  0
  7  8  1  0
  7 15  2  0
  8  9  2  0
  8 10  2  0
  8 11  1  6
 11 12  1  0
 12 13  1  0
 13 14  1  0
 15 16  1  0
 16 17  2  3
 17 18  1  0
M  END
