
     RDKit          3D

 15 15  0  0  0  0  0  0  0  0999 V2000
    4.0130    1.7630   -1.1240 O   0  0  0  0  0  0  0  0  0  0  0  0
    3.6750    0.4480   -0.9760 C   0  0  0  0  0  0  0  0  0  0  0  0
    2.2640    0.2420   -0.4470 C   0  0  1  0  0  0  0  0  0  0  0  0
    2.0990   -1.1250   -0.3630 O   0  0  0  0  0  0  0  0  0  0  0  0
    2.0500    0.8740    0.8780 C   0  0  0  0  0  0  0  0  0  0  0  0
    0.8970    0.8220    1.4420 O   0  0  0  0  0  0  0  0  0  0  0  0
   -0.0140    0.0500    1.8940 C   0  0  0  0  0  0  0  0  0  0  0  0
   -0.8420   -0.8590    1.0520 C   0  0  1  0  0  0  0  0  0  0  0  0
   -1.7590   -1.5860    1.8720 O   0  0  0  0  0  0  0  0  0  0  0  0
   -1.7600   -0.0940    0.1030 C   0  0  1  0  0  0  0  0  0  0  0  0
   -1.1060    0.6970   -0.7970 O   0  0  0  0  0  0  0  0  0  0  0  0
   -2.5800   -1.1770   -0.6150 C   0  0  0  0  0  0  0  0  0  0  0  0
   -3.8170   -0.4290   -0.8450 N   0  0  0  0  0  0  0  0  0  0  0  0
   -4.0570    0.0730    0.3870 O   0  0  0  0  0  0  0  0  0  0  0  0
   -2.8630    0.6270    0.8460 C   0  0  0  0  0  0  0  0  0  0  0  0
  1  2  1  0
  2  3  1  0
  3  4  1  1
  3  5  1  0
  5  6  1  0
  6  7  1  0
  7  8  1  0
  8  9  1  1
  8 10  1  0
 10 11  1  6
 10 12  1  0
 10 15  1  0
 12 13  1  0
 13 14  1  0
 14 15  1  0
M  END
