
     RDKit          3D

 14 14  0  0  0  0  0  0  0  0999 V2000
   -2.9300   -1.1220   -0.5130 N   0  0  0  0  0  0  0  0  0  0  0  0
   -2.3200    0.1580   -0.2930 C   0  0  0  0  0  0  0  0  0  0  0  0
   -1.2140    0.1270    0.7310 C   0  0  1  0  0  0  0  0  0  0  0  0
   -0.6930    1.3980    0.8720 O   0  0  0  0  0  0  0  0  0  0  0  0
   -1.6940   -0.3310    2.0790 C   0  0  0  0  0  0  0  0  0  0  0  0
   -0.5640   -0.3220    2.9290 O   0  0  0  0  0  0  0  0  0  0  0  0
   -0.1010   -0.7980    0.3020 C   0  0  1  0  0  0  0  0  0  0  0  0
   -0.5730   -2.1130    0.1400 O   0  0  0  0  0  0  0  0  0  0  0  0
    0.5740   -0.3380   -0.9770 C   0  0  2  0  0  0  0  0  0  0  0  0
    1.7140   -1.3190   -1.2310 C   0  0  0  0  0  0  0  0  0  0  0  0
    2.6020   -1.1510   -0.1660 O   0  0  0  0  0  0  0  0  0  0  0  0
    3.2340    0.0590   -0.3460 C   0  0  0  0  0  0  0  0  0  0  0  0
    2.3820    1.1110   -0.9640 C   0  0  0  0  0  0  0  0  0  0  0  0
    1.0360    0.9370   -0.8320 O   0  0  0  0  0  0  0  0  0  0  0  0
  1  2  1  0
  2  3  1  0
  3  4  1  1
  3  5  1  0
  3  7  1  0
  5  6  1  0
  7  8  1  6
  7  9  1  0
  9 10  1  1
  9 14  1  0
 10 11  1  0
 11 12  1  0
 12 13  1  0
 13 14  1  0
M  END
