
     RDKit          3D

 15 15  0  0  0  0  0  0  0  0999 V2000
    2.6140    1.6750   -0.3040 O   0  0  0  0  0  0  0  0  0  0  0  0
    2.5320    0.4690    0.0030 C   0  0  0  0  0  0  0  0  0  0  0  0
    3.3960   -0.0260    1.1070 C   0  0  0  0  0  0  0  0  0  0  0  0
    3.1990   -1.3850    1.3390 O   0  0  0  0  0  0  0  0  0  0  0  0
    1.6280   -0.3550   -0.7120 N   0  0  0  0  0  0  0  0  0  0  0  0
    0.7880    0.1310   -1.7880 C   0  0  1  0  0  0  0  0  0  0  0  0
    1.2110   -0.5550   -2.9470 O   0  0  0  0  0  0  0  0  0  0  0  0
   -0.6580   -0.2540   -1.5780 C   0  0  2  0  0  0  0  0  0  0  0  0
   -1.4470    0.2220   -2.6230 O   0  0  0  0  0  0  0  0  0  0  0  0
   -1.2260    0.2690   -0.2910 C   0  0  1  0  0  0  0  0  0  0  0  0
   -2.6320   -0.3080   -0.1610 C   0  0  0  0  0  0  0  0  0  0  0  0
   -3.2710    0.3830    0.8390 O   0  0  0  0  0  0  0  0  0  0  0  0
   -2.4220    1.0980    1.6480 C   0  0  0  0  0  0  0  0  0  0  0  0
   -1.1190    0.4240    1.9380 C   0  0  0  0  0  0  0  0  0  0  0  0
   -0.5230   -0.1380    0.8270 O   0  0  0  0  0  0  0  0  0  0  0  0
  1  2  2  0
  2  3  1  0
  2  5  1  0
  3  4  1  0
  5  6  1  0
  6  7  1  6
  6  8  1  0
  8  9  1  6
  8 10  1  0
 10 11  1  1
 10 15  1  0
 11 12  1  0
 12 13  1  0
 13 14  1  0
 14 15  1  0
M  END
