
     RDKit          3D

 14 14  0  0  0  0  0  0  0  0999 V2000
    3.8650    0.5860    0.9570 C   0  0  0  0  0  0  0  0  0  0  0  0
    3.5250    0.8050   -0.3490 O   0  0  0  0  0  0  0  0  0  0  0  0
    2.9740   -0.3210   -0.9140 C   0  0  0  0  0  0  0  0  0  0  0  0
    1.7310   -0.7300   -0.1990 C   0  0  2  0  0  0  0  0  0  0  0  0
    1.1820   -1.8740   -0.8260 O   0  0  0  0  0  0  0  0  0  0  0  0
    0.7280    0.3990   -0.2300 C   0  0  1  0  0  0  0  0  0  0  0  0
    0.3870    0.7320   -1.5400 O   0  0  0  0  0  0  0  0  0  0  0  0
   -0.9220    1.2260   -1.3820 C   0  0  0  0  0  0  0  0  0  0  0  0
   -1.4860    0.1440   -0.4600 C   0  0  2  0  0  0  0  0  0  0  0  0
   -2.7360    0.6250    0.2390 C   0  0  2  0  0  0  0  0  0  0  0  0
   -2.4970    1.8240    0.8670 O   0  0  0  0  0  0  0  0  0  0  0  0
   -3.0990   -0.4440    1.2630 C   0  0  0  0  0  0  0  0  0  0  0  0
   -3.3480   -1.7010    0.6000 N   0  0  0  0  0  0  0  0  0  0  0  0
   -0.4220   -0.0510    0.3950 O   0  0  0  0  0  0  0  0  0  0  0  0
  1  2  1  0
  2  3  1  0
  3  4  1  0
  4  5  1  6
  4  6  1  0
  6  7  1  6
  6 14  1  0
  7  8  1  0
  9  8  1  6
  9 10  1  0
  9 14  1  0
 10 11  1  1
 10 12  1  0
 12 13  1  0
M  END
