
     RDKit          3D

 15 15  0  0  0  0  0  0  0  0999 V2000
    4.0510    0.1020    1.0430 N   0  0  0  0  0  0  0  0  0  0  0  0
    2.8380   -0.5910    1.2090 C   0  0  0  0  0  0  0  0  0  0  0  0
    2.6820   -1.2250    2.2870 O   0  0  0  0  0  0  0  0  0  0  0  0
    1.8370   -0.5420    0.1380 C   0  0  2  0  0  0  0  0  0  0  0  0
    2.3060    0.2350   -0.9150 O   0  0  0  0  0  0  0  0  0  0  0  0
    0.5230    0.0580    0.5820 C   0  0  0  0  0  0  0  0  0  0  0  0
   -0.4100    0.0520   -0.5930 C   0  0  1  0  0  0  0  0  0  0  0  0
    0.1810    0.8200   -1.6030 O   0  0  0  0  0  0  0  0  0  0  0  0
   -0.4760   -1.2510   -1.0750 O   0  0  0  0  0  0  0  0  0  0  0  0
   -1.1520   -2.1170   -0.2600 C   0  0  0  0  0  0  0  0  0  0  0  0
   -2.4210   -1.5600    0.3230 C   0  0  0  0  0  0  0  0  0  0  0  0
   -2.2620   -0.2560    0.7950 O   0  0  0  0  0  0  0  0  0  0  0  0
   -1.7940    0.4940   -0.2730 C   0  0  1  0  0  0  0  0  0  0  0  0
   -1.9510    1.9680   -0.0760 C   0  0  0  0  0  0  0  0  0  0  0  0
   -1.2850    2.4580    1.0210 O   0  0  0  0  0  0  0  0  0  0  0  0
  1  2  1  0
  2  3  2  0
  2  4  1  0
  4  5  1  6
  4  6  1  0
  6  7  1  0
  7  8  1  6
  7  9  1  0
  7 13  1  0
  9 10  1  0
 10 11  1  0
 11 12  1  0
 12 13  1  0
 13 14  1  1
 14 15  1  0
M  END
