
     RDKit          3D

 15 15  0  0  0  0  0  0  0  0999 V2000
    4.8550    1.1180   -0.2140 O   0  0  0  0  0  0  0  0  0  0  0  0
    3.6180    0.8630    0.3330 C   0  0  0  0  0  0  0  0  0  0  0  0
    2.7910    0.0290   -0.6290 C   0  0  0  0  0  0  0  0  0  0  0  0
    1.4350   -0.2210    0.0140 C   0  0  2  0  0  0  0  0  0  0  0  0
    0.8280    0.9920    0.2520 O   0  0  0  0  0  0  0  0  0  0  0  0
    1.6170   -0.8510    1.2700 O   0  0  0  0  0  0  0  0  0  0  0  0
    0.5590   -1.0800   -0.8330 C   0  0  2  0  0  0  0  0  0  0  0  0
    0.4320   -0.4730   -2.1180 O   0  0  0  0  0  0  0  0  0  0  0  0
   -0.6410   -1.4480   -0.2750 N   0  0  0  0  0  0  0  0  0  0  0  0
   -1.7240   -0.7140    0.1120 C   0  0  1  0  0  0  0  0  0  0  0  0
   -1.6420    0.2500    1.2460 C   0  0  0  0  0  0  0  0  0  0  0  0
   -2.9000    0.1790    1.9210 O   0  0  0  0  0  0  0  0  0  0  0  0
   -3.8790    0.2250    0.9510 C   0  0  0  0  0  0  0  0  0  0  0  0
   -3.3900    0.7330   -0.3770 C   0  0  0  0  0  0  0  0  0  0  0  0
   -2.3620    0.0020   -0.9350 O   0  0  0  0  0  0  0  0  0  0  0  0
  1  2  1  0
  2  3  1  0
  3  4  1  0
  4  5  1  1
  4  6  1  0
  4  7  1  0
  7  8  1  6
  7  9  1  0
 10  9  1  6
 10 11  1  0
 10 15  1  0
 11 12  1  0
 12 13  1  0
 13 14  1  0
 14 15  1  0
M  END
