
     RDKit          3D

 14 14  0  0  0  0  0  0  0  0999 V2000
    4.7120    0.4840   -1.0310 O   0  0  0  0  0  0  0  0  0  0  0  0
    3.4910    0.5480   -0.3070 C   0  0  0  0  0  0  0  0  0  0  0  0
    2.3760    0.5590   -1.3060 C   0  0  0  0  0  0  0  0  0  0  0  0
    1.1480    0.6290   -0.6880 O   0  0  0  0  0  0  0  0  0  0  0  0
    0.9380   -0.4540    0.1390 C   0  0  0  0  0  0  0  0  0  0  0  0
   -0.4310   -0.4030    0.7950 C   0  0  1  0  0  0  0  0  0  0  0  0
   -0.6270   -1.4960    1.6210 O   0  0  0  0  0  0  0  0  0  0  0  0
   -0.6000    0.8430    1.6340 C   0  0  0  0  0  0  0  0  0  0  0  0
   -2.0010    1.1530    1.6560 N   0  0  0  0  0  0  0  0  0  0  0  0
   -2.6460    0.3180    0.6630 C   0  0  0  0  0  0  0  0  0  0  0  0
   -1.5400   -0.2240   -0.2200 C   0  0  1  0  0  0  0  0  0  0  0  0
   -1.1170    0.7070   -1.1430 O   0  0  0  0  0  0  0  0  0  0  0  0
   -1.9280   -1.5370   -0.8600 C   0  0  0  0  0  0  0  0  0  0  0  0
   -2.9670   -1.2760   -1.7520 O   0  0  0  0  0  0  0  0  0  0  0  0
  1  2  1  0
  2  3  1  0
  3  4  1  0
  4  5  1  0
  5  6  1  0
  6  7  1  1
  6  8  1  0
  6 11  1  0
  8  9  1  0
  9 10  1  0
 10 11  1  0
 11 12  1  6
 11 13  1  0
 13 14  1  0
M  END
