
     RDKit          3D

 19 21  0  0  0  0  0  0  0  0999 V2000
   -2.1950    1.3890   -2.2060 C   0  0  0  0  0  0  0  0  0  0  0  0
   -2.9120    0.6580   -1.1020 C   0  0  0  0  0  0  0  0  0  0  0  0
   -4.2760    0.7550   -0.9730 C   0  0  0  0  0  0  0  0  0  0  0  0
   -4.9270    1.5330   -1.8810 F   0  0  0  0  0  0  0  0  0  0  0  0
   -4.9400    0.0970    0.0230 C   0  0  0  0  0  0  0  0  0  0  0  0
   -4.2440   -0.6900    0.9340 C   0  0  0  0  0  0  0  0  0  0  0  0
   -2.8810   -0.7750    0.7900 C   0  0  0  0  0  0  0  0  0  0  0  0
   -2.2110   -0.1120   -0.2150 C   0  0  0  0  0  0  0  0  0  0  0  0
   -0.7870   -0.2190   -0.3410 N   0  0  0  0  0  0  0  0  0  0  0  0
   -0.0830   -1.0370    0.6100 C   0  0  0  0  0  0  0  0  0  0  0  0
    1.3600   -1.0730    0.3860 C   0  0  0  0  0  0  0  0  0  0  0  0
    2.1120   -2.1450    0.1280 C   0  0  0  0  0  0  0  0  0  0  0  0
    3.5340   -2.0790   -0.1100 C   0  0  0  0  0  0  0  0  0  0  0  0
    4.1970   -0.9210   -0.1260 C   0  0  0  0  0  0  0  0  0  0  0  0
    3.4520    0.3010    0.0710 C   0  0  2  0  0  0  0  0  0  0  0  0
    4.0220    1.4680    0.6170 N   0  0  0  0  0  0  0  0  0  0  0  0
    3.2280    2.0010    1.5080 C   0  0  0  0  0  0  0  0  0  0  0  0
    2.0390    1.1310    1.5880 C   0  0  0  0  0  0  0  0  0  0  0  0
    2.1770    0.1100    0.7460 C   0  0  0  0  0  0  0  0  0  0  0  0
  1  2  1  0
  2  3  2  0
  2  8  1  0
  3  4  1  0
  3  5  1  0
  5  6  2  0
  6  7  1  0
  7  8  2  0
  8  9  1  0
  9 10  1  0
 10 11  1  0
 11 12  2  0
 11 19  1  0
 12 13  1  0
 13 14  2  0
 15 14  1  1
 15 16  1  0
 15 19  1  0
 16 17  2  0
 17 18  1  0
 18 19  2  0
M  CHG  1  16   1
M  END
