
     RDKit          3D

 19 21  0  0  0  0  0  0  0  0999 V2000
   -4.5490    1.9760    0.7350 C   0  0  0  0  0  0  0  0  0  0  0  0
   -4.0660    0.8200   -0.0210 N   0  0  0  0  0  0  0  0  0  0  0  0
   -2.6510    0.7030    0.2710 C   0  0  0  0  0  0  0  0  0  0  0  0
   -2.0270   -0.4290   -0.4510 C   0  0  0  0  0  0  0  0  0  0  0  0
   -2.7750   -1.2320   -1.2870 C   0  0  0  0  0  0  0  0  0  0  0  0
   -2.1970   -2.2870   -1.9600 C   0  0  0  0  0  0  0  0  0  0  0  0
   -0.8350   -2.5520   -1.8000 C   0  0  0  0  0  0  0  0  0  0  0  0
   -0.2770   -3.5840   -2.4610 F   0  0  0  0  0  0  0  0  0  0  0  0
   -0.1040   -1.7260   -0.9510 C   0  0  0  0  0  0  0  0  0  0  0  0
   -0.6720   -0.6690   -0.2720 C   0  0  0  0  0  0  0  0  0  0  0  0
    0.0680    0.2220    0.6110 C   0  0  0  0  0  0  0  0  0  0  0  0
    1.4460   -0.0580    0.8010 N   0  0  0  0  0  0  0  0  0  0  0  0
    2.0000   -1.2130    1.4800 C   0  0  0  0  0  0  0  0  0  0  0  0
    3.3380   -1.4620    0.8130 C   0  0  0  0  0  0  0  0  0  0  0  0
    3.7220   -0.1050    0.3480 C   0  0  0  0  0  0  0  0  0  0  0  0
    4.7880    0.5500   -0.0560 C   0  0  0  0  0  0  0  0  0  0  0  0
    4.3920    1.9300   -0.3670 C   0  0  0  0  0  0  0  0  0  0  0  0
    2.9370    1.9290   -0.0690 C   0  0  0  0  0  0  0  0  0  0  0  0
    2.5490    0.7390    0.3490 C   0  0  0  0  0  0  0  0  0  0  0  0
  1  2  1  0
  2  3  1  0
  3  4  1  0
  4  5  2  0
  4 10  1  0
  5  6  1  0
  6  7  2  0
  7  8  1  0
  7  9  1  0
  9 10  2  0
 10 11  1  0
 11 12  1  0
 12 13  1  0
 12 19  1  0
 13 14  1  0
 14 15  1  0
 15 16  2  0
 15 19  1  0
 16 17  1  0
 17 18  1  0
 18 19  2  0
M  CHG  1   2   1
M  END
