
     RDKit          3D

 19 21  0  0  0  0  0  0  0  0999 V2000
    5.3560    0.6660    1.0870 C   0  0  0  0  0  0  0  0  0  0  0  0
    3.8730    0.4580    0.8510 C   0  0  0  0  0  0  0  0  0  0  0  0
    3.5390   -0.0670   -0.2980 C   0  0  0  0  0  0  0  0  0  0  0  0
    2.1220   -0.2990   -0.5980 C   0  0  0  0  0  0  0  0  0  0  0  0
    1.2170    0.0140    0.2720 C   0  0  0  0  0  0  0  0  0  0  0  0
    1.4840    0.5960    1.5870 C   0  0  0  0  0  0  0  0  0  0  0  0
    2.9130    0.8500    1.8810 C   0  0  0  0  0  0  0  0  0  0  0  0
   -0.2060   -0.1710   -0.1400 C   0  0  0  0  0  0  0  0  0  0  0  0
   -1.1880    0.0650    0.7460 N   0  0  0  0  0  0  0  0  0  0  0  0
   -2.4900   -0.1660    0.4020 C   0  0  0  0  0  0  0  0  0  0  0  0
   -3.5850    0.0890    1.3620 C   0  0  0  0  0  0  0  0  0  0  0  0
   -4.3430    1.3690    1.0800 C   0  0  0  0  0  0  0  0  0  0  0  0
   -5.3530    1.5680    1.9990 F   0  0  0  0  0  0  0  0  0  0  0  0
   -2.8060   -0.6410   -0.8490 C   0  0  0  0  0  0  0  0  0  0  0  0
   -4.2230   -0.9150   -1.2650 C   0  0  0  0  0  0  0  0  0  0  0  0
   -1.8140   -0.8920   -1.7820 C   0  0  0  0  0  0  0  0  0  0  0  0
   -0.4950   -0.6380   -1.3840 C   0  0  0  0  0  0  0  0  0  0  0  0
    0.5630   -0.8280   -2.3830 C   0  0  0  0  0  0  0  0  0  0  0  0
    1.8560   -0.9400   -1.8500 N   0  0  0  0  0  0  0  0  0  0  0  0
  1  2  1  0
  2  3  2  0
  2  7  1  0
  3  4  1  0
  4  5  2  0
  4 19  1  0
  5  6  1  0
  5  8  1  0
  6  7  1  0
  8  9  2  0
  8 17  1  0
  9 10  1  0
 10 11  1  0
 10 14  2  0
 11 12  1  0
 12 13  1  0
 14 15  1  0
 14 16  1  0
 16 17  2  0
 17 18  1  0
 18 19  1  0
M  CHG  1  19   1
M  END
