
     RDKit          3D

 19 21  0  0  0  0  0  0  0  0999 V2000
    4.6680   -3.1660    0.5750 C   0  0  0  0  0  0  0  0  0  0  0  0
    3.3180   -2.5760    0.6050 C   0  0  0  0  0  0  0  0  0  0  0  0
    2.2930   -3.3470    0.9890 F   0  0  0  0  0  0  0  0  0  0  0  0
    3.1240   -1.3250    0.2630 C   0  0  0  0  0  0  0  0  0  0  0  0
    1.7920   -0.7620    0.2980 C   0  0  0  0  0  0  0  0  0  0  0  0
    1.5570    0.5100   -0.0500 C   0  0  0  0  0  0  0  0  0  0  0  0
    2.6750    1.3690   -0.4810 C   0  0  0  0  0  0  0  0  0  0  0  0
    2.1940    2.6920   -0.9620 C   0  0  0  0  0  0  0  0  0  0  0  0
    1.1880    3.3140   -0.0060 C   0  0  0  0  0  0  0  0  0  0  0  0
    0.0250    2.3860    0.0580 C   0  0  0  0  0  0  0  0  0  0  0  0
   -1.2430    2.8930    0.1330 C   0  0  0  0  0  0  0  0  0  0  0  0
   -2.2900    2.0290    0.1460 C   0  0  0  0  0  0  0  0  0  0  0  0
   -2.1250    0.6000    0.0830 C   0  0  0  0  0  0  0  0  0  0  0  0
   -3.3210   -0.1060    0.1050 N   0  0  0  0  0  0  0  0  0  0  0  0
   -4.4820   -0.7920    0.1270 C   0  0  1  0  0  0  0  0  0  0  0  0
   -4.8650   -1.6920   -1.0670 C   0  0  0  0  0  0  0  0  0  0  0  0
   -4.7620   -2.2310    0.3810 C   0  0  0  0  0  0  0  0  0  0  0  0
   -0.8660    0.1870    0.0130 N   0  0  0  0  0  0  0  0  0  0  0  0
    0.2070    1.0220   -0.0010 C   0  0  0  0  0  0  0  0  0  0  0  0
  1  2  1  0
  2  3  1  0
  2  4  2  3
  4  5  1  0
  5  6  2  3
  6  7  1  0
  6 19  1  0
  7  8  1  0
  8  9  1  0
  9 10  1  0
 10 11  2  0
 10 19  1  0
 11 12  1  0
 12 13  2  0
 13 14  1  0
 13 18  1  0
 15 14  1  6
 15 16  1  0
 15 17  1  0
 16 17  1  0
 18 19  2  0
M  CHG  1  18   1
M  END
