
     RDKit          3D

 19 21  0  0  0  0  0  0  0  0999 V2000
    7.3420    0.5730    1.2290 F   0  0  0  0  0  0  0  0  0  0  0  0
    5.9760    0.4830    1.1000 C   0  0  0  0  0  0  0  0  0  0  0  0
    5.2040    0.6120    2.2080 C   0  0  0  0  0  0  0  0  0  0  0  0
    3.8110    0.5660    2.0700 C   0  0  0  0  0  0  0  0  0  0  0  0
    3.2920    0.3920    0.8200 C   0  0  0  0  0  0  0  0  0  0  0  0
    1.8540    0.5260    0.5680 C   0  0  0  0  0  0  0  0  0  0  0  0
    1.3480   -0.1590   -0.5840 N   0  0  0  0  0  0  0  0  0  0  0  0
    0.4830    0.6830   -1.3350 C   0  0  0  0  0  0  0  0  0  0  0  0
   -0.9380    0.3540   -1.3090 C   0  0  0  0  0  0  0  0  0  0  0  0
   -1.7220    0.0940   -2.4040 C   0  0  0  0  0  0  0  0  0  0  0  0
   -3.0810   -0.1270   -2.2830 C   0  0  0  0  0  0  0  0  0  0  0  0
   -3.6880   -0.0790   -1.0100 C   0  0  0  0  0  0  0  0  0  0  0  0
   -2.9200    0.1780    0.0850 C   0  0  0  0  0  0  0  0  0  0  0  0
   -1.5910    0.3860   -0.0560 C   0  0  0  0  0  0  0  0  0  0  0  0
   -3.7630    0.2150    1.3120 C   0  0  0  0  0  0  0  0  0  0  0  0
   -5.1730    0.2100    0.7740 C   0  0  0  0  0  0  0  0  0  0  0  0
   -5.1170   -0.2740   -0.6500 C   0  0  0  0  0  0  0  0  0  0  0  0
    4.1570    0.2570   -0.2760 C   0  0  0  0  0  0  0  0  0  0  0  0
    5.4540    0.3110   -0.1130 N   0  0  0  0  0  0  0  0  0  0  0  0
  1  2  1  0
  2  3  2  0
  2 19  1  0
  3  4  1  0
  4  5  2  0
  5  6  1  0
  5 18  1  0
  6  7  1  0
  7  8  1  0
  8  9  1  0
  9 10  2  0
  9 14  1  0
 10 11  1  0
 11 12  2  0
 12 13  1  0
 12 17  1  0
 13 14  2  0
 13 15  1  0
 15 16  1  0
 16 17  1  0
 18 19  2  0
M  CHG  1  19   1
M  END
