
     RDKit          3D

 19 21  0  0  0  0  0  0  0  0999 V2000
    4.5940   -1.5020    0.5210 C   0  0  0  0  0  0  0  0  0  0  0  0
    4.3970   -0.7340   -0.6980 N   0  0  0  0  0  0  0  0  0  0  0  0
    3.4970    0.3410   -0.3930 C   0  0  0  0  0  0  0  0  0  0  0  0
    2.0860    0.0020   -0.4100 C   0  0  0  0  0  0  0  0  0  0  0  0
    1.5630   -1.2440   -0.6620 C   0  0  0  0  0  0  0  0  0  0  0  0
    0.2210   -1.5390   -0.6720 C   0  0  0  0  0  0  0  0  0  0  0  0
   -0.6520   -0.4770   -0.4040 C   0  0  0  0  0  0  0  0  0  0  0  0
   -0.1870    0.7940   -0.1440 C   0  0  0  0  0  0  0  0  0  0  0  0
    1.1710    1.0060   -0.1530 C   0  0  0  0  0  0  0  0  0  0  0  0
   -1.2470    1.6550    0.0870 C   0  0  0  0  0  0  0  0  0  0  0  0
   -1.3280    3.0000    0.3850 C   0  0  0  0  0  0  0  0  0  0  0  0
   -2.5720    3.5970    0.5660 C   0  0  0  0  0  0  0  0  0  0  0  0
   -3.7110    2.8270    0.4430 C   0  0  0  0  0  0  0  0  0  0  0  0
   -3.5980    1.4950    0.1470 C   0  0  0  0  0  0  0  0  0  0  0  0
   -2.3750    0.8660   -0.0400 C   0  0  0  0  0  0  0  0  0  0  0  0
   -2.0010   -0.3970   -0.3320 N   0  0  0  0  0  0  0  0  0  0  0  0
   -2.8840   -1.5260   -0.5440 C   0  0  0  0  0  0  0  0  0  0  0  0
   -3.1330   -2.2280    0.7990 C   0  0  0  0  0  0  0  0  0  0  0  0
   -3.9700   -3.3070    0.6300 F   0  0  0  0  0  0  0  0  0  0  0  0
  1  2  1  0
  2  3  1  0
  3  4  1  0
  4  5  2  0
  4  9  1  0
  5  6  1  0
  6  7  2  0
  7  8  1  0
  7 16  1  0
  8  9  2  0
  8 10  1  0
 10 11  2  0
 10 15  1  0
 11 12  1  0
 12 13  2  0
 13 14  1  0
 14 15  2  0
 15 16  1  0
 16 17  1  0
 17 18  1  0
 18 19  1  0
M  CHG  1   2   1
M  END
