
     RDKit          3D

 19 20  0  0  0  0  0  0  0  0999 V2000
    1.9430   -2.8490   -1.2330 C   0  0  0  0  0  0  0  0  0  0  0  0
    2.0230   -2.3000    0.1830 C   0  0  0  0  0  0  0  0  0  0  0  0
    1.1640   -1.1500    0.2650 N   0  0  0  0  0  0  0  0  0  0  0  0
   -0.2930   -1.3470    0.2000 C   0  0  0  0  0  0  0  0  0  0  0  0
   -0.8670   -0.0230    0.2110 C   0  0  0  0  0  0  0  0  0  0  0  0
    0.0730    0.9230    0.3630 C   0  0  0  0  0  0  0  0  0  0  0  0
    0.0450    2.3750    0.4430 C   0  0  0  0  0  0  0  0  0  0  0  0
   -1.2240    3.0470    0.7700 C   0  0  0  0  0  0  0  0  0  0  0  0
   -2.3420    2.7470   -0.1320 C   0  0  0  0  0  0  0  0  0  0  0  0
   -2.8200    1.5480   -0.4510 C   0  0  0  0  0  0  0  0  0  0  0  0
   -3.8590    1.4730   -1.3020 F   0  0  0  0  0  0  0  0  0  0  0  0
   -2.3100    0.2400    0.0320 C   0  0  0  0  0  0  0  0  0  0  0  0
   -3.1920   -0.6830    0.2910 C   0  0  0  0  0  0  0  0  0  0  0  0
   -4.6410   -0.3000    0.0710 C   0  0  0  0  0  0  0  0  0  0  0  0
   -2.9770   -2.0570    0.7810 C   0  0  0  0  0  0  0  0  0  0  0  0
    1.3830    0.2170    0.3990 C   0  0  0  0  0  0  0  0  0  0  0  0
    2.5580    0.8120    0.5120 C   0  0  0  0  0  0  0  0  0  0  0  0
    3.8200    0.1800    0.5170 N   0  0  0  0  0  0  0  0  0  0  0  0
    4.8370    1.2560    0.4710 C   0  0  0  0  0  0  0  0  0  0  0  0
  1  2  1  0
  2  3  1  0
  3  4  1  0
  3 16  1  0
  4  5  1  0
  5  6  2  0
  5 12  1  0
  6  7  1  0
  6 16  1  0
  7  8  1  0
  8  9  1  0
  9 10  2  0
 10 11  1  0
 10 12  1  0
 12 13  2  3
 13 14  1  0
 13 15  1  0
 16 17  2  3
 17 18  1  0
 18 19  1  0
M  CHG  1  18   1
M  END
