
     RDKit          3D

 20 22  0  0  0  0  0  0  0  0999 V2000
   -4.2870    1.0350    1.4950 F   0  0  0  0  0  0  0  0  0  0  0  0
   -4.9730    0.0970    0.7660 C   0  0  2  0  0  0  0  0  0  0  0  0
   -4.9130   -1.1170    1.4050 F   0  0  0  0  0  0  0  0  0  0  0  0
   -4.4040   -0.0170   -0.6520 C   0  0  0  0  0  0  0  0  0  0  0  0
   -2.9890   -0.4140   -0.5990 C   0  0  0  0  0  0  0  0  0  0  0  0
   -2.5590   -1.7210   -0.6060 C   0  0  0  0  0  0  0  0  0  0  0  0
   -1.2490   -2.0290   -0.5550 N   0  0  0  0  0  0  0  0  0  0  0  0
   -0.2770   -1.0900   -0.4950 C   0  0  0  0  0  0  0  0  0  0  0  0
   -0.6720    0.2270   -0.4860 C   0  0  0  0  0  0  0  0  0  0  0  0
    0.3510    1.3290   -0.4200 C   0  0  2  0  0  0  0  0  0  0  0  0
    1.1700    1.3120   -1.6610 C   0  0  0  0  0  0  0  0  0  0  0  0
    2.5970    1.1720   -1.4510 N   0  0  0  0  0  0  0  0  0  0  0  0
    3.0620    0.4170   -0.3530 C   0  0  0  0  0  0  0  0  0  0  0  0
    4.2120   -0.3570   -0.3990 C   0  0  0  0  0  0  0  0  0  0  0  0
    4.6350   -1.0880    0.6940 C   0  0  0  0  0  0  0  0  0  0  0  0
    3.9040   -1.0560    1.8630 C   0  0  0  0  0  0  0  0  0  0  0  0
    2.7590   -0.2930    1.9280 C   0  0  0  0  0  0  0  0  0  0  0  0
    2.3380    0.4440    0.8170 C   0  0  0  0  0  0  0  0  0  0  0  0
    1.1160    1.2800    0.8640 C   0  0  0  0  0  0  0  0  0  0  0  0
   -2.0110    0.5630   -0.5370 C   0  0  0  0  0  0  0  0  0  0  0  0
  2  1  1  1
  2  3  1  0
  2  4  1  0
  4  5  1  0
  5  6  2  0
  5 20  1  0
  6  7  1  0
  7  8  2  0
  8  9  1  0
 10  9  1  6
  9 20  2  0
 10 11  1  0
 10 19  1  0
 11 12  1  0
 12 13  1  0
 13 14  2  0
 13 18  1  0
 14 15  1  0
 15 16  2  0
 16 17  1  0
 17 18  2  0
 18 19  1  0
M  CHG  1   7   1
M  END
