
     RDKit          3D

 22 23  0  0  0  0  0  0  0  0999 V2000
    8.0340    1.2190    1.5770 C   0  0  0  0  0  0  0  0  0  0  0  0
    7.1970    0.2060    1.0890 O   0  0  0  0  0  0  0  0  0  0  0  0
    5.8210    0.4480    0.9210 C   0  0  0  0  0  0  0  0  0  0  0  0
    5.4150    1.5850    1.2260 O   0  0  0  0  0  0  0  0  0  0  0  0
    4.9440   -0.5220    0.4400 N   0  0  0  0  0  0  0  0  0  0  0  0
    3.5410   -0.3820    0.2320 C   0  0  0  0  0  0  0  0  0  0  0  0
    2.8330    0.7770    0.4020 C   0  0  0  0  0  0  0  0  0  0  0  0
    1.4630    0.8160    0.1800 C   0  0  0  0  0  0  0  0  0  0  0  0
    0.7410   -0.3070   -0.2240 C   0  0  0  0  0  0  0  0  0  0  0  0
   -0.6630   -0.1380   -0.4070 N   0  0  0  0  0  0  0  0  0  0  0  0
   -1.5560   -1.0240   -1.0010 C   0  0  0  0  0  0  0  0  0  0  0  0
   -1.0230   -2.1280   -1.4190 O   0  0  0  0  0  0  0  0  0  0  0  0
   -2.9900   -0.8870   -1.2200 C   0  0  0  0  0  0  0  0  0  0  0  0
   -3.8560    0.0600   -0.9920 C   0  0  0  0  0  0  0  0  0  0  0  0
   -3.6270    1.3880   -0.4030 C   0  0  0  0  0  0  0  0  0  0  0  0
   -4.0810    1.5480    1.0210 C   0  0  0  0  0  0  0  0  0  0  0  0
   -5.8230    1.3060    1.3110 S   0  0  0  0  0  0  0  0  0  0  0  0
   -5.2430   -0.3980   -1.4520 C   0  0  0  0  0  0  0  0  0  0  0  0
   -5.0810   -1.8480   -1.2240 N   0  0  0  0  0  0  0  0  0  0  0  0
   -3.8010   -2.0220   -1.8690 C   0  0  0  0  0  0  0  0  0  0  0  0
    1.4610   -1.4420   -0.3860 C   0  0  0  0  0  0  0  0  0  0  0  0
    2.8110   -1.5060   -0.1740 C   0  0  0  0  0  0  0  0  0  0  0  0
  1  2  1  0
  2  3  1  0
  3  4  2  0
  3  5  1  0
  5  6  1  0
  6  7  2  0
  6 22  1  0
  7  8  1  0
  8  9  2  0
  9 10  1  0
  9 21  1  0
 10 11  1  0
 11 12  2  0
 11 13  1  0
 13 14  2  0
 13 20  1  0
 14 15  1  0
 14 18  1  0
 15 16  1  0
 16 17  1  0
 18 19  1  0
 19 20  1  0
 21 22  2  0
M  END
