
     RDKit          3D

 20 22  0  0  0  0  0  0  0  0999 V2000
   -1.3100   -2.2300   -1.7220 C   0  0  0  0  0  0  0  0  0  0  0  0
   -1.9670   -1.5410   -0.5720 C   0  0  0  0  0  0  0  0  0  0  0  0
   -2.8630   -1.9740    0.3250 N   0  0  0  0  0  0  0  0  0  0  0  0
   -3.2100   -0.9740    1.1670 N   0  0  0  0  0  0  0  0  0  0  0  0
   -2.5570    0.1380    0.8500 C   0  0  0  0  0  0  0  0  0  0  0  0
   -1.7620   -0.2230   -0.2580 C   0  0  0  0  0  0  0  0  0  0  0  0
   -0.9270    0.8320   -0.8040 C   0  0  0  0  0  0  0  0  0  0  0  0
    0.3430    0.6070   -1.0280 C   0  0  0  0  0  0  0  0  0  0  0  0
    1.1510   -0.5770   -0.8060 C   0  0  0  0  0  0  0  0  0  0  0  0
    2.4020   -0.3220   -0.0180 C   0  0  0  0  0  0  0  0  0  0  0  0
    3.2380   -1.4270    0.1190 C   0  0  0  0  0  0  0  0  0  0  0  0
    4.4170   -1.3210    0.8240 C   0  0  0  0  0  0  0  0  0  0  0  0
    5.2430   -2.3920    0.9670 F   0  0  0  0  0  0  0  0  0  0  0  0
    4.8050   -0.1140    1.4150 C   0  0  0  0  0  0  0  0  0  0  0  0
    3.9550    0.9540    1.2580 C   0  0  0  0  0  0  0  0  0  0  0  0
    2.7590    0.8500    0.5450 C   0  0  0  0  0  0  0  0  0  0  0  0
    1.9620    1.9190    0.4270 F   0  0  0  0  0  0  0  0  0  0  0  0
   -1.5710    2.1680   -0.9990 C   0  0  0  0  0  0  0  0  0  0  0  0
   -2.6120    2.4260    0.0440 C   0  0  0  0  0  0  0  0  0  0  0  0
   -2.4560    1.5760    1.2920 C   0  0  0  0  0  0  0  0  0  0  0  0
  1  2  1  0
  2  3  1  0
  2  6  2  0
  3  4  1  0
  4  5  2  0
  5  6  1  0
  5 20  1  0
  6  7  1  0
  7  8  2  3
  7 18  1  0
  8  9  1  0
  9 10  1  0
 10 11  2  0
 10 16  1  0
 11 12  1  0
 12 13  1  0
 12 14  2  0
 14 15  1  0
 15 16  2  0
 16 17  1  0
 18 19  1  0
 19 20  1  0
M  CHG  1   4   1
M  END
