
     RDKit          3D

 20 22  0  0  0  0  0  0  0  0999 V2000
    4.8520   -1.5730    1.1600 C   0  0  0  0  0  0  0  0  0  0  0  0
    3.8460   -0.7830    0.3910 C   0  0  0  0  0  0  0  0  0  0  0  0
    2.5170   -1.1480    0.3950 C   0  0  0  0  0  0  0  0  0  0  0  0
    1.5690   -0.4020   -0.3310 C   0  0  0  0  0  0  0  0  0  0  0  0
    0.2360   -0.8550   -0.3140 N   0  0  0  0  0  0  0  0  0  0  0  0
   -0.9400   -0.0910   -0.1680 C   0  0  0  0  0  0  0  0  0  0  0  0
   -0.8930    1.2280    0.0640 N   0  0  0  0  0  0  0  0  0  0  0  0
   -2.0300    1.9240    0.2300 C   0  0  0  0  0  0  0  0  0  0  0  0
   -1.8920    3.4040    0.4860 C   0  0  0  0  0  0  0  0  0  0  0  0
   -3.2550    1.3220    0.1690 C   0  0  0  0  0  0  0  0  0  0  0  0
   -4.3870    2.0590    0.3410 F   0  0  0  0  0  0  0  0  0  0  0  0
   -3.3070   -0.0520   -0.0720 C   0  0  0  0  0  0  0  0  0  0  0  0
   -2.1600   -0.7770   -0.2430 C   0  0  0  0  0  0  0  0  0  0  0  0
   -2.4560   -2.0600   -0.4590 C   0  0  0  0  0  0  0  0  0  0  0  0
   -3.9280   -2.2010   -0.4290 C   0  0  0  0  0  0  0  0  0  0  0  0
   -4.3800   -0.8130   -0.1660 C   0  0  0  0  0  0  0  0  0  0  0  0
    2.0170    0.6760   -1.0250 C   0  0  0  0  0  0  0  0  0  0  0  0
    3.3590    1.0490   -1.0320 C   0  0  0  0  0  0  0  0  0  0  0  0
    4.2890    0.3120   -0.3160 C   0  0  0  0  0  0  0  0  0  0  0  0
    5.6080    0.6750   -0.3200 F   0  0  0  0  0  0  0  0  0  0  0  0
  1  2  1  0
  2  3  2  0
  2 19  1  0
  3  4  1  0
  4  5  1  0
  4 17  2  0
  5  6  1  0
  6  7  2  0
  6 13  1  0
  7  8  1  0
  8  9  1  0
  8 10  2  0
 10 11  1  0
 10 12  1  0
 12 13  1  0
 12 16  2  0
 13 14  2  0
 14 15  1  0
 15 16  1  0
 17 18  1  0
 18 19  2  0
 19 20  1  0
M  CHG  1   7   1
M  END
