
     RDKit          3D

 20 22  0  0  0  0  0  0  0  0999 V2000
    4.6650   -0.3570   -1.0040 C   0  0  0  0  0  0  0  0  0  0  0  0
    4.4200   -0.8380    0.3380 N   0  0  0  0  0  0  0  0  0  0  0  0
    3.4830    0.0610    0.9680 C   0  0  0  0  0  0  0  0  0  0  0  0
    2.1060   -0.0980    0.4430 C   0  0  0  0  0  0  0  0  0  0  0  0
    1.8080   -0.9950   -0.5420 C   0  0  0  0  0  0  0  0  0  0  0  0
    0.5110   -1.1150   -1.0060 C   0  0  0  0  0  0  0  0  0  0  0  0
   -0.5160   -0.3310   -0.4850 C   0  0  0  0  0  0  0  0  0  0  0  0
   -0.2180    0.5780    0.5130 C   0  0  0  0  0  0  0  0  0  0  0  0
    1.0920    0.6760    0.9580 C   0  0  0  0  0  0  0  0  0  0  0  0
   -1.3720    1.2560    0.8930 C   0  0  0  0  0  0  0  0  0  0  0  0
   -1.6260    2.2430    1.8240 C   0  0  0  0  0  0  0  0  0  0  0  0
   -2.9240    2.6890    1.9320 C   0  0  0  0  0  0  0  0  0  0  0  0
   -3.9480    2.1820    1.1490 C   0  0  0  0  0  0  0  0  0  0  0  0
   -3.6570    1.1980    0.2310 C   0  0  0  0  0  0  0  0  0  0  0  0
   -2.3690    0.7200    0.0880 C   0  0  0  0  0  0  0  0  0  0  0  0
   -1.8320   -0.2250   -0.7260 N   0  0  0  0  0  0  0  0  0  0  0  0
   -2.5640   -0.9980   -1.7010 C   0  0  0  0  0  0  0  0  0  0  0  0
   -3.1140   -2.2870   -1.1220 C   0  0  1  0  0  0  0  0  0  0  0  0
   -3.9670   -2.0100   -0.0830 F   0  0  0  0  0  0  0  0  0  0  0  0
   -3.8740   -2.8830   -2.1190 F   0  0  0  0  0  0  0  0  0  0  0  0
  1  2  1  0
  2  3  1  0
  3  4  1  0
  4  5  2  0
  4  9  1  0
  5  6  1  0
  6  7  2  0
  7  8  1  0
  7 16  1  0
  8  9  2  0
  8 10  1  0
 10 11  2  0
 10 15  1  0
 11 12  1  0
 12 13  2  0
 13 14  1  0
 14 15  2  0
 15 16  1  0
 16 17  1  0
 17 18  1  0
 18 19  1  1
 18 20  1  0
M  CHG  1   2   1
M  END
