
     RDKit          3D

 20 21  0  0  0  0  0  0  0  0999 V2000
    6.6560    0.0460   -1.3850 C   0  0  0  0  0  0  0  0  0  0  0  0
    5.8080    0.3450   -0.4010 C   0  0  0  0  0  0  0  0  0  0  0  0
    6.2860    1.0950    0.7790 C   0  0  0  0  0  0  0  0  0  0  0  0
    5.6550    2.2890    0.9820 F   0  0  0  0  0  0  0  0  0  0  0  0
    4.4100   -0.0630   -0.4710 C   0  0  0  0  0  0  0  0  0  0  0  0
    3.9960   -0.7700   -1.5690 F   0  0  0  0  0  0  0  0  0  0  0  0
    3.5900    0.2300    0.4880 C   0  0  0  0  0  0  0  0  0  0  0  0
    2.1710   -0.1100    0.5550 C   0  0  0  0  0  0  0  0  0  0  0  0
    1.5110   -0.5540    1.7150 C   0  0  0  0  0  0  0  0  0  0  0  0
    0.2170   -0.7670    1.4220 N   0  0  0  0  0  0  0  0  0  0  0  0
   -0.0210   -0.4910    0.1370 C   0  0  0  0  0  0  0  0  0  0  0  0
   -1.3010   -0.5770   -0.6270 C   0  0  0  0  0  0  0  0  0  0  0  0
   -2.4090   -1.0310    0.1710 N   0  0  0  0  0  0  0  0  0  0  0  0
   -3.5250   -0.1430   -0.0670 C   0  0  2  0  0  0  0  0  0  0  0  0
   -4.2470    0.2270    1.2280 C   0  0  0  0  0  0  0  0  0  0  0  0
   -5.4760    0.9140    0.6700 C   0  0  0  0  0  0  0  0  0  0  0  0
   -5.8360    0.0980   -0.5320 C   0  0  0  0  0  0  0  0  0  0  0  0
   -4.6220   -0.7390   -0.8780 C   0  0  0  0  0  0  0  0  0  0  0  0
    1.1950   -0.0800   -0.4060 C   0  0  0  0  0  0  0  0  0  0  0  0
    1.3660    0.3290   -1.8210 C   0  0  0  0  0  0  0  0  0  0  0  0
  1  2  2  0
  2  3  1  0
  2  5  1  0
  3  4  1  0
  5  6  1  0
  5  7  2  3
  7  8  1  0
  8  9  2  0
  8 19  1  0
  9 10  1  0
 10 11  1  0
 11 12  1  0
 11 19  2  0
 12 13  1  0
 14 13  1  1
 14 15  1  0
 14 18  1  0
 15 16  1  0
 16 17  1  0
 17 18  1  0
 19 20  1  0
M  CHG  1  13   1
M  END
