
     RDKit          3D

 20 22  0  0  0  0  0  0  0  0999 V2000
    5.5820    0.9230    2.3600 F   0  0  0  0  0  0  0  0  0  0  0  0
    5.4630   -0.3400    1.8120 C   0  0  0  0  0  0  0  0  0  0  0  0
    4.7250   -0.2020    0.5250 C   0  0  0  0  0  0  0  0  0  0  0  0
    5.4360    0.0020   -0.6380 C   0  0  0  0  0  0  0  0  0  0  0  0
    4.7950    0.1360   -1.8590 C   0  0  0  0  0  0  0  0  0  0  0  0
    5.5100    0.3410   -3.0170 F   0  0  0  0  0  0  0  0  0  0  0  0
    3.4070    0.0600   -1.8870 C   0  0  0  0  0  0  0  0  0  0  0  0
    2.6670   -0.1430   -0.7400 C   0  0  0  0  0  0  0  0  0  0  0  0
    1.2100   -0.2230   -0.7750 C   0  0  0  0  0  0  0  0  0  0  0  0
    0.4090   -0.7130   -1.7820 C   0  0  0  0  0  0  0  0  0  0  0  0
   -0.9340   -0.6060   -1.4350 C   0  0  0  0  0  0  0  0  0  0  0  0
   -0.9510   -0.0430   -0.2010 N   0  0  0  0  0  0  0  0  0  0  0  0
   -2.1830    0.2480    0.5250 C   0  0  2  0  0  0  0  0  0  0  0  0
   -3.0140   -0.9400    0.8210 C   0  0  0  0  0  0  0  0  0  0  0  0
   -4.3850   -0.9650    0.2750 C   0  0  0  0  0  0  0  0  0  0  0  0
   -5.0060    0.2750   -0.0220 N   0  0  0  0  0  0  0  0  0  0  0  0
   -4.2920    1.4470    0.4230 C   0  0  0  0  0  0  0  0  0  0  0  0
   -2.9180    1.3680   -0.1740 C   0  0  0  0  0  0  0  0  0  0  0  0
    0.3240    0.1900    0.2040 C   0  0  0  0  0  0  0  0  0  0  0  0
    3.3370   -0.2730    0.4650 C   0  0  0  0  0  0  0  0  0  0  0  0
  1  2  1  0
  2  3  1  0
  3  4  2  0
  3 20  1  0
  4  5  1  0
  5  6  1  0
  5  7  2  0
  7  8  1  0
  8  9  1  0
  8 20  2  0
  9 10  1  0
  9 19  2  0
 10 11  2  0
 11 12  1  0
 13 12  1  6
 12 19  1  0
 13 14  1  0
 13 18  1  0
 14 15  1  0
 15 16  1  0
 16 17  1  0
 17 18  1  0
M  CHG  1  16   1
M  END
