
     RDKit          3D

 22 24  0  0  0  0  0  0  0  0999 V2000
    4.3160   -1.3010    1.4120 C   0  0  0  0  0  0  0  0  0  0  0  0
    2.9600   -1.2390    0.7390 C   0  0  1  0  0  0  0  0  0  0  0  0
    2.9140   -2.2240   -0.2060 F   0  0  0  0  0  0  0  0  0  0  0  0
    2.0180   -1.4350    1.7560 F   0  0  0  0  0  0  0  0  0  0  0  0
    2.8030    0.1230    0.1430 C   0  0  0  0  0  0  0  0  0  0  0  0
    3.7440    1.0690    0.2300 N   0  0  0  0  0  0  0  0  0  0  0  0
    3.6590    2.2970   -0.2800 C   0  0  0  0  0  0  0  0  0  0  0  0
    2.5170    2.6270   -0.9540 C   0  0  0  0  0  0  0  0  0  0  0  0
    1.4880    1.6850   -1.0860 C   0  0  0  0  0  0  0  0  0  0  0  0
    1.6250    0.4360   -0.5410 C   0  0  0  0  0  0  0  0  0  0  0  0
    0.5780   -0.5690   -0.6900 C   0  0  0  0  0  0  0  0  0  0  0  0
   -0.6230   -0.1570   -1.3650 N   0  0  0  0  0  0  0  0  0  0  0  0
   -1.4610   -1.3100   -1.6190 C   0  0  0  0  0  0  0  0  0  0  0  0
   -2.0310   -1.8770   -0.3450 C   0  0  0  0  0  0  0  0  0  0  0  0
   -2.9020   -0.8170    0.1980 C   0  0  0  0  0  0  0  0  0  0  0  0
   -4.0670   -1.1580    0.8780 C   0  0  0  0  0  0  0  0  0  0  0  0
   -4.8820   -0.1430    1.3800 C   0  0  0  0  0  0  0  0  0  0  0  0
   -6.0290   -0.4250    2.0510 F   0  0  0  0  0  0  0  0  0  0  0  0
   -4.5460    1.1830    1.2100 C   0  0  0  0  0  0  0  0  0  0  0  0
   -3.3990    1.5150    0.5400 C   0  0  0  0  0  0  0  0  0  0  0  0
   -2.5700    0.4860    0.0300 C   0  0  0  0  0  0  0  0  0  0  0  0
   -1.3330    0.8740   -0.6840 C   0  0  0  0  0  0  0  0  0  0  0  0
  2  1  1  1
  2  3  1  0
  2  4  1  0
  2  5  1  0
  5  6  2  0
  5 10  1  0
  6  7  1  0
  7  8  2  0
  8  9  1  0
  9 10  2  0
 10 11  1  0
 11 12  1  0
 12 13  1  0
 12 22  1  0
 13 14  1  0
 14 15  1  0
 15 16  2  0
 15 21  1  0
 16 17  1  0
 17 18  1  0
 17 19  2  0
 19 20  1  0
 20 21  2  0
 21 22  1  0
M  CHG  1   6   1
M  END
