
     RDKit          3D

 22 24  0  0  0  0  0  0  0  0999 V2000
    4.6240    0.4200    1.3890 F   0  0  0  0  0  0  0  0  0  0  0  0
    4.1090    0.9870    0.2500 C   0  0  0  0  0  0  0  0  0  0  0  0
    4.4590    2.1680   -0.1760 C   0  0  0  0  0  0  0  0  0  0  0  0
    3.7100    2.4440   -1.4130 C   0  0  0  0  0  0  0  0  0  0  0  0
    2.8980    1.2290   -1.5920 C   0  0  0  0  0  0  0  0  0  0  0  0
    3.1240    0.3620   -0.6190 C   0  0  0  0  0  0  0  0  0  0  0  0
    2.5200   -0.9590   -0.4330 C   0  0  0  0  0  0  0  0  0  0  0  0
    1.7970   -1.1110    0.7880 N   0  0  0  0  0  0  0  0  0  0  0  0
    1.2060   -2.3880    0.9770 C   0  0  0  0  0  0  0  0  0  0  0  0
   -0.1900   -2.5280    0.4090 C   0  0  0  0  0  0  0  0  0  0  0  0
   -0.8630   -1.2330    0.3490 N   0  0  1  0  0  0  0  0  0  0  0  0
   -2.2820   -1.3770    0.4680 C   0  0  0  0  0  0  0  0  0  0  0  0
   -3.0260   -0.1990   -0.0260 C   0  0  0  0  0  0  0  0  0  0  0  0
   -2.4280    0.9130   -0.5400 C   0  0  0  0  0  0  0  0  0  0  0  0
   -3.2130    1.9810   -0.9820 C   0  0  0  0  0  0  0  0  0  0  0  0
   -2.5490    3.0550   -1.4820 F   0  0  0  0  0  0  0  0  0  0  0  0
   -4.5920    1.9450   -0.9140 C   0  0  0  0  0  0  0  0  0  0  0  0
   -5.2110    0.8310   -0.3980 C   0  0  0  0  0  0  0  0  0  0  0  0
   -4.4240   -0.1950    0.0260 C   0  0  0  0  0  0  0  0  0  0  0  0
   -5.0360   -1.2940    0.5350 F   0  0  0  0  0  0  0  0  0  0  0  0
   -0.3760   -0.4290    1.4730 C   0  0  0  0  0  0  0  0  0  0  0  0
    1.0500    0.0120    1.2220 C   0  0  0  0  0  0  0  0  0  0  0  0
  1  2  1  0
  2  3  2  0
  2  6  1  0
  3  4  1  0
  4  5  1  0
  5  6  2  0
  6  7  1  0
  7  8  1  0
  8  9  1  0
  8 22  1  0
  9 10  1  0
 10 11  1  0
 11 12  1  1
 11 21  1  0
 12 13  1  0
 13 14  2  0
 13 19  1  0
 14 15  1  0
 15 16  1  0
 15 17  2  0
 17 18  1  0
 18 19  2  0
 19 20  1  0
 21 22  1  0
M  CHG  1  11   1
M  END
