
     RDKit          3D

 22 24  0  0  0  0  0  0  0  0999 V2000
    5.2300    0.5400   -0.0240 C   0  0  0  0  0  0  0  0  0  0  0  0
    3.8040    0.5350   -0.2950 N   0  0  1  0  0  0  0  0  0  0  0  0
    3.5500   -0.5000   -1.3050 C   0  0  0  0  0  0  0  0  0  0  0  0
    3.1260    0.2170    0.9360 C   0  0  0  0  0  0  0  0  0  0  0  0
    1.7090   -0.1230    0.7630 C   0  0  0  0  0  0  0  0  0  0  0  0
    1.3270   -1.4280    0.5450 C   0  0  0  0  0  0  0  0  0  0  0  0
   -0.0080   -1.7940    0.3760 C   0  0  0  0  0  0  0  0  0  0  0  0
   -0.9710   -0.7860    0.4350 C   0  0  0  0  0  0  0  0  0  0  0  0
   -0.5910    0.5210    0.6540 C   0  0  0  0  0  0  0  0  0  0  0  0
    0.7350    0.8620    0.8180 C   0  0  0  0  0  0  0  0  0  0  0  0
   -1.7520    1.2610    0.6570 C   0  0  0  0  0  0  0  0  0  0  0  0
   -1.9860    2.6090    0.8290 C   0  0  0  0  0  0  0  0  0  0  0  0
   -3.2740    3.1010    0.7860 C   0  0  0  0  0  0  0  0  0  0  0  0
   -4.3660    2.2770    0.5730 C   0  0  0  0  0  0  0  0  0  0  0  0
   -4.1200    0.9330    0.4030 C   0  0  0  0  0  0  0  0  0  0  0  0
   -2.8390    0.4190    0.4430 C   0  0  0  0  0  0  0  0  0  0  0  0
   -2.3100   -0.8210    0.3120 N   0  0  0  0  0  0  0  0  0  0  0  0
   -3.0780   -2.0110    0.0750 C   0  0  0  0  0  0  0  0  0  0  0  0
   -3.2600   -2.2860   -1.4080 C   0  0  2  0  0  0  0  0  0  0  0  0
   -4.0010   -3.4340   -1.6070 F   0  0  0  0  0  0  0  0  0  0  0  0
   -2.0440   -2.4890   -2.0310 F   0  0  0  0  0  0  0  0  0  0  0  0
   -3.9470   -1.2520   -2.0210 F   0  0  0  0  0  0  0  0  0  0  0  0
  2  1  1  1
  2  3  1  0
  2  4  1  0
  4  5  1  0
  5  6  2  0
  5 10  1  0
  6  7  1  0
  7  8  2  0
  8  9  1  0
  8 17  1  0
  9 10  2  0
  9 11  1  0
 11 12  2  0
 11 16  1  0
 12 13  1  0
 13 14  2  0
 14 15  1  0
 15 16  2  0
 16 17  1  0
 17 18  1  0
 18 19  1  0
 19 20  1  1
 19 21  1  0
 19 22  1  0
M  CHG  1   2   1
M  END
