
     RDKit          3D

 22 23  0  0  0  0  0  0  0  0999 V2000
   -5.0790    2.8630    0.9200 C   0  0  0  0  0  0  0  0  0  0  0  0
   -4.7690    1.5830    0.6310 C   0  0  0  0  0  0  0  0  0  0  0  0
   -3.5710    1.3070   -0.1290 C   0  0  0  0  0  0  0  0  0  0  0  0
   -3.1480    0.1160   -0.4890 C   0  0  0  0  0  0  0  0  0  0  0  0
   -1.8900    0.0750   -1.2580 C   0  0  0  0  0  0  0  0  0  0  0  0
   -0.7770   -0.5740   -0.7200 N   0  0  0  0  0  0  0  0  0  0  0  0
   -0.7520   -1.9780   -0.5920 C   0  0  0  0  0  0  0  0  0  0  0  0
    0.6840   -2.5200   -0.6020 C   0  0  0  0  0  0  0  0  0  0  0  0
    1.5200   -1.5070   -0.0410 N   0  0  0  0  0  0  0  0  0  0  0  0
    2.3100   -0.8350   -0.9810 C   0  0  0  0  0  0  0  0  0  0  0  0
    3.2860    0.1190   -0.4610 C   0  0  0  0  0  0  0  0  0  0  0  0
    3.3950    1.4050   -0.6750 C   0  0  0  0  0  0  0  0  0  0  0  0
    4.5420    1.9580    0.0660 C   0  0  0  0  0  0  0  0  0  0  0  0
    5.1060    0.7750    0.7590 C   0  0  0  0  0  0  0  0  0  0  0  0
    4.3630   -0.2570    0.4360 C   0  0  0  0  0  0  0  0  0  0  0  0
    0.8580   -0.8410    0.9890 C   0  0  1  0  0  0  0  0  0  0  0  0
    1.6570   -0.2160    2.0780 C   0  0  0  0  0  0  0  0  0  0  0  0
   -0.1110    0.1400    0.3460 C   0  0  0  0  0  0  0  0  0  0  0  0
   -3.9430   -1.0670   -0.1370 C   0  0  1  0  0  0  0  0  0  0  0  0
   -5.3310   -0.8530   -0.2620 F   0  0  0  0  0  0  0  0  0  0  0  0
   -3.6980   -2.1820   -0.9080 F   0  0  0  0  0  0  0  0  0  0  0  0
   -3.7720   -1.3180    1.2320 F   0  0  0  0  0  0  0  0  0  0  0  0
  1  2  2  0
  2  3  1  0
  3  4  2  3
  4  5  1  0
  4 19  1  0
  5  6  1  0
  6  7  1  0
  6 18  1  0
  7  8  1  0
  8  9  1  0
  9 10  1  0
  9 16  1  0
 10 11  1  0
 11 12  2  0
 11 15  1  0
 12 13  1  0
 13 14  1  0
 14 15  2  0
 16 17  1  1
 16 18  1  0
 19 20  1  1
 19 21  1  0
 19 22  1  0
M  END
