
     RDKit          3D

 22 24  0  0  0  0  0  0  0  0999 V2000
    5.4140    0.7660    0.5910 F   0  0  0  0  0  0  0  0  0  0  0  0
    4.2110    1.0610    1.2170 C   0  0  1  0  0  0  0  0  0  0  0  0
    4.4130    0.9160    2.5750 F   0  0  0  0  0  0  0  0  0  0  0  0
    3.8650    2.3660    0.9730 F   0  0  0  0  0  0  0  0  0  0  0  0
    3.1870    0.0780    0.7720 C   0  0  1  0  0  0  0  0  0  0  0  0
    1.8240    0.2870    1.3850 C   0  0  0  0  0  0  0  0  0  0  0  0
    0.9980   -0.9520    1.1300 C   0  0  0  0  0  0  0  0  0  0  0  0
    1.0930   -1.4990   -0.2280 C   0  0  1  0  0  0  0  0  0  0  0  0
   -0.1850   -1.4530   -1.0070 C   0  0  0  0  0  0  0  0  0  0  0  0
   -0.8060   -0.2000   -1.2300 N   0  0  0  0  0  0  0  0  0  0  0  0
   -0.2760    0.7930   -2.0910 C   0  0  0  0  0  0  0  0  0  0  0  0
   -0.8710    1.9390   -2.2860 C   0  0  0  0  0  0  0  0  0  0  0  0
   -2.1220    2.2750   -1.6330 C   0  0  0  0  0  0  0  0  0  0  0  0
   -2.6910    1.4050   -0.8080 C   0  0  0  0  0  0  0  0  0  0  0  0
   -2.0480    0.1120   -0.5680 C   0  0  0  0  0  0  0  0  0  0  0  0
   -2.6410   -0.6910    0.2690 C   0  0  0  0  0  0  0  0  0  0  0  0
   -3.8920   -0.3990    0.9470 C   0  0  0  0  0  0  0  0  0  0  0  0
   -4.6540   -1.0860    1.8350 C   0  0  0  0  0  0  0  0  0  0  0  0
   -5.6220   -0.0010    1.8860 C   0  0  0  0  0  0  0  0  0  0  0  0
   -4.8830    0.6110    1.0540 N   0  0  0  0  0  0  0  0  0  0  0  0
    2.2330   -1.1190   -1.0960 C   0  0  0  0  0  0  0  0  0  0  0  0
    2.9200    0.1820   -0.7390 C   0  0  0  0  0  0  0  0  0  0  0  0
  2  1  1  6
  2  3  1  0
  2  4  1  0
  2  5  1  0
  5  6  1  1
  5 22  1  0
  6  7  1  0
  7  8  1  0
  8  9  1  6
  8 21  1  0
  9 10  1  0
 10 11  1  0
 10 15  1  0
 11 12  2  0
 12 13  1  0
 13 14  2  0
 14 15  1  0
 15 16  2  3
 16 17  1  0
 17 18  2  0
 17 20  1  0
 18 19  1  0
 19 20  2  0
 21 22  1  0
M  END
