
     RDKit          3D

 22 23  0  0  0  0  0  0  0  0999 V2000
    6.9400    1.6930   -0.6380 C   0  0  0  0  0  0  0  0  0  0  0  0
    6.1450    0.9500    0.1710 C   0  0  0  0  0  0  0  0  0  0  0  0
    5.0160    0.3060   -0.3960 C   0  0  0  0  0  0  0  0  0  0  0  0
    4.1510   -0.4580    0.3170 C   0  0  0  0  0  0  0  0  0  0  0  0
    3.0630   -1.0210   -0.4760 C   0  0  0  0  0  0  0  0  0  0  0  0
    1.7110   -0.7000   -0.1840 N   0  0  0  0  0  0  0  0  0  0  0  0
    0.9350   -0.8390   -1.4710 C   0  0  0  0  0  0  0  0  0  0  0  0
   -0.5230   -0.8340   -1.1210 C   0  0  0  0  0  0  0  0  0  0  0  0
   -0.7160   -0.0750    0.1670 C   0  0  1  0  0  0  0  0  0  0  0  0
   -2.1060    0.2390    0.4120 N   0  0  1  0  0  0  0  0  0  0  0  0
   -2.4250    1.4630   -0.2810 C   0  0  0  0  0  0  0  0  0  0  0  0
   -3.8450    1.8340    0.1560 C   0  0  0  0  0  0  0  0  0  0  0  0
   -4.7540    0.7690   -0.4220 C   0  0  2  0  0  0  0  0  0  0  0  0
   -6.2140    1.1170   -0.2260 C   0  0  0  0  0  0  0  0  0  0  0  0
   -4.3970   -0.5350    0.2600 C   0  0  0  0  0  0  0  0  0  0  0  0
   -2.9470   -0.8410   -0.0690 C   0  0  0  0  0  0  0  0  0  0  0  0
   -0.1020   -0.8380    1.3280 C   0  0  0  0  0  0  0  0  0  0  0  0
    1.0350   -1.6470    0.7220 C   0  0  0  0  0  0  0  0  0  0  0  0
    4.4750   -0.5830    1.7270 C   0  0  2  0  0  0  0  0  0  0  0  0
    4.5520    0.7030    2.3100 F   0  0  0  0  0  0  0  0  0  0  0  0
    5.7850   -1.1030    1.8610 F   0  0  0  0  0  0  0  0  0  0  0  0
    3.6880   -1.3100    2.5370 F   0  0  0  0  0  0  0  0  0  0  0  0
  1  2  2  0
  2  3  1  0
  3  4  2  3
  4  5  1  0
  4 19  1  0
  5  6  1  0
  6  7  1  0
  6 18  1  0
  7  8  1  0
  9  8  1  6
  9 10  1  0
  9 17  1  0
 10 11  1  6
 10 16  1  0
 11 12  1  0
 12 13  1  0
 13 14  1  1
 13 15  1  0
 15 16  1  0
 17 18  1  0
 19 20  1  1
 19 21  1  0
 19 22  1  0
M  CHG  1  10   1
M  END
