
     RDKit          3D

 22 24  0  0  0  0  0  0  0  0999 V2000
    4.0970   -1.6280   -1.6200 C   0  0  0  0  0  0  0  0  0  0  0  0
    2.8930   -1.0950   -0.8830 C   0  0  0  0  0  0  0  0  0  0  0  0
    3.1990   -0.1620    0.1390 N   0  0  0  0  0  0  0  0  0  0  0  0
    3.7100    1.1020   -0.2560 C   0  0  0  0  0  0  0  0  0  0  0  0
    2.9410    2.2630    0.3870 C   0  0  0  0  0  0  0  0  0  0  0  0
    1.4750    2.0110    0.1970 C   0  0  0  0  0  0  0  0  0  0  0  0
    1.0410    0.8120    0.5670 C   0  0  0  0  0  0  0  0  0  0  0  0
   -0.3560    0.3830    0.4570 C   0  0  0  0  0  0  0  0  0  0  0  0
   -0.7750   -0.8450    0.8580 C   0  0  0  0  0  0  0  0  0  0  0  0
   -2.1010   -1.2370    0.7430 C   0  0  0  0  0  0  0  0  0  0  0  0
   -2.4910   -2.5920    1.1990 C   0  0  1  0  0  0  0  0  0  0  0  0
   -3.0290   -3.3420    0.1690 F   0  0  0  0  0  0  0  0  0  0  0  0
   -1.3660   -3.2640    1.6220 F   0  0  0  0  0  0  0  0  0  0  0  0
   -3.3510   -2.5370    2.2860 F   0  0  0  0  0  0  0  0  0  0  0  0
   -3.0230   -0.3600    0.2090 C   0  0  0  0  0  0  0  0  0  0  0  0
   -4.3180   -0.7000    0.0790 N   0  0  0  0  0  0  0  0  0  0  0  0
   -5.2090    0.1730   -0.4470 C   0  0  0  0  0  0  0  0  0  0  0  0
   -4.8590    1.4360   -0.8740 C   0  0  0  0  0  0  0  0  0  0  0  0
   -3.5210    1.7930   -0.7430 C   0  0  0  0  0  0  0  0  0  0  0  0
   -2.6210    0.8890   -0.2030 C   0  0  0  0  0  0  0  0  0  0  0  0
   -1.2740    1.2570   -0.0750 C   0  0  0  0  0  0  0  0  0  0  0  0
    2.1120   -0.0770    1.1090 C   0  0  0  0  0  0  0  0  0  0  0  0
  1  2  1  0
  2  3  1  0
  3  4  1  0
  3 22  1  0
  4  5  1  0
  5  6  1  0
  6  7  2  0
  7  8  1  0
  7 22  1  0
  8  9  2  0
  8 21  1  0
  9 10  1  0
 10 11  1  0
 10 15  2  0
 11 12  1  6
 11 13  1  0
 11 14  1  0
 15 16  1  0
 15 20  1  0
 16 17  2  0
 17 18  1  0
 18 19  2  0
 19 20  1  0
 20 21  2  0
M  CHG  1  16   1
M  END
