
     RDKit          3D

 22 24  0  0  0  0  0  0  0  0999 V2000
   -3.7890   -1.0460    1.8430 F   0  0  0  0  0  0  0  0  0  0  0  0
   -3.6560    0.2290    2.3160 C   0  0  0  0  0  0  0  0  0  0  0  0
   -3.1280    1.2180    1.6430 C   0  0  0  0  0  0  0  0  0  0  0  0
   -2.6090    1.0930    0.2980 C   0  0  0  0  0  0  0  0  0  0  0  0
   -2.1260    2.2180   -0.2680 C   0  0  0  0  0  0  0  0  0  0  0  0
   -2.1690    3.3490    0.4570 F   0  0  0  0  0  0  0  0  0  0  0  0
   -1.6340    2.1470   -1.5170 F   0  0  0  0  0  0  0  0  0  0  0  0
   -2.5930   -0.1410   -0.4770 C   0  0  0  0  0  0  0  0  0  0  0  0
   -3.3250   -0.3270   -1.6330 C   0  0  0  0  0  0  0  0  0  0  0  0
   -3.0190   -1.5530   -2.0930 N   0  0  0  0  0  0  0  0  0  0  0  0
   -2.1300   -2.0970   -1.2470 C   0  0  0  0  0  0  0  0  0  0  0  0
   -1.8620   -1.2180   -0.2390 N   0  0  0  0  0  0  0  0  0  0  0  0
   -0.9100   -1.4880    0.8120 C   0  0  0  0  0  0  0  0  0  0  0  0
    0.4670   -1.0810    0.4170 C   0  0  0  0  0  0  0  0  0  0  0  0
    1.2880   -1.9840   -0.2190 C   0  0  0  0  0  0  0  0  0  0  0  0
    2.5700   -1.6810   -0.6130 C   0  0  0  0  0  0  0  0  0  0  0  0
    3.0980   -0.4190   -0.3780 C   0  0  0  0  0  0  0  0  0  0  0  0
    2.2940    0.4920    0.2530 C   0  0  0  0  0  0  0  0  0  0  0  0
    1.0020    0.1670    0.6440 C   0  0  0  0  0  0  0  0  0  0  0  0
    3.0430    1.7850    0.4060 C   0  0  0  0  0  0  0  0  0  0  0  0
    4.0630    1.6810   -0.7240 C   0  0  0  0  0  0  0  0  0  0  0  0
    4.4080    0.2160   -0.6580 C   0  0  0  0  0  0  0  0  0  0  0  0
  1  2  1  0
  2  3  2  3
  3  4  1  0
  4  5  2  3
  4  8  1  0
  5  6  1  0
  5  7  1  0
  8  9  2  0
  8 12  1  0
  9 10  1  0
 10 11  2  0
 11 12  1  0
 12 13  1  0
 13 14  1  0
 14 15  2  0
 14 19  1  0
 15 16  1  0
 16 17  2  0
 17 18  1  0
 17 22  1  0
 18 19  2  0
 18 20  1  0
 20 21  1  0
 21 22  1  0
M  CHG  1  10   1
M  END
