
     RDKit          3D

 22 24  0  0  0  0  0  0  0  0999 V2000
    5.2370   -1.8010    0.1290 C   0  0  0  0  0  0  0  0  0  0  0  0
    4.7650   -0.4390   -0.2750 C   0  0  0  0  0  0  0  0  0  0  0  0
    5.5310    0.5460   -0.6890 C   0  0  0  0  0  0  0  0  0  0  0  0
    6.8900    0.5100   -0.8250 F   0  0  0  0  0  0  0  0  0  0  0  0
    4.7280    1.7420   -1.0020 C   0  0  0  0  0  0  0  0  0  0  0  0
    3.3210    1.2940   -0.6980 C   0  0  0  0  0  0  0  0  0  0  0  0
    2.1470    1.9360   -0.7850 N   0  0  0  0  0  0  0  0  0  0  0  0
    1.0040    1.3240   -0.4540 C   0  0  0  0  0  0  0  0  0  0  0  0
   -0.1840    2.0440   -0.5650 C   0  0  0  0  0  0  0  0  0  0  0  0
   -1.3610    1.3990   -0.2200 C   0  0  0  0  0  0  0  0  0  0  0  0
   -1.3850    0.0960    0.2190 C   0  0  0  0  0  0  0  0  0  0  0  0
   -2.6040   -0.5350    0.5650 N   0  0  0  0  0  0  0  0  0  0  0  0
   -2.5470   -1.9410    1.0140 C   0  0  0  0  0  0  0  0  0  0  0  0
   -3.9050    0.0370    0.5320 C   0  0  0  0  0  0  0  0  0  0  0  0
   -4.7490   -0.6160   -0.5730 C   0  0  0  0  0  0  0  0  0  0  0  0
   -6.1280    0.0560   -0.5410 C   0  0  2  0  0  0  0  0  0  0  0  0
   -6.0080    1.4120   -0.7690 F   0  0  0  0  0  0  0  0  0  0  0  0
   -6.6000   -0.0760    0.7620 F   0  0  0  0  0  0  0  0  0  0  0  0
   -0.2030   -0.5890    0.3180 C   0  0  0  0  0  0  0  0  0  0  0  0
    1.0130    0.0160   -0.0180 C   0  0  0  0  0  0  0  0  0  0  0  0
    2.2000   -0.6790    0.0850 C   0  0  0  0  0  0  0  0  0  0  0  0
    3.3630   -0.0140   -0.2650 C   0  0  0  0  0  0  0  0  0  0  0  0
  1  2  1  0
  2  3  2  0
  2 22  1  0
  3  4  1  0
  3  5  1  0
  5  6  1  0
  6  7  2  0
  6 22  1  0
  7  8  1  0
  8  9  2  0
  8 20  1  0
  9 10  1  0
 10 11  2  0
 11 12  1  0
 11 19  1  0
 12 13  1  0
 12 14  1  0
 14 15  1  0
 15 16  1  0
 16 17  1  1
 16 18  1  0
 19 20  2  0
 20 21  1  0
 21 22  2  0
M  CHG  1   7   1
M  END
