
     RDKit          3D

 45 50  0  0  0  0  0  0  0  0999 V2000
   -4.4650    2.2920   -2.1610 C   0  0  0  0  0  0  0  0  0  0  0  0
   -3.7270    1.0330   -2.5600 C   0  0  0  0  0  0  0  0  0  0  0  0
   -3.1940    0.3890   -1.4490 C   0  0  0  0  0  0  0  0  0  0  0  0
   -1.3820    0.3920   -0.9190 S   0  0  0  0  0  0  0  0  0  0  0  0
   -1.7660   -0.6980    0.5750 C   0  0  0  0  0  0  0  0  0  0  0  0
   -0.6610   -1.0870    1.4880 C   0  0  0  0  0  0  0  0  0  0  0  0
    0.5850   -0.3990    1.2330 N   0  0  0  0  0  0  0  0  0  0  0  0
    1.3400   -0.4870    0.0490 C   0  0  0  0  0  0  0  0  0  0  0  0
    0.8420   -1.2610   -0.8420 O   0  0  0  0  0  0  0  0  0  0  0  0
    2.5640    0.1870   -0.2330 N   0  0  0  0  0  0  0  0  0  0  0  0
    3.2330    0.0070   -1.4590 C   0  0  0  0  0  0  0  0  0  0  0  0
    4.4720   -0.3380   -1.7330 C   0  0  0  0  0  0  0  0  0  0  0  0
    5.5890   -0.6540   -0.9030 C   0  0  0  0  0  0  0  0  0  0  0  0
    6.5180    0.0630   -0.3210 C   0  0  0  0  0  0  0  0  0  0  0  0
    6.7050    1.4940   -0.3520 C   0  0  0  0  0  0  0  0  0  0  0  0
    7.7490    1.7780    0.3810 N   0  0  0  0  0  0  0  0  0  0  0  0
    8.2800    0.6360    0.9040 N   0  0  0  0  0  0  0  0  0  0  0  0
    7.6330   -0.3970    0.5510 C   0  0  0  0  0  0  0  0  0  0  0  0
    7.9310   -1.6980    0.9220 O   0  0  0  0  0  0  0  0  0  0  0  0
    9.2050   -2.1010    1.3670 C   0  0  0  0  0  0  0  0  0  0  0  0
   10.2450   -1.8510    0.3090 C   0  0  0  0  0  0  0  0  0  0  0  0
   10.0480   -2.5000   -0.8770 O   0  0  0  0  0  0  0  0  0  0  0  0
   10.0340   -3.8650   -0.7030 C   0  0  0  0  0  0  0  0  0  0  0  0
    5.9190    2.5000   -1.0680 C   0  0  0  0  0  0  0  0  0  0  0  0
    5.5630    3.8700    0.0630 S   0  0  0  0  0  0  0  0  0  0  0  0
    3.8320    4.2890    0.1830 C   0  0  0  0  0  0  0  0  0  0  0  0
    3.0920    3.5580    1.2680 C   0  0  0  0  0  0  0  0  0  0  0  0
    2.2960    2.3880    0.7350 C   0  0  0  0  0  0  0  0  0  0  0  0
    3.0280    1.0740    0.8300 C   0  0  0  0  0  0  0  0  0  0  0  0
   -2.9010   -0.8360    0.4450 N   0  0  0  0  0  0  0  0  0  0  0  0
   -3.7570   -0.4230   -0.4170 C   0  0  0  0  0  0  0  0  0  0  0  0
   -5.1770   -0.7190   -0.4820 C   0  0  0  0  0  0  0  0  0  0  0  0
   -5.5880   -1.5280   -1.5650 C   0  0  0  0  0  0  0  0  0  0  0  0
   -6.8460   -1.9820   -1.7350 C   0  0  0  0  0  0  0  0  0  0  0  0
   -7.7880   -1.6330   -0.7900 C   0  0  0  0  0  0  0  0  0  0  0  0
   -7.4550   -0.8490    0.2840 C   0  0  0  0  0  0  0  0  0  0  0  0
   -8.4360   -0.5240    1.1860 C   0  0  0  0  0  0  0  0  0  0  0  0
   -8.0950    0.2800    2.2620 C   0  0  0  0  0  0  0  0  0  0  0  0
   -6.8230    0.7420    2.4280 C   0  0  0  0  0  0  0  0  0  0  0  0
   -5.8020    0.4170    1.5080 C   0  0  0  0  0  0  0  0  0  0  0  0
   -4.4690    0.9920    1.6900 C   0  0  0  0  0  0  0  0  0  0  0  0
   -6.1310   -0.3820    0.4420 C   0  0  0  0  0  0  0  0  0  0  0  0
   -9.8620   -0.9970    1.0610 C   0  0  0  0  0  0  0  0  0  0  0  0
   -9.9550   -2.2600    0.2670 C   0  0  0  0  0  0  0  0  0  0  0  0
   -9.1810   -2.1640   -1.0280 C   0  0  0  0  0  0  0  0  0  0  0  0
  1  2  1  0
  2  3  1  0
  3  4  1  0
  3 31  2  0
  4  5  1  0
  5  6  1  0
  5 30  2  0
  6  7  1  0
  7  8  1  0
  8  9  2  0
  8 10  1  0
 10 11  1  0
 10 29  1  0
 11 12  2  0
 12 13  1  0
 13 14  2  0
 14 15  1  0
 14 18  1  0
 15 16  2  0
 15 24  1  0
 16 17  1  0
 17 18  2  0
 18 19  1  0
 19 20  1  0
 20 21  1  0
 21 22  1  0
 22 23  1  0
 24 25  1  0
 25 26  1  0
 26 27  1  0
 27 28  1  0
 28 29  1  0
 30 31  1  0
 31 32  1  0
 32 33  2  0
 32 42  1  0
 33 34  1  0
 34 35  2  0
 35 36  1  0
 35 45  1  0
 36 37  2  0
 36 42  1  0
 37 38  1  0
 37 43  1  0
 38 39  2  0
 39 40  1  0
 40 41  1  0
 40 42  2  0
 43 44  1  0
 44 45  1  0
M  END
