
     RDKit          3D

 45 51  0  0  0  0  0  0  0  0999 V2000
   10.8390    5.3000    0.5320 C   0  0  0  0  0  0  0  0  0  0  0  0
   10.6680    3.8380    0.4030 C   0  0  0  0  0  0  0  0  0  0  0  0
   11.1160    3.0780   -0.6810 C   0  0  0  0  0  0  0  0  0  0  0  0
   10.7500    1.8010   -0.3800 C   0  0  0  0  0  0  0  0  0  0  0  0
   10.1010    1.8100    0.8530 C   0  0  0  0  0  0  0  0  0  0  0  0
   10.0930    3.0460    1.2500 O   0  0  0  0  0  0  0  0  0  0  0  0
    9.6300    0.4850    1.3380 C   0  0  0  0  0  0  0  0  0  0  0  0
    8.8830   -0.1450    0.2970 N   0  0  1  0  0  0  0  0  0  0  0  0
    7.6750    0.5870    0.0510 C   0  0  0  0  0  0  0  0  0  0  0  0
    6.4740   -0.2630    0.1040 C   0  0  0  0  0  0  0  0  0  0  0  0
    5.2720   -0.2330    0.0610 N   0  0  0  0  0  0  0  0  0  0  0  0
    4.3800   -1.1280    0.1260 C   0  0  0  0  0  0  0  0  0  0  0  0
    2.9380   -0.8880    0.0590 C   0  0  0  0  0  0  0  0  0  0  0  0
    2.4040    0.3560   -0.0680 C   0  0  0  0  0  0  0  0  0  0  0  0
    1.0580    0.6360   -0.1370 C   0  0  0  0  0  0  0  0  0  0  0  0
    0.1330   -0.4210   -0.0750 C   0  0  0  0  0  0  0  0  0  0  0  0
   -1.1740   -0.3700   -0.1230 N   0  0  0  0  0  0  0  0  0  0  0  0
   -1.9430   -1.2510   -0.0720 C   0  0  0  0  0  0  0  0  0  0  0  0
   -3.3880   -1.5280   -0.0910 N   0  0  0  0  0  0  0  0  0  0  0  0
   -3.9190   -2.8140   -0.0110 C   0  0  0  0  0  0  0  0  0  0  0  0
   -3.1350   -3.7870    0.0770 O   0  0  0  0  0  0  0  0  0  0  0  0
   -5.3780   -3.1100   -0.0250 C   0  0  2  0  0  0  0  0  0  0  0  0
   -5.7860   -3.9580   -1.1640 C   0  0  2  0  0  0  0  0  0  0  0  0
   -4.8670   -3.7980   -2.3750 C   0  0  0  0  0  0  0  0  0  0  0  0
   -7.1150   -3.4000   -1.6040 C   0  0  0  0  0  0  0  0  0  0  0  0
   -6.9790   -1.9250   -1.2140 C   0  0  0  0  0  0  0  0  0  0  0  0
   -6.1920   -1.9610   -0.0080 N   0  0  0  0  0  0  0  0  0  0  0  0
   -6.2450   -0.9900    1.0150 C   0  0  0  0  0  0  0  0  0  0  0  0
   -5.5180   -1.1050    2.0510 O   0  0  0  0  0  0  0  0  0  0  0  0
   -7.1360    0.1480    0.8790 C   0  0  0  0  0  0  0  0  0  0  0  0
   -6.6410    1.2650    0.2680 C   0  0  0  0  0  0  0  0  0  0  0  0
   -7.4130    2.3910    0.0970 C   0  0  0  0  0  0  0  0  0  0  0  0
   -6.8120    3.5880   -0.5840 C   0  0  0  0  0  0  0  0  0  0  0  0
   -8.7030    2.4230    0.5330 C   0  0  0  0  0  0  0  0  0  0  0  0
   -9.5360    3.6480    0.3440 C   0  0  0  0  0  0  0  0  0  0  0  0
   -9.2010    1.2940    1.1500 C   0  0  0  0  0  0  0  0  0  0  0  0
   -8.4390    0.1610    1.3280 C   0  0  0  0  0  0  0  0  0  0  0  0
   -8.9890   -1.0530    1.9960 C   0  0  0  0  0  0  0  0  0  0  0  0
   -0.7980   -2.7040    0.0920 S   0  0  0  0  0  0  0  0  0  0  0  0
    0.6870   -1.6530    0.0510 C   0  0  0  0  0  0  0  0  0  0  0  0
    2.0370   -1.9570    0.1220 C   0  0  0  0  0  0  0  0  0  0  0  0
    4.8780   -2.5060    0.2870 C   0  0  0  0  0  0  0  0  0  0  0  0
    6.6770   -2.1220    0.3060 S   0  0  0  0  0  0  0  0  0  0  0  0
    9.5850   -0.2850   -0.9510 C   0  0  0  0  0  0  0  0  0  0  0  0
   10.8730    0.4670   -1.0260 C   0  0  0  0  0  0  0  0  0  0  0  0
  1  2  1  0
  2  3  2  0
  2  6  1  0
  3  4  1  0
  4  5  2  0
  4 45  1  0
  5  6  1  0
  5  7  1  0
  7  8  1  0
  8  9  1  6
  8 44  1  0
  9 10  1  0
 10 11  2  0
 10 43  1  0
 11 12  1  0
 12 13  1  0
 12 42  2  0
 13 14  2  0
 13 41  1  0
 14 15  1  0
 15 16  2  0
 16 17  1  0
 16 40  1  0
 17 18  2  0
 18 19  1  0
 18 39  1  0
 19 20  1  0
 20 21  2  0
 22 20  1  6
 22 23  1  0
 22 27  1  0
 23 24  1  6
 23 25  1  0
 25 26  1  0
 26 27  1  0
 27 28  1  0
 28 29  2  0
 28 30  1  0
 30 31  2  0
 30 37  1  0
 31 32  1  0
 32 33  1  0
 32 34  2  0
 34 35  1  0
 34 36  1  0
 36 37  2  0
 37 38  1  0
 39 40  1  0
 40 41  2  0
 42 43  1  0
 44 45  1  0
M  CHG  1   8   1
M  END
