
     RDKit          3D

 45 49  0  0  0  0  0  0  0  0999 V2000
   -6.1480   -1.9590   -3.6120 C   0  0  0  0  0  0  0  0  0  0  0  0
   -4.8460   -1.9470   -2.8440 C   0  0  0  0  0  0  0  0  0  0  0  0
   -4.5420   -0.5070   -2.4810 C   0  0  0  0  0  0  0  0  0  0  0  0
   -3.2880   -0.3510   -1.7090 C   0  0  0  0  0  0  0  0  0  0  0  0
   -2.1060   -0.0380   -2.4030 C   0  0  0  0  0  0  0  0  0  0  0  0
   -0.8980    0.0540   -1.7670 C   0  0  0  0  0  0  0  0  0  0  0  0
    0.3430    0.3780   -2.4620 C   0  0  0  0  0  0  0  0  0  0  0  0
    0.3230    1.2190   -3.5710 C   0  0  0  0  0  0  0  0  0  0  0  0
    1.4820    1.5380   -4.2510 C   0  0  0  0  0  0  0  0  0  0  0  0
    2.6960    1.0310   -3.8500 C   0  0  0  0  0  0  0  0  0  0  0  0
    2.7560    0.1930   -2.7550 C   0  0  0  0  0  0  0  0  0  0  0  0
    3.9880   -0.3470   -2.3290 N   0  0  0  0  0  0  0  0  0  0  0  0
    4.6950    0.2470   -1.4450 C   0  0  0  0  0  0  0  0  0  0  0  0
    4.1140    1.5390   -0.9110 C   0  0  0  0  0  0  0  0  0  0  0  0
    5.9670   -0.2410   -0.9660 C   0  0  0  0  0  0  0  0  0  0  0  0
    6.4900   -1.3500   -1.4260 C   0  0  0  0  0  0  0  0  0  0  0  0
    5.7280   -2.1170   -2.4800 C   0  0  0  0  0  0  0  0  0  0  0  0
    7.7540   -1.8840   -1.0000 N   0  0  0  0  0  0  0  0  0  0  0  0
    8.5530   -1.2630   -0.0440 C   0  0  0  0  0  0  0  0  0  0  0  0
    9.6750   -1.7850    0.3000 O   0  0  0  0  0  0  0  0  0  0  0  0
    8.2340   -0.0570    0.6160 N   0  0  0  0  0  0  0  0  0  0  0  0
    9.1900    0.4870    1.5920 C   0  0  0  0  0  0  0  0  0  0  0  0
   10.2050    0.2990    2.0800 N   0  0  0  0  0  0  0  0  0  0  0  0
   10.8600    0.9890    2.9810 C   0  0  0  0  0  0  0  0  0  0  0  0
   12.2130    0.6400    3.5680 C   0  0  0  0  0  0  0  0  0  0  0  0
   11.9790   -0.2230    4.7880 C   0  0  0  0  0  0  0  0  0  0  0  0
   10.2120    2.1280    3.4070 C   0  0  0  0  0  0  0  0  0  0  0  0
    8.6980    2.0980    2.4530 S   0  0  0  0  0  0  0  0  0  0  0  0
    6.7540    0.7250    0.2680 S   0  0  1  0  0  0  0  0  0  0  0  0
    6.9360    2.1500   -0.1720 O   0  0  0  0  0  0  0  0  0  0  0  0
    5.9120    0.6390    1.5210 O   0  0  0  0  0  0  0  0  0  0  0  0
    1.5690   -0.1180   -2.0790 C   0  0  0  0  0  0  0  0  0  0  0  0
   -0.8960   -0.1760   -0.4080 C   0  0  0  0  0  0  0  0  0  0  0  0
   -2.0390   -0.4820    0.2910 C   0  0  0  0  0  0  0  0  0  0  0  0
   -3.2850   -0.5770   -0.3590 C   0  0  0  0  0  0  0  0  0  0  0  0
   -4.4850   -0.8480    0.4670 C   0  0  0  0  0  0  0  0  0  0  0  0
   -5.2420    0.3990    0.8580 C   0  0  0  0  0  0  0  0  0  0  0  0
   -6.3890    0.1600    1.6340 N   0  0  0  0  0  0  0  0  0  0  0  0
   -7.4970   -0.4880    1.0740 C   0  0  0  0  0  0  0  0  0  0  0  0
   -8.6750    0.4700    0.9950 C   0  0  1  0  0  0  0  0  0  0  0  0
   -9.9830   -0.2750    0.9870 C   0  0  0  0  0  0  0  0  0  0  0  0
   -8.5900    1.5500    2.0340 C   0  0  0  0  0  0  0  0  0  0  0  0
   -7.8310    1.1480    3.2520 C   0  0  1  0  0  0  0  0  0  0  0  0
   -8.6100    0.2160    4.1520 C   0  0  0  0  0  0  0  0  0  0  0  0
   -6.4420    0.6310    2.9580 C   0  0  0  0  0  0  0  0  0  0  0  0
  1  2  1  0
  2  3  1  0
  3  4  1  0
  4  5  2  0
  4 35  1  0
  5  6  1  0
  6  7  1  0
  6 33  2  0
  7  8  2  0
  7 32  1  0
  8  9  1  0
  9 10  2  0
 10 11  1  0
 11 12  1  0
 11 32  2  0
 12 13  2  3
 13 14  1  0
 13 15  1  0
 15 16  2  0
 15 29  1  0
 16 17  1  0
 16 18  1  0
 18 19  1  0
 19 20  2  0
 19 21  1  0
 21 22  1  0
 29 21  1  1
 22 23  2  0
 22 28  1  0
 23 24  1  0
 24 25  1  0
 24 27  2  0
 25 26  1  0
 27 28  1  0
 29 30  2  0
 29 31  2  0
 33 34  1  0
 34 35  2  0
 35 36  1  0
 36 37  1  0
 37 38  1  0
 38 39  1  0
 38 45  1  0
 39 40  1  0
 40 41  1  1
 40 42  1  0
 42 43  1  0
 43 44  1  6
 43 45  1  0
M  END
