
     RDKit          3D

 45 50  0  0  0  0  0  0  0  0999 V2000
    8.8930    2.5780    0.5160 C   0  0  0  0  0  0  0  0  0  0  0  0
    8.6790    1.2910   -0.2870 C   0  0  0  0  0  0  0  0  0  0  0  0
    7.6260    1.5510   -1.2330 N   0  0  0  0  0  0  0  0  0  0  0  0
    6.9940    0.3130   -1.6180 C   0  0  0  0  0  0  0  0  0  0  0  0
    5.5110    0.4430   -1.4360 C   0  0  0  0  0  0  0  0  0  0  0  0
    5.1240    0.7180   -0.0140 C   0  0  1  0  0  0  0  0  0  0  0  0
    3.2930    0.8580    0.0580 S   0  0  0  0  0  0  0  0  0  0  0  0
    2.9700   -0.9070    0.2240 C   0  0  0  0  0  0  0  0  0  0  0  0
    1.8070   -1.5080    0.1580 N   0  0  0  0  0  0  0  0  0  0  0  0
    0.7120   -0.7200   -0.0610 N   0  0  0  0  0  0  0  0  0  0  0  0
   -0.4080   -0.7120    0.6520 C   0  0  0  0  0  0  0  0  0  0  0  0
   -1.3810    0.2210    0.1950 C   0  0  0  0  0  0  0  0  0  0  0  0
   -0.8880    0.9520   -0.8420 O   0  0  0  0  0  0  0  0  0  0  0  0
   -2.6890    0.5580    0.5340 N   0  0  0  0  0  0  0  0  0  0  0  0
   -3.5830   -0.0040    1.4730 C   0  0  0  0  0  0  0  0  0  0  0  0
   -4.3810   -1.1490    0.8780 C   0  0  0  0  0  0  0  0  0  0  0  0
   -4.0260   -1.8800   -0.2320 C   0  0  0  0  0  0  0  0  0  0  0  0
   -5.0220   -2.8170   -0.4280 C   0  0  0  0  0  0  0  0  0  0  0  0
   -5.9380   -2.6060    0.5810 C   0  0  0  0  0  0  0  0  0  0  0  0
   -7.1820   -3.4290    0.7200 C   0  0  0  0  0  0  0  0  0  0  0  0
   -5.5230   -1.6150    1.3270 O   0  0  0  0  0  0  0  0  0  0  0  0
   -3.2550    1.6880   -0.2110 C   0  0  0  0  0  0  0  0  0  0  0  0
   -2.5470    2.8610   -0.3390 C   0  0  0  0  0  0  0  0  0  0  0  0
   -3.0780    3.9320   -1.0460 C   0  0  0  0  0  0  0  0  0  0  0  0
   -4.3250    3.8430   -1.6340 C   0  0  0  0  0  0  0  0  0  0  0  0
   -5.0330    2.6690   -1.5060 C   0  0  0  0  0  0  0  0  0  0  0  0
   -4.4830    1.6230   -0.8000 C   0  0  0  0  0  0  0  0  0  0  0  0
   -6.3640    2.6250   -2.1500 C   0  0  0  0  0  0  0  0  0  0  0  0
   -7.0210    3.9590   -1.7650 C   0  0  0  0  0  0  0  0  0  0  0  0
   -6.3310    5.0280   -2.5610 C   0  0  0  0  0  0  0  0  0  0  0  0
   -4.8580    5.0020   -2.3810 C   0  0  0  0  0  0  0  0  0  0  0  0
   -0.4350   -1.7130    1.6860 C   0  0  0  0  0  0  0  0  0  0  0  0
   -0.9830   -1.5810    2.9150 C   0  0  0  0  0  0  0  0  0  0  0  0
   -1.0980   -2.5880    3.8290 C   0  0  0  0  0  0  0  0  0  0  0  0
   -0.6310   -3.8530    3.5170 C   0  0  0  0  0  0  0  0  0  0  0  0
   -0.0650   -4.0210    2.2720 C   0  0  0  0  0  0  0  0  0  0  0  0
    0.0440   -2.9970    1.3590 C   0  0  0  0  0  0  0  0  0  0  0  0
    4.2390   -1.4930    0.4450 N   0  0  0  0  0  0  0  0  0  0  0  0
    4.3730   -2.9610    0.3790 C   0  0  0  0  0  0  0  0  0  0  0  0
    3.7730   -3.8300    1.2130 C   0  0  0  0  0  0  0  0  0  0  0  0
    3.9390   -5.1330    1.0900 C   0  0  0  0  0  0  0  0  0  0  0  0
    5.0350   -5.2700   -0.3110 S   0  0  0  0  0  0  0  0  0  0  0  0
    5.1870   -3.5680   -0.6260 C   0  0  0  0  0  0  0  0  0  0  0  0
    5.2670   -0.5800    0.7320 C   0  0  0  0  0  0  0  0  0  0  0  0
    6.2490   -0.7560    1.5250 O   0  0  0  0  0  0  0  0  0  0  0  0
  1  2  1  0
  2  3  1  0
  3  4  1  0
  4  5  1  0
  6  5  1  6
  6  7  1  0
  6 44  1  0
  7  8  1  0
  8  9  2  3
  8 38  1  0
  9 10  1  0
 10 11  2  3
 11 12  1  0
 11 32  1  0
 12 13  2  0
 12 14  1  0
 14 15  1  0
 14 22  1  0
 15 16  1  0
 16 17  2  0
 16 21  1  0
 17 18  1  0
 18 19  2  0
 19 20  1  0
 19 21  1  0
 22 23  2  0
 22 27  1  0
 23 24  1  0
 24 25  2  0
 25 26  1  0
 25 31  1  0
 26 27  2  0
 26 28  1  0
 28 29  1  0
 29 30  1  0
 30 31  1  0
 32 33  2  0
 32 37  1  0
 33 34  1  0
 34 35  2  0
 35 36  1  0
 36 37  2  0
 38 39  1  0
 38 44  1  0
 39 40  1  0
 39 43  2  0
 40 41  2  0
 41 42  1  0
 42 43  1  0
 44 45  2  0
M  CHG  1   3   1
M  END
