
     RDKit          3D

 43 48  0  0  0  0  0  0  0  0999 V2000
    3.1530   -2.5870    3.9940 C   0  0  0  0  0  0  0  0  0  0  0  0
    2.5310   -2.2950    2.7630 O   0  0  0  0  0  0  0  0  0  0  0  0
    1.2090   -1.8580    2.7100 C   0  0  0  0  0  0  0  0  0  0  0  0
    0.4320   -1.6700    3.8060 C   0  0  0  0  0  0  0  0  0  0  0  0
   -0.9000   -1.2230    3.6310 C   0  0  0  0  0  0  0  0  0  0  0  0
   -1.4040   -0.9820    2.3950 C   0  0  0  0  0  0  0  0  0  0  0  0
   -2.7990   -0.5060    2.2380 C   0  0  0  0  0  0  0  0  0  0  0  0
   -3.3010   -0.3070    1.0850 N   0  0  0  0  0  0  0  0  0  0  0  0
   -4.5820    0.1350    0.8220 N   0  0  0  0  0  0  0  0  0  0  0  0
   -5.0640    0.3270   -0.5270 C   0  0  2  0  0  0  0  0  0  0  0  0
   -5.1580   -1.0740   -1.1140 C   0  0  0  0  0  0  0  0  0  0  0  0
   -6.0550   -1.0670   -2.3420 C   0  0  0  0  0  0  0  0  0  0  0  0
   -5.5260   -0.0500   -3.3440 C   0  0  0  0  0  0  0  0  0  0  0  0
   -4.0420   -0.0760   -3.3960 C   0  0  0  0  0  0  0  0  0  0  0  0
   -3.4050    0.7980   -2.4040 C   0  0  0  0  0  0  0  0  0  0  0  0
   -4.2970    1.2830   -1.3320 C   0  0  0  0  0  0  0  0  0  0  0  0
   -5.4280    0.3970    1.9350 C   0  0  0  0  0  0  0  0  0  0  0  0
   -6.4050    1.2200    1.8390 O   0  0  0  0  0  0  0  0  0  0  0  0
   -5.1100   -0.3320    3.1870 C   0  0  2  0  0  0  0  0  0  0  0  0
   -5.8570    0.3880    4.3170 C   0  0  0  0  0  0  0  0  0  0  0  0
   -5.4380    1.8210    4.2600 C   0  0  0  0  0  0  0  0  0  0  0  0
   -4.1450    2.0570    4.1700 C   0  0  0  0  0  0  0  0  0  0  0  0
   -3.1630    0.9730    4.1290 C   0  0  0  0  0  0  0  0  0  0  0  0
   -3.6180   -0.2880    3.4470 C   0  0  2  0  0  0  0  0  0  0  0  0
   -0.6040   -1.1760    1.2980 C   0  0  0  0  0  0  0  0  0  0  0  0
    0.7330   -1.6200    1.4050 C   0  0  0  0  0  0  0  0  0  0  0  0
    1.4710   -1.7900    0.3510 O   0  0  0  0  0  0  0  0  0  0  0  0
    2.1730   -1.9470   -0.7130 C   0  0  0  0  0  0  0  0  0  0  0  0
    2.3750   -0.6620   -1.5550 C   0  0  0  0  0  0  0  0  0  0  0  0
    3.0400    0.3900   -0.6690 C   0  0  0  0  0  0  0  0  0  0  0  0
    3.2710    1.6860   -1.3670 C   0  0  0  0  0  0  0  0  0  0  0  0
    4.0770    1.7070   -2.4640 O   0  0  0  0  0  0  0  0  0  0  0  0
    5.3970    1.4590   -2.6260 C   0  0  0  0  0  0  0  0  0  0  0  0
    6.1860    1.1370   -1.5520 C   0  0  0  0  0  0  0  0  0  0  0  0
    7.5320    0.8890   -1.7590 C   0  0  0  0  0  0  0  0  0  0  0  0
    8.1370    0.9470   -2.9920 C   0  0  0  0  0  0  0  0  0  0  0  0
    9.5540    0.6880   -3.1790 C   0  0  0  0  0  0  0  0  0  0  0  0
   10.4590    0.3490   -2.2520 N   0  0  0  0  0  0  0  0  0  0  0  0
   11.6620    0.1910   -2.8330 N   0  0  0  0  0  0  0  0  0  0  0  0
   11.5120    0.4300   -4.1190 N   0  0  0  0  0  0  0  0  0  0  0  0
   10.2230    0.7350   -4.3350 N   0  0  0  0  0  0  0  0  0  0  0  0
    7.3290    1.2700   -4.0610 C   0  0  0  0  0  0  0  0  0  0  0  0
    5.9930    1.5220   -3.9010 C   0  0  0  0  0  0  0  0  0  0  0  0
  1  2  1  0
  2  3  1  0
  3  4  2  0
  3 26  1  0
  4  5  1  0
  5  6  2  0
  6  7  1  0
  6 25  1  0
  7  8  2  0
  7 24  1  0
  8  9  1  0
 10  9  1  1
  9 17  1  0
 10 11  1  0
 10 16  1  0
 11 12  1  0
 12 13  1  0
 13 14  1  0
 14 15  1  0
 15 16  1  0
 17 18  2  0
 17 19  1  0
 19 20  1  1
 19 24  1  0
 20 21  1  0
 21 22  2  0
 22 23  1  0
 24 23  1  6
 25 26  2  0
 26 27  1  0
 27 28  1  0
 28 29  1  0
 29 30  1  0
 30 31  1  0
 31 32  1  0
 32 33  1  0
 33 34  2  0
 33 43  1  0
 34 35  1  0
 35 36  2  0
 36 37  1  0
 36 42  1  0
 37 38  2  0
 37 41  1  0
 38 39  1  0
 39 40  2  0
 40 41  1  0
 42 43  2  0
M  END
