
     RDKit          3D

 45 50  0  0  0  0  0  0  0  0999 V2000
   12.6300    1.9660   -0.3730 C   0  0  0  0  0  0  0  0  0  0  0  0
   13.0200    0.5170   -0.1030 C   0  0  0  0  0  0  0  0  0  0  0  0
   11.7920   -0.3500    0.0230 C   0  0  0  0  0  0  0  0  0  0  0  0
   10.9680   -0.3240   -1.2470 C   0  0  0  0  0  0  0  0  0  0  0  0
    9.7620   -1.2150   -1.0110 C   0  0  2  0  0  0  0  0  0  0  0  0
    8.8470   -1.2820   -2.2020 C   0  0  0  0  0  0  0  0  0  0  0  0
    7.4570   -1.3990   -1.8260 C   0  0  0  0  0  0  0  0  0  0  0  0
    7.1080   -0.9780   -0.6480 C   0  0  0  0  0  0  0  0  0  0  0  0
    5.7440   -0.9940   -0.0520 C   0  0  0  0  0  0  0  0  0  0  0  0
    4.6190   -1.3180   -0.3470 N   0  0  0  0  0  0  0  0  0  0  0  0
    3.5570   -1.1770    0.4140 C   0  0  0  0  0  0  0  0  0  0  0  0
    2.2180   -1.5130    0.0910 C   0  0  0  0  0  0  0  0  0  0  0  0
    1.2060   -1.2810    0.9680 C   0  0  0  0  0  0  0  0  0  0  0  0
   -0.1700   -1.6060    0.5900 N   0  0  0  0  0  0  0  0  0  0  0  0
   -1.0840   -0.4890    0.4860 C   0  0  0  0  0  0  0  0  0  0  0  0
   -0.4930    0.5980    0.7390 O   0  0  0  0  0  0  0  0  0  0  0  0
   -2.4800   -0.6420    0.1430 C   0  0  0  0  0  0  0  0  0  0  0  0
   -3.3650    0.3240    0.0100 C   0  0  0  0  0  0  0  0  0  0  0  0
   -3.0230    1.7180    0.1950 C   0  0  0  0  0  0  0  0  0  0  0  0
   -1.8760    2.0960    0.4730 O   0  0  0  0  0  0  0  0  0  0  0  0
   -4.0050    2.7320    0.0650 N   0  0  0  0  0  0  0  0  0  0  0  0
   -3.5510    4.1500    0.2710 C   0  0  0  0  0  0  0  0  0  0  0  0
   -4.6350    4.8690    0.9720 C   0  0  0  0  0  0  0  0  0  0  0  0
   -5.5530    4.0420    1.8150 C   0  0  1  0  0  0  0  0  0  0  0  0
   -4.7730    3.4570    2.9710 C   0  0  0  0  0  0  0  0  0  0  0  0
   -6.6810    4.9100    2.3830 C   0  0  0  0  0  0  0  0  0  0  0  0
   -6.2060    2.8990    1.0570 C   0  0  0  0  0  0  0  0  0  0  0  0
   -5.3900    2.6150   -0.2130 C   0  0  0  0  0  0  0  0  0  0  0  0
   -4.6600   -0.0030   -0.3150 O   0  0  0  0  0  0  0  0  0  0  0  0
   -5.1780   -1.2940   -0.5300 C   0  0  0  0  0  0  0  0  0  0  0  0
   -6.4380   -1.3840   -0.8310 C   0  0  0  0  0  0  0  0  0  0  0  0
   -7.2150   -2.5640   -1.0860 C   0  0  0  0  0  0  0  0  0  0  0  0
   -7.4840   -3.6120   -0.2280 C   0  0  0  0  0  0  0  0  0  0  0  0
   -8.2500   -4.4870   -0.8680 N   0  0  0  0  0  0  0  0  0  0  0  0
   -8.4990   -4.0750   -2.0900 N   0  0  0  0  0  0  0  0  0  0  0  0
   -9.3210   -4.7850   -3.0940 C   0  0  0  0  0  0  0  0  0  0  0  0
   -7.8840   -2.9030   -2.2660 C   0  0  0  0  0  0  0  0  0  0  0  0
   -4.2010   -2.3500   -0.3850 C   0  0  0  0  0  0  0  0  0  0  0  0
   -4.5580   -3.7620   -0.6420 C   0  0  0  0  0  0  0  0  0  0  0  0
   -2.9450   -2.0230   -0.0690 C   0  0  0  0  0  0  0  0  0  0  0  0
    1.4120   -0.7120    2.2160 C   0  0  0  0  0  0  0  0  0  0  0  0
    2.7090   -0.3790    2.5500 C   0  0  0  0  0  0  0  0  0  0  0  0
    3.7260   -0.6320    1.6180 C   0  0  0  0  0  0  0  0  0  0  0  0
    5.4990   -0.3130    1.6420 S   0  0  0  0  0  0  0  0  0  0  0  0
    8.5960   -0.3690    0.1380 S   0  0  0  0  0  0  0  0  0  0  0  0
  1  2  1  0
  2  3  1  0
  3  4  1  0
  5  4  1  6
  5  6  1  0
  5 45  1  0
  6  7  1  0
  7  8  2  0
  8  9  1  0
  8 45  1  0
  9 10  2  0
  9 44  1  0
 10 11  1  0
 11 12  2  0
 11 43  1  0
 12 13  1  0
 13 14  1  0
 13 41  2  0
 14 15  1  0
 15 16  2  0
 15 17  1  0
 17 18  2  0
 17 40  1  0
 18 19  1  0
 18 29  1  0
 19 20  2  0
 19 21  1  0
 21 22  1  0
 21 28  1  0
 22 23  1  0
 23 24  1  0
 24 25  1  1
 24 26  1  0
 24 27  1  0
 27 28  1  0
 29 30  1  0
 30 31  2  3
 30 38  1  0
 31 32  1  0
 32 33  1  0
 32 37  2  0
 33 34  2  0
 34 35  1  0
 35 36  1  0
 35 37  1  0
 38 39  1  0
 38 40  2  0
 41 42  1  0
 42 43  2  0
 43 44  1  0
M  END
