
     RDKit          3D

 45 50  0  0  0  0  0  0  0  0999 V2000
    7.4210   -1.0930    2.1820 C   0  0  0  0  0  0  0  0  0  0  0  0
    5.9430   -1.3370    2.0560 C   0  0  2  0  0  0  0  0  0  0  0  0
    5.6230   -2.7760    2.2990 C   0  0  0  0  0  0  0  0  0  0  0  0
    5.3850   -0.8560    0.7990 N   0  0  0  0  0  0  0  0  0  0  0  0
    4.4140   -1.4470    0.0570 C   0  0  0  0  0  0  0  0  0  0  0  0
    4.1530   -0.6870   -1.0630 C   0  0  0  0  0  0  0  0  0  0  0  0
    3.1550   -1.0310   -2.0860 C   0  0  0  0  0  0  0  0  0  0  0  0
    3.0420   -2.2720   -2.5720 N   0  0  0  0  0  0  0  0  0  0  0  0
    2.1740   -2.6820   -3.4900 C   0  0  0  0  0  0  0  0  0  0  0  0
    1.3030   -1.7170   -3.9860 C   0  0  0  0  0  0  0  0  0  0  0  0
    1.3770   -0.4300   -3.5230 C   0  0  0  0  0  0  0  0  0  0  0  0
    2.2890   -0.0580   -2.5760 C   0  0  0  0  0  0  0  0  0  0  0  0
    2.4020    1.5850   -1.9660 S   0  0  0  0  0  0  0  0  0  0  0  0
    1.4980    1.8370   -0.4050 C   0  0  0  0  0  0  0  0  0  0  0  0
    1.6970    2.8740    0.1480 N   0  0  0  0  0  0  0  0  0  0  0  0
    1.4770    3.7110    1.1640 C   0  0  0  0  0  0  0  0  0  0  0  0
    0.7540    3.4220    2.3120 C   0  0  0  0  0  0  0  0  0  0  0  0
    0.5980    4.3780    3.2770 C   0  0  0  0  0  0  0  0  0  0  0  0
    1.1180    5.6470    3.1960 C   0  0  0  0  0  0  0  0  0  0  0  0
    1.8350    5.9450    2.0650 C   0  0  0  0  0  0  0  0  0  0  0  0
    2.0040    5.0230    1.0990 C   0  0  0  0  0  0  0  0  0  0  0  0
    0.4370    0.5300    0.0950 S   0  0  2  0  0  0  0  0  0  0  0  0
    0.8760    0.1130    1.4330 O   0  0  0  0  0  0  0  0  0  0  0  0
    0.7470   -0.6330   -0.8510 O   0  0  0  0  0  0  0  0  0  0  0  0
   -1.2040    0.8890   -0.1300 N   0  0  0  0  0  0  0  0  0  0  0  0
   -1.5300    1.1300   -1.4960 C   0  0  1  0  0  0  0  0  0  0  0  0
   -2.5150    0.2730   -2.1710 C   0  0  0  0  0  0  0  0  0  0  0  0
   -3.9150    0.7180   -2.2830 C   0  0  0  0  0  0  0  0  0  0  0  0
   -4.2300    2.1290   -1.9780 C   0  0  0  0  0  0  0  0  0  0  0  0
   -3.1570    2.9410   -1.3590 C   0  0  0  0  0  0  0  0  0  0  0  0
   -1.8250    2.5620   -1.8700 C   0  0  1  0  0  0  0  0  0  0  0  0
   -0.8170    3.4550   -1.5460 O   0  0  0  0  0  0  0  0  0  0  0  0
   -2.1770    0.3690    0.6970 C   0  0  2  0  0  0  0  0  0  0  0  0
   -2.0710    0.8760    2.1160 C   0  0  0  0  0  0  0  0  0  0  0  0
   -2.5100   -1.0690    0.7520 C   0  0  0  0  0  0  0  0  0  0  0  0
   -1.6210   -2.1080    0.8740 C   0  0  0  0  0  0  0  0  0  0  0  0
   -2.0170   -3.4460    0.9210 C   0  0  0  0  0  0  0  0  0  0  0  0
   -3.3400   -3.7770    0.8460 C   0  0  0  0  0  0  0  0  0  0  0  0
   -4.2630   -2.7740    0.7250 C   0  0  0  0  0  0  0  0  0  0  0  0
   -3.8420   -1.4710    0.6810 C   0  0  0  0  0  0  0  0  0  0  0  0
   -5.6470   -3.3870    0.6610 C   0  0  0  0  0  0  0  0  0  0  0  0
   -5.3510   -4.7980    0.2540 C   0  0  0  0  0  0  0  0  0  0  0  0
   -4.0230   -5.1160    0.8730 C   0  0  0  0  0  0  0  0  0  0  0  0
    5.0050    0.3820   -0.9620 C   0  0  0  0  0  0  0  0  0  0  0  0
    5.7170    0.2340    0.1640 N   0  0  0  0  0  0  0  0  0  0  0  0
  2  1  1  6
  2  3  1  0
  2  4  1  0
  4  5  1  0
  4 45  1  0
  5  6  2  0
  6  7  1  0
  6 44  1  0
  7  8  2  0
  7 12  1  0
  8  9  1  0
  9 10  2  0
 10 11  1  0
 11 12  2  0
 12 13  1  0
 13 14  1  0
 14 15  2  3
 14 22  1  0
 15 16  1  0
 16 17  2  0
 16 21  1  0
 17 18  1  0
 18 19  2  0
 19 20  1  0
 20 21  2  0
 22 23  2  0
 22 24  2  0
 22 25  1  1
 26 25  1  1
 25 33  1  0
 26 27  1  0
 26 31  1  0
 27 28  1  0
 28 29  1  0
 29 30  1  0
 30 31  1  0
 31 32  1  1
 33 34  1  1
 33 35  1  0
 35 36  2  0
 35 40  1  0
 36 37  1  0
 37 38  2  0
 38 39  1  0
 38 43  1  0
 39 40  2  0
 39 41  1  0
 41 42  1  0
 42 43  1  0
 44 45  2  0
M  END
