
     RDKit          3D

 45 51  0  0  0  0  0  0  0  0999 V2000
   -5.0400    0.7740   -1.5390 C   0  0  0  0  0  0  0  0  0  0  0  0
   -5.0310   -0.4450   -0.5070 C   0  0  2  0  0  0  0  0  0  0  0  0
   -5.7320    0.2330    0.6190 N   0  0  0  0  0  0  0  0  0  0  0  0
   -6.9570    0.8760    0.2030 C   0  0  0  0  0  0  0  0  0  0  0  0
   -7.5720    0.6320   -0.9900 C   0  0  0  0  0  0  0  0  0  0  0  0
   -8.6670    1.3480   -1.4320 C   0  0  0  0  0  0  0  0  0  0  0  0
   -9.1420    2.3450   -0.6200 C   0  0  0  0  0  0  0  0  0  0  0  0
   -8.5490    2.6130    0.5940 C   0  0  0  0  0  0  0  0  0  0  0  0
   -9.0580    3.5980    1.3550 N   0  0  0  0  0  0  0  0  0  0  0  0
   -8.4570    3.8370    2.5440 C   0  0  0  0  0  0  0  0  0  0  0  0
   -7.3750    3.1270    2.9710 C   0  0  0  0  0  0  0  0  0  0  0  0
   -6.8870    2.1480    2.1940 N   0  0  0  0  0  0  0  0  0  0  0  0
   -7.4380    1.8610    1.0160 C   0  0  0  0  0  0  0  0  0  0  0  0
   -3.6230   -0.5240   -0.1760 C   0  0  0  0  0  0  0  0  0  0  0  0
   -2.9640    0.6840   -0.0590 C   0  0  0  0  0  0  0  0  0  0  0  0
   -1.6090    0.7730    0.1560 C   0  0  0  0  0  0  0  0  0  0  0  0
   -0.9330   -0.4650    0.2530 C   0  0  0  0  0  0  0  0  0  0  0  0
    0.5170   -0.3400    0.1330 N   0  0  0  0  0  0  0  0  0  0  0  0
    1.1390   -1.3560   -0.6460 C   0  0  0  0  0  0  0  0  0  0  0  0
    2.5980   -1.4920   -0.6350 C   0  0  0  0  0  0  0  0  0  0  0  0
    3.3090   -0.3570    0.0070 C   0  0  0  0  0  0  0  0  0  0  0  0
    4.6970   -0.3910   -0.0320 C   0  0  0  0  0  0  0  0  0  0  0  0
    5.3870    0.6400    0.5370 C   0  0  0  0  0  0  0  0  0  0  0  0
    7.0900    0.5640    0.4590 S   0  0  0  0  0  0  0  0  0  0  0  0
    6.9270    1.1330   -1.1460 C   0  0  0  0  0  0  0  0  0  0  0  0
    7.0430    0.0780    1.7460 O   0  0  0  0  0  0  0  0  0  0  0  0
    8.1150    1.8230    0.7710 C   0  0  2  0  0  0  0  0  0  0  0  0
    7.8310    3.2030    0.2030 C   0  0  0  0  0  0  0  0  0  0  0  0
    9.3730    1.2330    0.1090 C   0  0  0  0  0  0  0  0  0  0  0  0
    9.2320   -0.1070   -0.4080 C   0  0  0  0  0  0  0  0  0  0  0  0
    7.9090   -0.7950   -0.1310 C   0  0  1  0  0  0  0  0  0  0  0  0
    8.2210   -1.9490    0.7940 C   0  0  0  0  0  0  0  0  0  0  0  0
    4.7750    1.6710    1.1260 C   0  0  0  0  0  0  0  0  0  0  0  0
    3.3930    1.6840    1.1560 C   0  0  0  0  0  0  0  0  0  0  0  0
    2.6500    0.6670    0.5910 C   0  0  0  0  0  0  0  0  0  0  0  0
    1.1770    0.7830    0.6640 C   0  0  0  0  0  0  0  0  0  0  0  0
   -1.5680   -1.6010    0.1630 N   0  0  0  0  0  0  0  0  0  0  0  0
   -2.9450   -1.7030   -0.0580 C   0  0  0  0  0  0  0  0  0  0  0  0
   -3.6370   -2.9510   -0.3340 C   0  0  1  0  0  0  0  0  0  0  0  0
   -4.3530   -3.5900    0.7790 C   0  0  0  0  0  0  0  0  0  0  0  0
   -5.4160   -4.5120    0.2930 C   0  0  0  0  0  0  0  0  0  0  0  0
   -5.6140   -4.2340   -1.4480 S   0  0  1  0  0  0  0  0  0  0  0  0
   -5.5220   -5.5200   -2.2200 O   0  0  0  0  0  0  0  0  0  0  0  0
   -6.8490   -3.4720   -1.7950 O   0  0  0  0  0  0  0  0  0  0  0  0
   -4.1850   -3.1910   -1.6720 C   0  0  0  0  0  0  0  0  0  0  0  0
  2  1  1  6
  2  3  1  0
  2 14  1  0
  3  4  1  0
  4  5  2  0
  4 13  1  0
  5  6  1  0
  6  7  2  0
  7  8  1  0
  8  9  2  0
  8 13  1  0
  9 10  1  0
 10 11  2  0
 11 12  1  0
 12 13  2  0
 14 15  2  0
 14 38  1  0
 15 16  1  0
 16 17  2  0
 17 18  1  0
 17 37  1  0
 18 19  1  0
 18 36  1  0
 19 20  1  0
 20 21  1  0
 21 22  2  0
 21 35  1  0
 22 23  1  0
 23 24  1  0
 23 33  2  0
 24 25  1  0
 24 26  2  0
 24 27  1  0
 24 31  1  0
 27 28  1  6
 27 29  1  0
 29 30  1  0
 30 31  1  0
 31 32  1  1
 33 34  1  0
 34 35  2  0
 35 36  1  0
 37 38  2  0
 39 38  1  1
 39 40  1  0
 39 45  1  0
 40 41  1  0
 42 41  1  1
 42 43  2  0
 42 44  2  0
 42 45  1  0
M  END
