
     RDKit          3D

 45 49  0  0  0  0  0  0  0  0999 V2000
    6.5600    2.4810   -1.9990 C   0  0  0  0  0  0  0  0  0  0  0  0
    6.1930    1.2080   -1.3210 N   0  0  0  0  0  0  0  0  0  0  0  0
    5.0710    1.4730   -0.5230 C   0  0  1  0  0  0  0  0  0  0  0  0
    4.0820    2.4460   -1.1730 C   0  0  0  0  0  0  0  0  0  0  0  0
    4.3870    0.4210    0.2090 C   0  0  0  0  0  0  0  0  0  0  0  0
    3.0100    0.4910    0.5090 C   0  0  0  0  0  0  0  0  0  0  0  0
    2.6580   -0.5790    1.2180 N   0  0  0  0  0  0  0  0  0  0  0  0
    1.3410   -0.9150    1.7460 C   0  0  1  0  0  0  0  0  0  0  0  0
    1.5410   -1.8490    2.9460 C   0  0  0  0  0  0  0  0  0  0  0  0
    0.6520    0.3190    2.2770 C   0  0  0  0  0  0  0  0  0  0  0  0
    0.4860   -1.6680    0.7640 C   0  0  0  0  0  0  0  0  0  0  0  0
    0.2190   -0.9340   -0.4870 C   0  0  0  0  0  0  0  0  0  0  0  0
    1.2430   -0.7380   -1.2610 O   0  0  0  0  0  0  0  0  0  0  0  0
   -0.9670   -0.4200   -0.9590 N   0  0  0  0  0  0  0  0  0  0  0  0
   -2.0850   -0.2230   -0.4580 C   0  0  0  0  0  0  0  0  0  0  0  0
   -2.5410   -0.6010    1.2590 S   0  0  0  0  0  0  0  0  0  0  0  0
   -4.2350    0.0070    1.1000 C   0  0  0  0  0  0  0  0  0  0  0  0
   -5.1810   -0.0130    2.2020 C   0  0  0  0  0  0  0  0  0  0  0  0
   -4.9270   -0.8820    3.2580 C   0  0  0  0  0  0  0  0  0  0  0  0
   -5.7090   -0.9320    4.3800 C   0  0  0  0  0  0  0  0  0  0  0  0
   -6.8050   -0.1000    4.5020 C   0  0  0  0  0  0  0  0  0  0  0  0
   -7.0680    0.7610    3.4720 C   0  0  0  0  0  0  0  0  0  0  0  0
   -6.2680    0.8020    2.3440 C   0  0  0  0  0  0  0  0  0  0  0  0
   -4.2700    0.4180   -0.2140 C   0  0  0  0  0  0  0  0  0  0  0  0
   -5.6080    0.8250   -0.7710 C   0  0  0  0  0  0  0  0  0  0  0  0
   -5.7400    1.8770   -1.5270 C   0  0  0  0  0  0  0  0  0  0  0  0
   -7.0620    2.2580   -2.0710 C   0  0  1  0  0  0  0  0  0  0  0  0
   -6.9530    2.6060   -3.8120 Cl  0  0  0  0  0  0  0  0  0  0  0  0
   -8.0140    1.2530   -1.8580 O   0  0  0  0  0  0  0  0  0  0  0  0
   -7.8770    0.1470   -1.0630 C   0  0  0  0  0  0  0  0  0  0  0  0
   -6.7250   -0.1110   -0.5070 C   0  0  0  0  0  0  0  0  0  0  0  0
   -3.2210    0.3040   -0.9680 N   0  0  0  0  0  0  0  0  0  0  0  0
   -3.1510    0.6340   -2.4300 C   0  0  1  0  0  0  0  0  0  0  0  0
   -2.2790    1.8430   -2.6010 C   0  0  0  0  0  0  0  0  0  0  0  0
   -2.5700   -0.5730   -3.1090 C   0  0  0  0  0  0  0  0  0  0  0  0
   -1.3250   -0.7350   -3.6330 C   0  0  0  0  0  0  0  0  0  0  0  0
   -1.2920   -2.0250   -4.1450 C   0  0  0  0  0  0  0  0  0  0  0  0
   -2.4480   -2.5830   -3.9320 O   0  0  0  0  0  0  0  0  0  0  0  0
   -3.2450   -1.7470   -3.3120 C   0  0  0  0  0  0  0  0  0  0  0  0
    3.7470   -1.2950    1.3640 N   0  0  0  0  0  0  0  0  0  0  0  0
    4.8190   -0.7280    0.7680 C   0  0  0  0  0  0  0  0  0  0  0  0
    6.1410   -1.3640    0.7730 C   0  0  1  0  0  0  0  0  0  0  0  0
    6.7300   -1.7660   -0.5190 C   0  0  0  0  0  0  0  0  0  0  0  0
    7.1380   -0.5380    1.6200 C   0  0  0  0  0  0  0  0  0  0  0  0
    6.0230   -2.6510    1.5840 C   0  0  0  0  0  0  0  0  0  0  0  0
  1  2  1  0
  2  3  1  0
  3  4  1  6
  3  5  1  0
  5  6  2  0
  5 41  1  0
  6  7  1  0
  7  8  1  0
  7 40  1  0
  8  9  1  1
  8 10  1  0
  8 11  1  0
 11 12  1  0
 12 13  2  0
 12 14  1  0
 14 15  2  3
 15 16  1  0
 15 32  1  0
 16 17  1  0
 17 18  1  0
 17 24  2  0
 18 19  2  0
 18 23  1  0
 19 20  1  0
 20 21  2  0
 21 22  1  0
 22 23  2  0
 24 25  1  0
 24 32  1  0
 25 26  2  0
 25 31  1  0
 26 27  1  0
 27 28  1  6
 27 29  1  0
 29 30  1  0
 30 31  2  0
 32 33  1  0
 33 34  1  1
 33 35  1  0
 35 36  1  0
 35 39  2  0
 36 37  2  0
 37 38  1  0
 38 39  1  0
 40 41  2  0
 41 42  1  0
 42 43  1  6
 42 44  1  0
 42 45  1  0
M  CHG  1   2   1
M  END
