
     RDKit          3D

 20 19  0  0  0  0  0  0  0  0999 V2000
   -4.1080   -1.3080    0.3510 C   0  0  0  0  0  0  0  0  0  0  0  0
   -3.6840    0.0190   -0.2380 C   0  0  2  0  0  0  0  0  0  0  0  0
   -2.3990    0.3230    0.2610 O   0  0  0  0  0  0  0  0  0  0  0  0
   -1.3560    0.5360   -0.6420 C   0  0  0  0  0  0  0  0  0  0  0  0
   -1.6050    0.4470   -1.8550 O   0  0  0  0  0  0  0  0  0  0  0  0
   -0.0240    0.8520   -0.1050 C   0  0  0  0  0  0  0  0  0  0  0  0
    0.9080    0.9750   -1.1010 O   0  0  0  0  0  0  0  0  0  0  0  0
    1.1790   -0.1250   -1.8440 C   0  0  0  0  0  0  0  0  0  0  0  0
    1.8460   -1.2500   -1.1020 C   0  0  0  0  0  0  0  0  0  0  0  0
    3.0400   -0.9650   -0.6080 O   0  0  0  0  0  0  0  0  0  0  0  0
    3.3710   -0.0390    0.2840 C   0  0  2  0  0  0  0  0  0  0  0  0
    4.4630    0.8750   -0.2510 C   0  0  0  0  0  0  0  0  0  0  0  0
    4.9140    1.9000    0.5790 N   0  0  0  0  0  0  0  0  0  0  0  0
    4.9230    0.6990   -1.3860 O   0  0  0  0  0  0  0  0  0  0  0  0
    4.0130   -0.6970    1.5030 C   0  0  0  0  0  0  0  0  0  0  0  0
    4.1450   -2.0980    1.4910 N   0  0  0  0  0  0  0  0  0  0  0  0
    4.3730    0.0540    2.4220 O   0  0  0  0  0  0  0  0  0  0  0  0
   -4.6820    1.0300    0.2030 C   0  0  0  0  0  0  0  0  0  0  0  0
   -6.0560    0.8890   -0.1410 N   0  0  0  0  0  0  0  0  0  0  0  0
   -4.2560    2.1420    0.9730 S   0  0  0  0  0  0  0  0  0  0  0  0
  2  1  1  1
  2  3  1  0
  2 18  1  0
  3  4  1  0
  4  5  2  0
  4  6  1  0
  6  7  1  0
  7  8  1  0
  8  9  1  0
  9 10  1  0
 11 10  1  6
 11 12  1  0
 11 15  1  0
 12 13  1  0
 12 14  2  0
 15 16  1  0
 15 17  2  0
 18 19  1  0
 18 20  2  0
M  CHG  1  19   1
M  END
