
     RDKit          3D

 26 28  0  0  0  0  0  0  0  0999 V2000
   -3.3970    0.6250   -1.4530 C   0  0  0  0  0  0  0  0  0  0  0  0
   -3.0740    0.3320   -0.0290 C   0  0  0  0  0  0  0  0  0  0  0  0
   -1.8020    0.4260    0.4610 N   0  0  0  0  0  0  0  0  0  0  0  0
   -1.8990    0.0750    1.7460 C   0  0  0  0  0  0  0  0  0  0  0  0
   -0.7650    0.0230    2.7040 C   0  0  0  0  0  0  0  0  0  0  0  0
    0.4700    0.1400    2.0380 O   0  0  0  0  0  0  0  0  0  0  0  0
    0.8450   -0.8110    1.0680 C   0  0  0  0  0  0  0  0  0  0  0  0
    0.0430   -1.7250    0.8480 O   0  0  0  0  0  0  0  0  0  0  0  0
    2.1220   -0.6970    0.3750 C   0  0  0  0  0  0  0  0  0  0  0  0
    2.6050   -1.5600   -0.5850 C   0  0  0  0  0  0  0  0  0  0  0  0
    3.8230   -1.1190   -0.9910 N   0  0  0  0  0  0  0  0  0  0  0  0
    4.1050   -0.0030   -0.3040 C   0  0  0  0  0  0  0  0  0  0  0  0
    5.3420    0.8370   -0.4090 C   0  0  1  0  0  0  0  0  0  0  0  0
    6.6170    0.0410   -0.1220 C   0  0  0  0  0  0  0  0  0  0  0  0
    7.2700    0.8470   -1.2370 C   0  0  0  0  0  0  0  0  0  0  0  0
    5.8570    1.0480   -1.7940 C   0  0  0  0  0  0  0  0  0  0  0  0
    3.0760    0.2440    0.5160 N   0  0  0  0  0  0  0  0  0  0  0  0
   -3.1210   -0.2220    2.0700 O   0  0  0  0  0  0  0  0  0  0  0  0
   -3.8830   -0.0740    0.9920 C   0  0  0  0  0  0  0  0  0  0  0  0
   -5.3340   -0.3080    0.9340 C   0  0  0  0  0  0  0  0  0  0  0  0
   -6.1110    0.5740    0.3800 C   0  0  0  0  0  0  0  0  0  0  0  0
   -5.6560    1.7200   -0.1570 F   0  0  0  0  0  0  0  0  0  0  0  0
   -7.5540    0.3230    0.3250 C   0  0  0  0  0  0  0  0  0  0  0  0
   -8.3480    1.2180   -0.2370 C   0  0  0  0  0  0  0  0  0  0  0  0
  -10.0650    0.9040   -0.2940 Cl  0  0  0  0  0  0  0  0  0  0  0  0
   -7.7000    2.7110   -0.9210 Cl  0  0  0  0  0  0  0  0  0  0  0  0
  1  2  1  0
  2  3  1  0
  2 19  2  0
  3  4  2  0
  4  5  1  0
  4 18  1  0
  5  6  1  0
  6  7  1  0
  7  8  2  0
  7  9  1  0
  9 10  2  0
  9 17  1  0
 10 11  1  0
 11 12  1  0
 13 12  1  6
 12 17  2  0
 13 14  1  0
 13 16  1  0
 14 15  1  0
 15 16  1  0
 18 19  1  0
 19 20  1  0
 20 21  2  3
 21 22  1  0
 21 23  1  0
 23 24  2  3
 24 25  1  0
 24 26  1  0
M  END
