
     RDKit          3D

 20 19  0  0  0  0  0  0  0  0999 V2000
   -4.0130   -1.7770   -1.5680 N   0  0  0  0  0  0  0  0  0  0  0  0
   -2.7760   -2.1100   -0.9590 C   0  0  0  0  0  0  0  0  0  0  0  0
   -2.4330   -3.3320   -1.1120 O   0  0  0  0  0  0  0  0  0  0  0  0
   -1.9220   -1.1710   -0.2050 C   0  0  1  0  0  0  0  0  0  0  0  0
   -2.6010   -0.4890    0.9430 C   0  0  0  0  0  0  0  0  0  0  0  0
   -3.7780    0.3480    0.6040 C   0  0  0  0  0  0  0  0  0  0  0  0
   -3.4560    1.4650   -0.3220 C   0  0  0  0  0  0  0  0  0  0  0  0
   -2.4640    2.4440    0.0650 N   0  0  0  0  0  0  0  0  0  0  0  0
   -4.0660    1.6590   -1.6020 S   0  0  0  0  0  0  0  0  0  0  0  0
   -0.7500   -1.9150    0.2380 N   0  0  0  0  0  0  0  0  0  0  0  0
    0.5750   -1.6190   -0.1870 C   0  0  0  0  0  0  0  0  0  0  0  0
    0.6990   -0.6610   -0.9860 O   0  0  0  0  0  0  0  0  0  0  0  0
    1.7590   -2.3720    0.2620 C   0  0  0  0  0  0  0  0  0  0  0  0
    2.9080   -1.8080   -0.3280 O   0  0  0  0  0  0  0  0  0  0  0  0
    3.2320   -0.4930   -0.0600 C   0  0  0  0  0  0  0  0  0  0  0  0
    2.5080    0.1740    0.6990 O   0  0  0  0  0  0  0  0  0  0  0  0
    4.3480    0.1180   -0.6120 O   0  0  0  0  0  0  0  0  0  0  0  0
    4.6840    1.4430   -0.3480 C   0  0  0  0  0  0  0  0  0  0  0  0
    4.9440    1.7310    1.1130 C   0  0  0  0  0  0  0  0  0  0  0  0
    5.2740    3.0950    1.2570 O   0  0  0  0  0  0  0  0  0  0  0  0
  1  2  1  0
  2  3  2  0
  2  4  1  0
  4  5  1  1
  4 10  1  0
  5  6  1  0
  6  7  1  0
  7  8  1  0
  7  9  2  0
 10 11  1  0
 11 12  2  0
 11 13  1  0
 13 14  1  0
 14 15  1  0
 15 16  2  0
 15 17  1  0
 17 18  1  0
 18 19  1  0
 19 20  1  0
M  CHG  1   8   1
M  END
