
     RDKit          3D

 20 19  0  0  0  0  0  0  0  0999 V2000
   -5.6070   -0.5250   -0.7450 N   0  0  0  0  0  0  0  0  0  0  0  0
   -5.7670    0.3370    0.3550 C   0  0  0  0  0  0  0  0  0  0  0  0
   -6.9240    0.7070    0.6740 O   0  0  0  0  0  0  0  0  0  0  0  0
   -4.6310    0.8270    1.1510 C   0  0  0  0  0  0  0  0  0  0  0  0
   -3.4000    0.3810    0.7550 O   0  0  0  0  0  0  0  0  0  0  0  0
   -3.0240    0.6900   -0.5200 C   0  0  1  0  0  0  0  0  0  0  0  0
   -1.8610    1.6410   -0.5060 C   0  0  0  0  0  0  0  0  0  0  0  0
   -0.7060    1.1820    0.1030 O   0  0  0  0  0  0  0  0  0  0  0  0
   -0.4750    0.8250    1.3940 C   0  0  0  0  0  0  0  0  0  0  0  0
   -1.3980    0.9000    2.2200 O   0  0  0  0  0  0  0  0  0  0  0  0
    1.1260    0.2380    1.9810 S   0  0  0  0  0  0  0  0  0  0  0  0
    2.2420    0.2440    0.5540 C   0  0  0  0  0  0  0  0  0  0  0  0
    3.6060   -0.2270    0.9260 C   0  0  0  0  0  0  0  0  0  0  0  0
    3.8700   -0.5590    2.0600 O   0  0  0  0  0  0  0  0  0  0  0  0
    4.6290   -0.2760   -0.1410 C   0  0  0  0  0  0  0  0  0  0  0  0
    5.9350   -0.7790    0.4450 C   0  0  0  0  0  0  0  0  0  0  0  0
    6.9050   -0.8110   -0.6290 N   0  0  0  0  0  0  0  0  0  0  0  0
   -2.6590   -0.5510   -1.2870 C   0  0  0  0  0  0  0  0  0  0  0  0
   -2.7040   -1.8030   -0.6580 N   0  0  0  0  0  0  0  0  0  0  0  0
   -2.3150   -0.4360   -2.4900 O   0  0  0  0  0  0  0  0  0  0  0  0
  1  2  1  0
  2  3  2  0
  2  4  1  0
  4  5  1  0
  5  6  1  0
  6  7  1  1
  6 18  1  0
  7  8  1  0
  8  9  1  0
  9 10  2  0
  9 11  1  0
 11 12  1  0
 12 13  1  0
 13 14  2  0
 13 15  1  0
 15 16  1  0
 16 17  1  0
 18 19  1  0
 18 20  2  0
M  CHG  1  17   1
M  END
