
     RDKit          3D

 37 41  0  0  0  0  0  0  0  0999 V2000
    6.0720    3.4500   -0.9840 C   0  0  0  0  0  0  0  0  0  0  0  0
    6.4410    2.0770   -0.5660 C   0  0  0  0  0  0  0  0  0  0  0  0
    5.4760    1.1970   -0.3820 C   0  0  0  0  0  0  0  0  0  0  0  0
    4.1870    1.5010   -0.5590 N   0  0  0  0  0  0  0  0  0  0  0  0
    3.1880    0.6340   -0.3780 C   0  0  0  0  0  0  0  0  0  0  0  0
    1.7830    1.0510   -0.6050 C   0  0  0  0  0  0  0  0  0  0  0  0
    0.8490    0.1300    0.0410 N   0  0  0  0  0  0  0  0  0  0  0  0
   -0.5500    0.3050   -0.0250 C   0  0  0  0  0  0  0  0  0  0  0  0
   -1.0120    1.4040   -0.7450 C   0  0  0  0  0  0  0  0  0  0  0  0
   -2.3460    1.6960   -0.8850 C   0  0  0  0  0  0  0  0  0  0  0  0
   -2.7410    2.8770   -1.6590 C   0  0  0  0  0  0  0  0  0  0  0  0
   -1.8720    3.7390   -2.2970 C   0  0  0  0  0  0  0  0  0  0  0  0
   -2.5430    4.7260   -2.9190 N   0  0  0  0  0  0  0  0  0  0  0  0
   -3.8330    4.4870   -2.6740 C   0  0  0  0  0  0  0  0  0  0  0  0
   -3.9670    3.3700   -1.9120 N   0  0  0  0  0  0  0  0  0  0  0  0
   -5.2130    2.7940   -1.4380 C   0  0  1  0  0  0  0  0  0  0  0  0
   -5.4990    1.4340   -2.0280 C   0  0  0  0  0  0  0  0  0  0  0  0
   -5.3650    2.8520    0.0560 C   0  0  0  0  0  0  0  0  0  0  0  0
   -3.2080    0.8700   -0.2930 N   0  0  0  0  0  0  0  0  0  0  0  0
   -2.7680   -0.1950    0.4040 C   0  0  0  0  0  0  0  0  0  0  0  0
   -3.6590   -0.9340    0.9390 O   0  0  0  0  0  0  0  0  0  0  0  0
   -1.4660   -0.4980    0.5530 N   0  0  0  0  0  0  0  0  0  0  0  0
   -0.9960   -1.6500    1.3020 C   0  0  2  0  0  0  0  0  0  0  0  0
   -0.6990   -2.7770    0.3290 C   0  0  0  0  0  0  0  0  0  0  0  0
   -0.1830   -3.9530    1.0880 C   0  0  0  0  0  0  0  0  0  0  0  0
    0.1000   -5.0670    0.0950 C   0  0  0  0  0  0  0  0  0  0  0  0
   -1.9930   -2.0940    2.3230 C   0  0  0  0  0  0  0  0  0  0  0  0
   -2.8930   -3.1150    2.2120 C   0  0  0  0  0  0  0  0  0  0  0  0
   -3.6140   -3.1700    3.3950 C   0  0  0  0  0  0  0  0  0  0  0  0
   -3.0830   -2.1390    4.1770 C   0  0  0  0  0  0  0  0  0  0  0  0
   -2.1290   -1.5390    3.4900 O   0  0  0  0  0  0  0  0  0  0  0  0
    3.5080   -0.6140    0.0040 N   0  0  0  0  0  0  0  0  0  0  0  0
    4.7920   -1.0150    0.2080 C   0  0  0  0  0  0  0  0  0  0  0  0
    5.8070   -0.0850    0.0110 C   0  0  0  0  0  0  0  0  0  0  0  0
    6.9750   -0.6540    0.2550 C   0  0  0  0  0  0  0  0  0  0  0  0
    6.8170   -2.0650    0.6500 C   0  0  0  0  0  0  0  0  0  0  0  0
    5.3750   -2.2480    0.6050 N   0  0  0  0  0  0  0  0  0  0  0  0
  1  2  1  0
  2  3  2  3
  3  4  1  0
  3 34  1  0
  4  5  2  0
  5  6  1  0
  5 32  1  0
  6  7  1  0
  7  8  1  0
  8  9  2  0
  8 22  1  0
  9 10  1  0
 10 11  1  0
 10 19  2  0
 11 12  2  0
 11 15  1  0
 12 13  1  0
 13 14  2  0
 14 15  1  0
 15 16  1  0
 16 17  1  1
 16 18  1  0
 19 20  1  0
 20 21  2  0
 20 22  1  0
 22 23  1  0
 23 24  1  6
 23 27  1  0
 24 25  1  0
 25 26  1  0
 27 28  2  0
 27 31  1  0
 28 29  1  0
 29 30  2  0
 30 31  1  0
 32 33  2  0
 33 34  1  0
 33 37  1  0
 34 35  2  0
 35 36  1  0
 36 37  1  0
M  END
