
     RDKit          3D

 36 40  0  0  0  0  0  0  0  0999 V2000
    1.5290   -4.6380   -1.1820 C   0  0  0  0  0  0  0  0  0  0  0  0
    1.5470   -3.3250   -0.6830 O   0  0  0  0  0  0  0  0  0  0  0  0
    0.4070   -2.5980   -0.4000 C   0  0  0  0  0  0  0  0  0  0  0  0
   -0.8390   -3.1450   -0.6020 C   0  0  0  0  0  0  0  0  0  0  0  0
   -1.9900   -2.4320   -0.3250 C   0  0  0  0  0  0  0  0  0  0  0  0
   -1.9470   -1.1370    0.1670 C   0  0  0  0  0  0  0  0  0  0  0  0
   -3.1750   -0.4040    0.4660 C   0  0  0  0  0  0  0  0  0  0  0  0
   -4.3040   -1.0320    0.3000 N   0  0  0  0  0  0  0  0  0  0  0  0
   -5.5550   -0.4710    0.5460 N   0  0  0  0  0  0  0  0  0  0  0  0
   -6.7490   -1.2550    0.3260 C   0  0  1  0  0  0  0  0  0  0  0  0
   -7.5030   -1.3350    1.6380 C   0  0  0  0  0  0  0  0  0  0  0  0
   -7.6710   -0.6010   -0.6750 C   0  0  0  0  0  0  0  0  0  0  0  0
   -5.5610    0.8620    1.0040 C   0  0  0  0  0  0  0  0  0  0  0  0
   -6.6280    1.5080    0.9820 O   0  0  0  0  0  0  0  0  0  0  0  0
   -4.3400    1.5400    1.5190 C   0  0  2  0  0  0  0  0  0  0  0  0
   -4.5310    3.0340    1.1940 C   0  0  0  0  0  0  0  0  0  0  0  0
   -4.6300    3.1700   -0.2980 C   0  0  0  0  0  0  0  0  0  0  0  0
   -3.6360    2.5990   -0.9630 C   0  0  0  0  0  0  0  0  0  0  0  0
   -2.5810    1.9190   -0.1660 C   0  0  0  0  0  0  0  0  0  0  0  0
   -3.0870    1.0100    0.9090 C   0  0  2  0  0  0  0  0  0  0  0  0
   -0.6910   -0.6140    0.3600 C   0  0  0  0  0  0  0  0  0  0  0  0
    0.4810   -1.3160    0.0870 C   0  0  0  0  0  0  0  0  0  0  0  0
    1.7850   -0.6730    0.3240 C   0  0  0  0  0  0  0  0  0  0  0  0
    1.9990    0.0160    1.4810 C   0  0  0  0  0  0  0  0  0  0  0  0
    3.2080    0.6030    1.6880 C   0  0  0  0  0  0  0  0  0  0  0  0
    4.2520    0.5210    0.7390 C   0  0  0  0  0  0  0  0  0  0  0  0
    5.4960    1.1810    1.0210 C   0  0  0  0  0  0  0  0  0  0  0  0
    5.5400    1.8750    2.1240 O   0  0  0  0  0  0  0  0  0  0  0  0
    6.6880    1.1900    0.2760 N   0  0  0  0  0  0  0  0  0  0  0  0
    7.8760    1.9680    0.7460 C   0  0  0  0  0  0  0  0  0  0  0  0
    8.7300    2.0550   -0.4810 C   0  0  0  0  0  0  0  0  0  0  0  0
    8.5130    0.7150   -1.1420 C   0  0  1  0  0  0  0  0  0  0  0  0
    9.1900   -0.2340   -0.4150 O   0  0  0  0  0  0  0  0  0  0  0  0
    7.0120    0.5290   -0.9410 C   0  0  0  0  0  0  0  0  0  0  0  0
    4.0080   -0.1730   -0.4060 C   0  0  0  0  0  0  0  0  0  0  0  0
    2.7670   -0.7760   -0.6180 C   0  0  0  0  0  0  0  0  0  0  0  0
  1  2  1  0
  2  3  1  0
  3  4  2  0
  3 22  1  0
  4  5  1  0
  5  6  2  0
  6  7  1  0
  6 21  1  0
  7  8  2  0
  7 20  1  0
  8  9  1  0
  9 10  1  0
  9 13  1  0
 10 11  1  1
 10 12  1  0
 13 14  2  0
 13 15  1  0
 15 16  1  6
 15 20  1  0
 16 17  1  0
 17 18  2  0
 18 19  1  0
 20 19  1  6
 21 22  2  0
 22 23  1  0
 23 24  2  0
 23 36  1  0
 24 25  1  0
 25 26  2  0
 26 27  1  0
 26 35  1  0
 27 28  2  0
 27 29  1  0
 29 30  1  0
 29 34  1  0
 30 31  1  0
 31 32  1  0
 32 33  1  1
 32 34  1  0
 35 36  2  0
M  END
