
     RDKit          3D

 37 40  0  0  0  0  0  0  0  0999 V2000
   -4.4510    2.1680    2.3670 C   0  0  0  0  0  0  0  0  0  0  0  0
   -3.3660    1.4980    1.5810 C   0  0  0  0  0  0  0  0  0  0  0  0
   -3.7450    1.0490    0.2070 C   0  0  1  0  0  0  0  0  0  0  0  0
   -4.2110    2.2030   -0.6630 C   0  0  0  0  0  0  0  0  0  0  0  0
   -2.4970    0.5270   -0.3940 N   0  0  0  0  0  0  0  0  0  0  0  0
   -1.4300    1.3990   -0.6350 C   0  0  0  0  0  0  0  0  0  0  0  0
   -1.5080    2.6390   -0.3700 O   0  0  0  0  0  0  0  0  0  0  0  0
   -0.1480    0.9450   -1.2180 C   0  0  0  0  0  0  0  0  0  0  0  0
   -0.1860   -0.5060   -1.3280 N   0  0  0  0  0  0  0  0  0  0  0  0
    0.8190   -0.9800   -2.2500 C   0  0  0  0  0  0  0  0  0  0  0  0
    1.8080   -1.8910   -1.5930 C   0  0  0  0  0  0  0  0  0  0  0  0
    2.3250   -1.1850   -0.4460 N   0  0  0  0  0  0  0  0  0  0  0  0
    3.6660   -0.8260   -0.3420 C   0  0  0  0  0  0  0  0  0  0  0  0
    3.9600    0.4900   -0.5310 N   0  0  0  0  0  0  0  0  0  0  0  0
    5.2010    0.9650   -0.4510 C   0  0  0  0  0  0  0  0  0  0  0  0
    5.4960    2.4050   -0.6720 C   0  0  0  0  0  0  0  0  0  0  0  0
    6.2000    0.0650   -0.1650 C   0  0  0  0  0  0  0  0  0  0  0  0
    7.5000    0.5050   -0.0700 C   0  0  0  0  0  0  0  0  0  0  0  0
    8.5020   -0.4010    0.2190 C   0  0  0  0  0  0  0  0  0  0  0  0
    9.8920    0.0890    0.3190 C   0  0  0  0  0  0  0  0  0  0  0  0
    8.2350   -1.7210    0.4120 C   0  0  0  0  0  0  0  0  0  0  0  0
    9.5140   -2.8560    0.7800 Cl  0  0  0  0  0  0  0  0  0  0  0  0
    6.9380   -2.1820    0.3220 C   0  0  0  0  0  0  0  0  0  0  0  0
    5.9290   -1.2810    0.0320 C   0  0  0  0  0  0  0  0  0  0  0  0
    4.6450   -1.6770   -0.0670 N   0  0  0  0  0  0  0  0  0  0  0  0
    1.3590   -0.8760    0.5800 C   0  0  0  0  0  0  0  0  0  0  0  0
   -0.0320   -1.0920   -0.0040 C   0  0  0  0  0  0  0  0  0  0  0  0
   -4.7930    0.0020    0.1660 C   0  0  0  0  0  0  0  0  0  0  0  0
   -4.4510   -1.1250   -0.2330 O   0  0  0  0  0  0  0  0  0  0  0  0
   -6.1280    0.2250    0.5460 N   0  0  0  0  0  0  0  0  0  0  0  0
   -7.1930   -0.7190    0.5330 C   0  0  0  0  0  0  0  0  0  0  0  0
   -7.1640   -1.9350   -0.0790 C   0  0  0  0  0  0  0  0  0  0  0  0
   -8.2600   -2.7740   -0.0090 C   0  0  0  0  0  0  0  0  0  0  0  0
   -9.3520   -2.3940    0.6610 N   0  0  0  0  0  0  0  0  0  0  0  0
   -9.4090   -1.2040    1.2720 C   0  0  0  0  0  0  0  0  0  0  0  0
  -10.8890   -0.7690    2.1400 Cl  0  0  0  0  0  0  0  0  0  0  0  0
   -8.3410   -0.3500    1.2210 C   0  0  0  0  0  0  0  0  0  0  0  0
  1  2  1  0
  2  3  1  0
  3  4  1  6
  3  5  1  0
  3 28  1  0
  5  6  1  0
  6  7  2  0
  6  8  1  0
  8  9  1  0
  9 10  1  0
  9 27  1  0
 10 11  1  0
 11 12  1  0
 12 13  1  0
 12 26  1  0
 13 14  2  0
 13 25  1  0
 14 15  1  0
 15 16  1  0
 15 17  2  0
 17 18  1  0
 17 24  1  0
 18 19  2  0
 19 20  1  0
 19 21  1  0
 21 22  1  0
 21 23  2  0
 23 24  1  0
 24 25  2  0
 26 27  1  0
 28 29  2  0
 28 30  1  0
 30 31  1  0
 31 32  2  0
 31 37  1  0
 32 33  1  0
 33 34  2  0
 34 35  1  0
 35 36  1  0
 35 37  2  0
M  END
