
     RDKit          3D

 37 41  0  0  0  0  0  0  0  0999 V2000
   -5.8280    4.6140    0.1090 C   0  0  0  0  0  0  0  0  0  0  0  0
   -4.3430    4.7710   -0.1970 C   0  0  0  0  0  0  0  0  0  0  0  0
   -3.7320    3.4130   -0.3240 C   0  0  0  0  0  0  0  0  0  0  0  0
   -3.8760    2.6900    1.0240 C   0  0  0  0  0  0  0  0  0  0  0  0
   -3.3100    1.2990    0.8490 C   0  0  0  0  0  0  0  0  0  0  0  0
   -4.0650    0.2300    0.5370 N   0  0  0  0  0  0  0  0  0  0  0  0
   -3.2290   -0.8110    0.3720 C   0  0  0  0  0  0  0  0  0  0  0  0
   -3.4670   -2.1120    0.0230 N   0  0  0  0  0  0  0  0  0  0  0  0
   -2.4570   -2.9830   -0.1250 C   0  0  0  0  0  0  0  0  0  0  0  0
   -2.7760   -4.3740   -0.5140 C   0  0  2  0  0  0  0  0  0  0  0  0
   -1.6620   -5.3540   -0.3820 C   0  0  0  0  0  0  0  0  0  0  0  0
   -3.3250   -4.3340   -1.9360 C   0  0  0  0  0  0  0  0  0  0  0  0
   -3.9310   -4.8560    0.3530 C   0  0  0  0  0  0  0  0  0  0  0  0
   -1.1840   -2.5160    0.0910 C   0  0  0  0  0  0  0  0  0  0  0  0
   -0.9000   -1.1850    0.4520 C   0  0  0  0  0  0  0  0  0  0  0  0
    0.3860   -0.7940    0.6040 N   0  0  0  0  0  0  0  0  0  0  0  0
    1.2210   -0.0240    0.1260 C   0  0  0  0  0  0  0  0  0  0  0  0
    2.5050   -0.0230    0.7130 C   0  0  0  0  0  0  0  0  0  0  0  0
    2.6610   -0.9210    1.7680 O   0  0  0  0  0  0  0  0  0  0  0  0
    2.8320   -2.2820    1.3710 C   0  0  0  0  0  0  0  0  0  0  0  0
    3.9580   -2.5350    0.4420 C   0  0  0  0  0  0  0  0  0  0  0  0
    3.5290    0.7670    0.3210 C   0  0  0  0  0  0  0  0  0  0  0  0
    4.8500    0.8020    0.9170 C   0  0  0  0  0  0  0  0  0  0  0  0
    5.8190    1.6290    0.4960 C   0  0  0  0  0  0  0  0  0  0  0  0
    7.0530    1.4390    1.2880 C   0  0  0  0  0  0  0  0  0  0  0  0
    6.6710    0.3680    2.2520 C   0  0  0  0  0  0  0  0  0  0  0  0
    5.4160    0.0430    1.9980 C   0  0  0  0  0  0  0  0  0  0  0  0
    3.2630    1.6140   -0.7210 N   0  0  0  0  0  0  0  0  0  0  0  0
    2.0580    1.6490   -1.3150 C   0  0  0  0  0  0  0  0  0  0  0  0
    1.0180    0.8470   -0.9200 C   0  0  0  0  0  0  0  0  0  0  0  0
   -0.0690    1.1050   -1.7080 C   0  0  0  0  0  0  0  0  0  0  0  0
    0.3260    2.0710   -2.5800 N   0  0  0  0  0  0  0  0  0  0  0  0
    1.5810    2.3850   -2.3400 N   0  0  0  0  0  0  0  0  0  0  0  0
    2.3180    3.3910   -3.0890 C   0  0  0  0  0  0  0  0  0  0  0  0
    2.1810    4.6460   -2.5240 O   0  0  0  0  0  0  0  0  0  0  0  0
   -1.9710   -0.3870    0.5780 N   0  0  0  0  0  0  0  0  0  0  0  0
   -2.0270    0.9200    0.8780 N   0  0  0  0  0  0  0  0  0  0  0  0
  1  2  1  0
  2  3  1  0
  3  4  1  0
  4  5  1  0
  5  6  1  0
  5 37  2  0
  6  7  2  0
  7  8  1  0
  7 36  1  0
  8  9  2  0
  9 10  1  0
  9 14  1  0
 10 11  1  6
 10 12  1  0
 10 13  1  0
 14 15  2  0
 15 16  1  0
 15 36  1  0
 16 17  2  3
 17 18  1  0
 17 30  1  0
 18 19  1  0
 18 22  2  0
 19 20  1  0
 20 21  1  0
 22 23  1  0
 22 28  1  0
 23 24  2  0
 23 27  1  0
 24 25  1  0
 25 26  1  0
 26 27  2  0
 28 29  1  0
 29 30  2  0
 29 33  1  0
 30 31  1  0
 31 32  2  0
 32 33  1  0
 33 34  1  0
 34 35  1  0
 36 37  1  0
M  END
