
     RDKit          3D

 37 42  0  0  0  0  0  0  0  0999 V2000
   -2.0930   -0.4310    3.1560 C   0  0  0  0  0  0  0  0  0  0  0  0
   -1.6730   -1.2470    1.9550 C   0  0  0  0  0  0  0  0  0  0  0  0
   -2.1070   -0.5850    0.7910 O   0  0  0  0  0  0  0  0  0  0  0  0
   -3.5000   -0.3760    0.6480 C   0  0  0  0  0  0  0  0  0  0  0  0
   -4.3610   -0.7910    1.5750 N   0  0  0  0  0  0  0  0  0  0  0  0
   -5.7000   -0.6020    1.4570 C   0  0  0  0  0  0  0  0  0  0  0  0
   -6.2020    0.0430    0.3400 C   0  0  0  0  0  0  0  0  0  0  0  0
   -5.3140    0.4690   -0.6140 C   0  0  0  0  0  0  0  0  0  0  0  0
   -3.9790    0.2680   -0.4720 C   0  0  0  0  0  0  0  0  0  0  0  0
   -3.0080    0.7310   -1.4950 C   0  0  0  0  0  0  0  0  0  0  0  0
   -2.1360   -0.1510   -2.0050 N   0  0  0  0  0  0  0  0  0  0  0  0
   -1.2190    0.1800   -2.9390 C   0  0  0  0  0  0  0  0  0  0  0  0
   -0.2990   -0.7650   -3.4720 N   0  0  0  0  0  0  0  0  0  0  0  0
   -0.5690   -1.7210   -4.3580 C   0  0  0  0  0  0  0  0  0  0  0  0
    0.5130   -2.4280   -4.6540 N   0  0  0  0  0  0  0  0  0  0  0  0
    1.5650   -1.9250   -3.9330 C   0  0  0  0  0  0  0  0  0  0  0  0
    1.0530   -0.8830   -3.1920 C   0  0  0  0  0  0  0  0  0  0  0  0
    1.6830    0.0130   -2.2780 C   0  0  0  0  0  0  0  0  0  0  0  0
    0.9470    0.9740   -1.7770 O   0  0  0  0  0  0  0  0  0  0  0  0
    3.0000    0.0540   -1.7990 N   0  0  0  0  0  0  0  0  0  0  0  0
    4.1150   -0.7990   -2.0490 C   0  0  0  0  0  0  0  0  0  0  0  0
    4.7460   -1.1880   -0.7240 C   0  0  0  0  0  0  0  0  0  0  0  0
    5.0280   -0.2440    0.1620 C   0  0  0  0  0  0  0  0  0  0  0  0
    5.6060   -0.4740    1.4080 N   0  0  0  0  0  0  0  0  0  0  0  0
    5.1510    0.0760    2.6670 C   0  0  0  0  0  0  0  0  0  0  0  0
    6.3970    0.2130    3.5200 C   0  0  0  0  0  0  0  0  0  0  0  0
    7.3390   -0.8260    2.9810 C   0  0  0  0  0  0  0  0  0  0  0  0
    6.7650   -1.3060    1.6660 C   0  0  0  0  0  0  0  0  0  0  0  0
    4.6650    1.1460   -0.3010 C   0  0  0  0  0  0  0  0  0  0  0  0
    3.3150    1.1980   -0.8840 C   0  0  0  0  0  0  0  0  0  0  0  0
   -1.2260    1.4720   -3.3410 N   0  0  0  0  0  0  0  0  0  0  0  0
   -2.0780    2.3930   -2.8620 C   0  0  0  0  0  0  0  0  0  0  0  0
   -3.0200    2.0450   -1.9000 C   0  0  0  0  0  0  0  0  0  0  0  0
   -3.9680    3.0520   -1.3550 C   0  0  0  0  0  0  0  0  0  0  0  0
   -7.6950    0.1070    0.4810 C   0  0  0  0  0  0  0  0  0  0  0  0
   -7.9840   -0.8060    1.6380 C   0  0  0  0  0  0  0  0  0  0  0  0
   -6.7400   -0.9760    2.3470 N   0  0  0  0  0  0  0  0  0  0  0  0
  1  2  1  0
  2  3  1  0
  3  4  1  0
  4  5  2  0
  4  9  1  0
  5  6  1  0
  6  7  2  0
  6 37  1  0
  7  8  1  0
  7 35  1  0
  8  9  2  0
  9 10  1  0
 10 11  2  0
 10 33  1  0
 11 12  1  0
 12 13  1  0
 12 31  2  0
 13 14  1  0
 13 17  1  0
 14 15  2  0
 15 16  1  0
 16 17  2  0
 17 18  1  0
 18 19  2  0
 18 20  1  0
 20 21  1  0
 20 30  1  0
 21 22  1  0
 22 23  2  0
 23 24  1  0
 23 29  1  0
 24 25  1  0
 24 28  1  0
 25 26  1  0
 26 27  1  0
 27 28  1  0
 29 30  1  0
 31 32  1  0
 32 33  2  0
 33 34  1  0
 35 36  1  0
 36 37  1  0
M  END
