
     RDKit          3D

 32 34  0  0  0  0  0  0  0  0999 V2000
   -2.4220    5.4140   -2.2430 C   0  0  0  0  0  0  0  0  0  0  0  0
   -2.1310    3.9900   -2.1090 N   0  0  0  0  0  0  0  0  0  0  0  0
   -1.2850    3.5220   -1.0670 C   0  0  0  0  0  0  0  0  0  0  0  0
   -0.8160    4.3980   -0.2850 O   0  0  0  0  0  0  0  0  0  0  0  0
   -1.0000    2.1360   -0.9360 N   0  0  0  0  0  0  0  0  0  0  0  0
   -0.1350    1.7370    0.1460 C   0  0  0  0  0  0  0  0  0  0  0  0
    0.1490    0.2790    0.2420 C   0  0  1  0  0  0  0  0  0  0  0  0
    0.9660   -0.1940    1.2970 N   0  0  0  0  0  0  0  0  0  0  0  0
    2.3760   -0.4140    1.0400 C   0  0  1  0  0  0  0  0  0  0  0  0
    2.6440   -1.5680    0.1060 C   0  0  0  0  0  0  0  0  0  0  0  0
    3.9810   -2.1740    0.5620 C   0  0  0  0  0  0  0  0  0  0  0  0
    4.8810   -1.0400    1.0620 C   0  0  0  0  0  0  0  0  0  0  0  0
    4.5850    0.2300    0.3230 C   0  0  0  0  0  0  0  0  0  0  0  0
    3.1850    0.7670    0.6900 C   0  0  2  0  0  0  0  0  0  0  0  0
    3.4080    1.7300    1.8570 C   0  0  2  0  0  0  0  0  0  0  0  0
    4.0470    1.1450    2.9050 F   0  0  0  0  0  0  0  0  0  0  0  0
    2.2390    2.3490    2.2340 F   0  0  0  0  0  0  0  0  0  0  0  0
    4.2430    2.7670    1.4130 F   0  0  0  0  0  0  0  0  0  0  0  0
   -0.8110   -0.6480   -0.4050 C   0  0  0  0  0  0  0  0  0  0  0  0
   -1.8560   -1.1700    0.2410 C   0  0  0  0  0  0  0  0  0  0  0  0
   -1.9140   -0.7150    1.6000 C   0  0  0  0  0  0  0  0  0  0  0  0
   -2.7440   -1.0560    2.5850 C   0  0  0  0  0  0  0  0  0  0  0  0
   -2.5690   -0.4200    3.9090 C   0  0  0  0  0  0  0  0  0  0  0  0
   -3.8720   -1.9890    2.5480 C   0  0  0  0  0  0  0  0  0  0  0  0
   -4.3690   -2.6740    1.5330 C   0  0  0  0  0  0  0  0  0  0  0  0
   -3.9040   -2.6720    0.1580 C   0  0  0  0  0  0  0  0  0  0  0  0
   -2.8590   -2.0460   -0.3700 C   0  0  0  0  0  0  0  0  0  0  0  0
   -2.7310   -2.3650   -1.7380 N   0  0  0  0  0  0  0  0  0  0  0  0
   -1.6450   -1.8210   -2.4250 C   0  0  0  0  0  0  0  0  0  0  0  0
   -1.4470   -2.1170   -3.8760 C   0  0  0  0  0  0  0  0  0  0  0  0
   -0.7610   -1.0360   -1.8250 C   0  0  0  0  0  0  0  0  0  0  0  0
    0.3910   -0.5230   -2.6670 C   0  0  0  0  0  0  0  0  0  0  0  0
  1  2  1  0
  2  3  1  0
  3  4  2  0
  3  5  1  0
  5  6  1  0
  7  6  1  1
  7  8  1  0
  7 19  1  0
  9  8  1  6
  9 10  1  0
  9 14  1  0
 10 11  1  0
 11 12  1  0
 12 13  1  0
 14 13  1  1
 14 15  1  0
 15 16  1  1
 15 17  1  0
 15 18  1  0
 19 20  2  0
 19 31  1  0
 20 21  1  0
 20 27  1  0
 21 22  2  0
 22 23  1  0
 22 24  1  0
 24 25  2  0
 25 26  1  0
 26 27  2  0
 27 28  1  0
 28 29  1  0
 29 30  1  0
 29 31  2  0
 31 32  1  0
M  CHG  1   8   1
M  END
