
     RDKit          3D

 32 35  0  0  0  0  0  0  0  0999 V2000
    5.7200    1.8430   -1.6580 C   0  0  0  0  0  0  0  0  0  0  0  0
    6.7430    1.0710   -0.9330 C   0  0  0  0  0  0  0  0  0  0  0  0
    8.0690    1.5420   -0.9840 C   0  0  0  0  0  0  0  0  0  0  0  0
    9.0860    0.8700   -0.3720 C   0  0  0  0  0  0  0  0  0  0  0  0
    8.8040   -0.2940    0.3090 C   0  0  0  0  0  0  0  0  0  0  0  0
    9.8260   -0.9570    0.9130 F   0  0  0  0  0  0  0  0  0  0  0  0
    7.5270   -0.7740    0.3760 C   0  0  0  0  0  0  0  0  0  0  0  0
    6.4660   -0.0750   -0.2600 C   0  0  0  0  0  0  0  0  0  0  0  0
    5.1410   -0.6140   -0.1130 C   0  0  0  0  0  0  0  0  0  0  0  0
    5.0630   -1.8860    0.1240 O   0  0  0  0  0  0  0  0  0  0  0  0
    3.8960    0.0190   -0.1820 N   0  0  0  0  0  0  0  0  0  0  0  0
    2.6310   -0.6930   -0.0230 C   0  0  0  0  0  0  0  0  0  0  0  0
    1.5310    0.3270   -0.1970 C   0  0  0  0  0  0  0  0  0  0  0  0
    0.1730   -0.2350   -0.0790 C   0  0  0  0  0  0  0  0  0  0  0  0
   -0.5750   -0.5170   -1.2280 C   0  0  0  0  0  0  0  0  0  0  0  0
   -1.8380   -1.0330   -1.1980 C   0  0  0  0  0  0  0  0  0  0  0  0
   -2.3910   -1.2820    0.0310 C   0  0  0  0  0  0  0  0  0  0  0  0
   -3.7790   -1.8460    0.1570 C   0  0  2  0  0  0  0  0  0  0  0  0
   -4.4780   -1.3600   -1.0260 N   0  0  0  0  0  0  0  0  0  0  0  0
   -5.3120   -0.2300   -0.9750 C   0  0  0  0  0  0  0  0  0  0  0  0
   -5.4300    0.5600   -2.0800 C   0  0  0  0  0  0  0  0  0  0  0  0
   -6.2540    1.6580   -1.9940 C   0  0  0  0  0  0  0  0  0  0  0  0
   -6.9130    1.8980   -0.7960 C   0  0  0  0  0  0  0  0  0  0  0  0
   -7.7150    2.9920   -0.7480 F   0  0  0  0  0  0  0  0  0  0  0  0
   -6.7680    1.0850    0.2840 N   0  0  0  0  0  0  0  0  0  0  0  0
   -5.9830    0.0260    0.2230 C   0  0  0  0  0  0  0  0  0  0  0  0
   -5.7250   -0.9490    1.3070 C   0  0  2  0  0  0  0  0  0  0  0  0
   -6.0640   -0.3310    2.6740 C   0  0  0  0  0  0  0  0  0  0  0  0
   -4.3300   -1.2690    1.3590 N   0  0  0  0  0  0  0  0  0  0  0  0
   -1.6960   -1.0220    1.1770 C   0  0  0  0  0  0  0  0  0  0  0  0
   -0.4030   -0.4950    1.1380 C   0  0  0  0  0  0  0  0  0  0  0  0
    0.2740   -0.2480    2.2840 F   0  0  0  0  0  0  0  0  0  0  0  0
  1  2  1  0
  2  3  2  0
  2  8  1  0
  3  4  1  0
  4  5  2  0
  5  6  1  0
  5  7  1  0
  7  8  2  0
  8  9  1  0
  9 10  2  0
  9 11  1  0
 11 12  1  0
 12 13  1  0
 13 14  1  0
 14 15  2  0
 14 31  1  0
 15 16  1  0
 16 17  2  0
 18 17  1  6
 17 30  1  0
 18 19  1  0
 18 29  1  0
 19 20  1  0
 20 21  2  0
 20 26  1  0
 21 22  1  0
 22 23  2  0
 23 24  1  0
 23 25  1  0
 25 26  2  0
 26 27  1  0
 27 28  1  1
 27 29  1  0
 30 31  2  0
 31 32  1  0
M  CHG  1  25   1
M  END
