
     RDKit          3D

 32 35  0  0  0  0  0  0  0  0999 V2000
   -7.7020   -2.1040   -1.3770 C   0  0  0  0  0  0  0  0  0  0  0  0
   -6.3610   -1.5840   -1.0150 C   0  0  0  0  0  0  0  0  0  0  0  0
   -5.9670   -0.4910   -1.6440 C   0  0  0  0  0  0  0  0  0  0  0  0
   -4.7120    0.2630   -1.5140 C   0  0  0  0  0  0  0  0  0  0  0  0
   -3.5300   -0.1340   -0.9770 C   0  0  0  0  0  0  0  0  0  0  0  0
   -2.4860    0.8300   -0.9900 C   0  0  0  0  0  0  0  0  0  0  0  0
   -1.2630    0.8120   -0.5570 C   0  0  0  0  0  0  0  0  0  0  0  0
   -0.4140   -0.1690    0.1240 C   0  0  0  0  0  0  0  0  0  0  0  0
    0.9210    0.0800   -0.5780 C   0  0  2  0  0  0  0  0  0  0  0  0
    1.9900   -0.6720   -0.0750 N   0  0  0  0  0  0  0  0  0  0  0  0
    2.3530   -0.4470    1.2910 C   0  0  0  0  0  0  0  0  0  0  0  0
    3.4940   -1.3330    1.6020 C   0  0  0  0  0  0  0  0  0  0  0  0
    3.4070   -2.2390    2.5520 C   0  0  0  0  0  0  0  0  0  0  0  0
    4.4630   -3.1790    2.9590 C   0  0  2  0  0  0  0  0  0  0  0  0
    3.9750   -4.4880    2.8090 F   0  0  0  0  0  0  0  0  0  0  0  0
    4.7170   -3.0080    4.3190 F   0  0  0  0  0  0  0  0  0  0  0  0
    5.7460   -3.0810    2.2190 C   0  0  0  0  0  0  0  0  0  0  0  0
    5.7800   -2.0410    1.1620 C   0  0  0  0  0  0  0  0  0  0  0  0
    6.9350   -1.9220    0.4630 F   0  0  0  0  0  0  0  0  0  0  0  0
    4.7580   -1.2500    0.8850 C   0  0  0  0  0  0  0  0  0  0  0  0
    1.0070    1.5270   -0.5730 C   0  0  0  0  0  0  0  0  0  0  0  0
    2.0530    2.3440   -0.4900 C   0  0  0  0  0  0  0  0  0  0  0  0
    1.8970    3.7540   -0.5040 N   0  0  0  0  0  0  0  0  0  0  0  0
    2.6930    4.6350   -1.3150 C   0  0  2  0  0  0  0  0  0  0  0  0
    2.3560    6.1040   -1.1830 C   0  0  0  0  0  0  0  0  0  0  0  0
    2.0890    5.3870   -2.4540 C   0  0  0  0  0  0  0  0  0  0  0  0
   -0.3620    2.0230   -0.6870 C   0  0  0  0  0  0  0  0  0  0  0  0
   -0.7570    3.2000   -0.8560 O   0  0  0  0  0  0  0  0  0  0  0  0
   -3.3590   -1.4410   -0.4680 N   0  0  0  0  0  0  0  0  0  0  0  0
   -4.3360   -2.2540    0.2230 C   0  0  0  0  0  0  0  0  0  0  0  0
   -3.8460   -3.1200    1.3030 C   0  0  0  0  0  0  0  0  0  0  0  0
   -5.5970   -2.2950   -0.0270 N   0  0  0  0  0  0  0  0  0  0  0  0
  1  2  1  0
  2  3  2  0
  2 32  1  0
  3  4  1  0
  4  5  2  0
  5  6  1  0
  5 29  1  0
  6  7  2  3
  7  8  1  0
  7 27  1  0
  8  9  1  0
  9 10  1  1
  9 21  1  0
 10 11  1  0
 11 12  1  0
 12 13  2  0
 12 20  1  0
 13 14  1  0
 14 15  1  1
 14 16  1  0
 14 17  1  0
 17 18  1  0
 18 19  1  0
 18 20  2  0
 21 22  2  3
 21 27  1  0
 22 23  1  0
 24 23  1  1
 24 25  1  0
 24 26  1  0
 25 26  1  0
 27 28  2  0
 29 30  1  0
 30 31  1  0
 30 32  2  0
M  END
