
     RDKit          3D

 32 35  0  0  0  0  0  0  0  0999 V2000
   -5.3800    0.1850    2.0500 C   0  0  0  0  0  0  0  0  0  0  0  0
   -4.3840   -0.8000    2.5800 C   0  0  0  0  0  0  0  0  0  0  0  0
   -4.8290   -1.8860    3.2530 C   0  0  0  0  0  0  0  0  0  0  0  0
   -4.0100   -2.8230    3.8050 C   0  0  0  0  0  0  0  0  0  0  0  0
   -2.6370   -2.6080    3.6410 C   0  0  0  0  0  0  0  0  0  0  0  0
   -1.7820   -3.5150    4.1830 F   0  0  0  0  0  0  0  0  0  0  0  0
   -2.1860   -1.5040    2.9550 C   0  0  0  0  0  0  0  0  0  0  0  0
   -3.0000   -0.5690    2.4050 C   0  0  0  0  0  0  0  0  0  0  0  0
   -2.6320    0.5800    1.6760 N   0  0  0  0  0  0  0  0  0  0  0  0
   -1.3190    1.0640    1.4560 C   0  0  0  0  0  0  0  0  0  0  0  0
   -0.3560    0.4430    1.9460 O   0  0  0  0  0  0  0  0  0  0  0  0
   -1.0890    2.2220    0.7020 N   0  0  0  0  0  0  0  0  0  0  0  0
    0.2470    2.7800    0.4410 C   0  0  2  0  0  0  0  0  0  0  0  0
    0.1400    4.2040    1.0180 C   0  0  0  0  0  0  0  0  0  0  0  0
    0.4530    2.9320   -1.0250 C   0  0  0  0  0  0  0  0  0  0  0  0
    0.2020    4.1670   -1.6470 C   0  0  0  0  0  0  0  0  0  0  0  0
    0.3610    4.2800   -3.0070 C   0  0  0  0  0  0  0  0  0  0  0  0
    0.1150    5.4870   -3.6140 F   0  0  0  0  0  0  0  0  0  0  0  0
    0.7670    3.1930   -3.7790 C   0  0  0  0  0  0  0  0  0  0  0  0
    0.9120    3.3360   -5.1020 F   0  0  0  0  0  0  0  0  0  0  0  0
    1.0010    2.0080   -3.1250 C   0  0  0  0  0  0  0  0  0  0  0  0
    0.8550    1.8450   -1.7530 C   0  0  0  0  0  0  0  0  0  0  0  0
    1.1590    0.5850   -1.2190 N   0  0  0  0  0  0  0  0  0  0  0  0
    2.3520    0.4540   -0.3930 C   0  0  0  0  0  0  0  0  0  0  0  0
    3.3440   -0.4880   -1.0680 C   0  0  0  0  0  0  0  0  0  0  0  0
    2.6810   -1.5230   -1.8960 C   0  0  1  0  0  0  0  0  0  0  0  0
    3.4280   -2.8410   -1.9600 C   0  0  0  0  0  0  0  0  0  0  0  0
    3.5840   -3.3600   -0.5480 C   0  0  0  0  0  0  0  0  0  0  0  0
    2.4560   -3.0020    0.3560 C   0  0  0  0  0  0  0  0  0  0  0  0
    1.2220   -2.6550   -0.2700 N   0  0  0  0  0  0  0  0  0  0  0  0
    1.2810   -1.8680   -1.4530 C   0  0  1  0  0  0  0  0  0  0  0  0
    0.3900   -0.6310   -1.4130 C   0  0  0  0  0  0  0  0  0  0  0  0
  1  2  1  0
  2  3  2  0
  2  8  1  0
  3  4  1  0
  4  5  2  0
  5  6  1  0
  5  7  1  0
  7  8  2  0
  8  9  1  0
  9 10  1  0
 10 11  2  0
 10 12  1  0
 12 13  1  0
 13 14  1  1
 13 15  1  0
 15 16  2  0
 15 22  1  0
 16 17  1  0
 17 18  1  0
 17 19  2  0
 19 20  1  0
 19 21  1  0
 21 22  2  0
 22 23  1  0
 23 24  1  0
 23 32  1  0
 24 25  1  0
 26 25  1  1
 26 27  1  0
 26 31  1  0
 27 28  1  0
 28 29  1  0
 29 30  1  0
 30 31  1  0
 31 32  1  1
M  CHG  1  30   1
M  END
