
     RDKit          3D

 32 35  0  0  0  0  0  0  0  0999 V2000
   -6.9280   -0.3040   -2.1930 C   0  0  0  0  0  0  0  0  0  0  0  0
   -6.1300   -1.0220   -1.1310 C   0  0  0  0  0  0  0  0  0  0  0  0
   -6.6800   -1.5690   -0.1200 N   0  0  0  0  0  0  0  0  0  0  0  0
   -5.7780   -2.2230    0.8040 C   0  0  0  0  0  0  0  0  0  0  0  0
   -4.8270   -1.2090    1.2410 N   0  0  0  0  0  0  0  0  0  0  0  0
   -4.0120   -0.8710    0.0980 C   0  0  2  0  0  0  0  0  0  0  0  0
   -3.4770    0.5230    0.1630 C   0  0  0  0  0  0  0  0  0  0  0  0
   -4.0200    1.5880   -0.5120 C   0  0  0  0  0  0  0  0  0  0  0  0
   -3.2630    2.6980   -0.2480 C   0  0  0  0  0  0  0  0  0  0  0  0
   -2.2720    2.3100    0.5820 C   0  0  0  0  0  0  0  0  0  0  0  0
   -2.3980    0.9680    0.8400 N   0  0  0  0  0  0  0  0  0  0  0  0
   -1.5130    0.2330    1.7080 C   0  0  0  0  0  0  0  0  0  0  0  0
   -0.3950   -0.4330    0.9400 C   0  0  0  0  0  0  0  0  0  0  0  0
    0.4550    0.4970    0.1620 C   0  0  1  0  0  0  0  0  0  0  0  0
    1.1120    1.4760    1.0140 N   0  0  0  0  0  0  0  0  0  0  0  0
    2.5200    1.3480    0.9060 C   0  0  0  0  0  0  0  0  0  0  0  0
    3.5640    2.0300    1.5480 C   0  0  0  0  0  0  0  0  0  0  0  0
    4.8940    1.6970    1.2680 C   0  0  0  0  0  0  0  0  0  0  0  0
    5.2090    0.7040    0.3700 C   0  0  0  0  0  0  0  0  0  0  0  0
    6.6060    0.3280    0.1220 C   0  0  1  0  0  0  0  0  0  0  0  0
    7.5740    1.4470   -0.0620 C   0  0  0  0  0  0  0  0  0  0  0  0
    7.0270   -0.5870    1.2700 C   0  0  0  0  0  0  0  0  0  0  0  0
    6.6860   -0.5040   -1.0270 O   0  0  0  0  0  0  0  0  0  0  0  0
    4.1480    0.0690   -0.2280 C   0  0  0  0  0  0  0  0  0  0  0  0
    2.8160    0.3580    0.0110 C   0  0  0  0  0  0  0  0  0  0  0  0
    1.5320   -0.2220   -0.5190 C   0  0  0  0  0  0  0  0  0  0  0  0
    1.5620   -1.1910   -1.3950 C   0  0  0  0  0  0  0  0  0  0  0  0
    0.4350   -1.9120   -2.0090 C   0  0  2  0  0  0  0  0  0  0  0  0
   -0.6570   -1.1600   -2.3570 F   0  0  0  0  0  0  0  0  0  0  0  0
    0.0990   -3.0550   -1.2500 F   0  0  0  0  0  0  0  0  0  0  0  0
    0.8770   -2.4670   -3.2340 F   0  0  0  0  0  0  0  0  0  0  0  0
   -4.6490   -1.1410   -1.2310 C   0  0  0  0  0  0  0  0  0  0  0  0
  1  2  1  0
  2  3  2  0
  2 32  1  0
  3  4  1  0
  4  5  1  0
  5  6  1  0
  6  7  1  6
  6 32  1  0
  7  8  2  0
  7 11  1  0
  8  9  1  0
  9 10  2  0
 10 11  1  0
 11 12  1  0
 12 13  1  0
 14 13  1  1
 14 15  1  0
 14 26  1  0
 15 16  1  0
 16 17  2  0
 16 25  1  0
 17 18  1  0
 18 19  2  0
 19 20  1  0
 19 24  1  0
 20 21  1  6
 20 22  1  0
 20 23  1  0
 24 25  2  0
 25 26  1  0
 26 27  2  3
 27 28  1  0
 28 29  1  6
 28 30  1  0
 28 31  1  0
M  CHG  1   5   1
M  END
