
     RDKit          3D

 32 35  0  0  0  0  0  0  0  0999 V2000
   -6.4710   -1.2460    0.9230 C   0  0  0  0  0  0  0  0  0  0  0  0
   -5.0210   -0.9300    1.2130 C   0  0  0  0  0  0  0  0  0  0  0  0
   -4.4450   -0.2000    0.0100 C   0  0  1  0  0  0  0  0  0  0  0  0
   -5.3190    1.0350   -0.1530 C   0  0  0  0  0  0  0  0  0  0  0  0
   -3.0840    0.3060    0.3140 C   0  0  0  0  0  0  0  0  0  0  0  0
   -1.9550   -0.6340    0.1330 N   0  0  0  0  0  0  0  0  0  0  0  0
   -0.9310   -0.1320    0.9550 C   0  0  0  0  0  0  0  0  0  0  0  0
   -0.1460    1.0120    0.4830 C   0  0  0  0  0  0  0  0  0  0  0  0
   -0.4680    2.2860    1.0060 C   0  0  0  0  0  0  0  0  0  0  0  0
   -1.5120    2.4120    1.9410 N   0  0  0  0  0  0  0  0  0  0  0  0
    0.2440    3.3710    0.6330 N   0  0  0  0  0  0  0  0  0  0  0  0
    1.2780    3.2750   -0.2380 C   0  0  0  0  0  0  0  0  0  0  0  0
    1.6200    2.0620   -0.7470 C   0  0  0  0  0  0  0  0  0  0  0  0
    0.8830    0.9280   -0.3630 C   0  0  0  0  0  0  0  0  0  0  0  0
    1.5130   -0.3930   -0.7160 C   0  0  0  0  0  0  0  0  0  0  0  0
    3.0020   -0.1350   -0.2370 C   0  0  0  0  0  0  0  0  0  0  0  0
    3.6580    0.8490   -1.0950 C   0  0  0  0  0  0  0  0  0  0  0  0
    4.9230    0.8540   -1.3080 N   0  0  0  0  0  0  0  0  0  0  0  0
    5.7530   -0.1410   -0.6840 C   0  0  0  0  0  0  0  0  0  0  0  0
    5.6780   -1.4770   -0.9350 C   0  0  0  0  0  0  0  0  0  0  0  0
    6.4980   -2.3670   -0.2510 C   0  0  0  0  0  0  0  0  0  0  0  0
    7.4050   -1.9140    0.6910 C   0  0  0  0  0  0  0  0  0  0  0  0
    7.4720   -0.5690    0.9330 C   0  0  0  0  0  0  0  0  0  0  0  0
    6.6720    0.3250    0.2680 C   0  0  0  0  0  0  0  0  0  0  0  0
    2.7830    1.9130   -1.6870 C   0  0  0  0  0  0  0  0  0  0  0  0
   -2.1960   -1.6070   -0.7290 C   0  0  2  0  0  0  0  0  0  0  0  0
   -1.2010   -2.2290   -1.6730 C   0  0  2  0  0  0  0  0  0  0  0  0
   -0.1570   -2.8760   -1.1520 F   0  0  0  0  0  0  0  0  0  0  0  0
   -0.8500   -1.2480   -2.6310 F   0  0  0  0  0  0  0  0  0  0  0  0
   -1.9250   -3.1530   -2.4650 F   0  0  0  0  0  0  0  0  0  0  0  0
   -3.3270   -1.1760   -1.7220 C   0  0  0  0  0  0  0  0  0  0  0  0
   -4.5340   -0.9840   -1.0820 O   0  0  0  0  0  0  0  0  0  0  0  0
  1  2  1  0
  2  3  1  0
  3  4  1  6
  3  5  1  0
  3 32  1  0
  5  6  1  0
  6  7  1  0
  6 26  1  0
  7  8  1  0
  8  9  2  0
  8 14  1  0
  9 10  1  0
  9 11  1  0
 11 12  2  0
 12 13  1  0
 13 14  2  0
 13 25  1  0
 14 15  1  0
 15 16  1  0
 16 17  1  0
 17 18  2  3
 17 25  1  0
 18 19  1  0
 19 20  2  0
 19 24  1  0
 20 21  1  0
 21 22  2  0
 22 23  1  0
 23 24  2  0
 26 27  1  0
 26 31  1  6
 27 28  1  1
 27 29  1  0
 27 30  1  0
 31 32  1  0
M  CHG  1  11   1
M  END
