
     RDKit          3D

 32 32  0  0  0  0  0  0  0  0999 V2000
    0.1530    0.1480   -3.7770 N   0  0  0  0  0  0  0  0  0  0  0  0
    0.4920    0.3600   -2.4140 C   0  0  0  0  0  0  0  0  0  0  0  0
    0.5970    1.5830   -2.0690 O   0  0  0  0  0  0  0  0  0  0  0  0
    0.6990   -0.6760   -1.3730 C   0  0  2  0  0  0  0  0  0  0  0  0
   -0.5210   -0.4200   -0.4780 C   0  0  0  0  0  0  0  0  0  0  0  0
   -0.7710   -1.2750    0.6950 C   0  0  2  0  0  0  0  0  0  0  0  0
   -1.0960   -2.6660    0.4190 C   0  0  0  0  0  0  0  0  0  0  0  0
   -1.3240   -3.4830    1.6590 C   0  0  0  0  0  0  0  0  0  0  0  0
   -1.5370   -4.8500    1.3020 O   0  0  0  0  0  0  0  0  0  0  0  0
   -1.7220   -0.5090    1.5780 C   0  0  2  0  0  0  0  0  0  0  0  0
   -2.0330   -1.1120    2.7790 O   0  0  0  0  0  0  0  0  0  0  0  0
   -2.9240   -0.0030    0.8480 C   0  0  0  0  0  0  0  0  0  0  0  0
   -3.9290    0.8180    1.5470 C   0  0  1  0  0  0  0  0  0  0  0  0
   -4.5170    0.2570    2.6730 O   0  0  0  0  0  0  0  0  0  0  0  0
   -3.3090    2.1520    1.9900 C   0  0  0  0  0  0  0  0  0  0  0  0
   -4.4230    2.9360    2.5350 N   0  0  0  0  0  0  0  0  0  0  0  0
   -5.0250    1.2240    0.5200 C   0  0  0  0  0  0  0  0  0  0  0  0
   -5.7870    0.1430    0.1140 O   0  0  0  0  0  0  0  0  0  0  0  0
    1.9080   -0.1550   -0.5410 C   0  0  0  0  0  0  0  0  0  0  0  0
    3.1950   -0.4700   -1.2490 C   0  0  1  0  0  0  0  0  0  0  0  0
    3.1460   -0.1740   -2.7610 C   0  0  0  0  0  0  0  0  0  0  0  0
    4.4070   -0.6530   -3.2320 O   0  0  0  0  0  0  0  0  0  0  0  0
    4.2810    0.1480   -0.6800 N   0  0  0  0  0  0  0  0  0  0  0  0
    4.3630    1.6460   -0.3960 C   0  0  0  0  0  0  0  0  0  0  0  0
    3.1930    2.0890   -0.7020 O   0  0  0  0  0  0  0  0  0  0  0  0
    5.4760    2.0350    0.0180 N   0  0  0  0  0  0  0  0  0  0  0  0
    5.1640    3.7260    0.2520 C   0  0  0  0  0  0  0  0  0  0  0  0
    3.9090    3.9160   -0.0310 O   0  0  0  0  0  0  0  0  0  0  0  0
    5.9210    4.6370    0.6040 O   0  0  0  0  0  0  0  0  0  0  0  0
    3.2760   -1.9780   -1.1850 C   0  0  0  0  0  0  0  0  0  0  0  0
    2.0280   -2.5820   -1.6610 C   0  0  0  0  0  0  0  0  0  0  0  0
    0.8370   -1.9340   -1.7110 O   0  0  0  0  0  0  0  0  0  0  0  0
  1  2  1  0
  2  3  2  0
  2  4  1  0
  4  5  1  1
  4 19  1  0
  4 32  1  0
  6  5  1  6
  6  7  1  0
  6 10  1  0
  7  8  1  0
  8  9  1  0
 10 11  1  1
 10 12  1  0
 12 13  1  0
 13 14  1  1
 13 15  1  0
 13 17  1  0
 15 16  1  0
 17 18  1  0
 19 20  1  0
 20 21  1  6
 20 23  1  0
 20 30  1  0
 21 22  1  0
 23 24  1  0
 24 25  2  0
 24 26  1  0
 26 27  1  0
 27 28  2  0
 27 29  1  0
 30 31  1  0
 31 32  1  0
M  CHG  1  16   1
M  END
