
     RDKit          3D

 32 35  0  0  0  0  0  0  0  0999 V2000
    5.9140    1.2670   -2.3730 C   0  0  0  0  0  0  0  0  0  0  0  0
    5.0140    1.1840   -1.4480 C   0  0  0  0  0  0  0  0  0  0  0  0
    4.1720    2.2790   -1.2150 O   0  0  0  0  0  0  0  0  0  0  0  0
    3.3430    2.6000   -0.1090 C   0  0  0  0  0  0  0  0  0  0  0  0
    2.7720    1.3980    0.5790 C   0  0  0  0  0  0  0  0  0  0  0  0
    2.5760    0.2330   -0.2690 N   0  0  0  0  0  0  0  0  0  0  0  0
    1.4520   -0.5100    0.2680 C   0  0  0  0  0  0  0  0  0  0  0  0
    0.1680    0.2420    0.0220 C   0  0  0  0  0  0  0  0  0  0  0  0
   -0.0070    1.3500   -0.6340 C   0  0  0  0  0  0  0  0  0  0  0  0
   -1.3800    1.7020   -0.6150 N   0  0  0  0  0  0  0  0  0  0  0  0
   -2.0480    0.8610    0.3840 C   0  0  1  0  0  0  0  0  0  0  0  0
   -2.2120    1.7610    1.5860 C   0  0  0  0  0  0  0  0  0  0  0  0
   -3.3310    0.4460   -0.2390 C   0  0  0  0  0  0  0  0  0  0  0  0
   -3.7010    0.7840   -1.5230 C   0  0  0  0  0  0  0  0  0  0  0  0
   -4.8950    0.3810   -2.1160 C   0  0  0  0  0  0  0  0  0  0  0  0
   -5.7540   -0.3990   -1.3830 C   0  0  0  0  0  0  0  0  0  0  0  0
   -6.9710   -0.8300   -1.9470 N   0  0  0  0  0  0  0  0  0  0  0  0
   -5.4390   -0.7780   -0.0730 C   0  0  0  0  0  0  0  0  0  0  0  0
   -6.3430   -1.5600    0.6320 C   0  0  0  0  0  0  0  0  0  0  0  0
   -6.0310   -1.9170    1.9090 C   0  0  0  0  0  0  0  0  0  0  0  0
   -4.8450   -1.5000    2.4630 C   0  0  0  0  0  0  0  0  0  0  0  0
   -3.9260   -0.7110    1.7620 C   0  0  0  0  0  0  0  0  0  0  0  0
   -4.2350   -0.3520    0.4780 C   0  0  0  0  0  0  0  0  0  0  0  0
   -1.1070   -0.1840    0.5160 N   0  0  0  0  0  0  0  0  0  0  0  0
    3.7160   -0.7110   -0.1530 C   0  0  1  0  0  0  0  0  0  0  0  0
    3.3470   -1.8740   -1.0330 C   0  0  0  0  0  0  0  0  0  0  0  0
    4.9470   -0.0870   -0.7000 C   0  0  0  0  0  0  0  0  0  0  0  0
    6.0760   -0.6960   -0.5030 C   0  0  0  0  0  0  0  0  0  0  0  0
    6.2520   -1.9620    0.2030 C   0  0  1  0  0  0  0  0  0  0  0  0
    6.6290   -2.9440   -0.7330 F   0  0  0  0  0  0  0  0  0  0  0  0
    7.4040   -1.8390    1.0240 F   0  0  0  0  0  0  0  0  0  0  0  0
    5.2120   -2.4400    0.9040 F   0  0  0  0  0  0  0  0  0  0  0  0
  1  2  2  0
  2  3  1  0
  2 27  1  0
  3  4  1  0
  4  5  1  0
  5  6  1  0
  6  7  1  0
  6 25  1  0
  7  8  1  0
  8  9  2  0
  8 24  1  0
  9 10  1  0
 10 11  1  0
 11 12  1  1
 11 13  1  0
 11 24  1  0
 13 14  2  0
 13 23  1  0
 14 15  1  0
 15 16  2  0
 16 17  1  0
 16 18  1  0
 18 19  2  0
 18 23  1  0
 19 20  1  0
 20 21  2  0
 21 22  1  0
 22 23  2  0
 25 26  1  6
 25 27  1  0
 27 28  2  3
 28 29  1  0
 29 30  1  6
 29 31  1  0
 29 32  1  0
M  CHG  1  24   1
M  END
