
     RDKit          3D

 32 34  0  0  0  0  0  0  0  0999 V2000
    1.7620   -2.7910   -0.4290 C   0  0  0  0  0  0  0  0  0  0  0  0
    0.5800   -1.9180   -0.0480 C   0  0  0  0  0  0  0  0  0  0  0  0
   -0.4560   -2.5100    0.4390 N   0  0  0  0  0  0  0  0  0  0  0  0
   -1.6070   -1.7070    0.8080 C   0  0  1  0  0  0  0  0  0  0  0  0
   -1.4960   -1.2170    2.0730 F   0  0  0  0  0  0  0  0  0  0  0  0
   -1.8420   -0.7030   -0.2540 C   0  0  0  0  0  0  0  0  0  0  0  0
   -2.9970   -0.5590   -0.8010 C   0  0  0  0  0  0  0  0  0  0  0  0
   -4.2280   -1.2960   -0.5100 C   0  0  0  0  0  0  0  0  0  0  0  0
   -4.9860   -1.8170   -1.5540 C   0  0  0  0  0  0  0  0  0  0  0  0
   -6.1200   -2.4640   -1.2860 N   0  0  0  0  0  0  0  0  0  0  0  0
   -6.6120   -2.6640   -0.0560 C   0  0  0  0  0  0  0  0  0  0  0  0
   -5.8650   -2.1490    0.9820 C   0  0  0  0  0  0  0  0  0  0  0  0
   -6.3680   -2.3510    2.2710 O   0  0  0  0  0  0  0  0  0  0  0  0
   -4.6860   -1.4710    0.7740 C   0  0  0  0  0  0  0  0  0  0  0  0
   -0.6640    0.1410   -0.6700 C   0  0  1  0  0  0  0  0  0  0  0  0
   -0.9130    1.5030   -0.5870 N   0  0  0  0  0  0  0  0  0  0  0  0
   -1.3520    2.2030    0.5390 C   0  0  2  0  0  0  0  0  0  0  0  0
   -0.9780    1.8260    1.9060 C   0  0  0  0  0  0  0  0  0  0  0  0
   -2.9000    2.2840    0.5680 C   0  0  0  0  0  0  0  0  0  0  0  0
   -0.9510    3.6830    0.3570 C   0  0  0  0  0  0  0  0  0  0  0  0
    0.6190   -0.4540   -0.2490 C   0  0  0  0  0  0  0  0  0  0  0  0
    1.7400    0.1510   -0.0190 C   0  0  0  0  0  0  0  0  0  0  0  0
    2.0490    1.6040   -0.1560 C   0  0  0  0  0  0  0  0  0  0  0  0
    2.8690   -0.5970    0.4990 N   0  0  0  0  0  0  0  0  0  0  0  0
    4.1900   -0.2970    0.0160 C   0  0  0  0  0  0  0  0  0  0  0  0
    4.4240   -0.1770   -1.2620 C   0  0  0  0  0  0  0  0  0  0  0  0
    5.7430    0.1250   -1.8080 C   0  0  1  0  0  0  0  0  0  0  0  0
    6.1070   -0.8320   -2.7790 F   0  0  0  0  0  0  0  0  0  0  0  0
    5.5560    1.3180   -2.5630 F   0  0  0  0  0  0  0  0  0  0  0  0
    6.8130    0.3450   -0.8320 C   0  0  0  0  0  0  0  0  0  0  0  0
    6.4410    0.1830    0.5690 C   0  0  0  0  0  0  0  0  0  0  0  0
    5.2430   -0.1120    1.0120 C   0  0  0  0  0  0  0  0  0  0  0  0
  1  2  1  0
  2  3  2  0
  2 21  1  0
  3  4  1  0
  4  5  1  1
  4  6  1  0
  6  7  2  3
  6 15  1  0
  7  8  1  0
  8  9  2  0
  8 14  1  0
  9 10  1  0
 10 11  2  0
 11 12  1  0
 12 13  1  0
 12 14  2  0
 15 16  1  1
 15 21  1  0
 16 17  1  0
 17 18  1  1
 17 19  1  0
 17 20  1  0
 21 22  2  3
 22 23  1  0
 22 24  1  0
 24 25  1  0
 25 26  2  0
 25 32  1  0
 26 27  1  0
 27 28  1  6
 27 29  1  0
 27 30  1  0
 30 31  1  0
 31 32  2  0
M  CHG  1  16   1
M  END
