
     RDKit          3D

 32 32  0  0  0  0  0  0  0  0999 V2000
    6.0060   -0.9390    0.8470 O   0  0  0  0  0  0  0  0  0  0  0  0
    5.5940   -1.0630   -0.3310 C   0  0  0  0  0  0  0  0  0  0  0  0
    6.2110   -1.9670   -1.2100 O   0  0  0  0  0  0  0  0  0  0  0  0
    4.5210   -0.2800   -0.7220 O   0  0  0  0  0  0  0  0  0  0  0  0
    3.9110    0.6190    0.1580 C   0  0  1  0  0  0  0  0  0  0  0  0
    4.0480    2.0580   -0.3340 C   0  0  0  0  0  0  0  0  0  0  0  0
    3.4710    2.9780    0.5040 O   0  0  0  0  0  0  0  0  0  0  0  0
    2.4380    0.2940    0.4140 C   0  0  2  0  0  0  0  0  0  0  0  0
    1.9480    1.2400    1.4380 C   0  0  0  0  0  0  0  0  0  0  0  0
    1.0180    2.1260    1.3700 C   0  0  0  0  0  0  0  0  0  0  0  0
    0.7630    2.9020    2.5330 O   0  0  0  0  0  0  0  0  0  0  0  0
    0.1500    2.4550    0.2040 C   0  0  1  0  0  0  0  0  0  0  0  0
    0.8050    2.2340   -1.0050 O   0  0  0  0  0  0  0  0  0  0  0  0
   -1.1790    1.7290    0.2780 C   0  0  1  0  0  0  0  0  0  0  0  0
   -2.2880    2.7350    0.2720 C   0  0  0  0  0  0  0  0  0  0  0  0
   -2.3430    3.6080   -0.9450 C   0  0  0  0  0  0  0  0  0  0  0  0
   -3.4430    4.4720   -0.7590 O   0  0  0  0  0  0  0  0  0  0  0  0
   -1.2220    0.8520   -0.7840 O   0  0  0  0  0  0  0  0  0  0  0  0
   -2.4060    0.2270   -1.0270 C   0  0  0  0  0  0  0  0  0  0  0  0
   -2.6050   -1.0840   -0.2910 C   0  0  1  0  0  0  0  0  0  0  0  0
   -4.1170   -1.3500   -0.3060 C   0  0  1  0  0  0  0  0  0  0  0  0
   -4.6110   -1.3820   -1.6070 O   0  0  0  0  0  0  0  0  0  0  0  0
   -4.4040   -2.7230    0.3070 C   0  0  0  0  0  0  0  0  0  0  0  0
   -5.7820   -2.9000    0.2780 O   0  0  0  0  0  0  0  0  0  0  0  0
   -2.0320   -2.1140   -0.9930 O   0  0  0  0  0  0  0  0  0  0  0  0
   -1.1500   -2.8720   -0.1850 C   0  0  0  0  0  0  0  0  0  0  0  0
    0.0670   -2.0170   -0.0060 C   0  0  1  0  0  0  0  0  0  0  0  0
   -0.0630   -1.2660    1.1460 O   0  0  0  0  0  0  0  0  0  0  0  0
    1.3060   -2.9120    0.1220 C   0  0  2  0  0  0  0  0  0  0  0  0
    1.2380   -3.6420    1.2860 O   0  0  0  0  0  0  0  0  0  0  0  0
    2.5600   -2.0170    0.0990 C   0  0  0  0  0  0  0  0  0  0  0  0
    2.3650   -0.9840    0.9670 O   0  0  0  0  0  0  0  0  0  0  0  0
  1  2  2  0
  2  3  1  0
  2  4  1  0
  4  5  1  0
  5  6  1  6
  5  8  1  0
  6  7  1  0
  8  9  1  0
  8 32  1  1
  9 10  2  0
 10 11  1  0
 10 12  1  0
 12 13  1  6
 12 14  1  0
 14 15  1  6
 14 18  1  0
 15 16  1  0
 16 17  1  0
 18 19  1  0
 20 19  1  6
 20 21  1  0
 20 25  1  0
 21 22  1  6
 21 23  1  0
 23 24  1  0
 25 26  1  0
 26 27  1  0
 27 28  1  1
 27 29  1  0
 29 30  1  1
 29 31  1  0
 31 32  1  0
M  END
