
     RDKit          3D

 33 34  0  0  0  0  0  0  0  0999 V2000
    4.7700   -1.8320   -0.0030 O   0  0  0  0  0  0  0  0  0  0  0  0
    5.0250   -0.6290    0.0850 C   0  0  0  0  0  0  0  0  0  0  0  0
    6.3340   -0.2790    0.7420 C   0  0  0  0  0  0  0  0  0  0  0  0
    6.4940    1.0980    0.7760 O   0  0  0  0  0  0  0  0  0  0  0  0
    7.7180    1.3530    1.3930 C   0  0  2  0  0  0  0  0  0  0  0  0
    7.5070    2.1270    2.5360 O   0  0  0  0  0  0  0  0  0  0  0  0
    8.5960    2.1430    0.4390 C   0  0  0  0  0  0  0  0  0  0  0  0
    8.7900    1.4010   -0.7060 O   0  0  0  0  0  0  0  0  0  0  0  0
    4.2040    0.3660   -0.3700 O   0  0  0  0  0  0  0  0  0  0  0  0
    2.9840    0.2040   -0.9760 C   0  0  0  0  0  0  0  0  0  0  0  0
    1.8880   -0.3940   -0.1010 C   0  0  2  0  0  0  0  0  0  0  0  0
    1.7630    0.5140    0.9810 O   0  0  0  0  0  0  0  0  0  0  0  0
    2.2760   -1.6320    0.3300 O   0  0  0  0  0  0  0  0  0  0  0  0
    0.6460   -0.3980   -0.9280 C   0  0  0  0  0  0  0  0  0  0  0  0
   -0.5910   -0.9220   -0.3120 C   0  0  1  0  0  0  0  0  0  0  0  0
   -1.6180   -0.8000   -1.2800 O   0  0  0  0  0  0  0  0  0  0  0  0
   -2.5980    0.0040   -0.6950 C   0  0  1  0  0  0  0  0  0  0  0  0
   -3.7420    0.3130   -1.6100 C   0  0  0  0  0  0  0  0  0  0  0  0
   -4.8930    0.3780   -0.5930 C   0  0  1  0  0  0  0  0  0  0  0  0
   -4.7280    1.5210    0.1140 O   0  0  0  0  0  0  0  0  0  0  0  0
   -5.5600    1.5920    1.2080 C   0  0  0  0  0  0  0  0  0  0  0  0
   -5.2500    2.8950    1.9810 C   0  0  0  0  0  0  0  0  0  0  0  0
   -5.4880    3.9350    1.0910 O   0  0  0  0  0  0  0  0  0  0  0  0
   -6.2010    0.1370   -1.2600 C   0  0  2  0  0  0  0  0  0  0  0  0
   -6.5150    1.1690   -2.1410 O   0  0  0  0  0  0  0  0  0  0  0  0
   -7.2050   -0.0940   -0.3440 O   0  0  0  0  0  0  0  0  0  0  0  0
   -4.6120   -0.6970    0.2580 O   0  0  0  0  0  0  0  0  0  0  0  0
   -3.2540   -0.7920    0.4160 C   0  0  1  0  0  0  0  0  0  0  0  0
   -2.8970   -2.2770    0.2500 C   0  0  0  0  0  0  0  0  0  0  0  0
   -1.7360   -2.6360    0.8450 O   0  0  0  0  0  0  0  0  0  0  0  0
   -0.5580   -2.3340    0.1800 C   0  0  1  0  0  0  0  0  0  0  0  0
   -0.2290   -3.3330   -0.8990 C   0  0  0  0  0  0  0  0  0  0  0  0
   -1.2100   -3.4250   -1.8870 O   0  0  0  0  0  0  0  0  0  0  0  0
  1  2  2  0
  2  3  1  0
  2  9  1  0
  3  4  1  0
  4  5  1  0
  5  6  1  1
  5  7  1  0
  7  8  1  0
  9 10  1  0
 10 11  1  0
 11 12  1  1
 11 13  1  0
 11 14  1  0
 15 14  1  6
 15 16  1  0
 15 31  1  0
 16 17  1  0
 17 18  1  6
 17 28  1  0
 18 19  1  0
 19 20  1  1
 19 24  1  0
 19 27  1  0
 20 21  1  0
 21 22  1  0
 22 23  1  0
 24 25  1  1
 24 26  1  0
 27 28  1  0
 28 29  1  6
 29 30  1  0
 30 31  1  0
 31 32  1  6
 32 33  1  0
M  END
