
     RDKit          3D

 32 33  0  0  0  0  0  0  0  0999 V2000
    5.7610    1.8420   -0.1930 C   0  0  0  0  0  0  0  0  0  0  0  0
    4.8120    0.7350    0.0750 C   0  0  1  0  0  0  0  0  0  0  0  0
    5.4160   -0.4350    0.5220 O   0  0  0  0  0  0  0  0  0  0  0  0
    4.3980   -1.2070    1.0720 C   0  0  0  0  0  0  0  0  0  0  0  0
    3.3970   -0.2390    1.6660 C   0  0  1  0  0  0  0  0  0  0  0  0
    3.3130   -0.3770    3.0510 O   0  0  0  0  0  0  0  0  0  0  0  0
    3.9200    1.0950    1.2440 C   0  0  2  0  0  0  0  0  0  0  0  0
    2.8960    1.9840    0.5850 C   0  0  1  0  0  0  0  0  0  0  0  0
    3.2950    3.2960    0.7900 O   0  0  0  0  0  0  0  0  0  0  0  0
    2.9850    1.5890   -0.8630 C   0  0  2  0  0  0  0  0  0  0  0  0
    1.6040    1.1480   -1.2890 C   0  0  0  0  0  0  0  0  0  0  0  0
    0.7450    2.0580   -1.3580 O   0  0  0  0  0  0  0  0  0  0  0  0
    1.3120   -0.1510   -1.5780 O   0  0  0  0  0  0  0  0  0  0  0  0
    0.0790   -0.6440   -1.9710 C   0  0  0  0  0  0  0  0  0  0  0  0
   -1.0440   -0.5630   -1.0020 C   0  0  1  0  0  0  0  0  0  0  0  0
   -1.4090    0.6860   -0.5400 O   0  0  0  0  0  0  0  0  0  0  0  0
   -1.3850    1.1980    0.7280 C   0  0  0  0  0  0  0  0  0  0  0  0
   -0.9950    0.4780    1.6500 O   0  0  0  0  0  0  0  0  0  0  0  0
   -1.8190    2.5890    0.9830 C   0  0  0  0  0  0  0  0  0  0  0  0
   -3.2900    2.8320    0.9210 C   0  0  1  0  0  0  0  0  0  0  0  0
   -3.7210    2.5100   -0.3830 O   0  0  0  0  0  0  0  0  0  0  0  0
   -4.0310    2.1840    1.8920 O   0  0  0  0  0  0  0  0  0  0  0  0
   -2.2580   -1.3520   -1.4280 C   0  0  1  0  0  0  0  0  0  0  0  0
   -3.0020   -0.6470   -2.3870 O   0  0  0  0  0  0  0  0  0  0  0  0
   -1.9070   -2.6640   -2.1050 C   0  0  0  0  0  0  0  0  0  0  0  0
   -3.1700   -3.4080   -2.4820 C   0  0  0  0  0  0  0  0  0  0  0  0
   -3.9050   -2.6090   -3.3420 O   0  0  0  0  0  0  0  0  0  0  0  0
   -3.1400   -1.6270   -0.2590 C   0  0  2  0  0  0  0  0  0  0  0  0
   -3.5690   -0.4380    0.3170 O   0  0  0  0  0  0  0  0  0  0  0  0
   -2.5530   -2.4940    0.8100 C   0  0  0  0  0  0  0  0  0  0  0  0
   -3.5900   -2.7110    1.7450 O   0  0  0  0  0  0  0  0  0  0  0  0
    3.8710    0.5150   -0.9250 O   0  0  0  0  0  0  0  0  0  0  0  0
  2  1  1  6
  2  3  1  0
  2  7  1  0
  2 32  1  0
  3  4  1  0
  4  5  1  0
  5  6  1  1
  7  5  1  6
  7  8  1  0
  8  9  1  6
  8 10  1  0
 10 11  1  1
 10 32  1  0
 11 12  2  0
 11 13  1  0
 13 14  1  0
 15 14  1  6
 15 16  1  0
 15 23  1  0
 16 17  1  0
 17 18  2  0
 17 19  1  0
 19 20  1  0
 20 21  1  6
 20 22  1  0
 23 24  1  6
 23 25  1  0
 23 28  1  0
 25 26  1  0
 26 27  1  0
 28 29  1  1
 28 30  1  0
 30 31  1  0
M  END
