
     RDKit          3D

 32 33  0  0  0  0  0  0  0  0999 V2000
    0.6380   -1.2930    2.1660 C   0  0  0  0  0  0  0  0  0  0  0  0
    1.1250   -0.5320    0.9440 C   0  0  1  0  0  0  0  0  0  0  0  0
    2.6430   -0.4890    1.1090 C   0  0  1  0  0  0  0  0  0  0  0  0
    3.0090    0.1700    2.2620 O   0  0  0  0  0  0  0  0  0  0  0  0
    3.0970   -1.9290    1.2140 C   0  0  0  0  0  0  0  0  0  0  0  0
    4.5480   -1.8720    1.6210 C   0  0  0  0  0  0  0  0  0  0  0  0
    5.0160   -2.5380    2.5590 O   0  0  0  0  0  0  0  0  0  0  0  0
    5.3030   -0.9930    0.8330 O   0  0  0  0  0  0  0  0  0  0  0  0
    4.6460   -0.5710   -0.3730 C   0  0  2  0  0  0  0  0  0  0  0  0
    5.5600    0.3800   -1.0470 C   0  0  0  0  0  0  0  0  0  0  0  0
    5.1910    0.8870   -2.1370 O   0  0  0  0  0  0  0  0  0  0  0  0
    6.8020    0.7490   -0.5550 O   0  0  0  0  0  0  0  0  0  0  0  0
    3.3400    0.1360   -0.0600 C   0  0  0  0  0  0  0  0  0  0  0  0
    0.8790   -1.2030   -0.2140 O   0  0  0  0  0  0  0  0  0  0  0  0
   -0.3480   -1.1530   -0.7750 C   0  0  1  0  0  0  0  0  0  0  0  0
   -1.3510   -2.1460   -0.1730 C   0  0  0  0  0  0  0  0  0  0  0  0
   -2.5470   -1.9260   -0.8980 O   0  0  0  0  0  0  0  0  0  0  0  0
   -3.5660   -2.7480   -0.4780 C   0  0  2  0  0  0  0  0  0  0  0  0
   -3.9450   -3.5780   -1.5540 O   0  0  0  0  0  0  0  0  0  0  0  0
   -4.7980   -2.0030   -0.0480 C   0  0  0  0  0  0  0  0  0  0  0  0
   -5.7470   -2.9680    0.3510 O   0  0  0  0  0  0  0  0  0  0  0  0
   -1.0090    0.1810   -0.8450 C   0  0  1  0  0  0  0  0  0  0  0  0
   -2.2350    0.2050   -0.1610 O   0  0  0  0  0  0  0  0  0  0  0  0
   -0.1080    1.2620   -0.2900 C   0  0  1  0  0  0  0  0  0  0  0  0
   -0.9710    2.4800   -0.0610 C   0  0  0  0  0  0  0  0  0  0  0  0
   -1.0530    2.9280    1.0920 O   0  0  0  0  0  0  0  0  0  0  0  0
   -1.6390    3.0700   -1.0920 O   0  0  0  0  0  0  0  0  0  0  0  0
   -2.4660    4.1910   -1.0030 C   0  0  0  0  0  0  0  0  0  0  0  0
   -3.6880    4.0320   -0.1490 C   0  0  0  0  0  0  0  0  0  0  0  0
   -3.4730    3.7310    1.1680 O   0  0  0  0  0  0  0  0  0  0  0  0
    0.5160    0.8430    1.0230 C   0  0  2  0  0  0  0  0  0  0  0  0
    1.4430    1.8220    1.3580 O   0  0  0  0  0  0  0  0  0  0  0  0
  2  1  1  1
  2  3  1  0
  2 14  1  0
  2 31  1  0
  3  4  1  1
  3  5  1  0
  3 13  1  0
  5  6  1  0
  6  7  2  0
  6  8  1  0
  8  9  1  0
  9 10  1  1
  9 13  1  0
 10 11  2  0
 10 12  1  0
 14 15  1  0
 15 16  1  1
 15 22  1  0
 16 17  1  0
 17 18  1  0
 18 19  1  6
 18 20  1  0
 20 21  1  0
 22 23  1  1
 22 24  1  0
 24 25  1  1
 24 31  1  0
 25 26  2  0
 25 27  1  0
 27 28  1  0
 28 29  1  0
 29 30  1  0
 31 32  1  6
M  END
