
     RDKit          3D

 32 33  0  0  0  0  0  0  0  0999 V2000
    5.9200    1.3310   -2.8240 O   0  0  0  0  0  0  0  0  0  0  0  0
    7.0310    1.2830   -2.2440 C   0  0  0  0  0  0  0  0  0  0  0  0
    7.8890    2.3540   -2.3670 O   0  0  0  0  0  0  0  0  0  0  0  0
    7.3880    0.0950   -1.4520 C   0  0  0  0  0  0  0  0  0  0  0  0
    6.3990   -0.8870   -1.4410 O   0  0  0  0  0  0  0  0  0  0  0  0
    5.1090   -0.6810   -0.9570 C   0  0  0  0  0  0  0  0  0  0  0  0
    4.8740    0.4680   -0.5190 O   0  0  0  0  0  0  0  0  0  0  0  0
    4.1360   -1.7830   -0.9880 C   0  0  0  0  0  0  0  0  0  0  0  0
    2.8870   -1.4970   -0.4810 O   0  0  0  0  0  0  0  0  0  0  0  0
    2.9620   -1.1340    0.8340 C   0  0  2  0  0  0  0  0  0  0  0  0
    2.2410   -2.1550    1.7300 C   0  0  0  0  0  0  0  0  0  0  0  0
    1.8690   -1.3940    2.9820 C   0  0  0  0  0  0  0  0  0  0  0  0
    2.2720    0.0330    2.7260 C   0  0  2  0  0  0  0  0  0  0  0  0
    1.4290    0.9530    3.3330 O   0  0  0  0  0  0  0  0  0  0  0  0
    2.1990    0.1120    1.2100 C   0  0  2  0  0  0  0  0  0  0  0  0
    0.8720   -0.0450    0.7710 O   0  0  0  0  0  0  0  0  0  0  0  0
    0.4860    1.0370   -0.0220 C   0  0  0  0  0  0  0  0  0  0  0  0
   -0.9410    0.8590   -0.4940 C   0  0  2  0  0  0  0  0  0  0  0  0
   -1.3760    1.8910   -1.2800 O   0  0  0  0  0  0  0  0  0  0  0  0
   -1.7960    0.5820    0.7140 C   0  0  2  0  0  0  0  0  0  0  0  0
   -1.1910   -0.5040    1.3930 O   0  0  0  0  0  0  0  0  0  0  0  0
   -3.1920    0.1730    0.4330 C   0  0  1  0  0  0  0  0  0  0  0  0
   -3.8180   -0.1990    1.7870 C   0  0  0  0  0  0  0  0  0  0  0  0
   -3.7430    0.9240    2.6080 O   0  0  0  0  0  0  0  0  0  0  0  0
   -4.0830    1.1960   -0.1750 C   0  0  0  0  0  0  0  0  0  0  0  0
   -5.2050    0.3120   -0.7380 C   0  0  1  0  0  0  0  0  0  0  0  0
   -6.2930    0.4160    0.0940 O   0  0  0  0  0  0  0  0  0  0  0  0
   -5.5530    0.7370   -2.1480 C   0  0  0  0  0  0  0  0  0  0  0  0
   -6.5680   -0.0940   -2.6140 O   0  0  0  0  0  0  0  0  0  0  0  0
   -4.5890   -1.0450   -0.8010 C   0  0  2  0  0  0  0  0  0  0  0  0
   -5.3360   -1.9830   -0.0570 O   0  0  0  0  0  0  0  0  0  0  0  0
   -3.2800   -0.9640   -0.3630 O   0  0  0  0  0  0  0  0  0  0  0  0
  1  2  2  0
  2  3  1  0
  2  4  1  0
  4  5  1  0
  5  6  1  0
  6  7  2  0
  6  8  1  0
  8  9  1  0
 10  9  1  6
 10 11  1  0
 10 15  1  0
 11 12  1  0
 12 13  1  0
 13 14  1  1
 13 15  1  0
 15 16  1  1
 16 17  1  0
 17 18  1  0
 18 19  1  1
 18 20  1  0
 20 21  1  6
 20 22  1  0
 22 23  1  1
 22 25  1  0
 22 32  1  0
 23 24  1  0
 25 26  1  0
 26 27  1  1
 26 28  1  0
 26 30  1  0
 28 29  1  0
 30 31  1  1
 30 32  1  0
M  END
