
     RDKit          3D

 32 33  0  0  0  0  0  0  0  0999 V2000
   -2.0350   -0.1110   -1.5790 O   0  0  0  0  0  0  0  0  0  0  0  0
   -2.5970   -0.5120   -0.5080 C   0  0  0  0  0  0  0  0  0  0  0  0
   -1.9430   -0.2930    0.6630 O   0  0  0  0  0  0  0  0  0  0  0  0
   -0.7200    0.2900    0.8780 C   0  0  0  0  0  0  0  0  0  0  0  0
    0.5290   -0.4240    0.6020 C   0  0  1  0  0  0  0  0  0  0  0  0
    0.4930   -1.6510    1.6100 C   0  0  0  0  0  0  0  0  0  0  0  0
   -0.6080   -2.4290    1.3610 O   0  0  0  0  0  0  0  0  0  0  0  0
    0.6740   -1.1420   -0.7090 C   0  0  0  0  0  0  0  0  0  0  0  0
   -0.2420   -2.1770   -0.8750 O   0  0  0  0  0  0  0  0  0  0  0  0
    1.7700    0.2990    0.9690 C   0  0  1  0  0  0  0  0  0  0  0  0
    2.8840   -0.4730    0.6590 O   0  0  0  0  0  0  0  0  0  0  0  0
    3.6630    0.0680   -0.3580 C   0  0  2  0  0  0  0  0  0  0  0  0
    4.7550   -0.9770   -0.6270 C   0  0  0  0  0  0  0  0  0  0  0  0
    5.7370   -0.9150    0.3590 O   0  0  0  0  0  0  0  0  0  0  0  0
    6.4160    0.2970    0.1870 C   0  0  0  0  0  0  0  0  0  0  0  0
    5.5380    1.4060    0.6730 C   0  0  0  0  0  0  0  0  0  0  0  0
    4.2280    1.4130   -0.0380 C   0  0  1  0  0  0  0  0  0  0  0  0
    4.3370    2.2950   -1.2810 C   0  0  0  0  0  0  0  0  0  0  0  0
    5.2520    1.7970   -2.2010 O   0  0  0  0  0  0  0  0  0  0  0  0
    3.2680    2.0650    0.7660 O   0  0  0  0  0  0  0  0  0  0  0  0
    1.9580    1.6610    0.4080 C   0  0  2  0  0  0  0  0  0  0  0  0
    1.1460    2.6360    1.0210 O   0  0  0  0  0  0  0  0  0  0  0  0
   -3.9230   -1.1830   -0.6480 C   0  0  1  0  0  0  0  0  0  0  0  0
   -4.2510   -1.2500   -2.0210 O   0  0  0  0  0  0  0  0  0  0  0  0
   -3.9450   -2.5730   -0.1280 C   0  0  0  0  0  0  0  0  0  0  0  0
   -3.6710   -2.6010    1.2360 O   0  0  0  0  0  0  0  0  0  0  0  0
   -4.9470   -0.3400    0.0750 C   0  0  2  0  0  0  0  0  0  0  0  0
   -6.3510   -0.8930   -0.0580 C   0  0  0  0  0  0  0  0  0  0  0  0
   -6.7440   -0.9430   -1.3860 O   0  0  0  0  0  0  0  0  0  0  0  0
   -4.9660    0.9640   -0.4490 O   0  0  0  0  0  0  0  0  0  0  0  0
   -4.7270    1.8940    0.5710 C   0  0  0  0  0  0  0  0  0  0  0  0
   -4.7400    3.1850    0.0880 O   0  0  0  0  0  0  0  0  0  0  0  0
  1  2  2  0
  2  3  1  0
  2 23  1  0
  3  4  1  0
  5  4  1  6
  5  6  1  0
  5  8  1  0
  5 10  1  0
  6  7  1  0
  8  9  1  0
 10 11  1  6
 10 21  1  0
 11 12  1  0
 12 13  1  1
 12 17  1  0
 13 14  1  0
 14 15  1  0
 15 16  1  0
 16 17  1  0
 17 18  1  6
 17 20  1  0
 18 19  1  0
 20 21  1  0
 21 22  1  1
 23 24  1  6
 23 25  1  0
 23 27  1  0
 25 26  1  0
 27 28  1  6
 27 30  1  0
 28 29  1  0
 30 31  1  0
 31 32  1  0
M  END
