
     RDKit          3D

 32 33  0  0  0  0  0  0  0  0999 V2000
   -5.8430   -1.9280   -0.1860 O   0  0  0  0  0  0  0  0  0  0  0  0
   -5.5890   -0.7120   -0.3860 C   0  0  0  0  0  0  0  0  0  0  0  0
   -6.6380    0.1580   -0.5180 O   0  0  0  0  0  0  0  0  0  0  0  0
   -8.0080   -0.2660   -0.4360 C   0  0  0  0  0  0  0  0  0  0  0  0
   -8.8450    0.9810   -0.6300 C   0  0  0  0  0  0  0  0  0  0  0  0
   -8.5570    1.5270   -1.8760 O   0  0  0  0  0  0  0  0  0  0  0  0
   -4.1650   -0.3200   -0.4640 C   0  0  2  0  0  0  0  0  0  0  0  0
   -3.2380   -1.5040   -0.2800 C   0  0  0  0  0  0  0  0  0  0  0  0
   -2.0040   -0.7780    0.2170 C   0  0  2  0  0  0  0  0  0  0  0  0
   -1.2060   -0.3780   -1.0040 C   0  0  0  0  0  0  0  0  0  0  0  0
    0.0880   -0.3850   -0.5170 O   0  0  0  0  0  0  0  0  0  0  0  0
    0.0880   -0.9090    0.7370 C   0  0  2  0  0  0  0  0  0  0  0  0
    1.2680   -1.7970    0.9610 C   0  0  2  0  0  0  0  0  0  0  0  0
    1.1030   -2.2990    2.2790 O   0  0  0  0  0  0  0  0  0  0  0  0
    2.6130   -1.0900    0.8760 C   0  0  1  0  0  0  0  0  0  0  0  0
    2.6430   -0.0080    1.7410 O   0  0  0  0  0  0  0  0  0  0  0  0
    3.6100   -2.1020    1.4980 C   0  0  0  0  0  0  0  0  0  0  0  0
    3.1710   -2.4650    2.7950 O   0  0  0  0  0  0  0  0  0  0  0  0
    2.9650   -0.8040   -0.5240 C   0  0  0  0  0  0  0  0  0  0  0  0
    4.2990   -0.1060   -0.7390 C   0  0  2  0  0  0  0  0  0  0  0  0
    5.3830   -0.7950   -0.2870 O   0  0  0  0  0  0  0  0  0  0  0  0
    4.2620    1.3330   -0.3580 C   0  0  0  0  0  0  0  0  0  0  0  0
    5.3250    2.0410   -0.8430 O   0  0  0  0  0  0  0  0  0  0  0  0
    6.5740    1.7290   -0.4210 C   0  0  2  0  0  0  0  0  0  0  0  0
    7.2110    2.8480    0.1790 O   0  0  0  0  0  0  0  0  0  0  0  0
    7.4680    1.4170   -1.6370 C   0  0  0  0  0  0  0  0  0  0  0  0
    8.7640    1.0920   -1.2100 O   0  0  0  0  0  0  0  0  0  0  0  0
   -1.1260   -1.6200    0.8790 O   0  0  0  0  0  0  0  0  0  0  0  0
   -2.4230    0.2900    0.9620 O   0  0  0  0  0  0  0  0  0  0  0  0
   -3.7350    0.5600    0.6710 C   0  0  1  0  0  0  0  0  0  0  0  0
   -3.9810    2.0110    0.3230 C   0  0  0  0  0  0  0  0  0  0  0  0
   -3.6210    2.8130    1.3840 O   0  0  0  0  0  0  0  0  0  0  0  0
  1  2  2  0
  2  3  1  0
  7  2  1  1
  3  4  1  0
  4  5  1  0
  5  6  1  0
  7  8  1  0
  7 30  1  0
  9  8  1  6
  9 10  1  0
  9 28  1  0
  9 29  1  0
 10 11  1  0
 12 11  1  6
 12 13  1  0
 12 28  1  0
 13 14  1  1
 13 15  1  0
 15 16  1  1
 15 17  1  0
 15 19  1  0
 17 18  1  0
 19 20  1  0
 20 21  1  1
 20 22  1  0
 22 23  1  0
 23 24  1  0
 24 25  1  6
 24 26  1  0
 26 27  1  0
 29 30  1  0
 30 31  1  6
 31 32  1  0
M  END
