
     RDKit          3D

 32 33  0  0  0  0  0  0  0  0999 V2000
   -0.2240    3.5090    0.0100 O   0  0  0  0  0  0  0  0  0  0  0  0
   -0.9930    2.5480   -0.3420 C   0  0  0  0  0  0  0  0  0  0  0  0
   -0.6790    1.8880   -1.6100 C   0  0  0  0  0  0  0  0  0  0  0  0
    0.0120    0.7200   -1.5470 O   0  0  0  0  0  0  0  0  0  0  0  0
    0.5100    0.3110   -0.3540 C   0  0  2  0  0  0  0  0  0  0  0  0
    2.0420    0.4330   -0.3720 C   0  0  1  0  0  0  0  0  0  0  0  0
    2.5840   -0.3540   -1.3840 O   0  0  0  0  0  0  0  0  0  0  0  0
    2.4970    1.8500   -0.6110 C   0  0  0  0  0  0  0  0  0  0  0  0
    3.9770    1.7980   -0.9410 C   0  0  0  0  0  0  0  0  0  0  0  0
    4.7220    0.9150    0.0350 C   0  0  0  0  0  0  0  0  0  0  0  0
    3.8870    0.7950    1.2830 C   0  0  2  0  0  0  0  0  0  0  0  0
    4.6230    0.0830    2.3480 C   0  0  0  0  0  0  0  0  0  0  0  0
    4.8840    0.6120    3.4700 O   0  0  0  0  0  0  0  0  0  0  0  0
    5.0670   -1.2210    2.1550 O   0  0  0  0  0  0  0  0  0  0  0  0
    2.6320    0.0010    0.9530 C   0  0  1  0  0  0  0  0  0  0  0  0
    1.7560    0.1380    2.0090 O   0  0  0  0  0  0  0  0  0  0  0  0
    0.1540   -0.9050    0.1100 O   0  0  0  0  0  0  0  0  0  0  0  0
   -0.7380   -1.6760   -0.5310 C   0  0  1  0  0  0  0  0  0  0  0  0
   -0.3940   -2.0730   -1.9490 C   0  0  0  0  0  0  0  0  0  0  0  0
    0.8010   -2.8010   -2.0180 O   0  0  0  0  0  0  0  0  0  0  0  0
   -0.7680   -3.0200    0.2330 C   0  0  0  0  0  0  0  0  0  0  0  0
    0.5210   -3.5860    0.2000 O   0  0  0  0  0  0  0  0  0  0  0  0
   -2.1670   -1.2100   -0.5310 C   0  0  1  0  0  0  0  0  0  0  0  0
   -2.9480   -2.3520   -0.8400 O   0  0  0  0  0  0  0  0  0  0  0  0
   -2.6480   -0.7380    0.8150 C   0  0  0  0  0  0  0  0  0  0  0  0
   -4.0700   -0.2310    0.6270 C   0  0  2  0  0  0  0  0  0  0  0  0
   -4.9890   -1.0050    1.3610 O   0  0  0  0  0  0  0  0  0  0  0  0
   -4.4810   -0.3180   -0.7050 O   0  0  0  0  0  0  0  0  0  0  0  0
   -4.1670    1.2290    1.0150 C   0  0  1  0  0  0  0  0  0  0  0  0
   -3.5240    1.3860    2.2610 O   0  0  0  0  0  0  0  0  0  0  0  0
   -3.3920    2.0160   -0.0100 C   0  0  0  0  0  0  0  0  0  0  0  0
   -2.0640    2.1670    0.4510 O   0  0  0  0  0  0  0  0  0  0  0  0
  1  2  2  0
  2  3  1  0
  2 32  1  0
  3  4  1  0
  5  4  1  6
  5  6  1  0
  5 17  1  0
  6  7  1  6
  6  8  1  0
  6 15  1  0
  8  9  1  0
  9 10  1  0
 10 11  1  0
 11 12  1  1
 11 15  1  0
 12 13  2  0
 12 14  1  0
 15 16  1  1
 17 18  1  0
 18 19  1  6
 18 21  1  0
 18 23  1  0
 19 20  1  0
 21 22  1  0
 23 24  1  1
 23 25  1  0
 25 26  1  0
 26 27  1  1
 26 28  1  0
 26 29  1  0
 29 30  1  1
 29 31  1  0
 31 32  1  0
M  END
