
     RDKit          3D

 33 35  0  0  0  0  0  0  0  0999 V2000
   -2.8260    1.2530    2.5810 O   0  0  0  0  0  0  0  0  0  0  0  0
   -3.1760    1.1530    1.3570 C   0  0  0  0  0  0  0  0  0  0  0  0
   -3.4010   -0.1100    0.8820 O   0  0  0  0  0  0  0  0  0  0  0  0
   -3.5850   -0.4950   -0.4360 C   0  0  2  0  0  0  0  0  0  0  0  0
   -5.0410   -0.8600   -0.5770 C   0  0  0  0  0  0  0  0  0  0  0  0
   -5.4960   -1.2540   -1.6890 O   0  0  0  0  0  0  0  0  0  0  0  0
   -5.9330   -0.7840    0.4820 O   0  0  0  0  0  0  0  0  0  0  0  0
   -2.7890   -1.7030   -0.8730 C   0  0  2  0  0  0  0  0  0  0  0  0
   -2.8690   -2.8230    0.1400 C   0  0  0  0  0  0  0  0  0  0  0  0
   -2.4000   -2.5140    1.3870 O   0  0  0  0  0  0  0  0  0  0  0  0
   -1.4030   -1.3800   -1.2950 C   0  0  0  0  0  0  0  0  0  0  0  0
   -1.2470   -1.2490   -2.5700 O   0  0  0  0  0  0  0  0  0  0  0  0
   -0.3130   -1.2120   -0.5220 O   0  0  0  0  0  0  0  0  0  0  0  0
    0.0420   -0.3180    0.4720 C   0  0  1  0  0  0  0  0  0  0  0  0
    1.3240   -0.8070    1.1100 C   0  0  0  0  0  0  0  0  0  0  0  0
    2.5600   -0.5250    0.3510 C   0  0  1  0  0  0  0  0  0  0  0  0
    3.5380   -0.0990    1.2800 O   0  0  0  0  0  0  0  0  0  0  0  0
    3.1450   -1.6770   -0.3960 C   0  0  0  0  0  0  0  0  0  0  0  0
    4.4660   -1.3110   -0.9720 C   0  0  2  0  0  0  0  0  0  0  0  0
    5.4490   -2.0040   -0.2280 O   0  0  0  0  0  0  0  0  0  0  0  0
    4.8180    0.1310   -0.9500 C   0  0  1  0  0  0  0  0  0  0  0  0
    5.7430    0.3490   -2.0000 O   0  0  0  0  0  0  0  0  0  0  0  0
    3.6890    1.0780   -1.1520 C   0  0  0  0  0  0  0  0  0  0  0  0
    2.3790    0.6130   -0.6280 C   0  0  2  0  0  0  0  0  0  0  0  0
    1.5570    1.6480    0.0700 C   0  0  2  0  0  0  0  0  0  0  0  0
    2.0150    1.7110    1.4010 O   0  0  0  0  0  0  0  0  0  0  0  0
    0.1120    1.1260    0.0490 C   0  0  1  0  0  0  0  0  0  0  0  0
   -0.2620    1.1720   -1.2980 O   0  0  0  0  0  0  0  0  0  0  0  0
   -0.6180    1.9390    0.8650 O   0  0  0  0  0  0  0  0  0  0  0  0
   -1.1070    3.0930    0.3330 C   0  0  0  0  0  0  0  0  0  0  0  0
   -2.3420    3.3560    0.9330 O   0  0  0  0  0  0  0  0  0  0  0  0
   -3.2970    2.4030    0.5940 C   0  0  2  0  0  0  0  0  0  0  0  0
   -4.5940    2.8960    0.7620 O   0  0  0  0  0  0  0  0  0  0  0  0
  1  2  2  0
  2  3  1  0
  2 32  1  0
  3  4  1  0
  4  5  1  1
  4  8  1  0
  5  6  2  0
  5  7  1  0
  8  9  1  1
  8 11  1  0
  9 10  1  0
 11 12  2  0
 11 13  1  0
 13 14  1  0
 14 15  1  6
 14 27  1  0
 15 16  1  0
 16 17  1  1
 16 18  1  0
 16 24  1  0
 18 19  1  0
 19 20  1  1
 19 21  1  0
 21 22  1  6
 21 23  1  0
 24 23  1  1
 24 25  1  0
 25 26  1  1
 25 27  1  0
 27 28  1  6
 27 29  1  0
 29 30  1  0
 30 31  1  0
 31 32  1  0
 32 33  1  1
M  END
