
     RDKit          3D

 32 33  0  0  0  0  0  0  0  0999 V2000
    3.5300    3.2160    2.9200 O   0  0  0  0  0  0  0  0  0  0  0  0
    2.2380    2.8390    2.6040 C   0  0  0  0  0  0  0  0  0  0  0  0
    2.3170    1.6910    1.6140 C   0  0  1  0  0  0  0  0  0  0  0  0
    0.9150    1.2480    1.2030 C   0  0  0  0  0  0  0  0  0  0  0  0
    0.8650   -0.1050    1.0960 O   0  0  0  0  0  0  0  0  0  0  0  0
   -0.1600   -0.6670    0.3960 C   0  0  2  0  0  0  0  0  0  0  0  0
   -1.4270    0.1670    0.3870 C   0  0  0  0  0  0  0  0  0  0  0  0
   -2.5280   -0.4760   -0.3880 C   0  0  1  0  0  0  0  0  0  0  0  0
   -2.1940   -0.6840   -1.7330 O   0  0  0  0  0  0  0  0  0  0  0  0
   -2.7770   -1.7320    0.1730 O   0  0  0  0  0  0  0  0  0  0  0  0
   -4.1210   -1.9640    0.3470 C   0  0  0  0  0  0  0  0  0  0  0  0
   -4.7520   -0.9140    1.2410 C   0  0  0  0  0  0  0  0  0  0  0  0
   -4.3230    0.3730    0.9040 O   0  0  0  0  0  0  0  0  0  0  0  0
   -3.7790    0.3620   -0.3780 C   0  0  1  0  0  0  0  0  0  0  0  0
   -3.5310    1.7720   -0.7930 C   0  0  2  0  0  0  0  0  0  0  0  0
   -4.7870    2.4160   -0.7790 O   0  0  0  0  0  0  0  0  0  0  0  0
   -2.9820    1.9430   -2.1730 C   0  0  0  0  0  0  0  0  0  0  0  0
   -2.8750    3.3360   -2.3920 O   0  0  0  0  0  0  0  0  0  0  0  0
   -0.5080   -1.8570    1.0850 O   0  0  0  0  0  0  0  0  0  0  0  0
    0.5570   -2.7320    1.1510 C   0  0  1  0  0  0  0  0  0  0  0  0
    0.7770   -3.1210    2.4650 O   0  0  0  0  0  0  0  0  0  0  0  0
    0.1680   -3.9840    0.3730 C   0  0  0  0  0  0  0  0  0  0  0  0
    1.1990   -4.9150    0.3960 O   0  0  0  0  0  0  0  0  0  0  0  0
    0.1740   -1.0920   -0.8970 O   0  0  0  0  0  0  0  0  0  0  0  0
    1.2630   -0.3580   -1.3520 C   0  0  0  0  0  0  0  0  0  0  0  0
    2.0490   -0.9890   -2.4510 C   0  0  0  0  0  0  0  0  0  0  0  0
    3.3990   -0.7050   -2.2810 O   0  0  0  0  0  0  0  0  0  0  0  0
    3.6690    0.5670   -1.8210 C   0  0  0  0  0  0  0  0  0  0  0  0
    4.5930    0.6010   -0.6330 C   0  0  2  0  0  0  0  0  0  0  0  0
    4.6240   -0.7010   -0.0800 O   0  0  0  0  0  0  0  0  0  0  0  0
    4.2810    1.6460    0.3800 C   0  0  0  0  0  0  0  0  0  0  0  0
    2.9860    2.0710    0.4520 O   0  0  0  0  0  0  0  0  0  0  0  0
  1  2  1  0
  3  2  1  1
  3  4  1  0
  3 32  1  0
  4  5  1  0
  5  6  1  0
  6  7  1  6
  6 19  1  0
  6 24  1  0
  7  8  1  0
  8  9  1  6
  8 10  1  0
  8 14  1  0
 10 11  1  0
 11 12  1  0
 12 13  1  0
 14 13  1  1
 14 15  1  0
 15 16  1  6
 15 17  1  0
 17 18  1  0
 19 20  1  0
 20 21  1  1
 20 22  1  0
 22 23  1  0
 24 25  1  0
 25 26  1  0
 26 27  1  0
 27 28  1  0
 28 29  1  0
 29 30  1  1
 29 31  1  0
 31 32  1  0
M  END
