
     RDKit          3D

 34 36  0  0  0  0  0  0  0  0999 V2000
   -6.7140    0.3960    1.2140 O   0  0  0  0  0  0  0  0  0  0  0  0
   -5.6440   -0.2250    0.5970 C   0  0  0  0  0  0  0  0  0  0  0  0
   -4.3800    0.6080    0.7390 C   0  0  1  0  0  0  0  0  0  0  0  0
   -3.3760   -0.0660    0.1090 O   0  0  0  0  0  0  0  0  0  0  0  0
   -2.1400    0.5740    0.0780 C   0  0  2  0  0  0  0  0  0  0  0  0
   -1.3340   -0.1680    0.8490 O   0  0  0  0  0  0  0  0  0  0  0  0
   -0.3190   -0.8930    0.3930 C   0  0  2  0  0  0  0  0  0  0  0  0
    0.7240    0.0670   -0.2130 C   0  0  0  0  0  0  0  0  0  0  0  0
    1.8040   -0.6220   -0.7050 O   0  0  0  0  0  0  0  0  0  0  0  0
    2.7200    0.2630   -1.2270 C   0  0  2  0  0  0  0  0  0  0  0  0
    2.2010    1.1070   -2.3620 C   0  0  0  0  0  0  0  0  0  0  0  0
    1.7630    0.3450   -3.4450 O   0  0  0  0  0  0  0  0  0  0  0  0
    3.8080   -0.4470   -1.7190 O   0  0  0  0  0  0  0  0  0  0  0  0
    4.9050    0.3690   -1.6830 C   0  0  2  0  0  0  0  0  0  0  0  0
    6.0720   -0.4670   -1.1440 C   0  0  0  0  0  0  0  0  0  0  0  0
    7.2300    0.3000   -1.0780 O   0  0  0  0  0  0  0  0  0  0  0  0
    4.6450    1.5110   -0.7660 C   0  0  1  0  0  0  0  0  0  0  0  0
    4.6690    2.7370   -1.4280 O   0  0  0  0  0  0  0  0  0  0  0  0
    3.2850    1.1990   -0.1820 C   0  0  2  0  0  0  0  0  0  0  0  0
    3.4860    0.5610    1.0340 O   0  0  0  0  0  0  0  0  0  0  0  0
   -0.5290   -1.8800   -0.4980 O   0  0  0  0  0  0  0  0  0  0  0  0
   -0.4710   -3.1150    0.0820 C   0  0  2  0  0  0  0  0  0  0  0  0
   -1.7750   -3.6310    0.6090 C   0  0  0  0  0  0  0  0  0  0  0  0
   -1.5130   -4.9050    1.1640 O   0  0  0  0  0  0  0  0  0  0  0  0
    0.5010   -3.0040    1.2380 C   0  0  1  0  0  0  0  0  0  0  0  0
    1.8130   -3.2590    0.8450 O   0  0  0  0  0  0  0  0  0  0  0  0
    0.3750   -1.5360    1.5800 C   0  0  2  0  0  0  0  0  0  0  0  0
   -0.4370   -1.4590    2.7350 O   0  0  0  0  0  0  0  0  0  0  0  0
   -2.2480    2.0240    0.3230 C   0  0  2  0  0  0  0  0  0  0  0  0
   -2.4670    2.4140    1.6150 O   0  0  0  0  0  0  0  0  0  0  0  0
   -3.4340    2.5480   -0.5070 C   0  0  1  0  0  0  0  0  0  0  0  0
   -3.3140    2.1830   -1.8290 O   0  0  0  0  0  0  0  0  0  0  0  0
   -4.6800    1.9550    0.1150 C   0  0  2  0  0  0  0  0  0  0  0  0
   -5.1590    2.7800    1.1340 O   0  0  0  0  0  0  0  0  0  0  0  0
  1  2  1  0
  3  2  1  6
  3  4  1  0
  3 33  1  0
  4  5  1  0
  5  6  1  1
  5 29  1  0
  6  7  1  0
  7  8  1  6
  7 21  1  0
  7 27  1  0
  8  9  1  0
  9 10  1  0
 10 11  1  6
 10 13  1  0
 10 19  1  0
 11 12  1  0
 13 14  1  0
 14 15  1  1
 14 17  1  0
 15 16  1  0
 17 18  1  6
 17 19  1  0
 19 20  1  1
 21 22  1  0
 22 23  1  1
 22 25  1  0
 23 24  1  0
 25 26  1  6
 25 27  1  0
 27 28  1  1
 29 30  1  1
 29 31  1  0
 31 32  1  6
 31 33  1  0
 33 34  1  1
M  END
