
     RDKit          3D

 27 31  0  0  0  0  0  0  0  0999 V2000
   -4.5630   -0.3950   -2.1320 C   0  0  0  0  0  0  0  0  0  0  0  0
   -4.2930   -0.7120   -0.7590 N   0  0  0  0  0  0  0  0  0  0  0  0
   -5.0300   -1.7580   -0.1100 C   0  0  0  0  0  0  0  0  0  0  0  0
   -3.3080    0.0030   -0.0510 C   0  0  0  0  0  0  0  0  0  0  0  0
   -3.6470    1.1530    0.6510 C   0  0  0  0  0  0  0  0  0  0  0  0
   -2.7510    1.9060    1.3650 C   0  0  0  0  0  0  0  0  0  0  0  0
   -3.1010    3.0870    2.0870 C   0  0  0  0  0  0  0  0  0  0  0  0
   -3.3720    4.0580    2.6660 N   0  0  0  0  0  0  0  0  0  0  0  0
   -1.4270    1.5140    1.4000 C   0  0  0  0  0  0  0  0  0  0  0  0
   -0.4730    2.2260    2.1000 C   0  0  0  0  0  0  0  0  0  0  0  0
    0.8330    1.7890    2.1000 C   0  0  0  0  0  0  0  0  0  0  0  0
    1.2520    0.6600    1.4290 C   0  0  0  0  0  0  0  0  0  0  0  0
    2.6190    0.2680    1.4740 N   0  0  0  0  0  0  0  0  0  0  0  0
    3.3830    0.1810    2.5500 N   0  0  0  0  0  0  0  0  0  0  0  0
    4.6010   -0.2140    2.2300 N   0  0  0  0  0  0  0  0  0  0  0  0
    4.6400   -0.3920    0.9000 C   0  0  0  0  0  0  0  0  0  0  0  0
    5.6290   -0.7880    0.0420 N   0  0  0  0  0  0  0  0  0  0  0  0
    5.4490   -0.9010   -1.2660 C   0  0  0  0  0  0  0  0  0  0  0  0
    6.2190   -1.2570   -2.3150 N   0  0  0  0  0  0  0  0  0  0  0  0
    5.4640   -1.1790   -3.4410 C   0  0  0  0  0  0  0  0  0  0  0  0
    4.2160   -0.7760   -3.1290 N   0  0  0  0  0  0  0  0  0  0  0  0
    4.1280   -0.5840   -1.8040 C   0  0  0  0  0  0  0  0  0  0  0  0
    3.1290   -0.1830   -0.9270 C   0  0  0  0  0  0  0  0  0  0  0  0
    3.3840   -0.0860    0.4270 C   0  0  0  0  0  0  0  0  0  0  0  0
    0.2830   -0.0360    0.7370 C   0  0  0  0  0  0  0  0  0  0  0  0
   -1.0520    0.3790    0.7160 C   0  0  0  0  0  0  0  0  0  0  0  0
   -1.9820   -0.3670   -0.0010 C   0  0  0  0  0  0  0  0  0  0  0  0
  1  2  1  0
  2  3  1  0
  2  4  1  0
  4  5  2  0
  4 27  1  0
  5  6  1  0
  6  7  1  0
  6  9  2  0
  7  8  3  0
  9 10  1  0
  9 26  1  0
 10 11  2  0
 11 12  1  0
 12 13  1  0
 12 25  2  0
 13 14  1  0
 13 24  1  0
 14 15  2  0
 15 16  1  0
 16 17  1  0
 16 24  2  0
 17 18  1  0
 18 19  2  0
 18 22  1  0
 19 20  1  0
 20 21  2  0
 21 22  1  0
 22 23  2  0
 23 24  1  0
 25 26  1  0
 26 27  2  0
M  END
