
     RDKit          3D

 27 31  0  0  0  0  0  0  0  0999 V2000
    7.7550   -2.2400    0.5580 C   0  0  0  0  0  0  0  0  0  0  0  0
    6.6130   -1.4060    0.0210 C   0  0  0  0  0  0  0  0  0  0  0  0
    6.5830   -1.2490   -1.2870 C   0  0  0  0  0  0  0  0  0  0  0  0
    5.5550   -0.4880   -1.8690 N   0  0  0  0  0  0  0  0  0  0  0  0
    4.5810    0.0840   -1.0020 C   0  0  0  0  0  0  0  0  0  0  0  0
    3.5290    0.8350   -1.3190 N   0  0  0  0  0  0  0  0  0  0  0  0
    2.8690    1.1660   -0.1950 C   0  0  0  0  0  0  0  0  0  0  0  0
    1.6890    1.9690   -0.1850 N   0  0  0  0  0  0  0  0  0  0  0  0
    1.6100    3.3280   -0.2600 C   0  0  0  0  0  0  0  0  0  0  0  0
    0.2920    3.7090   -0.2190 C   0  0  0  0  0  0  0  0  0  0  0  0
   -0.4740    2.5710   -0.1160 C   0  0  0  0  0  0  0  0  0  0  0  0
   -1.8210    2.3660   -0.0390 N   0  0  0  0  0  0  0  0  0  0  0  0
   -2.3650    1.1480    0.0590 C   0  0  0  0  0  0  0  0  0  0  0  0
   -3.8180    0.9840    0.1380 C   0  0  0  0  0  0  0  0  0  0  0  0
   -4.7090    1.9780    0.1230 N   0  0  0  0  0  0  0  0  0  0  0  0
   -5.9350    1.4340    0.2140 C   0  0  0  0  0  0  0  0  0  0  0  0
   -5.8260    0.0970    0.2870 N   0  0  0  0  0  0  0  0  0  0  0  0
   -6.9000   -0.8500    0.3940 C   0  0  1  0  0  0  0  0  0  0  0  0
   -6.6770   -2.0560   -0.5230 C   0  0  0  0  0  0  0  0  0  0  0  0
   -7.0840   -1.3730    1.7900 C   0  0  0  0  0  0  0  0  0  0  0  0
   -4.5170   -0.1440    0.2380 N   0  0  0  0  0  0  0  0  0  0  0  0
   -1.5030    0.0780    0.0800 C   0  0  0  0  0  0  0  0  0  0  0  0
   -0.1350    0.2420    0.0040 C   0  0  0  0  0  0  0  0  0  0  0  0
    0.4200    1.5210   -0.0970 C   0  0  0  0  0  0  0  0  0  0  0  0
    3.5480    0.5960    0.8350 C   0  0  0  0  0  0  0  0  0  0  0  0
    4.6180   -0.0790    0.3270 N   0  0  0  0  0  0  0  0  0  0  0  0
    5.6550   -0.8530    0.9710 C   0  0  0  0  0  0  0  0  0  0  0  0
  1  2  1  0
  2  3  2  0
  2 27  1  0
  3  4  1  0
  4  5  1  0
  5  6  2  0
  5 26  1  0
  6  7  1  0
  7  8  1  0
  7 25  2  0
  8  9  1  0
  8 24  1  0
  9 10  2  0
 10 11  1  0
 11 12  2  0
 11 24  1  0
 12 13  1  0
 13 14  1  0
 13 22  2  0
 14 15  1  0
 14 21  2  0
 15 16  2  0
 16 17  1  0
 17 18  1  0
 17 21  1  0
 18 19  1  6
 18 20  1  0
 22 23  1  0
 23 24  2  0
 25 26  1  0
 26 27  1  0
M  END
