
     RDKit          3D

 27 31  0  0  0  0  0  0  0  0999 V2000
   -1.4880   -1.2290   -0.6100 C   0  0  0  0  0  0  0  0  0  0  0  0
   -1.7670   -0.3290    0.5390 C   0  0  0  0  0  0  0  0  0  0  0  0
   -0.8510    0.0230    1.3440 N   0  0  0  0  0  0  0  0  0  0  0  0
    0.4760   -0.4510    1.1500 C   0  0  0  0  0  0  0  0  0  0  0  0
    0.8000   -1.7510    1.5490 C   0  0  0  0  0  0  0  0  0  0  0  0
    2.0790   -2.2220    1.3670 C   0  0  0  0  0  0  0  0  0  0  0  0
    2.9850   -1.4000    0.8030 N   0  0  0  0  0  0  0  0  0  0  0  0
    2.6980   -0.1520    0.4130 C   0  0  0  0  0  0  0  0  0  0  0  0
    3.7210    0.7180   -0.2020 C   0  0  0  0  0  0  0  0  0  0  0  0
    3.5910    1.9980   -0.6470 C   0  0  0  0  0  0  0  0  0  0  0  0
    4.7990    2.3770   -1.1290 N   0  0  0  0  0  0  0  0  0  0  0  0
    5.6720    1.3840   -1.0010 N   0  0  0  0  0  0  0  0  0  0  0  0
    5.0310    0.3580   -0.4340 C   0  0  0  0  0  0  0  0  0  0  0  0
    5.9230   -0.7570   -0.2640 N   0  0  0  0  0  0  0  0  0  0  0  0
    7.2790   -0.1970   -0.3430 C   0  0  0  0  0  0  0  0  0  0  0  0
    7.0570    0.9830   -1.2390 C   0  0  0  0  0  0  0  0  0  0  0  0
    1.4470    0.2970    0.5960 N   0  0  0  0  0  0  0  0  0  0  0  0
   -3.1370    0.1500    0.7250 C   0  0  0  0  0  0  0  0  0  0  0  0
   -3.4620    0.9910    1.7750 C   0  0  0  0  0  0  0  0  0  0  0  0
   -4.7230    1.4300    1.9440 N   0  0  0  0  0  0  0  0  0  0  0  0
   -5.7160    1.0620    1.0890 C   0  0  0  0  0  0  0  0  0  0  0  0
   -6.9740    1.5050    1.2650 N   0  0  0  0  0  0  0  0  0  0  0  0
   -7.9940    1.1720    0.4490 C   0  0  0  0  0  0  0  0  0  0  0  0
   -7.7530    0.3390   -0.6200 C   0  0  0  0  0  0  0  0  0  0  0  0
   -6.4780   -0.1360   -0.8340 C   0  0  0  0  0  0  0  0  0  0  0  0
   -5.4500    0.2190    0.0150 C   0  0  0  0  0  0  0  0  0  0  0  0
   -4.1550   -0.2100   -0.1280 C   0  0  0  0  0  0  0  0  0  0  0  0
  1  2  1  0
  2  3  2  3
  2 18  1  0
  3  4  1  0
  4  5  2  0
  4 17  1  0
  5  6  1  0
  6  7  2  0
  7  8  1  0
  8  9  1  0
  8 17  2  0
  9 10  1  0
  9 13  2  0
 10 11  2  0
 11 12  1  0
 12 13  1  0
 12 16  1  0
 13 14  1  0
 14 15  1  0
 15 16  1  0
 18 19  2  0
 18 27  1  0
 19 20  1  0
 20 21  2  0
 21 22  1  0
 21 26  1  0
 22 23  2  0
 23 24  1  0
 24 25  2  0
 25 26  1  0
 26 27  2  0
M  END
