
     RDKit          3D

 27 31  0  0  0  0  0  0  0  0999 V2000
   -0.7750   -3.8590    0.7160 C   0  0  0  0  0  0  0  0  0  0  0  0
   -1.6910   -2.7030    0.6780 C   0  0  0  0  0  0  0  0  0  0  0  0
   -1.2540   -1.4790    0.0090 C   0  0  0  0  0  0  0  0  0  0  0  0
   -0.2060   -1.2940   -0.7160 C   0  0  0  0  0  0  0  0  0  0  0  0
    0.8580   -2.1700   -1.1220 C   0  0  0  0  0  0  0  0  0  0  0  0
    0.8720   -3.3800   -1.6790 N   0  0  0  0  0  0  0  0  0  0  0  0
    2.1230   -3.8100   -1.8750 C   0  0  0  0  0  0  0  0  0  0  0  0
    2.9620   -2.8440   -1.4280 C   0  0  0  0  0  0  0  0  0  0  0  0
    2.1760   -1.8350   -0.9650 N   0  0  0  0  0  0  0  0  0  0  0  0
    2.7290   -0.6570   -0.4090 C   0  0  0  0  0  0  0  0  0  0  0  0
    3.2090   -0.6780    0.8730 C   0  0  0  0  0  0  0  0  0  0  0  0
    3.7680    0.4470    1.4520 C   0  0  0  0  0  0  0  0  0  0  0  0
    3.8380    1.6140    0.7070 C   0  0  0  0  0  0  0  0  0  0  0  0
    4.3170    2.8460    0.9850 N   0  0  0  0  0  0  0  0  0  0  0  0
    4.1530    3.6420   -0.0840 C   0  0  0  0  0  0  0  0  0  0  0  0
    3.5600    2.8880   -1.0430 N   0  0  0  0  0  0  0  0  0  0  0  0
    3.3550    1.6240   -0.5760 C   0  0  0  0  0  0  0  0  0  0  0  0
    2.7890    0.4840   -1.1580 C   0  0  0  0  0  0  0  0  0  0  0  0
   -2.1750   -0.3070    0.2030 C   0  0  0  0  0  0  0  0  0  0  0  0
   -2.0310    0.9180   -0.3330 N   0  0  0  0  0  0  0  0  0  0  0  0
   -3.0680    1.6810    0.0920 C   0  0  0  0  0  0  0  0  0  0  0  0
   -3.8500    0.9190    0.8950 N   0  0  0  0  0  0  0  0  0  0  0  0
   -3.2910   -0.2720    0.9440 N   0  0  0  0  0  0  0  0  0  0  0  0
   -5.0310    1.4320    1.4960 C   0  0  0  0  0  0  0  0  0  0  0  0
   -5.3480    2.6480    1.2620 N   0  0  0  0  0  0  0  0  0  0  0  0
   -4.6340    3.5620    0.4450 C   0  0  0  0  0  0  0  0  0  0  0  0
   -3.3850    3.0780   -0.1950 C   0  0  0  0  0  0  0  0  0  0  0  0
  1  2  1  0
  2  3  1  0
  3  4  2  3
  3 19  1  0
  4  5  1  0
  5  6  2  0
  5  9  1  0
  6  7  1  0
  7  8  2  0
  8  9  1  0
  9 10  1  0
 10 11  2  0
 10 18  1  0
 11 12  1  0
 12 13  2  0
 13 14  1  0
 13 17  1  0
 14 15  2  0
 15 16  1  0
 16 17  1  0
 17 18  2  0
 19 20  1  0
 19 23  2  0
 20 21  2  0
 21 22  1  0
 21 27  1  0
 22 23  1  0
 22 24  1  0
 24 25  2  0
 25 26  1  0
 26 27  1  0
M  END
