
     RDKit          3D

 27 31  0  0  0  0  0  0  0  0999 V2000
    3.9150    2.9140   -1.6390 C   0  0  0  0  0  0  0  0  0  0  0  0
    3.8350    1.5770   -0.9780 C   0  0  0  0  0  0  0  0  0  0  0  0
    2.6910    1.0060   -0.5600 C   0  0  0  0  0  0  0  0  0  0  0  0
    3.0250   -0.2690    0.0200 C   0  0  0  0  0  0  0  0  0  0  0  0
    2.3150   -1.2320    0.5760 C   0  0  0  0  0  0  0  0  0  0  0  0
    2.9690   -2.4190    1.0730 N   0  0  0  0  0  0  0  0  0  0  0  0
    2.3490   -3.3930    1.6240 C   0  0  0  0  0  0  0  0  0  0  0  0
    0.9060   -3.3850    1.7970 C   0  0  0  0  0  0  0  0  0  0  0  0
    0.2490   -2.3330    1.3660 C   0  0  0  0  0  0  0  0  0  0  0  0
    0.9150   -1.2070    0.7360 N   0  0  0  0  0  0  0  0  0  0  0  0
    0.1270   -0.1120    0.3000 C   0  0  0  0  0  0  0  0  0  0  0  0
   -0.5430   -0.1390   -0.7950 N   0  0  0  0  0  0  0  0  0  0  0  0
   -1.3170    0.9700   -1.2000 C   0  0  0  0  0  0  0  0  0  0  0  0
   -0.9690    2.0420   -1.9190 N   0  0  0  0  0  0  0  0  0  0  0  0
   -2.0290    2.8220   -2.0490 N   0  0  0  0  0  0  0  0  0  0  0  0
   -3.0840    2.2750   -1.4200 C   0  0  0  0  0  0  0  0  0  0  0  0
   -4.3850    2.4490   -1.1310 N   0  0  0  0  0  0  0  0  0  0  0  0
   -4.7500    1.3780   -0.4080 C   0  0  0  0  0  0  0  0  0  0  0  0
   -5.9690    1.0290    0.1560 C   0  0  0  0  0  0  0  0  0  0  0  0
   -6.0570   -0.1530    0.8600 C   0  0  0  0  0  0  0  0  0  0  0  0
   -4.9660   -0.9780    1.0080 C   0  0  0  0  0  0  0  0  0  0  0  0
   -3.7530   -0.6410    0.4520 C   0  0  0  0  0  0  0  0  0  0  0  0
   -3.6660    0.5420   -0.2520 C   0  0  0  0  0  0  0  0  0  0  0  0
   -2.6310    1.1260   -0.8970 N   0  0  0  0  0  0  0  0  0  0  0  0
    4.5030   -0.3390   -0.1280 C   0  0  0  0  0  0  0  0  0  0  0  0
    5.3560   -1.4830    0.3250 C   0  0  0  0  0  0  0  0  0  0  0  0
    4.9240    0.7190   -0.6940 N   0  0  0  0  0  0  0  0  0  0  0  0
  1  2  1  0
  2  3  2  0
  2 27  1  0
  3  4  1  0
  4  5  2  3
  4 25  1  0
  5  6  1  0
  5 10  1  0
  6  7  2  0
  7  8  1  0
  8  9  2  0
  9 10  1  0
 10 11  1  0
 11 12  2  3
 12 13  1  0
 13 14  2  0
 13 24  1  0
 14 15  1  0
 15 16  2  0
 16 17  1  0
 16 24  1  0
 17 18  1  0
 18 19  2  0
 18 23  1  0
 19 20  1  0
 20 21  2  0
 21 22  1  0
 22 23  2  0
 23 24  1  0
 25 26  1  0
 25 27  2  0
M  END
