
     RDKit          3D

 27 31  0  0  0  0  0  0  0  0999 V2000
   -3.7030    4.0840   -2.0370 C   0  0  0  0  0  0  0  0  0  0  0  0
   -4.4340    3.0390   -1.2410 C   0  0  0  0  0  0  0  0  0  0  0  0
   -3.8850    1.6810   -1.4770 C   0  0  0  0  0  0  0  0  0  0  0  0
   -4.4200    0.6800   -2.2400 C   0  0  0  0  0  0  0  0  0  0  0  0
   -3.6110   -0.3850   -2.1890 N   0  0  0  0  0  0  0  0  0  0  0  0
   -2.5220   -0.1320   -1.3990 C   0  0  0  0  0  0  0  0  0  0  0  0
   -1.4640   -1.1050   -1.1340 C   0  0  0  0  0  0  0  0  0  0  0  0
   -1.5620   -2.3950   -1.6470 C   0  0  0  0  0  0  0  0  0  0  0  0
   -0.6200   -3.3720   -1.4570 C   0  0  0  0  0  0  0  0  0  0  0  0
    0.4940   -3.0560   -0.7120 C   0  0  0  0  0  0  0  0  0  0  0  0
    0.6640   -1.8000   -0.1720 C   0  0  0  0  0  0  0  0  0  0  0  0
    1.8370   -1.4470    0.6270 C   0  0  0  0  0  0  0  0  0  0  0  0
    2.1240   -0.3170    1.1680 N   0  0  0  0  0  0  0  0  0  0  0  0
    3.3320   -0.3760    1.8490 N   0  0  0  0  0  0  0  0  0  0  0  0
    3.8580   -1.6020    1.7490 C   0  0  0  0  0  0  0  0  0  0  0  0
    5.0370   -1.6070    2.4290 N   0  0  0  0  0  0  0  0  0  0  0  0
    5.2060   -0.3770    2.9320 C   0  0  0  0  0  0  0  0  0  0  0  0
    6.1730    0.2110    3.6830 N   0  0  0  0  0  0  0  0  0  0  0  0
    6.1200    1.4940    4.0740 C   0  0  0  0  0  0  0  0  0  0  0  0
    5.0720    2.2530    3.7180 N   0  0  0  0  0  0  0  0  0  0  0  0
    4.1120    1.7130    2.9870 N   0  0  0  0  0  0  0  0  0  0  0  0
    4.1410    0.4260    2.5810 C   0  0  0  0  0  0  0  0  0  0  0  0
    2.9140   -2.4090    0.9390 C   0  0  0  0  0  0  0  0  0  0  0  0
   -0.3400   -0.8390   -0.4020 C   0  0  0  0  0  0  0  0  0  0  0  0
   -2.7020    1.1420   -0.9660 C   0  0  0  0  0  0  0  0  0  0  0  0
   -1.8420    1.9010   -0.0910 C   0  0  0  0  0  0  0  0  0  0  0  0
   -1.1710    2.4780    0.6030 N   0  0  0  0  0  0  0  0  0  0  0  0
  1  2  1  0
  2  3  1  0
  3  4  2  0
  3 25  1  0
  4  5  1  0
  5  6  1  0
  6  7  1  0
  6 25  2  0
  7  8  2  0
  7 24  1  0
  8  9  1  0
  9 10  2  0
 10 11  1  0
 11 12  1  0
 11 24  2  0
 12 13  2  0
 12 23  1  0
 13 14  1  0
 14 15  1  0
 14 22  1  0
 15 16  2  0
 15 23  1  0
 16 17  1  0
 17 18  2  0
 17 22  1  0
 18 19  1  0
 19 20  2  0
 20 21  1  0
 21 22  2  0
 25 26  1  0
 26 27  3  0
M  END
