
     RDKit          3D

 27 31  0  0  0  0  0  0  0  0999 V2000
    0.3610   -0.1270   -0.1570 C   0  0  0  0  0  0  0  0  0  0  0  0
    1.6790   -0.2140    0.0280 C   0  0  0  0  0  0  0  0  0  0  0  0
    2.3050    0.4680    1.0960 N   0  0  0  0  0  0  0  0  0  0  0  0
    1.6230    1.2650    1.9590 C   0  0  0  0  0  0  0  0  0  0  0  0
    2.5240    1.7850    2.8500 C   0  0  0  0  0  0  0  0  0  0  0  0
    3.7050    1.2860    2.4950 N   0  0  0  0  0  0  0  0  0  0  0  0
    3.5940    0.4640    1.4080 C   0  0  0  0  0  0  0  0  0  0  0  0
    4.7600   -0.1990    0.8090 C   0  0  0  0  0  0  0  0  0  0  0  0
    4.8620   -1.1530   -0.1590 C   0  0  0  0  0  0  0  0  0  0  0  0
    6.2320   -1.3980   -0.3740 C   0  0  0  0  0  0  0  0  0  0  0  0
    6.9500   -0.6220    0.4350 N   0  0  0  0  0  0  0  0  0  0  0  0
    6.0850    0.1000    1.1480 C   0  0  0  0  0  0  0  0  0  0  0  0
   -0.3330   -0.8080   -1.2400 C   0  0  0  0  0  0  0  0  0  0  0  0
    0.2610   -1.6000   -2.1730 C   0  0  0  0  0  0  0  0  0  0  0  0
   -0.4340   -2.2170   -3.1700 N   0  0  0  0  0  0  0  0  0  0  0  0
   -1.7590   -2.0780   -3.2920 C   0  0  0  0  0  0  0  0  0  0  0  0
   -2.3980   -1.2650   -2.3410 C   0  0  0  0  0  0  0  0  0  0  0  0
   -1.7130   -0.6410   -1.3360 C   0  0  0  0  0  0  0  0  0  0  0  0
   -2.3700    0.1790   -0.3800 N   0  0  0  0  0  0  0  0  0  0  0  0
   -3.6400    0.3510   -0.4440 C   0  0  0  0  0  0  0  0  0  0  0  0
   -4.2680    1.1850    0.5380 N   0  0  0  0  0  0  0  0  0  0  0  0
   -4.3980    0.8920    1.8430 C   0  0  0  0  0  0  0  0  0  0  0  0
   -5.0570    1.9320    2.4810 C   0  0  0  0  0  0  0  0  0  0  0  0
   -5.3130    2.8560    1.5010 C   0  0  0  0  0  0  0  0  0  0  0  0
   -4.8190    2.3580    0.3570 N   0  0  0  0  0  0  0  0  0  0  0  0
   -4.4070   -0.2610   -1.4510 N   0  0  0  0  0  0  0  0  0  0  0  0
   -3.8470   -1.1110   -2.4710 C   0  0  0  0  0  0  0  0  0  0  0  0
  1  2  2  3
  1 13  1  0
  2  3  1  0
  3  4  1  0
  3  7  1  0
  4  5  2  0
  5  6  1  0
  6  7  2  0
  7  8  1  0
  8  9  1  0
  8 12  2  0
  9 10  2  0
 10 11  1  0
 11 12  1  0
 13 14  2  0
 13 18  1  0
 14 15  1  0
 15 16  2  0
 16 17  1  0
 17 18  2  0
 17 27  1  0
 18 19  1  0
 19 20  2  0
 20 21  1  0
 20 26  1  0
 21 22  1  0
 21 25  1  0
 22 23  2  0
 23 24  1  0
 24 25  2  0
 26 27  1  0
M  END
