
     RDKit          3D

 24 25  0  0  0  0  0  0  0  0999 V2000
   -1.4680    4.1100    0.2030 C   0  0  0  0  0  0  0  0  0  0  0  0
   -1.7220    2.7360   -0.3380 C   0  0  0  0  0  0  0  0  0  0  0  0
   -2.2760    2.5540   -1.4590 O   0  0  0  0  0  0  0  0  0  0  0  0
   -1.3390    1.5930    0.4120 N   0  0  0  0  0  0  0  0  0  0  0  0
   -1.5520    0.2610   -0.0460 C   0  0  1  0  0  0  0  0  0  0  0  0
   -0.2600   -0.4990   -0.2900 C   0  0  2  0  0  0  0  0  0  0  0  0
    0.7130    0.2660   -0.9100 O   0  0  0  0  0  0  0  0  0  0  0  0
    1.9870    0.5460   -0.5150 C   0  0  0  0  0  0  0  0  0  0  0  0
    2.5040    0.0550    0.6580 C   0  0  0  0  0  0  0  0  0  0  0  0
    3.8130    0.3660    1.0250 C   0  0  0  0  0  0  0  0  0  0  0  0
    4.6020    1.1580    0.2350 C   0  0  0  0  0  0  0  0  0  0  0  0
    5.9570    1.4790    0.6170 N   0  0  0  0  0  0  0  0  0  0  0  0
    6.4580    1.0610    1.6560 O   0  0  0  0  0  0  0  0  0  0  0  0
    6.7170    2.2770   -0.2030 O   0  0  0  0  0  0  0  0  0  0  0  0
    4.0930    1.6530   -0.9380 C   0  0  0  0  0  0  0  0  0  0  0  0
    2.7950    1.3400   -1.2970 C   0  0  0  0  0  0  0  0  0  0  0  0
   -0.6390   -1.6200   -1.0680 O   0  0  0  0  0  0  0  0  0  0  0  0
   -1.2590   -2.4990   -0.2230 C   0  0  2  0  0  0  0  0  0  0  0  0
   -1.6320   -3.7800   -0.9650 C   0  0  0  0  0  0  0  0  0  0  0  0
   -2.2600   -4.6840   -0.1290 O   0  0  0  0  0  0  0  0  0  0  0  0
   -2.4770   -1.9820    0.4510 C   0  0  1  0  0  0  0  0  0  0  0  0
   -2.6800   -2.7630    1.6120 O   0  0  0  0  0  0  0  0  0  0  0  0
   -2.4500   -0.5500    0.8290 C   0  0  2  0  0  0  0  0  0  0  0  0
   -3.7580   -0.0400    0.6630 O   0  0  0  0  0  0  0  0  0  0  0  0
  1  2  1  0
  2  3  2  0
  2  4  1  0
  5  4  1  1
  5  6  1  0
  5 23  1  0
  6  7  1  6
  6 17  1  0
  7  8  1  0
  8  9  2  0
  8 16  1  0
  9 10  1  0
 10 11  2  0
 11 12  1  0
 11 15  1  0
 12 13  2  0
 12 14  1  0
 15 16  2  0
 17 18  1  0
 18 19  1  6
 18 21  1  0
 19 20  1  0
 21 22  1  1
 21 23  1  0
 23 24  1  6
M  CHG  2  12   1  14  -1
M  END
