
     RDKit          3D

 20 20  0  0  0  0  0  0  0  0999 V2000
   -2.5700   -0.4610    1.3290 C   0  0  0  0  0  0  0  0  0  0  0  0
   -2.5560   -1.5040    0.2950 C   0  0  0  0  0  0  0  0  0  0  0  0
   -3.8680   -2.1120    0.1270 O   0  0  0  0  0  0  0  0  0  0  0  0
   -1.5940   -1.9220   -0.4330 C   0  0  0  0  0  0  0  0  0  0  0  0
   -1.8620   -3.0450   -1.4540 C   0  0  0  0  0  0  0  0  0  0  0  0
   -3.1690   -3.5180   -1.5130 N   0  0  0  0  0  0  0  0  0  0  0  0
   -0.2530   -1.5430   -0.5100 N   0  0  0  0  0  0  0  0  0  0  0  0
    0.5050   -0.5900    0.1660 C   0  0  0  0  0  0  0  0  0  0  0  0
   -0.0200    0.0990    1.0170 O   0  0  0  0  0  0  0  0  0  0  0  0
    1.9700   -0.4500   -0.1930 C   0  0  0  0  0  0  0  0  0  0  0  0
    2.6840    0.4580    0.5460 O   0  0  0  0  0  0  0  0  0  0  0  0
    2.4360    1.7920    0.6500 C   0  0  0  0  0  0  0  0  0  0  0  0
    1.7500    2.2460    1.7200 C   0  0  0  0  0  0  0  0  0  0  0  0
    1.4520    3.6660    1.8790 C   0  0  0  0  0  0  0  0  0  0  0  0
    0.5560    4.2350    3.2690 Cl  0  0  0  0  0  0  0  0  0  0  0  0
    1.8660    4.4890    0.9600 C   0  0  0  0  0  0  0  0  0  0  0  0
    2.5760    4.1120   -0.1640 O   0  0  0  0  0  0  0  0  0  0  0  0
    2.8780    2.7430   -0.3400 C   0  0  0  0  0  0  0  0  0  0  0  0
    3.5590    2.3990   -1.3950 C   0  0  0  0  0  0  0  0  0  0  0  0
    3.9850    1.1480   -1.7740 O   0  0  0  0  0  0  0  0  0  0  0  0
  1  2  1  0
  2  3  1  0
  2  4  2  3
  4  5  1  0
  4  7  1  0
  5  6  1  0
  7  8  1  0
  8  9  2  0
  8 10  1  0
 10 11  1  0
 11 12  1  0
 12 13  2  0
 12 18  1  0
 13 14  1  0
 14 15  1  0
 14 16  2  0
 16 17  1  0
 17 18  1  0
 18 19  2  3
 19 20  1  0
M  CHG  1   6   1
M  END
