
     RDKit          3D

 20 20  0  0  0  0  0  0  0  0999 V2000
    3.3830    1.6810   -1.7020 O   0  0  0  0  0  0  0  0  0  0  0  0
    2.3840    1.1820   -1.1270 C   0  0  0  0  0  0  0  0  0  0  0  0
    1.2250    2.0420   -0.7770 C   0  0  0  0  0  0  0  0  0  0  0  0
    0.2150    1.2450   -0.1310 N   0  0  0  0  0  0  0  0  0  0  0  0
   -0.8820    0.8930   -1.0130 C   0  0  1  0  0  0  0  0  0  0  0  0
   -1.1540   -0.5950   -0.7930 C   0  0  0  0  0  0  0  0  0  0  0  0
   -1.7470   -0.6850    0.6170 C   0  0  0  0  0  0  0  0  0  0  0  0
   -3.2160   -0.4100    0.4860 C   0  0  1  0  0  0  0  0  0  0  0  0
   -3.8990   -1.6870    0.0470 C   0  0  0  0  0  0  0  0  0  0  0  0
   -3.8280   -2.6640    1.0210 O   0  0  0  0  0  0  0  0  0  0  0  0
   -3.8200    0.1170    1.6750 N   0  0  0  0  0  0  0  0  0  0  0  0
   -4.3860    1.2460    1.6300 O   0  0  0  0  0  0  0  0  0  0  0  0
   -3.8300   -0.5310    2.8930 O   0  0  0  0  0  0  0  0  0  0  0  0
   -3.3400    0.6440   -0.6170 C   0  0  0  0  0  0  0  0  0  0  0  0
   -2.1640    1.5980   -0.6100 C   0  0  0  0  0  0  0  0  0  0  0  0
    2.4020   -0.1660   -0.8370 O   0  0  0  0  0  0  0  0  0  0  0  0
    3.4540   -1.0490   -1.1310 C   0  0  0  0  0  0  0  0  0  0  0  0
    4.7220   -0.6260   -0.4440 C   0  0  0  0  0  0  0  0  0  0  0  0
    4.4380   -0.6320    1.0620 C   0  0  0  0  0  0  0  0  0  0  0  0
    5.5870   -0.2440    1.7740 O   0  0  0  0  0  0  0  0  0  0  0  0
  1  2  2  0
  2  3  1  0
  2 16  1  0
  3  4  1  0
  5  4  1  1
  5  6  1  0
  5 15  1  0
  6  7  1  0
  7  8  1  0
  8  9  1  6
  8 11  1  0
  8 14  1  0
  9 10  1  0
 11 12  2  0
 11 13  1  0
 14 15  1  0
 16 17  1  0
 17 18  1  0
 18 19  1  0
 19 20  1  0
M  CHG  3   4   1  11   1  13  -1
M  END
