
     RDKit          3D

 22 23  0  0  0  0  0  0  0  0999 V2000
    5.5740    1.0050   -1.5280 C   0  0  0  0  0  0  0  0  0  0  0  0
    4.6050    0.2190   -0.7630 N   0  0  0  0  0  0  0  0  0  0  0  0
    5.0440   -0.6020    0.3000 C   0  0  0  0  0  0  0  0  0  0  0  0
    6.3000   -0.6080    0.5220 O   0  0  0  0  0  0  0  0  0  0  0  0
    4.1490   -1.4120    1.1160 C   0  0  0  0  0  0  0  0  0  0  0  0
    2.7460   -1.2910    0.8120 N   0  0  0  0  0  0  0  0  0  0  0  0
    2.0170   -0.0870    0.9510 C   0  0  0  0  0  0  0  0  0  0  0  0
    2.5870    0.9410    1.3650 O   0  0  0  0  0  0  0  0  0  0  0  0
    0.6010    0.0130    0.6270 C   0  0  0  0  0  0  0  0  0  0  0  0
   -0.2670   -0.9110    0.1660 C   0  0  0  0  0  0  0  0  0  0  0  0
   -1.5510   -0.5780   -0.0640 C   0  0  0  0  0  0  0  0  0  0  0  0
   -1.9230    0.7050    0.1840 C   0  0  0  0  0  0  0  0  0  0  0  0
   -0.3940    1.4500    0.7620 S   0  0  0  0  0  0  0  0  0  0  0  0
   -3.2720    1.2830   -0.0150 C   0  0  0  0  0  0  0  0  0  0  0  0
   -3.5190    2.5270    0.2580 C   0  0  0  0  0  0  0  0  0  0  0  0
   -4.7140    3.0890    0.0910 F   0  0  0  0  0  0  0  0  0  0  0  0
   -2.5010    3.2750    0.7390 F   0  0  0  0  0  0  0  0  0  0  0  0
   -4.2540    0.3370   -0.5290 C   0  0  0  0  0  0  0  0  0  0  0  0
   -5.4940    0.3860   -0.2320 C   0  0  0  0  0  0  0  0  0  0  0  0
   -6.1720    1.2560    0.5760 O   0  0  0  0  0  0  0  0  0  0  0  0
   -3.6110   -0.7220   -1.4000 C   0  0  0  0  0  0  0  0  0  0  0  0
   -2.6500   -1.5230   -0.5760 C   0  0  0  0  0  0  0  0  0  0  0  0
  1  2  1  0
  2  3  1  0
  3  4  2  0
  3  5  1  0
  5  6  1  0
  6  7  1  0
  7  8  2  0
  7  9  1  0
  9 10  2  0
  9 13  1  0
 10 11  1  0
 11 12  2  0
 11 22  1  0
 12 13  1  0
 12 14  1  0
 14 15  2  3
 14 18  1  0
 15 16  1  0
 15 17  1  0
 18 19  2  3
 18 21  1  0
 19 20  1  0
 21 22  1  0
M  END
