
     RDKit          3D

  9  9  0  0  0  0  0  0  0  0999 V2000
    2.6280   -0.9490   -0.5000 O   0  0  0  0  0  0  0  0  0  0  0  0
    1.9170    0.0400   -0.1830 C   0  0  0  0  0  0  0  0  0  0  0  0
    2.5700    1.2490    0.0020 O   0  0  0  0  0  0  0  0  0  0  0  0
    0.4630   -0.0880   -0.0190 C   0  0  0  0  0  0  0  0  0  0  0  0
   -0.1870   -1.2820   -0.2010 C   0  0  0  0  0  0  0  0  0  0  0  0
   -1.5410   -1.3580   -0.0390 N   0  0  0  0  0  0  0  0  0  0  0  0
   -2.2600   -0.2740    0.3000 C   0  0  0  0  0  0  0  0  0  0  0  0
   -1.6040    0.9120    0.4800 C   0  0  0  0  0  0  0  0  0  0  0  0
   -0.2740    0.9840    0.3190 N   0  0  0  0  0  0  0  0  0  0  0  0
  1  2  2  0
  2  3  1  0
  2  4  1  0
  4  5  2  0
  4  9  1  0
  5  6  1  0
  6  7  2  0
  7  8  1  0
  8  9  2  0
M  END
