
     RDKit          3D

 21 21  0  0  0  0  0  0  0  0999 V2000
    2.3340    1.2390   -2.6740 C   0  0  0  0  0  0  0  0  0  0  0  0
    2.5090   -0.0080   -2.0940 O   0  0  0  0  0  0  0  0  0  0  0  0
    2.6210   -0.3790   -0.7860 C   0  0  0  0  0  0  0  0  0  0  0  0
    3.9200   -0.3080   -0.2290 C   0  0  0  0  0  0  0  0  0  0  0  0
    4.9930    0.1450   -1.0500 N   0  0  0  0  0  0  0  0  0  0  0  0
    5.0180   -0.0660   -2.2580 O   0  0  0  0  0  0  0  0  0  0  0  0
    6.0620    0.8440   -0.5040 O   0  0  0  0  0  0  0  0  0  0  0  0
    4.1740   -0.6630    1.0740 C   0  0  0  0  0  0  0  0  0  0  0  0
    3.1390   -1.1030    1.8660 C   0  0  0  0  0  0  0  0  0  0  0  0
    3.3450   -1.4770    3.1950 O   0  0  0  0  0  0  0  0  0  0  0  0
    1.8930   -1.1710    1.3290 C   0  0  0  0  0  0  0  0  0  0  0  0
    0.5940   -1.7390    2.3620 Cl  0  0  0  0  0  0  0  0  0  0  0  0
    1.5800   -0.8160   -0.0040 C   0  0  0  0  0  0  0  0  0  0  0  0
    0.3180   -0.9030   -0.4690 O   0  0  0  0  0  0  0  0  0  0  0  0
   -0.7640   -0.0130   -0.2700 C   0  0  1  0  0  0  0  0  0  0  0  0
   -0.8630    0.9670   -1.4050 C   0  0  0  0  0  0  0  0  0  0  0  0
   -1.9080    1.8870   -1.2830 O   0  0  0  0  0  0  0  0  0  0  0  0
   -2.0100   -0.8200   -0.0500 C   0  0  0  0  0  0  0  0  0  0  0  0
   -3.1850    0.0490    0.1710 C   0  0  0  0  0  0  0  0  0  0  0  0
   -4.4510   -0.7710    0.4750 C   0  0  0  0  0  0  0  0  0  0  0  0
   -5.5040    0.2120    0.6650 N   0  0  0  0  0  0  0  0  0  0  0  0
  1  2  1  0
  2  3  1  0
  3  4  2  0
  3 13  1  0
  4  5  1  0
  4  8  1  0
  5  6  2  0
  5  7  1  0
  8  9  2  0
  9 10  1  0
  9 11  1  0
 11 12  1  0
 11 13  2  0
 13 14  1  0
 14 15  1  0
 15 16  1  6
 15 18  1  0
 16 17  1  0
 18 19  1  0
 19 20  1  0
 20 21  1  0
M  CHG  3   5   1   7  -1  21   1
M  END
