
     RDKit          3D

 22 23  0  0  0  0  0  0  0  0999 V2000
    3.9990   -2.1400    0.0580 O   0  0  0  0  0  0  0  0  0  0  0  0
    3.5510   -0.9750    0.0150 C   0  0  0  0  0  0  0  0  0  0  0  0
    4.4410    0.1230    0.0120 N   0  0  0  0  0  0  0  0  0  0  0  0
    5.8870   -0.0910    0.0590 C   0  0  0  0  0  0  0  0  0  0  0  0
    6.6100    1.2290    0.0450 C   0  0  0  0  0  0  0  0  0  0  0  0
    7.9700    1.0640    0.0880 O   0  0  0  0  0  0  0  0  0  0  0  0
    2.1190   -0.6900   -0.0330 C   0  0  0  0  0  0  0  0  0  0  0  0
    1.4660    0.5300   -0.0830 C   0  0  0  0  0  0  0  0  0  0  0  0
    0.1250    0.5020   -0.1210 C   0  0  0  0  0  0  0  0  0  0  0  0
   -0.5230   -0.6720   -0.1090 C   0  0  0  0  0  0  0  0  0  0  0  0
   -1.9480   -0.9870   -0.1410 C   0  0  0  0  0  0  0  0  0  0  0  0
   -2.2910   -2.1800   -0.1200 O   0  0  0  0  0  0  0  0  0  0  0  0
   -2.9180    0.0300   -0.1950 N   0  0  0  0  0  0  0  0  0  0  0  0
   -4.3250   -0.1430   -0.2310 C   0  0  0  0  0  0  0  0  0  0  0  0
   -4.9900   -1.3270   -0.2190 C   0  0  0  0  0  0  0  0  0  0  0  0
   -6.3880   -1.3330   -0.2590 C   0  0  0  0  0  0  0  0  0  0  0  0
   -7.1250   -0.1810   -0.3090 C   0  0  0  0  0  0  0  0  0  0  0  0
   -8.4850   -0.1820   -0.3480 F   0  0  0  0  0  0  0  0  0  0  0  0
   -6.4490    1.0040   -0.3200 C   0  0  0  0  0  0  0  0  0  0  0  0
   -5.0780    1.0400   -0.2820 C   0  0  0  0  0  0  0  0  0  0  0  0
   -4.4990    2.2680   -0.2970 F   0  0  0  0  0  0  0  0  0  0  0  0
    0.8010   -1.8410   -0.0410 S   0  0  0  0  0  0  0  0  0  0  0  0
  1  2  2  0
  2  3  1  0
  2  7  1  0
  3  4  1  0
  4  5  1  0
  5  6  1  0
  7  8  2  0
  7 22  1  0
  8  9  1  0
  9 10  2  0
 10 11  1  0
 10 22  1  0
 11 12  2  0
 11 13  1  0
 13 14  1  0
 14 15  2  0
 14 20  1  0
 15 16  1  0
 16 17  2  0
 17 18  1  0
 17 19  1  0
 19 20  2  0
 20 21  1  0
M  END
