
     RDKit          3D

 21 22  0  0  0  0  0  0  0  0999 V2000
    6.2740   -0.7720   -0.8770 C   0  0  0  0  0  0  0  0  0  0  0  0
    5.1230   -1.4880   -0.4610 O   0  0  0  0  0  0  0  0  0  0  0  0
    3.8490   -0.8580   -0.4300 C   0  0  0  0  0  0  0  0  0  0  0  0
    3.7720    0.3200   -0.7760 O   0  0  0  0  0  0  0  0  0  0  0  0
    2.7200   -1.6580    0.0170 C   0  0  0  0  0  0  0  0  0  0  0  0
    1.7080   -0.9950    0.8660 C   0  0  0  0  0  0  0  0  0  0  0  0
    1.0230    0.1830    0.3320 C   0  0  0  0  0  0  0  0  0  0  0  0
   -0.2410   -0.0250   -0.0800 C   0  0  0  0  0  0  0  0  0  0  0  0
   -1.2220    0.9140   -0.6660 C   0  0  0  0  0  0  0  0  0  0  0  0
   -2.6340    0.4660   -0.6110 C   0  0  2  0  0  0  0  0  0  0  0  0
   -3.3940    1.5300   -1.1340 O   0  0  0  0  0  0  0  0  0  0  0  0
   -3.0260    0.2640    0.8340 C   0  0  0  0  0  0  0  0  0  0  0  0
   -4.4530   -0.2000    0.9800 C   0  0  0  0  0  0  0  0  0  0  0  0
   -4.5860   -1.4800    0.2680 N   0  0  0  0  0  0  0  0  0  0  0  0
   -0.9420    2.1030   -1.2160 C   0  0  0  0  0  0  0  0  0  0  0  0
   -2.3100    2.9830   -1.8230 Cl  0  0  0  0  0  0  0  0  0  0  0  0
    0.3800    2.7300   -1.3450 C   0  0  0  0  0  0  0  0  0  0  0  0
    0.4910    3.6220   -2.1890 O   0  0  0  0  0  0  0  0  0  0  0  0
    1.5500    2.4330   -0.6120 O   0  0  0  0  0  0  0  0  0  0  0  0
    1.6680    1.4450    0.3470 N   0  0  0  0  0  0  0  0  0  0  0  0
    2.4570    1.6840    1.4420 O   0  0  0  0  0  0  0  0  0  0  0  0
  1  2  1  0
  2  3  1  0
  3  4  2  0
  3  5  1  0
  5  6  1  0
  6  7  1  0
  7  8  2  0
  7 20  1  0
  8  9  1  0
  9 10  1  0
  9 15  2  0
 10 11  1  0
 10 12  1  1
 12 13  1  0
 13 14  1  0
 15 16  1  0
 15 17  1  0
 17 18  2  0
 17 19  1  0
 19 20  1  0
 20 21  1  0
 16 11  1  0
M  CHG  2  14   1  21  -1
M  END
