
     RDKit          3D

 27 29  0  0  0  0  0  0  0  0999 V2000
   -3.6010   -3.0210    0.7360 C   0  0  0  0  0  0  0  0  0  0  0  0
   -2.4750   -2.2010    0.5070 O   0  0  0  0  0  0  0  0  0  0  0  0
   -2.6480   -0.8900    0.0770 C   0  0  0  0  0  0  0  0  0  0  0  0
   -3.9250   -0.4090   -0.1220 C   0  0  0  0  0  0  0  0  0  0  0  0
   -4.1540    0.8830   -0.5490 C   0  0  0  0  0  0  0  0  0  0  0  0
   -5.5360    1.3490   -0.7450 C   0  0  0  0  0  0  0  0  0  0  0  0
   -5.9650    2.2460    0.3940 C   0  0  0  0  0  0  0  0  0  0  0  0
   -7.2890    2.6640    0.1620 O   0  0  0  0  0  0  0  0  0  0  0  0
   -3.0430    1.6540   -0.7620 C   0  0  0  0  0  0  0  0  0  0  0  0
   -3.2630    3.2980   -1.3020 Cl  0  0  0  0  0  0  0  0  0  0  0  0
   -1.7480    1.1900   -0.5680 C   0  0  0  0  0  0  0  0  0  0  0  0
   -1.5340   -0.0870   -0.1470 C   0  0  0  0  0  0  0  0  0  0  0  0
   -0.2780   -0.6380    0.0760 N   0  0  0  0  0  0  0  0  0  0  0  0
    0.9800   -0.0240   -0.0810 C   0  0  0  0  0  0  0  0  0  0  0  0
    1.0780    1.1440   -0.4590 O   0  0  0  0  0  0  0  0  0  0  0  0
    2.2030   -0.7760    0.2080 C   0  0  0  0  0  0  0  0  0  0  0  0
    2.2630   -2.0790    0.6370 C   0  0  0  0  0  0  0  0  0  0  0  0
    3.5980   -2.3580    0.7750 C   0  0  0  0  0  0  0  0  0  0  0  0
    4.3140   -1.2360    0.4320 C   0  0  0  0  0  0  0  0  0  0  0  0
    5.7670   -1.1110    0.4430 C   0  0  0  0  0  0  0  0  0  0  0  0
    6.4320   -2.1340    0.8030 O   0  0  0  0  0  0  0  0  0  0  0  0
    6.4510    0.1490    0.0520 C   0  0  0  0  0  0  0  0  0  0  0  0
    5.7820    1.2080   -0.3190 C   0  0  0  0  0  0  0  0  0  0  0  0
    7.0440    2.4420   -0.6850 S   0  0  0  0  0  0  0  0  0  0  0  0
    8.3890    1.1750   -0.7990 C   0  0  0  0  0  0  0  0  0  0  0  0
    7.8020    0.2350    0.0700 O   0  0  0  0  0  0  0  0  0  0  0  0
    3.4180   -0.3440    0.1090 O   0  0  0  0  0  0  0  0  0  0  0  0
  1  2  1  0
  2  3  1  0
  3  4  2  0
  3 12  1  0
  4  5  1  0
  5  6  1  0
  5  9  2  0
  6  7  1  0
  7  8  1  0
  9 10  1  0
  9 11  1  0
 11 12  2  0
 12 13  1  0
 13 14  1  0
 14 15  2  0
 14 16  1  0
 16 17  2  0
 16 27  1  0
 17 18  1  0
 18 19  2  0
 19 20  1  0
 19 27  1  0
 20 21  2  0
 20 22  1  0
 22 23  2  0
 22 26  1  0
 23 24  1  0
 24 25  1  0
 25 26  1  0
M  END
