
     RDKit          3D

 28 29  0  0  0  0  0  0  0  0999 V2000
   -0.8160   -0.4670   -1.4760 C   0  0  0  0  0  0  0  0  0  0  0  0
   -0.8230   -0.0560   -0.0760 O   0  0  0  0  0  0  0  0  0  0  0  0
   -0.8560   -1.1140    0.8350 C   0  0  0  0  0  0  0  0  0  0  0  0
    0.3270   -1.6940    1.4190 C   0  0  0  0  0  0  0  0  0  0  0  0
    1.5530   -1.3840    1.2970 C   0  0  0  0  0  0  0  0  0  0  0  0
    2.1940   -0.3480    0.5490 C   0  0  0  0  0  0  0  0  0  0  0  0
    1.6560    0.5240   -0.1540 O   0  0  0  0  0  0  0  0  0  0  0  0
    3.6200   -0.2340    0.5590 O   0  0  0  0  0  0  0  0  0  0  0  0
    4.1830    0.8100   -0.2010 C   0  0  0  0  0  0  0  0  0  0  0  0
    5.6400    0.7440   -0.0520 C   0  0  0  0  0  0  0  0  0  0  0  0
    6.4160    0.5700   -1.0960 C   0  0  0  0  0  0  0  0  0  0  0  0
    7.8820    0.5010   -0.9710 C   0  0  0  0  0  0  0  0  0  0  0  0
    8.3660    0.6340    0.3270 O   0  0  0  0  0  0  0  0  0  0  0  0
    7.5590    0.8160    1.4180 C   0  0  0  0  0  0  0  0  0  0  0  0
    6.2450    0.8720    1.2580 C   0  0  0  0  0  0  0  0  0  0  0  0
    5.4550    1.0550    2.3620 O   0  0  0  0  0  0  0  0  0  0  0  0
   -2.0290   -1.6080    1.1760 C   0  0  0  0  0  0  0  0  0  0  0  0
   -3.3700   -1.2590    0.7910 C   0  0  0  0  0  0  0  0  0  0  0  0
   -4.3240   -2.0080    1.2670 O   0  0  0  0  0  0  0  0  0  0  0  0
   -3.8090   -0.2200   -0.0220 N   0  0  0  0  0  0  0  0  0  0  0  0
   -5.1380    0.1110   -0.4100 C   0  0  0  0  0  0  0  0  0  0  0  0
   -6.2770   -0.5530   -0.0410 C   0  0  0  0  0  0  0  0  0  0  0  0
   -7.5570   -0.1980   -0.4410 C   0  0  0  0  0  0  0  0  0  0  0  0
   -8.9960   -1.1130    0.0810 S   0  0  0  0  0  0  0  0  0  0  0  0
   -7.7260    0.8890   -1.2630 C   0  0  0  0  0  0  0  0  0  0  0  0
   -6.6070    1.5950   -1.6650 C   0  0  0  0  0  0  0  0  0  0  0  0
   -5.3520    1.2160   -1.2500 C   0  0  0  0  0  0  0  0  0  0  0  0
   -3.9410    2.1140   -1.7630 Cl  0  0  0  0  0  0  0  0  0  0  0  0
  1  2  1  0
  2  3  1  0
  3  4  1  0
  3 17  2  3
  4  5  2  3
  5  6  1  0
  6  7  2  0
  6  8  1  0
  8  9  1  0
  9 10  1  0
 10 11  2  0
 10 15  1  0
 11 12  1  0
 12 13  1  0
 13 14  1  0
 14 15  2  0
 15 16  1  0
 17 18  1  0
 18 19  2  0
 18 20  1  0
 20 21  1  0
 21 22  2  0
 21 27  1  0
 22 23  1  0
 23 24  1  0
 23 25  2  0
 25 26  1  0
 26 27  2  0
 27 28  1  0
M  END
