
     RDKit          3D

 28 30  0  0  0  0  0  0  0  0999 V2000
   -5.8910   -2.1040   -0.9600 C   0  0  0  0  0  0  0  0  0  0  0  0
   -4.8270   -2.4710    0.0540 C   0  0  0  0  0  0  0  0  0  0  0  0
   -3.4640   -2.2700   -0.4780 C   0  0  0  0  0  0  0  0  0  0  0  0
   -2.6820   -1.1790   -0.1000 C   0  0  0  0  0  0  0  0  0  0  0  0
   -1.4120   -1.0040   -0.6060 C   0  0  0  0  0  0  0  0  0  0  0  0
   -0.4490   -0.0070   -0.3840 C   0  0  0  0  0  0  0  0  0  0  0  0
   -0.6870    1.1090    0.5170 C   0  0  0  0  0  0  0  0  0  0  0  0
   -1.2100    2.1950    0.0860 O   0  0  0  0  0  0  0  0  0  0  0  0
   -0.3860    1.0900    1.8530 O   0  0  0  0  0  0  0  0  0  0  0  0
   -0.6020    2.1090    2.7690 C   0  0  0  0  0  0  0  0  0  0  0  0
    0.0520    3.3890    2.4950 C   0  0  0  0  0  0  0  0  0  0  0  0
   -0.1170    4.3270    3.3150 O   0  0  0  0  0  0  0  0  0  0  0  0
    0.8430    3.6300    1.3940 O   0  0  0  0  0  0  0  0  0  0  0  0
    0.6490   -0.3070   -1.1380 C   0  0  0  0  0  0  0  0  0  0  0  0
    1.8800    0.4500   -1.2170 C   0  0  0  0  0  0  0  0  0  0  0  0
    2.7970    0.0380   -1.9620 O   0  0  0  0  0  0  0  0  0  0  0  0
    2.0980    1.6110   -0.5100 O   0  0  0  0  0  0  0  0  0  0  0  0
    3.2950    2.3510   -0.5830 C   0  0  0  0  0  0  0  0  0  0  0  0
    4.4320    1.5310   -0.1560 C   0  0  0  0  0  0  0  0  0  0  0  0
    4.6310    0.7250    0.9130 C   0  0  0  0  0  0  0  0  0  0  0  0
    5.7900    0.0780    1.0690 C   0  0  0  0  0  0  0  0  0  0  0  0
    6.7660    0.2660    0.1040 C   0  0  0  0  0  0  0  0  0  0  0  0
    5.9520    1.4140   -1.0450 S   0  0  0  0  0  0  0  0  0  0  0  0
    0.3780   -1.4630   -1.8150 N   0  0  0  0  0  0  0  0  0  0  0  0
   -0.8540   -1.8900   -1.5040 C   0  0  0  0  0  0  0  0  0  0  0  0
   -1.6280   -2.9770   -1.8830 C   0  0  0  0  0  0  0  0  0  0  0  0
   -2.9050   -3.1520   -1.3740 C   0  0  0  0  0  0  0  0  0  0  0  0
   -3.8810   -4.5350   -1.8600 Cl  0  0  0  0  0  0  0  0  0  0  0  0
  1  2  1  0
  2  3  1  0
  3  4  2  0
  3 27  1  0
  4  5  1  0
  5  6  1  0
  5 25  2  0
  6  7  1  0
  6 14  2  0
  7  8  2  0
  7  9  1  0
  9 10  1  0
 10 11  1  0
 11 12  2  0
 11 13  1  0
 14 15  1  0
 14 24  1  0
 15 16  2  0
 15 17  1  0
 17 18  1  0
 18 19  1  0
 19 20  2  0
 19 23  1  0
 20 21  1  0
 21 22  2  0
 22 23  1  0
 24 25  1  0
 25 26  1  0
 26 27  2  0
 27 28  1  0
M  END
