
     RDKit          3D

 28 30  0  0  0  0  0  0  0  0999 V2000
   -3.3030   -2.9590    1.5720 C   0  0  0  0  0  0  0  0  0  0  0  0
   -3.4170   -1.9950    0.4290 C   0  0  0  0  0  0  0  0  0  0  0  0
   -2.1240   -1.7510   -0.1370 O   0  0  0  0  0  0  0  0  0  0  0  0
   -2.0340   -0.8550   -1.2050 C   0  0  0  0  0  0  0  0  0  0  0  0
   -3.0870   -0.3250   -1.5910 O   0  0  0  0  0  0  0  0  0  0  0  0
   -0.7440   -0.5690   -1.8250 C   0  0  0  0  0  0  0  0  0  0  0  0
   -0.3790    0.8590   -2.0810 C   0  0  0  0  0  0  0  0  0  0  0  0
   -0.2660    1.6670   -0.7880 C   0  0  0  0  0  0  0  0  0  0  0  0
    0.8450    1.4690   -0.0440 C   0  0  0  0  0  0  0  0  0  0  0  0
    2.0730    0.7000   -0.2590 C   0  0  0  0  0  0  0  0  0  0  0  0
    2.9350    0.7500    0.6880 O   0  0  0  0  0  0  0  0  0  0  0  0
    2.4150   -0.0510   -1.3330 O   0  0  0  0  0  0  0  0  0  0  0  0
    3.6630   -0.7070   -1.3830 C   0  0  0  0  0  0  0  0  0  0  0  0
    3.8830   -1.6480   -0.2290 C   0  0  0  0  0  0  0  0  0  0  0  0
    4.8570   -1.5660    0.6620 C   0  0  0  0  0  0  0  0  0  0  0  0
    4.7450   -2.6590    1.6320 C   0  0  0  0  0  0  0  0  0  0  0  0
    3.5610   -3.4160    1.1920 C   0  0  0  0  0  0  0  0  0  0  0  0
    3.0830   -2.8130    0.1200 C   0  0  0  0  0  0  0  0  0  0  0  0
    1.6530   -3.4180   -0.7460 Cl  0  0  0  0  0  0  0  0  0  0  0  0
    0.6030    2.4970    1.4010 S   0  0  0  0  0  0  0  0  0  0  0  0
   -1.0100    3.1260    0.8680 C   0  0  0  0  0  0  0  0  0  0  0  0
   -1.2270    2.5230   -0.3280 C   0  0  0  0  0  0  0  0  0  0  0  0
   -2.4770    2.9510   -1.0070 C   0  0  0  0  0  0  0  0  0  0  0  0
   -2.8250    2.5000   -2.1230 O   0  0  0  0  0  0  0  0  0  0  0  0
   -3.3170    3.8970   -0.4060 N   0  0  0  0  0  0  0  0  0  0  0  0
   -3.0560    4.4960    0.8420 C   0  0  0  0  0  0  0  0  0  0  0  0
   -3.8610    5.3930    1.2760 O   0  0  0  0  0  0  0  0  0  0  0  0
   -1.8780    4.0830    1.6040 C   0  0  0  0  0  0  0  0  0  0  0  0
  1  2  1  0
  2  3  1  0
  3  4  1  0
  4  5  2  0
  4  6  1  0
  6  7  1  0
  7  8  1  0
  8  9  2  0
  8 22  1  0
  9 10  1  0
  9 20  1  0
 10 11  2  0
 10 12  1  0
 12 13  1  0
 13 14  1  0
 14 15  2  0
 14 18  1  0
 15 16  1  0
 16 17  1  0
 17 18  2  0
 18 19  1  0
 20 21  1  0
 21 22  2  0
 21 28  1  0
 22 23  1  0
 23 24  2  0
 23 25  1  0
 25 26  1  0
 26 27  2  0
 26 28  1  0
M  END
