
     RDKit          3D

  9  9  0  0  0  0  0  0  0  0999 V2000
    2.3810    1.8400   -0.1620 O   0  0  0  0  0  0  0  0  0  0  0  0
    1.9860    0.6580   -0.2020 C   0  0  0  0  0  0  0  0  0  0  0  0
    2.9510   -0.3260   -0.3700 O   0  0  0  0  0  0  0  0  0  0  0  0
    0.5660    0.3490   -0.0760 C   0  0  0  0  0  0  0  0  0  0  0  0
    0.0850   -0.9400   -0.1150 C   0  0  0  0  0  0  0  0  0  0  0  0
   -1.2830   -1.2100    0.0090 C   0  0  0  0  0  0  0  0  0  0  0  0
   -2.1580   -0.1540    0.1720 C   0  0  0  0  0  0  0  0  0  0  0  0
   -1.6400    1.1130    0.2050 C   0  0  0  0  0  0  0  0  0  0  0  0
   -0.3180    1.3490    0.0840 N   0  0  0  0  0  0  0  0  0  0  0  0
  1  2  2  0
  2  3  1  0
  2  4  1  0
  4  5  2  0
  4  9  1  0
  5  6  1  0
  6  7  2  0
  7  8  1  0
  8  9  2  0
M  END
