
     RDKit          3D

 28 30  0  0  0  0  0  0  0  0999 V2000
    6.7260   -1.0920   -1.8940 C   0  0  0  0  0  0  0  0  0  0  0  0
    6.1940    0.0990   -1.1980 C   0  0  0  0  0  0  0  0  0  0  0  0
    6.7510    1.1990   -1.3170 O   0  0  0  0  0  0  0  0  0  0  0  0
    5.0100   -0.0500   -0.3740 C   0  0  0  0  0  0  0  0  0  0  0  0
    4.3520   -1.2470   -0.1890 C   0  0  0  0  0  0  0  0  0  0  0  0
    3.2380   -1.3570    0.6060 C   0  0  0  0  0  0  0  0  0  0  0  0
    2.7560   -0.2390    1.2420 C   0  0  0  0  0  0  0  0  0  0  0  0
    1.6230   -0.2950    2.0810 O   0  0  0  0  0  0  0  0  0  0  0  0
    1.0780    0.8270    2.6730 C   0  0  0  0  0  0  0  0  0  0  0  0
    0.3180    1.7740    1.7680 C   0  0  0  0  0  0  0  0  0  0  0  0
   -0.7980    1.1970    1.2200 O   0  0  0  0  0  0  0  0  0  0  0  0
   -0.9560    0.1750    0.3740 C   0  0  0  0  0  0  0  0  0  0  0  0
   -0.0010   -0.4420   -0.0970 O   0  0  0  0  0  0  0  0  0  0  0  0
   -2.3460   -0.1980    0.0210 C   0  0  0  0  0  0  0  0  0  0  0  0
   -3.2900    0.7170   -0.3590 C   0  0  0  0  0  0  0  0  0  0  0  0
   -4.5980    0.2960   -0.6060 C   0  0  0  0  0  0  0  0  0  0  0  0
   -4.9700   -0.9970   -0.4850 C   0  0  0  0  0  0  0  0  0  0  0  0
   -4.0010   -1.9290   -0.1020 C   0  0  0  0  0  0  0  0  0  0  0  0
   -2.7070   -1.5220    0.1460 C   0  0  0  0  0  0  0  0  0  0  0  0
   -1.4890   -2.6900    0.6270 Cl  0  0  0  0  0  0  0  0  0  0  0  0
   -6.3160   -1.3980   -0.6790 N   0  0  0  0  0  0  0  0  0  0  0  0
   -7.3970   -0.5740   -1.0050 C   0  0  0  0  0  0  0  0  0  0  0  0
   -8.4980   -1.0650   -1.4430 O   0  0  0  0  0  0  0  0  0  0  0  0
   -7.4130    0.9180   -0.8910 C   0  0  0  0  0  0  0  0  0  0  0  0
   -5.7310    1.5700   -1.1140 S   0  0  0  0  0  0  0  0  0  0  0  0
    3.3750    0.9820    1.0930 C   0  0  0  0  0  0  0  0  0  0  0  0
    4.5140    1.0580    0.2720 C   0  0  0  0  0  0  0  0  0  0  0  0
    5.1620    2.2690    0.0990 O   0  0  0  0  0  0  0  0  0  0  0  0
  1  2  1  0
  2  3  2  0
  2  4  1  0
  4  5  2  0
  4 27  1  0
  5  6  1  0
  6  7  2  0
  7  8  1  0
  7 26  1  0
  8  9  1  0
  9 10  1  0
 10 11  1  0
 11 12  1  0
 12 13  2  0
 12 14  1  0
 14 15  2  0
 14 19  1  0
 15 16  1  0
 16 17  2  0
 16 25  1  0
 17 18  1  0
 17 21  1  0
 18 19  2  0
 19 20  1  0
 21 22  1  0
 22 23  2  0
 22 24  1  0
 24 25  1  0
 26 27  2  0
 27 28  1  0
M  END
