
     RDKit          3D

 27 28  0  0  0  0  0  0  0  0999 V2000
   -2.0260   -3.7440    0.8500 C   0  0  0  0  0  0  0  0  0  0  0  0
   -1.2750   -2.5430    0.8470 O   0  0  0  0  0  0  0  0  0  0  0  0
    0.0750   -2.5570    0.6850 C   0  0  0  0  0  0  0  0  0  0  0  0
    0.6920   -3.6300    0.5340 O   0  0  0  0  0  0  0  0  0  0  0  0
    0.8630   -1.2630    0.6840 C   0  0  0  0  0  0  0  0  0  0  0  0
    2.5420   -1.0870    0.4990 S   0  0  0  0  0  0  0  0  0  0  0  0
    2.5970    0.6620    0.6190 C   0  0  0  0  0  0  0  0  0  0  0  0
    3.7380    1.3890    0.5350 C   0  0  0  0  0  0  0  0  0  0  0  0
    5.0670    0.8510    0.3370 C   0  0  0  0  0  0  0  0  0  0  0  0
    5.4360   -0.3880    0.2070 C   0  0  0  0  0  0  0  0  0  0  0  0
    6.8070   -0.7210    0.0160 O   0  0  0  0  0  0  0  0  0  0  0  0
    7.5450    0.1140   -0.8380 C   0  0  0  0  0  0  0  0  0  0  0  0
    7.3620    1.5230   -0.3580 C   0  0  0  0  0  0  0  0  0  0  0  0
    6.1470    1.7780    0.2700 O   0  0  0  0  0  0  0  0  0  0  0  0
    1.3180    1.0060    0.7950 C   0  0  0  0  0  0  0  0  0  0  0  0
    0.9070    2.2560    0.9340 C   0  0  0  0  0  0  0  0  0  0  0  0
    1.8810    3.6680    0.9210 Cl  0  0  0  0  0  0  0  0  0  0  0  0
    0.4100   -0.0130    0.8280 C   0  0  0  0  0  0  0  0  0  0  0  0
   -1.0200    0.1700    1.0090 N   0  0  0  0  0  0  0  0  0  0  0  0
   -1.8810    0.3530   -0.0990 C   0  0  0  0  0  0  0  0  0  0  0  0
   -1.2840    0.3400   -1.2340 O   0  0  0  0  0  0  0  0  0  0  0  0
   -3.3230    0.5430   -0.0290 C   0  0  0  0  0  0  0  0  0  0  0  0
   -4.0480    0.5580    1.2540 C   0  0  0  0  0  0  0  0  0  0  0  0
   -3.9980    0.7040   -1.1470 C   0  0  0  0  0  0  0  0  0  0  0  0
   -5.4550    0.8990   -1.1070 C   0  0  0  0  0  0  0  0  0  0  0  0
   -6.0690   -0.2470   -1.8990 C   0  0  0  0  0  0  0  0  0  0  0  0
   -7.4500   -0.1000   -1.8860 O   0  0  0  0  0  0  0  0  0  0  0  0
  1  2  1  0
  2  3  1  0
  3  4  2  0
  3  5  1  0
  5  6  1  0
  5 18  2  0
  6  7  1  0
  7  8  2  3
  7 15  1  0
  8  9  1  0
  9 10  2  0
  9 14  1  0
 10 11  1  0
 11 12  1  0
 12 13  1  0
 13 14  1  0
 15 16  2  3
 15 18  1  0
 16 17  1  0
 18 19  1  0
 19 20  1  0
 20 21  2  0
 20 22  1  0
 22 23  1  0
 22 24  2  3
 24 25  1  0
 25 26  1  0
 26 27  1  0
M  END
