
     RDKit          3D

 28 30  0  0  0  0  0  0  0  0999 V2000
   -8.0510    0.9710    1.4440 C   0  0  0  0  0  0  0  0  0  0  0  0
   -6.8380    0.4050    1.8890 O   0  0  0  0  0  0  0  0  0  0  0  0
   -5.7900    0.0750    1.0620 C   0  0  0  0  0  0  0  0  0  0  0  0
   -5.9220    0.2890   -0.1610 O   0  0  0  0  0  0  0  0  0  0  0  0
   -4.5470   -0.5080    1.5440 C   0  0  0  0  0  0  0  0  0  0  0  0
   -4.3590   -0.7580    2.8450 C   0  0  0  0  0  0  0  0  0  0  0  0
   -2.8460   -1.4720    3.4570 S   0  0  0  0  0  0  0  0  0  0  0  0
   -1.7670   -1.7250    1.9960 C   0  0  0  0  0  0  0  0  0  0  0  0
   -2.1490   -0.6600    0.9870 C   0  0  1  0  0  0  0  0  0  0  0  0
   -1.3430   -0.8020   -0.2610 C   0  0  0  0  0  0  0  0  0  0  0  0
   -1.9630   -1.0300   -1.3160 O   0  0  0  0  0  0  0  0  0  0  0  0
    0.0520   -0.6890   -0.2820 N   0  0  0  0  0  0  0  0  0  0  0  0
    0.9100   -0.8020   -1.3880 C   0  0  0  0  0  0  0  0  0  0  0  0
    0.4770   -1.0520   -2.6670 C   0  0  0  0  0  0  0  0  0  0  0  0
    1.3910   -1.1520   -3.7280 C   0  0  0  0  0  0  0  0  0  0  0  0
    2.7300   -0.9970   -3.4670 C   0  0  0  0  0  0  0  0  0  0  0  0
    3.2050   -0.7450   -2.2010 C   0  0  0  0  0  0  0  0  0  0  0  0
    2.2920   -0.6500   -1.1710 C   0  0  0  0  0  0  0  0  0  0  0  0
    2.6750   -0.4030    0.1310 O   0  0  0  0  0  0  0  0  0  0  0  0
    3.9210   -0.1970    0.6610 C   0  0  0  0  0  0  0  0  0  0  0  0
    4.6600    0.9930    0.2000 C   0  0  0  0  0  0  0  0  0  0  0  0
    4.2220    1.8750   -0.6690 C   0  0  0  0  0  0  0  0  0  0  0  0
    5.2490    2.9110   -0.8680 C   0  0  0  0  0  0  0  0  0  0  0  0
    5.2020    3.9180   -1.6190 O   0  0  0  0  0  0  0  0  0  0  0  0
    6.3450    2.5120    0.0050 C   0  0  0  0  0  0  0  0  0  0  0  0
    7.8320    3.4270    0.1400 Cl  0  0  0  0  0  0  0  0  0  0  0  0
    6.0180    1.3990    0.6320 C   0  0  0  0  0  0  0  0  0  0  0  0
   -3.5160   -0.8240    0.6780 O   0  0  0  0  0  0  0  0  0  0  0  0
  1  2  1  0
  2  3  1  0
  3  4  2  0
  3  5  1  0
  5  6  2  0
  5 28  1  0
  6  7  1  0
  7  8  1  0
  8  9  1  0
  9 10  1  6
  9 28  1  0
 10 11  2  0
 10 12  1  0
 12 13  1  0
 13 14  2  0
 13 18  1  0
 14 15  1  0
 15 16  2  0
 16 17  1  0
 17 18  2  0
 18 19  1  0
 19 20  1  0
 20 21  1  0
 21 22  2  0
 21 27  1  0
 22 23  1  0
 23 24  2  0
 23 25  1  0
 25 26  1  0
 25 27  2  0
M  END
