
     RDKit          3D

 28 30  0  0  0  0  0  0  0  0999 V2000
   -2.8610    6.8080    1.0880 C   0  0  0  0  0  0  0  0  0  0  0  0
   -1.8440    5.8100    1.0440 O   0  0  0  0  0  0  0  0  0  0  0  0
   -2.2440    4.5270    0.7460 C   0  0  0  0  0  0  0  0  0  0  0  0
   -3.4380    4.2620    0.5270 O   0  0  0  0  0  0  0  0  0  0  0  0
   -1.2680    3.4360    0.6780 C   0  0  0  0  0  0  0  0  0  0  0  0
   -1.4440    2.1210    0.4050 C   0  0  0  0  0  0  0  0  0  0  0  0
   -0.3860    1.2810    0.3970 C   0  0  0  0  0  0  0  0  0  0  0  0
   -0.5430   -0.2210    0.1070 C   0  0  0  0  0  0  0  0  0  0  0  0
   -1.8950   -0.4360   -0.1400 O   0  0  0  0  0  0  0  0  0  0  0  0
   -2.2050   -1.7360   -0.4180 C   0  0  2  0  0  0  0  0  0  0  0  0
   -2.7750   -1.8130   -1.8030 C   0  0  0  0  0  0  0  0  0  0  0  0
   -3.4770   -3.0860   -2.1170 C   0  0  0  0  0  0  0  0  0  0  0  0
   -4.1910   -3.6320   -1.0760 O   0  0  0  0  0  0  0  0  0  0  0  0
   -3.4490   -3.7730    0.0860 C   0  0  0  0  0  0  0  0  0  0  0  0
   -3.1390   -2.3710    0.5830 C   0  0  0  0  0  0  0  0  0  0  0  0
    0.8540    1.8200    0.6730 C   0  0  0  0  0  0  0  0  0  0  0  0
    2.2020    1.3220    0.7710 C   0  0  0  0  0  0  0  0  0  0  0  0
    3.1130    2.1800    1.0790 O   0  0  0  0  0  0  0  0  0  0  0  0
    2.6110    0.0160    0.5650 N   0  0  0  0  0  0  0  0  0  0  0  0
    3.9280   -0.5260    0.6510 C   0  0  0  0  0  0  0  0  0  0  0  0
    5.0210    0.2340    0.9680 C   0  0  0  0  0  0  0  0  0  0  0  0
    6.3070   -0.3190    1.0470 C   0  0  0  0  0  0  0  0  0  0  0  0
    7.7020    0.6600    1.4540 Cl  0  0  0  0  0  0  0  0  0  0  0  0
    6.4540   -1.6460    0.7990 C   0  0  0  0  0  0  0  0  0  0  0  0
    5.3810   -2.4210    0.4810 C   0  0  0  0  0  0  0  0  0  0  0  0
    4.1200   -1.8920    0.4010 C   0  0  0  0  0  0  0  0  0  0  0  0
    3.0500   -2.7060    0.0760 O   0  0  0  0  0  0  0  0  0  0  0  0
    0.4560    3.5540    0.9440 S   0  0  0  0  0  0  0  0  0  0  0  0
  1  2  1  0
  2  3  1  0
  3  4  2  0
  3  5  1  0
  5  6  2  0
  5 28  1  0
  6  7  1  0
  7  8  1  0
  7 16  2  0
  8  9  1  0
 10  9  1  1
 10 11  1  0
 10 15  1  0
 11 12  1  0
 12 13  1  0
 13 14  1  0
 14 15  1  0
 16 17  1  0
 16 28  1  0
 17 18  2  0
 17 19  1  0
 19 20  1  0
 20 21  2  0
 20 26  1  0
 21 22  1  0
 22 23  1  0
 22 24  2  0
 24 25  1  0
 25 26  2  0
 26 27  1  0
M  END
