
     RDKit          3D

 20 19  0  0  0  0  0  0  0  0999 V2000
    5.4260    1.8240   -1.5380 O   0  0  0  0  0  0  0  0  0  0  0  0
    6.3210    0.9180   -0.5610 P   0  0  0  0  0  0  0  0  0  0  0  0
    5.6760   -0.3800    0.3860 O   0  0  0  0  0  0  0  0  0  0  0  0
    4.4920   -0.9540   -0.0400 C   0  0  0  0  0  0  0  0  0  0  0  0
    3.5650   -0.7120    1.2150 C   0  0  0  0  0  0  0  0  0  0  0  0
    2.3050   -1.2180    0.9780 O   0  0  0  0  0  0  0  0  0  0  0  0
    1.4600   -0.6340   -0.0030 C   0  0  0  0  0  0  0  0  0  0  0  0
    1.8410    0.3080   -0.6030 O   0  0  0  0  0  0  0  0  0  0  0  0
    0.1640   -1.3320   -0.0910 C   0  0  0  0  0  0  0  0  0  0  0  0
   -0.9410   -0.8740   -0.6020 O   0  0  0  0  0  0  0  0  0  0  0  0
   -1.6930    0.2000   -0.2360 C   0  0  0  0  0  0  0  0  0  0  0  0
   -1.2420    0.8330    0.7690 O   0  0  0  0  0  0  0  0  0  0  0  0
   -2.9160    0.5710   -0.9380 C   0  0  2  0  0  0  0  0  0  0  0  0
   -3.0290   -0.1280   -2.1220 O   0  0  0  0  0  0  0  0  0  0  0  0
   -3.1180    1.8950   -1.0920 O   0  0  0  0  0  0  0  0  0  0  0  0
   -3.2740    2.5340    0.0280 O   0  0  0  0  0  0  0  0  0  0  0  0
   -3.2330    3.8240   -0.2800 O   0  0  0  0  0  0  0  0  0  0  0  0
   -4.3720   -0.1230    0.0970 P   0  0  0  0  0  0  0  0  0  0  0  0
   -4.4110    0.5510    1.6670 O   0  0  0  0  0  0  0  0  0  0  0  0
   -3.9580   -1.8480    0.2570 O   0  0  0  0  0  0  0  0  0  0  0  0
  1  2  2  0
  2  3  1  0
  3  4  1  0
  4  5  1  0
  5  6  1  0
  6  7  1  0
  7  8  2  0
  7  9  1  0
  9 10  1  0
 10 11  1  0
 11 12  2  0
 11 13  1  0
 13 14  1  6
 13 15  1  0
 13 18  1  0
 15 16  1  0
 16 17  1  0
 18 19  1  0
 18 20  1  0
M  END
