
     RDKit          3D

 20 19  0  0  0  0  0  0  0  0999 V2000
   -4.5280   -2.0450   -0.9060 O   0  0  0  0  0  0  0  0  0  0  0  0
   -4.2510   -1.2350   -1.8390 C   0  0  0  0  0  0  0  0  0  0  0  0
   -3.6240   -0.0520   -1.4840 O   0  0  0  0  0  0  0  0  0  0  0  0
   -3.3130    0.2290   -0.1360 C   0  0  2  0  0  0  0  0  0  0  0  0
   -3.9060    1.4460    0.2560 O   0  0  0  0  0  0  0  0  0  0  0  0
   -4.7680    1.4460    1.3340 C   0  0  0  0  0  0  0  0  0  0  0  0
   -4.9990    0.3750    1.9300 O   0  0  0  0  0  0  0  0  0  0  0  0
   -5.3460    2.6470    1.7110 O   0  0  0  0  0  0  0  0  0  0  0  0
   -1.8460    0.3410    0.0210 C   0  0  0  0  0  0  0  0  0  0  0  0
   -1.3510    0.5910    1.1570 O   0  0  0  0  0  0  0  0  0  0  0  0
   -1.0110    0.1770   -1.0510 O   0  0  0  0  0  0  0  0  0  0  0  0
    0.3170    0.2740   -0.9300 O   0  0  0  0  0  0  0  0  0  0  0  0
    0.8610   -0.7950   -0.2150 C   0  0  0  0  0  0  0  0  0  0  0  0
    2.3680   -0.5400   -0.1650 C   0  0  0  0  0  0  0  0  0  0  0  0
    2.5490    0.6650    0.4760 O   0  0  0  0  0  0  0  0  0  0  0  0
    4.1900    1.1350    0.6350 P   0  0  0  0  0  0  0  0  0  0  0  0
    4.4310    2.6570   -0.1680 O   0  0  0  0  0  0  0  0  0  0  0  0
    5.4940   -0.3490   -0.3320 P   0  0  0  0  0  0  0  0  0  0  0  0
    4.8760   -0.8490   -1.8550 O   0  0  0  0  0  0  0  0  0  0  0  0
    5.6530   -1.7180    0.7080 O   0  0  0  0  0  0  0  0  0  0  0  0
  1  2  2  0
  2  3  1  0
  4  3  1  6
  4  5  1  0
  4  9  1  0
  5  6  1  0
  6  7  2  0
  6  8  1  0
  9 10  2  0
  9 11  1  0
 11 12  1  0
 12 13  1  0
 13 14  1  0
 14 15  1  0
 15 16  1  0
 16 17  1  0
 16 18  1  0
 18 19  1  0
 18 20  1  0
M  END
