
     RDKit          3D

 28 29  0  0  0  0  0  0  0  0999 V2000
   -4.5660   -1.0640    0.8030 C   0  0  0  0  0  0  0  0  0  0  0  0
   -4.1090    0.2840    0.5570 N   0  0  0  0  0  0  0  0  0  0  0  0
   -4.9470    1.4300    0.6670 C   0  0  0  0  0  0  0  0  0  0  0  0
   -6.2090    1.4540    0.7770 O   0  0  0  0  0  0  0  0  0  0  0  0
   -4.1310    2.6120    0.6350 N   0  0  0  0  0  0  0  0  0  0  0  0
   -2.7760    2.1290    0.8440 C   0  0  0  0  0  0  0  0  0  0  0  0
   -2.8180    0.7890    0.1730 C   0  0  1  0  0  0  0  0  0  0  0  0
   -1.7520   -0.0830    0.4990 N   0  0  0  0  0  0  0  0  0  0  0  0
   -0.6210    0.4080   -0.3150 C   0  0  1  0  0  0  0  0  0  0  0  0
    0.4060    1.3580    0.8390 P   0  0  0  0  0  0  0  0  0  0  0  0
    0.6240    2.9940    0.5320 O   0  0  0  0  0  0  0  0  0  0  0  0
    0.3990    0.8580    2.4440 O   0  0  0  0  0  0  0  0  0  0  0  0
    0.0100   -0.8320   -0.9010 C   0  0  1  0  0  0  0  0  0  0  0  0
   -1.0060   -1.4640   -1.6740 O   0  0  0  0  0  0  0  0  0  0  0  0
    1.0290   -0.6270   -1.7460 O   0  0  0  0  0  0  0  0  0  0  0  0
    2.1740   -0.0410   -1.4330 C   0  0  0  0  0  0  0  0  0  0  0  0
    3.0810   -0.6570   -0.4050 C   0  0  0  0  0  0  0  0  0  0  0  0
    4.2550    0.1750   -0.2270 O   0  0  0  0  0  0  0  0  0  0  0  0
    5.2370   -0.1880    0.6710 C   0  0  0  0  0  0  0  0  0  0  0  0
    5.0450   -1.2670    1.3100 O   0  0  0  0  0  0  0  0  0  0  0  0
    6.3780    0.5440    0.8980 O   0  0  0  0  0  0  0  0  0  0  0  0
    7.3270    0.1880    1.7700 O   0  0  0  0  0  0  0  0  0  0  0  0
    0.2830   -1.7200    0.1100 O   0  0  0  0  0  0  0  0  0  0  0  0
    0.9300   -3.2020   -0.5140 P   0  0  0  0  0  0  0  0  0  0  0  0
    2.1980   -3.8180    0.4980 O   0  0  0  0  0  0  0  0  0  0  0  0
    1.5550   -3.0030   -2.1140 O   0  0  0  0  0  0  0  0  0  0  0  0
   -1.3280    1.2150   -1.3470 C   0  0  0  0  0  0  0  0  0  0  0  0
   -2.6940    0.9880   -1.1930 O   0  0  0  0  0  0  0  0  0  0  0  0
  1  2  1  0
  2  3  1  0
  2  7  1  0
  3  4  2  0
  3  5  1  0
  5  6  1  0
  7  6  1  1
  7  8  1  0
  7 28  1  0
  8  9  1  0
  9 10  1  1
  9 13  1  0
  9 27  1  0
 10 11  1  0
 10 12  1  0
 13 14  1  6
 13 15  1  0
 13 23  1  0
 15 16  1  0
 16 17  1  0
 17 18  1  0
 18 19  1  0
 19 20  2  0
 19 21  1  0
 21 22  1  0
 23 24  1  0
 24 25  1  0
 24 26  1  0
 27 28  1  0
M  END
