
     RDKit          3D

 20 19  0  0  0  0  0  0  0  0999 V2000
   -6.0150    0.4040   -1.1530 O   0  0  0  0  0  0  0  0  0  0  0  0
   -6.4860    0.3430    0.0020 C   0  0  0  0  0  0  0  0  0  0  0  0
   -7.8150    0.6930    0.2150 O   0  0  0  0  0  0  0  0  0  0  0  0
   -5.6690   -0.0760    1.0590 O   0  0  0  0  0  0  0  0  0  0  0  0
   -4.3010   -0.4310    0.8110 C   0  0  0  0  0  0  0  0  0  0  0  0
   -3.6530    0.6740    0.2820 O   0  0  0  0  0  0  0  0  0  0  0  0
   -2.3230    0.3470    0.0340 C   0  0  0  0  0  0  0  0  0  0  0  0
   -2.3000   -0.6970   -0.8630 O   0  0  0  0  0  0  0  0  0  0  0  0
   -0.6500   -1.1310   -1.1940 P   0  0  0  0  0  0  0  0  0  0  0  0
   -0.0500    0.0520   -2.3370 O   0  0  0  0  0  0  0  0  0  0  0  0
    0.2180   -1.0460    0.2970 O   0  0  0  0  0  0  0  0  0  0  0  0
    1.9160   -1.1030    0.0950 P   0  0  0  0  0  0  0  0  0  0  0  0
    2.5960   -1.7080    1.5960 O   0  0  0  0  0  0  0  0  0  0  0  0
    2.6790    0.5270   -0.2440 C   0  0  0  0  0  0  0  0  0  0  0  0
    4.1370    0.5860    0.1710 C   0  0  1  0  0  0  0  0  0  0  0  0
    4.2850    0.3430    1.5520 O   0  0  0  0  0  0  0  0  0  0  0  0
    4.8630    1.3620    2.1590 O   0  0  0  0  0  0  0  0  0  0  0  0
    4.9710   -0.3880   -0.5520 C   0  0  0  0  0  0  0  0  0  0  0  0
    4.9810   -0.3420   -1.8070 O   0  0  0  0  0  0  0  0  0  0  0  0
    5.7490   -1.3570    0.0590 O   0  0  0  0  0  0  0  0  0  0  0  0
  1  2  2  0
  2  3  1  0
  2  4  1  0
  4  5  1  0
  5  6  1  0
  6  7  1  0
  7  8  1  0
  8  9  1  0
  9 10  1  0
  9 11  1  0
 11 12  1  0
 12 13  1  0
 12 14  1  0
 15 14  1  6
 15 16  1  0
 15 18  1  0
 16 17  1  0
 18 19  2  0
 18 20  1  0
M  END
