
     RDKit          3D

 19 19  0  0  0  0  0  0  0  0999 V2000
   -3.5520   -2.1440   -0.1760 O   0  0  0  0  0  0  0  0  0  0  0  0
   -2.5180   -1.8170    0.4800 C   0  0  0  0  0  0  0  0  0  0  0  0
   -2.5200   -2.1030    1.8360 O   0  0  0  0  0  0  0  0  0  0  0  0
   -1.3610   -1.1640   -0.1540 C   0  0  2  0  0  0  0  0  0  0  0  0
   -1.6220   -0.9950   -1.5190 O   0  0  0  0  0  0  0  0  0  0  0  0
   -0.1250   -1.9980    0.0600 C   0  0  0  0  0  0  0  0  0  0  0  0
    1.0190   -1.3990   -0.4080 O   0  0  0  0  0  0  0  0  0  0  0  0
    1.0060   -0.0200   -0.3410 C   0  0  2  0  0  0  0  0  0  0  0  0
    2.4130    0.4620   -0.0430 C   0  0  0  0  0  0  0  0  0  0  0  0
    3.2760    0.0480   -1.0510 O   0  0  0  0  0  0  0  0  0  0  0  0
    4.8800    0.5890   -0.7250 P   0  0  0  0  0  0  0  0  0  0  0  0
    5.5750   -0.2530    0.6320 O   0  0  0  0  0  0  0  0  0  0  0  0
    4.9790    2.2980   -0.5150 O   0  0  0  0  0  0  0  0  0  0  0  0
    0.1690    0.4850    0.6250 O   0  0  0  0  0  0  0  0  0  0  0  0
   -1.1660    0.2150    0.4310 C   0  0  1  0  0  0  0  0  0  0  0  0
   -1.7400    1.1800   -0.3940 O   0  0  0  0  0  0  0  0  0  0  0  0
   -3.0120    2.0270    0.3950 P   0  0  0  0  0  0  0  0  0  0  0  0
   -2.8910    3.7410    0.1570 O   0  0  0  0  0  0  0  0  0  0  0  0
   -4.5690    1.5190   -0.1210 O   0  0  0  0  0  0  0  0  0  0  0  0
  1  2  2  0
  2  3  1  0
  2  4  1  0
  4  5  1  6
  4  6  1  0
  4 15  1  0
  6  7  1  0
  7  8  1  0
  8  9  1  1
  8 14  1  0
  9 10  1  0
 10 11  1  0
 11 12  1  0
 11 13  1  0
 14 15  1  0
 15 16  1  6
 16 17  1  0
 17 18  1  0
 17 19  1  0
M  END
