
     RDKit          3D

 16 16  0  0  0  0  0  0  0  0999 V2000
   -4.0580    0.9930    0.0310 C   0  0  0  0  0  0  0  0  0  0  0  0
   -2.6050    0.6580    0.0380 C   0  0  0  0  0  0  0  0  0  0  0  0
   -1.7110    1.6100    0.3110 N   0  0  0  0  0  0  0  0  0  0  0  0
   -0.4060    1.2880    0.3130 C   0  0  0  0  0  0  0  0  0  0  0  0
   -0.0090    0.0030    0.0370 C   0  0  0  0  0  0  0  0  0  0  0  0
    1.4630   -0.3240    0.0470 C   0  0  0  0  0  0  0  0  0  0  0  0
    2.1520    0.8150    0.3520 O   0  0  0  0  0  0  0  0  0  0  0  0
    3.8050    0.6480    0.4100 P   0  0  1  0  0  0  0  0  0  0  0  0
    4.1660    0.0930    1.7900 O   0  0  0  0  0  0  0  0  0  0  0  0
    4.4020   -0.4540   -0.7190 O   0  0  0  0  0  0  0  0  0  0  0  0
    4.5750    2.1490    0.2880 O   0  0  0  0  0  0  0  0  0  0  0  0
   -0.9390   -0.9810   -0.2460 C   0  0  0  0  0  0  0  0  0  0  0  0
   -0.4060   -2.3010   -0.5220 C   0  0  0  0  0  0  0  0  0  0  0  0
   -1.1620   -3.2540   -0.7870 O   0  0  0  0  0  0  0  0  0  0  0  0
   -2.2760   -0.6670   -0.2510 C   0  0  0  0  0  0  0  0  0  0  0  0
   -3.2470   -1.5720   -0.5180 O   0  0  0  0  0  0  0  0  0  0  0  0
  1  2  1  0
  2  3  2  0
  2 15  1  0
  3  4  1  0
  4  5  2  0
  5  6  1  0
  5 12  1  0
  6  7  1  0
  7  8  1  0
  8  9  2  0
  8 10  1  6
  8 11  1  0
 12 13  1  0
 12 15  2  0
 13 14  2  0
 15 16  1  0
M  END
