
     RDKit          3D

 23 25  0  0  0  0  0  0  0  0999 V2000
    4.4280   -1.6550   -1.1730 C   0  0  0  0  0  0  0  0  0  0  0  0
    3.3580   -1.6050   -0.0920 C   0  0  0  0  0  0  0  0  0  0  0  0
    3.2680   -0.3590    0.4830 O   0  0  0  0  0  0  0  0  0  0  0  0
    2.3340   -0.2890    1.4870 C   0  0  0  0  0  0  0  0  0  0  0  0
    0.9560   -0.6000    1.0660 C   0  0  0  0  0  0  0  0  0  0  0  0
    0.5740   -1.8810    0.9260 N   0  0  0  0  0  0  0  0  0  0  0  0
   -0.7070   -1.9400    0.5690 C   0  0  0  0  0  0  0  0  0  0  0  0
   -1.5840   -2.9730    0.3030 C   0  0  0  0  0  0  0  0  0  0  0  0
   -1.1130   -4.3000    0.3970 N   0  0  0  0  0  0  0  0  0  0  0  0
   -2.8470   -2.7420   -0.0350 N   0  0  0  0  0  0  0  0  0  0  0  0
   -3.3010   -1.4770   -0.1260 C   0  0  0  0  0  0  0  0  0  0  0  0
   -4.6140   -1.2560   -0.4710 C   0  0  0  0  0  0  0  0  0  0  0  0
   -5.0590    0.0220   -0.5520 C   0  0  0  0  0  0  0  0  0  0  0  0
   -4.2510    1.0860   -0.3040 C   0  0  0  0  0  0  0  0  0  0  0  0
   -2.9030    0.8870    0.0510 C   0  0  0  0  0  0  0  0  0  0  0  0
   -2.4520   -0.3900    0.1340 C   0  0  0  0  0  0  0  0  0  0  0  0
   -1.1220   -0.6070    0.4900 C   0  0  0  0  0  0  0  0  0  0  0  0
   -0.1130    0.2190    0.7910 N   0  0  0  0  0  0  0  0  0  0  0  0
   -0.0120    1.6450    0.8670 C   0  0  0  0  0  0  0  0  0  0  0  0
    0.3740    2.3710   -0.3750 C   0  0  1  0  0  0  0  0  0  0  0  0
    0.3730    3.8680    0.0070 C   0  0  0  0  0  0  0  0  0  0  0  0
    1.8190    2.1320   -0.8000 C   0  0  0  0  0  0  0  0  0  0  0  0
   -0.3830    2.2070   -1.4880 O   0  0  0  0  0  0  0  0  0  0  0  0
  1  2  1  0
  2  3  1  0
  3  4  1  0
  4  5  1  0
  5  6  2  0
  5 18  1  0
  6  7  1  0
  7  8  2  0
  7 17  1  0
  8  9  1  0
  8 10  1  0
 10 11  2  0
 11 12  1  0
 11 16  1  0
 12 13  2  0
 13 14  1  0
 14 15  2  0
 15 16  1  0
 16 17  2  0
 17 18  1  0
 18 19  1  0
 19 20  1  0
 20 21  1  1
 20 22  1  0
 20 23  1  0
M  END
