
     RDKit          3D

 23 25  0  0  0  0  0  0  0  0999 V2000
    4.4150    3.4930   -0.4320 N   0  0  0  0  0  0  0  0  0  0  0  0
    4.1860    2.1040   -0.1930 C   0  0  0  0  0  0  0  0  0  0  0  0
    4.6310    1.1920   -1.1220 C   0  0  0  0  0  0  0  0  0  0  0  0
    4.4220   -0.1550   -0.9150 C   0  0  0  0  0  0  0  0  0  0  0  0
    3.7700   -0.5950    0.2180 C   0  0  0  0  0  0  0  0  0  0  0  0
    3.5360   -1.9770    0.4660 N   0  0  0  0  0  0  0  0  0  0  0  0
    2.3160   -2.4360    0.3690 C   0  0  0  0  0  0  0  0  0  0  0  0
    2.0800   -3.8520    0.6230 C   0  0  0  0  0  0  0  0  0  0  0  0
    0.8280   -4.3220    0.5230 C   0  0  0  0  0  0  0  0  0  0  0  0
   -0.2790   -3.4530    0.1700 C   0  0  0  0  0  0  0  0  0  0  0  0
   -1.4400   -3.9190    0.0830 O   0  0  0  0  0  0  0  0  0  0  0  0
   -0.0510   -2.0390   -0.0860 C   0  0  0  0  0  0  0  0  0  0  0  0
   -1.1080   -1.1700   -0.4310 N   0  0  0  0  0  0  0  0  0  0  0  0
   -2.1510   -0.7620    0.4590 C   0  0  0  0  0  0  0  0  0  0  0  0
   -3.1210    0.1730   -0.2330 C   0  0  2  0  0  0  0  0  0  0  0  0
   -2.3330    1.3770   -0.6870 C   0  0  0  0  0  0  0  0  0  0  0  0
   -3.1530    2.6380   -0.7120 C   0  0  0  0  0  0  0  0  0  0  0  0
   -4.5150    2.3850   -0.7280 O   0  0  0  0  0  0  0  0  0  0  0  0
   -4.9560    1.7580    0.4180 C   0  0  0  0  0  0  0  0  0  0  0  0
   -4.1870    0.5270    0.7740 C   0  0  0  0  0  0  0  0  0  0  0  0
    1.1960   -1.5790    0.0160 C   0  0  0  0  0  0  0  0  0  0  0  0
    3.3360    0.3420    1.1290 C   0  0  0  0  0  0  0  0  0  0  0  0
    3.5560    1.6440    0.8960 N   0  0  0  0  0  0  0  0  0  0  0  0
  1  2  1  0
  2  3  2  0
  2 23  1  0
  3  4  1  0
  4  5  2  0
  5  6  1  0
  5 22  1  0
  6  7  2  3
  7  8  1  0
  7 21  1  0
  8  9  2  0
  9 10  1  0
 10 11  2  0
 10 12  1  0
 12 13  1  0
 12 21  2  0
 13 14  1  0
 15 14  1  1
 15 16  1  0
 15 20  1  0
 16 17  1  0
 17 18  1  0
 18 19  1  0
 19 20  1  0
 22 23  2  0
M  END
