
     RDKit          3D

 23 24  0  0  0  0  0  0  0  0999 V2000
   -4.2680   -1.4410    4.1100 C   0  0  0  0  0  0  0  0  0  0  0  0
   -4.9560   -0.3870    3.9460 C   0  0  0  0  0  0  0  0  0  0  0  0
   -5.9920   -0.0450    4.7750 O   0  0  0  0  0  0  0  0  0  0  0  0
   -4.6370    0.5540    2.8100 C   0  0  0  0  0  0  0  0  0  0  0  0
   -5.2660    1.5450    2.5960 C   0  0  0  0  0  0  0  0  0  0  0  0
   -6.2690    2.6450    2.6640 C   0  0  0  0  0  0  0  0  0  0  0  0
   -3.4320    0.0420    2.0110 C   0  0  0  0  0  0  0  0  0  0  0  0
   -3.0870    0.9710    0.8990 C   0  0  0  0  0  0  0  0  0  0  0  0
   -1.9710    0.4880    0.0900 N   0  0  0  0  0  0  0  0  0  0  0  0
   -0.6820    0.1950    0.5470 C   0  0  0  0  0  0  0  0  0  0  0  0
   -0.4280    0.3450    1.7630 O   0  0  0  0  0  0  0  0  0  0  0  0
    0.3640   -0.2780   -0.3570 N   0  0  0  0  0  0  0  0  0  0  0  0
    0.0060   -0.4180   -1.7190 C   0  0  0  0  0  0  0  0  0  0  0  0
    0.9420   -1.1000   -2.6590 C   0  0  0  0  0  0  0  0  0  0  0  0
    2.2660   -0.4590   -2.6430 N   0  0  0  0  0  0  0  0  0  0  0  0
    3.2240   -0.5640   -1.5690 C   0  0  0  0  0  0  0  0  0  0  0  0
    4.4980   -0.5950   -1.8900 C   0  0  0  0  0  0  0  0  0  0  0  0
    4.9320   -0.5120   -3.3350 C   0  0  0  0  0  0  0  0  0  0  0  0
    6.4330   -0.4110   -3.3040 C   0  0  0  0  0  0  0  0  0  0  0  0
    6.7370    0.0640   -1.8640 C   0  0  0  0  0  0  0  0  0  0  0  0
    5.7220   -0.7620   -1.1280 C   0  0  0  0  0  0  0  0  0  0  0  0
    2.8010   -0.6440   -0.1670 C   0  0  0  0  0  0  0  0  0  0  0  0
    1.5740   -0.5150    0.2890 N   0  0  0  0  0  0  0  0  0  0  0  0
  1  2  2  0
  2  3  1  0
  2  4  1  0
  4  5  2  3
  4  7  1  0
  5  6  1  0
  7  8  1  0
  8  9  1  0
  9 10  1  0
 10 11  2  0
 10 12  1  0
 12 13  1  0
 12 23  1  0
 13 14  1  0
 14 15  1  0
 15 16  1  0
 16 17  2  3
 16 22  1  0
 17 18  1  0
 17 21  1  0
 18 19  1  0
 19 20  1  0
 20 21  1  0
 22 23  2  0
M  END
