
     RDKit          3D

 23 25  0  0  0  0  0  0  0  0999 V2000
   -2.5610   -2.3520   -0.2790 C   0  0  0  0  0  0  0  0  0  0  0  0
   -3.4810   -1.1630   -0.3200 C   0  0  0  0  0  0  0  0  0  0  0  0
   -4.3770   -1.2130   -1.2450 N   0  0  0  0  0  0  0  0  0  0  0  0
   -5.4420   -0.3130   -1.6420 C   0  0  0  0  0  0  0  0  0  0  0  0
   -6.5250   -0.1870   -0.5860 C   0  0  0  0  0  0  0  0  0  0  0  0
   -6.2450    0.8830    0.3770 C   0  0  0  0  0  0  0  0  0  0  0  0
   -5.2010    1.2790    1.1260 C   0  0  0  0  0  0  0  0  0  0  0  0
   -3.8430    0.7790    1.2990 C   0  0  0  0  0  0  0  0  0  0  0  0
   -3.1350   -0.1920    0.7360 C   0  0  0  0  0  0  0  0  0  0  0  0
   -1.8510   -0.3490    1.1890 O   0  0  0  0  0  0  0  0  0  0  0  0
   -0.7660   -0.0200    0.3950 C   0  0  0  0  0  0  0  0  0  0  0  0
    0.5400   -0.1730    0.8360 C   0  0  0  0  0  0  0  0  0  0  0  0
    1.6340    0.1580    0.0400 C   0  0  0  0  0  0  0  0  0  0  0  0
    2.9360   -0.0190    0.5420 N   0  0  0  0  0  0  0  0  0  0  0  0
    4.1280    0.2630   -0.1270 C   0  0  0  0  0  0  0  0  0  0  0  0
    4.1380    0.7140   -1.2710 O   0  0  0  0  0  0  0  0  0  0  0  0
    5.4240    0.0470    0.4750 N   0  0  0  0  0  0  0  0  0  0  0  0
    6.6140    0.3660   -0.2850 C   0  0  2  0  0  0  0  0  0  0  0  0
    7.8910   -0.3340   -0.0100 C   0  0  0  0  0  0  0  0  0  0  0  0
    7.7050    1.0130    0.5720 C   0  0  0  0  0  0  0  0  0  0  0  0
    1.3260    0.6390   -1.1980 C   0  0  0  0  0  0  0  0  0  0  0  0
    0.0000    0.7870   -1.6290 C   0  0  0  0  0  0  0  0  0  0  0  0
   -1.0030    0.4580   -0.8310 N   0  0  0  0  0  0  0  0  0  0  0  0
  1  2  1  0
  2  3  2  0
  2  9  1  0
  3  4  1  0
  4  5  1  0
  5  6  1  0
  6  7  2  0
  7  8  1  0
  8  9  2  0
  9 10  1  0
 10 11  1  0
 11 12  2  0
 11 23  1  0
 12 13  1  0
 13 14  1  0
 13 21  2  0
 14 15  1  0
 15 16  2  0
 15 17  1  0
 18 17  1  1
 18 19  1  0
 18 20  1  0
 19 20  1  0
 21 22  1  0
 22 23  2  0
M  END
