
     RDKit          3D

 23 25  0  0  0  0  0  0  0  0999 V2000
   -5.1680   -1.4620    0.8710 C   0  0  0  0  0  0  0  0  0  0  0  0
   -3.6790   -1.3310    0.4320 C   0  0  0  0  0  0  0  0  0  0  0  0
   -3.4960    0.0710   -0.0340 C   0  0  0  0  0  0  0  0  0  0  0  0
   -4.5330    0.8270   -0.5190 N   0  0  0  0  0  0  0  0  0  0  0  0
   -4.1360    2.0270   -0.8100 N   0  0  0  0  0  0  0  0  0  0  0  0
   -4.8680    3.1330   -1.3980 C   0  0  0  0  0  0  0  0  0  0  0  0
   -2.8080    2.0750   -0.5100 C   0  0  0  0  0  0  0  0  0  0  0  0
   -2.4430    0.8280   -0.0390 C   0  0  0  0  0  0  0  0  0  0  0  0
   -1.0040    0.6060    0.1220 C   0  0  0  0  0  0  0  0  0  0  0  0
   -0.3100    1.3480    0.8290 O   0  0  0  0  0  0  0  0  0  0  0  0
   -0.3680   -0.4990   -0.5480 N   0  0  0  0  0  0  0  0  0  0  0  0
    0.8860   -1.0050   -0.7110 C   0  0  0  0  0  0  0  0  0  0  0  0
    2.1190   -1.0550   -0.0680 C   0  0  0  0  0  0  0  0  0  0  0  0
    2.8540   -2.2780    0.1030 C   0  0  0  0  0  0  0  0  0  0  0  0
    2.1290   -3.5650   -0.1250 C   0  0  0  0  0  0  0  0  0  0  0  0
    4.0750   -2.0370    0.4630 N   0  0  0  0  0  0  0  0  0  0  0  0
    4.2650   -0.6960    0.5540 C   0  0  0  0  0  0  0  0  0  0  0  0
    5.4640   -0.0150    0.8070 C   0  0  0  0  0  0  0  0  0  0  0  0
    5.4590    1.3580    0.7130 C   0  0  0  0  0  0  0  0  0  0  0  0
    4.2810    1.9980    0.3790 C   0  0  0  0  0  0  0  0  0  0  0  0
    4.2300    3.3400    0.2590 O   0  0  0  0  0  0  0  0  0  0  0  0
    3.1040    1.2720    0.1340 C   0  0  0  0  0  0  0  0  0  0  0  0
    3.0730   -0.0890    0.2310 C   0  0  0  0  0  0  0  0  0  0  0  0
  1  2  1  0
  2  3  1  0
  3  4  2  0
  3  8  1  0
  4  5  1  0
  5  6  1  0
  5  7  1  0
  7  8  2  0
  8  9  1  0
  9 10  2  0
  9 11  1  0
 11 12  1  0
 12 13  1  0
 13 14  2  0
 13 23  1  0
 14 15  1  0
 14 16  1  0
 16 17  1  0
 17 18  2  0
 17 23  1  0
 18 19  1  0
 19 20  2  0
 20 21  1  0
 20 22  1  0
 22 23  2  0
M  END
