
     RDKit          3D

 23 24  0  0  0  0  0  0  0  0999 V2000
    2.0710    2.3150   -0.0110 C   0  0  0  0  0  0  0  0  0  0  0  0
    3.0910    1.5700   -0.2460 C   0  0  0  0  0  0  0  0  0  0  0  0
    3.3620    0.2260    0.2030 C   0  0  0  0  0  0  0  0  0  0  0  0
    4.5450   -0.2980   -0.1550 C   0  0  0  0  0  0  0  0  0  0  0  0
    5.0640   -1.6250    0.1580 C   0  0  0  0  0  0  0  0  0  0  0  0
    2.5320   -0.5550    1.0640 C   0  0  0  0  0  0  0  0  0  0  0  0
    3.0120   -1.3720    2.0890 C   0  0  0  0  0  0  0  0  0  0  0  0
    2.0120   -2.0900    2.6030 N   0  0  0  0  0  0  0  0  0  0  0  0
    0.9360   -1.7680    1.9590 N   0  0  0  0  0  0  0  0  0  0  0  0
    1.2040   -0.8180    0.9910 C   0  0  0  0  0  0  0  0  0  0  0  0
    0.1580   -0.3770    0.0840 C   0  0  0  0  0  0  0  0  0  0  0  0
    0.2110   -0.7850   -1.2280 C   0  0  0  0  0  0  0  0  0  0  0  0
    1.3400   -1.5990   -1.6810 C   0  0  0  0  0  0  0  0  0  0  0  0
   -0.7920   -0.4220   -2.0810 N   0  0  0  0  0  0  0  0  0  0  0  0
   -1.8200    0.3340   -1.6180 C   0  0  0  0  0  0  0  0  0  0  0  0
   -2.7120    0.6390   -2.4380 O   0  0  0  0  0  0  0  0  0  0  0  0
   -1.9030    0.7490   -0.3410 N   0  0  0  0  0  0  0  0  0  0  0  0
   -3.0290    1.5430    0.0480 C   0  0  0  0  0  0  0  0  0  0  0  0
   -4.2010    0.7580    0.5440 C   0  0  1  0  0  0  0  0  0  0  0  0
   -5.2920    1.7710    0.9070 C   0  0  0  0  0  0  0  0  0  0  0  0
   -4.7920   -0.1670   -0.4680 C   0  0  0  0  0  0  0  0  0  0  0  0
   -0.8990    0.3860    0.5120 C   0  0  0  0  0  0  0  0  0  0  0  0
   -0.9640    0.7690    1.7120 O   0  0  0  0  0  0  0  0  0  0  0  0
  1  2  2  0
  2  3  1  0
  3  4  2  3
  3  6  1  0
  4  5  1  0
  6  7  2  0
  6 10  1  0
  7  8  1  0
  8  9  1  0
  9 10  2  0
 10 11  1  0
 11 12  2  0
 11 22  1  0
 12 13  1  0
 12 14  1  0
 14 15  1  0
 15 16  2  0
 15 17  1  0
 17 18  1  0
 17 22  1  0
 18 19  1  0
 19 20  1  6
 19 21  1  0
 22 23  2  0
M  END
