
     RDKit          3D

 23 25  0  0  0  0  0  0  0  0999 V2000
   -6.6900    0.7720    0.7920 C   0  0  0  0  0  0  0  0  0  0  0  0
   -6.0280   -0.1140    0.0700 C   0  0  0  0  0  0  0  0  0  0  0  0
   -6.5470   -1.2730   -0.6860 C   0  0  0  0  0  0  0  0  0  0  0  0
   -5.3650   -2.0900   -0.8960 N   0  0  0  0  0  0  0  0  0  0  0  0
   -4.1940   -1.3110   -0.7090 C   0  0  0  0  0  0  0  0  0  0  0  0
   -2.8620   -1.5260   -0.9850 C   0  0  0  0  0  0  0  0  0  0  0  0
   -1.9080   -0.5760   -0.6930 C   0  0  0  0  0  0  0  0  0  0  0  0
   -2.2860    0.6170   -0.1130 C   0  0  0  0  0  0  0  0  0  0  0  0
   -1.3250    1.5980    0.1930 O   0  0  0  0  0  0  0  0  0  0  0  0
    0.0040    1.2980   -0.1050 C   0  0  0  0  0  0  0  0  0  0  0  0
    0.8290    0.5860    0.7370 C   0  0  0  0  0  0  0  0  0  0  0  0
    2.1430    0.2940    0.4320 C   0  0  0  0  0  0  0  0  0  0  0  0
    2.9620   -0.4840    1.4090 C   0  0  0  0  0  0  0  0  0  0  0  0
    4.2450   -0.8180    0.8740 N   0  0  0  0  0  0  0  0  0  0  0  0
    5.2660    0.1530    0.7830 C   0  0  0  0  0  0  0  0  0  0  0  0
    5.1180    1.3500    1.1570 O   0  0  0  0  0  0  0  0  0  0  0  0
    6.5590   -0.1860    0.2450 N   0  0  0  0  0  0  0  0  0  0  0  0
    7.6230    0.7900    0.1410 C   0  0  0  0  0  0  0  0  0  0  0  0
    2.6330    0.7400   -0.7650 C   0  0  0  0  0  0  0  0  0  0  0  0
    1.8120    1.4510   -1.6080 C   0  0  0  0  0  0  0  0  0  0  0  0
    0.5170    1.7210   -1.2720 N   0  0  0  0  0  0  0  0  0  0  0  0
   -3.6210    0.8370    0.1660 C   0  0  0  0  0  0  0  0  0  0  0  0
   -4.5640   -0.1170   -0.1300 C   0  0  0  0  0  0  0  0  0  0  0  0
  1  2  2  0
  2  3  1  0
  2 23  1  0
  3  4  1  0
  4  5  1  0
  5  6  2  0
  5 23  1  0
  6  7  1  0
  7  8  2  0
  8  9  1  0
  8 22  1  0
  9 10  1  0
 10 11  2  0
 10 21  1  0
 11 12  1  0
 12 13  1  0
 12 19  2  0
 13 14  1  0
 14 15  1  0
 15 16  2  0
 15 17  1  0
 17 18  1  0
 19 20  1  0
 20 21  2  0
 22 23  2  0
M  END
