
     RDKit          3D

 23 25  0  0  0  0  0  0  0  0999 V2000
   -2.0370   -3.7250   -1.6230 C   0  0  0  0  0  0  0  0  0  0  0  0
   -2.1080   -2.5870   -0.9670 C   0  0  0  0  0  0  0  0  0  0  0  0
   -1.3290   -1.5610   -1.1310 O   0  0  0  0  0  0  0  0  0  0  0  0
   -1.6210   -0.5660   -0.3530 C   0  0  0  0  0  0  0  0  0  0  0  0
   -0.9460    0.7280   -0.2840 C   0  0  0  0  0  0  0  0  0  0  0  0
   -1.2560    1.7590    0.5300 N   0  0  0  0  0  0  0  0  0  0  0  0
   -0.4130    2.7840    0.3080 C   0  0  0  0  0  0  0  0  0  0  0  0
   -0.4500    4.0980    1.0240 C   0  0  1  0  0  0  0  0  0  0  0  0
   -1.7970    4.6460    1.3250 C   0  0  0  0  0  0  0  0  0  0  0  0
   -0.8640    4.1420    2.4470 C   0  0  0  0  0  0  0  0  0  0  0  0
    0.4210    2.3660   -0.6550 N   0  0  0  0  0  0  0  0  0  0  0  0
    0.1360    1.1220   -1.0460 C   0  0  0  0  0  0  0  0  0  0  0  0
    0.7450    0.2880   -2.0240 N   0  0  0  0  0  0  0  0  0  0  0  0
    1.9890   -0.0420   -2.0040 C   0  0  0  0  0  0  0  0  0  0  0  0
    2.4520   -0.8580   -3.0160 O   0  0  0  0  0  0  0  0  0  0  0  0
    2.9100    0.4290   -0.9380 C   0  0  0  0  0  0  0  0  0  0  0  0
    3.4840   -0.7720   -0.2040 C   0  0  1  0  0  0  0  0  0  0  0  0
    4.2320   -1.6100   -1.2220 C   0  0  0  0  0  0  0  0  0  0  0  0
    4.4310   -0.2960    0.8760 C   0  0  0  0  0  0  0  0  0  0  0  0
   -2.6820   -0.9800    0.3810 N   0  0  0  0  0  0  0  0  0  0  0  0
   -3.0180   -2.2290    0.0320 C   0  0  0  0  0  0  0  0  0  0  0  0
   -3.9630   -3.0210    0.4660 C   0  0  0  0  0  0  0  0  0  0  0  0
   -4.8630   -2.4960    1.5440 C   0  0  0  0  0  0  0  0  0  0  0  0
  1  2  2  0
  2  3  1  0
  2 21  1  0
  3  4  1  0
  4  5  1  0
  4 20  2  0
  5  6  1  0
  5 12  2  0
  6  7  1  0
  8  7  1  6
  7 11  2  0
  8  9  1  0
  8 10  1  0
  9 10  1  0
 11 12  1  0
 12 13  1  0
 13 14  2  3
 14 15  1  0
 14 16  1  0
 16 17  1  0
 17 18  1  6
 17 19  1  0
 20 21  1  0
 21 22  2  3
 22 23  1  0
M  END
