
     RDKit          3D

 25 27  0  0  0  0  0  0  0  0999 V2000
   -1.2020    4.1030    0.4780 C   0  0  0  0  0  0  0  0  0  0  0  0
   -0.3800    2.8690    0.2380 C   0  0  0  0  0  0  0  0  0  0  0  0
    0.9140    3.0170    0.1400 C   0  0  0  0  0  0  0  0  0  0  0  0
    1.8130    1.8680   -0.0960 C   0  0  0  0  0  0  0  0  0  0  0  0
    3.1810    2.0520   -0.1960 C   0  0  0  0  0  0  0  0  0  0  0  0
    3.9610    0.9320   -0.4170 C   0  0  0  0  0  0  0  0  0  0  0  0
    3.4190   -0.3310   -0.5370 C   0  0  0  0  0  0  0  0  0  0  0  0
    4.4330   -1.7360   -0.8170 S   0  0  1  0  0  0  0  0  0  0  0  0
    4.9510   -2.4650    0.7090 C   0  0  0  0  0  0  0  0  0  0  0  0
    3.6310   -2.7470   -1.5860 O   0  0  0  0  0  0  0  0  0  0  0  0
    5.6000   -1.3260   -1.6670 O   0  0  0  0  0  0  0  0  0  0  0  0
    2.0510   -0.4510   -0.4280 C   0  0  0  0  0  0  0  0  0  0  0  0
    1.2040    0.6360   -0.2050 C   0  0  0  0  0  0  0  0  0  0  0  0
   -0.2450    0.4430   -0.0990 C   0  0  0  0  0  0  0  0  0  0  0  0
   -0.6890   -0.7590   -0.2190 N   0  0  0  0  0  0  0  0  0  0  0  0
   -2.0490   -1.1210   -0.1440 C   0  0  0  0  0  0  0  0  0  0  0  0
   -2.5600   -1.8610    0.9120 C   0  0  0  0  0  0  0  0  0  0  0  0
   -3.8860   -2.2230    1.0010 C   0  0  0  0  0  0  0  0  0  0  0  0
   -4.3690   -2.9770    2.0890 O   0  0  0  0  0  0  0  0  0  0  0  0
   -4.7260   -1.8210   -0.0150 C   0  0  0  0  0  0  0  0  0  0  0  0
   -6.0740   -2.1550    0.0190 O   0  0  0  0  0  0  0  0  0  0  0  0
   -4.2400   -1.0830   -1.0750 C   0  0  0  0  0  0  0  0  0  0  0  0
   -5.0760   -0.6820   -2.0890 F   0  0  0  0  0  0  0  0  0  0  0  0
   -2.9090   -0.7280   -1.1510 C   0  0  0  0  0  0  0  0  0  0  0  0
   -1.1170    1.5950    0.1350 C   0  0  0  0  0  0  0  0  0  0  0  0
  1  2  1  0
  2  3  2  0
  2 25  1  0
  3  4  1  0
  4  5  2  0
  4 13  1  0
  5  6  1  0
  6  7  2  0
  7  8  1  0
  7 12  1  0
  8  9  1  1
  8 10  2  0
  8 11  2  0
 12 13  2  0
 13 14  1  0
 14 15  2  3
 14 25  1  0
 15 16  1  0
 16 17  2  0
 16 24  1  0
 17 18  1  0
 18 19  1  0
 18 20  2  0
 20 21  1  0
 20 22  1  0
 22 23  1  0
 22 24  2  0
M  END
