
     RDKit          3D

 25 27  0  0  0  0  0  0  0  0999 V2000
    1.4500    3.8180   -0.6260 C   0  0  0  0  0  0  0  0  0  0  0  0
    1.1470    2.1640   -0.0090 S   0  0  0  0  0  0  0  0  0  0  0  0
    2.5880    1.1640    0.0390 C   0  0  0  0  0  0  0  0  0  0  0  0
    3.6720    1.7030   -0.3580 O   0  0  0  0  0  0  0  0  0  0  0  0
    2.6800   -0.2170    0.4850 C   0  0  0  0  0  0  0  0  0  0  0  0
    3.7840   -0.9340    0.5200 O   0  0  0  0  0  0  0  0  0  0  0  0
    3.5970   -2.1310    0.9580 C   0  0  0  0  0  0  0  0  0  0  0  0
    4.5690   -3.1820    1.1310 N   0  0  0  0  0  0  0  0  0  0  0  0
    2.2580   -2.2520    1.2480 C   0  0  0  0  0  0  0  0  0  0  0  0
    1.6620   -1.0350    0.9490 C   0  0  0  0  0  0  0  0  0  0  0  0
    0.2320   -1.1930    1.2760 C   0  0  1  0  0  0  0  0  0  0  0  0
   -0.7170   -0.3800    0.5470 C   0  0  0  0  0  0  0  0  0  0  0  0
   -1.5060    0.5110    1.2470 C   0  0  0  0  0  0  0  0  0  0  0  0
   -2.4570    1.2870    0.6130 C   0  0  0  0  0  0  0  0  0  0  0  0
   -3.2830    2.2320    1.4040 C   0  0  0  0  0  0  0  0  0  0  0  0
   -2.6380    1.1800   -0.7620 C   0  0  0  0  0  0  0  0  0  0  0  0
   -3.6670    2.0260   -1.4140 C   0  0  0  0  0  0  0  0  0  0  0  0
   -1.8440    0.2880   -1.4410 C   0  0  0  0  0  0  0  0  0  0  0  0
   -0.8930   -0.4890   -0.8130 C   0  0  0  0  0  0  0  0  0  0  0  0
   -0.1300   -1.3690   -1.5770 O   0  0  0  0  0  0  0  0  0  0  0  0
   -0.2810   -1.5030   -2.9490 C   0  0  0  0  0  0  0  0  0  0  0  0
    0.6200   -2.4510   -3.4040 F   0  0  0  0  0  0  0  0  0  0  0  0
   -0.0120   -2.6810    1.1090 C   0  0  0  0  0  0  0  0  0  0  0  0
    1.2380   -3.2030    1.7540 C   0  0  0  0  0  0  0  0  0  0  0  0
    1.4500   -4.1520    2.5090 O   0  0  0  0  0  0  0  0  0  0  0  0
  1  2  1  0
  2  3  1  0
  3  4  2  0
  3  5  1  0
  5  6  1  0
  5 10  2  0
  6  7  1  0
  7  8  1  0
  7  9  2  0
  9 10  1  0
  9 24  1  0
 10 11  1  0
 11 12  1  6
 11 23  1  0
 12 13  2  0
 12 19  1  0
 13 14  1  0
 14 15  1  0
 14 16  2  0
 16 17  1  0
 16 18  1  0
 18 19  2  0
 19 20  1  0
 20 21  1  0
 21 22  1  0
 23 24  1  0
 24 25  2  0
M  END
