
     RDKit          3D

 25 27  0  0  0  0  0  0  0  0999 V2000
   -2.6860   -3.6300    0.7530 C   0  0  0  0  0  0  0  0  0  0  0  0
   -2.1260   -2.6720   -0.2750 C   0  0  2  0  0  0  0  0  0  0  0  0
   -2.1180   -3.3590   -1.6000 C   0  0  0  0  0  0  0  0  0  0  0  0
   -0.7870   -2.3660    0.0690 O   0  0  0  0  0  0  0  0  0  0  0  0
   -0.5860   -0.9710    0.0500 C   0  0  0  0  0  0  0  0  0  0  0  0
    0.7550   -0.4180    0.2380 C   0  0  0  0  0  0  0  0  0  0  0  0
    1.5840   -0.9790    1.1930 C   0  0  0  0  0  0  0  0  0  0  0  0
    2.8700   -0.4680    1.4010 C   0  0  0  0  0  0  0  0  0  0  0  0
    3.3230    0.5920    0.6640 C   0  0  0  0  0  0  0  0  0  0  0  0
    4.9180    1.2210    0.9390 S   0  0  1  0  0  0  0  0  0  0  0  0
    6.0980    0.5690   -0.1470 N   0  0  0  0  0  0  0  0  0  0  0  0
    4.9340    2.7310    0.8650 O   0  0  0  0  0  0  0  0  0  0  0  0
    5.4130    0.8790    2.3320 O   0  0  0  0  0  0  0  0  0  0  0  0
    2.5050    1.1520   -0.2850 C   0  0  0  0  0  0  0  0  0  0  0  0
    1.2160    0.6470   -0.5010 C   0  0  0  0  0  0  0  0  0  0  0  0
   -1.7480   -0.3650   -0.1520 C   0  0  0  0  0  0  0  0  0  0  0  0
   -1.8880    1.0830   -0.2240 C   0  0  0  0  0  0  0  0  0  0  0  0
   -1.2890    1.9530    0.6650 C   0  0  0  0  0  0  0  0  0  0  0  0
   -1.4170    3.3160    0.5690 C   0  0  0  0  0  0  0  0  0  0  0  0
   -2.1750    3.8350   -0.4590 C   0  0  0  0  0  0  0  0  0  0  0  0
   -2.8010    3.0200   -1.3820 C   0  0  0  0  0  0  0  0  0  0  0  0
   -3.5420    3.5210   -2.3900 F   0  0  0  0  0  0  0  0  0  0  0  0
   -2.6440    1.6630   -1.2440 C   0  0  0  0  0  0  0  0  0  0  0  0
   -2.7950   -1.3690   -0.2650 C   0  0  0  0  0  0  0  0  0  0  0  0
   -4.0220   -1.1680   -0.3370 O   0  0  0  0  0  0  0  0  0  0  0  0
  2  1  1  1
  2  3  1  0
  2  4  1  0
  2 24  1  0
  4  5  1  0
  5  6  1  0
  5 16  2  0
  6  7  2  0
  6 15  1  0
  7  8  1  0
  8  9  2  0
  9 10  1  0
  9 14  1  0
 10 11  1  6
 10 12  2  0
 10 13  2  0
 14 15  2  0
 16 17  1  0
 16 24  1  0
 17 18  2  0
 17 23  1  0
 18 19  1  0
 19 20  2  0
 20 21  1  0
 21 22  1  0
 21 23  2  0
 24 25  2  0
M  END
