
     RDKit          3D

 24 26  0  0  0  0  0  0  0  0999 V2000
   -6.6090    2.0190    0.3000 C   0  0  0  0  0  0  0  0  0  0  0  0
   -5.2000    1.4890    0.2400 C   0  0  0  0  0  0  0  0  0  0  0  0
   -3.7530    2.3500    0.4560 S   0  0  0  0  0  0  0  0  0  0  0  0
   -2.5960    0.9490    0.2200 C   0  0  0  0  0  0  0  0  0  0  0  0
   -1.1990    1.1610    0.3340 N   0  0  0  0  0  0  0  0  0  0  0  0
   -0.1460    0.3220   -0.0260 C   0  0  0  0  0  0  0  0  0  0  0  0
   -0.4340   -0.7830   -0.5560 O   0  0  0  0  0  0  0  0  0  0  0  0
    1.2890    0.6270    0.1640 C   0  0  0  0  0  0  0  0  0  0  0  0
    1.6670    1.7940    0.7520 C   0  0  0  0  0  0  0  0  0  0  0  0
    3.0180    2.0410    0.9120 C   0  0  0  0  0  0  0  0  0  0  0  0
    3.3690    3.1140    1.4520 O   0  0  0  0  0  0  0  0  0  0  0  0
    3.9190    1.0990    0.4720 C   0  0  0  0  0  0  0  0  0  0  0  0
    5.3750    1.3720    0.6300 C   0  0  0  0  0  0  0  0  0  0  0  0
    3.4830   -0.0660   -0.1160 C   0  0  0  0  0  0  0  0  0  0  0  0
    4.4610   -1.1020   -0.5970 C   0  0  2  0  0  0  0  0  0  0  0  0
    3.8010   -2.1200   -1.4800 C   0  0  0  0  0  0  0  0  0  0  0  0
    4.9580   -1.8440    0.6530 C   0  0  0  0  0  0  0  0  0  0  0  0
    2.1960   -0.2500   -0.2440 O   0  0  0  0  0  0  0  0  0  0  0  0
   -3.4590   -0.0510    0.0010 C   0  0  0  0  0  0  0  0  0  0  0  0
   -4.7870    0.1800   -0.0010 C   0  0  0  0  0  0  0  0  0  0  0  0
   -5.5750   -1.1010   -0.3080 C   0  0  0  0  0  0  0  0  0  0  0  0
   -4.4860   -1.8740   -1.0770 C   0  0  0  0  0  0  0  0  0  0  0  0
   -3.3180   -1.5420   -0.1820 C   0  0  0  0  0  0  0  0  0  0  0  0
   -2.5100   -2.3380    0.2500 O   0  0  0  0  0  0  0  0  0  0  0  0
  1  2  1  0
  2  3  1  0
  2 20  2  0
  3  4  1  0
  4  5  1  0
  4 19  2  0
  5  6  1  0
  6  7  2  0
  6  8  1  0
  8  9  2  0
  8 18  1  0
  9 10  1  0
 10 11  2  0
 10 12  1  0
 12 13  1  0
 12 14  2  0
 14 15  1  0
 14 18  1  0
 15 16  1  6
 15 17  1  0
 19 20  1  0
 19 23  1  0
 20 21  1  0
 21 22  1  0
 22 23  1  0
 23 24  2  0
M  END
