
     RDKit          3D

 24 26  0  0  0  0  0  0  0  0999 V2000
   -7.0590    2.2130   -0.5580 C   0  0  0  0  0  0  0  0  0  0  0  0
   -5.8850    1.3730   -0.2040 C   0  0  0  0  0  0  0  0  0  0  0  0
   -5.7400    0.2530    0.5650 C   0  0  0  0  0  0  0  0  0  0  0  0
   -4.5250   -0.2860    0.7030 C   0  0  0  0  0  0  0  0  0  0  0  0
   -3.4590    0.2810    0.0860 C   0  0  0  0  0  0  0  0  0  0  0  0
   -4.1800    1.6660   -0.7550 S   0  0  0  0  0  0  0  0  0  0  0  0
   -2.0750   -0.1760    0.1450 C   0  0  0  0  0  0  0  0  0  0  0  0
   -1.2030    0.4940   -0.5540 C   0  0  0  0  0  0  0  0  0  0  0  0
    0.2200    0.2340   -0.6440 C   0  0  0  0  0  0  0  0  0  0  0  0
    1.0130    0.2050    0.4730 C   0  0  0  0  0  0  0  0  0  0  0  0
    2.3640   -0.0730    0.3480 C   0  0  0  0  0  0  0  0  0  0  0  0
    2.8900   -0.3140   -0.8880 C   0  0  0  0  0  0  0  0  0  0  0  0
    4.3030   -0.6130   -1.0330 C   0  0  0  0  0  0  0  0  0  0  0  0
    4.7400   -0.9080   -2.1700 O   0  0  0  0  0  0  0  0  0  0  0  0
    5.2160   -0.5750    0.1070 C   0  0  2  0  0  0  0  0  0  0  0  0
    5.3270    0.7850    0.7490 C   0  0  0  0  0  0  0  0  0  0  0  0
    6.6200   -1.0400   -0.3000 C   0  0  0  0  0  0  0  0  0  0  0  0
    2.0430   -0.2720   -1.9870 C   0  0  0  0  0  0  0  0  0  0  0  0
    2.5290   -0.4940   -3.1240 O   0  0  0  0  0  0  0  0  0  0  0  0
    0.7410   -0.0060   -1.8810 N   0  0  0  0  0  0  0  0  0  0  0  0
   -1.8270   -1.3530    0.9500 C   0  0  0  0  0  0  0  0  0  0  0  0
   -0.6650   -1.8200    1.0510 O   0  0  0  0  0  0  0  0  0  0  0  0
   -2.9190   -1.8980    1.5650 O   0  0  0  0  0  0  0  0  0  0  0  0
   -4.2240   -1.5360    1.5240 C   0  0  0  0  0  0  0  0  0  0  0  0
  1  2  1  0
  2  3  2  0
  2  6  1  0
  3  4  1  0
  4  5  2  0
  4 24  1  0
  5  6  1  0
  5  7  1  0
  7  8  2  3
  7 21  1  0
  8  9  1  0
  9 10  2  0
  9 20  1  0
 10 11  1  0
 11 12  2  0
 12 13  1  0
 12 18  1  0
 13 14  2  0
 13 15  1  0
 15 16  1  6
 15 17  1  0
 18 19  2  0
 18 20  1  0
 21 22  2  0
 21 23  1  0
 23 24  1  0
M  END
