
     RDKit          3D

 25 27  0  0  0  0  0  0  0  0999 V2000
    6.3370    0.9510   -1.0000 C   0  0  0  0  0  0  0  0  0  0  0  0
    5.9960    0.0250    0.1000 C   0  0  0  0  0  0  0  0  0  0  0  0
    6.9460   -0.4230    0.7890 O   0  0  0  0  0  0  0  0  0  0  0  0
    4.6470   -0.3840    0.4170 C   0  0  0  0  0  0  0  0  0  0  0  0
    3.5940    0.1190   -0.3560 C   0  0  0  0  0  0  0  0  0  0  0  0
    2.2990   -0.2500   -0.0810 C   0  0  0  0  0  0  0  0  0  0  0  0
    2.0780   -1.1190    0.9670 C   0  0  0  0  0  0  0  0  0  0  0  0
    3.1080   -1.6200    1.7340 C   0  0  0  0  0  0  0  0  0  0  0  0
    4.4140   -1.2520    1.4620 C   0  0  0  0  0  0  0  0  0  0  0  0
    5.4590   -1.7240    2.1940 F   0  0  0  0  0  0  0  0  0  0  0  0
    0.8060   -1.5880    1.3670 O   0  0  0  0  0  0  0  0  0  0  0  0
   -0.3630   -1.5500    0.5980 C   0  0  0  0  0  0  0  0  0  0  0  0
   -1.0500   -2.5870    0.4740 O   0  0  0  0  0  0  0  0  0  0  0  0
   -0.8730   -0.3100   -0.1230 C   0  0  0  0  0  0  0  0  0  0  0  0
   -2.2890   -0.1800   -0.1530 C   0  0  0  0  0  0  0  0  0  0  0  0
   -3.0560   -0.9490    0.6850 C   0  0  0  0  0  0  0  0  0  0  0  0
   -4.5080   -0.8480    0.6900 C   0  0  0  0  0  0  0  0  0  0  0  0
   -5.1900   -1.9130    0.5010 O   0  0  0  0  0  0  0  0  0  0  0  0
   -5.1990    0.4740    0.9140 C   0  0  2  0  0  0  0  0  0  0  0  0
   -6.6090    0.3690    0.4050 C   0  0  0  0  0  0  0  0  0  0  0  0
   -4.2680    1.6640   -0.1340 S   0  0  0  0  0  0  0  0  0  0  0  0
   -3.1340    0.5760   -1.0940 C   0  0  0  0  0  0  0  0  0  0  0  0
   -0.0930    0.4870   -0.8020 C   0  0  0  0  0  0  0  0  0  0  0  0
   -0.6610    1.6800   -1.4660 C   0  0  0  0  0  0  0  0  0  0  0  0
    1.3570    0.3640   -0.9720 N   0  0  0  0  0  0  0  0  0  0  0  0
  1  2  1  0
  2  3  2  0
  2  4  1  0
  4  5  2  0
  4  9  1  0
  5  6  1  0
  6  7  2  0
  6 25  1  0
  7  8  1  0
  7 11  1  0
  8  9  2  0
  9 10  1  0
 11 12  1  0
 12 13  2  0
 12 14  1  0
 14 15  1  0
 14 23  2  0
 15 16  2  0
 15 22  1  0
 16 17  1  0
 17 18  2  0
 17 19  1  0
 19 20  1  6
 19 21  1  0
 21 22  1  0
 23 24  1  0
 23 25  1  0
M  END
