
     RDKit          3D

 32 34  0  0  0  0  0  0  0  0999 V2000
   -4.4970   -3.4080   -0.7910 C   0  0  0  0  0  0  0  0  0  0  0  0
   -4.1190   -2.5160    0.3800 C   0  0  2  0  0  0  0  0  0  0  0  0
   -3.9520   -3.2810    1.5170 O   0  0  0  0  0  0  0  0  0  0  0  0
   -5.1510   -1.6340    0.5790 O   0  0  0  0  0  0  0  0  0  0  0  0
   -2.9050   -1.9010    0.0990 O   0  0  0  0  0  0  0  0  0  0  0  0
   -2.9620   -1.1610   -0.9870 O   0  0  0  0  0  0  0  0  0  0  0  0
   -1.8950   -0.2230   -0.8530 C   0  0  1  0  0  0  0  0  0  0  0  0
   -2.1900    0.5400    0.4000 C   0  0  0  0  0  0  0  0  0  0  0  0
   -2.1720    1.9330    0.0700 N   0  0  0  0  0  0  0  0  0  0  0  0
   -2.0690    2.9730    1.0550 C   0  0  0  0  0  0  0  0  0  0  0  0
   -1.1800    3.0040    2.0210 C   0  0  0  0  0  0  0  0  0  0  0  0
   -0.1470    2.0370    2.2940 C   0  0  0  0  0  0  0  0  0  0  0  0
   -0.1180    1.5090    3.4620 O   0  0  0  0  0  0  0  0  0  0  0  0
    0.8350    1.6120    1.4130 O   0  0  0  0  0  0  0  0  0  0  0  0
    1.7330    2.6670    0.3350 P   0  0  0  0  0  0  0  0  0  0  0  0
    0.6890    2.8640   -1.1100 O   0  0  0  0  0  0  0  0  0  0  0  0
    0.8740    1.8090   -2.0460 C   0  0  0  0  0  0  0  0  0  0  0  0
    1.1910    0.6690   -1.5040 C   0  0  0  0  0  0  0  0  0  0  0  0
    0.4670   -0.5210   -1.5110 O   0  0  0  0  0  0  0  0  0  0  0  0
   -0.5940   -0.9290   -0.8110 C   0  0  0  0  0  0  0  0  0  0  0  0
   -0.5340   -1.9500   -0.0740 O   0  0  0  0  0  0  0  0  0  0  0  0
    2.5020    0.5060   -0.7400 C   0  0  1  0  0  0  0  0  0  0  0  0
    2.1950   -0.2130    0.4150 O   0  0  0  0  0  0  0  0  0  0  0  0
    3.6050   -0.5230   -1.7910 P   0  0  0  0  0  0  0  0  0  0  0  0
    5.0110   -1.0440   -0.9490 O   0  0  0  0  0  0  0  0  0  0  0  0
    5.8760    0.0290   -0.7480 C   0  0  0  0  0  0  0  0  0  0  0  0
    7.0190   -0.3770   -0.0680 O   0  0  0  0  0  0  0  0  0  0  0  0
    6.6230   -0.8780    1.1250 N   0  0  0  0  0  0  0  0  0  0  0  0
    3.0430    1.6950   -0.3310 O   0  0  0  0  0  0  0  0  0  0  0  0
   -2.2750    1.9900   -1.3190 O   0  0  0  0  0  0  0  0  0  0  0  0
   -2.0150    0.7860   -1.9040 C   0  0  0  0  0  0  0  0  0  0  0  0
   -1.8950    0.5590   -3.1370 O   0  0  0  0  0  0  0  0  0  0  0  0
  2  1  1  6
  2  3  1  0
  2  4  1  0
  2  5  1  0
  5  6  1  0
  7  6  1  6
  7  8  1  0
  7 20  1  0
  7 31  1  0
  8  9  1  0
  9 10  1  0
  9 30  1  0
 10 11  2  0
 11 12  1  0
 12 13  2  0
 12 14  1  0
 14 15  1  0
 15 16  1  0
 15 29  1  0
 16 17  1  0
 17 18  2  0
 18 19  1  0
 18 22  1  0
 19 20  1  0
 20 21  2  0
 22 23  1  1
 22 24  1  0
 22 29  1  0
 24 25  1  0
 25 26  1  0
 26 27  1  0
 27 28  1  0
 30 31  1  0
 31 32  2  0
M  END
