
     RDKit          3D

 32 34  0  0  0  0  0  0  0  0999 V2000
    1.0350    2.1600    0.3080 C   0  0  0  0  0  0  0  0  0  0  0  0
    0.5720    0.7280    0.1120 C   0  0  1  0  0  0  0  0  0  0  0  0
    1.5880   -0.0820   -0.3810 O   0  0  0  0  0  0  0  0  0  0  0  0
    2.6210   -0.0490    0.5530 C   0  0  0  0  0  0  0  0  0  0  0  0
    3.7700   -0.9190    0.0720 C   0  0  1  0  0  0  0  0  0  0  0  0
    3.2930   -2.2200   -0.0700 O   0  0  0  0  0  0  0  0  0  0  0  0
    4.2030   -0.4480   -1.3000 C   0  0  0  0  0  0  0  0  0  0  0  0
    5.1560   -1.3220   -1.8200 O   0  0  0  0  0  0  0  0  0  0  0  0
    6.6560   -0.9510   -0.9920 P   0  0  0  0  0  0  0  0  0  0  0  0
    7.2550    0.5590   -1.6020 O   0  0  0  0  0  0  0  0  0  0  0  0
    6.2060   -0.6630    0.7030 O   0  0  0  0  0  0  0  0  0  0  0  0
    4.8690   -0.8730    1.0480 C   0  0  0  0  0  0  0  0  0  0  0  0
    4.5900   -1.0320    2.2650 O   0  0  0  0  0  0  0  0  0  0  0  0
    0.0590    0.1720    1.3550 N   0  0  0  0  0  0  0  0  0  0  0  0
   -1.1630    0.1520    1.6530 C   0  0  0  0  0  0  0  0  0  0  0  0
   -1.9400   -0.2790    2.7090 O   0  0  0  0  0  0  0  0  0  0  0  0
   -2.9140    0.6420    2.9360 O   0  0  0  0  0  0  0  0  0  0  0  0
   -2.9710    1.4840    1.8070 C   0  0  0  0  0  0  0  0  0  0  0  0
   -2.2140    0.7050    0.7340 C   0  0  2  0  0  0  0  0  0  0  0  0
   -3.1470   -0.2840    0.3110 O   0  0  0  0  0  0  0  0  0  0  0  0
   -4.1800    0.2340   -0.5040 C   0  0  0  0  0  0  0  0  0  0  0  0
   -4.2230    1.4530   -0.7960 O   0  0  0  0  0  0  0  0  0  0  0  0
   -5.2420   -0.6380   -1.0400 C   0  0  2  0  0  0  0  0  0  0  0  0
   -6.5230   -0.0650   -0.6260 N   0  0  0  0  0  0  0  0  0  0  0  0
   -5.1120   -1.9550   -0.6670 O   0  0  0  0  0  0  0  0  0  0  0  0
   -1.6940    1.3490   -0.2950 O   0  0  0  0  0  0  0  0  0  0  0  0
   -0.6020    0.7850   -0.8720 C   0  0  2  0  0  0  0  0  0  0  0  0
   -0.7220   -0.5180   -1.5200 C   0  0  0  0  0  0  0  0  0  0  0  0
    0.3700   -0.9620   -2.0440 O   0  0  0  0  0  0  0  0  0  0  0  0
   -1.7960   -1.3460   -1.6640 O   0  0  0  0  0  0  0  0  0  0  0  0
   -1.7300   -2.8960   -2.4890 P   0  0  0  0  0  0  0  0  0  0  0  0
   -2.2950   -4.1960   -1.8870 O   0  0  0  0  0  0  0  0  0  0  0  0
  2  1  1  1
  2  3  1  0
  2 14  1  0
  2 27  1  0
  3  4  1  0
  4  5  1  0
  5  6  1  6
  5  7  1  0
  5 12  1  0
  7  8  1  0
  8  9  1  0
  9 10  1  0
  9 11  1  0
 11 12  1  0
 12 13  2  0
 14 15  2  0
 15 16  1  0
 15 19  1  0
 16 17  1  0
 17 18  1  0
 18 19  1  0
 19 20  1  6
 19 26  1  0
 20 21  1  0
 21 22  2  0
 21 23  1  0
 23 24  1  1
 23 25  1  0
 26 27  1  0
 27 28  1  1
 28 29  2  0
 28 30  1  0
 30 31  1  0
 31 32  2  0
M  END
