
     RDKit          3D

 32 34  0  0  0  0  0  0  0  0999 V2000
    6.4840    0.9240    2.2500 C   0  0  0  0  0  0  0  0  0  0  0  0
    5.1360    0.7050    2.0530 O   0  0  0  0  0  0  0  0  0  0  0  0
    4.9650    0.2450    0.7390 C   0  0  2  0  0  0  0  0  0  0  0  0
    5.6670   -0.9300    0.5480 O   0  0  0  0  0  0  0  0  0  0  0  0
    5.4750    1.1950   -0.1470 O   0  0  0  0  0  0  0  0  0  0  0  0
    3.4720    0.0500    0.4440 C   0  0  1  0  0  0  0  0  0  0  0  0
    2.8580    1.2670    0.6060 O   0  0  0  0  0  0  0  0  0  0  0  0
    1.5750    1.1400    0.9580 O   0  0  0  0  0  0  0  0  0  0  0  0
    1.0820   -0.4170    0.3740 P   0  0  0  0  0  0  0  0  0  0  0  0
   -0.6630   -0.5330    0.1280 N   0  0  0  0  0  0  0  0  0  0  0  0
   -1.5410    0.5590   -0.1130 C   0  0  0  0  0  0  0  0  0  0  0  0
   -2.7690    0.2510    0.2810 C   0  0  0  0  0  0  0  0  0  0  0  0
   -3.7960    1.1730    0.1410 O   0  0  0  0  0  0  0  0  0  0  0  0
   -3.7240    2.2720   -0.7450 C   0  0  2  0  0  0  0  0  0  0  0  0
   -4.2350    1.9500   -2.1180 C   0  0  0  0  0  0  0  0  0  0  0  0
   -2.4120    2.8050   -0.8110 O   0  0  0  0  0  0  0  0  0  0  0  0
   -1.3640    1.9040   -0.6850 C   0  0  0  0  0  0  0  0  0  0  0  0
   -0.1870    2.2180   -1.0690 O   0  0  0  0  0  0  0  0  0  0  0  0
   -2.7480   -1.1370    0.8290 C   0  0  2  0  0  0  0  0  0  0  0  0
   -3.9990   -1.8560    0.6060 C   0  0  0  0  0  0  0  0  0  0  0  0
   -4.4660   -2.0580   -0.4920 O   0  0  0  0  0  0  0  0  0  0  0  0
   -2.4500   -1.0190    2.1910 O   0  0  0  0  0  0  0  0  0  0  0  0
   -3.3420   -0.3070    2.8110 O   0  0  0  0  0  0  0  0  0  0  0  0
   -3.9070   -1.0910    3.7600 N   0  0  0  0  0  0  0  0  0  0  0  0
   -1.5420   -1.7110    0.1190 C   0  0  1  0  0  0  0  0  0  0  0  0
   -1.8610   -1.9970   -1.3170 C   0  0  0  0  0  0  0  0  0  0  0  0
   -2.5130   -0.9160   -1.9000 O   0  0  0  0  0  0  0  0  0  0  0  0
    2.0540   -0.7470   -1.1740 C   0  0  1  0  0  0  0  0  0  0  0  0
    1.6720    0.0350   -2.2330 O   0  0  0  0  0  0  0  0  0  0  0  0
    1.3240   -0.8350   -3.6740 P   0  0  0  0  0  0  0  0  0  0  0  0
    2.1470   -0.7030   -4.9740 O   0  0  0  0  0  0  0  0  0  0  0  0
    3.4010   -0.4610   -0.8430 O   0  0  0  0  0  0  0  0  0  0  0  0
  1  2  1  0
  2  3  1  0
  3  4  1  1
  3  5  1  0
  3  6  1  0
  6  7  1  6
  6 32  1  0
  7  8  1  0
  8  9  1  0
  9 10  1  0
  9 28  1  0
 10 11  1  0
 10 25  1  0
 11 12  2  0
 11 17  1  0
 12 13  1  0
 12 19  1  0
 13 14  1  0
 14 15  1  6
 14 16  1  0
 16 17  1  0
 17 18  2  0
 19 20  1  0
 19 22  1  1
 19 25  1  0
 20 21  2  0
 22 23  1  0
 23 24  1  0
 25 26  1  6
 26 27  1  0
 28 29  1  6
 28 32  1  0
 29 30  1  0
 30 31  2  0
M  END
