
     RDKit          3D

 32 34  0  0  0  0  0  0  0  0999 V2000
    6.2670    0.5390    1.7860 C   0  0  0  0  0  0  0  0  0  0  0  0
    5.8490   -0.0320    0.6730 C   0  0  0  0  0  0  0  0  0  0  0  0
    6.6640   -1.0180    0.0130 C   0  0  0  0  0  0  0  0  0  0  0  0
    6.2830   -1.5730   -1.0490 O   0  0  0  0  0  0  0  0  0  0  0  0
    7.8830   -1.3760    0.5300 O   0  0  0  0  0  0  0  0  0  0  0  0
    4.5580    0.3270    0.0990 C   0  0  0  0  0  0  0  0  0  0  0  0
    4.1270   -0.1930   -0.9560 O   0  0  0  0  0  0  0  0  0  0  0  0
    3.7680    1.2760    0.7300 O   0  0  0  0  0  0  0  0  0  0  0  0
    2.5300    1.6160    0.1730 C   0  0  0  0  0  0  0  0  0  0  0  0
    1.6070    0.4640    0.0680 C   0  0  0  0  0  0  0  0  0  0  0  0
    1.9530   -0.6670    0.4530 O   0  0  0  0  0  0  0  0  0  0  0  0
    0.2870    0.6850   -0.4960 C   0  0  0  0  0  0  0  0  0  0  0  0
   -0.0750    1.8350   -0.8920 O   0  0  0  0  0  0  0  0  0  0  0  0
   -0.6560   -0.3210   -0.6410 O   0  0  0  0  0  0  0  0  0  0  0  0
   -1.9500   -0.1380   -1.1860 C   0  0  1  0  0  0  0  0  0  0  0  0
   -1.8190    0.4990   -2.9540 P   0  0  0  0  0  0  0  0  0  0  0  0
   -0.2670   -0.0500   -3.5420 O   0  0  0  0  0  0  0  0  0  0  0  0
   -1.9320    2.2090   -3.0040 O   0  0  0  0  0  0  0  0  0  0  0  0
   -2.4930   -1.4080   -1.3000 O   0  0  0  0  0  0  0  0  0  0  0  0
   -2.7090   -2.0530   -0.1180 C   0  0  2  0  0  0  0  0  0  0  0  0
   -1.6210   -2.1260    0.7150 O   0  0  0  0  0  0  0  0  0  0  0  0
   -1.8380   -2.7390    1.8320 O   0  0  0  0  0  0  0  0  0  0  0  0
   -3.3440   -3.3120   -0.3920 N   0  0  0  0  0  0  0  0  0  0  0  0
   -4.7130   -3.3170   -0.3990 C   0  0  0  0  0  0  0  0  0  0  0  0
   -5.3610   -2.3410    0.0930 N   0  0  0  0  0  0  0  0  0  0  0  0
   -4.1590   -1.1680    0.6900 P   0  0  0  0  0  0  0  0  0  0  0  0
   -4.2400    0.4410   -0.2830 C   0  0  0  0  0  0  0  0  0  0  0  0
   -2.7880    0.8430   -0.4470 C   0  0  2  0  0  0  0  0  0  0  0  0
   -2.6840    2.1380   -0.9700 O   0  0  0  0  0  0  0  0  0  0  0  0
   -2.9540    2.9230    0.1460 C   0  0  0  0  0  0  0  0  0  0  0  0
   -2.3710    2.2310    1.1770 O   0  0  0  0  0  0  0  0  0  0  0  0
   -2.2770    0.9780    0.8610 O   0  0  0  0  0  0  0  0  0  0  0  0
  1  2  2  0
  2  3  1  0
  2  6  1  0
  3  4  2  0
  3  5  1  0
  6  7  2  0
  6  8  1  0
  8  9  1  0
  9 10  1  0
 10 11  2  0
 10 12  1  0
 12 13  2  0
 12 14  1  0
 15 14  1  1
 15 16  1  0
 15 19  1  0
 15 28  1  0
 16 17  1  0
 16 18  1  0
 19 20  1  0
 20 21  1  1
 20 23  1  0
 20 26  1  0
 21 22  1  0
 23 24  1  0
 24 25  2  0
 25 26  1  0
 26 27  1  0
 28 27  1  1
 28 29  1  0
 28 32  1  0
 29 30  1  0
 30 31  1  0
 31 32  1  0
M  END
