
     RDKit          3D

 32 33  0  0  0  0  0  0  0  0999 V2000
    1.7210    0.3670   -1.8050 C   0  0  0  0  0  0  0  0  0  0  0  0
    1.1330    0.5050   -0.4140 C   0  0  1  0  0  0  0  0  0  0  0  0
    2.3650    0.7070    0.4870 C   0  0  0  0  0  0  0  0  0  0  0  0
    3.1040   -0.4440    0.4590 O   0  0  0  0  0  0  0  0  0  0  0  0
    4.5230   -0.3980    1.4130 P   0  0  0  0  0  0  0  0  0  0  0  0
    5.6920    0.7420    0.8480 O   0  0  0  0  0  0  0  0  0  0  0  0
    5.2660   -1.9870    1.3270 O   0  0  0  0  0  0  0  0  0  0  0  0
    0.3090    1.6340   -0.4640 O   0  0  0  0  0  0  0  0  0  0  0  0
   -0.0630    2.5100    0.5340 C   0  0  0  0  0  0  0  0  0  0  0  0
    0.1790    3.7710    0.2220 N   0  0  0  0  0  0  0  0  0  0  0  0
   -0.0760    4.8380    0.9920 O   0  0  0  0  0  0  0  0  0  0  0  0
    0.6600    5.9430    0.8400 O   0  0  0  0  0  0  0  0  0  0  0  0
   -0.6550    2.1880    1.8110 C   0  0  0  0  0  0  0  0  0  0  0  0
   -1.7810    1.5830    2.0940 C   0  0  0  0  0  0  0  0  0  0  0  0
   -2.8050    1.0370    1.2420 C   0  0  0  0  0  0  0  0  0  0  0  0
   -4.0060    1.5270    1.3180 O   0  0  0  0  0  0  0  0  0  0  0  0
   -2.6960   -0.0490    0.2460 C   0  0  2  0  0  0  0  0  0  0  0  0
   -2.4050    0.3810   -1.0400 O   0  0  0  0  0  0  0  0  0  0  0  0
   -3.5980    1.0090   -1.4000 C   0  0  0  0  0  0  0  0  0  0  0  0
   -4.5470    0.1730   -0.8630 O   0  0  0  0  0  0  0  0  0  0  0  0
   -3.9700   -0.6250   -0.0130 O   0  0  0  0  0  0  0  0  0  0  0  0
   -1.8720   -1.1930    0.7100 C   0  0  0  0  0  0  0  0  0  0  0  0
   -1.3840   -1.1020    1.8200 O   0  0  0  0  0  0  0  0  0  0  0  0
   -1.6400   -2.3810   -0.0960 C   0  0  2  0  0  0  0  0  0  0  0  0
   -2.0110   -3.6180    0.7410 C   0  0  0  0  0  0  0  0  0  0  0  0
   -3.2710   -3.3940    1.3440 O   0  0  0  0  0  0  0  0  0  0  0  0
   -0.4440   -2.5100   -0.7150 O   0  0  0  0  0  0  0  0  0  0  0  0
    0.6320   -1.8040   -0.2220 C   0  0  2  0  0  0  0  0  0  0  0  0
    1.7450   -2.1190   -1.1000 N   0  0  0  0  0  0  0  0  0  0  0  0
    1.1070   -2.6540    1.3970 P   0  0  0  0  0  0  0  0  0  0  0  0
    1.4840   -1.8760    2.6610 O   0  0  0  0  0  0  0  0  0  0  0  0
    0.4390   -0.5220    0.0550 O   0  0  0  0  0  0  0  0  0  0  0  0
  2  1  1  6
  2  3  1  0
  2  8  1  0
  2 32  1  0
  3  4  1  0
  4  5  1  0
  5  6  1  0
  5  7  1  0
  8  9  1  0
  9 10  2  3
  9 13  1  0
 10 11  1  0
 11 12  1  0
 13 14  2  0
 14 15  1  0
 15 16  2  0
 15 17  1  0
 17 18  1  6
 17 21  1  0
 17 22  1  0
 18 19  1  0
 19 20  1  0
 20 21  1  0
 22 23  2  0
 22 24  1  0
 24 25  1  1
 24 27  1  0
 25 26  1  0
 27 28  1  0
 28 29  1  6
 28 30  1  0
 28 32  1  0
 30 31  2  0
M  END
