
     RDKit          3D

 32 35  0  0  0  0  0  0  0  0999 V2000
   -2.1330    4.0430   -0.6850 C   0  0  0  0  0  0  0  0  0  0  0  0
   -1.1040    3.0990   -0.6830 O   0  0  0  0  0  0  0  0  0  0  0  0
   -1.6980    1.4860   -0.9590 P   0  0  0  0  0  0  0  0  0  0  0  0
   -3.3330    1.6440   -1.5210 O   0  0  0  0  0  0  0  0  0  0  0  0
   -1.6020    0.6220    0.6000 N   0  0  0  0  0  0  0  0  0  0  0  0
   -2.4230    1.1690    1.6470 C   0  0  0  0  0  0  0  0  0  0  0  0
   -3.0560    2.2460    1.5020 O   0  0  0  0  0  0  0  0  0  0  0  0
   -2.5370    0.5070    2.8670 O   0  0  0  0  0  0  0  0  0  0  0  0
   -1.8250   -0.6300    3.0150 O   0  0  0  0  0  0  0  0  0  0  0  0
   -0.6420   -0.5190    2.3770 N   0  0  0  0  0  0  0  0  0  0  0  0
   -0.8210   -0.5240    0.9060 C   0  0  2  0  0  0  0  0  0  0  0  0
    0.5320   -0.5920    0.3640 C   0  0  0  0  0  0  0  0  0  0  0  0
    1.2570    0.5870   -0.2010 C   0  0  0  0  0  0  0  0  0  0  0  0
    1.3970    1.5900    0.7550 O   0  0  0  0  0  0  0  0  0  0  0  0
    2.0240    2.6480    0.3000 O   0  0  0  0  0  0  0  0  0  0  0  0
    3.3660    2.1780   -0.6880 P   0  0  0  0  0  0  0  0  0  0  0  0
    4.6560    1.2500    0.2760 C   0  0  0  0  0  0  0  0  0  0  0  0
    4.0820    3.6410   -1.3330 O   0  0  0  0  0  0  0  0  0  0  0  0
    1.1530   -1.7560    0.3760 C   0  0  0  0  0  0  0  0  0  0  0  0
    2.8650   -1.8780   -0.2970 P   0  0  0  0  0  0  0  0  0  0  0  0
    2.8420   -2.3790   -1.9590 O   0  0  0  0  0  0  0  0  0  0  0  0
    3.8380   -2.9260    0.6720 O   0  0  0  0  0  0  0  0  0  0  0  0
    0.6080   -2.9460    0.8690 O   0  0  0  0  0  0  0  0  0  0  0  0
   -0.7020   -2.8520    1.3800 C   0  0  0  0  0  0  0  0  0  0  0  0
   -1.1190   -3.5250    2.3240 O   0  0  0  0  0  0  0  0  0  0  0  0
   -1.5180   -1.8280    0.6250 C   0  0  1  0  0  0  0  0  0  0  0  0
   -2.9540   -1.8890    0.9680 C   0  0  0  0  0  0  0  0  0  0  0  0
   -3.4750   -2.8680    0.1010 O   0  0  0  0  0  0  0  0  0  0  0  0
   -2.7780   -2.8180   -1.0750 C   0  0  2  0  0  0  0  0  0  0  0  0
   -1.5030   -3.5720   -1.0650 O   0  0  0  0  0  0  0  0  0  0  0  0
   -1.4930   -2.2030   -0.8370 C   0  0  2  0  0  0  0  0  0  0  0  0
   -0.9720   -1.3280   -1.7590 O   0  0  0  0  0  0  0  0  0  0  0  0
  1  2  1  0
  2  3  1  0
  3  4  1  0
  3  5  1  0
  5  6  1  0
  5 11  1  0
  6  7  2  0
  6  8  1  0
  8  9  1  0
  9 10  1  0
 11 10  1  1
 11 12  1  0
 11 26  1  0
 12 13  1  0
 12 19  2  0
 13 14  1  0
 14 15  1  0
 15 16  1  0
 16 17  1  0
 16 18  1  0
 19 20  1  0
 19 23  1  0
 20 21  1  0
 20 22  1  0
 23 24  1  0
 24 25  2  0
 24 26  1  0
 26 27  1  1
 26 31  1  0
 27 28  1  0
 29 28  1  1
 29 30  1  0
 29 31  1  0
 30 31  1  0
 31 32  1  6
M  END
