
     RDKit          3D

 31 32  0  0  0  0  0  0  0  0999 V2000
   -3.1780   -1.7200    1.5580 C   0  0  0  0  0  0  0  0  0  0  0  0
   -3.4460   -0.5520    0.6560 C   0  0  2  0  0  0  0  0  0  0  0  0
   -3.7110    0.6270    1.4350 N   0  0  0  0  0  0  0  0  0  0  0  0
   -4.8140   -0.8910    0.0080 C   0  0  0  0  0  0  0  0  0  0  0  0
   -4.5800   -2.0360   -0.7550 O   0  0  0  0  0  0  0  0  0  0  0  0
   -2.6030   -0.3340   -0.3400 O   0  0  0  0  0  0  0  0  0  0  0  0
   -1.2950   -0.1050   -0.2230 C   0  0  1  0  0  0  0  0  0  0  0  0
   -0.7660   -0.1250   -1.6930 C   0  0  0  0  0  0  0  0  0  0  0  0
    0.6640    0.2680   -1.7920 C   0  0  1  0  0  0  0  0  0  0  0  0
    0.8540    1.5880   -2.1430 O   0  0  0  0  0  0  0  0  0  0  0  0
    1.8330    1.7380   -3.5410 P   0  0  0  0  0  0  0  0  0  0  0  0
    1.2830    0.1080   -0.3850 C   0  0  1  0  0  0  0  0  0  0  0  0
    2.6550    0.1860   -0.4300 O   0  0  0  0  0  0  0  0  0  0  0  0
    3.5410    0.1880    0.6120 C   0  0  0  0  0  0  0  0  0  0  0  0
    3.0550    0.1310    1.7890 O   0  0  0  0  0  0  0  0  0  0  0  0
    5.0230    0.2540    0.4210 C   0  0  0  0  0  0  0  0  0  0  0  0
    5.7060    0.2410    1.6980 N   0  0  0  0  0  0  0  0  0  0  0  0
    0.6570    1.2010    0.4200 C   0  0  0  0  0  0  0  0  0  0  0  0
    1.2430    2.0090    1.1400 O   0  0  0  0  0  0  0  0  0  0  0  0
   -0.8220    1.2130    0.2550 C   0  0  0  0  0  0  0  0  0  0  0  0
   -1.7200    2.5440    0.5550 P   0  0  0  0  0  0  0  0  0  0  0  0
   -0.9760    4.1070    1.1460 C   0  0  0  0  0  0  0  0  0  0  0  0
   -0.3630    4.8570    0.3520 O   0  0  0  0  0  0  0  0  0  0  0  0
   -1.0600    4.5130    2.4670 O   0  0  0  0  0  0  0  0  0  0  0  0
    0.7190   -1.2580    0.0260 C   0  0  1  0  0  0  0  0  0  0  0  0
    0.6450   -2.0140   -1.2000 O   0  0  0  0  0  0  0  0  0  0  0  0
    0.1650   -3.2110   -0.9290 O   0  0  0  0  0  0  0  0  0  0  0  0
    1.5290   -2.0150    0.8120 O   0  0  0  0  0  0  0  0  0  0  0  0
    2.6620   -2.3840    0.3020 O   0  0  0  0  0  0  0  0  0  0  0  0
    2.7040   -2.5120   -0.9890 O   0  0  0  0  0  0  0  0  0  0  0  0
   -0.5840   -1.1250    0.4130 O   0  0  0  0  0  0  0  0  0  0  0  0
  2  1  1  1
  2  3  1  0
  2  4  1  0
  2  6  1  0
  4  5  1  0
  7  6  1  6
  7  8  1  0
  7 20  1  0
  7 31  1  0
  8  9  1  0
  9 10  1  1
  9 12  1  0
 10 11  1  0
 12 13  1  6
 12 18  1  0
 12 25  1  0
 13 14  1  0
 14 15  2  0
 14 16  1  0
 16 17  1  0
 18 19  2  0
 18 20  1  0
 20 21  2  3
 21 22  1  0
 22 23  2  0
 22 24  1  0
 25 26  1  6
 25 28  1  0
 25 31  1  0
 26 27  1  0
 28 29  1  0
 29 30  1  0
M  END
