
     RDKit          3D

 26 29  0  0  0  0  0  0  0  0999 V2000
    4.7670    1.4370    0.4660 C   0  0  0  0  0  0  0  0  0  0  0  0
    4.4050    0.7020   -0.6060 C   0  0  0  0  0  0  0  0  0  0  0  0
    4.5400    1.2560   -1.9710 C   0  0  0  0  0  0  0  0  0  0  0  0
    4.0870    0.2640   -2.9580 C   0  0  0  0  0  0  0  0  0  0  0  0
    3.6390   -0.9060   -2.7030 N   0  0  0  0  0  0  0  0  0  0  0  0
    3.5240   -1.4010   -1.3710 C   0  0  0  0  0  0  0  0  0  0  0  0
    2.8970   -3.0420   -1.0560 S   0  0  0  0  0  0  0  0  0  0  0  0
    2.9010   -3.2700    0.7630 C   0  0  0  0  0  0  0  0  0  0  0  0
    1.8950   -2.3220    1.3490 C   0  0  0  0  0  0  0  0  0  0  0  0
    0.6060   -2.5870    1.5670 N   0  0  0  0  0  0  0  0  0  0  0  0
    0.0480   -1.4690    2.1040 C   0  0  0  0  0  0  0  0  0  0  0  0
   -1.3410   -1.2430    2.5240 C   0  0  0  0  0  0  0  0  0  0  0  0
   -2.2010   -0.7070    1.4250 C   0  0  0  0  0  0  0  0  0  0  0  0
   -2.5600    0.6240    1.3980 C   0  0  0  0  0  0  0  0  0  0  0  0
   -3.3590    1.1540    0.3890 C   0  0  0  0  0  0  0  0  0  0  0  0
   -3.8320    2.3520    0.1370 O   0  0  0  0  0  0  0  0  0  0  0  0
   -4.5530    2.3540   -0.9600 C   0  0  0  0  0  0  0  0  0  0  0  0
   -5.2660    3.5140   -1.5930 C   0  0  0  0  0  0  0  0  0  0  0  0
   -4.5430    1.0510   -1.4540 C   0  0  0  0  0  0  0  0  0  0  0  0
   -3.7820    0.2870   -0.5940 C   0  0  0  0  0  0  0  0  0  0  0  0
   -3.4440   -1.0220   -0.5900 N   0  0  0  0  0  0  0  0  0  0  0  0
   -2.6630   -1.5130    0.4070 C   0  0  0  0  0  0  0  0  0  0  0  0
   -2.3490   -2.7420    0.4040 O   0  0  0  0  0  0  0  0  0  0  0  0
    1.0200   -0.5610    2.1950 N   0  0  0  0  0  0  0  0  0  0  0  0
    2.1140   -1.0910    1.7390 O   0  0  0  0  0  0  0  0  0  0  0  0
    3.8970   -0.6050   -0.4380 N   0  0  0  0  0  0  0  0  0  0  0  0
  1  2  2  0
  2  3  1  0
  2 26  1  0
  3  4  1  0
  4  5  2  0
  5  6  1  0
  6  7  1  0
  6 26  2  0
  7  8  1  0
  8  9  1  0
  9 10  2  0
  9 25  1  0
 10 11  1  0
 11 12  1  0
 11 24  2  0
 12 13  1  0
 13 14  2  0
 13 22  1  0
 14 15  1  0
 15 16  1  0
 15 20  2  0
 16 17  1  0
 17 18  1  0
 17 19  2  0
 19 20  1  0
 20 21  1  0
 21 22  1  0
 22 23  2  0
 24 25  1  0
M  END
