
     RDKit          3D

 26 29  0  0  0  0  0  0  0  0999 V2000
   -2.2910    2.0160    1.6680 O   0  0  0  0  0  0  0  0  0  0  0  0
   -1.9120    1.1030    0.9080 C   0  0  0  0  0  0  0  0  0  0  0  0
   -0.5500    0.9850    0.8220 N   0  0  0  0  0  0  0  0  0  0  0  0
    0.0600    0.0780    0.0720 C   0  0  0  0  0  0  0  0  0  0  0  0
    1.5300   -0.0120    0.0110 C   0  0  0  0  0  0  0  0  0  0  0  0
    2.3230    0.8320    0.7240 C   0  0  0  0  0  0  0  0  0  0  0  0
    3.7260    0.7600    0.6760 C   0  0  0  0  0  0  0  0  0  0  0  0
    4.3330   -0.1890   -0.1090 C   0  0  0  0  0  0  0  0  0  0  0  0
    5.7530   -0.2260   -0.1260 N   0  0  0  0  0  0  0  0  0  0  0  0
    6.5760    0.7990   -0.4930 C   0  0  0  0  0  0  0  0  0  0  0  0
    7.8690    0.3390   -0.3640 C   0  0  0  0  0  0  0  0  0  0  0  0
    7.7760   -0.9260    0.0700 N   0  0  0  0  0  0  0  0  0  0  0  0
    6.5100   -1.2450    0.2050 N   0  0  0  0  0  0  0  0  0  0  0  0
    3.5420   -1.0430   -0.8290 C   0  0  0  0  0  0  0  0  0  0  0  0
    2.1490   -0.9620   -0.7750 C   0  0  0  0  0  0  0  0  0  0  0  0
   -0.7400   -0.7740   -0.6460 C   0  0  0  0  0  0  0  0  0  0  0  0
   -2.1420   -0.6650   -0.5690 C   0  0  0  0  0  0  0  0  0  0  0  0
   -2.7730    0.2710    0.2060 C   0  0  0  0  0  0  0  0  0  0  0  0
   -4.2140    0.4380    0.2580 C   0  0  0  0  0  0  0  0  0  0  0  0
   -4.8180    1.5600    0.8120 C   0  0  0  0  0  0  0  0  0  0  0  0
   -6.1780    1.3650    0.7340 C   0  0  0  0  0  0  0  0  0  0  0  0
   -6.3580    0.1480    0.1430 C   0  0  0  0  0  0  0  0  0  0  0  0
   -5.1430   -0.4260   -0.1510 N   0  0  0  0  0  0  0  0  0  0  0  0
   -5.0220   -2.0030   -0.8760 S   0  0  1  0  0  0  0  0  0  0  0  0
   -6.3600   -2.7350   -0.6130 O   0  0  0  0  0  0  0  0  0  0  0  0
   -4.9240   -1.9570   -2.3560 O   0  0  0  0  0  0  0  0  0  0  0  0
  1  2  2  0
  2  3  1  0
  2 18  1  0
  3  4  1  0
  4  5  1  0
  4 16  2  0
  5  6  2  0
  5 15  1  0
  6  7  1  0
  7  8  2  0
  8  9  1  0
  8 14  1  0
  9 10  1  0
  9 13  1  0
 10 11  2  0
 11 12  1  0
 12 13  2  0
 14 15  2  0
 16 17  1  0
 17 18  2  0
 18 19  1  0
 19 20  2  0
 19 23  1  0
 20 21  1  0
 21 22  2  0
 22 23  1  0
 24 23  1  6
 24 25  2  0
 24 26  2  0
M  END
