
     RDKit          3D

 26 29  0  0  0  0  0  0  0  0999 V2000
    8.2050    0.6030   -0.8500 C   0  0  0  0  0  0  0  0  0  0  0  0
    6.7520    0.9610   -1.0650 C   0  0  0  0  0  0  0  0  0  0  0  0
    6.0320    1.8620   -1.1260 N   0  0  0  0  0  0  0  0  0  0  0  0
    4.7390    1.9180   -1.3340 C   0  0  0  0  0  0  0  0  0  0  0  0
    4.1460    0.6500   -1.5120 C   0  0  0  0  0  0  0  0  0  0  0  0
    2.7450    0.2930   -1.7660 C   0  0  0  0  0  0  0  0  0  0  0  0
    2.1040    0.1140   -0.5150 O   0  0  0  0  0  0  0  0  0  0  0  0
    0.7680   -0.2310   -0.4170 C   0  0  0  0  0  0  0  0  0  0  0  0
    0.1340   -0.3820   -1.4880 O   0  0  0  0  0  0  0  0  0  0  0  0
    0.0780   -0.4230    0.8360 C   0  0  0  0  0  0  0  0  0  0  0  0
    0.7120   -0.2720    1.9960 C   0  0  0  0  0  0  0  0  0  0  0  0
    0.2640   -0.4040    3.3540 N   0  0  0  0  0  0  0  0  0  0  0  0
   -0.9550   -0.4300    3.7810 C   0  0  0  0  0  0  0  0  0  0  0  0
   -2.2120   -0.3370    3.0510 C   0  0  0  0  0  0  0  0  0  0  0  0
   -3.4550   -0.1100    3.5420 C   0  0  0  0  0  0  0  0  0  0  0  0
   -4.3000   -0.0780    2.5040 N   0  0  0  0  0  0  0  0  0  0  0  0
   -3.6350   -0.2780    1.3480 N   0  0  0  0  0  0  0  0  0  0  0  0
   -4.2490   -0.3460    0.0480 C   0  0  0  0  0  0  0  0  0  0  0  0
   -3.6070   -0.1750   -1.0620 C   0  0  0  0  0  0  0  0  0  0  0  0
   -4.2530   -0.2560   -2.3910 C   0  0  0  0  0  0  0  0  0  0  0  0
   -5.5400   -0.5160   -2.4110 C   0  0  0  0  0  0  0  0  0  0  0  0
   -6.2320   -0.6980   -1.2490 O   0  0  0  0  0  0  0  0  0  0  0  0
   -5.7240   -0.6500    0.0150 C   0  0  0  0  0  0  0  0  0  0  0  0
   -2.3660   -0.4420    1.6570 C   0  0  0  0  0  0  0  0  0  0  0  0
   -1.2960   -0.7820    0.7600 N   0  0  0  0  0  0  0  0  0  0  0  0
    5.5480   -0.4750   -1.3540 S   0  0  0  0  0  0  0  0  0  0  0  0
  1  2  1  0
  2  3  2  0
  2 26  1  0
  3  4  1  0
  4  5  2  0
  5  6  1  0
  5 26  1  0
  6  7  1  0
  7  8  1  0
  8  9  2  0
  8 10  1  0
 10 11  2  0
 10 25  1  0
 11 12  1  0
 12 13  2  0
 13 14  1  0
 14 15  1  0
 14 24  2  0
 15 16  2  0
 16 17  1  0
 17 18  1  0
 17 24  1  0
 18 19  2  0
 18 23  1  0
 19 20  1  0
 20 21  2  0
 21 22  1  0
 22 23  1  0
 24 25  1  0
M  END
