
     RDKit          3D

 26 29  0  0  0  0  0  0  0  0999 V2000
   -3.2950    4.3270   -0.9760 O   0  0  0  0  0  0  0  0  0  0  0  0
   -3.6560    3.2480    0.0320 S   0  0  1  0  0  0  0  0  0  0  0  0
   -5.1480    3.2760    0.1300 O   0  0  0  0  0  0  0  0  0  0  0  0
   -3.0770    1.7550   -0.5650 N   0  0  0  0  0  0  0  0  0  0  0  0
   -3.6330    0.4810   -0.2880 C   0  0  0  0  0  0  0  0  0  0  0  0
   -5.0210    0.2830   -0.2940 C   0  0  0  0  0  0  0  0  0  0  0  0
   -5.5940   -0.9470   -0.0560 C   0  0  0  0  0  0  0  0  0  0  0  0
   -4.7640   -2.0180    0.1960 C   0  0  0  0  0  0  0  0  0  0  0  0
   -3.4050   -1.8320    0.2040 C   0  0  0  0  0  0  0  0  0  0  0  0
   -2.8140   -0.5810   -0.0370 C   0  0  0  0  0  0  0  0  0  0  0  0
   -1.3700   -0.4440   -0.0030 C   0  0  0  0  0  0  0  0  0  0  0  0
   -0.5930    0.6230   -0.1670 N   0  0  0  0  0  0  0  0  0  0  0  0
    0.6770    0.3040   -0.0560 O   0  0  0  0  0  0  0  0  0  0  0  0
    0.7830   -0.9800    0.1840 C   0  0  0  0  0  0  0  0  0  0  0  0
    2.0260   -1.7650    0.3800 C   0  0  0  0  0  0  0  0  0  0  0  0
    2.0740   -3.1110    0.6290 C   0  0  0  0  0  0  0  0  0  0  0  0
    3.3790   -3.4770    0.7500 C   0  0  0  0  0  0  0  0  0  0  0  0
    4.1080   -2.3280    0.5690 C   0  0  0  0  0  0  0  0  0  0  0  0
    3.2640   -1.2760    0.3410 N   0  0  0  0  0  0  0  0  0  0  0  0
    3.6240    0.0680    0.1090 C   0  0  0  0  0  0  0  0  0  0  0  0
    4.3860    0.3990   -0.9790 C   0  0  0  0  0  0  0  0  0  0  0  0
    4.7610    1.7130   -1.2420 C   0  0  0  0  0  0  0  0  0  0  0  0
    4.3400    2.6870   -0.3670 C   0  0  0  0  0  0  0  0  0  0  0  0
    3.5730    2.3370    0.7240 C   0  0  0  0  0  0  0  0  0  0  0  0
    3.2250    1.0280    0.9460 N   0  0  0  0  0  0  0  0  0  0  0  0
   -0.4720   -1.4560    0.2200 N   0  0  0  0  0  0  0  0  0  0  0  0
  1  2  2  0
  2  3  2  0
  2  4  1  6
  4  5  1  0
  5  6  2  0
  5 10  1  0
  6  7  1  0
  7  8  2  0
  8  9  1  0
  9 10  2  0
 10 11  1  0
 11 12  2  0
 11 26  1  0
 12 13  1  0
 13 14  1  0
 14 15  1  0
 14 26  2  0
 15 16  2  0
 15 19  1  0
 16 17  1  0
 17 18  2  0
 18 19  1  0
 19 20  1  0
 20 21  2  0
 20 25  1  0
 21 22  1  0
 22 23  2  0
 23 24  1  0
 24 25  2  0
M  END
