
     RDKit          3D

 26 29  0  0  0  0  0  0  0  0999 V2000
    6.1430   -4.2940    0.5270 C   0  0  0  0  0  0  0  0  0  0  0  0
    5.5230   -2.9590    0.6930 C   0  0  0  0  0  0  0  0  0  0  0  0
    5.6080   -2.1650    1.7750 N   0  0  0  0  0  0  0  0  0  0  0  0
    4.9410   -1.0730    1.5660 O   0  0  0  0  0  0  0  0  0  0  0  0
    4.3980   -1.0940    0.3670 C   0  0  0  0  0  0  0  0  0  0  0  0
    3.5920   -0.0220   -0.1660 C   0  0  0  0  0  0  0  0  0  0  0  0
    2.9410    0.1840   -1.3470 C   0  0  0  0  0  0  0  0  0  0  0  0
    2.2950    1.3220   -1.4560 N   0  0  0  0  0  0  0  0  0  0  0  0
    2.1820    2.1920   -0.7120 C   0  0  0  0  0  0  0  0  0  0  0  0
    1.5870    3.5550   -0.4520 C   0  0  0  0  0  0  0  0  0  0  0  0
    0.2190    3.3070    0.1780 C   0  0  0  0  0  0  0  0  0  0  0  0
   -0.6540    2.5330   -0.7190 C   0  0  0  0  0  0  0  0  0  0  0  0
   -0.2120    2.1790   -1.8400 O   0  0  0  0  0  0  0  0  0  0  0  0
   -1.9650    2.2200   -0.2710 N   0  0  0  0  0  0  0  0  0  0  0  0
   -2.3360    0.9900   -0.1800 C   0  0  0  0  0  0  0  0  0  0  0  0
   -1.4510   -0.0460   -0.5210 N   0  0  0  0  0  0  0  0  0  0  0  0
   -1.8180   -1.4080   -0.7530 C   0  0  0  0  0  0  0  0  0  0  0  0
   -3.0430   -1.8650   -0.0210 C   0  0  0  0  0  0  0  0  0  0  0  0
   -3.9810   -0.7850    0.3390 C   0  0  0  0  0  0  0  0  0  0  0  0
   -5.1850   -1.1350    0.7490 C   0  0  0  0  0  0  0  0  0  0  0  0
   -6.1290   -0.1850    1.1070 O   0  0  0  0  0  0  0  0  0  0  0  0
   -5.9310    1.1950    1.0810 C   0  0  0  0  0  0  0  0  0  0  0  0
   -4.5650    1.5190    0.6140 C   0  0  0  0  0  0  0  0  0  0  0  0
   -3.6680    0.6200    0.2730 C   0  0  0  0  0  0  0  0  0  0  0  0
    3.2000    1.5290    0.7450 S   0  0  0  0  0  0  0  0  0  0  0  0
    4.7580   -2.2570   -0.1700 N   0  0  0  0  0  0  0  0  0  0  0  0
  1  2  1  0
  2  3  2  0
  2 26  1  0
  3  4  1  0
  4  5  1  0
  5  6  1  0
  5 26  2  0
  6  7  2  0
  6 25  1  0
  7  8  1  0
  8  9  2  0
  9 10  1  0
  9 25  1  0
 10 11  1  0
 11 12  1  0
 12 13  2  0
 12 14  1  0
 14 15  2  3
 15 16  1  0
 15 24  1  0
 16 17  1  0
 17 18  1  0
 18 19  1  0
 19 20  2  0
 19 24  1  0
 20 21  1  0
 21 22  1  0
 22 23  1  0
 23 24  2  0
M  END
