
     RDKit          3D

 25 28  0  0  0  0  0  0  0  0999 V2000
    6.2350   -3.0670    0.1690 C   0  0  0  0  0  0  0  0  0  0  0  0
    5.2460   -2.1850   -0.4040 N   0  0  0  0  0  0  0  0  0  0  0  0
    4.0800   -1.8680    0.2260 C   0  0  0  0  0  0  0  0  0  0  0  0
    3.3880   -1.0170   -0.5960 C   0  0  0  0  0  0  0  0  0  0  0  0
    2.1070   -0.4320   -0.3320 N   0  0  0  0  0  0  0  0  0  0  0  0
    1.8740    0.8740   -0.1700 C   0  0  0  0  0  0  0  0  0  0  0  0
    0.4930    1.0980    0.0790 C   0  0  0  0  0  0  0  0  0  0  0  0
   -0.0270    2.4340    0.3120 C   0  0  0  0  0  0  0  0  0  0  0  0
    0.6070    3.5970   -0.1740 C   0  0  0  0  0  0  0  0  0  0  0  0
   -0.1500    4.6780    0.1600 C   0  0  0  0  0  0  0  0  0  0  0  0
   -1.2400    4.2180    0.8440 C   0  0  0  0  0  0  0  0  0  0  0  0
   -1.1110    2.8570    0.9050 N   0  0  0  0  0  0  0  0  0  0  0  0
   -0.0540   -0.1400    0.0440 C   0  0  0  0  0  0  0  0  0  0  0  0
   -1.4510   -0.5370    0.0650 C   0  0  0  0  0  0  0  0  0  0  0  0
   -2.5200    0.1600   -0.1910 C   0  0  0  0  0  0  0  0  0  0  0  0
   -3.8400   -0.4290   -0.1070 C   0  0  0  0  0  0  0  0  0  0  0  0
   -4.9920    0.1140   -0.3250 C   0  0  0  0  0  0  0  0  0  0  0  0
   -6.1240   -0.7220   -0.1620 C   0  0  0  0  0  0  0  0  0  0  0  0
   -5.9140   -1.9640    0.1940 C   0  0  0  0  0  0  0  0  0  0  0  0
   -4.1590   -2.0890    0.3320 S   0  0  1  0  0  0  0  0  0  0  0  0
   -3.5920   -3.0640   -0.6290 O   0  0  0  0  0  0  0  0  0  0  0  0
   -3.7520   -2.3500    1.7530 O   0  0  0  0  0  0  0  0  0  0  0  0
    0.9610   -1.0470   -0.2050 N   0  0  0  0  0  0  0  0  0  0  0  0
    4.1690   -0.8420   -1.7150 C   0  0  0  0  0  0  0  0  0  0  0  0
    5.3000   -1.5640   -1.5770 N   0  0  0  0  0  0  0  0  0  0  0  0
  1  2  1  0
  2  3  1  0
  2 25  1  0
  3  4  2  0
  4  5  1  0
  4 24  1  0
  5  6  1  0
  5 23  1  0
  6  7  2  0
  7  8  1  0
  7 13  1  0
  8  9  2  0
  8 12  1  0
  9 10  1  0
 10 11  2  0
 11 12  1  0
 13 14  1  0
 13 23  2  0
 14 15  2  3
 15 16  1  0
 16 17  2  0
 16 20  1  0
 17 18  1  0
 18 19  2  0
 20 19  1  1
 20 21  2  0
 20 22  2  0
 24 25  2  0
M  END
