
     RDKit          3D

 26 29  0  0  0  0  0  0  0  0999 V2000
   -4.0410    1.3650   -3.1670 C   0  0  0  0  0  0  0  0  0  0  0  0
   -5.0620    0.8580   -2.3290 O   0  0  0  0  0  0  0  0  0  0  0  0
   -4.6860    0.2470   -1.1410 C   0  0  0  0  0  0  0  0  0  0  0  0
   -5.6310   -0.2700   -0.2780 C   0  0  0  0  0  0  0  0  0  0  0  0
   -5.2810   -0.8820    0.9120 C   0  0  0  0  0  0  0  0  0  0  0  0
   -6.2500   -1.3940    1.7630 O   0  0  0  0  0  0  0  0  0  0  0  0
   -7.6130   -1.3270    1.4850 C   0  0  0  0  0  0  0  0  0  0  0  0
   -3.9460   -0.9690    1.2250 C   0  0  0  0  0  0  0  0  0  0  0  0
   -2.9580   -0.4670    0.3940 C   0  0  0  0  0  0  0  0  0  0  0  0
   -1.2790   -0.6610    0.9460 S   0  0  0  0  0  0  0  0  0  0  0  0
   -0.0840    0.0080   -0.1740 C   0  0  0  0  0  0  0  0  0  0  0  0
   -0.2560    0.6250   -1.3530 N   0  0  0  0  0  0  0  0  0  0  0  0
    0.9260    0.9610   -1.8500 N   0  0  0  0  0  0  0  0  0  0  0  0
    1.8790    0.5620   -0.9940 C   0  0  0  0  0  0  0  0  0  0  0  0
    3.2210    0.4940   -0.7150 C   0  0  0  0  0  0  0  0  0  0  0  0
    4.3410    0.9220   -1.3930 C   0  0  0  0  0  0  0  0  0  0  0  0
    5.6070    0.7250   -0.8810 C   0  0  0  0  0  0  0  0  0  0  0  0
    6.7510    1.1430   -1.5360 O   0  0  0  0  0  0  0  0  0  0  0  0
    8.0460    0.9480   -1.0230 C   0  0  0  0  0  0  0  0  0  0  0  0
    5.7240    0.1050    0.2960 N   0  0  0  0  0  0  0  0  0  0  0  0
    4.6790   -0.3430    1.0210 C   0  0  0  0  0  0  0  0  0  0  0  0
    4.8130   -1.0270    2.3210 C   0  0  0  0  0  0  0  0  0  0  0  0
    3.4060   -0.1380    0.4930 C   0  0  0  0  0  0  0  0  0  0  0  0
    2.1710   -0.4410    0.9230 N   0  0  0  0  0  0  0  0  0  0  0  0
    1.2510   -0.0260    0.0390 N   0  0  0  0  0  0  0  0  0  0  0  0
   -3.3460    0.1310   -0.7720 C   0  0  0  0  0  0  0  0  0  0  0  0
  1  2  1  0
  2  3  1  0
  3  4  2  0
  3 26  1  0
  4  5  1  0
  5  6  1  0
  5  8  2  0
  6  7  1  0
  8  9  1  0
  9 10  1  0
  9 26  2  0
 10 11  1  0
 11 12  2  0
 11 25  1  0
 12 13  1  0
 13 14  2  0
 14 15  1  0
 14 25  1  0
 15 16  2  0
 15 23  1  0
 16 17  1  0
 17 18  1  0
 17 20  2  0
 18 19  1  0
 20 21  1  0
 21 22  1  0
 21 23  2  0
 23 24  1  0
 24 25  1  0
M  END
