
     RDKit          3D

 26 29  0  0  0  0  0  0  0  0999 V2000
    2.1960    0.6790   -0.7040 O   0  0  0  0  0  0  0  0  0  0  0  0
    1.6260   -0.3240   -0.2280 C   0  0  0  0  0  0  0  0  0  0  0  0
    2.3890   -1.5540    0.0670 C   0  0  0  0  0  0  0  0  0  0  0  0
    3.8380   -1.3290   -0.2320 C   0  0  0  0  0  0  0  0  0  0  0  0
    4.6340   -1.9540   -1.0780 C   0  0  0  0  0  0  0  0  0  0  0  0
    5.9760   -1.3520   -0.9960 C   0  0  0  0  0  0  0  0  0  0  0  0
    5.8520   -0.2870    0.0120 C   0  0  0  0  0  0  0  0  0  0  0  0
    4.6180   -0.2880    0.4420 C   0  0  0  0  0  0  0  0  0  0  0  0
    0.2060   -0.2160    0.0140 N   0  0  0  0  0  0  0  0  0  0  0  0
   -0.4480    1.0090   -0.2600 C   0  0  0  0  0  0  0  0  0  0  0  0
    0.1900    2.1420   -0.7130 N   0  0  0  0  0  0  0  0  0  0  0  0
   -0.7220    3.0570   -0.7900 N   0  0  0  0  0  0  0  0  0  0  0  0
   -1.9500    2.5560   -0.4010 C   0  0  0  0  0  0  0  0  0  0  0  0
   -3.1520    3.3910   -0.3890 C   0  0  0  0  0  0  0  0  0  0  0  0
   -4.4650    3.1360   -0.4090 C   0  0  0  0  0  0  0  0  0  0  0  0
   -5.1730    4.3460   -0.3690 C   0  0  0  0  0  0  0  0  0  0  0  0
   -4.2230    5.2830   -0.3280 N   0  0  0  0  0  0  0  0  0  0  0  0
   -3.0580    4.7440   -0.3400 O   0  0  0  0  0  0  0  0  0  0  0  0
   -1.7690    1.2810   -0.0710 N   0  0  0  0  0  0  0  0  0  0  0  0
   -2.7060    0.4270    0.5350 C   0  0  0  0  0  0  0  0  0  0  0  0
   -3.7810    0.8700    1.0980 O   0  0  0  0  0  0  0  0  0  0  0  0
   -2.6220   -1.0410    0.6110 C   0  0  0  0  0  0  0  0  0  0  0  0
   -2.6940   -1.8740    1.6420 C   0  0  0  0  0  0  0  0  0  0  0  0
   -2.6680   -3.1990    1.4440 C   0  0  0  0  0  0  0  0  0  0  0  0
   -2.5670   -3.6520    0.1810 C   0  0  0  0  0  0  0  0  0  0  0  0
   -2.5050   -2.1330   -0.7850 S   0  0  0  0  0  0  0  0  0  0  0  0
  1  2  2  0
  2  3  1  0
  2  9  1  0
  3  4  1  0
  4  5  2  0
  4  8  1  0
  5  6  1  0
  6  7  1  0
  7  8  2  0
  9 10  1  0
 10 11  2  0
 10 19  1  0
 11 12  1  0
 12 13  2  0
 13 14  1  0
 13 19  1  0
 14 15  2  0
 14 18  1  0
 15 16  1  0
 16 17  2  0
 17 18  1  0
 19 20  1  0
 20 21  2  0
 20 22  1  0
 22 23  2  0
 22 26  1  0
 23 24  1  0
 24 25  2  0
 25 26  1  0
M  END
