
     RDKit          3D

  7  6  0  0  0  0  0  0  0  0999 V2000
   -2.4290   -0.5710    0.3270 C   0  0  0  0  0  0  0  0  0  0  0  0
   -1.6880    0.1460   -0.6330 O   0  0  0  0  0  0  0  0  0  0  0  0
   -0.3690    0.5230   -0.4630 C   0  0  0  0  0  0  0  0  0  0  0  0
   -0.0670    1.8610   -0.5120 O   0  0  0  0  0  0  0  0  0  0  0  0
    0.5960   -0.3490   -0.2570 C   0  0  0  0  0  0  0  0  0  0  0  0
    1.9950    0.1000   -0.0800 C   0  0  0  0  0  0  0  0  0  0  0  0
    2.4950   -0.2960    1.1830 O   0  0  0  0  0  0  0  0  0  0  0  0
  1  2  1  0
  2  3  1  0
  3  4  1  0
  3  5  2  3
  5  6  1  0
  6  7  1  0
M  END
