
     RDKit          3D

 11 12  0  0  0  0  0  0  0  0999 V2000
    3.1980    1.2310    0.0910 N   0  0  0  0  0  0  0  0  0  0  0  0
    1.7890    1.3850   -0.0260 C   0  0  0  0  0  0  0  0  0  0  0  0
    1.2350    2.9200   -0.2150 S   0  0  0  0  0  0  0  0  0  0  0  0
    0.8910    0.2910    0.0130 N   0  0  0  0  0  0  0  0  0  0  0  0
    1.2710   -1.0780    0.1730 C   0  0  0  0  0  0  0  0  0  0  0  0
    0.0370   -1.9120    0.1570 C   0  0  0  0  0  0  0  0  0  0  0  0
   -1.0920   -0.9470   -0.0160 C   0  0  0  0  0  0  0  0  0  0  0  0
   -2.4000   -0.8670   -0.1200 C   0  0  0  0  0  0  0  0  0  0  0  0
   -2.8130    0.5440   -0.2820 C   0  0  0  0  0  0  0  0  0  0  0  0
   -1.5140    1.2540   -0.2530 C   0  0  0  0  0  0  0  0  0  0  0  0
   -0.5290    0.3880   -0.1000 C   0  0  0  0  0  0  0  0  0  0  0  0
  1  2  1  0
  2  3  2  0
  2  4  1  0
  4  5  1  0
  4 11  1  0
  5  6  1  0
  6  7  1  0
  7  8  2  0
  7 11  1  0
  8  9  1  0
  9 10  1  0
 10 11  2  0
M  END
