
     RDKit          3D

  7  6  0  0  0  0  0  0  0  0999 V2000
   -1.8830   -0.7040   -0.0040 C   0  0  0  0  0  0  0  0  0  0  0  0
   -0.6340   -0.5390   -0.6400 O   0  0  0  0  0  0  0  0  0  0  0  0
    0.0970    0.5890   -0.3480 C   0  0  0  0  0  0  0  0  0  0  0  0
   -0.4830    1.8250   -0.4740 O   0  0  0  0  0  0  0  0  0  0  0  0
    1.3400    0.4800    0.0490 C   0  0  0  0  0  0  0  0  0  0  0  0
    2.0160   -0.7920    0.2040 C   0  0  0  0  0  0  0  0  0  0  0  0
    1.4020   -1.8400   -0.0470 O   0  0  0  0  0  0  0  0  0  0  0  0
  1  2  1  0
  2  3  1  0
  3  4  1  0
  3  5  2  3
  5  6  1  0
  6  7  2  0
M  END
