
     RDKit          3D

 11 11  0  0  0  0  0  0  0  0999 V2000
    1.8950    0.7370   -1.9710 C   0  0  0  0  0  0  0  0  0  0  0  0
    1.6230   -0.1310   -1.2080 C   0  0  0  0  0  0  0  0  0  0  0  0
    0.5610   -0.4660   -0.2380 C   0  0  0  0  0  0  0  0  0  0  0  0
    0.5580   -1.6350    0.3900 C   0  0  0  0  0  0  0  0  0  0  0  0
   -0.3890   -2.1630    1.3690 C   0  0  0  0  0  0  0  0  0  0  0  0
   -1.7400   -1.0830    1.7890 S   0  0  0  0  0  0  0  0  0  0  0  0
   -1.4660    0.4310    0.8370 C   0  0  0  0  0  0  0  0  0  0  0  0
   -2.3600    1.5320    0.9810 N   0  0  0  0  0  0  0  0  0  0  0  0
   -0.4600    0.5130    0.0400 C   0  0  0  0  0  0  0  0  0  0  0  0
   -0.2480    1.9380   -0.5010 C   0  0  0  0  0  0  0  0  0  0  0  0
   -0.1100    2.9770   -0.9070 N   0  0  0  0  0  0  0  0  0  0  0  0
  1  2  2  0
  2  3  1  0
  3  4  2  0
  3  9  1  0
  4  5  1  0
  5  6  1  0
  6  7  1  0
  7  8  1  0
  7  9  2  0
  9 10  1  0
 10 11  3  0
M  END
