
     RDKit          3D

 11 12  0  0  0  0  0  0  0  0999 V2000
    3.2750    0.5620   -0.5870 N   0  0  0  0  0  0  0  0  0  0  0  0
    2.6930   -0.3380    0.3600 C   0  0  0  0  0  0  0  0  0  0  0  0
    1.2160   -0.3870    0.2750 C   0  0  0  0  0  0  0  0  0  0  0  0
    0.4230   -1.1740    1.0770 C   0  0  0  0  0  0  0  0  0  0  0  0
   -0.8940   -1.2230    1.0080 N   0  0  0  0  0  0  0  0  0  0  0  0
   -1.5830   -0.4630    0.0970 C   0  0  0  0  0  0  0  0  0  0  0  0
   -0.8290    0.3290   -0.7130 C   0  0  0  0  0  0  0  0  0  0  0  0
    0.5660    0.3910   -0.6510 C   0  0  0  0  0  0  0  0  0  0  0  0
   -2.0020    1.1980   -1.7800 S   0  0  0  0  0  0  0  0  0  0  0  0
   -3.4730    0.8040   -0.7490 C   0  0  0  0  0  0  0  0  0  0  0  0
   -3.0190   -0.4310   -0.0800 C   0  0  0  0  0  0  0  0  0  0  0  0
  1  2  1  0
  2  3  1  0
  3  4  2  0
  3  8  1  0
  4  5  1  0
  5  6  2  0
  6  7  1  0
  6 11  1  0
  7  8  2  0
  7  9  1  0
  9 10  1  0
 10 11  1  0
M  CHG  1   1   1
M  END
