
     RDKit          3D

 11 11  0  0  0  0  0  0  0  0999 V2000
    2.9140    1.8010    0.5400 C   0  0  0  0  0  0  0  0  0  0  0  0
    2.5660    1.2640   -0.7990 C   0  0  0  0  0  0  0  0  0  0  0  0
    1.4600    0.5790   -1.0000 C   0  0  0  0  0  0  0  0  0  0  0  0
    0.4990    0.2950    0.0550 C   0  0  0  0  0  0  0  0  0  0  0  0
   -0.5700   -0.3890   -0.2270 C   0  0  0  0  0  0  0  0  0  0  0  0
   -0.9000   -0.9980   -1.8890 S   0  0  0  0  0  0  0  0  0  0  0  0
   -2.4500   -1.8480   -1.7350 C   0  0  0  0  0  0  0  0  0  0  0  0
   -3.0910   -1.9250   -0.5900 C   0  0  0  0  0  0  0  0  0  0  0  0
   -2.6370   -1.3600    0.6190 N   0  0  0  0  0  0  0  0  0  0  0  0
   -1.5660   -0.7040    0.7840 C   0  0  0  0  0  0  0  0  0  0  0  0
   -1.2390   -0.1840    2.1010 N   0  0  0  0  0  0  0  0  0  0  0  0
  1  2  1  0
  2  3  2  3
  3  4  1  0
  4  5  2  3
  5  6  1  0
  5 10  1  0
  6  7  1  0
  7  8  2  0
  8  9  1  0
  9 10  2  0
 10 11  1  0
M  END
