
     RDKit          3D

 11 11  0  0  0  0  0  0  0  0999 V2000
   -3.5030   -0.4620   -0.8360 C   0  0  0  0  0  0  0  0  0  0  0  0
   -2.4320   -0.0490   -0.2010 C   0  0  0  0  0  0  0  0  0  0  0  0
   -2.6030    0.8160    1.0010 C   0  0  0  0  0  0  0  0  0  0  0  0
   -1.3510    1.1860    1.5850 N   0  0  0  0  0  0  0  0  0  0  0  0
   -0.2170    0.8300    1.1450 C   0  0  0  0  0  0  0  0  0  0  0  0
   -0.0550   -0.0040   -0.0150 C   0  0  0  0  0  0  0  0  0  0  0  0
    1.5900   -0.4820   -0.5980 S   0  0  0  0  0  0  0  0  0  0  0  0
    2.7880    0.2770    0.5270 C   0  0  0  0  0  0  0  0  0  0  0  0
    4.1990   -0.0710    0.1120 C   0  0  0  0  0  0  0  0  0  0  0  0
   -1.1100   -0.4330   -0.6710 C   0  0  0  0  0  0  0  0  0  0  0  0
   -0.9270   -1.2470   -1.8010 N   0  0  0  0  0  0  0  0  0  0  0  0
  1  2  2  0
  2  3  1  0
  2 10  1  0
  3  4  1  0
  4  5  2  0
  5  6  1  0
  6  7  1  0
  6 10  2  0
  7  8  1  0
  8  9  1  0
 10 11  1  0
M  END
