
     RDKit          3D

 26 27  0  0  0  0  0  0  0  0999 V2000
   -1.1780    1.2230    4.0220 C   0  0  0  0  0  0  0  0  0  0  0  0
   -1.5620    1.3540    2.5740 C   0  0  0  0  0  0  0  0  0  0  0  0
   -1.9870    2.4380    2.0950 O   0  0  0  0  0  0  0  0  0  0  0  0
   -1.4590    0.2480    1.6750 N   0  0  0  0  0  0  0  0  0  0  0  0
   -1.8300    0.3770    0.2780 C   0  0  2  0  0  0  0  0  0  0  0  0
   -3.0350   -0.5480    0.0780 C   0  0  2  0  0  0  0  0  0  0  0  0
   -2.7830   -1.7770    0.6290 O   0  0  0  0  0  0  0  0  0  0  0  0
   -3.4580   -0.5380   -1.2150 O   0  0  0  0  0  0  0  0  0  0  0  0
   -2.5620   -0.8990   -2.1790 C   0  0  2  0  0  0  0  0  0  0  0  0
   -2.6150   -2.3990   -2.3390 C   0  0  0  0  0  0  0  0  0  0  0  0
   -1.7120   -2.7630   -3.3220 O   0  0  0  0  0  0  0  0  0  0  0  0
   -1.1860   -0.3800   -2.0230 C   0  0  2  0  0  0  0  0  0  0  0  0
   -0.3010   -1.3200   -2.5600 O   0  0  0  0  0  0  0  0  0  0  0  0
   -0.7420   -0.1430   -0.6040 C   0  0  1  0  0  0  0  0  0  0  0  0
    0.3910    0.6680   -0.6170 O   0  0  0  0  0  0  0  0  0  0  0  0
    1.5240    0.0240   -0.1460 C   0  0  1  0  0  0  0  0  0  0  0  0
    2.4530   -0.0590   -1.2010 O   0  0  0  0  0  0  0  0  0  0  0  0
    3.4870    0.8340   -1.3940 C   0  0  0  0  0  0  0  0  0  0  0  0
    4.0220    1.1550   -2.7030 C   0  0  0  0  0  0  0  0  0  0  0  0
    3.5490    0.6170   -3.7300 O   0  0  0  0  0  0  0  0  0  0  0  0
    5.0570    2.0550   -2.8450 O   0  0  0  0  0  0  0  0  0  0  0  0
    3.9980    1.4100   -0.3360 C   0  0  0  0  0  0  0  0  0  0  0  0
    3.4850    1.1120    1.0060 C   0  0  2  0  0  0  0  0  0  0  0  0
    4.2060   -0.0100    1.4760 O   0  0  0  0  0  0  0  0  0  0  0  0
    2.0190    0.7740    1.0430 C   0  0  1  0  0  0  0  0  0  0  0  0
    1.3330    1.9950    1.2380 O   0  0  0  0  0  0  0  0  0  0  0  0
  1  2  1  0
  2  3  2  0
  2  4  1  0
  5  4  1  1
  5  6  1  0
  5 14  1  0
  6  7  1  6
  6  8  1  0
  8  9  1  0
  9 10  1  1
  9 12  1  0
 10 11  1  0
 12 13  1  1
 12 14  1  0
 14 15  1  6
 16 15  1  6
 16 17  1  0
 16 25  1  0
 17 18  1  0
 18 19  1  0
 18 22  2  0
 19 20  2  0
 19 21  1  0
 22 23  1  0
 23 24  1  6
 23 25  1  0
 25 26  1  6
M  CHG  1  21  -1
M  END
