
     RDKit          3D

  7  6  0  0  0  0  0  0  0  0999 V2000
   -2.4290    0.2040    0.3160 C   0  0  0  0  0  0  0  0  0  0  0  0
   -1.4630   -0.7660    0.3840 O   0  0  0  0  0  0  0  0  0  0  0  0
   -0.5200   -0.7460   -0.6090 C   0  0  0  0  0  0  0  0  0  0  0  0
    0.2250    0.5380   -0.6170 C   0  0  0  0  0  0  0  0  0  0  0  0
    0.9010    0.8140    0.5530 O   0  0  0  0  0  0  0  0  0  0  0  0
    1.8480   -0.1310    0.8840 C   0  0  0  0  0  0  0  0  0  0  0  0
    2.8370   -0.2860   -0.0670 O   0  0  0  0  0  0  0  0  0  0  0  0
  1  2  1  0
  2  3  1  0
  3  4  1  0
  4  5  1  0
  5  6  1  0
  6  7  1  0
M  END
