
     RDKit          3D

 29 30  0  0  0  0  0  0  0  0999 V2000
   -7.0890   -0.8330   -3.0790 N   0  0  0  0  0  0  0  0  0  0  0  0
   -8.3070   -0.6640   -2.3910 C   0  0  0  0  0  0  0  0  0  0  0  0
   -9.3850   -0.8020   -3.0010 O   0  0  0  0  0  0  0  0  0  0  0  0
   -8.3070   -0.3330   -0.9900 C   0  0  0  0  0  0  0  0  0  0  0  0
   -7.1360   -0.1870   -0.3450 C   0  0  0  0  0  0  0  0  0  0  0  0
   -7.0220    0.1100    0.9140 O   0  0  0  0  0  0  0  0  0  0  0  0
   -5.6990    0.1650    1.1800 C   0  0  0  0  0  0  0  0  0  0  0  0
   -5.2490    0.4280    2.3040 O   0  0  0  0  0  0  0  0  0  0  0  0
   -4.9840   -0.1020    0.0640 C   0  0  0  0  0  0  0  0  0  0  0  0
   -3.7480   -0.2010   -0.3290 C   0  0  0  0  0  0  0  0  0  0  0  0
   -2.5120   -0.0610    0.2940 C   0  0  0  0  0  0  0  0  0  0  0  0
   -2.0320    0.2070    1.4410 C   0  0  0  0  0  0  0  0  0  0  0  0
   -2.6840    0.4880    2.6160 F   0  0  0  0  0  0  0  0  0  0  0  0
   -0.5210    0.2600    1.7010 C   0  0  2  0  0  0  0  0  0  0  0  0
   -0.2650    1.5530    2.1540 F   0  0  0  0  0  0  0  0  0  0  0  0
    0.2160    0.0620    0.4440 C   0  0  0  0  0  0  0  0  0  0  0  0
    1.6620    0.1300    0.7790 N   0  0  0  0  0  0  0  0  0  0  0  0
    2.6380   -0.0240   -0.2280 C   0  0  0  0  0  0  0  0  0  0  0  0
    2.1760   -0.2200   -1.4040 O   0  0  0  0  0  0  0  0  0  0  0  0
    4.0600    0.0300    0.0250 C   0  0  0  0  0  0  0  0  0  0  0  0
    4.5210    0.2420    1.2970 C   0  0  0  0  0  0  0  0  0  0  0  0
    5.8910    0.2950    1.5420 C   0  0  0  0  0  0  0  0  0  0  0  0
    6.7300    0.1270    0.4700 C   0  0  0  0  0  0  0  0  0  0  0  0
    8.5540    0.1860    0.7240 P   0  0  0  0  0  0  0  0  0  0  0  0
    9.2850   -0.9100   -0.3990 O   0  0  0  0  0  0  0  0  0  0  0  0
    9.0610    1.8120    0.4440 O   0  0  0  0  0  0  0  0  0  0  0  0
    6.2940   -0.0870   -0.8170 C   0  0  0  0  0  0  0  0  0  0  0  0
    4.9250   -0.1350   -1.0340 C   0  0  0  0  0  0  0  0  0  0  0  0
   -5.9510   -0.3150   -0.8610 O   0  0  0  0  0  0  0  0  0  0  0  0
  1  2  1  0
  2  3  2  0
  2  4  1  0
  4  5  2  3
  5  6  1  0
  5 29  1  0
  6  7  1  0
  7  8  2  0
  7  9  1  0
  9 10  2  3
  9 29  1  0
 10 11  1  0
 11 12  2  3
 12 13  1  0
 12 14  1  0
 14 15  1  6
 14 16  1  0
 16 17  1  0
 17 18  1  0
 18 19  2  0
 18 20  1  0
 20 21  2  0
 20 28  1  0
 21 22  1  0
 22 23  2  0
 23 24  1  0
 23 27  1  0
 24 25  1  0
 24 26  1  0
 27 28  2  0
M  END
