
     RDKit          3D

 28 30  0  0  0  0  0  0  0  0999 V2000
   -3.9770   -3.4350    0.8950 O   0  0  0  0  0  0  0  0  0  0  0  0
   -3.8450   -2.2830    0.4000 C   0  0  0  0  0  0  0  0  0  0  0  0
   -5.0500   -1.6850   -0.2050 C   0  0  0  0  0  0  0  0  0  0  0  0
   -5.4980   -0.4200    0.4650 C   0  0  2  0  0  0  0  0  0  0  0  0
   -7.0400    0.1600   -0.4020 P   0  0  0  0  0  0  0  0  0  0  0  0
   -6.8460    1.7110   -1.1140 O   0  0  0  0  0  0  0  0  0  0  0  0
   -7.5090   -0.9490   -1.6590 O   0  0  0  0  0  0  0  0  0  0  0  0
   -4.5430    0.6400    0.4230 N   0  0  0  0  0  0  0  0  0  0  0  0
   -3.1340    0.6980    0.2660 C   0  0  0  0  0  0  0  0  0  0  0  0
   -2.6580    1.9680    0.0710 C   0  0  0  0  0  0  0  0  0  0  0  0
   -1.3150    2.1350   -0.0910 C   0  0  0  0  0  0  0  0  0  0  0  0
   -0.3980    1.0770   -0.0690 C   0  0  0  0  0  0  0  0  0  0  0  0
    0.9580    1.3290   -0.2840 N   0  0  0  0  0  0  0  0  0  0  0  0
    2.0030    0.6750    0.3950 C   0  0  0  0  0  0  0  0  0  0  0  0
    1.8640   -0.1240    1.4980 C   0  0  0  0  0  0  0  0  0  0  0  0
    2.9290   -0.7230    2.1610 C   0  0  0  0  0  0  0  0  0  0  0  0
    4.1880   -0.4960    1.6770 C   0  0  0  0  0  0  0  0  0  0  0  0
    5.2420   -1.0730    2.3110 F   0  0  0  0  0  0  0  0  0  0  0  0
    4.3910    0.3070    0.5610 C   0  0  0  0  0  0  0  0  0  0  0  0
    5.7040    0.4800    0.1440 O   0  0  0  0  0  0  0  0  0  0  0  0
    6.2100   -0.4500   -0.7960 C   0  0  0  0  0  0  0  0  0  0  0  0
    7.6440   -0.0710   -1.1020 C   0  0  0  0  0  0  0  0  0  0  0  0
    8.1960   -0.9630   -2.0320 O   0  0  0  0  0  0  0  0  0  0  0  0
    3.3170    0.8690   -0.0510 C   0  0  0  0  0  0  0  0  0  0  0  0
    3.4990    1.6560   -1.1420 F   0  0  0  0  0  0  0  0  0  0  0  0
   -0.8720   -0.1880    0.1250 C   0  0  0  0  0  0  0  0  0  0  0  0
   -2.2580   -0.3590    0.2920 C   0  0  0  0  0  0  0  0  0  0  0  0
   -2.5840   -1.7090    0.4800 O   0  0  0  0  0  0  0  0  0  0  0  0
  1  2  2  0
  2  3  1  0
  2 28  1  0
  3  4  1  0
  4  5  1  6
  4  8  1  0
  5  6  1  0
  5  7  1  0
  8  9  1  0
  9 10  2  0
  9 27  1  0
 10 11  1  0
 11 12  2  0
 12 13  1  0
 12 26  1  0
 13 14  1  0
 14 15  2  0
 14 24  1  0
 15 16  1  0
 16 17  2  0
 17 18  1  0
 17 19  1  0
 19 20  1  0
 19 24  2  0
 20 21  1  0
 21 22  1  0
 22 23  1  0
 24 25  1  0
 26 27  2  0
 27 28  1  0
M  END
