
     RDKit          3D

 29 30  0  0  0  0  0  0  0  0999 V2000
   -6.4840    2.2110    2.3950 N   0  0  0  0  0  0  0  0  0  0  0  0
   -5.5540    1.4920    1.5970 C   0  0  0  0  0  0  0  0  0  0  0  0
   -5.5600    1.5730    0.2120 C   0  0  0  0  0  0  0  0  0  0  0  0
   -4.6450    0.8640   -0.5480 C   0  0  0  0  0  0  0  0  0  0  0  0
   -3.7180    0.0730    0.0240 N   0  0  0  0  0  0  0  0  0  0  0  0
   -2.7410   -0.6890   -0.7050 C   0  0  2  0  0  0  0  0  0  0  0  0
   -1.5470   -0.8450   -0.0070 O   0  0  0  0  0  0  0  0  0  0  0  0
   -0.7480   -1.4880   -0.9170 C   0  0  2  0  0  0  0  0  0  0  0  0
    0.7270   -1.2800   -0.6580 C   0  0  0  0  0  0  0  0  0  0  0  0
    1.0780    0.0680   -0.7100 O   0  0  0  0  0  0  0  0  0  0  0  0
    2.7490    0.1270   -0.4010 P   0  0  2  0  0  0  0  0  0  0  0  0
    3.5370   -0.5620   -1.4900 O   0  0  0  0  0  0  0  0  0  0  0  0
    2.9910   -0.7770    1.0290 O   0  0  0  0  0  0  0  0  0  0  0  0
    3.2730    1.7000   -0.1260 O   0  0  0  0  0  0  0  0  0  0  0  0
    4.8560    1.6080    0.4760 P   0  0  2  0  0  0  0  0  0  0  0  0
    5.4940    2.9790    0.5270 O   0  0  0  0  0  0  0  0  0  0  0  0
    5.7790    0.5660   -0.4990 O   0  0  0  0  0  0  0  0  0  0  0  0
    4.8130    0.9960    2.0270 O   0  0  0  0  0  0  0  0  0  0  0  0
    6.1390   -0.0030    2.3630 P   0  0  1  0  0  0  0  0  0  0  0  0
    6.0270   -0.3970    3.8230 O   0  0  0  0  0  0  0  0  0  0  0  0
    6.0570   -1.3690    1.3710 O   0  0  0  0  0  0  0  0  0  0  0  0
    7.5960    0.7740    2.0420 O   0  0  0  0  0  0  0  0  0  0  0  0
   -1.0460   -0.9040   -2.2800 C   0  0  1  0  0  0  0  0  0  0  0  0
   -1.4320   -1.9230   -3.1470 O   0  0  0  0  0  0  0  0  0  0  0  0
   -2.2750   -0.0380   -1.9690 C   0  0  1  0  0  0  0  0  0  0  0  0
   -3.1590   -0.1970   -3.0340 O   0  0  0  0  0  0  0  0  0  0  0  0
   -3.7220    0.0020    1.3670 C   0  0  0  0  0  0  0  0  0  0  0  0
   -2.8540   -0.7410    1.9300 O   0  0  0  0  0  0  0  0  0  0  0  0
   -4.6120    0.6900    2.1300 N   0  0  0  0  0  0  0  0  0  0  0  0
  1  2  1  0
  2  3  1  0
  2 29  2  0
  3  4  2  0
  4  5  1  0
  6  5  1  1
  5 27  1  0
  6  7  1  0
  6 25  1  0
  7  8  1  0
  8  9  1  1
  8 23  1  0
  9 10  1  0
 10 11  1  0
 11 12  2  0
 11 13  1  1
 11 14  1  0
 14 15  1  0
 15 16  2  0
 15 17  1  6
 15 18  1  0
 18 19  1  0
 19 20  2  0
 19 21  1  6
 19 22  1  0
 23 24  1  6
 23 25  1  0
 25 26  1  6
 27 28  2  0
 27 29  1  0
M  END
