
     RDKit          3D

 29 30  0  0  0  0  0  0  0  0999 V2000
    8.4860   -1.0710    0.2400 C   0  0  0  0  0  0  0  0  0  0  0  0
    7.0850   -0.4690    0.2380 C   0  0  0  0  0  0  0  0  0  0  0  0
    6.7290   -0.2670   -1.0900 O   0  0  0  0  0  0  0  0  0  0  0  0
    5.1710    0.4070   -1.2850 P   0  0  0  0  0  0  0  0  0  0  0  0
    5.0430    1.4990   -2.6110 O   0  0  0  0  0  0  0  0  0  0  0  0
    4.4860    1.1740    0.2240 C   0  0  0  0  0  0  0  0  0  0  0  0
    3.2870    0.5040    0.8050 C   0  0  0  0  0  0  0  0  0  0  0  0
    2.1640    0.4560   -0.0890 N   0  0  0  0  0  0  0  0  0  0  0  0
    2.3390   -0.4020   -1.2280 C   0  0  0  0  0  0  0  0  0  0  0  0
    1.0190   -1.0450   -1.6570 C   0  0  0  0  0  0  0  0  0  0  0  0
   -0.0360    0.0480   -1.5730 C   0  0  0  0  0  0  0  0  0  0  0  0
   -0.2080    0.5250   -0.1450 C   0  0  1  0  0  0  0  0  0  0  0  0
   -0.0970    1.9220   -0.0800 F   0  0  0  0  0  0  0  0  0  0  0  0
   -1.4510    0.1110    0.4420 N   0  0  0  0  0  0  0  0  0  0  0  0
   -2.6880    0.4910   -0.1120 C   0  0  0  0  0  0  0  0  0  0  0  0
   -2.7240    1.1990   -1.1310 O   0  0  0  0  0  0  0  0  0  0  0  0
   -3.9710    0.0550    0.5090 C   0  0  2  0  0  0  0  0  0  0  0  0
   -4.1490    0.5090    1.9240 C   0  0  0  0  0  0  0  0  0  0  0  0
   -4.1050    1.8740    2.1510 O   0  0  0  0  0  0  0  0  0  0  0  0
   -4.8750    2.8830    1.6860 C   0  0  0  0  0  0  0  0  0  0  0  0
   -5.8170    2.6300    0.9100 O   0  0  0  0  0  0  0  0  0  0  0  0
   -4.6430    4.2220    2.0560 O   0  0  0  0  0  0  0  0  0  0  0  0
   -4.1330   -1.4800    0.4060 C   0  0  0  0  0  0  0  0  0  0  0  0
   -4.8250   -1.2360   -0.9360 C   0  0  1  0  0  0  0  0  0  0  0  0
   -3.9840   -1.1720   -2.0120 F   0  0  0  0  0  0  0  0  0  0  0  0
   -6.0070   -2.1110   -1.1860 C   0  0  0  0  0  0  0  0  0  0  0  0
   -5.6170   -3.4470   -1.1720 O   0  0  0  0  0  0  0  0  0  0  0  0
   -5.1470    0.1650   -0.3940 C   0  0  0  0  0  0  0  0  0  0  0  0
    0.9750   -0.0100    0.6300 C   0  0  0  0  0  0  0  0  0  0  0  0
  1  2  1  0
  2  3  1  0
  3  4  1  0
  4  5  1  0
  4  6  1  0
  6  7  1  0
  7  8  1  0
  8  9  1  0
  8 29  1  0
  9 10  1  0
 10 11  1  0
 11 12  1  0
 12 13  1  6
 12 14  1  0
 12 29  1  0
 14 15  1  0
 15 16  2  0
 15 17  1  0
 17 18  1  1
 17 23  1  0
 17 28  1  0
 18 19  1  0
 19 20  1  0
 20 21  2  0
 20 22  1  0
 23 24  1  0
 24 25  1  6
 24 26  1  0
 24 28  1  0
 26 27  1  0
M  END
