
     RDKit          3D

 29 29  0  0  0  0  0  0  0  0999 V2000
   -0.4480   -4.5610   -0.4140 O   0  0  0  0  0  0  0  0  0  0  0  0
   -0.4530   -3.1000    0.0470 P   0  0  0  0  0  0  0  0  0  0  0  0
   -1.9140   -2.1580    0.1990 O   0  0  0  0  0  0  0  0  0  0  0  0
   -1.5260   -0.9130    0.7390 C   0  0  2  0  0  0  0  0  0  0  0  0
   -2.5940   -0.0680    0.9100 O   0  0  0  0  0  0  0  0  0  0  0  0
   -3.2810    0.2390   -0.2400 C   0  0  2  0  0  0  0  0  0  0  0  0
   -3.2410    1.7090   -0.4480 C   0  0  0  0  0  0  0  0  0  0  0  0
   -3.8030    2.2580   -1.4450 O   0  0  0  0  0  0  0  0  0  0  0  0
   -2.5850    2.5280    0.4450 O   0  0  0  0  0  0  0  0  0  0  0  0
   -4.7280   -0.1210   -0.1030 C   0  0  0  0  0  0  0  0  0  0  0  0
   -5.1110   -0.6210    0.9670 O   0  0  0  0  0  0  0  0  0  0  0  0
   -5.6330    0.0880   -1.1220 O   0  0  0  0  0  0  0  0  0  0  0  0
   -6.9850   -0.2820   -0.9070 C   0  0  0  0  0  0  0  0  0  0  0  0
   -7.5280    0.4190    0.1790 O   0  0  0  0  0  0  0  0  0  0  0  0
   -0.4190   -0.3340   -0.1090 C   0  0  0  0  0  0  0  0  0  0  0  0
    0.7670   -0.3330    0.7100 N   0  0  0  0  0  0  0  0  0  0  0  0
    2.0370    0.1860    0.3620 C   0  0  0  0  0  0  0  0  0  0  0  0
    3.0110    0.1370    1.1530 O   0  0  0  0  0  0  0  0  0  0  0  0
    2.2920    0.7970   -0.9110 N   0  0  0  0  0  0  0  0  0  0  0  0
    3.5730    1.3280   -1.2790 C   0  0  0  0  0  0  0  0  0  0  0  0
    4.9150    0.0570   -1.2610 P   0  0  0  0  0  0  0  0  0  0  0  0
    4.3600   -1.4850   -1.8140 O   0  0  0  0  0  0  0  0  0  0  0  0
    5.7010   -0.0480    0.2740 O   0  0  0  0  0  0  0  0  0  0  0  0
    7.2800    0.6390    0.2400 P   0  0  0  0  0  0  0  0  0  0  0  0
    7.3820    2.0350   -0.7510 O   0  0  0  0  0  0  0  0  0  0  0  0
    8.3970   -0.5750   -0.2970 O   0  0  0  0  0  0  0  0  0  0  0  0
    0.4710   -0.9460    1.9550 C   0  0  0  0  0  0  0  0  0  0  0  0
    1.2500   -1.2720    2.8920 O   0  0  0  0  0  0  0  0  0  0  0  0
   -0.9400   -1.1740    2.0390 N   0  0  0  0  0  0  0  0  0  0  0  0
  1  2  2  0
  2  3  1  0
  4  3  1  6
  4  5  1  0
  4 15  1  0
  4 29  1  0
  6  5  1  1
  6  7  1  0
  6 10  1  0
  7  8  2  0
  7  9  1  0
 10 11  2  0
 10 12  1  0
 12 13  1  0
 13 14  1  0
 15 16  1  0
 16 17  1  0
 16 27  1  0
 17 18  2  0
 17 19  1  0
 19 20  1  0
 20 21  1  0
 21 22  1  0
 21 23  1  0
 23 24  1  0
 24 25  1  0
 24 26  1  0
 27 28  2  0
 27 29  1  0
M  END
