
     RDKit          3D

 29 30  0  0  0  0  0  0  0  0999 V2000
    1.6720    1.1010   -0.4180 O   0  0  0  0  0  0  0  0  0  0  0  0
    1.9700    0.0030    0.1480 C   0  0  0  0  0  0  0  0  0  0  0  0
    0.9190   -0.9610    0.5440 C   0  0  0  0  0  0  0  0  0  0  0  0
   -0.1300   -1.0380   -0.2150 O   0  0  0  0  0  0  0  0  0  0  0  0
   -0.9980    0.0750   -0.5600 C   0  0  1  0  0  0  0  0  0  0  0  0
   -0.7160   -0.0470   -2.1100 C   0  0  0  0  0  0  0  0  0  0  0  0
   -1.1300   -1.2930   -2.5590 O   0  0  0  0  0  0  0  0  0  0  0  0
   -2.3180   -0.5140   -0.3070 C   0  0  0  0  0  0  0  0  0  0  0  0
   -2.4740   -1.9210   -0.4240 C   0  0  0  0  0  0  0  0  0  0  0  0
   -3.6070   -2.5820   -0.0490 C   0  0  0  0  0  0  0  0  0  0  0  0
   -4.6620   -1.8960    0.4660 C   0  0  0  0  0  0  0  0  0  0  0  0
   -5.8230   -2.5290    0.8540 F   0  0  0  0  0  0  0  0  0  0  0  0
   -4.5510   -0.5130    0.5990 C   0  0  0  0  0  0  0  0  0  0  0  0
   -3.3810    0.1550    0.2090 C   0  0  0  0  0  0  0  0  0  0  0  0
   -3.4200    1.6060    0.3070 C   0  0  0  0  0  0  0  0  0  0  0  0
   -2.4520    2.3480   -0.1620 C   0  0  0  0  0  0  0  0  0  0  0  0
   -2.6290    3.7630    0.0160 O   0  0  0  0  0  0  0  0  0  0  0  0
   -4.6470    2.2750    0.8090 C   0  0  0  0  0  0  0  0  0  0  0  0
   -4.6650    3.6160    0.8950 F   0  0  0  0  0  0  0  0  0  0  0  0
   -5.6950    1.5590    1.1600 C   0  0  0  0  0  0  0  0  0  0  0  0
   -5.7100    0.1570    1.0770 N   0  0  0  0  0  0  0  0  0  0  0  0
    3.3690   -0.1970    0.3420 N   0  0  0  0  0  0  0  0  0  0  0  0
    3.8970   -1.4070    0.9270 C   0  0  0  0  0  0  0  0  0  0  0  0
    4.2420   -2.4150   -0.1570 C   0  0  0  0  0  0  0  0  0  0  0  0
    3.1940   -2.8060   -0.9530 O   0  0  0  0  0  0  0  0  0  0  0  0
    4.3450    0.7820   -0.1110 C   0  0  0  0  0  0  0  0  0  0  0  0
    4.7080    2.0820    1.1610 P   0  0  0  0  0  0  0  0  0  0  0  0
    4.4590    3.6780    0.4610 O   0  0  0  0  0  0  0  0  0  0  0  0
    6.3960    2.0420    1.6140 O   0  0  0  0  0  0  0  0  0  0  0  0
  1  2  2  0
  2  3  1  0
  2 22  1  0
  3  4  1  0
  4  5  1  0
  5  6  1  6
  5  8  1  0
  6  7  1  0
  8  9  2  0
  8 14  1  0
  9 10  1  0
 10 11  2  0
 11 12  1  0
 11 13  1  0
 13 14  2  0
 13 21  1  0
 14 15  1  0
 15 16  2  3
 15 18  1  0
 16 17  1  0
 18 19  1  0
 18 20  2  0
 20 21  1  0
 22 23  1  0
 22 26  1  0
 23 24  1  0
 24 25  1  0
 26 27  1  0
 27 28  1  0
 27 29  1  0
M  END
