
     RDKit          3D

 28 28  0  0  0  0  0  0  0  0999 V2000
   -2.1990    1.5320    0.5840 N   0  0  0  0  0  0  0  0  0  0  0  0
   -2.2490    0.1000    0.3990 C   0  0  1  0  0  0  0  0  0  0  0  0
   -1.8320   -0.6120    1.5090 O   0  0  0  0  0  0  0  0  0  0  0  0
   -2.8060   -0.2640    2.8730 P   0  0  0  0  0  0  0  0  0  0  0  0
   -3.8460    1.0800    2.6690 O   0  0  0  0  0  0  0  0  0  0  0  0
   -3.6920   -1.6460    3.4280 O   0  0  0  0  0  0  0  0  0  0  0  0
   -3.6330   -0.2310    0.2060 O   0  0  0  0  0  0  0  0  0  0  0  0
   -4.3080    0.3040   -0.9070 C   0  0  0  0  0  0  0  0  0  0  0  0
   -5.5470    0.5070   -0.8980 O   0  0  0  0  0  0  0  0  0  0  0  0
   -3.5460    0.6170   -2.0650 N   0  0  0  0  0  0  0  0  0  0  0  0
   -4.1620    1.1580   -3.2210 C   0  0  0  0  0  0  0  0  0  0  0  0
   -5.4010    1.3620   -3.2160 O   0  0  0  0  0  0  0  0  0  0  0  0
   -2.1490    0.3640   -2.0120 C   0  0  0  0  0  0  0  0  0  0  0  0
   -1.4440    0.7570   -2.9840 O   0  0  0  0  0  0  0  0  0  0  0  0
   -1.5370   -0.3370   -0.8570 C   0  0  1  0  0  0  0  0  0  0  0  0
   -0.1710   -0.0450   -0.8400 O   0  0  0  0  0  0  0  0  0  0  0  0
    0.7630   -1.0600   -0.9420 C   0  0  0  0  0  0  0  0  0  0  0  0
    0.3160   -2.2460   -1.0500 O   0  0  0  0  0  0  0  0  0  0  0  0
    2.1640   -0.8190   -0.9310 N   0  0  0  0  0  0  0  0  0  0  0  0
    2.6680    0.5300   -0.8080 C   0  0  0  0  0  0  0  0  0  0  0  0
    2.8640    0.8880    0.6500 C   0  0  0  0  0  0  0  0  0  0  0  0
    3.5000    2.5810    0.8990 P   0  0  0  0  0  0  0  0  0  0  0  0
    4.9030    2.6690    1.8780 O   0  0  0  0  0  0  0  0  0  0  0  0
    2.3020    3.7320    1.3010 O   0  0  0  0  0  0  0  0  0  0  0  0
    3.0950   -1.9030   -1.0390 C   0  0  0  0  0  0  0  0  0  0  0  0
    3.5630   -2.5930    0.6300 P   0  0  0  0  0  0  0  0  0  0  0  0
    2.1800   -2.9220    1.5920 O   0  0  0  0  0  0  0  0  0  0  0  0
    4.5710   -3.9680    0.3900 O   0  0  0  0  0  0  0  0  0  0  0  0
  2  1  1  1
  2  3  1  0
  2  7  1  0
  2 15  1  0
  3  4  1  0
  4  5  1  0
  4  6  1  0
  7  8  1  0
  8  9  2  0
  8 10  1  0
 10 11  1  0
 10 13  1  0
 11 12  2  0
 13 14  2  0
 13 15  1  0
 15 16  1  1
 16 17  1  0
 17 18  2  0
 17 19  1  0
 19 20  1  0
 19 25  1  0
 20 21  1  0
 21 22  1  0
 22 23  1  0
 22 24  1  0
 25 26  1  0
 26 27  1  0
 26 28  1  0
M  END
