
     RDKit          3D

 29 30  0  0  0  0  0  0  0  0999 V2000
   -3.9140    3.2470   -1.4460 O   0  0  0  0  0  0  0  0  0  0  0  0
   -2.8400    2.6450   -1.2060 C   0  0  0  0  0  0  0  0  0  0  0  0
   -1.6740    3.3820   -1.2870 O   0  0  0  0  0  0  0  0  0  0  0  0
   -2.8300    1.2260   -0.8570 C   0  0  0  0  0  0  0  0  0  0  0  0
   -4.0460    0.5430   -0.7940 C   0  0  0  0  0  0  0  0  0  0  0  0
   -4.1130   -0.7780   -0.4750 C   0  0  0  0  0  0  0  0  0  0  0  0
   -5.2740   -1.5570   -0.4140 N   0  0  0  0  0  0  0  0  0  0  0  0
   -6.6370   -1.0950   -0.4850 C   0  0  0  0  0  0  0  0  0  0  0  0
   -7.0300   -0.5450    0.8570 C   0  0  0  0  0  0  0  0  0  0  0  0
   -6.2120    0.4930    1.2070 O   0  0  0  0  0  0  0  0  0  0  0  0
   -2.8920   -1.4080   -0.2170 C   0  0  0  0  0  0  0  0  0  0  0  0
   -2.8520   -2.7370    0.1120 F   0  0  0  0  0  0  0  0  0  0  0  0
   -1.6890   -0.7520   -0.2750 C   0  0  0  0  0  0  0  0  0  0  0  0
   -0.5000   -1.4290   -0.0080 O   0  0  0  0  0  0  0  0  0  0  0  0
    0.7600   -0.7400   -0.0700 C   0  0  0  0  0  0  0  0  0  0  0  0
    1.7920   -1.7900    0.2750 C   0  0  0  0  0  0  0  0  0  0  0  0
    3.0400   -1.2660    0.2470 O   0  0  0  0  0  0  0  0  0  0  0  0
    3.7900   -0.3550    0.8350 C   0  0  0  0  0  0  0  0  0  0  0  0
    3.3860    0.4520    1.8600 C   0  0  0  0  0  0  0  0  0  0  0  0
    4.2320    1.4060    2.4500 C   0  0  0  0  0  0  0  0  0  0  0  0
    3.8140    2.1940    3.4600 F   0  0  0  0  0  0  0  0  0  0  0  0
    5.5150    1.5230    1.9690 C   0  0  0  0  0  0  0  0  0  0  0  0
    5.9540    0.7240    0.9380 C   0  0  0  0  0  0  0  0  0  0  0  0
    5.1090   -0.2030    0.3750 C   0  0  0  0  0  0  0  0  0  0  0  0
    5.6340   -1.0400   -0.7360 C   0  0  0  0  0  0  0  0  0  0  0  0
    5.0010   -0.4890   -2.3830 P   0  0  0  0  0  0  0  0  0  0  0  0
    6.2770    0.2190   -3.3110 O   0  0  0  0  0  0  0  0  0  0  0  0
    3.7630    0.6900   -2.1700 O   0  0  0  0  0  0  0  0  0  0  0  0
   -1.7000    0.5610   -0.5980 N   0  0  0  0  0  0  0  0  0  0  0  0
  1  2  2  0
  2  3  1  0
  2  4  1  0
  4  5  2  0
  4 29  1  0
  5  6  1  0
  6  7  1  0
  6 11  2  0
  7  8  1  0
  8  9  1  0
  9 10  1  0
 11 12  1  0
 11 13  1  0
 13 14  1  0
 13 29  2  0
 14 15  1  0
 15 16  1  0
 16 17  1  0
 17 18  1  0
 18 19  2  0
 18 24  1  0
 19 20  1  0
 20 21  1  0
 20 22  2  0
 22 23  1  0
 23 24  2  0
 24 25  1  0
 25 26  1  0
 26 27  1  0
 26 28  1  0
M  END
