
     RDKit          3D

 20 21  0  0  0  0  0  0  0  0999 V2000
   -2.6550   -3.3690    0.6930 O   0  0  0  0  0  0  0  0  0  0  0  0
   -2.0460   -2.2830    0.3780 C   0  0  0  0  0  0  0  0  0  0  0  0
   -2.6250   -1.1730   -0.2940 N   0  0  0  0  0  0  0  0  0  0  0  0
   -1.7570   -0.2450   -0.4620 C   0  0  0  0  0  0  0  0  0  0  0  0
   -2.0070    0.9850   -1.0920 O   0  0  0  0  0  0  0  0  0  0  0  0
   -3.2660    1.6220   -0.9860 C   0  0  0  0  0  0  0  0  0  0  0  0
   -3.5470    1.9090    0.4560 C   0  0  0  0  0  0  0  0  0  0  0  0
   -3.5810    0.7810    1.2440 O   0  0  0  0  0  0  0  0  0  0  0  0
   -0.5030   -0.6800    0.1020 C   0  0  2  0  0  0  0  0  0  0  0  0
   -0.0720    0.0930    1.1910 O   0  0  0  0  0  0  0  0  0  0  0  0
    0.8270   -0.6720    1.9040 C   0  0  0  0  0  0  0  0  0  0  0  0
    1.9500   -1.2370    1.1060 C   0  0  0  0  0  0  0  0  0  0  0  0
    1.9200   -0.8830   -0.2960 N   0  0  0  0  0  0  0  0  0  0  0  0
    3.1470   -0.7870   -1.0630 C   0  0  0  0  0  0  0  0  0  0  0  0
    3.7180    0.9940   -0.8970 P   0  0  0  0  0  0  0  0  0  0  0  0
    2.7000    2.0500   -1.8130 O   0  0  0  0  0  0  0  0  0  0  0  0
    5.3370    1.1900   -1.4470 O   0  0  0  0  0  0  0  0  0  0  0  0
    0.6400   -0.6430   -0.8520 C   0  0  0  0  0  0  0  0  0  0  0  0
    0.4620   -0.4150   -2.0600 O   0  0  0  0  0  0  0  0  0  0  0  0
   -0.7320   -1.9590    0.6150 O   0  0  0  0  0  0  0  0  0  0  0  0
  1  2  2  0
  2  3  1  0
  2 20  1  0
  3  4  2  0
  4  5  1  0
  4  9  1  0
  5  6  1  0
  6  7  1  0
  7  8  1  0
  9 10  1  1
  9 18  1  0
  9 20  1  0
 10 11  1  0
 11 12  1  0
 12 13  1  0
 13 14  1  0
 13 18  1  0
 14 15  1  0
 15 16  1  0
 15 17  1  0
 18 19  2  0
M  END
