
     RDKit          3D

 10  9  0  0  0  0  0  0  0  0999 V2000
    0.9440   -1.1330    0.4110 O   0  0  0  0  0  0  0  0  0  0  0  0
    1.2460   -0.2740   -0.4480 C   0  0  0  0  0  0  0  0  0  0  0  0
    0.2560    0.4570   -1.1540 N   0  0  0  0  0  0  0  0  0  0  0  0
   -1.1350    0.2650   -0.9370 C   0  0  0  0  0  0  0  0  0  0  0  0
   -1.6600    0.6120    0.8160 P   0  0  0  0  0  0  0  0  0  0  0  0
   -1.4240   -0.7770    1.8270 O   0  0  0  0  0  0  0  0  0  0  0  0
   -3.3740    0.9070    0.7670 O   0  0  0  0  0  0  0  0  0  0  0  0
    2.5800   -0.0390   -0.7070 O   0  0  0  0  0  0  0  0  0  0  0  0
    3.5240   -0.7210   -0.0470 O   0  0  0  0  0  0  0  0  0  0  0  0
    4.0800    0.1400    0.8020 O   0  0  0  0  0  0  0  0  0  0  0  0
  1  2  2  0
  2  3  1  0
  2  8  1  0
  3  4  1  0
  4  5  1  0
  5  6  1  0
  5  7  1  0
  8  9  1  0
  9 10  1  0
M  END
