
     RDKit          3D

 19 20  0  0  0  0  0  0  0  0999 V2000
    3.1950   -1.5540   -0.7610 O   0  0  0  0  0  0  0  0  0  0  0  0
    3.0350   -0.5110   -0.0420 C   0  0  0  0  0  0  0  0  0  0  0  0
    4.1590    0.0170    0.6250 N   0  0  0  0  0  0  0  0  0  0  0  0
    5.7670   -0.7790    0.4530 P   0  0  0  0  0  0  0  0  0  0  0  0
    6.9860    0.4340    0.2980 O   0  0  0  0  0  0  0  0  0  0  0  0
    5.7710   -1.7760   -0.9670 O   0  0  0  0  0  0  0  0  0  0  0  0
    1.7290    0.0410    0.0300 N   0  0  0  0  0  0  0  0  0  0  0  0
    1.4810    1.2190    0.8320 C   0  0  0  0  0  0  0  0  0  0  0  0
    0.0380    1.3040    1.2960 C   0  0  0  0  0  0  0  0  0  0  0  0
   -0.4480   -0.0150    1.3580 O   0  0  0  0  0  0  0  0  0  0  0  0
   -0.6720   -0.3800    0.0230 C   0  0  1  0  0  0  0  0  0  0  0  0
   -1.5780   -1.5930   -0.0290 C   0  0  0  0  0  0  0  0  0  0  0  0
   -2.8170   -1.0000    0.2350 O   0  0  0  0  0  0  0  0  0  0  0  0
   -2.7600    0.0930   -0.6300 C   0  0  1  0  0  0  0  0  0  0  0  0
   -3.8160    1.1240   -0.3020 C   0  0  0  0  0  0  0  0  0  0  0  0
   -5.1850    0.4950   -0.4200 C   0  0  0  0  0  0  0  0  0  0  0  0
   -5.3270   -0.5770    0.4530 O   0  0  0  0  0  0  0  0  0  0  0  0
   -1.4880    0.6110   -0.5330 O   0  0  0  0  0  0  0  0  0  0  0  0
    0.6160   -0.5680   -0.7050 C   0  0  0  0  0  0  0  0  0  0  0  0
  1  2  2  0
  2  3  1  0
  2  7  1  0
  3  4  1  0
  4  5  1  0
  4  6  1  0
  7  8  1  0
  7 19  1  0
  8  9  1  0
  9 10  1  0
 10 11  1  0
 11 12  1  1
 11 18  1  0
 11 19  1  0
 12 13  1  0
 13 14  1  0
 14 15  1  1
 14 18  1  0
 15 16  1  0
 16 17  1  0
M  END
