
     RDKit          3D

 19 19  0  0  0  0  0  0  0  0999 V2000
   -0.4010   -1.7550    1.5110 C   0  0  0  0  0  0  0  0  0  0  0  0
   -1.0400   -1.5970    0.1330 C   0  0  2  0  0  0  0  0  0  0  0  0
   -0.1150   -0.9420   -0.8570 C   0  0  0  0  0  0  0  0  0  0  0  0
    0.3760    0.2540   -0.2980 N   0  0  0  0  0  0  0  0  0  0  0  0
    1.7100    0.2930    0.1520 C   0  0  0  0  0  0  0  0  0  0  0  0
    2.6610    0.2090   -1.0220 C   0  0  1  0  0  0  0  0  0  0  0  0
    2.4170    1.2890   -1.8560 O   0  0  0  0  0  0  0  0  0  0  0  0
    4.3890    0.2940   -0.3070 P   0  0  0  0  0  0  0  0  0  0  0  0
    5.4410   -0.8450   -1.0770 O   0  0  0  0  0  0  0  0  0  0  0  0
    5.0150    1.8920   -0.3350 O   0  0  0  0  0  0  0  0  0  0  0  0
   -0.5590    1.1420    0.2620 C   0  0  0  0  0  0  0  0  0  0  0  0
   -1.9600    0.6820    0.3580 C   0  0  1  0  0  0  0  0  0  0  0  0
   -2.7570    1.4050   -0.6760 C   0  0  0  0  0  0  0  0  0  0  0  0
   -3.5070    0.8120   -1.4760 O   0  0  0  0  0  0  0  0  0  0  0  0
   -2.6580    2.7800   -0.7460 O   0  0  0  0  0  0  0  0  0  0  0  0
   -2.1760   -0.7350    0.3010 N   0  0  0  0  0  0  0  0  0  0  0  0
   -3.4600   -1.2900    0.4070 C   0  0  0  0  0  0  0  0  0  0  0  0
   -3.7020   -2.5220    0.3600 O   0  0  0  0  0  0  0  0  0  0  0  0
   -4.5620   -0.4520    0.5760 O   0  0  0  0  0  0  0  0  0  0  0  0
  2  1  1  1
  2  3  1  0
  2 16  1  0
  3  4  1  0
  4  5  1  0
  4 11  1  0
  5  6  1  0
  6  7  1  6
  6  8  1  0
  8  9  1  0
  8 10  1  0
 11 12  1  0
 12 13  1  6
 12 16  1  0
 13 14  2  0
 13 15  1  0
 16 17  1  0
 17 18  2  0
 17 19  1  0
M  END
