
     RDKit          3D

 19 19  0  0  0  0  0  0  0  0999 V2000
   -2.9580   -1.7260    1.5910 O   0  0  0  0  0  0  0  0  0  0  0  0
   -3.7650   -1.3460    0.7110 C   0  0  0  0  0  0  0  0  0  0  0  0
   -4.9820   -2.0230    0.5700 O   0  0  0  0  0  0  0  0  0  0  0  0
   -3.4080   -0.2760   -0.0760 O   0  0  0  0  0  0  0  0  0  0  0  0
   -2.2130    0.4170    0.0400 C   0  0  2  0  0  0  0  0  0  0  0  0
   -2.0030    1.0620    1.3610 C   0  0  0  0  0  0  0  0  0  0  0  0
   -3.0590    1.9600    1.5690 O   0  0  0  0  0  0  0  0  0  0  0  0
   -2.2120    1.3840   -0.9960 O   0  0  0  0  0  0  0  0  0  0  0  0
   -2.0720    0.6640   -2.1370 N   0  0  0  0  0  0  0  0  0  0  0  0
   -1.3490   -0.5290   -1.8710 C   0  0  0  0  0  0  0  0  0  0  0  0
   -1.0100   -1.4390   -2.6580 O   0  0  0  0  0  0  0  0  0  0  0  0
   -1.0700   -0.4700   -0.4150 C   0  0  1  0  0  0  0  0  0  0  0  0
    0.2220    0.1360   -0.1770 N   0  0  0  0  0  0  0  0  0  0  0  0
    1.2230   -0.7440   -0.7360 C   0  0  0  0  0  0  0  0  0  0  0  0
    2.6280   -0.2410   -0.5470 C   0  0  0  0  0  0  0  0  0  0  0  0
    3.0110   -0.0680    0.8980 C   0  0  0  0  0  0  0  0  0  0  0  0
    4.7720    0.5580    0.9240 P   0  0  0  0  0  0  0  0  0  0  0  0
    4.8070    2.2600    1.1420 O   0  0  0  0  0  0  0  0  0  0  0  0
    5.5640    0.0440   -0.5250 O   0  0  0  0  0  0  0  0  0  0  0  0
  1  2  2  0
  2  3  1  0
  2  4  1  0
  4  5  1  0
  5  6  1  1
  5  8  1  0
  5 12  1  0
  6  7  1  0
  8  9  1  0
  9 10  1  0
 10 11  2  0
 10 12  1  0
 12 13  1  6
 13 14  1  0
 14 15  1  0
 15 16  1  0
 16 17  1  0
 17 18  1  0
 17 19  1  0
M  END
