
     RDKit          3D

 20 21  0  0  0  0  0  0  0  0999 V2000
   -0.0340   -1.2550    1.6030 O   0  0  0  0  0  0  0  0  0  0  0  0
    0.0260   -0.2870    0.8240 C   0  0  0  0  0  0  0  0  0  0  0  0
   -1.0700    0.2530    0.1540 N   0  0  0  0  0  0  0  0  0  0  0  0
   -2.3790   -0.2020    0.2550 C   0  0  0  0  0  0  0  0  0  0  0  0
   -2.7470   -1.2560    1.0420 C   0  0  0  0  0  0  0  0  0  0  0  0
   -4.0490   -1.6540    1.0980 N   0  0  0  0  0  0  0  0  0  0  0  0
   -4.9800   -1.0120    0.3790 C   0  0  0  0  0  0  0  0  0  0  0  0
   -4.6450    0.0610   -0.4310 C   0  0  0  0  0  0  0  0  0  0  0  0
   -3.3490    0.4780   -0.5040 C   0  0  0  0  0  0  0  0  0  0  0  0
   -3.2990    1.5600   -1.3800 O   0  0  0  0  0  0  0  0  0  0  0  0
   -4.6410    2.0590   -1.4710 C   0  0  0  0  0  0  0  0  0  0  0  0
   -5.3970    0.8770   -1.2560 O   0  0  0  0  0  0  0  0  0  0  0  0
    1.3180    0.2510    0.6510 O   0  0  0  0  0  0  0  0  0  0  0  0
    2.4290   -0.2890    1.3230 C   0  0  2  0  0  0  0  0  0  0  0  0
    3.0050    0.7060    2.1100 O   0  0  0  0  0  0  0  0  0  0  0  0
    3.4060   -0.7540    0.2470 C   0  0  0  0  0  0  0  0  0  0  0  0
    3.7650    0.3640   -0.5280 O   0  0  0  0  0  0  0  0  0  0  0  0
    4.8680   -0.1760   -1.7380 P   0  0  0  0  0  0  0  0  0  0  0  0
    5.5640   -1.6890   -1.2690 O   0  0  0  0  0  0  0  0  0  0  0  0
    6.1560    0.9630   -1.9940 O   0  0  0  0  0  0  0  0  0  0  0  0
  1  2  2  0
  2  3  1  0
  2 13  1  0
  3  4  1  0
  4  5  2  0
  4  9  1  0
  5  6  1  0
  6  7  2  0
  7  8  1  0
  8  9  2  0
  8 12  1  0
  9 10  1  0
 10 11  1  0
 11 12  1  0
 13 14  1  0
 14 15  1  1
 14 16  1  0
 16 17  1  0
 17 18  1  0
 18 19  1  0
 18 20  1  0
M  END
