
     RDKit          3D

 19 19  0  0  0  0  0  0  0  0999 V2000
    7.0270    0.9500   -0.8500 O   0  0  0  0  0  0  0  0  0  0  0  0
    5.9330    0.3760    0.0880 P   0  0  0  0  0  0  0  0  0  0  0  0
    4.1430    0.2810   -0.4350 C   0  0  0  0  0  0  0  0  0  0  0  0
    3.3020    0.8280    0.7050 C   0  0  0  0  0  0  0  0  0  0  0  0
    1.8950    0.7920    0.3720 N   0  0  0  0  0  0  0  0  0  0  0  0
    1.1950   -0.4020    0.0810 C   0  0  0  0  0  0  0  0  0  0  0  0
    1.8220   -1.5050    0.1110 O   0  0  0  0  0  0  0  0  0  0  0  0
   -0.1820   -0.3300   -0.2360 N   0  0  0  0  0  0  0  0  0  0  0  0
   -1.0230    0.8380   -0.3120 C   0  0  0  0  0  0  0  0  0  0  0  0
   -2.2870    0.3710    0.3720 C   0  0  1  0  0  0  0  0  0  0  0  0
   -2.3400    0.8540    1.6860 O   0  0  0  0  0  0  0  0  0  0  0  0
   -3.4290    0.7660   -0.3590 O   0  0  0  0  0  0  0  0  0  0  0  0
   -3.7130    2.1110   -0.6140 C   0  0  0  0  0  0  0  0  0  0  0  0
   -2.9110    2.9610   -0.1650 O   0  0  0  0  0  0  0  0  0  0  0  0
   -4.8290    2.4550   -1.3270 O   0  0  0  0  0  0  0  0  0  0  0  0
   -2.2360   -1.1410    0.3680 C   0  0  0  0  0  0  0  0  0  0  0  0
   -1.0600   -1.4240   -0.5610 C   0  0  2  0  0  0  0  0  0  0  0  0
   -0.4840   -2.7900   -0.3120 C   0  0  0  0  0  0  0  0  0  0  0  0
   -0.1710   -2.9250    1.0340 O   0  0  0  0  0  0  0  0  0  0  0  0
  1  2  2  0
  2  3  1  0
  3  4  1  0
  4  5  1  0
  5  6  1  0
  6  7  2  0
  6  8  1  0
  8  9  1  0
  8 17  1  0
  9 10  1  0
 10 11  1  1
 10 12  1  0
 10 16  1  0
 12 13  1  0
 13 14  2  0
 13 15  1  0
 16 17  1  0
 17 18  1  1
 18 19  1  0
M  END
