
     RDKit          3D

 20 21  0  0  0  0  0  0  0  0999 V2000
   -6.0790   -1.7290   -0.2810 O   0  0  0  0  0  0  0  0  0  0  0  0
   -5.2210   -0.8250   -0.4440 C   0  0  0  0  0  0  0  0  0  0  0  0
   -5.3470    0.0620   -1.6070 C   0  0  0  0  0  0  0  0  0  0  0  0
   -4.3480    0.9940   -1.7160 O   0  0  0  0  0  0  0  0  0  0  0  0
   -3.1220    0.5830   -1.2460 C   0  0  0  0  0  0  0  0  0  0  0  0
   -3.2170    0.3920    0.2480 C   0  0  2  0  0  0  0  0  0  0  0  0
   -1.9140    0.0020    0.8430 C   0  0  0  0  0  0  0  0  0  0  0  0
   -1.7640   -1.0950    1.4320 O   0  0  0  0  0  0  0  0  0  0  0  0
   -0.7900    0.8270    0.7800 O   0  0  0  0  0  0  0  0  0  0  0  0
    0.4330    0.4540    1.3420 C   0  0  0  0  0  0  0  0  0  0  0  0
    0.5540   -0.6530    1.9270 O   0  0  0  0  0  0  0  0  0  0  0  0
    1.5790    1.2940    1.2790 N   0  0  0  0  0  0  0  0  0  0  0  0
    2.8500    0.9450    1.8430 C   0  0  0  0  0  0  0  0  0  0  0  0
    3.4290   -0.3210    1.2510 C   0  0  0  0  0  0  0  0  0  0  0  0
    3.6660   -0.1030   -0.5780 P   0  0  0  0  0  0  0  0  0  0  0  0
    4.5630   -1.5100   -1.1530 O   0  0  0  0  0  0  0  0  0  0  0  0
    5.6690   -0.8150   -1.7020 C   0  0  0  0  0  0  0  0  0  0  0  0
    5.9960    0.1850   -0.8140 O   0  0  0  0  0  0  0  0  0  0  0  0
    4.9780    1.0530   -0.8070 O   0  0  0  0  0  0  0  0  0  0  0  0
   -4.1600   -0.6830    0.4900 N   0  0  0  0  0  0  0  0  0  0  0  0
  1  2  2  0
  2  3  1  0
  2 20  1  0
  3  4  1  0
  4  5  1  0
  5  6  1  0
  6  7  1  6
  6 20  1  0
  7  8  2  0
  7  9  1  0
  9 10  1  0
 10 11  2  0
 10 12  1  0
 12 13  1  0
 13 14  1  0
 14 15  1  0
 15 16  1  0
 15 19  1  0
 16 17  1  0
 17 18  1  0
 18 19  1  0
M  END
