
     RDKit          3D

 19 20  0  0  0  0  0  0  0  0999 V2000
    0.6850   -1.3890    0.8430 O   0  0  0  0  0  0  0  0  0  0  0  0
    0.6010   -0.4500   -0.0250 C   0  0  0  0  0  0  0  0  0  0  0  0
    1.7370   -0.4190   -0.9210 N   0  0  0  0  0  0  0  0  0  0  0  0
    2.6600   -1.5090   -0.8810 C   0  0  0  0  0  0  0  0  0  0  0  0
    3.6020   -1.4750    0.4030 C   0  0  0  0  0  0  0  0  0  0  0  0
    4.3960   -0.4120    0.2060 O   0  0  0  0  0  0  0  0  0  0  0  0
    4.6100    0.9810    1.0590 P   0  0  0  0  0  0  0  0  0  0  0  0
    6.3480    1.3530    1.1140 O   0  0  0  0  0  0  0  0  0  0  0  0
    3.9900    2.3220   -0.0370 O   0  0  0  0  0  0  0  0  0  0  0  0
   -0.4910    0.3840   -0.0640 N   0  0  0  0  0  0  0  0  0  0  0  0
   -1.6570    0.3960    0.7820 C   0  0  1  0  0  0  0  0  0  0  0  0
   -2.1570    1.7870    1.0410 C   0  0  0  0  0  0  0  0  0  0  0  0
   -3.2400    2.1160    0.2150 O   0  0  0  0  0  0  0  0  0  0  0  0
   -4.3210    1.2650    0.3570 C   0  0  0  0  0  0  0  0  0  0  0  0
   -3.9920    0.0440    0.8530 O   0  0  0  0  0  0  0  0  0  0  0  0
   -2.8300   -0.3950    0.2270 C   0  0  2  0  0  0  0  0  0  0  0  0
   -2.7440   -1.8790    0.2050 C   0  0  0  0  0  0  0  0  0  0  0  0
   -2.2220   -1.8360   -1.0840 O   0  0  0  0  0  0  0  0  0  0  0  0
   -2.8730   -0.5970   -1.2470 C   0  0  0  0  0  0  0  0  0  0  0  0
  1  2  2  0
  2  3  1  0
  2 10  1  0
  3  4  1  0
  4  5  1  0
  5  6  1  0
  6  7  1  0
  7  8  1  0
  7  9  1  0
 11 10  1  6
 11 12  1  0
 11 16  1  0
 12 13  1  0
 13 14  1  0
 14 15  1  0
 15 16  1  0
 16 17  1  1
 16 19  1  0
 17 18  1  0
 18 19  1  0
M  END
