
     RDKit          3D

 12 12  0  0  0  0  0  0  0  0999 V2000
    3.5420    0.3090    0.5010 C   0  0  0  0  0  0  0  0  0  0  0  0
    2.1310    0.0030    0.1520 C   0  0  0  0  0  0  0  0  0  0  0  0
    1.5440    0.4400   -1.0180 C   0  0  0  0  0  0  0  0  0  0  0  0
    0.2330    0.1450   -1.3220 C   0  0  0  0  0  0  0  0  0  0  0  0
   -0.5530   -0.6020   -0.4690 C   0  0  0  0  0  0  0  0  0  0  0  0
   -1.8610   -0.8660   -0.8270 O   0  0  0  0  0  0  0  0  0  0  0  0
   -3.1760    0.1380   -0.4200 P   0  0  2  0  0  0  0  0  0  0  0  0
   -3.7980    0.6270   -1.7120 O   0  0  0  0  0  0  0  0  0  0  0  0
   -2.6550    1.4900    0.4600 O   0  0  0  0  0  0  0  0  0  0  0  0
   -4.3590   -0.7270    0.4100 O   0  0  0  0  0  0  0  0  0  0  0  0
    0.0190   -1.0410    0.6950 C   0  0  0  0  0  0  0  0  0  0  0  0
    1.3390   -0.7470    1.0070 C   0  0  0  0  0  0  0  0  0  0  0  0
  1  2  1  0
  2  3  2  0
  2 12  1  0
  3  4  1  0
  4  5  2  0
  5  6  1  0
  5 11  1  0
  6  7  1  0
  7  8  2  0
  7  9  1  1
  7 10  1  0
 11 12  2  0
M  END
