
     RDKit          3D

 12 12  0  0  0  0  0  0  0  0999 V2000
    2.6060    3.7940   -0.5590 O   0  0  0  0  0  0  0  0  0  0  0  0
    3.2660    2.3820   -0.6370 P   0  0  0  0  0  0  0  0  0  0  0  0
    2.3890    0.9000   -0.0510 C   0  0  0  0  0  0  0  0  0  0  0  0
    0.7630    0.7140   -0.1600 P   0  0  0  0  0  0  0  0  0  0  0  0
   -0.2120   -0.6570    0.3670 N   0  0  0  0  0  0  0  0  0  0  0  0
   -1.6620   -0.5980    0.1960 C   0  0  0  0  0  0  0  0  0  0  0  0
   -2.0970    0.5920   -0.5840 C   0  0  0  0  0  0  0  0  0  0  0  0
   -3.5040    0.5710   -0.6730 O   0  0  0  0  0  0  0  0  0  0  0  0
    0.3870   -1.7820    0.9660 C   0  0  0  0  0  0  0  0  0  0  0  0
    1.9940   -2.0530    1.2840 P   0  0  0  0  0  0  0  0  0  0  0  0
    3.3660   -0.4520    0.6910 P   0  0  0  0  0  0  0  0  0  0  0  0
    4.5940   -1.2510   -0.8580 Cl  0  0  0  0  0  0  0  0  0  0  0  0
  1  2  2  0
  2  3  1  0
  3  4  2  0
  3 11  1  0
  4  5  1  0
  5  6  1  0
  5  9  1  0
  6  7  1  0
  7  8  1  0
  9 10  2  0
 10 11  1  0
 11 12  1  0
M  END
