
     RDKit          3D

 12 12  0  0  0  0  0  0  0  0999 V2000
   -4.3140    1.6320   -0.9110 N   0  0  0  0  0  0  0  0  0  0  0  0
   -2.6760    1.5030   -0.2010 P   0  0  0  0  0  0  0  0  0  0  0  0
   -2.1060   -0.2130   -0.0730 C   0  0  0  0  0  0  0  0  0  0  0  0
   -0.8480   -0.5760   -0.0690 C   0  0  0  0  0  0  0  0  0  0  0  0
    0.2580    0.3990   -0.1700 C   0  0  0  0  0  0  0  0  0  0  0  0
    1.5120    0.0270   -0.1550 C   0  0  0  0  0  0  0  0  0  0  0  0
    2.5200    1.0100   -0.2580 N   0  0  0  0  0  0  0  0  0  0  0  0
    3.2110    1.7240    1.0420 P   0  0  0  0  0  0  0  0  0  0  0  0
    4.4460    2.9230    0.7130 O   0  0  0  0  0  0  0  0  0  0  0  0
    1.8590   -1.3980   -0.0110 C   0  0  0  0  0  0  0  0  0  0  0  0
    0.8050   -2.2760   -0.6270 C   0  0  0  0  0  0  0  0  0  0  0  0
   -0.4610   -1.9490    0.0440 N   0  0  0  0  0  0  0  0  0  0  0  0
  1  2  1  0
  2  3  1  0
  3  4  2  3
  4  5  1  0
  4 12  1  0
  5  6  2  0
  6  7  1  0
  6 10  1  0
  7  8  2  3
  8  9  1  0
 10 11  1  0
 11 12  1  0
M  END
