
     RDKit          3D

 12 11  0  0  0  0  0  0  0  0999 V2000
   -3.0370   -1.1950   -1.3620 C   0  0  0  0  0  0  0  0  0  0  0  0
   -2.2530   -1.5170   -0.2040 O   0  0  0  0  0  0  0  0  0  0  0  0
   -1.2880   -0.5870    0.1520 C   0  0  0  0  0  0  0  0  0  0  0  0
   -0.2440   -0.4120   -0.6320 C   0  0  0  0  0  0  0  0  0  0  0  0
    0.7940    0.5190   -0.3480 N   0  0  0  0  0  0  0  0  0  0  0  0
    0.6490    1.8070   -0.8740 N   0  0  0  0  0  0  0  0  0  0  0  0
    2.2480    2.6410   -1.0010 P   0  0  0  0  0  0  0  0  0  0  0  0
    2.2170    0.1350    0.6120 P   0  0  0  0  0  0  0  0  0  0  0  0
    2.8180   -1.5810    0.4630 C   0  0  0  0  0  0  0  0  0  0  0  0
    2.2170    0.8920    2.5410 Cl  0  0  0  0  0  0  0  0  0  0  0  0
   -1.4620    0.1750    1.3910 C   0  0  0  0  0  0  0  0  0  0  0  0
   -2.6250    0.9310    1.4000 O   0  0  0  0  0  0  0  0  0  0  0  0
  1  2  1  0
  2  3  1  0
  3  4  2  3
  3 11  1  0
  4  5  1  0
  5  6  1  0
  5  8  1  0
  6  7  1  0
  8  9  1  0
  8 10  1  0
 11 12  1  0
M  END
