
     RDKit          3D

 12 11  0  0  0  0  0  0  0  0999 V2000
   -3.0790    1.2260    0.1910 C   0  0  0  0  0  0  0  0  0  0  0  0
   -2.0300    0.5430   -0.6850 C   0  0  0  0  0  0  0  0  0  0  0  0
   -1.6990   -0.7730   -0.0500 C   0  0  0  0  0  0  0  0  0  0  0  0
   -2.7580   -1.8070    0.1570 C   0  0  0  0  0  0  0  0  0  0  0  0
   -2.1570   -2.9640    0.7830 N   0  0  0  0  0  0  0  0  0  0  0  0
   -0.1440   -1.0940    0.4310 P   0  0  0  0  0  0  0  0  0  0  0  0
    1.1320    0.1870    0.1670 C   0  0  0  0  0  0  0  0  0  0  0  0
    0.8780    1.5160    0.5020 O   0  0  0  0  0  0  0  0  0  0  0  0
    2.5830   -0.3100   -0.4820 P   0  0  0  0  0  0  0  0  0  0  0  0
    4.1320    1.1920   -0.8110 P   0  0  0  0  0  0  0  0  0  0  0  0
    5.8390    0.3970   -1.9200 P   0  0  0  0  0  0  0  0  0  0  0  0
    7.6690    0.6450   -1.1460 P   0  0  0  0  0  0  0  0  0  0  0  0
  1  2  1  0
  2  3  1  0
  3  4  1  0
  3  6  2  3
  4  5  1  0
  6  7  1  0
  7  8  1  0
  7  9  2  3
  9 10  1  0
 10 11  1  0
 11 12  2  0
M  END
