
     RDKit          3D

 12 12  0  0  0  0  0  0  0  0999 V2000
   -4.8630   -0.2940    0.3180 O   0  0  0  0  0  0  0  0  0  0  0  0
   -3.6050   -0.2170    0.2440 C   0  0  0  0  0  0  0  0  0  0  0  0
   -2.9150   -1.4500    0.0120 C   0  0  0  0  0  0  0  0  0  0  0  0
   -1.6200   -1.6220   -0.1020 C   0  0  0  0  0  0  0  0  0  0  0  0
   -0.7090   -0.5270    0.0010 C   0  0  0  0  0  0  0  0  0  0  0  0
    1.1010   -0.8130   -0.1660 P   0  0  0  0  0  0  0  0  0  0  0  0
    2.0080    0.5590    0.5420 N   0  0  0  0  0  0  0  0  0  0  0  0
    3.3570    0.8450    0.1930 C   0  0  0  0  0  0  0  0  0  0  0  0
    3.7910    2.2690   -0.5510 P   0  0  0  0  0  0  0  0  0  0  0  0
    4.6290   -0.4100    0.5890 P   0  0  0  0  0  0  0  0  0  0  0  0
   -1.2310    1.0140    0.2680 P   0  0  0  0  0  0  0  0  0  0  0  0
   -3.0750    1.1370    0.4120 C   0  0  0  0  0  0  0  0  0  0  0  0
  1  2  2  0
  2  3  1  0
  2 12  1  0
  3  4  2  0
  4  5  1  0
  5  6  1  0
  5 11  2  0
  6  7  1  0
  7  8  1  0
  8  9  2  0
  8 10  1  0
 11 12  1  0
M  END
