
     RDKit          3D

 20 20  0  0  0  0  0  0  0  0999 V2000
   -3.8880    0.0110   -0.4620 C   0  0  0  0  0  0  0  0  0  0  0  0
   -3.2640   -1.0300    0.4580 C   0  0  0  0  0  0  0  0  0  0  0  0
   -2.2790   -0.4850    1.4070 C   0  0  0  0  0  0  0  0  0  0  0  0
   -1.1310    0.1700    0.8740 N   0  0  0  0  0  0  0  0  0  0  0  0
   -1.0500    1.5770    0.5920 C   0  0  0  0  0  0  0  0  0  0  0  0
   -2.1170    2.2100    0.5570 O   0  0  0  0  0  0  0  0  0  0  0  0
    0.2350    2.2720    0.3490 C   0  0  0  0  0  0  0  0  0  0  0  0
    1.2880    1.6840    1.0490 O   0  0  0  0  0  0  0  0  0  0  0  0
    2.4580    1.9880    0.5780 O   0  0  0  0  0  0  0  0  0  0  0  0
    3.6120    0.7980    1.1610 P   0  0  0  0  0  0  0  0  0  0  0  0
    5.0260    1.6550    1.6560 O   0  0  0  0  0  0  0  0  0  0  0  0
    3.9030   -0.2890   -0.1330 O   0  0  0  0  0  0  0  0  0  0  0  0
    3.2650   -1.4730    0.0030 O   0  0  0  0  0  0  0  0  0  0  0  0
    2.7840   -2.2090   -1.0730 C   0  0  0  0  0  0  0  0  0  0  0  0
    3.1290   -3.4280   -1.2400 O   0  0  0  0  0  0  0  0  0  0  0  0
    1.8710   -1.6490   -2.0620 C   0  0  0  0  0  0  0  0  0  0  0  0
    0.9030   -0.7690   -1.7520 C   0  0  0  0  0  0  0  0  0  0  0  0
    0.7980   -0.4110   -0.4680 O   0  0  0  0  0  0  0  0  0  0  0  0
    0.0260   -0.6710    0.6080 C   0  0  0  0  0  0  0  0  0  0  0  0
    0.1840   -1.6100    1.4740 O   0  0  0  0  0  0  0  0  0  0  0  0
  1  2  1  0
  2  3  1  0
  3  4  1  0
  4  5  1  0
  4 19  1  0
  5  6  2  0
  5  7  1  0
  7  8  1  0
  8  9  1  0
  9 10  1  0
 10 11  1  0
 10 12  1  0
 12 13  1  0
 13 14  1  0
 14 15  2  0
 14 16  1  0
 16 17  2  0
 17 18  1  0
 18 19  1  0
 19 20  2  0
M  END
