
     RDKit          3D

 30 32  0  0  0  0  0  0  0  0999 V2000
    9.1510   -1.6670   -0.1620 C   0  0  0  0  0  0  0  0  0  0  0  0
    8.0670   -0.9150    0.5440 C   0  0  0  0  0  0  0  0  0  0  0  0
    7.3140   -0.0430   -0.3310 N   0  0  0  0  0  0  0  0  0  0  0  0
    5.9210    0.0380    0.0440 C   0  0  0  0  0  0  0  0  0  0  0  0
    5.0740   -0.1490   -1.1730 C   0  0  0  0  0  0  0  0  0  0  0  0
    3.6630   -0.0840   -0.8730 N   0  0  0  0  0  0  0  0  0  0  0  0
    3.0340    1.0600   -0.3180 C   0  0  0  0  0  0  0  0  0  0  0  0
    3.7490    2.0930   -0.0680 O   0  0  0  0  0  0  0  0  0  0  0  0
    1.6400    1.0820   -0.0340 N   0  0  0  0  0  0  0  0  0  0  0  0
    1.0960    2.3080    0.5330 C   0  0  0  0  0  0  0  0  0  0  0  0
   -0.2400    2.6930   -0.0530 C   0  0  0  0  0  0  0  0  0  0  0  0
   -1.0300    1.4990   -0.3930 N   0  0  0  0  0  0  0  0  0  0  0  0
   -2.3410    1.3940    0.0770 C   0  0  0  0  0  0  0  0  0  0  0  0
   -2.8340    2.3620    0.7970 O   0  0  0  0  0  0  0  0  0  0  0  0
   -3.2780    0.3140   -0.1300 C   0  0  0  0  0  0  0  0  0  0  0  0
   -2.9600   -0.6930   -0.7950 O   0  0  0  0  0  0  0  0  0  0  0  0
   -4.6130    0.3010    0.3940 N   0  0  0  0  0  0  0  0  0  0  0  0
   -5.4900   -0.7740    0.1680 C   0  0  0  0  0  0  0  0  0  0  0  0
   -5.0580   -1.8270   -0.5660 N   0  0  0  0  0  0  0  0  0  0  0  0
   -5.8600   -2.8790   -0.8080 C   0  0  0  0  0  0  0  0  0  0  0  0
   -5.4660   -3.8760   -1.4970 O   0  0  0  0  0  0  0  0  0  0  0  0
   -7.1180   -2.9440   -0.3430 N   0  0  0  0  0  0  0  0  0  0  0  0
   -7.5920   -1.9240    0.3900 C   0  0  0  0  0  0  0  0  0  0  0  0
   -8.7800   -1.7110    0.9760 N   0  0  0  0  0  0  0  0  0  0  0  0
   -8.7270   -0.5460    1.5770 N   0  0  0  0  0  0  0  0  0  0  0  0
   -7.5200    0.0410    1.4100 C   0  0  0  0  0  0  0  0  0  0  0  0
   -7.1000    1.3460    1.9390 C   0  0  0  0  0  0  0  0  0  0  0  0
   -6.7710   -0.8210    0.6520 C   0  0  0  0  0  0  0  0  0  0  0  0
   -0.3590    0.5310   -1.1940 C   0  0  0  0  0  0  0  0  0  0  0  0
    0.7520   -0.0100   -0.2670 C   0  0  0  0  0  0  0  0  0  0  0  0
  1  2  1  0
  2  3  1  0
  3  4  1  0
  4  5  1  0
  5  6  1  0
  6  7  1  0
  7  8  2  0
  7  9  1  0
  9 10  1  0
  9 30  1  0
 10 11  1  0
 11 12  1  0
 12 13  1  0
 12 29  1  0
 13 14  2  0
 13 15  1  0
 15 16  2  0
 15 17  1  0
 17 18  1  0
 18 19  2  0
 18 28  1  0
 19 20  1  0
 20 21  2  0
 20 22  1  0
 22 23  1  0
 23 24  1  0
 23 28  2  0
 24 25  1  0
 25 26  2  0
 26 27  1  0
 26 28  1  0
 29 30  1  0
M  CHG  1   3   1
M  END
