
     RDKit          3D

 31 33  0  0  0  0  0  0  0  0999 V2000
   -1.2670   -1.7660   -3.3460 C   0  0  0  0  0  0  0  0  0  0  0  0
   -0.9760   -0.5590   -2.5030 C   0  0  1  0  0  0  0  0  0  0  0  0
    0.0360    0.2990   -3.0180 N   0  0  0  0  0  0  0  0  0  0  0  0
    1.4000    0.4920   -1.9950 S   0  0  2  0  0  0  0  0  0  0  0  0
    0.9730    1.2000   -0.7440 O   0  0  0  0  0  0  0  0  0  0  0  0
    2.3610    1.4070   -2.7080 O   0  0  0  0  0  0  0  0  0  0  0  0
    2.2320   -1.0320   -1.7080 C   0  0  0  0  0  0  0  0  0  0  0  0
    3.4410   -0.9390   -0.8330 C   0  0  0  0  0  0  0  0  0  0  0  0
    3.1900   -0.4320    0.5410 C   0  0  0  0  0  0  0  0  0  0  0  0
    4.3010   -0.3850    1.3340 O   0  0  0  0  0  0  0  0  0  0  0  0
    5.2660    0.4640    0.8400 C   0  0  0  0  0  0  0  0  0  0  0  0
    6.3560    0.4540    1.7890 N   0  0  0  0  0  0  0  0  0  0  0  0
    7.3480   -0.4320    1.6620 C   0  0  0  0  0  0  0  0  0  0  0  0
    8.4110   -0.4590    2.5680 C   0  0  0  0  0  0  0  0  0  0  0  0
    8.3830    0.4600    3.5790 C   0  0  0  0  0  0  0  0  0  0  0  0
    9.3020    0.4980    4.4310 O   0  0  0  0  0  0  0  0  0  0  0  0
    7.3790    1.3580    3.7080 N   0  0  0  0  0  0  0  0  0  0  0  0
    6.3670    1.3340    2.7910 C   0  0  0  0  0  0  0  0  0  0  0  0
    5.4490    2.1890    2.9470 O   0  0  0  0  0  0  0  0  0  0  0  0
   -2.2290    0.1910   -2.3150 C   0  0  0  0  0  0  0  0  0  0  0  0
   -2.6670    1.0430   -3.2900 C   0  0  0  0  0  0  0  0  0  0  0  0
   -3.8390    1.7480   -3.1210 C   0  0  0  0  0  0  0  0  0  0  0  0
   -4.5900    1.6110   -1.9740 C   0  0  0  0  0  0  0  0  0  0  0  0
   -4.1340    0.7480   -1.0000 C   0  0  0  0  0  0  0  0  0  0  0  0
   -4.8060    0.5420    0.1730 O   0  0  0  0  0  0  0  0  0  0  0  0
   -5.9960    1.1240    0.5820 C   0  0  2  0  0  0  0  0  0  0  0  0
   -5.7920    1.7220    1.9780 C   0  0  0  0  0  0  0  0  0  0  0  0
   -5.4830    0.4960    2.7890 C   0  0  0  0  0  0  0  0  0  0  0  0
   -6.4320   -0.5610    2.2500 C   0  0  0  0  0  0  0  0  0  0  0  0
   -6.9470   -0.0270    0.9390 C   0  0  0  0  0  0  0  0  0  0  0  0
   -2.9560    0.0390   -1.1700 C   0  0  0  0  0  0  0  0  0  0  0  0
  2  1  1  6
  2  3  1  0
  2 20  1  0
  3  4  1  0
  4  5  2  0
  4  6  2  0
  4  7  1  1
  7  8  1  0
  8  9  1  0
  9 10  1  0
 10 11  1  0
 11 12  1  0
 12 13  1  0
 12 18  1  0
 13 14  2  0
 14 15  1  0
 15 16  2  0
 15 17  1  0
 17 18  1  0
 18 19  2  0
 20 21  2  0
 20 31  1  0
 21 22  1  0
 22 23  2  0
 23 24  1  0
 24 25  1  0
 24 31  2  0
 26 25  1  1
 26 27  1  0
 26 30  1  0
 27 28  1  0
 28 29  1  0
 29 30  1  0
M  END
