
     RDKit          3D

 29 30  0  0  0  0  0  0  0  0999 V2000
   -4.0100   -1.2130   -2.5070 C   0  0  0  0  0  0  0  0  0  0  0  0
   -4.6320   -1.6780   -1.2380 C   0  0  0  0  0  0  0  0  0  0  0  0
   -3.6540   -1.6040   -0.0500 C   0  0  1  0  0  0  0  0  0  0  0  0
   -3.1890   -0.2680    0.1860 C   0  0  0  0  0  0  0  0  0  0  0  0
   -2.1240    0.3850    0.4590 C   0  0  0  0  0  0  0  0  0  0  0  0
   -2.2960    1.8610    0.5910 C   0  0  0  0  0  0  0  0  0  0  0  0
   -3.3830    2.2830    0.1790 O   0  0  0  0  0  0  0  0  0  0  0  0
   -1.3780    2.7970    1.1190 O   0  0  0  0  0  0  0  0  0  0  0  0
    0.0190    2.7860    0.8610 C   0  0  0  0  0  0  0  0  0  0  0  0
    0.5910    4.0420    0.7620 O   0  0  0  0  0  0  0  0  0  0  0  0
    1.9140    4.2050    0.3590 C   0  0  1  0  0  0  0  0  0  0  0  0
    2.1300    5.7410    0.3630 C   0  0  0  0  0  0  0  0  0  0  0  0
    2.8120    3.7460    1.3110 F   0  0  0  0  0  0  0  0  0  0  0  0
    0.7450    1.7290    0.7210 N   0  0  0  0  0  0  0  0  0  0  0  0
    0.4210    0.3450    0.7730 C   0  0  0  0  0  0  0  0  0  0  0  0
    1.7150   -0.8320    1.0020 S   0  0  2  0  0  0  0  0  0  0  0  0
    3.3710   -0.2370    0.8920 C   0  0  2  0  0  0  0  0  0  0  0  0
    3.7150    0.8070    1.9290 C   0  0  0  0  0  0  0  0  0  0  0  0
    3.8840    0.1020   -0.4390 C   0  0  0  0  0  0  0  0  0  0  0  0
    3.5130    1.3440   -1.1480 C   0  0  0  0  0  0  0  0  0  0  0  0
    4.7220   -0.7380   -1.0510 C   0  0  0  0  0  0  0  0  0  0  0  0
    5.1500   -1.9580   -0.4750 N   0  0  0  0  0  0  0  0  0  0  0  0
    6.0420   -2.6190   -1.3950 C   0  0  0  0  0  0  0  0  0  0  0  0
   -0.8270   -0.2180    0.6570 C   0  0  0  0  0  0  0  0  0  0  0  0
   -0.8100   -1.6820    0.7810 C   0  0  0  0  0  0  0  0  0  0  0  0
    0.8800   -2.2180    1.1460 Cl  0  0  0  0  0  0  0  0  0  0  0  0
   -4.4950   -1.9710    1.1120 N   0  0  1  0  0  0  0  0  0  0  0  0
   -5.1980   -0.8420    1.6260 C   0  0  0  0  0  0  0  0  0  0  0  0
   -5.4240   -3.0180    0.7740 C   0  0  0  0  0  0  0  0  0  0  0  0
  1  2  1  0
  3  2  1  6
  3  4  1  0
  3 27  1  0
  4  5  2  3
  5  6  1  0
  5 24  1  0
  6  7  2  0
  6  8  1  0
  8  9  1  0
  9 10  1  0
  9 14  2  0
 10 11  1  0
 11 12  1  1
 11 13  1  0
 14 15  1  0
 15 16  1  0
 15 24  2  0
 16 17  1  0
 17 18  1  1
 17 19  1  0
 19 20  1  0
 19 21  2  3
 21 22  1  0
 22 23  1  0
 24 25  1  0
 25 26  1  0
 27 28  1  6
 27 29  1  0
 16 26  1  6
M  CHG  2  22   1  27   1
M  END
