
     RDKit          3D

 29 31  0  0  0  0  0  0  0  0999 V2000
   -3.3370   -0.3790    1.9120 C   0  0  0  0  0  0  0  0  0  0  0  0
   -2.1860   -0.5220    1.3060 C   0  0  0  0  0  0  0  0  0  0  0  0
   -1.8260   -1.5720    0.3430 C   0  0  0  0  0  0  0  0  0  0  0  0
   -2.3160   -2.7410    0.2030 N   0  0  0  0  0  0  0  0  0  0  0  0
   -3.3740   -3.3380    0.9770 C   0  0  0  0  0  0  0  0  0  0  0  0
   -0.6780   -1.0340   -0.4800 C   0  0  2  0  0  0  0  0  0  0  0  0
   -1.0560   -1.0280   -1.8830 C   0  0  0  0  0  0  0  0  0  0  0  0
   -2.2810   -1.2930   -2.2290 C   0  0  0  0  0  0  0  0  0  0  0  0
   -0.0840   -0.6810   -2.9880 C   0  0  0  0  0  0  0  0  0  0  0  0
   -0.7200   -0.7140   -4.2120 F   0  0  0  0  0  0  0  0  0  0  0  0
    0.4840   -1.9190   -0.2330 C   0  0  0  0  0  0  0  0  0  0  0  0
    1.6390   -1.0170    0.0050 C   0  0  0  0  0  0  0  0  0  0  0  0
    1.0960    0.2880    0.4780 C   0  0  2  0  0  0  0  0  0  0  0  0
    1.7350    1.4360   -0.2020 C   0  0  0  0  0  0  0  0  0  0  0  0
    2.8200    1.8300   -0.7090 C   0  0  0  0  0  0  0  0  0  0  0  0
    2.5980    3.5940   -1.3820 Cl  0  0  0  0  0  0  0  0  0  0  0  0
    4.1570    1.4430   -0.9250 C   0  0  0  0  0  0  0  0  0  0  0  0
    4.9810    0.5230   -0.7160 N   0  0  0  0  0  0  0  0  0  0  0  0
    4.9060   -0.7410   -0.0560 C   0  0  0  0  0  0  0  0  0  0  0  0
    1.1210    0.4530    1.9490 C   0  0  0  0  0  0  0  0  0  0  0  0
    2.0130    0.1220    2.8200 C   0  0  0  0  0  0  0  0  0  0  0  0
   -0.2080    1.1150    2.2580 C   0  0  0  0  0  0  0  0  0  0  0  0
   -1.0350    0.2940    1.4210 N   0  0  0  0  0  0  0  0  0  0  0  0
   -0.4020    0.2890    0.1200 C   0  0  2  0  0  0  0  0  0  0  0  0
   -0.7210    1.3750   -0.6450 O   0  0  0  0  0  0  0  0  0  0  0  0
   -1.9560    1.4820   -0.9820 O   0  0  0  0  0  0  0  0  0  0  0  0
   -2.7120    2.0960   -0.1110 O   0  0  0  0  0  0  0  0  0  0  0  0
   -3.3080    3.1590   -0.6060 O   0  0  0  0  0  0  0  0  0  0  0  0
   -2.6880    4.3350   -0.2390 C   0  0  0  0  0  0  0  0  0  0  0  0
  1  2  2  0
  2  3  1  0
  2 23  1  0
  3  4  2  3
  3  6  1  0
  4  5  1  0
  6  7  1  6
  6 11  1  0
  6 24  1  0
  7  8  2  0
  7  9  1  0
  9 10  1  0
 11 12  1  0
 12 13  1  0
 13 14  1  6
 13 20  1  0
 13 24  1  0
 14 15  2  3
 15 16  1  0
 15 17  1  0
 17 18  2  3
 18 19  1  0
 20 21  2  0
 20 22  1  0
 22 23  1  0
 23 24  1  0
 24 25  1  6
 25 26  1  0
 26 27  1  0
 27 28  1  0
 28 29  1  0
M  CHG  2   4   1  18   1
M  END
