
     RDKit          3D

 30 33  0  0  0  0  0  0  0  0999 V2000
   -4.4230    2.0040    3.1260 C   0  0  0  0  0  0  0  0  0  0  0  0
   -3.0520    1.9570    2.7250 N   0  0  0  0  0  0  0  0  0  0  0  0
   -2.4800    1.4940    1.5210 C   0  0  0  0  0  0  0  0  0  0  0  0
   -1.1530    1.4540    1.3410 O   0  0  0  0  0  0  0  0  0  0  0  0
   -0.8650    0.9760    0.1340 C   0  0  0  0  0  0  0  0  0  0  0  0
    0.5640    0.8660   -0.2180 C   0  0  0  0  0  0  0  0  0  0  0  0
    1.3500    1.8000    0.1920 O   0  0  0  0  0  0  0  0  0  0  0  0
    1.1510   -0.1630   -0.9500 N   0  0  0  0  0  0  0  0  0  0  0  0
    2.6270   -0.0800   -1.2050 C   0  0  0  0  0  0  0  0  0  0  0  0
    3.3550   -0.1400    0.0430 C   0  0  0  0  0  0  0  0  0  0  0  0
    2.6940   -0.1920    1.2440 N   0  0  0  0  0  0  0  0  0  0  0  0
    3.5710   -0.2790    2.2040 N   0  0  0  0  0  0  0  0  0  0  0  0
    4.8150   -0.2870    1.6690 C   0  0  0  0  0  0  0  0  0  0  0  0
    6.0630   -0.3850    2.2150 C   0  0  0  0  0  0  0  0  0  0  0  0
    6.1790   -0.4650    3.4590 O   0  0  0  0  0  0  0  0  0  0  0  0
    7.1210   -0.3930    1.3990 N   0  0  0  0  0  0  0  0  0  0  0  0
    6.9450   -0.3060    0.1100 N   0  0  0  0  0  0  0  0  0  0  0  0
    5.7130   -0.2020   -0.5100 C   0  0  0  0  0  0  0  0  0  0  0  0
    5.6760   -0.1280   -1.9380 C   0  0  0  0  0  0  0  0  0  0  0  0
    6.7980   -0.7280   -2.6160 N   0  0  0  0  0  0  0  0  0  0  0  0
    4.8440    0.3600   -2.6580 O   0  0  0  0  0  0  0  0  0  0  0  0
    4.6520   -0.1980    0.3140 N   0  0  0  0  0  0  0  0  0  0  0  0
   -2.0170    0.6930   -0.5120 C   0  0  0  0  0  0  0  0  0  0  0  0
   -3.0570    1.0380    0.4160 C   0  0  0  0  0  0  0  0  0  0  0  0
   -4.4970    0.8810    0.1640 C   0  0  0  0  0  0  0  0  0  0  0  0
   -5.1200   -0.3730    0.4160 N   0  0  0  0  0  0  0  0  0  0  0  0
   -4.8510   -1.4550   -0.5770 C   0  0  0  0  0  0  0  0  0  0  0  0
   -3.6320   -1.1100   -1.1330 C   0  0  0  0  0  0  0  0  0  0  0  0
   -2.5510   -1.2240   -2.0530 C   0  0  0  0  0  0  0  0  0  0  0  0
   -1.8790    0.1860   -1.8790 C   0  0  0  0  0  0  0  0  0  0  0  0
  1  2  1  0
  2  3  1  0
  3  4  1  0
  3 24  2  0
  4  5  1  0
  5  6  1  0
  5 23  2  0
  6  7  2  0
  6  8  1  0
  8  9  1  0
  9 10  1  0
 10 11  2  0
 10 22  1  0
 11 12  1  0
 12 13  2  0
 13 14  1  0
 13 22  1  0
 14 15  2  0
 14 16  1  0
 16 17  1  0
 17 18  2  0
 18 19  1  0
 18 22  1  0
 19 20  1  0
 19 21  2  0
 23 24  1  0
 23 30  1  0
 24 25  1  0
 25 26  1  0
 26 27  1  0
 27 28  1  0
 28 29  1  0
 29 30  1  0
M  CHG  1  26   1
M  END
