
     RDKit          3D

 30 32  0  0  0  0  0  0  0  0999 V2000
   -7.9500    2.0520   -0.0280 C   0  0  0  0  0  0  0  0  0  0  0  0
   -7.3110    1.9700   -1.1850 C   0  0  0  0  0  0  0  0  0  0  0  0
   -6.9950    0.7950   -2.0060 C   0  0  0  0  0  0  0  0  0  0  0  0
   -5.5460    0.7670   -2.2250 N   0  0  0  0  0  0  0  0  0  0  0  0
   -4.9280    0.5960   -1.0010 N   0  0  0  0  0  0  0  0  0  0  0  0
   -3.5360    0.0470   -1.0290 C   0  0  0  0  0  0  0  0  0  0  0  0
   -3.0740   -0.2450   -2.0920 O   0  0  0  0  0  0  0  0  0  0  0  0
   -2.9290   -0.0420    0.3230 C   0  0  1  0  0  0  0  0  0  0  0  0
   -3.8360   -0.4020    1.4490 C   0  0  0  0  0  0  0  0  0  0  0  0
   -4.5020   -1.6740    1.3410 N   0  0  0  0  0  0  0  0  0  0  0  0
   -1.7770   -0.8080    0.3590 N   0  0  0  0  0  0  0  0  0  0  0  0
   -0.4200   -0.0790    0.3810 C   0  0  0  0  0  0  0  0  0  0  0  0
   -0.4480    1.0620    0.2770 O   0  0  0  0  0  0  0  0  0  0  0  0
    0.5430   -1.1110    0.5220 N   0  0  0  0  0  0  0  0  0  0  0  0
    1.9140   -0.1240    0.2280 C   0  0  0  0  0  0  0  0  0  0  0  0
    1.6560    1.0130    0.0430 O   0  0  0  0  0  0  0  0  0  0  0  0
    3.1280   -0.8020    0.2490 N   0  0  0  0  0  0  0  0  0  0  0  0
    3.3760   -2.0810    0.4440 N   0  0  0  0  0  0  0  0  0  0  0  0
    4.6880   -2.3960    0.3740 C   0  0  0  0  0  0  0  0  0  0  0  0
    5.3110   -1.1740    0.1100 C   0  0  0  0  0  0  0  0  0  0  0  0
    6.6430   -0.8110   -0.0610 C   0  0  0  0  0  0  0  0  0  0  0  0
    7.6100   -1.7500    0.0160 N   0  0  0  0  0  0  0  0  0  0  0  0
    8.8820   -1.3750   -0.1700 C   0  0  0  0  0  0  0  0  0  0  0  0
    9.2270   -0.0820   -0.4300 C   0  0  0  0  0  0  0  0  0  0  0  0
    8.2260    0.9310   -0.5120 C   0  0  0  0  0  0  0  0  0  0  0  0
    6.9520    0.4890   -0.3190 C   0  0  0  0  0  0  0  0  0  0  0  0
    5.8930    1.4210   -0.3830 C   0  0  0  0  0  0  0  0  0  0  0  0
    6.1770    2.6160   -0.6210 O   0  0  0  0  0  0  0  0  0  0  0  0
    4.6310    1.0680   -0.2100 N   0  0  0  0  0  0  0  0  0  0  0  0
    4.3140   -0.2430    0.0420 C   0  0  0  0  0  0  0  0  0  0  0  0
  1  2  2  0
  2  3  1  0
  3  4  1  0
  4  5  1  0
  5  6  1  0
  6  7  2  0
  6  8  1  0
  8  9  1  1
  8 11  1  0
  9 10  1  0
 11 12  1  0
 12 13  2  0
 12 14  1  0
 14 15  1  0
 15 16  2  0
 15 17  1  0
 17 18  1  0
 17 30  1  0
 18 19  2  0
 19 20  1  0
 20 21  1  0
 20 30  2  0
 21 22  2  0
 21 26  1  0
 22 23  1  0
 23 24  2  0
 24 25  1  0
 25 26  2  0
 26 27  1  0
 27 28  2  0
 27 29  1  0
 29 30  1  0
M  CHG  1  10   1
M  END
