
     RDKit          3D

 30 32  0  0  0  0  0  0  0  0999 V2000
   -4.8730   -2.9900   -0.4890 C   0  0  0  0  0  0  0  0  0  0  0  0
   -4.7160   -1.4780   -0.7260 C   0  0  0  0  0  0  0  0  0  0  0  0
   -3.2900   -1.2550   -0.9350 N   0  0  0  0  0  0  0  0  0  0  0  0
   -2.6910   -1.3140   -2.1330 C   0  0  0  0  0  0  0  0  0  0  0  0
   -3.3430   -1.5690   -3.3890 N   0  0  0  0  0  0  0  0  0  0  0  0
   -1.3730   -1.0980   -1.9850 N   0  0  0  0  0  0  0  0  0  0  0  0
   -1.1020   -0.8950   -0.6860 C   0  0  0  0  0  0  0  0  0  0  0  0
    0.2080   -0.6260   -0.1040 C   0  0  0  0  0  0  0  0  0  0  0  0
    0.3270   -0.4510    1.1350 O   0  0  0  0  0  0  0  0  0  0  0  0
    1.3850   -0.5500   -0.8930 N   0  0  0  0  0  0  0  0  0  0  0  0
    2.6610   -0.2850   -0.3120 C   0  0  0  0  0  0  0  0  0  0  0  0
    2.8440   -0.0890    1.0050 N   0  0  0  0  0  0  0  0  0  0  0  0
    4.1160    0.1320    1.2370 N   0  0  0  0  0  0  0  0  0  0  0  0
    4.7230    0.0710    0.0520 C   0  0  0  0  0  0  0  0  0  0  0  0
    6.1730    0.2580   -0.1850 C   0  0  0  0  0  0  0  0  0  0  0  0
    6.4820    1.7240   -0.4520 C   0  0  0  0  0  0  0  0  0  0  0  0
    7.9420    1.9450   -0.6950 C   0  0  0  0  0  0  0  0  0  0  0  0
    8.3550    1.1790   -1.8350 N   0  0  0  0  0  0  0  0  0  0  0  0
    3.8230   -0.1850   -0.8950 O   0  0  0  0  0  0  0  0  0  0  0  0
   -2.3240   -0.9970   -0.0380 C   0  0  0  0  0  0  0  0  0  0  0  0
   -2.4770   -0.8110    1.3840 C   0  0  0  0  0  0  0  0  0  0  0  0
   -3.0430    0.1200    2.0760 C   0  0  0  0  0  0  0  0  0  0  0  0
   -3.0240   -0.0130    3.5510 C   0  0  0  0  0  0  0  0  0  0  0  0
   -2.4920   -1.0320    4.1180 O   0  0  0  0  0  0  0  0  0  0  0  0
   -3.6110    1.0200    4.3180 N   0  0  0  0  0  0  0  0  0  0  0  0
   -4.2160    2.1740    3.7520 C   0  0  0  0  0  0  0  0  0  0  0  0
   -4.7330    3.0790    4.4640 O   0  0  0  0  0  0  0  0  0  0  0  0
   -4.2030    2.2470    2.3390 N   0  0  0  0  0  0  0  0  0  0  0  0
   -3.6770    1.3290    1.5680 C   0  0  0  0  0  0  0  0  0  0  0  0
   -3.7210    1.6320    0.1250 C   0  0  0  0  0  0  0  0  0  0  0  0
  1  2  1  0
  2  3  1  0
  3  4  1  0
  3 20  1  0
  4  5  1  0
  4  6  2  0
  6  7  1  0
  7  8  1  0
  7 20  2  0
  8  9  2  0
  8 10  1  0
 10 11  1  0
 11 12  2  0
 11 19  1  0
 12 13  1  0
 13 14  2  0
 14 15  1  0
 14 19  1  0
 15 16  1  0
 16 17  1  0
 17 18  1  0
 20 21  1  0
 21 22  2  3
 22 23  1  0
 22 29  1  0
 23 24  2  0
 23 25  1  0
 25 26  1  0
 26 27  2  0
 26 28  1  0
 28 29  2  0
 29 30  1  0
M  CHG  1   6   1
M  END
