
     RDKit          3D

 30 32  0  0  0  0  0  0  0  0999 V2000
   -6.0920   -0.6170   -2.2570 C   0  0  0  0  0  0  0  0  0  0  0  0
   -4.6850   -0.6590   -2.6050 N   0  0  0  0  0  0  0  0  0  0  0  0
   -3.8730   -1.0670   -1.5390 C   0  0  0  0  0  0  0  0  0  0  0  0
   -2.8730   -0.2960   -1.0410 C   0  0  0  0  0  0  0  0  0  0  0  0
   -2.0670   -0.7580    0.0540 C   0  0  0  0  0  0  0  0  0  0  0  0
   -1.0890   -0.2360    0.6870 C   0  0  0  0  0  0  0  0  0  0  0  0
   -0.4910   -1.0740    1.8200 C   0  0  0  0  0  0  0  0  0  0  0  0
   -1.1680   -2.3360    1.9960 N   0  0  0  0  0  0  0  0  0  0  0  0
   -0.4820   -3.0800    3.0940 C   0  0  0  0  0  0  0  0  0  0  0  0
   -0.4970    1.0750    0.4710 C   0  0  1  0  0  0  0  0  0  0  0  0
   -1.1570    1.9220   -0.9090 Cl  0  0  0  0  0  0  0  0  0  0  0  0
   -0.8420    1.9170    1.7030 C   0  0  0  0  0  0  0  0  0  0  0  0
   -0.3140    3.2890    1.6290 C   0  0  0  0  0  0  0  0  0  0  0  0
    0.7000    3.5540    2.2800 O   0  0  0  0  0  0  0  0  0  0  0  0
   -1.0640    4.5540    0.6600 Cl  0  0  0  0  0  0  0  0  0  0  0  0
    1.0170    1.0820    0.3770 C   0  0  1  0  0  0  0  0  0  0  0  0
    1.6220    0.6300    1.5260 O   0  0  0  0  0  0  0  0  0  0  0  0
    2.9160    0.2530    1.1880 C   0  0  0  0  0  0  0  0  0  0  0  0
    2.9890    0.0040   -0.2800 C   0  0  1  0  0  0  0  0  0  0  0  0
    3.4280   -1.7290   -0.6510 S   0  0  0  0  0  0  0  0  0  0  0  0
    5.1130   -2.0940   -0.1030 C   0  0  0  0  0  0  0  0  0  0  0  0
    1.5940    0.3170   -0.7450 C   0  0  1  0  0  0  0  0  0  0  0  0
    0.8710   -0.8300   -1.2610 C   0  0  0  0  0  0  0  0  0  0  0  0
    0.7260   -0.5990   -2.5590 C   0  0  0  0  0  0  0  0  0  0  0  0
    1.2880    0.5240   -2.9800 C   0  0  0  0  0  0  0  0  0  0  0  0
    1.5360    1.2890   -1.8230 N   0  0  0  0  0  0  0  0  0  0  0  0
    1.7510    2.5450   -1.1880 C   0  0  1  0  0  0  0  0  0  0  0  0
    3.1660    2.9840   -1.4240 C   0  0  0  0  0  0  0  0  0  0  0  0
    0.9480    3.5550   -1.7460 F   0  0  0  0  0  0  0  0  0  0  0  0
    1.4270    2.3860    0.1530 O   0  0  0  0  0  0  0  0  0  0  0  0
  1  2  1  0
  2  3  1  0
  3  4  2  3
  4  5  1  0
  5  6  2  3
  6  7  1  0
  6 10  1  0
  7  8  1  0
  8  9  1  0
 10 11  1  6
 10 12  1  0
 10 16  1  0
 12 13  1  0
 13 14  2  0
 13 15  1  0
 16 17  1  1
 16 22  1  0
 16 30  1  0
 17 18  1  0
 18 19  1  0
 19 20  1  1
 19 22  1  0
 20 21  1  0
 22 23  1  6
 22 26  1  0
 23 24  2  0
 24 25  2  0
 25 26  1  0
 26 27  1  0
 27 28  1  1
 27 29  1  0
 27 30  1  0
M  CHG  2   2   1   8   1
M  END
