
     RDKit          3D

 30 31  0  0  0  0  0  0  0  0999 V2000
   -8.3680    0.7630   -0.3100 C   0  0  0  0  0  0  0  0  0  0  0  0
   -7.3010    0.0090   -0.2750 C   0  0  0  0  0  0  0  0  0  0  0  0
   -6.0410    0.5130    0.2230 C   0  0  0  0  0  0  0  0  0  0  0  0
   -5.9680    2.1840    0.7890 Cl  0  0  0  0  0  0  0  0  0  0  0  0
   -4.9820   -0.2680    0.2460 C   0  0  0  0  0  0  0  0  0  0  0  0
   -3.6640    0.2110    0.7510 C   0  0  0  0  0  0  0  0  0  0  0  0
   -2.6160    0.1610   -0.1940 N   0  0  0  0  0  0  0  0  0  0  0  0
   -2.4360    0.9410   -1.3940 C   0  0  0  0  0  0  0  0  0  0  0  0
   -1.9110   -0.1410   -2.3080 C   0  0  0  0  0  0  0  0  0  0  0  0
   -1.0410   -0.8900   -1.3660 N   0  0  0  0  0  0  0  0  0  0  0  0
    0.0690   -1.6570   -1.8950 C   0  0  0  0  0  0  0  0  0  0  0  0
   -1.4410   -0.7190   -0.1660 C   0  0  0  0  0  0  0  0  0  0  0  0
   -0.7660   -1.3770    1.3280 S   0  0  0  0  0  0  0  0  0  0  0  0
    0.6480   -2.4390    1.1990 C   0  0  0  0  0  0  0  0  0  0  0  0
    1.8870   -1.7640    0.6900 C   0  0  0  0  0  0  0  0  0  0  0  0
    2.3040   -0.7090    1.2960 N   0  0  0  0  0  0  0  0  0  0  0  0
    3.4450    0.0360    0.9440 C   0  0  0  0  0  0  0  0  0  0  0  0
    3.7740    0.0850   -0.3370 C   0  0  0  0  0  0  0  0  0  0  0  0
    4.9110    0.7880   -0.9670 C   0  0  0  0  0  0  0  0  0  0  0  0
    4.9360    0.8620   -2.2170 O   0  0  0  0  0  0  0  0  0  0  0  0
    6.0660    1.4380   -0.2880 C   0  0  0  0  0  0  0  0  0  0  0  0
    7.2720    1.5360   -1.0530 C   0  0  0  0  0  0  0  0  0  0  0  0
    8.3180    2.0410   -0.6490 O   0  0  0  0  0  0  0  0  0  0  0  0
    7.3180    1.0460   -2.3370 F   0  0  0  0  0  0  0  0  0  0  0  0
    5.9960    1.8970    0.9330 C   0  0  0  0  0  0  0  0  0  0  0  0
    7.2290    2.5160    1.4690 C   0  0  0  0  0  0  0  0  0  0  0  0
    4.8660    1.9150    1.9220 C   0  0  0  0  0  0  0  0  0  0  0  0
    4.1600    0.6770    1.9490 O   0  0  0  0  0  0  0  0  0  0  0  0
   -5.1140   -1.5690   -0.2150 O   0  0  0  0  0  0  0  0  0  0  0  0
   -5.0710   -2.5910    0.7880 C   0  0  0  0  0  0  0  0  0  0  0  0
  1  2  2  0
  2  3  1  0
  3  4  1  0
  3  5  2  3
  5  6  1  0
  5 29  1  0
  6  7  1  0
  7  8  1  0
  7 12  1  0
  8  9  1  0
  9 10  1  0
 10 11  1  0
 10 12  2  0
 12 13  1  0
 13 14  1  0
 14 15  1  0
 15 16  2  3
 16 17  1  0
 17 18  2  0
 17 28  1  0
 18 19  1  0
 19 20  2  0
 19 21  1  0
 21 22  1  0
 21 25  2  0
 22 23  2  0
 22 24  1  0
 25 26  1  0
 25 27  1  0
 27 28  1  0
 29 30  1  0
M  CHG  1  10   1
M  END
