
     RDKit          3D

 30 31  0  0  0  0  0  0  0  0999 V2000
    7.5490    0.7220   -2.6200 C   0  0  0  0  0  0  0  0  0  0  0  0
    6.1420    0.9230   -2.2530 N   0  0  0  0  0  0  0  0  0  0  0  0
    5.5130    0.0410   -1.3310 C   0  0  0  0  0  0  0  0  0  0  0  0
    6.1880   -0.9290   -0.8400 O   0  0  0  0  0  0  0  0  0  0  0  0
    4.1730    0.1890   -0.9120 N   0  0  0  0  0  0  0  0  0  0  0  0
    3.7000   -0.6900    0.1180 C   0  0  2  0  0  0  0  0  0  0  0  0
    4.4530   -0.5640    1.3970 C   0  0  0  0  0  0  0  0  0  0  0  0
    3.8220   -2.1630   -0.4070 C   0  0  0  0  0  0  0  0  0  0  0  0
    2.2840   -0.5170    0.2880 C   0  0  0  0  0  0  0  0  0  0  0  0
    1.4300   -0.7820   -0.5240 O   0  0  0  0  0  0  0  0  0  0  0  0
    1.8040    0.0700    1.5480 N   0  0  0  0  0  0  0  0  0  0  0  0
    0.4350    0.1770    1.6270 C   0  0  0  0  0  0  0  0  0  0  0  0
   -0.6360    0.3020    1.7550 N   0  0  0  0  0  0  0  0  0  0  0  0
   -1.7390   -0.1560    0.9280 C   0  0  0  0  0  0  0  0  0  0  0  0
   -1.5470   -1.4390    0.3710 C   0  0  0  0  0  0  0  0  0  0  0  0
   -2.5220   -2.0150   -0.4130 C   0  0  0  0  0  0  0  0  0  0  0  0
   -3.7090   -1.3830   -0.6800 C   0  0  0  0  0  0  0  0  0  0  0  0
   -4.6860   -1.9710   -1.4650 O   0  0  0  0  0  0  0  0  0  0  0  0
   -4.6010   -3.2390   -2.0410 C   0  0  0  0  0  0  0  0  0  0  0  0
   -3.8940   -0.0940   -0.1190 C   0  0  0  0  0  0  0  0  0  0  0  0
   -5.1070    0.5210   -0.4520 N   0  0  0  0  0  0  0  0  0  0  0  0
   -5.8730    1.3550    0.4020 C   0  0  0  0  0  0  0  0  0  0  0  0
   -6.3270    0.8710    1.5430 N   0  0  0  0  0  0  0  0  0  0  0  0
   -7.0440    1.8550    2.1770 N   0  0  0  0  0  0  0  0  0  0  0  0
   -7.0030    2.9870    1.3180 C   0  0  0  0  0  0  0  0  0  0  0  0
   -6.3060    2.6740    0.2750 N   0  0  0  0  0  0  0  0  0  0  0  0
   -2.9060    0.4750    0.6640 C   0  0  0  0  0  0  0  0  0  0  0  0
    0.3510    1.9770    1.9350 N   0  0  0  0  0  0  0  0  0  0  0  0
    0.7230    2.9220    1.2790 C   0  0  0  0  0  0  0  0  0  0  0  0
    1.2380    2.7530    0.0310 O   0  0  0  0  0  0  0  0  0  0  0  0
  1  2  1  0
  2  3  1  0
  3  4  2  0
  3  5  1  0
  5  6  1  0
  6  7  1  1
  6  8  1  0
  6  9  1  0
  9 10  2  0
  9 11  1  0
 11 12  1  0
 12 13  2  3
 12 28  1  0
 13 14  1  0
 14 15  2  0
 14 27  1  0
 15 16  1  0
 16 17  2  0
 17 18  1  0
 17 20  1  0
 18 19  1  0
 20 21  1  0
 20 27  2  0
 21 22  1  0
 22 23  2  0
 22 26  1  0
 23 24  1  0
 24 25  1  0
 25 26  2  0
 28 29  1  0
 29 30  2  0
M  CHG  1  24   1
M  END
