
     RDKit          3D

 20 20  0  0  0  0  0  0  0  0999 V2000
    4.5900   -2.3230   -0.8640 O   0  0  0  0  0  0  0  0  0  0  0  0
    4.2320   -2.9330    0.1850 C   0  0  0  0  0  0  0  0  0  0  0  0
    3.0580   -2.5330    0.7860 O   0  0  0  0  0  0  0  0  0  0  0  0
    2.2630   -1.4890    0.2800 C   0  0  0  0  0  0  0  0  0  0  0  0
    2.6700   -0.9320   -0.7510 O   0  0  0  0  0  0  0  0  0  0  0  0
    1.0670   -1.0880    0.9010 N   0  0  0  0  0  0  0  0  0  0  0  0
    0.2460    0.0020    0.3640 C   0  0  2  0  0  0  0  0  0  0  0  0
    1.0610    1.3040    0.3320 C   0  0  0  0  0  0  0  0  0  0  0  0
    0.1590    2.2820   -0.2040 O   0  0  0  0  0  0  0  0  0  0  0  0
    0.6340    3.5900   -0.3520 C   0  0  0  0  0  0  0  0  0  0  0  0
    1.8090    3.8420   -0.0140 O   0  0  0  0  0  0  0  0  0  0  0  0
   -0.1660    4.6010   -0.8610 O   0  0  0  0  0  0  0  0  0  0  0  0
   -0.8390    0.2370    1.3210 C   0  0  0  0  0  0  0  0  0  0  0  0
   -2.1430    0.1790    1.1680 C   0  0  0  0  0  0  0  0  0  0  0  0
   -2.9490   -0.1380   -0.0030 C   0  0  2  0  0  0  0  0  0  0  0  0
   -4.2510   -0.4280    0.4040 O   0  0  0  0  0  0  0  0  0  0  0  0
   -2.4630   -1.3400   -0.7770 C   0  0  0  0  0  0  0  0  0  0  0  0
   -1.2770   -0.9890   -1.5100 N   0  0  0  0  0  0  0  0  0  0  0  0
   -0.1650   -0.2630   -1.0170 C   0  0  0  0  0  0  0  0  0  0  0  0
    0.6160    0.2500   -1.8930 O   0  0  0  0  0  0  0  0  0  0  0  0
  1  2  2  0
  2  3  1  0
  3  4  1  0
  4  5  2  0
  4  6  1  0
  6  7  1  0
  7  8  1  6
  7 13  1  0
  7 19  1  0
  8  9  1  0
  9 10  1  0
 10 11  2  0
 10 12  1  0
 13 14  2  0
 14 15  1  0
 15 16  1  1
 15 17  1  0
 17 18  1  0
 18 19  1  0
 19 20  2  0
M  END
