
     RDKit          3D

 23 26  0  0  0  0  0  0  0  0999 V2000
   -4.2890    0.7340   -2.6020 N   0  0  0  0  0  0  0  0  0  0  0  0
   -3.8440    0.2530   -1.3520 C   0  0  0  0  0  0  0  0  0  0  0  0
   -2.5570    0.3570   -0.9390 N   0  0  0  0  0  0  0  0  0  0  0  0
   -2.2340   -0.1370    0.2790 C   0  0  0  0  0  0  0  0  0  0  0  0
   -3.1530   -0.7340    1.1030 C   0  0  0  0  0  0  0  0  0  0  0  0
   -2.5260   -1.1200    2.2380 N   0  0  0  0  0  0  0  0  0  0  0  0
   -1.2410   -0.7760    2.1350 C   0  0  0  0  0  0  0  0  0  0  0  0
   -1.0620   -0.1710    0.9290 N   0  0  0  0  0  0  0  0  0  0  0  0
    0.2240    0.3210    0.5100 C   0  0  2  0  0  0  0  0  0  0  0  0
    0.4290    0.1860   -0.8660 O   0  0  0  0  0  0  0  0  0  0  0  0
    1.7460    0.5330   -0.9680 C   0  0  2  0  0  0  0  0  0  0  0  0
    2.3940    0.2660   -2.2780 C   0  0  0  0  0  0  0  0  0  0  0  0
    3.6650    0.8390   -2.2420 O   0  0  0  0  0  0  0  0  0  0  0  0
    4.5020    0.5450   -0.8430 P   0  0  1  0  0  0  0  0  0  0  0  0
    5.4080   -0.6620   -1.0500 O   0  0  0  0  0  0  0  0  0  0  0  0
    5.5360    1.8590   -0.5090 O   0  0  0  0  0  0  0  0  0  0  0  0
    3.5150    0.2550    0.4970 O   0  0  0  0  0  0  0  0  0  0  0  0
    2.4000   -0.4240    0.0410 C   0  0  1  0  0  0  0  0  0  0  0  0
    1.3230   -0.6030    1.0400 C   0  0  1  0  0  0  0  0  0  0  0  0
    1.6630   -0.3140    2.3370 O   0  0  0  0  0  0  0  0  0  0  0  0
   -4.4580   -0.8260    0.6550 C   0  0  0  0  0  0  0  0  0  0  0  0
   -5.2980   -1.3750    1.4160 O   0  0  0  0  0  0  0  0  0  0  0  0
   -4.7800   -0.3340   -0.5570 N   0  0  0  0  0  0  0  0  0  0  0  0
  1  2  1  0
  2  3  2  0
  2 23  1  0
  3  4  1  0
  4  5  2  0
  4  8  1  0
  5  6  1  0
  5 21  1  0
  6  7  2  0
  7  8  1  0
  9  8  1  6
  9 10  1  0
  9 19  1  0
 10 11  1  0
 11 12  1  6
 11 18  1  0
 12 13  1  0
 13 14  1  0
 14 15  2  0
 14 16  1  1
 14 17  1  0
 18 17  1  1
 18 19  1  0
 19 20  1  1
 21 22  2  0
 21 23  1  0
M  END
