
     RDKit          3D

 20 21  0  0  0  0  0  0  0  0999 V2000
   -0.9410   -0.2570    1.7070 O   0  0  0  0  0  0  0  0  0  0  0  0
   -0.6230   -0.1150    0.5250 C   0  0  0  0  0  0  0  0  0  0  0  0
   -1.7180    0.0320   -0.3900 N   0  0  0  0  0  0  0  0  0  0  0  0
   -3.0800    0.0170    0.0230 C   0  0  2  0  0  0  0  0  0  0  0  0
   -3.7680   -1.1380   -0.7090 C   0  0  0  0  0  0  0  0  0  0  0  0
   -4.8400   -0.6270   -1.6360 C   0  0  0  0  0  0  0  0  0  0  0  0
   -4.4780    0.4680   -2.3670 O   0  0  0  0  0  0  0  0  0  0  0  0
   -3.7940    1.3660   -1.7450 O   0  0  0  0  0  0  0  0  0  0  0  0
   -3.8560    1.2500   -0.3690 C   0  0  0  0  0  0  0  0  0  0  0  0
    0.6740   -0.1060    0.1800 O   0  0  0  0  0  0  0  0  0  0  0  0
    1.7640   -0.2380    0.9930 C   0  0  2  0  0  0  0  0  0  0  0  0
    3.0880   -0.1900    0.2480 C   0  0  0  0  0  0  0  0  0  0  0  0
    4.1250   -0.3040    0.9250 O   0  0  0  0  0  0  0  0  0  0  0  0
    3.1690   -0.0250   -1.1460 N   0  0  0  0  0  0  0  0  0  0  0  0
    4.3820    0.0370   -1.9220 C   0  0  0  0  0  0  0  0  0  0  0  0
    5.2100    1.0970   -1.6770 O   0  0  0  0  0  0  0  0  0  0  0  0
    5.6520    1.1580   -0.4590 O   0  0  0  0  0  0  0  0  0  0  0  0
    1.8160   -1.1350    2.1490 C   0  0  0  0  0  0  0  0  0  0  0  0
    1.2600   -0.1980    2.9480 O   0  0  0  0  0  0  0  0  0  0  0  0
    1.7340    0.7800    2.1060 C   0  0  0  0  0  0  0  0  0  0  0  0
  1  2  2  0
  2  3  1  0
  2 10  1  0
  4  3  1  6
  4  5  1  0
  4  9  1  0
  5  6  1  0
  6  7  1  0
  7  8  1  0
  8  9  1  0
 11 10  1  6
 11 12  1  0
 11 18  1  0
 11 20  1  0
 12 13  2  0
 12 14  1  0
 14 15  1  0
 15 16  1  0
 16 17  1  0
 18 19  1  0
 19 20  1  0
M  END
