
     RDKit          3D

 20 21  0  0  0  0  0  0  0  0999 V2000
    0.7500   -1.4240   -0.9150 O   0  0  0  0  0  0  0  0  0  0  0  0
    0.2930   -0.4140   -0.4870 C   0  0  0  0  0  0  0  0  0  0  0  0
   -0.9670    0.1500   -0.3070 N   0  0  0  0  0  0  0  0  0  0  0  0
   -1.8820   -1.2710   -0.7120 C   0  0  0  0  0  0  0  0  0  0  0  0
   -1.2200   -2.1770   -1.0050 O   0  0  0  0  0  0  0  0  0  0  0  0
   -3.2760   -1.0390   -0.6010 C   0  0  0  0  0  0  0  0  0  0  0  0
   -4.1570   -2.1290   -0.8140 C   0  0  0  0  0  0  0  0  0  0  0  0
   -5.3830   -1.7360   -0.6340 O   0  0  0  0  0  0  0  0  0  0  0  0
   -5.4520   -0.4770   -0.3140 C   0  0  0  0  0  0  0  0  0  0  0  0
   -4.1170   -0.0170   -0.2900 C   0  0  0  0  0  0  0  0  0  0  0  0
   -3.7380    1.2780    0.0050 O   0  0  0  0  0  0  0  0  0  0  0  0
   -3.7540    2.1890   -1.0000 O   0  0  0  0  0  0  0  0  0  0  0  0
    1.3240    0.5560    0.0130 N   0  0  0  0  0  0  0  0  0  0  0  0
    2.6860    0.3190   -0.0140 C   0  0  2  0  0  0  0  0  0  0  0  0
    3.2350   -0.1000    1.3500 C   0  0  0  0  0  0  0  0  0  0  0  0
    4.7300   -0.1120    1.2680 C   0  0  0  0  0  0  0  0  0  0  0  0
    5.2290    0.2860    0.0140 O   0  0  0  0  0  0  0  0  0  0  0  0
    4.7500    1.5560   -0.1420 O   0  0  0  0  0  0  0  0  0  0  0  0
    3.3850    1.5860   -0.3840 C   0  0  0  0  0  0  0  0  0  0  0  0
    2.7650    2.5590   -0.8600 O   0  0  0  0  0  0  0  0  0  0  0  0
  1  2  2  0
  2  3  1  0
  2 13  1  0
  3  4  1  0
  4  5  2  0
  4  6  1  0
  6  7  2  0
  6 10  1  0
  7  8  1  0
  8  9  1  0
  9 10  2  0
 10 11  1  0
 11 12  1  0
 14 13  1  1
 14 15  1  0
 14 19  1  0
 15 16  1  0
 16 17  1  0
 17 18  1  0
 18 19  1  0
 19 20  2  0
M  END
