
     RDKit          3D

 20 21  0  0  0  0  0  0  0  0999 V2000
   -3.1630    3.2530    1.8950 O   0  0  0  0  0  0  0  0  0  0  0  0
   -2.9660    2.0920    1.4380 C   0  0  0  0  0  0  0  0  0  0  0  0
   -2.6520    0.9670    2.2650 N   0  0  0  0  0  0  0  0  0  0  0  0
   -2.5130   -0.3040    1.5890 C   0  0  0  0  0  0  0  0  0  0  0  0
   -2.5880   -1.3140    2.2830 O   0  0  0  0  0  0  0  0  0  0  0  0
   -2.2810   -0.3160    0.1270 C   0  0  1  0  0  0  0  0  0  0  0  0
   -3.3830    0.6240   -0.4630 C   0  0  0  0  0  0  0  0  0  0  0  0
   -3.0620    1.8760    0.0490 O   0  0  0  0  0  0  0  0  0  0  0  0
   -0.9270    0.3000   -0.0690 C   0  0  0  0  0  0  0  0  0  0  0  0
    0.0270   -0.6780   -0.5280 N   0  0  0  0  0  0  0  0  0  0  0  0
    1.2640   -0.8930    0.1110 C   0  0  0  0  0  0  0  0  0  0  0  0
    1.4070   -1.1190    1.3680 O   0  0  0  0  0  0  0  0  0  0  0  0
    2.4090   -0.7990   -0.6390 O   0  0  0  0  0  0  0  0  0  0  0  0
    3.6630   -0.7940   -0.1690 C   0  0  0  0  0  0  0  0  0  0  0  0
    4.0360    0.4650    0.6770 C   0  0  0  0  0  0  0  0  0  0  0  0
    3.8100    1.5110   -0.2680 O   0  0  0  0  0  0  0  0  0  0  0  0
    4.9670    2.2340   -0.3900 O   0  0  0  0  0  0  0  0  0  0  0  0
   -0.3120   -1.5400   -1.6400 C   0  0  0  0  0  0  0  0  0  0  0  0
   -1.8030   -1.4610   -1.7790 C   0  0  0  0  0  0  0  0  0  0  0  0
   -2.3630   -1.5690   -0.4780 O   0  0  0  0  0  0  0  0  0  0  0  0
  1  2  2  0
  2  3  1  0
  2  8  1  0
  3  4  1  0
  4  5  2  0
  4  6  1  0
  6  7  1  6
  6  9  1  0
  6 20  1  0
  7  8  1  0
  9 10  1  0
 10 11  1  0
 10 18  1  0
 11 12  2  0
 11 13  1  0
 13 14  1  0
 14 15  1  0
 15 16  1  0
 16 17  1  0
 18 19  1  0
 19 20  1  0
M  END
