
     RDKit          3D

 20 20  0  0  0  0  0  0  0  0999 V2000
    4.2990    1.4710   -0.6970 O   0  0  0  0  0  0  0  0  0  0  0  0
    4.1690    0.2990   -0.2600 C   0  0  0  0  0  0  0  0  0  0  0  0
    2.8900   -0.1790    0.2040 N   0  0  0  0  0  0  0  0  0  0  0  0
    1.7420    0.6490    0.1850 C   0  0  0  0  0  0  0  0  0  0  0  0
    1.8980    1.8320   -0.2590 O   0  0  0  0  0  0  0  0  0  0  0  0
    0.3930    0.2510    0.6350 C   0  0  2  0  0  0  0  0  0  0  0  0
   -0.1700   -0.9170   -0.1780 C   0  0  0  0  0  0  0  0  0  0  0  0
    0.7320   -1.9640   -0.0590 O   0  0  0  0  0  0  0  0  0  0  0  0
   -0.5570    1.3330    0.5060 N   0  0  0  0  0  0  0  0  0  0  0  0
   -1.9070    1.0690    0.9120 C   0  0  0  0  0  0  0  0  0  0  0  0
   -2.8600    0.7990    0.0610 C   0  0  0  0  0  0  0  0  0  0  0  0
   -2.6380    0.7470   -1.3000 O   0  0  0  0  0  0  0  0  0  0  0  0
   -3.5230   -0.0040   -2.0150 O   0  0  0  0  0  0  0  0  0  0  0  0
   -3.9160   -1.1170   -1.2830 C   0  0  0  0  0  0  0  0  0  0  0  0
   -4.6200   -0.8230   -0.0070 C   0  0  0  0  0  0  0  0  0  0  0  0
   -4.2290    0.5360    0.5320 C   0  0  1  0  0  0  0  0  0  0  0  0
   -4.3180    0.5000    1.9220 O   0  0  0  0  0  0  0  0  0  0  0  0
    5.2960   -0.5070   -0.2440 O   0  0  0  0  0  0  0  0  0  0  0  0
    6.5620   -0.0390   -0.7020 C   0  0  0  0  0  0  0  0  0  0  0  0
    6.9790    1.0780    0.0560 O   0  0  0  0  0  0  0  0  0  0  0  0
  1  2  2  0
  2  3  1  0
  2 18  1  0
  3  4  1  0
  4  5  2  0
  4  6  1  0
  6  7  1  6
  6  9  1  0
  7  8  1  0
  9 10  1  0
 10 11  2  3
 11 12  1  0
 11 16  1  0
 12 13  1  0
 13 14  1  0
 14 15  1  0
 15 16  1  0
 16 17  1  1
 18 19  1  0
 19 20  1  0
M  END
