
     RDKit          3D

 20 22  0  0  0  0  0  0  0  0999 V2000
    4.1060   -1.8080    0.2440 O   0  0  0  0  0  0  0  0  0  0  0  0
    4.0950   -0.6380    0.2840 C   0  0  0  0  0  0  0  0  0  0  0  0
    5.3800    0.1060    0.2220 N   0  0  0  0  0  0  0  0  0  0  0  0
    6.5340   -0.5270    0.0990 O   0  0  0  0  0  0  0  0  0  0  0  0
    7.2640    0.2350   -0.7240 O   0  0  0  0  0  0  0  0  0  0  0  0
    2.9920    0.3270    0.3820 N   0  0  0  0  0  0  0  0  0  0  0  0
    1.7270   -0.8560    0.6370 C   0  0  0  0  0  0  0  0  0  0  0  0
    2.1220   -1.9330    0.7050 O   0  0  0  0  0  0  0  0  0  0  0  0
    0.4500   -0.1680    0.7110 C   0  0  2  0  0  0  0  0  0  0  0  0
   -0.6030   -0.9360    1.2190 O   0  0  0  0  0  0  0  0  0  0  0  0
   -1.7340   -0.4790    0.5400 C   0  0  0  0  0  0  0  0  0  0  0  0
   -3.0870   -0.5220    0.8960 C   0  0  0  0  0  0  0  0  0  0  0  0
   -4.0220   -0.0050    0.0640 C   0  0  0  0  0  0  0  0  0  0  0  0
   -3.6010    0.5580   -1.1350 C   0  0  0  0  0  0  0  0  0  0  0  0
   -2.2750    0.6060   -1.4970 C   0  0  0  0  0  0  0  0  0  0  0  0
   -1.3150    0.0730   -0.6370 C   0  0  0  0  0  0  0  0  0  0  0  0
    0.0550   -0.0220   -0.6990 O   0  0  0  0  0  0  0  0  0  0  0  0
   -4.7680    0.9840   -1.7610 O   0  0  0  0  0  0  0  0  0  0  0  0
   -5.7820    0.1950   -1.3130 O   0  0  0  0  0  0  0  0  0  0  0  0
   -5.5120    0.1730    0.0760 C   0  0  0  0  0  0  0  0  0  0  0  0
  1  2  2  0
  2  3  1  0
  2  6  1  0
  3  4  1  0
  4  5  1  0
  6  7  1  0
  7  8  2  0
  9  7  1  6
  9 10  1  0
  9 17  1  0
 10 11  1  0
 11 12  2  0
 11 16  1  0
 12 13  1  0
 13 14  2  0
 13 20  1  0
 14 15  1  0
 14 18  1  0
 15 16  2  0
 16 17  1  0
 18 19  1  0
 19 20  1  0
M  END
