
     RDKit          3D

  8  8  0  0  0  0  0  0  0  0999 V2000
    2.1770   -0.4780    0.1030 N   0  0  0  0  0  0  0  0  0  0  0  0
    0.8140   -0.0500    0.0180 C   0  0  0  0  0  0  0  0  0  0  0  0
    0.4530    1.2060    0.0230 C   0  0  0  0  0  0  0  0  0  0  0  0
   -0.9510    1.6030   -0.0660 C   0  0  0  0  0  0  0  0  0  0  0  0
   -1.2690    2.8290   -0.0580 O   0  0  0  0  0  0  0  0  0  0  0  0
   -1.8850    0.5850   -0.1560 O   0  0  0  0  0  0  0  0  0  0  0  0
   -1.5910   -0.7690   -0.0540 C   0  0  0  0  0  0  0  0  0  0  0  0
   -0.1840   -1.0660   -0.0770 N   0  0  0  0  0  0  0  0  0  0  0  0
  1  2  1  0
  2  3  2  0
  2  8  1  0
  3  4  1  0
  4  5  2  0
  4  6  1  0
  6  7  1  0
  7  8  1  0
M  END
