
     RDKit          3D

  9  9  0  0  0  0  0  0  0  0999 V2000
    1.9400   -0.0890   -0.0130 C   0  0  0  0  0  0  0  0  0  0  0  0
    0.4740   -0.1990   -0.0280 N   0  0  0  0  0  0  0  0  0  0  0  0
   -0.2320   -1.2970    0.1340 N   0  0  0  0  0  0  0  0  0  0  0  0
   -1.5510   -1.0570    0.0660 C   0  0  0  0  0  0  0  0  0  0  0  0
   -2.5260   -1.8450    0.1720 O   0  0  0  0  0  0  0  0  0  0  0  0
   -1.7030    0.2970   -0.1560 C   0  0  0  0  0  0  0  0  0  0  0  0
   -2.8700    0.9860   -0.2930 F   0  0  0  0  0  0  0  0  0  0  0  0
   -0.4150    0.7940   -0.2080 C   0  0  0  0  0  0  0  0  0  0  0  0
   -0.0520    2.1140   -0.4130 O   0  0  0  0  0  0  0  0  0  0  0  0
  1  2  1  0
  2  3  1  0
  2  8  1  0
  3  4  1  0
  4  5  2  0
  4  6  1  0
  6  7  1  0
  6  8  2  0
  8  9  1  0
M  END
