
     RDKit          3D

  8  8  0  0  0  0  0  0  0  0999 V2000
    2.4510    0.8420    0.1590 O   0  0  0  0  0  0  0  0  0  0  0  0
    1.2770    0.3920    0.0770 C   0  0  0  0  0  0  0  0  0  0  0  0
    0.9850   -0.9450   -0.0890 C   0  0  0  0  0  0  0  0  0  0  0  0
   -0.3340   -1.3730   -0.1720 C   0  0  0  0  0  0  0  0  0  0  0  0
   -1.2800   -0.4390   -0.0830 N   0  0  0  0  0  0  0  0  0  0  0  0
   -1.0140    0.8620    0.0790 N   0  0  0  0  0  0  0  0  0  0  0  0
    0.2550    1.3150    0.1630 C   0  0  0  0  0  0  0  0  0  0  0  0
    0.4760    2.5600    0.3170 O   0  0  0  0  0  0  0  0  0  0  0  0
  1  2  2  0
  2  3  1  0
  2  7  1  0
  3  4  2  0
  4  5  1  0
  5  6  1  0
  6  7  1  0
  7  8  2  0
M  END
