
     RDKit          3D

  9  9  0  0  0  0  0  0  0  0999 V2000
   -1.3050    2.2800    0.2220 O   0  0  0  0  0  0  0  0  0  0  0  0
   -0.7990    1.1180    0.0940 C   0  0  0  0  0  0  0  0  0  0  0  0
   -1.6020    0.0310    0.0540 N   0  0  0  0  0  0  0  0  0  0  0  0
   -1.0170   -1.1730   -0.0820 C   0  0  0  0  0  0  0  0  0  0  0  0
    0.3290   -1.3230   -0.1800 N   0  0  0  0  0  0  0  0  0  0  0  0
    1.1630   -0.2690   -0.1450 C   0  0  0  0  0  0  0  0  0  0  0  0
    2.5260   -0.5040   -0.2510 O   0  0  0  0  0  0  0  0  0  0  0  0
    0.5900    0.9760   -0.0060 C   0  0  0  0  0  0  0  0  0  0  0  0
    1.4220    2.0410    0.0300 F   0  0  0  0  0  0  0  0  0  0  0  0
  1  2  2  0
  2  3  1  0
  2  8  1  0
  3  4  1  0
  4  5  2  0
  5  6  1  0
  6  7  1  0
  6  8  2  0
  8  9  1  0
M  END
