
     RDKit          3D

  8  8  0  0  0  0  0  0  0  0999 V2000
    2.4710   -0.3910   -0.1480 N   0  0  0  0  0  0  0  0  0  0  0  0
    1.0770   -0.1490   -0.0750 C   0  0  0  0  0  0  0  0  0  0  0  0
    0.1930   -1.0260   -0.3390 N   0  0  0  0  0  0  0  0  0  0  0  0
   -1.2250   -0.8910   -0.2980 C   0  0  0  0  0  0  0  0  0  0  0  0
   -1.7380    0.4180    0.1940 C   0  0  0  0  0  0  0  0  0  0  0  0
   -0.7580    1.3920    0.3910 O   0  0  0  0  0  0  0  0  0  0  0  0
    0.5960    1.1880    0.3290 C   0  0  0  0  0  0  0  0  0  0  0  0
    1.4490    2.0940    0.6020 O   0  0  0  0  0  0  0  0  0  0  0  0
  1  2  1  0
  2  3  2  0
  2  7  1  0
  3  4  1  0
  4  5  1  0
  5  6  1  0
  6  7  1  0
  7  8  2  0
M  END
