
     RDKit          3D

  9  9  0  0  0  0  0  0  0  0999 V2000
   -1.8040   -2.2310   -0.2210 O   0  0  0  0  0  0  0  0  0  0  0  0
   -1.0230   -1.2610   -0.0950 C   0  0  0  0  0  0  0  0  0  0  0  0
    0.3130   -1.3580   -0.0790 N   0  0  0  0  0  0  0  0  0  0  0  0
    1.1470   -0.3200    0.0550 C   0  0  0  0  0  0  0  0  0  0  0  0
    2.5240   -0.4180    0.0710 O   0  0  0  0  0  0  0  0  0  0  0  0
    0.5850    0.9370    0.1850 C   0  0  0  0  0  0  0  0  0  0  0  0
    1.3600    2.0290    0.3240 F   0  0  0  0  0  0  0  0  0  0  0  0
   -0.7950    1.0410    0.1690 C   0  0  0  0  0  0  0  0  0  0  0  0
   -1.5780   -0.0410    0.0310 N   0  0  0  0  0  0  0  0  0  0  0  0
  1  2  2  0
  2  3  1  0
  2  9  1  0
  3  4  2  0
  4  5  1  0
  4  6  1  0
  6  7  1  0
  6  8  2  0
  8  9  1  0
M  END
