
     RDKit          3D

 31 31  0  0  0  0  0  0  0  0999 V2000
   -0.2810    2.1380   -1.7040 C   0  0  0  0  0  0  0  0  0  0  0  0
    0.4200    1.2580   -0.7230 C   0  0  2  0  0  0  0  0  0  0  0  0
    0.6600   -0.3750   -1.4740 S   0  0  0  0  0  0  0  0  0  0  0  0
    1.8870   -1.3390   -0.5030 C   0  0  2  0  0  0  0  0  0  0  0  0
    3.1770   -0.7810   -0.7560 N   0  0  0  0  0  0  0  0  0  0  0  0
    3.9750   -0.1540    0.2590 C   0  0  0  0  0  0  0  0  0  0  0  0
    3.4690   -0.1210    1.4080 O   0  0  0  0  0  0  0  0  0  0  0  0
    5.2910    0.4120   -0.0190 C   0  0  0  0  0  0  0  0  0  0  0  0
    5.8260    0.3970   -1.1380 O   0  0  0  0  0  0  0  0  0  0  0  0
    5.9770    0.9970    1.0240 O   0  0  0  0  0  0  0  0  0  0  0  0
    7.2480    1.5870    0.9300 C   0  0  0  0  0  0  0  0  0  0  0  0
    8.2230    0.6860    0.5060 O   0  0  0  0  0  0  0  0  0  0  0  0
    1.7630   -2.7590   -0.8740 C   0  0  0  0  0  0  0  0  0  0  0  0
    2.7830   -3.3990   -1.2510 O   0  0  0  0  0  0  0  0  0  0  0  0
    0.5610   -3.4550   -0.8320 O   0  0  0  0  0  0  0  0  0  0  0  0
   -0.6870   -2.7880   -0.8200 C   0  0  0  0  0  0  0  0  0  0  0  0
   -1.8250   -3.6500   -0.4410 C   0  0  0  0  0  0  0  0  0  0  0  0
   -1.8160   -4.8530   -0.7710 O   0  0  0  0  0  0  0  0  0  0  0  0
   -2.9100   -3.1740    0.2730 O   0  0  0  0  0  0  0  0  0  0  0  0
   -2.8430   -1.9930    1.0670 C   0  0  0  0  0  0  0  0  0  0  0  0
   -3.1750   -0.7690    0.2860 C   0  0  1  0  0  0  0  0  0  0  0  0
   -2.9550   -0.8840   -1.0900 O   0  0  0  0  0  0  0  0  0  0  0  0
   -4.5880   -0.6290    0.3820 O   0  0  0  0  0  0  0  0  0  0  0  0
   -2.6180    0.5050    0.8430 C   0  0  2  0  0  0  0  0  0  0  0  0
   -3.1360    1.8670   -0.2080 S   0  0  0  0  0  0  0  0  0  0  0  0
   -4.9070    2.1460   -0.1660 C   0  0  0  0  0  0  0  0  0  0  0  0
   -5.2550    2.5760    1.1130 O   0  0  0  0  0  0  0  0  0  0  0  0
   -6.5490    2.7980    1.2040 O   0  0  0  0  0  0  0  0  0  0  0  0
   -1.2140    0.4910    1.1540 N   0  0  0  0  0  0  0  0  0  0  0  0
   -0.1460    1.2330    0.6380 C   0  0  0  0  0  0  0  0  0  0  0  0
    0.4590    2.0300    1.4680 O   0  0  0  0  0  0  0  0  0  0  0  0
  2  1  1  6
  2  3  1  0
  2 30  1  0
  3  4  1  0
  4  5  1  6
  4 13  1  0
  5  6  1  0
  6  7  2  0
  6  8  1  0
  8  9  2  0
  8 10  1  0
 10 11  1  0
 11 12  1  0
 13 14  2  0
 13 15  1  0
 15 16  1  0
 16 17  1  0
 17 18  2  0
 17 19  1  0
 19 20  1  0
 20 21  1  0
 21 22  1  6
 21 23  1  0
 21 24  1  0
 24 25  1  6
 24 29  1  0
 25 26  1  0
 26 27  1  0
 27 28  1  0
 29 30  1  0
 30 31  2  0
M  END
