
     RDKit          3D

 30 31  0  0  0  0  0  0  0  0999 V2000
    1.2290   -1.2220   -1.1720 C   0  0  0  0  0  0  0  0  0  0  0  0
    0.8710   -0.0740   -0.2090 C   0  0  1  0  0  0  0  0  0  0  0  0
    2.1080    0.1060    0.6480 C   0  0  1  0  0  0  0  0  0  0  0  0
    2.3680   -1.0170    1.3990 O   0  0  0  0  0  0  0  0  0  0  0  0
    3.3200    0.4760   -0.1370 C   0  0  0  0  0  0  0  0  0  0  0  0
    4.6900    0.6490    1.0730 S   0  0  0  0  0  0  0  0  0  0  0  0
    6.2210    1.0920    0.2580 C   0  0  2  0  0  0  0  0  0  0  0  0
    6.7010    0.0060   -0.6190 N   0  0  0  0  0  0  0  0  0  0  0  0
    8.0380    0.0810   -0.6250 O   0  0  0  0  0  0  0  0  0  0  0  0
    8.4750   -0.2340    0.5990 O   0  0  0  0  0  0  0  0  0  0  0  0
    7.5700    0.9500    1.5080 S   0  0  0  0  0  0  0  0  0  0  0  0
    0.5540    1.0010   -0.9840 O   0  0  0  0  0  0  0  0  0  0  0  0
   -0.1680    2.1340   -0.9150 C   0  0  0  0  0  0  0  0  0  0  0  0
    0.4460    3.2350   -0.6830 O   0  0  0  0  0  0  0  0  0  0  0  0
   -1.5080    2.1700   -1.0820 O   0  0  0  0  0  0  0  0  0  0  0  0
   -2.6160    1.8780   -0.3160 C   0  0  1  0  0  0  0  0  0  0  0  0
   -3.1810    3.1200    0.3410 C   0  0  0  0  0  0  0  0  0  0  0  0
   -4.3140    3.1010    1.1800 N   0  0  0  0  0  0  0  0  0  0  0  0
   -2.6070    4.2060    0.1230 O   0  0  0  0  0  0  0  0  0  0  0  0
   -3.7160    1.4140   -1.2000 C   0  0  0  0  0  0  0  0  0  0  0  0
   -3.6120    1.7420   -2.4210 O   0  0  0  0  0  0  0  0  0  0  0  0
   -4.8110    0.6800   -0.8230 O   0  0  0  0  0  0  0  0  0  0  0  0
   -4.8570   -0.5250   -0.1050 C   0  0  0  0  0  0  0  0  0  0  0  0
   -3.4940   -1.1730   -0.0310 C   0  0  0  0  0  0  0  0  0  0  0  0
   -3.4980   -2.5270   -0.3430 O   0  0  0  0  0  0  0  0  0  0  0  0
   -2.5780   -3.2700    0.3890 C   0  0  0  0  0  0  0  0  0  0  0  0
   -1.1260   -2.8760    0.0590 C   0  0  0  0  0  0  0  0  0  0  0  0
   -1.0380   -1.5280    0.1890 O   0  0  0  0  0  0  0  0  0  0  0  0
   -0.2060   -0.6050    0.6700 C   0  0  0  0  0  0  0  0  0  0  0  0
   -0.2080   -0.0850    1.8450 O   0  0  0  0  0  0  0  0  0  0  0  0
  2  1  1  6
  2  3  1  0
  2 12  1  0
  2 29  1  0
  3  4  1  6
  3  5  1  0
  5  6  1  0
  7  6  1  1
  7  8  1  0
  7 11  1  0
  8  9  1  0
  9 10  1  0
 10 11  1  0
 12 13  1  0
 13 14  2  0
 13 15  1  0
 15 16  1  0
 16 17  1  6
 16 20  1  0
 17 18  1  0
 17 19  2  0
 20 21  2  0
 20 22  1  0
 22 23  1  0
 23 24  1  0
 24 25  1  0
 25 26  1  0
 26 27  1  0
 27 28  1  0
 28 29  1  0
 29 30  2  0
M  END
