
     RDKit          3D

 31 34  0  0  0  0  0  0  0  0999 V2000
   -5.4590   -1.2820    1.7140 C   0  0  0  0  0  0  0  0  0  0  0  0
   -3.9950   -1.3830    1.3300 C   0  0  0  0  0  0  0  0  0  0  0  0
   -3.3840   -2.3860    1.7370 O   0  0  0  0  0  0  0  0  0  0  0  0
   -3.4020   -0.3820    0.5590 N   0  0  0  0  0  0  0  0  0  0  0  0
   -2.0600   -0.3640    0.1360 C   0  0  0  0  0  0  0  0  0  0  0  0
   -1.1560   -1.3870    0.3290 C   0  0  0  0  0  0  0  0  0  0  0  0
    0.1530   -1.3370   -0.1300 C   0  0  0  0  0  0  0  0  0  0  0  0
    1.0890   -2.3840    0.0040 N   0  0  0  0  0  0  0  0  0  0  0  0
    2.4230   -2.0900    0.3840 C   0  0  0  0  0  0  0  0  0  0  0  0
    2.8870   -0.8770    0.8130 C   0  0  0  0  0  0  0  0  0  0  0  0
    4.2250   -0.6590    1.0950 C   0  0  0  0  0  0  0  0  0  0  0  0
    4.6960    0.6020    1.5280 N   0  0  0  0  0  0  0  0  0  0  0  0
    3.7960    1.6950    1.7090 C   0  0  2  0  0  0  0  0  0  0  0  0
    2.9210    2.1810    0.6750 C   0  0  0  0  0  0  0  0  0  0  0  0
    4.0850    2.9610    0.8940 C   0  0  0  0  0  0  0  0  0  0  0  0
    5.0720   -1.7140    0.9290 N   0  0  0  0  0  0  0  0  0  0  0  0
    6.3790   -1.8100    1.1120 N   0  0  0  0  0  0  0  0  0  0  0  0
    6.8230   -3.0480    0.8240 C   0  0  0  0  0  0  0  0  0  0  0  0
    5.7320   -3.7970    0.4290 C   0  0  0  0  0  0  0  0  0  0  0  0
    5.6790   -5.1690    0.0050 C   0  0  0  0  0  0  0  0  0  0  0  0
    5.6310   -6.2660   -0.3540 N   0  0  0  0  0  0  0  0  0  0  0  0
    4.6480   -2.9190    0.5100 C   0  0  0  0  0  0  0  0  0  0  0  0
    3.3400   -3.0820    0.2480 N   0  0  0  0  0  0  0  0  0  0  0  0
    0.5420   -0.2040   -0.8060 C   0  0  0  0  0  0  0  0  0  0  0  0
   -0.3220    0.8350   -1.0180 C   0  0  0  0  0  0  0  0  0  0  0  0
   -1.6020    0.7660   -0.5580 C   0  0  0  0  0  0  0  0  0  0  0  0
   -2.4400    1.9000   -0.8060 N   0  0  0  0  0  0  0  0  0  0  0  0
   -2.9370    2.6370    0.3220 C   0  0  0  0  0  0  0  0  0  0  0  0
   -2.7550    2.2780   -2.1760 C   0  0  0  0  0  0  0  0  0  0  0  0
   -4.2290    2.0380   -2.4170 C   0  0  0  0  0  0  0  0  0  0  0  0
   -4.6200    2.3960   -3.7590 N   0  0  0  0  0  0  0  0  0  0  0  0
  1  2  1  0
  2  3  2  0
  2  4  1  0
  4  5  1  0
  5  6  2  0
  5 26  1  0
  6  7  1  0
  7  8  1  0
  7 24  2  0
  8  9  1  0
  9 10  1  0
  9 23  2  0
 10 11  2  0
 11 12  1  0
 11 16  1  0
 13 12  1  6
 13 14  1  0
 13 15  1  0
 14 15  2  0
 16 17  1  0
 16 22  1  0
 17 18  2  0
 18 19  1  0
 19 20  1  0
 19 22  2  0
 20 21  3  0
 22 23  1  0
 24 25  1  0
 25 26  2  0
 26 27  1  0
 27 28  1  0
 27 29  1  0
 29 30  1  0
 30 31  1  0
M  CHG  1  31   1
M  END
