
     RDKit          3D

 29 31  0  0  0  0  0  0  0  0999 V2000
   -6.7870    0.9620   -2.5230 C   0  0  0  0  0  0  0  0  0  0  0  0
   -6.8240   -0.3180   -1.7810 C   0  0  2  0  0  0  0  0  0  0  0  0
   -7.8710   -0.3070   -0.8570 O   0  0  0  0  0  0  0  0  0  0  0  0
   -5.5670   -0.8750   -1.2570 C   0  0  0  0  0  0  0  0  0  0  0  0
   -4.9850   -0.2510   -0.0900 N   0  0  0  0  0  0  0  0  0  0  0  0
   -5.8840   -0.4860    1.0620 C   0  0  0  0  0  0  0  0  0  0  0  0
   -4.7480    1.1580   -0.2460 C   0  0  0  0  0  0  0  0  0  0  0  0
   -3.9280    1.7500    0.8510 C   0  0  0  0  0  0  0  0  0  0  0  0
   -2.6780    1.3290    1.0390 O   0  0  0  0  0  0  0  0  0  0  0  0
   -2.2870    0.0850    1.2870 C   0  0  1  0  0  0  0  0  0  0  0  0
   -1.3100   -0.3330    0.1620 C   0  0  0  0  0  0  0  0  0  0  0  0
   -0.2030    0.7000    0.0870 C   0  0  0  0  0  0  0  0  0  0  0  0
    0.5200    0.8730    1.3690 C   0  0  2  0  0  0  0  0  0  0  0  0
    1.5200   -0.1890    1.7110 C   0  0  0  0  0  0  0  0  0  0  0  0
    2.6090   -0.2960    0.7270 C   0  0  0  0  0  0  0  0  0  0  0  0
    2.6800    0.4980   -0.2270 O   0  0  0  0  0  0  0  0  0  0  0  0
    3.5390   -1.2930    0.8900 O   0  0  0  0  0  0  0  0  0  0  0  0
    4.5970   -1.4400   -0.0140 C   0  0  0  0  0  0  0  0  0  0  0  0
    5.4570   -0.2070   -0.0010 C   0  0  1  0  0  0  0  0  0  0  0  0
    5.9620   -0.0500    1.3530 N   0  0  0  0  0  0  0  0  0  0  0  0
    6.6510   -0.4280   -0.8950 C   0  0  0  0  0  0  0  0  0  0  0  0
    7.7230   -1.2520   -0.6960 C   0  0  0  0  0  0  0  0  0  0  0  0
    8.5730   -1.1230   -1.7920 C   0  0  0  0  0  0  0  0  0  0  0  0
    7.9440   -0.1990   -2.6150 C   0  0  0  0  0  0  0  0  0  0  0  0
    6.8320    0.1680   -2.0380 O   0  0  0  0  0  0  0  0  0  0  0  0
    8.9460   -0.3100   -3.4850 C   0  0  0  0  0  0  0  0  0  0  0  0
    9.5900   -1.2740   -2.6140 C   0  0  0  0  0  0  0  0  0  0  0  0
   -0.4030    1.0190    2.5610 C   0  0  0  0  0  0  0  0  0  0  0  0
   -1.4380   -0.0570    2.5540 C   0  0  0  0  0  0  0  0  0  0  0  0
  2  1  1  1
  2  3  1  0
  2  4  1  0
  4  5  1  0
  5  6  1  0
  5  7  1  0
  7  8  1  0
  8  9  1  0
 10  9  1  6
 10 11  1  0
 10 29  1  0
 11 12  1  0
 12 13  1  0
 13 14  1  1
 13 28  1  0
 14 15  1  0
 15 16  2  0
 15 17  1  0
 17 18  1  0
 18 19  1  0
 19 20  1  1
 19 21  1  0
 21 22  2  0
 21 25  1  0
 22 23  1  0
 23 24  1  0
 23 27  2  0
 24 25  1  0
 24 26  2  0
 26 27  1  0
 28 29  1  0
M  CHG  1  20   1
M  END
