
     RDKit          3D

 30 31  0  0  0  0  0  0  0  0999 V2000
    2.3910   -1.3290    2.2420 O   0  0  0  0  0  0  0  0  0  0  0  0
    1.4640   -0.7190    1.6670 C   0  0  0  0  0  0  0  0  0  0  0  0
    0.0960   -1.2660    1.6060 C   0  0  0  0  0  0  0  0  0  0  0  0
   -0.7260   -0.3640    0.8950 O   0  0  0  0  0  0  0  0  0  0  0  0
   -2.0790   -0.6030    0.6690 C   0  0  0  0  0  0  0  0  0  0  0  0
   -2.6010   -1.6640    1.1140 O   0  0  0  0  0  0  0  0  0  0  0  0
   -2.9260    0.2810   -0.0400 N   0  0  0  0  0  0  0  0  0  0  0  0
   -4.3010   -0.0100   -0.2410 N   0  0  0  0  0  0  0  0  0  0  0  0
   -5.3300    0.8480    0.2050 C   0  0  0  0  0  0  0  0  0  0  0  0
   -5.0580    1.9110    0.8010 O   0  0  0  0  0  0  0  0  0  0  0  0
   -6.7550    0.4970   -0.0310 C   0  0  1  0  0  0  0  0  0  0  0  0
   -7.5430    0.4130    1.2550 C   0  0  0  0  0  0  0  0  0  0  0  0
   -8.8750    0.1830    0.9030 O   0  0  0  0  0  0  0  0  0  0  0  0
   -7.3200    1.5060   -1.0000 C   0  0  0  0  0  0  0  0  0  0  0  0
   -8.1970    0.7080   -1.7620 O   0  0  0  0  0  0  0  0  0  0  0  0
   -7.4210   -0.4330   -1.9510 C   0  0  0  0  0  0  0  0  0  0  0  0
   -6.8990   -0.6980   -0.6960 O   0  0  0  0  0  0  0  0  0  0  0  0
    1.7330    0.4990    1.0740 O   0  0  0  0  0  0  0  0  0  0  0  0
    3.0450    1.0160    1.1330 C   0  0  0  0  0  0  0  0  0  0  0  0
    3.9490    0.0370    0.4310 C   0  0  0  0  0  0  0  0  0  0  0  0
    3.5040   -1.0130   -0.1010 O   0  0  0  0  0  0  0  0  0  0  0  0
    5.3160    0.2640    0.3470 O   0  0  0  0  0  0  0  0  0  0  0  0
    6.1190   -0.6870   -0.3230 C   0  0  2  0  0  0  0  0  0  0  0  0
    7.1330   -1.3200    0.6070 C   0  0  0  0  0  0  0  0  0  0  0  0
    7.6850   -0.1790    1.8770 S   0  0  0  0  0  0  0  0  0  0  0  0
    6.9010    1.3130    1.6540 O   0  0  0  0  0  0  0  0  0  0  0  0
    7.4100    2.0290    0.2040 S   0  0  0  0  0  0  0  0  0  0  0  0
    7.9620    0.8490   -1.0320 C   0  0  0  0  0  0  0  0  0  0  0  0
    6.7740    0.0090   -1.4860 C   0  0  1  0  0  0  0  0  0  0  0  0
    7.1560   -0.9460   -2.4240 O   0  0  0  0  0  0  0  0  0  0  0  0
  1  2  2  0
  2  3  1  0
  2 18  1  0
  3  4  1  0
  4  5  1  0
  5  6  2  0
  5  7  1  0
  7  8  1  0
  8  9  1  0
  9 10  2  0
  9 11  1  0
 11 12  1  1
 11 14  1  0
 11 17  1  0
 12 13  1  0
 14 15  1  0
 15 16  1  0
 16 17  1  0
 18 19  1  0
 19 20  1  0
 20 21  2  0
 20 22  1  0
 23 22  1  1
 23 24  1  0
 23 29  1  0
 24 25  1  0
 25 26  1  0
 26 27  1  0
 27 28  1  0
 28 29  1  0
 29 30  1  6
M  END
