
     RDKit          3D

 31 31  0  0  0  0  0  0  0  0999 V2000
    4.1360   -4.4070   -1.0400 C   0  0  0  0  0  0  0  0  0  0  0  0
    3.5140   -3.2820   -0.4460 O   0  0  0  0  0  0  0  0  0  0  0  0
    4.0680   -2.6550    0.6550 C   0  0  0  0  0  0  0  0  0  0  0  0
    5.1430   -3.1250    1.1070 O   0  0  0  0  0  0  0  0  0  0  0  0
    3.4050   -1.4610    1.2840 C   0  0  2  0  0  0  0  0  0  0  0  0
    2.2390   -1.1830    0.5630 O   0  0  0  0  0  0  0  0  0  0  0  0
    0.9520   -1.2790    1.0720 C   0  0  0  0  0  0  0  0  0  0  0  0
    0.8040   -1.6370    2.2500 O   0  0  0  0  0  0  0  0  0  0  0  0
   -0.2070   -0.9880    0.3080 N   0  0  0  0  0  0  0  0  0  0  0  0
   -1.5290   -1.0810    0.8100 C   0  0  0  0  0  0  0  0  0  0  0  0
   -1.7150   -1.4380    1.9940 O   0  0  0  0  0  0  0  0  0  0  0  0
   -2.7250   -0.7680   -0.0190 C   0  0  1  0  0  0  0  0  0  0  0  0
   -3.8990   -0.9230    0.6630 O   0  0  0  0  0  0  0  0  0  0  0  0
   -4.7980    0.0210    0.2650 C   0  0  2  0  0  0  0  0  0  0  0  0
   -5.1650    0.8040    1.3830 O   0  0  0  0  0  0  0  0  0  0  0  0
   -6.0800   -0.5530   -0.2870 C   0  0  0  0  0  0  0  0  0  0  0  0
   -7.1200    0.8130   -0.7500 S   0  0  2  0  0  0  0  0  0  0  0  0
   -7.4490    1.6670    0.4460 O   0  0  0  0  0  0  0  0  0  0  0  0
   -8.4330    0.3060   -1.3220 O   0  0  0  0  0  0  0  0  0  0  0  0
   -6.4180    1.7850   -1.9060 O   0  0  0  0  0  0  0  0  0  0  0  0
   -4.1610    0.9330   -0.7250 C   0  0  0  0  0  0  0  0  0  0  0  0
   -2.6820    0.6680   -0.5190 C   0  0  2  0  0  0  0  0  0  0  0  0
   -1.7680    0.8090   -2.0700 S   0  0  0  0  0  0  0  0  0  0  0  0
    4.3250   -0.3170    1.3640 C   0  0  0  0  0  0  0  0  0  0  0  0
    5.4030   -0.4390    1.9820 O   0  0  0  0  0  0  0  0  0  0  0  0
    3.9900    0.8760    0.7590 O   0  0  0  0  0  0  0  0  0  0  0  0
    4.8270    2.0130    0.7970 C   0  0  2  0  0  0  0  0  0  0  0  0
    4.0530    3.1040    1.5470 C   0  0  0  0  0  0  0  0  0  0  0  0
    5.1170    2.4340   -0.5860 C   0  0  0  0  0  0  0  0  0  0  0  0
    4.5700    1.7100   -1.6670 N   0  0  0  0  0  0  0  0  0  0  0  0
    5.8580    3.4440   -0.7410 O   0  0  0  0  0  0  0  0  0  0  0  0
  1  2  1  0
  2  3  1  0
  3  4  2  0
  3  5  1  0
  5  6  1  6
  5 24  1  0
  6  7  1  0
  7  8  2  0
  7  9  1  0
  9 10  1  0
 10 11  2  0
 12 10  1  1
 12 13  1  0
 12 22  1  0
 13 14  1  0
 14 15  1  1
 14 16  1  0
 14 21  1  0
 16 17  1  0
 17 18  2  0
 17 19  2  0
 17 20  1  6
 21 22  1  0
 22 23  1  6
 24 25  2  0
 24 26  1  0
 26 27  1  0
 27 28  1  1
 27 29  1  0
 29 30  1  0
 29 31  2  0
M  END
