
     RDKit          3D

 31 32  0  0  0  0  0  0  0  0999 V2000
   -1.4600    4.1420    0.8700 N   0  0  0  0  0  0  0  0  0  0  0  0
   -0.5540    3.5970   -0.0810 C   0  0  0  0  0  0  0  0  0  0  0  0
    0.6660    3.8440    0.0830 O   0  0  0  0  0  0  0  0  0  0  0  0
   -1.0640    2.7870   -1.1880 C   0  0  2  0  0  0  0  0  0  0  0  0
   -2.4430    2.6610   -1.1560 O   0  0  0  0  0  0  0  0  0  0  0  0
   -0.4380    1.4140   -1.2890 C   0  0  1  0  0  0  0  0  0  0  0  0
    1.0410    1.5160   -1.4890 C   0  0  0  0  0  0  0  0  0  0  0  0
    2.0080    1.3380    0.0040 S   0  0  0  0  0  0  0  0  0  0  0  0
    3.3440    0.1510   -0.2690 C   0  0  1  0  0  0  0  0  0  0  0  0
    4.4020    0.0410    1.1720 S   0  0  1  0  0  0  0  0  0  0  0  0
    3.6370   -0.5100    2.3170 O   0  0  0  0  0  0  0  0  0  0  0  0
    5.5720   -0.8150    0.7830 O   0  0  0  0  0  0  0  0  0  0  0  0
    2.8670   -1.1950   -0.6930 C   0  0  1  0  0  0  0  0  0  0  0  0
    3.7500   -1.6470   -1.7050 O   0  0  0  0  0  0  0  0  0  0  0  0
    2.8940   -2.1750    0.2880 O   0  0  0  0  0  0  0  0  0  0  0  0
    1.8580   -2.8680    0.8640 C   0  0  0  0  0  0  0  0  0  0  0  0
    1.6460   -4.1020    0.7820 O   0  0  0  0  0  0  0  0  0  0  0  0
    0.8770   -2.1010    1.6730 C   0  0  0  0  0  0  0  0  0  0  0  0
   -0.3950   -2.6520    1.6760 O   0  0  0  0  0  0  0  0  0  0  0  0
   -1.6260   -2.0600    1.7260 C   0  0  0  0  0  0  0  0  0  0  0  0
   -2.3680   -1.9550    2.7550 O   0  0  0  0  0  0  0  0  0  0  0  0
   -2.1950   -1.4710    0.4890 C   0  0  1  0  0  0  0  0  0  0  0  0
   -1.1760   -0.8700   -0.4340 C   0  0  0  0  0  0  0  0  0  0  0  0
   -0.8430    0.5260   -0.1850 C   0  0  0  0  0  0  0  0  0  0  0  0
   -0.8930    0.9850    0.9360 O   0  0  0  0  0  0  0  0  0  0  0  0
   -2.7240   -2.6050   -0.2290 O   0  0  0  0  0  0  0  0  0  0  0  0
   -4.0430   -2.4130   -0.5520 C   0  0  0  0  0  0  0  0  0  0  0  0
   -4.8100   -3.1540   -1.2460 O   0  0  0  0  0  0  0  0  0  0  0  0
   -4.4490   -1.1830    0.0440 N   0  0  0  0  0  0  0  0  0  0  0  0
   -3.3530   -0.6240    0.7390 C   0  0  0  0  0  0  0  0  0  0  0  0
   -3.4140    0.4060    1.4250 O   0  0  0  0  0  0  0  0  0  0  0  0
  1  2  1  0
  2  3  2  0
  2  4  1  0
  4  5  1  1
  4  6  1  0
  6  7  1  1
  6 24  1  0
  7  8  1  0
  9  8  1  1
 10  9  1  6
  9 13  1  0
 10 11  2  0
 10 12  2  0
 13 14  1  6
 13 15  1  0
 15 16  1  0
 16 17  2  0
 16 18  1  0
 18 19  1  0
 19 20  1  0
 20 21  2  0
 20 22  1  0
 22 23  1  6
 22 26  1  0
 22 30  1  0
 23 24  1  0
 24 25  2  0
 26 27  1  0
 27 28  2  0
 27 29  1  0
 29 30  1  0
 30 31  2  0
M  END
