
     RDKit          3D

 30 30  0  0  0  0  0  0  0  0999 V2000
   -6.5720   -0.4070    3.5050 C   0  0  0  0  0  0  0  0  0  0  0  0
   -6.0290    0.8370    3.0630 O   0  0  0  0  0  0  0  0  0  0  0  0
   -5.0620    0.9270    2.0830 C   0  0  0  0  0  0  0  0  0  0  0  0
   -4.6590   -0.1440    1.5760 O   0  0  0  0  0  0  0  0  0  0  0  0
   -4.5160    2.1980    1.6390 C   0  0  0  0  0  0  0  0  0  0  0  0
   -3.5510    2.1410    0.6480 O   0  0  0  0  0  0  0  0  0  0  0  0
   -2.3410    1.5080    0.6940 C   0  0  0  0  0  0  0  0  0  0  0  0
   -2.0650    0.9030    1.7630 O   0  0  0  0  0  0  0  0  0  0  0  0
   -1.3550    1.4910   -0.4110 C   0  0  2  0  0  0  0  0  0  0  0  0
   -1.9710    0.8540   -1.6480 C   0  0  0  0  0  0  0  0  0  0  0  0
   -2.2890   -0.5010   -1.3670 O   0  0  0  0  0  0  0  0  0  0  0  0
   -2.8620   -1.3090   -2.3270 C   0  0  0  0  0  0  0  0  0  0  0  0
   -3.1070   -0.8540   -3.4590 O   0  0  0  0  0  0  0  0  0  0  0  0
   -3.2340   -2.9900   -1.9130 S   0  0  0  0  0  0  0  0  0  0  0  0
   -3.9770   -3.8510   -3.3300 C   0  0  0  0  0  0  0  0  0  0  0  0
   -5.2080   -3.2890   -3.5960 O   0  0  0  0  0  0  0  0  0  0  0  0
   -0.1730    0.7520   -0.0930 N   0  0  0  0  0  0  0  0  0  0  0  0
    1.1440    1.2530   -0.1480 C   0  0  0  0  0  0  0  0  0  0  0  0
    1.3250    2.4300   -0.4980 O   0  0  0  0  0  0  0  0  0  0  0  0
    2.2620    0.3570    0.2150 C   0  0  0  0  0  0  0  0  0  0  0  0
    2.0790   -0.8170    0.5630 O   0  0  0  0  0  0  0  0  0  0  0  0
    3.5900    0.8450    0.1660 N   0  0  0  0  0  0  0  0  0  0  0  0
    4.7480    0.0710    0.4930 C   0  0  2  0  0  0  0  0  0  0  0  0
    5.5520    0.6310    1.6410 C   0  0  0  0  0  0  0  0  0  0  0  0
    7.0260   -0.4310    1.7780 S   0  0  0  0  0  0  0  0  0  0  0  0
    8.0570    0.1510    2.6990 O   0  0  0  0  0  0  0  0  0  0  0  0
    7.6530   -0.7650    0.1290 C   0  0  0  0  0  0  0  0  0  0  0  0
    6.5290   -1.0230   -0.6780 O   0  0  0  0  0  0  0  0  0  0  0  0
    5.6510    0.0380   -0.7220 C   0  0  1  0  0  0  0  0  0  0  0  0
    4.8490   -0.0230   -1.8490 O   0  0  0  0  0  0  0  0  0  0  0  0
  1  2  1  0
  2  3  1  0
  3  4  2  0
  3  5  1  0
  5  6  1  0
  6  7  1  0
  7  8  2  0
  7  9  1  0
  9 10  1  6
  9 17  1  0
 10 11  1  0
 11 12  1  0
 12 13  2  0
 12 14  1  0
 14 15  1  0
 15 16  1  0
 17 18  1  0
 18 19  2  0
 18 20  1  0
 20 21  2  0
 20 22  1  0
 23 22  1  6
 23 24  1  0
 23 29  1  0
 25 24  1  6
 25 26  2  0
 25 27  1  0
 27 28  1  0
 28 29  1  0
 29 30  1  6
M  END
