
     RDKit          3D

 32 36  0  0  0  0  0  0  0  0999 V2000
    4.9610   -0.7820    3.8350 C   0  0  0  0  0  0  0  0  0  0  0  0
    4.7400   -0.7910    2.3630 C   0  0  0  0  0  0  0  0  0  0  0  0
    3.6450   -1.2460    1.7860 C   0  0  0  0  0  0  0  0  0  0  0  0
    3.4740   -1.2420    0.3410 C   0  0  0  0  0  0  0  0  0  0  0  0
    2.2210   -1.7470   -0.2990 C   0  0  0  0  0  0  0  0  0  0  0  0
    1.0210   -0.9440    0.1800 C   0  0  0  0  0  0  0  0  0  0  0  0
   -0.2000   -1.5100   -0.5050 C   0  0  0  0  0  0  0  0  0  0  0  0
   -1.4090   -0.8030   -0.1090 N   0  0  0  0  0  0  0  0  0  0  0  0
   -2.0660   -1.3290    1.0170 C   0  0  0  0  0  0  0  0  0  0  0  0
   -1.5070   -2.2770    1.6670 O   0  0  0  0  0  0  0  0  0  0  0  0
   -3.3740   -0.9110    1.5720 C   0  0  0  0  0  0  0  0  0  0  0  0
   -4.2950   -0.3740    0.5010 C   0  0  1  0  0  0  0  0  0  0  0  0
   -4.3720   -1.2910   -0.6770 C   0  0  0  0  0  0  0  0  0  0  0  0
   -5.3680   -0.7860   -1.6780 C   0  0  0  0  0  0  0  0  0  0  0  0
   -6.7340   -0.5800   -1.1180 C   0  0  0  0  0  0  0  0  0  0  0  0
   -6.7650    0.0390    0.2390 C   0  0  0  0  0  0  0  0  0  0  0  0
   -5.6830   -0.4070    1.1520 C   0  0  0  0  0  0  0  0  0  0  0  0
   -4.0280    1.0160    0.0760 C   0  0  1  0  0  0  0  0  0  0  0  0
   -3.9430    1.9710    1.2600 C   0  0  0  0  0  0  0  0  0  0  0  0
   -2.5020    2.4340    1.2420 C   0  0  0  0  0  0  0  0  0  0  0  0
   -2.2810    2.6000   -0.2550 C   0  0  0  0  0  0  0  0  0  0  0  0
   -2.8840    1.2910   -0.7910 C   0  0  1  0  0  0  0  0  0  0  0  0
   -1.8100    0.3280   -0.8720 C   0  0  0  0  0  0  0  0  0  0  0  0
   -1.0200    0.5190   -1.8600 O   0  0  0  0  0  0  0  0  0  0  0  0
    4.4340   -0.7880   -0.4320 C   0  0  0  0  0  0  0  0  0  0  0  0
    4.6190   -0.6160   -1.8970 C   0  0  0  0  0  0  0  0  0  0  0  0
    5.5710    0.2870   -2.1380 C   0  0  0  0  0  0  0  0  0  0  0  0
    6.0620    0.7500   -3.4560 C   0  0  0  0  0  0  0  0  0  0  0  0
    6.0930    0.7610   -0.8120 C   0  0  1  0  0  0  0  0  0  0  0  0
    5.3920    2.0250   -0.4460 C   0  0  0  0  0  0  0  0  0  0  0  0
    5.7660   -0.3960    0.1180 C   0  0  1  0  0  0  0  0  0  0  0  0
    5.8430   -0.1610    1.5490 C   0  0  0  0  0  0  0  0  0  0  0  0
  1  2  1  0
  2  3  2  0
  2 32  1  0
  3  4  1  0
  4  5  1  0
  4 25  2  0
  5  6  1  0
  6  7  1  0
  7  8  1  0
  8  9  1  0
  8 23  1  0
  9 10  2  0
  9 11  1  0
 12 11  1  1
 12 13  1  0
 12 17  1  0
 12 18  1  0
 13 14  1  0
 14 15  1  0
 15 16  1  0
 16 17  1  0
 18 19  1  1
 18 22  1  0
 19 20  1  0
 20 21  1  0
 22 21  1  1
 22 23  1  0
 23 24  2  0
 25 26  1  0
 25 31  1  0
 26 27  2  0
 27 28  1  0
 27 29  1  0
 29 30  1  1
 29 31  1  0
 31 32  1  1
M  END
