
     RDKit          3D

 32 36  0  0  0  0  0  0  0  0999 V2000
    8.2850   -0.0490   -1.0250 C   0  0  0  0  0  0  0  0  0  0  0  0
    6.8410   -0.4480   -1.0170 C   0  0  0  0  0  0  0  0  0  0  0  0
    6.2570   -0.9450   -2.1610 C   0  0  0  0  0  0  0  0  0  0  0  0
    4.9370   -1.3210   -2.1810 C   0  0  0  0  0  0  0  0  0  0  0  0
    4.1280   -1.2180   -1.0470 C   0  0  0  0  0  0  0  0  0  0  0  0
    2.7390   -1.6190   -1.0960 C   0  0  0  0  0  0  0  0  0  0  0  0
    1.7310   -1.0460   -0.5300 C   0  0  0  0  0  0  0  0  0  0  0  0
    1.7890    0.1900    0.3210 C   0  0  0  0  0  0  0  0  0  0  0  0
    0.4760    0.8310    0.0470 C   0  0  0  0  0  0  0  0  0  0  0  0
    0.1560    1.9140    0.4680 O   0  0  0  0  0  0  0  0  0  0  0  0
   -0.3140   -0.0710   -0.7980 C   0  0  2  0  0  0  0  0  0  0  0  0
   -1.7310    0.1370   -0.8220 C   0  0  1  0  0  0  0  0  0  0  0  0
   -1.9210    1.5160   -1.1410 O   0  0  0  0  0  0  0  0  0  0  0  0
   -2.4170   -0.4970   -2.0670 C   0  0  0  0  0  0  0  0  0  0  0  0
   -3.7510    0.2520   -1.9020 C   0  0  0  0  0  0  0  0  0  0  0  0
   -4.0010    0.2470   -0.3810 C   0  0  2  0  0  0  0  0  0  0  0  0
   -5.2110   -0.5800   -0.1680 C   0  0  1  0  0  0  0  0  0  0  0  0
   -5.7160   -0.6510    1.2410 C   0  0  0  0  0  0  0  0  0  0  0  0
   -6.0880    0.7190    1.7280 C   0  0  0  0  0  0  0  0  0  0  0  0
   -5.1610    1.8070    1.2830 C   0  0  0  0  0  0  0  0  0  0  0  0
   -4.5040    1.5940   -0.0400 C   0  0  2  0  0  0  0  0  0  0  0  0
   -5.6920    1.6570   -1.0290 C   0  0  0  0  0  0  0  0  0  0  0  0
   -6.2560    0.2790   -0.9190 C   0  0  0  0  0  0  0  0  0  0  0  0
   -2.7070   -0.2200    0.1980 C   0  0  1  0  0  0  0  0  0  0  0  0
   -2.7030   -1.7080    0.4890 C   0  0  0  0  0  0  0  0  0  0  0  0
   -2.3740    0.4840    1.5030 C   0  0  0  0  0  0  0  0  0  0  0  0
    0.2590   -1.4220   -0.5630 C   0  0  0  0  0  0  0  0  0  0  0  0
    4.7260   -0.7210    0.0860 C   0  0  0  0  0  0  0  0  0  0  0  0
    6.0700   -0.3360    0.1130 C   0  0  0  0  0  0  0  0  0  0  0  0
    6.6090    0.1720    1.3180 N   0  0  0  0  0  0  0  0  0  0  0  0
    7.1030    1.5300    1.3660 C   0  0  0  0  0  0  0  0  0  0  0  0
    6.6610   -0.6720    2.4840 C   0  0  0  0  0  0  0  0  0  0  0  0
  1  2  1  0
  2  3  2  0
  2 29  1  0
  3  4  1  0
  4  5  2  0
  5  6  1  0
  5 28  1  0
  6  7  2  3
  7  8  1  0
  7 27  1  0
  8  9  1  0
  9 10  2  0
  9 11  1  0
 11 12  1  0
 11 27  1  1
 12 13  1  6
 12 14  1  0
 12 24  1  0
 14 15  1  0
 16 15  1  6
 16 17  1  0
 16 21  1  0
 16 24  1  0
 17 18  1  1
 17 23  1  0
 18 19  1  0
 19 20  1  0
 21 20  1  1
 21 22  1  0
 22 23  1  0
 24 25  1  1
 24 26  1  0
 28 29  2  0
 29 30  1  0
 30 31  1  0
 30 32  1  0
M  END
