
     RDKit          3D

 32 36  0  0  0  0  0  0  0  0999 V2000
    5.2220   -2.8470   -1.4990 C   0  0  0  0  0  0  0  0  0  0  0  0
    4.9820   -1.3470   -1.5950 C   0  0  0  0  0  0  0  0  0  0  0  0
    3.5300   -1.0020   -1.3430 C   0  0  0  0  0  0  0  0  0  0  0  0
    3.0710   -1.4320    0.0170 C   0  0  0  0  0  0  0  0  0  0  0  0
    1.6150   -1.0430    0.1690 C   0  0  1  0  0  0  0  0  0  0  0  0
    1.0710   -1.4440    1.5220 C   0  0  0  0  0  0  0  0  0  0  0  0
   -0.0590   -2.4380    1.4280 C   0  0  1  0  0  0  0  0  0  0  0  0
    0.5290   -3.8200    1.7230 C   0  0  0  0  0  0  0  0  0  0  0  0
   -1.0650   -2.2230    2.3780 O   0  0  0  0  0  0  0  0  0  0  0  0
   -2.1670   -1.4580    2.2910 C   0  0  0  0  0  0  0  0  0  0  0  0
   -2.5320   -0.6830    3.1960 O   0  0  0  0  0  0  0  0  0  0  0  0
   -3.0220   -1.4980    1.0870 C   0  0  1  0  0  0  0  0  0  0  0  0
   -4.2100   -2.3870    1.4270 C   0  0  0  0  0  0  0  0  0  0  0  0
   -5.3990   -1.4610    1.5280 C   0  0  0  0  0  0  0  0  0  0  0  0
   -4.9700   -0.2440    0.7450 C   0  0  0  0  0  0  0  0  0  0  0  0
   -3.5440   -0.2010    0.7380 N   0  0  0  0  0  0  0  0  0  0  0  0
   -3.0880    0.1820   -0.5600 C   0  0  1  0  0  0  0  0  0  0  0  0
   -3.8150    1.3210   -1.1900 C   0  0  0  0  0  0  0  0  0  0  0  0
   -2.8920    1.9880   -2.1880 C   0  0  0  0  0  0  0  0  0  0  0  0
   -1.9970    1.0070   -2.9060 C   0  0  0  0  0  0  0  0  0  0  0  0
   -1.1080    0.2340   -1.9570 C   0  0  1  0  0  0  0  0  0  0  0  0
    0.3470    0.5050   -2.1370 C   0  0  0  0  0  0  0  0  0  0  0  0
    0.9820    1.1380   -0.9530 C   0  0  0  0  0  0  0  0  0  0  0  0
    0.9970    2.5240   -0.8970 C   0  0  0  0  0  0  0  0  0  0  0  0
    1.5540    3.2210    0.1430 C   0  0  0  0  0  0  0  0  0  0  0  0
    2.1280    2.5230    1.1860 C   0  0  0  0  0  0  0  0  0  0  0  0
    2.1150    1.1460    1.1350 C   0  0  0  0  0  0  0  0  0  0  0  0
    1.5520    0.4390    0.0840 C   0  0  0  0  0  0  0  0  0  0  0  0
    2.6620    3.4860    2.1910 C   0  0  0  0  0  0  0  0  0  0  0  0
    2.8490    4.7620    1.3750 C   0  0  0  0  0  0  0  0  0  0  0  0
    1.6860    4.6720    0.4160 C   0  0  0  0  0  0  0  0  0  0  0  0
   -1.6060    0.5320   -0.5590 C   0  0  0  0  0  0  0  0  0  0  0  0
  1  2  1  0
  2  3  1  0
  3  4  1  0
  5  4  1  1
  5  6  1  0
  5 28  1  0
  6  7  1  0
  7  8  1  1
  7  9  1  0
  9 10  1  0
 10 11  2  0
 10 12  1  0
 12 13  1  1
 12 16  1  0
 13 14  1  0
 14 15  1  0
 15 16  1  0
 16 17  1  0
 17 18  1  1
 17 32  1  0
 18 19  1  0
 19 20  1  0
 21 20  1  6
 21 22  1  0
 21 32  1  0
 22 23  1  0
 23 24  2  0
 23 28  1  0
 24 25  1  0
 25 26  2  0
 25 31  1  0
 26 27  1  0
 26 29  1  0
 27 28  2  0
 29 30  1  0
 30 31  1  0
M  END
