
     RDKit          3D

 32 36  0  0  0  0  0  0  0  0999 V2000
    7.4370    1.6540    0.5960 C   0  0  0  0  0  0  0  0  0  0  0  0
    6.5210    0.5440    0.1560 C   0  0  1  0  0  0  0  0  0  0  0  0
    7.1090   -0.7670    0.6490 C   0  0  0  0  0  0  0  0  0  0  0  0
    6.2310   -1.9240    0.2690 C   0  0  0  0  0  0  0  0  0  0  0  0
    5.0400   -1.4570   -0.5370 C   0  0  0  0  0  0  0  0  0  0  0  0
    4.2400   -0.3920    0.1940 C   0  0  2  0  0  0  0  0  0  0  0  0
    3.2890    0.0750   -0.7270 O   0  0  0  0  0  0  0  0  0  0  0  0
    1.9800   -0.2190   -0.2990 C   0  0  2  0  0  0  0  0  0  0  0  0
    1.3220   -1.1270   -1.2730 C   0  0  0  0  0  0  0  0  0  0  0  0
    0.6870   -2.3640   -0.6280 C   0  0  0  0  0  0  0  0  0  0  0  0
   -0.6090   -2.6930   -1.3610 C   0  0  0  0  0  0  0  0  0  0  0  0
   -1.6340   -3.3030   -0.4900 C   0  0  0  0  0  0  0  0  0  0  0  0
   -1.2810   -4.4230    0.0330 O   0  0  0  0  0  0  0  0  0  0  0  0
   -2.9120   -2.8120   -0.1800 N   0  0  0  0  0  0  0  0  0  0  0  0
   -3.2850   -1.5770    0.4530 C   0  0  1  0  0  0  0  0  0  0  0  0
   -2.4330   -1.1480    1.5940 C   0  0  0  0  0  0  0  0  0  0  0  0
   -3.5070   -0.4660   -0.5870 C   0  0  1  0  0  0  0  0  0  0  0  0
   -4.7550   -0.9200   -1.3620 C   0  0  0  0  0  0  0  0  0  0  0  0
   -5.6530    0.2590   -1.6380 C   0  0  0  0  0  0  0  0  0  0  0  0
   -6.2460    0.8640   -0.3990 C   0  0  0  0  0  0  0  0  0  0  0  0
   -5.2270    0.8200    0.7120 C   0  0  2  0  0  0  0  0  0  0  0  0
   -5.3500    2.1390    1.4520 C   0  0  0  0  0  0  0  0  0  0  0  0
   -4.0670    2.7940    1.1130 C   0  0  0  0  0  0  0  0  0  0  0  0
   -3.3450    3.9100    1.2740 C   0  0  0  0  0  0  0  0  0  0  0  0
   -2.0720    3.7410    0.5560 C   0  0  0  0  0  0  0  0  0  0  0  0
   -2.0790    2.5110   -0.0160 C   0  0  0  0  0  0  0  0  0  0  0  0
   -0.9510    1.9740   -0.8350 C   0  0  0  0  0  0  0  0  0  0  0  0
   -0.2050    0.9720    0.0200 C   0  0  0  0  0  0  0  0  0  0  0  0
    1.2880    1.1140   -0.1400 C   0  0  0  0  0  0  0  0  0  0  0  0
   -3.2950    1.8680    0.2920 C   0  0  0  0  0  0  0  0  0  0  0  0
   -3.8790    0.7710    0.1070 C   0  0  0  0  0  0  0  0  0  0  0  0
    5.1150    0.7240    0.6910 C   0  0  0  0  0  0  0  0  0  0  0  0
  2  1  1  1
  2  3  1  0
  2 32  1  0
  3  4  1  0
  4  5  1  0
  5  6  1  0
  6  7  1  6
  6 32  1  0
  8  7  1  6
  8  9  1  0
  8 29  1  0
  9 10  1  0
 10 11  1  0
 11 12  1  0
 12 13  2  0
 12 14  1  0
 14 15  1  0
 15 16  1  1
 15 17  1  0
 17 18  1  6
 17 31  1  0
 18 19  1  0
 19 20  1  0
 21 20  1  6
 21 22  1  0
 21 31  1  0
 22 23  1  0
 23 24  2  0
 23 30  1  0
 24 25  1  0
 25 26  2  0
 26 27  1  0
 26 30  1  0
 27 28  1  0
 28 29  1  0
 30 31  2  0
M  END
