
     RDKit          3D

 32 35  0  0  0  0  0  0  0  0999 V2000
   -3.9460   -1.2300    0.7210 C   0  0  0  0  0  0  0  0  0  0  0  0
   -4.3160   -0.1490    0.1020 C   0  0  0  0  0  0  0  0  0  0  0  0
   -5.4280    0.6610    0.5930 C   0  0  0  0  0  0  0  0  0  0  0  0
   -6.4550    0.1380    1.2020 C   0  0  0  0  0  0  0  0  0  0  0  0
   -6.6640   -1.2890    1.4770 C   0  0  0  0  0  0  0  0  0  0  0  0
   -5.3990    2.1540    0.3840 C   0  0  0  0  0  0  0  0  0  0  0  0
   -3.9910    2.5260   -0.0250 C   0  0  0  0  0  0  0  0  0  0  0  0
   -3.5730    1.7640   -1.2690 C   0  0  2  0  0  0  0  0  0  0  0  0
   -4.5720    2.1230   -2.3500 C   0  0  0  0  0  0  0  0  0  0  0  0
   -5.2940    0.8410   -2.6920 C   0  0  0  0  0  0  0  0  0  0  0  0
   -4.2930   -0.2320   -2.3170 C   0  0  0  0  0  0  0  0  0  0  0  0
   -3.5510    0.2900   -1.1100 C   0  0  2  0  0  0  0  0  0  0  0  0
   -2.1750   -0.2760   -1.1080 C   0  0  0  0  0  0  0  0  0  0  0  0
   -1.7990   -0.9290   -2.0310 O   0  0  0  0  0  0  0  0  0  0  0  0
   -1.2280   -0.0510    0.0310 C   0  0  0  0  0  0  0  0  0  0  0  0
    0.1140   -0.7050   -0.1770 C   0  0  1  0  0  0  0  0  0  0  0  0
    0.0240   -2.1770   -0.3890 C   0  0  0  0  0  0  0  0  0  0  0  0
    0.8430   -3.0130    0.5300 C   0  0  0  0  0  0  0  0  0  0  0  0
    2.0230   -2.2620    1.1460 C   0  0  0  0  0  0  0  0  0  0  0  0
    2.7140   -1.4240    0.2480 N   0  0  0  0  0  0  0  0  0  0  0  0
    3.3830   -2.0900   -0.8200 C   0  0  0  0  0  0  0  0  0  0  0  0
    3.0120   -0.0990    0.5280 C   0  0  1  0  0  0  0  0  0  0  0  0
    2.9550    0.2930    1.9900 C   0  0  0  0  0  0  0  0  0  0  0  0
    3.3100    1.7290    2.2540 C   0  0  0  0  0  0  0  0  0  0  0  0
    4.4780    0.1570    0.1430 C   0  0  2  0  0  0  0  0  0  0  0  0
    5.3990   -0.6700    1.0310 C   0  0  0  0  0  0  0  0  0  0  0  0
    6.6690   -0.8700    0.2360 C   0  0  0  0  0  0  0  0  0  0  0  0
    6.9170    0.4830   -0.4410 C   0  0  0  0  0  0  0  0  0  0  0  0
    6.2180    1.5980    0.2940 C   0  0  0  0  0  0  0  0  0  0  0  0
    4.8490    1.4880    0.3510 O   0  0  0  0  0  0  0  0  0  0  0  0
    2.1570    0.7840   -0.3410 C   0  0  0  0  0  0  0  0  0  0  0  0
    1.0360    0.0380   -1.0630 C   0  0  0  0  0  0  0  0  0  0  0  0
  1  2  2  0
  2  3  1  0
  2 12  1  0
  3  4  2  3
  3  6  1  0
  4  5  1  0
  6  7  1  0
  8  7  1  1
  8  9  1  0
  8 12  1  0
  9 10  1  0
 10 11  1  0
 11 12  1  0
 12 13  1  1
 13 14  2  0
 13 15  1  0
 16 15  1  6
 16 17  1  0
 16 32  1  0
 17 18  1  0
 18 19  1  0
 19 20  1  0
 20 21  1  0
 20 22  1  0
 22 23  1  1
 22 25  1  0
 22 31  1  0
 23 24  1  0
 25 26  1  1
 25 30  1  0
 26 27  1  0
 27 28  1  0
 28 29  1  0
 29 30  1  0
 31 32  1  0
M  END
