
     RDKit          3D

 32 35  0  0  0  0  0  0  0  0999 V2000
   -2.7610    4.2470    1.8940 C   0  0  0  0  0  0  0  0  0  0  0  0
   -3.6190    3.7570    0.7430 C   0  0  0  0  0  0  0  0  0  0  0  0
   -3.1660    2.3850    0.3380 C   0  0  0  0  0  0  0  0  0  0  0  0
   -3.7110    1.2680    0.9150 C   0  0  0  0  0  0  0  0  0  0  0  0
   -3.3120   -0.0420    0.5620 C   0  0  0  0  0  0  0  0  0  0  0  0
   -3.9810   -1.1240    1.2740 C   0  0  0  0  0  0  0  0  0  0  0  0
   -2.3450   -0.2120   -0.3920 C   0  0  0  0  0  0  0  0  0  0  0  0
   -1.7800    0.9320   -0.9900 C   0  0  0  0  0  0  0  0  0  0  0  0
   -2.1960    2.2220   -0.6190 C   0  0  0  0  0  0  0  0  0  0  0  0
   -0.7470    0.9340   -2.0290 C   0  0  2  0  0  0  0  0  0  0  0  0
   -0.1760   -0.4250   -2.2140 C   0  0  0  0  0  0  0  0  0  0  0  0
   -1.2740   -1.4090   -2.1640 C   0  0  0  0  0  0  0  0  0  0  0  0
   -1.9070   -1.5720   -0.7650 C   0  0  2  0  0  0  0  0  0  0  0  0
   -2.9830   -2.5890   -1.0220 C   0  0  0  0  0  0  0  0  0  0  0  0
   -3.9200   -2.1510   -2.1410 C   0  0  0  0  0  0  0  0  0  0  0  0
   -0.7870   -2.0630    0.0950 C   0  0  0  0  0  0  0  0  0  0  0  0
   -0.1830   -3.3410   -0.3100 C   0  0  0  0  0  0  0  0  0  0  0  0
    1.3330   -3.3690   -0.2360 C   0  0  0  0  0  0  0  0  0  0  0  0
    1.8920   -3.2710    1.1130 C   0  0  0  0  0  0  0  0  0  0  0  0
    1.4960   -3.9900    2.0140 O   0  0  0  0  0  0  0  0  0  0  0  0
    2.9910   -2.2760    1.4690 C   0  0  0  0  0  0  0  0  0  0  0  0
    2.5420   -0.8950    1.1220 C   0  0  0  0  0  0  0  0  0  0  0  0
    3.4870    0.2190    1.3640 C   0  0  1  0  0  0  0  0  0  0  0  0
    4.9380   -0.1570    1.1440 C   0  0  0  0  0  0  0  0  0  0  0  0
    5.7930    1.0670    1.0770 C   0  0  0  0  0  0  0  0  0  0  0  0
    5.3350    2.2900    1.0090 C   0  0  0  0  0  0  0  0  0  0  0  0
    3.8740    2.5940    0.9900 C   0  0  0  0  0  0  0  0  0  0  0  0
    3.1900    1.3730    0.4130 C   0  0  2  0  0  0  0  0  0  0  0  0
    1.7190    1.5830    0.1600 C   0  0  0  0  0  0  0  0  0  0  0  0
    1.5020    1.9470   -1.2220 N   0  0  0  0  0  0  0  0  0  0  0  0
    0.2740    1.9910   -1.9220 C   0  0  0  0  0  0  0  0  0  0  0  0
    0.0120    3.0660   -2.5390 O   0  0  0  0  0  0  0  0  0  0  0  0
  1  2  1  0
  2  3  1  0
  3  4  2  0
  3  9  1  0
  4  5  1  0
  5  6  1  0
  5  7  2  0
  7  8  1  0
  7 13  1  0
  8  9  2  0
  8 10  1  0
 10 11  1  1
 10 31  1  0
 11 12  1  0
 12 13  1  0
 13 14  1  6
 13 16  1  0
 14 15  1  0
 16 17  1  0
 17 18  1  0
 18 19  1  0
 19 20  2  0
 19 21  1  0
 21 22  1  0
 23 22  1  6
 23 24  1  0
 23 28  1  0
 24 25  1  0
 25 26  2  0
 26 27  1  0
 28 27  1  1
 28 29  1  0
 29 30  1  0
 30 31  1  0
 31 32  2  0
M  END
