
     RDKit          3D

 32 35  0  0  0  0  0  0  0  0999 V2000
   -3.0240   -3.9570    1.1480 C   0  0  0  0  0  0  0  0  0  0  0  0
   -2.7630   -2.5010    1.1710 C   0  0  0  0  0  0  0  0  0  0  0  0
   -2.2580   -1.8540   -0.0730 C   0  0  2  0  0  0  0  0  0  0  0  0
   -3.3340   -2.0980   -1.1180 C   0  0  0  0  0  0  0  0  0  0  0  0
   -0.9730   -2.3090   -0.6140 C   0  0  0  0  0  0  0  0  0  0  0  0
    0.0140   -3.1030    0.0770 C   0  0  1  0  0  0  0  0  0  0  0  0
    1.0860   -3.4680   -0.9700 C   0  0  0  0  0  0  0  0  0  0  0  0
    2.4140   -2.9000   -0.7790 C   0  0  0  0  0  0  0  0  0  0  0  0
    2.5890   -1.6840    0.0860 C   0  0  2  0  0  0  0  0  0  0  0  0
    1.8570   -1.8730    1.3430 C   0  0  0  0  0  0  0  0  0  0  0  0
    0.7160   -2.8320    1.3060 C   0  0  0  0  0  0  0  0  0  0  0  0
    2.4480   -0.4020   -0.6670 C   0  0  0  0  0  0  0  0  0  0  0  0
    2.6740    0.8450    0.0670 C   0  0  0  0  0  0  0  0  0  0  0  0
    4.0190    0.6730    0.3150 C   0  0  0  0  0  0  0  0  0  0  0  0
    5.0720    1.4690    1.0160 C   0  0  0  0  0  0  0  0  0  0  0  0
    5.5930    2.4850    0.0420 C   0  0  0  0  0  0  0  0  0  0  0  0
    4.7390    3.6440   -0.1880 C   0  0  0  0  0  0  0  0  0  0  0  0
    3.4630    4.0030   -0.1180 C   0  0  0  0  0  0  0  0  0  0  0  0
    2.2380    3.2950    0.2680 C   0  0  0  0  0  0  0  0  0  0  0  0
    1.8060    1.9790    0.3800 C   0  0  0  0  0  0  0  0  0  0  0  0
    0.4750    2.1480    0.8490 C   0  0  0  0  0  0  0  0  0  0  0  0
   -0.6360    1.4840    1.0360 C   0  0  0  0  0  0  0  0  0  0  0  0
   -0.9690    0.0860    0.7910 C   0  0  0  0  0  0  0  0  0  0  0  0
   -2.2530   -0.2880    0.1880 C   0  0  2  0  0  0  0  0  0  0  0  0
   -3.2340   -0.1000    1.1530 O   0  0  0  0  0  0  0  0  0  0  0  0
   -2.6410    0.4350   -1.0250 C   0  0  0  0  0  0  0  0  0  0  0  0
   -2.8790    1.8470   -0.9560 N   0  0  0  0  0  0  0  0  0  0  0  0
   -2.0400    3.0080   -1.2130 C   0  0  0  0  0  0  0  0  0  0  0  0
   -2.9880    3.9030   -2.0500 C   0  0  0  0  0  0  0  0  0  0  0  0
   -4.1960    3.8680   -1.1240 C   0  0  0  0  0  0  0  0  0  0  0  0
   -4.1560    2.4440   -0.6360 C   0  0  0  0  0  0  0  0  0  0  0  0
   -5.1410    1.9410   -0.0480 O   0  0  0  0  0  0  0  0  0  0  0  0
  1  2  1  0
  2  3  1  0
  3  4  1  6
  3  5  1  0
  3 24  1  0
  6  5  1  6
  6  7  1  0
  6 11  1  0
  7  8  1  0
  8  9  1  0
  9 10  1  1
  9 12  1  0
 10 11  1  0
 12 13  1  0
 13 14  2  0
 13 20  1  0
 14 15  1  0
 15 16  1  0
 16 17  1  0
 17 18  2  0
 18 19  1  0
 19 20  2  0
 20 21  1  0
 21 22  2  0
 22 23  1  0
 23 24  1  0
 24 25  1  1
 24 26  1  0
 26 27  1  0
 27 28  1  0
 27 31  1  0
 28 29  1  0
 29 30  1  0
 30 31  1  0
 31 32  2  0
M  END
