
     RDKit          3D

 33 36  0  0  0  0  0  0  0  0999 V2000
   -3.5370   -2.5200    3.9090 C   0  0  0  0  0  0  0  0  0  0  0  0
   -2.3650   -1.8840    3.2210 C   0  0  0  0  0  0  0  0  0  0  0  0
   -1.3750   -1.6470    3.9480 O   0  0  0  0  0  0  0  0  0  0  0  0
   -2.4760   -1.6130    1.8480 N   0  0  0  0  0  0  0  0  0  0  0  0
   -1.4500   -1.0210    1.1050 C   0  0  0  0  0  0  0  0  0  0  0  0
   -0.2100   -0.6520    1.5940 C   0  0  0  0  0  0  0  0  0  0  0  0
    0.7640   -0.0660    0.7740 C   0  0  0  0  0  0  0  0  0  0  0  0
    1.9850    0.3310    1.3470 N   0  0  0  0  0  0  0  0  0  0  0  0
    3.2130    0.5060    0.6450 C   0  0  0  0  0  0  0  0  0  0  0  0
    4.2890    0.9930    1.3420 C   0  0  0  0  0  0  0  0  0  0  0  0
    5.5610    1.1680    0.7420 C   0  0  0  0  0  0  0  0  0  0  0  0
    6.5780    1.6710    1.5470 N   0  0  0  0  0  0  0  0  0  0  0  0
    7.9110    1.9780    1.2520 C   0  0  1  0  0  0  0  0  0  0  0  0
    8.7170    0.8320    0.6950 C   0  0  0  0  0  0  0  0  0  0  0  0
    8.5880    1.9730   -0.0310 C   0  0  0  0  0  0  0  0  0  0  0  0
    5.6810    0.8360   -0.5540 N   0  0  0  0  0  0  0  0  0  0  0  0
    6.7100    0.8710   -1.3810 N   0  0  0  0  0  0  0  0  0  0  0  0
    6.3820    0.4340   -2.5890 C   0  0  0  0  0  0  0  0  0  0  0  0
    5.0450    0.1010   -2.5140 C   0  0  0  0  0  0  0  0  0  0  0  0
    4.2250   -0.4430   -3.5820 C   0  0  0  0  0  0  0  0  0  0  0  0
    3.5600   -0.8750   -4.4130 N   0  0  0  0  0  0  0  0  0  0  0  0
    4.6050    0.3550   -1.2330 C   0  0  0  0  0  0  0  0  0  0  0  0
    3.4010    0.1980   -0.6370 N   0  0  0  0  0  0  0  0  0  0  0  0
    0.4990    0.1510   -0.5370 C   0  0  0  0  0  0  0  0  0  0  0  0
   -0.7400   -0.2170   -1.0240 C   0  0  0  0  0  0  0  0  0  0  0  0
   -1.7200   -0.7930   -0.2500 C   0  0  0  0  0  0  0  0  0  0  0  0
   -2.9850   -1.1610   -0.7620 N   0  0  0  0  0  0  0  0  0  0  0  0
   -3.0240   -2.3060   -1.6810 C   0  0  0  0  0  0  0  0  0  0  0  0
   -4.2120   -0.4810   -0.4380 C   0  0  0  0  0  0  0  0  0  0  0  0
   -4.8060    0.2990   -1.5860 C   0  0  0  0  0  0  0  0  0  0  0  0
   -6.0270    0.9170   -1.1060 N   0  0  2  0  0  0  0  0  0  0  0  0
   -6.5690    1.8440   -2.0970 C   0  0  0  0  0  0  0  0  0  0  0  0
   -5.8070    1.5890    0.1600 C   0  0  0  0  0  0  0  0  0  0  0  0
  1  2  1  0
  2  3  2  0
  2  4  1  0
  4  5  1  0
  5  6  2  0
  5 26  1  0
  6  7  1  0
  7  8  1  0
  7 24  2  0
  8  9  1  0
  9 10  1  0
  9 23  2  0
 10 11  2  0
 11 12  1  0
 11 16  1  0
 13 12  1  6
 13 14  1  0
 13 15  1  0
 14 15  2  0
 16 17  1  0
 16 22  1  0
 17 18  2  0
 18 19  1  0
 19 20  1  0
 19 22  2  0
 20 21  3  0
 22 23  1  0
 24 25  1  0
 25 26  2  0
 26 27  1  0
 27 28  1  0
 27 29  1  0
 29 30  1  0
 30 31  1  0
 31 32  1  6
 31 33  1  0
M  CHG  1  31   1
M  END
