
     RDKit          3D

 39 43  0  0  0  0  0  0  0  0999 V2000
   -0.3000   -5.0770   -1.3100 C   0  0  0  0  0  0  0  0  0  0  0  0
    0.6600   -4.7620   -0.3200 O   0  0  0  0  0  0  0  0  0  0  0  0
    0.9260   -3.2960   -0.2740 C   0  0  0  0  0  0  0  0  0  0  0  0
   -0.0900   -2.6190    0.4480 C   0  0  0  0  0  0  0  0  0  0  0  0
   -1.0280   -3.4510    0.9070 O   0  0  0  0  0  0  0  0  0  0  0  0
   -0.3680   -1.3100    0.8120 N   0  0  0  0  0  0  0  0  0  0  0  0
    0.4350   -0.1810    0.4150 C   0  0  0  0  0  0  0  0  0  0  0  0
   -0.2840    1.1060    0.9440 C   0  0  0  0  0  0  0  0  0  0  0  0
   -1.6920    0.9720    0.3190 C   0  0  0  0  0  0  0  0  0  0  0  0
   -2.4510    0.0080    1.1410 C   0  0  1  0  0  0  0  0  0  0  0  0
   -2.9590    0.6630    2.3010 O   0  0  0  0  0  0  0  0  0  0  0  0
   -3.5760   -0.7170    0.4420 C   0  0  0  0  0  0  0  0  0  0  0  0
   -4.6180    0.1480    0.1090 N   0  0  0  0  0  0  0  0  0  0  0  0
   -4.5030    1.1330   -0.8760 C   0  0  0  0  0  0  0  0  0  0  0  0
   -4.9670    2.4630   -0.2460 C   0  0  0  0  0  0  0  0  0  0  0  0
   -6.4700    2.5650   -0.3230 C   0  0  0  0  0  0  0  0  0  0  0  0
   -7.1540    1.6470    0.5440 N   0  0  0  0  0  0  0  0  0  0  0  0
   -8.4740    2.0360    0.8760 C   0  0  0  0  0  0  0  0  0  0  0  0
   -9.2060    1.3390    1.6280 O   0  0  0  0  0  0  0  0  0  0  0  0
   -6.7500    0.3900    1.1510 C   0  0  0  0  0  0  0  0  0  0  0  0
   -5.9440   -0.4310    0.1590 C   0  0  0  0  0  0  0  0  0  0  0  0
   -1.5360   -1.0740    1.6750 C   0  0  0  0  0  0  0  0  0  0  0  0
    2.0030   -3.0330   -0.8940 C   0  0  0  0  0  0  0  0  0  0  0  0
    2.7340   -4.2630   -1.5080 C   0  0  0  0  0  0  0  0  0  0  0  0
    2.7180   -1.7970   -1.2090 C   0  0  0  0  0  0  0  0  0  0  0  0
    2.2820   -0.9560   -2.2780 C   0  0  0  0  0  0  0  0  0  0  0  0
    3.5400    0.3600   -2.2380 S   0  0  0  0  0  0  0  0  0  0  0  0
    4.4600   -0.4140   -0.7980 C   0  0  0  0  0  0  0  0  0  0  0  0
    5.6680    0.2440   -0.2960 C   0  0  0  0  0  0  0  0  0  0  0  0
    6.3570   -0.2790    0.7790 C   0  0  0  0  0  0  0  0  0  0  0  0
    7.4180    0.5800    0.9670 C   0  0  0  0  0  0  0  0  0  0  0  0
    7.3350    1.5710    0.0210 C   0  0  0  0  0  0  0  0  0  0  0  0
    8.2430    2.7010   -0.1690 C   0  0  0  0  0  0  0  0  0  0  0  0
    9.3540    3.0030    0.5560 C   0  0  0  0  0  0  0  0  0  0  0  0
    9.9320    4.1480    0.0590 C   0  0  0  0  0  0  0  0  0  0  0  0
    9.1160    4.5140   -0.9950 C   0  0  0  0  0  0  0  0  0  0  0  0
    8.1430    3.6460   -1.0950 O   0  0  0  0  0  0  0  0  0  0  0  0
    6.2730    1.3250   -0.7080 O   0  0  0  0  0  0  0  0  0  0  0  0
    3.7810   -1.3780   -0.6120 N   0  0  0  0  0  0  0  0  0  0  0  0
  1  2  1  0
  2  3  1  0
  3  4  1  0
  3 23  2  3
  4  5  2  0
  4  6  1  0
  6  7  1  0
  6 22  1  0
  7  8  1  0
  8  9  1  0
  9 10  1  0
 10 11  1  1
 10 12  1  0
 10 22  1  0
 12 13  1  0
 13 14  1  0
 13 21  1  0
 14 15  1  0
 15 16  1  0
 16 17  1  0
 17 18  1  0
 17 20  1  0
 18 19  2  0
 20 21  1  0
 23 24  1  0
 23 25  1  0
 25 26  2  0
 25 39  1  0
 26 27  1  0
 27 28  1  0
 28 29  1  0
 28 39  2  0
 29 30  2  0
 29 38  1  0
 30 31  1  0
 31 32  2  0
 32 33  1  0
 32 38  1  0
 33 34  2  0
 33 37  1  0
 34 35  1  0
 35 36  2  0
 36 37  1  0
M  END
