
     RDKit          3D

 39 43  0  0  0  0  0  0  0  0999 V2000
   12.6240    0.6490   -1.1620 C   0  0  0  0  0  0  0  0  0  0  0  0
   11.8630   -0.6180   -1.0360 C   0  0  0  0  0  0  0  0  0  0  0  0
   11.1550   -0.6810    0.3160 C   0  0  0  0  0  0  0  0  0  0  0  0
    9.8110   -0.0360    0.1660 C   0  0  0  0  0  0  0  0  0  0  0  0
    9.3630    0.9140   -0.6860 C   0  0  0  0  0  0  0  0  0  0  0  0
    8.0150    1.0680   -0.4630 C   0  0  0  0  0  0  0  0  0  0  0  0
    7.7070    0.1480    0.5330 C   0  0  0  0  0  0  0  0  0  0  0  0
    6.3730   -0.1310    1.0700 C   0  0  0  0  0  0  0  0  0  0  0  0
    6.1530   -1.3900    1.7020 N   0  0  0  0  0  0  0  0  0  0  0  0
    4.8880   -1.4090    1.9280 C   0  0  0  0  0  0  0  0  0  0  0  0
    4.3120   -0.2960    1.5550 C   0  0  0  0  0  0  0  0  0  0  0  0
    2.9420    0.1500    1.5970 C   0  0  0  0  0  0  0  0  0  0  0  0
    2.1090   -0.6530    0.7650 N   0  0  0  0  0  0  0  0  0  0  0  0
    0.9660   -0.5510    0.5030 C   0  0  0  0  0  0  0  0  0  0  0  0
   -0.4090   -0.4230    0.1890 C   0  0  0  0  0  0  0  0  0  0  0  0
   -1.1060   -1.5740    0.2700 O   0  0  0  0  0  0  0  0  0  0  0  0
   -0.9980    0.6040   -0.1820 C   0  0  0  0  0  0  0  0  0  0  0  0
   -1.7570    1.9380   -0.6700 C   0  0  0  0  0  0  0  0  0  0  0  0
   -2.4600    3.1310   -1.1140 C   0  0  0  0  0  0  0  0  0  0  0  0
   -3.6710    2.3310   -1.6640 N   0  0  0  0  0  0  0  0  0  0  0  0
   -4.1500    1.3150   -0.7540 C   0  0  0  0  0  0  0  0  0  0  0  0
   -3.8240    1.4170    0.4800 O   0  0  0  0  0  0  0  0  0  0  0  0
   -5.0190    0.1820   -1.2150 C   0  0  0  0  0  0  0  0  0  0  0  0
   -6.1510   -0.1320   -0.4990 N   0  0  0  0  0  0  0  0  0  0  0  0
   -5.8840   -0.3400    0.8970 C   0  0  0  0  0  0  0  0  0  0  0  0
   -7.2110   -0.8010    1.5160 C   0  0  1  0  0  0  0  0  0  0  0  0
   -8.3460    0.0160    0.9830 C   0  0  0  0  0  0  0  0  0  0  0  0
   -9.7010   -0.1220    1.0720 C   0  0  0  0  0  0  0  0  0  0  0  0
  -10.4970    0.6530    0.4400 C   0  0  0  0  0  0  0  0  0  0  0  0
  -10.0700    1.6400   -0.3730 C   0  0  0  0  0  0  0  0  0  0  0  0
   -8.2010    1.4120   -0.1590 S   0  0  0  0  0  0  0  0  0  0  0  0
   -7.4440   -2.1540    1.1150 O   0  0  0  0  0  0  0  0  0  0  0  0
   -6.6770   -2.4330    0.0220 C   0  0  0  0  0  0  0  0  0  0  0  0
   -6.6570   -1.3890   -1.0420 C   0  0  2  0  0  0  0  0  0  0  0  0
   -5.9130   -1.8260   -2.2650 C   0  0  0  0  0  0  0  0  0  0  0  0
    1.0410    0.7620    1.5490 C   0  0  0  0  0  0  0  0  0  0  0  0
    2.1410    0.9930    2.0180 O   0  0  0  0  0  0  0  0  0  0  0  0
    5.2860    0.4840    1.0350 O   0  0  0  0  0  0  0  0  0  0  0  0
    8.7830   -0.4470    0.8940 O   0  0  0  0  0  0  0  0  0  0  0  0
  1  2  1  0
  2  3  1  0
  3  4  1  0
  4  5  2  0
  4 39  1  0
  5  6  1  0
  6  7  2  0
  7  8  1  0
  7 39  1  0
  8  9  2  0
  8 38  1  0
  9 10  1  0
 10 11  2  0
 11 12  1  0
 11 38  1  0
 12 13  2  0
 12 37  1  0
 13 14  1  0
 14 15  1  0
 14 36  2  0
 15 16  2  0
 15 17  1  0
 17 18  3  0
 18 19  1  0
 19 20  1  0
 20 21  1  0
 21 22  2  0
 21 23  1  0
 23 24  1  0
 24 25  1  0
 24 34  1  0
 25 26  1  0
 26 27  1  6
 26 32  1  0
 27 28  2  0
 27 31  1  0
 28 29  1  0
 29 30  2  0
 30 31  1  0
 32 33  1  0
 33 34  1  0
 34 35  1  6
 36 37  1  0
M  END
