
     RDKit          3D

 39 43  0  0  0  0  0  0  0  0999 V2000
    3.1100   -3.9090    2.0040 C   0  0  0  0  0  0  0  0  0  0  0  0
    3.0380   -2.5640    1.6000 O   0  0  0  0  0  0  0  0  0  0  0  0
    1.8540   -1.8790    1.4230 C   0  0  0  0  0  0  0  0  0  0  0  0
    0.7880   -2.5350    1.6480 O   0  0  0  0  0  0  0  0  0  0  0  0
    1.8230   -0.4990    1.0000 C   0  0  0  0  0  0  0  0  0  0  0  0
    0.6160    0.0950    0.6880 C   0  0  0  0  0  0  0  0  0  0  0  0
   -0.9050   -0.7270    0.9200 S   0  0  1  0  0  0  0  0  0  0  0  0
   -1.0040   -1.9900    0.0730 O   0  0  0  0  0  0  0  0  0  0  0  0
   -1.1850   -1.0970    2.3360 O   0  0  0  0  0  0  0  0  0  0  0  0
   -2.2070    0.2740    0.2930 N   0  0  0  0  0  0  0  0  0  0  0  0
   -1.9890    0.4220   -1.1060 C   0  0  0  0  0  0  0  0  0  0  0  0
   -3.4750   -0.2010    0.6610 C   0  0  0  0  0  0  0  0  0  0  0  0
   -4.1290   -1.0240   -0.4060 C   0  0  0  0  0  0  0  0  0  0  0  0
   -5.4410   -1.5670    0.1150 C   0  0  0  0  0  0  0  0  0  0  0  0
   -6.3490   -0.4370    0.4960 C   0  0  2  0  0  0  0  0  0  0  0  0
   -7.6540   -1.0960    0.9940 C   0  0  0  0  0  0  0  0  0  0  0  0
   -8.6750   -0.7300   -0.0890 C   0  0  0  0  0  0  0  0  0  0  0  0
   -8.1850    0.6610   -0.4000 C   0  0  0  0  0  0  0  0  0  0  0  0
   -8.3540    1.9180   -0.5490 C   0  0  0  0  0  0  0  0  0  0  0  0
   -7.0930    2.5760   -0.9080 C   0  0  0  0  0  0  0  0  0  0  0  0
   -6.1540    1.6400   -0.9760 C   0  0  0  0  0  0  0  0  0  0  0  0
   -6.7110    0.3590   -0.6950 C   0  0  1  0  0  0  0  0  0  0  0  0
    0.6250    1.4000    0.1800 C   0  0  0  0  0  0  0  0  0  0  0  0
    1.7870    2.0860   -0.0100 C   0  0  0  0  0  0  0  0  0  0  0  0
    1.7580    3.2560   -0.4710 O   0  0  0  0  0  0  0  0  0  0  0  0
    2.9760    1.4750    0.3100 N   0  0  0  0  0  0  0  0  0  0  0  0
    4.1490    2.2900    0.1290 C   0  0  0  0  0  0  0  0  0  0  0  0
    3.0240    0.2280    0.8000 C   0  0  0  0  0  0  0  0  0  0  0  0
    4.1970   -0.3610    1.2660 N   0  0  0  0  0  0  0  0  0  0  0  0
    5.5120   -0.0240    0.8450 C   0  0  0  0  0  0  0  0  0  0  0  0
    5.7480    0.0410   -0.4280 N   0  0  0  0  0  0  0  0  0  0  0  0
    6.9580    0.3510   -1.0500 C   0  0  0  0  0  0  0  0  0  0  0  0
    7.1340    0.4010   -2.4180 C   0  0  0  0  0  0  0  0  0  0  0  0
    8.3570    0.7140   -2.9520 C   0  0  0  0  0  0  0  0  0  0  0  0
    9.4250    0.9830   -2.1230 C   0  0  0  0  0  0  0  0  0  0  0  0
    9.2580    0.9360   -0.7610 C   0  0  0  0  0  0  0  0  0  0  0  0
    8.0470    0.6250   -0.2120 C   0  0  0  0  0  0  0  0  0  0  0  0
    7.8300    0.5650    1.1390 O   0  0  0  0  0  0  0  0  0  0  0  0
    6.6420    0.2120    1.7730 C   0  0  0  0  0  0  0  0  0  0  0  0
  1  2  1  0
  2  3  1  0
  3  4  2  0
  3  5  1  0
  5  6  1  0
  5 28  2  0
  6  7  1  0
  6 23  2  0
  7  8  2  0
  7  9  2  0
  7 10  1  6
 10 11  1  0
 10 12  1  0
 12 13  1  0
 13 14  1  0
 15 14  1  6
 15 16  1  0
 15 22  1  0
 16 17  1  0
 17 18  1  0
 18 19  2  0
 18 22  1  0
 19 20  1  0
 20 21  2  0
 22 21  1  1
 23 24  1  0
 24 25  2  0
 24 26  1  0
 26 27  1  0
 26 28  1  0
 28 29  1  0
 29 30  1  0
 30 31  2  0
 30 39  1  0
 31 32  1  0
 32 33  2  0
 32 37  1  0
 33 34  1  0
 34 35  2  0
 35 36  1  0
 36 37  2  0
 37 38  1  0
 38 39  1  0
M  END
