
     RDKit          3D

 45 50  0  0  0  0  0  0  0  0999 V2000
    1.6120   -1.6930    2.4540 O   0  0  0  0  0  0  0  0  0  0  0  0
    1.8740   -3.0600    2.4450 C   0  0  0  0  0  0  0  0  0  0  0  0
    2.4380   -3.5490    1.1250 C   0  0  1  0  0  0  0  0  0  0  0  0
    1.6330   -3.3510    0.0570 O   0  0  0  0  0  0  0  0  0  0  0  0
    1.5540   -2.1370   -0.5280 C   0  0  1  0  0  0  0  0  0  0  0  0
    0.1030   -1.2560    0.0970 S   0  0  0  0  0  0  0  0  0  0  0  0
   -1.4590   -2.0770   -0.4330 C   0  0  2  0  0  0  0  0  0  0  0  0
   -1.4960   -1.9210   -1.7820 O   0  0  0  0  0  0  0  0  0  0  0  0
   -2.6880   -1.6650   -2.3830 C   0  0  2  0  0  0  0  0  0  0  0  0
   -2.3960   -1.1840   -3.8020 C   0  0  0  0  0  0  0  0  0  0  0  0
   -3.5460   -0.8930   -4.5080 O   0  0  0  0  0  0  0  0  0  0  0  0
   -3.3030   -0.4590   -1.6580 C   0  0  2  0  0  0  0  0  0  0  0  0
   -2.2330    0.3880   -1.3660 O   0  0  0  0  0  0  0  0  0  0  0  0
   -3.7670   -1.0380   -0.3360 C   0  0  2  0  0  0  0  0  0  0  0  0
   -4.4210   -0.0090    0.4440 N   0  0  0  0  0  0  0  0  0  0  0  0
   -5.5490    0.6520    0.1280 C   0  0  0  0  0  0  0  0  0  0  0  0
   -5.8580    1.5570    1.1220 C   0  0  0  0  0  0  0  0  0  0  0  0
   -6.9960    2.4840    1.1900 C   0  0  0  0  0  0  0  0  0  0  0  0
   -7.8980    2.4830    0.1470 C   0  0  0  0  0  0  0  0  0  0  0  0
   -8.9850    3.3030    0.1120 C   0  0  0  0  0  0  0  0  0  0  0  0
   -9.1960    4.1700    1.1610 C   0  0  0  0  0  0  0  0  0  0  0  0
   -8.2980    4.1760    2.2080 C   0  0  0  0  0  0  0  0  0  0  0  0
   -8.5050    5.0350    3.2470 F   0  0  0  0  0  0  0  0  0  0  0  0
   -7.1980    3.3370    2.2270 C   0  0  0  0  0  0  0  0  0  0  0  0
   -4.8720    1.4050    2.0310 N   0  0  0  0  0  0  0  0  0  0  0  0
   -4.0330    0.4700    1.6060 N   0  0  0  0  0  0  0  0  0  0  0  0
   -2.5470   -1.5110    0.3860 C   0  0  1  0  0  0  0  0  0  0  0  0
   -2.9820   -2.4480    1.3560 O   0  0  0  0  0  0  0  0  0  0  0  0
    2.7490   -1.2630   -0.4410 C   0  0  2  0  0  0  0  0  0  0  0  0
    2.9860   -0.6750   -1.7080 O   0  0  0  0  0  0  0  0  0  0  0  0
    4.0180   -1.9850   -0.0770 C   0  0  1  0  0  0  0  0  0  0  0  0
    4.9210   -1.0000    0.4920 N   0  0  0  0  0  0  0  0  0  0  0  0
    5.5230    0.0120   -0.2020 C   0  0  0  0  0  0  0  0  0  0  0  0
    6.3050    0.7510    0.6450 C   0  0  0  0  0  0  0  0  0  0  0  0
    7.1180    1.9060    0.3520 C   0  0  0  0  0  0  0  0  0  0  0  0
    7.8500    2.5340    1.3370 C   0  0  0  0  0  0  0  0  0  0  0  0
    8.6230    3.6450    1.0250 C   0  0  0  0  0  0  0  0  0  0  0  0
    8.6390    4.1020   -0.2930 C   0  0  0  0  0  0  0  0  0  0  0  0
    7.9100    3.4720   -1.2580 C   0  0  0  0  0  0  0  0  0  0  0  0
    7.9370    3.9310   -2.5400 F   0  0  0  0  0  0  0  0  0  0  0  0
    7.1470    2.3730   -0.9450 C   0  0  0  0  0  0  0  0  0  0  0  0
    6.1690    0.1760    1.8500 N   0  0  0  0  0  0  0  0  0  0  0  0
    5.3450   -0.8550    1.7260 N   0  0  0  0  0  0  0  0  0  0  0  0
    3.8340   -3.0910    0.8910 C   0  0  1  0  0  0  0  0  0  0  0  0
    4.3790   -2.7870    2.1550 O   0  0  0  0  0  0  0  0  0  0  0  0
  1  2  1  0
  3  2  1  1
  3  4  1  0
  3 44  1  0
  4  5  1  0
  5  6  1  1
  5 29  1  0
  7  6  1  1
  7  8  1  0
  7 27  1  0
  8  9  1  0
  9 10  1  6
  9 12  1  0
 10 11  1  0
 12 13  1  1
 12 14  1  0
 14 15  1  1
 14 27  1  0
 15 16  1  0
 15 26  1  0
 16 17  2  0
 17 18  1  0
 17 25  1  0
 18 19  2  0
 18 24  1  0
 19 20  1  0
 20 21  2  0
 21 22  1  0
 22 23  1  0
 22 24  2  0
 25 26  2  0
 27 28  1  1
 29 30  1  6
 29 31  1  0
 31 32  1  1
 31 44  1  0
 32 33  1  0
 32 43  1  0
 33 34  2  0
 34 35  1  0
 34 42  1  0
 35 36  2  0
 35 41  1  0
 36 37  1  0
 37 38  2  0
 38 39  1  0
 39 40  1  0
 39 41  2  0
 42 43  2  0
 44 45  1  1
M  END
