
     RDKit          3D

 39 43  0  0  0  0  0  0  0  0999 V2000
    1.5230    3.7620    0.7570 C   0  0  0  0  0  0  0  0  0  0  0  0
    1.9780    2.5070    0.9760 O   0  0  0  0  0  0  0  0  0  0  0  0
    1.2310    1.3270    1.3400 C   0  0  0  0  0  0  0  0  0  0  0  0
   -0.1570    1.5090    1.4690 C   0  0  0  0  0  0  0  0  0  0  0  0
   -0.5370    2.7710    1.1760 O   0  0  0  0  0  0  0  0  0  0  0  0
   -1.2300    0.7070    1.8230 N   0  0  0  0  0  0  0  0  0  0  0  0
   -1.3370   -0.6340    2.2700 C   0  0  0  0  0  0  0  0  0  0  0  0
   -2.8190   -0.9240    2.6260 C   0  0  0  0  0  0  0  0  0  0  0  0
   -3.6290   -0.7830    1.3660 C   0  0  0  0  0  0  0  0  0  0  0  0
   -3.3290    0.5330    0.6690 C   0  0  1  0  0  0  0  0  0  0  0  0
   -2.4940    0.3470   -0.4250 O   0  0  0  0  0  0  0  0  0  0  0  0
   -4.5710    1.2700    0.2950 C   0  0  0  0  0  0  0  0  0  0  0  0
   -5.3620    0.5900   -0.6470 N   0  0  0  0  0  0  0  0  0  0  0  0
   -6.5350    1.2840   -1.0700 C   0  0  0  0  0  0  0  0  0  0  0  0
   -7.8370    0.6550   -0.7430 C   0  0  0  0  0  0  0  0  0  0  0  0
   -7.8220   -0.8450   -0.6850 C   0  0  0  0  0  0  0  0  0  0  0  0
   -6.8060   -1.4250   -1.5350 N   0  0  0  0  0  0  0  0  0  0  0  0
   -6.6780   -2.8320   -1.4070 C   0  0  0  0  0  0  0  0  0  0  0  0
   -5.8320   -3.4930   -2.0860 O   0  0  0  0  0  0  0  0  0  0  0  0
   -5.8960   -0.8370   -2.4870 C   0  0  0  0  0  0  0  0  0  0  0  0
   -4.7810   -0.1340   -1.7030 C   0  0  0  0  0  0  0  0  0  0  0  0
   -2.5940    1.3700    1.6940 C   0  0  0  0  0  0  0  0  0  0  0  0
    2.0220    0.2800    1.4810 C   0  0  0  0  0  0  0  0  0  0  0  0
    1.6720   -1.0920    1.8350 C   0  0  0  0  0  0  0  0  0  0  0  0
    3.5120    0.5580    1.2630 C   0  0  0  0  0  0  0  0  0  0  0  0
    4.1100    1.6990    1.8020 C   0  0  0  0  0  0  0  0  0  0  0  0
    5.8180    1.5580    1.2460 S   0  0  0  0  0  0  0  0  0  0  0  0
    5.4650   -0.0780    0.3350 C   0  0  0  0  0  0  0  0  0  0  0  0
    6.5960   -0.6970   -0.3600 C   0  0  0  0  0  0  0  0  0  0  0  0
    6.5480   -1.8820   -1.0700 C   0  0  0  0  0  0  0  0  0  0  0  0
    7.8040   -2.1340   -1.5750 C   0  0  0  0  0  0  0  0  0  0  0  0
    8.5870   -1.0720   -1.1460 C   0  0  0  0  0  0  0  0  0  0  0  0
   10.0110   -0.9400   -1.4640 C   0  0  0  0  0  0  0  0  0  0  0  0
   10.7670   -1.8060   -2.1920 C   0  0  0  0  0  0  0  0  0  0  0  0
   12.0480   -1.3060   -2.2500 C   0  0  0  0  0  0  0  0  0  0  0  0
   12.0280   -0.1270   -1.5390 C   0  0  0  0  0  0  0  0  0  0  0  0
   10.8160    0.0330   -1.1060 O   0  0  0  0  0  0  0  0  0  0  0  0
    7.8300   -0.2750   -0.4480 O   0  0  0  0  0  0  0  0  0  0  0  0
    4.3060   -0.1980    0.5790 N   0  0  0  0  0  0  0  0  0  0  0  0
  1  2  1  0
  2  3  1  0
  3  4  1  0
  3 23  2  3
  4  5  2  0
  4  6  1  0
  6  7  1  0
  6 22  1  0
  7  8  1  0
  8  9  1  0
  9 10  1  0
 10 11  1  6
 10 12  1  0
 10 22  1  0
 12 13  1  0
 13 14  1  0
 13 21  1  0
 14 15  1  0
 15 16  1  0
 16 17  1  0
 17 18  1  0
 17 20  1  0
 18 19  2  0
 20 21  1  0
 23 24  1  0
 23 25  1  0
 25 26  2  0
 25 39  1  0
 26 27  1  0
 27 28  1  0
 28 29  1  0
 28 39  2  0
 29 30  2  0
 29 38  1  0
 30 31  1  0
 31 32  2  0
 32 33  1  0
 32 38  1  0
 33 34  2  0
 33 37  1  0
 34 35  1  0
 35 36  2  0
 36 37  1  0
M  END
