
     RDKit          3D

 39 43  0  0  0  0  0  0  0  0999 V2000
    0.3270   -3.3370   -0.6020 C   0  0  0  0  0  0  0  0  0  0  0  0
    0.1590   -1.9360   -0.5950 O   0  0  0  0  0  0  0  0  0  0  0  0
   -1.0840   -1.3440   -0.5860 C   0  0  0  0  0  0  0  0  0  0  0  0
   -2.0310   -2.1680   -0.5840 O   0  0  0  0  0  0  0  0  0  0  0  0
   -1.3660    0.0800   -0.5850 C   0  0  0  0  0  0  0  0  0  0  0  0
   -0.3270    0.9550   -0.4750 C   0  0  0  0  0  0  0  0  0  0  0  0
    1.3580    0.5620   -0.2230 S   0  0  1  0  0  0  0  0  0  0  0  0
    1.8540   -0.4150   -1.2260 O   0  0  0  0  0  0  0  0  0  0  0  0
    2.1850    1.8470   -0.5430 O   0  0  0  0  0  0  0  0  0  0  0  0
    1.7890    0.1530    1.3420 N   0  0  0  0  0  0  0  0  0  0  0  0
    1.2330   -0.9490    2.0010 C   0  0  0  0  0  0  0  0  0  0  0  0
    3.1160    0.4810    1.7690 C   0  0  0  0  0  0  0  0  0  0  0  0
    4.0800   -0.6390    1.8640 C   0  0  0  0  0  0  0  0  0  0  0  0
    4.3940   -1.3900    0.6100 C   0  0  0  0  0  0  0  0  0  0  0  0
    5.0360   -0.4890   -0.4430 C   0  0  2  0  0  0  0  0  0  0  0  0
    5.2880   -1.3990   -1.6540 C   0  0  0  0  0  0  0  0  0  0  0  0
    6.7940   -1.5480   -1.7240 C   0  0  0  0  0  0  0  0  0  0  0  0
    7.2120   -0.1800   -1.2310 C   0  0  0  0  0  0  0  0  0  0  0  0
    7.8750    0.9280   -1.3050 C   0  0  0  0  0  0  0  0  0  0  0  0
    7.5640    1.7880   -0.1700 C   0  0  0  0  0  0  0  0  0  0  0  0
    6.6790    1.1480    0.6140 C   0  0  0  0  0  0  0  0  0  0  0  0
    6.3920   -0.1280    0.0520 C   0  0  1  0  0  0  0  0  0  0  0  0
   -0.6540    2.3290   -0.4360 C   0  0  0  0  0  0  0  0  0  0  0  0
   -1.9480    2.7360   -0.5030 C   0  0  0  0  0  0  0  0  0  0  0  0
   -2.2290    3.9850   -0.4640 O   0  0  0  0  0  0  0  0  0  0  0  0
   -2.9760    1.8560   -0.6110 N   0  0  0  0  0  0  0  0  0  0  0  0
   -4.3140    2.4350   -0.7330 C   0  0  0  0  0  0  0  0  0  0  0  0
   -2.7170    0.5360   -0.6540 C   0  0  0  0  0  0  0  0  0  0  0  0
   -3.6970   -0.4350   -0.9040 N   0  0  0  0  0  0  0  0  0  0  0  0
   -5.0800   -0.2320   -0.5940 C   0  0  0  0  0  0  0  0  0  0  0  0
   -5.3860    0.2130    0.5770 N   0  0  0  0  0  0  0  0  0  0  0  0
   -6.6900    0.4670    1.0400 C   0  0  0  0  0  0  0  0  0  0  0  0
   -6.9900    0.9450    2.3010 C   0  0  0  0  0  0  0  0  0  0  0  0
   -8.3080    1.1720    2.6850 C   0  0  0  0  0  0  0  0  0  0  0  0
   -9.3600    0.9310    1.8280 C   0  0  0  0  0  0  0  0  0  0  0  0
   -9.0610    0.4540    0.5700 C   0  0  0  0  0  0  0  0  0  0  0  0
   -7.7520    0.2290    0.1870 C   0  0  0  0  0  0  0  0  0  0  0  0
   -7.4540   -0.2490   -1.0760 O   0  0  0  0  0  0  0  0  0  0  0  0
   -6.1740   -0.5660   -1.5440 C   0  0  0  0  0  0  0  0  0  0  0  0
  1  2  1  0
  2  3  1  0
  3  4  2  0
  3  5  1  0
  5  6  1  0
  5 28  2  0
  6  7  1  0
  6 23  2  0
  7  8  2  0
  7  9  2  0
  7 10  1  1
 10 11  1  0
 10 12  1  0
 12 13  1  0
 13 14  1  0
 15 14  1  1
 15 16  1  0
 15 22  1  0
 16 17  1  0
 17 18  1  0
 18 19  2  0
 18 22  1  0
 19 20  1  0
 20 21  2  0
 22 21  1  6
 23 24  1  0
 24 25  2  0
 24 26  1  0
 26 27  1  0
 26 28  1  0
 28 29  1  0
 29 30  1  0
 30 31  2  0
 30 39  1  0
 31 32  1  0
 32 33  2  0
 32 37  1  0
 33 34  1  0
 34 35  2  0
 35 36  1  0
 36 37  2  0
 37 38  1  0
 38 39  1  0
M  END
