
     RDKit          3D

 39 43  0  0  0  0  0  0  0  0999 V2000
   -7.8770    2.1510   -1.8770 C   0  0  0  0  0  0  0  0  0  0  0  0
   -7.4880    1.4890   -0.8040 C   0  0  0  0  0  0  0  0  0  0  0  0
   -6.0950    1.0310   -0.5890 C   0  0  0  0  0  0  0  0  0  0  0  0
   -5.7290    1.3610    0.8320 C   0  0  2  0  0  0  0  0  0  0  0  0
   -4.3120    0.9340    1.1810 C   0  0  1  0  0  0  0  0  0  0  0  0
   -4.1100   -0.5340    1.0460 C   0  0  0  0  0  0  0  0  0  0  0  0
   -2.9570   -0.6540    0.1360 N   0  0  0  0  0  0  0  0  0  0  0  0
   -2.0600   -1.7450    0.1600 C   0  0  0  0  0  0  0  0  0  0  0  0
   -0.9180   -1.8860   -0.4390 C   0  0  0  0  0  0  0  0  0  0  0  0
   -0.1900   -0.9610   -1.3210 C   0  0  0  0  0  0  0  0  0  0  0  0
    1.2500   -0.8680   -0.8540 C   0  0  0  0  0  0  0  0  0  0  0  0
    1.6760   -1.4970    0.1340 O   0  0  0  0  0  0  0  0  0  0  0  0
    2.1700   -0.0470   -1.5430 N   0  0  0  0  0  0  0  0  0  0  0  0
    3.5710    0.0710   -1.1300 C   0  0  0  0  0  0  0  0  0  0  0  0
    4.0380    1.2230   -0.7880 C   0  0  0  0  0  0  0  0  0  0  0  0
    5.3940    1.4740   -0.3690 C   0  0  0  0  0  0  0  0  0  0  0  0
    5.6910    2.1550    0.7430 N   0  0  0  0  0  0  0  0  0  0  0  0
    6.9130    2.4530    1.1460 C   0  0  0  0  0  0  0  0  0  0  0  0
    8.0450    2.0500    0.3900 C   0  0  0  0  0  0  0  0  0  0  0  0
    9.3220    2.2900    0.6900 C   0  0  0  0  0  0  0  0  0  0  0  0
    9.8340    3.0580    1.9300 C   0  0  0  0  0  0  0  0  0  0  0  0
   10.3160    1.8270   -0.1570 C   0  0  0  0  0  0  0  0  0  0  0  0
    9.3070    0.9920   -1.4710 S   0  0  0  0  0  0  0  0  0  0  0  0
    7.7080    1.3600   -0.7350 C   0  0  0  0  0  0  0  0  0  0  0  0
    6.4400    1.0700   -1.1200 N   0  0  0  0  0  0  0  0  0  0  0  0
    4.3560   -1.1480   -1.1050 C   0  0  0  0  0  0  0  0  0  0  0  0
    5.5510   -1.2160   -0.7670 O   0  0  0  0  0  0  0  0  0  0  0  0
    3.7780   -2.3790   -1.4820 O   0  0  0  0  0  0  0  0  0  0  0  0
    4.5250   -3.5700   -1.4630 C   0  0  0  0  0  0  0  0  0  0  0  0
   -0.3220   -3.2490   -0.1290 C   0  0  0  0  0  0  0  0  0  0  0  0
   -1.5860   -4.0390    0.1710 C   0  0  0  0  0  0  0  0  0  0  0  0
   -2.3900   -3.0200    0.9580 C   0  0  0  0  0  0  0  0  0  0  0  0
   -3.0390    0.5500   -0.5920 C   0  0  0  0  0  0  0  0  0  0  0  0
   -2.8530    0.6510   -1.8280 O   0  0  0  0  0  0  0  0  0  0  0  0
   -3.3680    1.5550    0.3510 O   0  0  0  0  0  0  0  0  0  0  0  0
   -6.6580    0.6790    1.7800 C   0  0  0  0  0  0  0  0  0  0  0  0
   -8.0250    0.9840    1.5330 O   0  0  0  0  0  0  0  0  0  0  0  0
   -8.4740    1.1910    0.2230 C   0  0  0  0  0  0  0  0  0  0  0  0
   -9.7650    1.1090   -0.0360 C   0  0  0  0  0  0  0  0  0  0  0  0
  1  2  2  0
  2  3  1  0
  2 38  1  0
  4  3  1  6
  4  5  1  0
  4 36  1  0
  5  6  1  6
  5 35  1  0
  6  7  1  0
  7  8  1  0
  7 33  1  0
  8  9  2  0
  8 32  1  0
  9 10  1  0
  9 30  1  0
 10 11  1  0
 11 12  2  0
 11 13  1  0
 13 14  1  0
 14 15  2  3
 14 26  1  0
 15 16  1  0
 16 17  2  0
 16 25  1  0
 17 18  1  0
 18 19  2  0
 19 20  1  0
 19 24  1  0
 20 21  1  0
 20 22  2  0
 22 23  1  0
 23 24  1  0
 24 25  2  0
 26 27  2  0
 26 28  1  0
 28 29  1  0
 30 31  1  0
 31 32  1  0
 33 34  2  0
 33 35  1  0
 36 37  1  0
 37 38  1  0
 38 39  2  0
M  END
