
     RDKit          3D

 39 43  0  0  0  0  0  0  0  0999 V2000
  -10.4860   -0.0460    0.7880 C   0  0  0  0  0  0  0  0  0  0  0  0
   -9.1960    0.2450    0.6020 C   0  0  0  0  0  0  0  0  0  0  0  0
   -8.5900    1.4760    0.1810 C   0  0  0  0  0  0  0  0  0  0  0  0
   -9.1220    2.6340   -0.1320 C   0  0  0  0  0  0  0  0  0  0  0  0
  -10.5600    2.9140   -0.1070 C   0  0  0  0  0  0  0  0  0  0  0  0
   -7.1200    1.2370    0.1410 C   0  0  0  0  0  0  0  0  0  0  0  0
   -6.0540    2.0440   -0.1850 C   0  0  0  0  0  0  0  0  0  0  0  0
   -4.7580    1.5950   -0.1460 C   0  0  0  0  0  0  0  0  0  0  0  0
   -4.5180    0.2900    0.2340 C   0  0  0  0  0  0  0  0  0  0  0  0
   -3.1210   -0.2500    0.2980 C   0  0  0  0  0  0  0  0  0  0  0  0
   -3.1980   -1.6780    0.7280 C   0  0  0  0  0  0  0  0  0  0  0  0
   -1.8320   -2.2910    0.8280 C   0  0  0  0  0  0  0  0  0  0  0  0
   -1.2310   -2.5910   -0.2280 O   0  0  0  0  0  0  0  0  0  0  0  0
   -1.2240   -2.5310    2.0350 O   0  0  0  0  0  0  0  0  0  0  0  0
    0.0530   -3.1050    2.1990 C   0  0  0  0  0  0  0  0  0  0  0  0
    1.1380   -2.3270    1.5640 C   0  0  0  0  0  0  0  0  0  0  0  0
    1.6270   -1.1910    2.1070 N   0  0  0  0  0  0  0  0  0  0  0  0
    2.6400   -0.4960    1.5120 C   0  0  0  0  0  0  0  0  0  0  0  0
    3.1770   -0.9560    0.3350 C   0  0  0  0  0  0  0  0  0  0  0  0
    4.2080   -0.2750   -0.2970 O   0  0  0  0  0  0  0  0  0  0  0  0
    5.5250   -0.3900    0.0590 C   0  0  0  0  0  0  0  0  0  0  0  0
    5.8170   -1.1500    1.0100 O   0  0  0  0  0  0  0  0  0  0  0  0
    6.6280    0.3360   -0.6180 C   0  0  0  0  0  0  0  0  0  0  0  0
    6.3650    1.1360   -1.7080 C   0  0  0  0  0  0  0  0  0  0  0  0
    7.4240    1.7810   -2.3080 C   0  0  0  0  0  0  0  0  0  0  0  0
    8.6790    1.5960   -1.7930 C   0  0  0  0  0  0  0  0  0  0  0  0
    8.9510    0.8310   -0.7450 N   0  0  0  0  0  0  0  0  0  0  0  0
    7.8890    0.2010   -0.1660 C   0  0  0  0  0  0  0  0  0  0  0  0
    8.0830   -0.5530    0.8500 O   0  0  0  0  0  0  0  0  0  0  0  0
   10.3160    0.7640   -0.3320 C   0  0  0  0  0  0  0  0  0  0  0  0
   11.2440    0.9850   -1.4750 C   0  0  1  0  0  0  0  0  0  0  0  0
   11.3140   -0.2770   -2.3000 C   0  0  0  0  0  0  0  0  0  0  0  0
   10.2380    2.2630   -2.3600 S   0  0  0  0  0  0  0  0  0  0  0  0
    2.6780   -2.1130   -0.2170 C   0  0  0  0  0  0  0  0  0  0  0  0
    1.6620   -2.7760    0.4150 N   0  0  0  0  0  0  0  0  0  0  0  0
   -5.5560   -0.4850    0.5480 N   0  0  0  0  0  0  0  0  0  0  0  0
   -6.8510   -0.0490    0.5130 C   0  0  0  0  0  0  0  0  0  0  0  0
   -8.1130   -0.7480    0.8220 C   0  0  1  0  0  0  0  0  0  0  0  0
   -8.1250   -1.1750    2.1670 O   0  0  0  0  0  0  0  0  0  0  0  0
  1  2  2  0
  2  3  1  0
  2 38  1  0
  3  4  2  3
  3  6  1  0
  4  5  1  0
  6  7  2  0
  6 37  1  0
  7  8  1  0
  8  9  2  0
  9 10  1  0
  9 36  1  0
 10 11  1  0
 11 12  1  0
 12 13  2  0
 12 14  1  0
 14 15  1  0
 15 16  1  0
 16 17  2  0
 16 35  1  0
 17 18  1  0
 18 19  2  0
 19 20  1  0
 19 34  1  0
 20 21  1  0
 21 22  2  0
 21 23  1  0
 23 24  2  0
 23 28  1  0
 24 25  1  0
 25 26  2  0
 26 27  1  0
 26 33  1  0
 27 28  1  0
 27 30  1  0
 28 29  2  0
 30 31  1  0
 31 32  1  6
 31 33  1  0
 34 35  2  0
 36 37  2  0
 37 38  1  0
 38 39  1  1
M  END
