
     RDKit          3D

 45 50  0  0  0  0  0  0  0  0999 V2000
   -1.6330    1.1300   -4.1430 O   0  0  0  0  0  0  0  0  0  0  0  0
   -2.6100    1.2730   -3.1490 C   0  0  0  0  0  0  0  0  0  0  0  0
   -2.8040   -0.0590   -2.4120 C   0  0  1  0  0  0  0  0  0  0  0  0
   -1.6780   -0.5020   -1.8120 O   0  0  0  0  0  0  0  0  0  0  0  0
   -1.4830   -0.3230   -0.4870 C   0  0  1  0  0  0  0  0  0  0  0  0
    0.0560    0.5870   -0.0770 S   0  0  0  0  0  0  0  0  0  0  0  0
    1.4920   -0.4470   -0.5570 C   0  0  2  0  0  0  0  0  0  0  0  0
    1.5700   -1.5860    0.1990 O   0  0  0  0  0  0  0  0  0  0  0  0
    2.2990   -1.5090    1.3540 C   0  0  2  0  0  0  0  0  0  0  0  0
    1.6560   -0.6690    2.4320 C   0  0  0  0  0  0  0  0  0  0  0  0
    2.5350   -0.7010    3.5390 O   0  0  0  0  0  0  0  0  0  0  0  0
    3.7240   -1.0930    1.1810 C   0  0  2  0  0  0  0  0  0  0  0  0
    4.1050   -0.1690    2.1280 O   0  0  0  0  0  0  0  0  0  0  0  0
    3.8920   -0.5220   -0.2040 C   0  0  2  0  0  0  0  0  0  0  0  0
    5.1790    0.1410   -0.2440 N   0  0  0  0  0  0  0  0  0  0  0  0
    6.3490   -0.5570   -0.3020 C   0  0  0  0  0  0  0  0  0  0  0  0
    7.4060    0.3290   -0.3290 C   0  0  0  0  0  0  0  0  0  0  0  0
    8.8230   -0.0110   -0.3900 C   0  0  0  0  0  0  0  0  0  0  0  0
    9.7700    0.9850   -0.4060 C   0  0  0  0  0  0  0  0  0  0  0  0
   11.1290    0.6760   -0.4630 C   0  0  0  0  0  0  0  0  0  0  0  0
   11.5520   -0.6340   -0.5040 C   0  0  0  0  0  0  0  0  0  0  0  0
   10.6000   -1.6460   -0.4880 C   0  0  0  0  0  0  0  0  0  0  0  0
   11.0030   -2.9550   -0.5280 F   0  0  0  0  0  0  0  0  0  0  0  0
    9.2620   -1.3180   -0.4310 C   0  0  0  0  0  0  0  0  0  0  0  0
    6.8400    1.5470   -0.2870 N   0  0  0  0  0  0  0  0  0  0  0  0
    5.5070    1.4080   -0.2360 N   0  0  0  0  0  0  0  0  0  0  0  0
    2.7600    0.3750   -0.5620 C   0  0  1  0  0  0  0  0  0  0  0  0
    2.9860    0.9560   -1.8160 O   0  0  0  0  0  0  0  0  0  0  0  0
   -2.6370    0.2130    0.3070 C   0  0  2  0  0  0  0  0  0  0  0  0
   -2.4620   -0.0120    1.6610 O   0  0  0  0  0  0  0  0  0  0  0  0
   -3.8610   -0.5250   -0.2310 C   0  0  1  0  0  0  0  0  0  0  0  0
   -5.0410   -0.2810    0.5460 N   0  0  0  0  0  0  0  0  0  0  0  0
   -6.2910   -0.1280    0.0780 C   0  0  0  0  0  0  0  0  0  0  0  0
   -7.1570    0.0900    1.1400 C   0  0  0  0  0  0  0  0  0  0  0  0
   -8.5910    0.3040    1.1070 C   0  0  0  0  0  0  0  0  0  0  0  0
   -9.2880    0.3180   -0.0770 C   0  0  0  0  0  0  0  0  0  0  0  0
  -10.6650    0.5270   -0.0490 C   0  0  0  0  0  0  0  0  0  0  0  0
  -11.3350    0.7210    1.1430 C   0  0  0  0  0  0  0  0  0  0  0  0
  -10.6340    0.7070    2.3280 C   0  0  0  0  0  0  0  0  0  0  0  0
  -11.2650    0.8930    3.4950 F   0  0  0  0  0  0  0  0  0  0  0  0
   -9.2600    0.4960    2.2880 C   0  0  0  0  0  0  0  0  0  0  0  0
   -6.3630    0.0580    2.2290 N   0  0  0  0  0  0  0  0  0  0  0  0
   -5.1190   -0.1600    1.8750 N   0  0  0  0  0  0  0  0  0  0  0  0
   -4.0580   -0.0100   -1.6180 C   0  0  1  0  0  0  0  0  0  0  0  0
   -4.4720    1.3390   -1.5080 O   0  0  0  0  0  0  0  0  0  0  0  0
  1  2  1  0
  3  2  1  1
  3  4  1  0
  3 44  1  0
  4  5  1  0
  5  6  1  6
  5 29  1  0
  7  6  1  1
  7  8  1  0
  7 27  1  0
  8  9  1  0
  9 10  1  1
  9 12  1  0
 10 11  1  0
 12 13  1  1
 12 14  1  0
 14 15  1  1
 14 27  1  0
 15 16  1  0
 15 26  1  0
 16 17  2  0
 17 18  1  0
 17 25  1  0
 18 19  2  0
 18 24  1  0
 19 20  1  0
 20 21  2  0
 21 22  1  0
 22 23  1  0
 22 24  2  0
 25 26  2  0
 27 28  1  6
 29 30  1  1
 29 31  1  0
 31 32  1  1
 31 44  1  0
 32 33  1  0
 32 43  1  0
 33 34  2  0
 34 35  1  0
 34 42  1  0
 35 36  2  0
 35 41  1  0
 36 37  1  0
 37 38  2  0
 38 39  1  0
 39 40  1  0
 39 41  2  0
 42 43  2  0
 44 45  1  1
M  END
