
     RDKit          3D

 39 43  0  0  0  0  0  0  0  0999 V2000
   10.9050   -0.4770   -0.8220 C   0  0  0  0  0  0  0  0  0  0  0  0
    9.8270    0.3590   -0.1470 C   0  0  0  0  0  0  0  0  0  0  0  0
   10.1680    1.1850    0.6800 O   0  0  0  0  0  0  0  0  0  0  0  0
    8.5130    0.1400   -0.5080 N   0  0  0  0  0  0  0  0  0  0  0  0
    7.3350    0.7940   -0.0770 C   0  0  0  0  0  0  0  0  0  0  0  0
    6.1450    0.1510   -0.1320 O   0  0  0  0  0  0  0  0  0  0  0  0
    5.1800    0.8860    0.2960 C   0  0  0  0  0  0  0  0  0  0  0  0
    3.7700    0.5110    0.3790 N   0  0  0  0  0  0  0  0  0  0  0  0
    2.9060    1.1610    1.2880 C   0  0  0  0  0  0  0  0  0  0  0  0
    3.1660    2.0990    2.0980 O   0  0  0  0  0  0  0  0  0  0  0  0
    1.3040    0.3860    1.0820 S   0  0  0  0  0  0  0  0  0  0  0  0
    1.7960   -0.7360   -0.2110 C   0  0  0  0  0  0  0  0  0  0  0  0
    1.0170   -1.5890   -0.8210 C   0  0  0  0  0  0  0  0  0  0  0  0
   -0.3810   -1.7040   -0.4890 C   0  0  0  0  0  0  0  0  0  0  0  0
   -0.9900   -2.9520   -0.3890 C   0  0  0  0  0  0  0  0  0  0  0  0
   -2.3300   -3.0730   -0.0850 C   0  0  0  0  0  0  0  0  0  0  0  0
   -3.0370   -1.9470    0.1150 N   0  0  0  0  0  0  0  0  0  0  0  0
   -2.5270   -0.7210    0.0370 C   0  0  0  0  0  0  0  0  0  0  0  0
   -3.2990    0.4290    0.2510 O   0  0  0  0  0  0  0  0  0  0  0  0
   -4.6320    0.2300    0.5540 C   0  0  0  0  0  0  0  0  0  0  0  0
   -5.4030    0.4960   -0.4960 C   0  0  0  0  0  0  0  0  0  0  0  0
   -4.5640    0.8830   -1.5100 C   0  0  0  0  0  0  0  0  0  0  0  0
   -5.1080    1.2150   -2.7560 C   0  0  0  0  0  0  0  0  0  0  0  0
   -6.4690    1.1520   -2.9510 C   0  0  0  0  0  0  0  0  0  0  0  0
   -7.3030    0.7620   -1.9230 C   0  0  0  0  0  0  0  0  0  0  0  0
   -6.7860    0.4240   -0.6670 C   0  0  0  0  0  0  0  0  0  0  0  0
   -7.8470    0.0920    0.0520 C   0  0  0  0  0  0  0  0  0  0  0  0
   -8.0580   -0.3690    1.4170 C   0  0  0  0  0  0  0  0  0  0  0  0
   -7.2950   -0.6270    2.4620 C   0  0  0  0  0  0  0  0  0  0  0  0
   -5.8570   -0.5430    2.6690 C   0  0  0  0  0  0  0  0  0  0  0  0
   -4.8010   -0.2070    1.9280 C   0  0  0  0  0  0  0  0  0  0  0  0
   -3.5080   -0.2700    2.6370 C   0  0  0  0  0  0  0  0  0  0  0  0
   -1.1650   -0.6170   -0.2730 C   0  0  0  0  0  0  0  0  0  0  0  0
    3.2100   -0.4810   -0.4110 C   0  0  0  0  0  0  0  0  0  0  0  0
    3.8630   -1.1700   -1.2920 O   0  0  0  0  0  0  0  0  0  0  0  0
    5.7150    2.0430    0.6450 N   0  0  0  0  0  0  0  0  0  0  0  0
    7.0920    2.0340    0.4200 C   0  0  0  0  0  0  0  0  0  0  0  0
    7.8790    3.2380    0.5680 C   0  0  0  0  0  0  0  0  0  0  0  0
    9.0120    3.4420    0.1640 O   0  0  0  0  0  0  0  0  0  0  0  0
  1  2  1  0
  2  3  2  0
  2  4  1  0
  4  5  1  0
  5  6  1  0
  5 37  2  0
  6  7  1  0
  7  8  1  0
  7 36  2  0
  8  9  1  0
  8 34  1  0
  9 10  2  0
  9 11  1  0
 11 12  1  0
 12 13  2  3
 12 34  1  0
 13 14  1  0
 14 15  2  0
 14 33  1  0
 15 16  1  0
 16 17  2  0
 17 18  1  0
 18 19  1  0
 18 33  2  0
 19 20  1  0
 20 21  2  0
 20 31  1  0
 21 22  1  0
 21 26  1  0
 22 23  2  0
 23 24  1  0
 24 25  2  0
 25 26  1  0
 26 27  2  0
 27 28  1  0
 28 29  2  0
 29 30  1  0
 30 31  2  0
 31 32  1  0
 34 35  2  0
 36 37  1  0
 37 38  1  0
 38 39  2  0
M  END
