
     RDKit          3D

 34 38  0  0  0  0  0  0  0  0999 V2000
   -9.6310   -0.7140    1.0200 C   0  0  0  0  0  0  0  0  0  0  0  0
   -8.1840   -0.6380    1.3650 C   0  0  0  0  0  0  0  0  0  0  0  0
   -7.6460   -0.8020    2.5840 N   0  0  0  0  0  0  0  0  0  0  0  0
   -6.3080   -0.6590    2.4950 C   0  0  0  0  0  0  0  0  0  0  0  0
   -5.2820   -0.7230    3.4130 C   0  0  0  0  0  0  0  0  0  0  0  0
   -3.9810   -0.5300    3.0260 C   0  0  0  0  0  0  0  0  0  0  0  0
   -3.6050   -0.2600    1.6960 C   0  0  0  0  0  0  0  0  0  0  0  0
   -2.1970   -0.0750    1.3980 C   0  0  0  0  0  0  0  0  0  0  0  0
   -1.3690   -0.1970    2.4160 O   0  0  0  0  0  0  0  0  0  0  0  0
   -1.5570    0.2130    0.2000 N   0  0  0  0  0  0  0  0  0  0  0  0
   -2.1900    0.4030   -1.0570 C   0  0  0  0  0  0  0  0  0  0  0  0
   -0.0890    0.3440    0.2230 C   0  0  2  0  0  0  0  0  0  0  0  0
    0.3640    1.6780   -0.2300 C   0  0  0  0  0  0  0  0  0  0  0  0
    1.2680    1.7010   -1.4220 C   0  0  0  0  0  0  0  0  0  0  0  0
    2.3790    0.6690   -1.2780 C   0  0  0  0  0  0  0  0  0  0  0  0
    1.8880   -0.5580   -0.8520 C   0  0  0  0  0  0  0  0  0  0  0  0
    3.3400   -1.5680   -0.7620 S   0  0  0  0  0  0  0  0  0  0  0  0
    4.4860   -0.3190   -1.2860 C   0  0  0  0  0  0  0  0  0  0  0  0
    5.9060   -0.4520   -1.4470 C   0  0  0  0  0  0  0  0  0  0  0  0
    6.5800    0.5280   -1.8260 O   0  0  0  0  0  0  0  0  0  0  0  0
    6.5580   -1.6450   -1.1930 O   0  0  0  0  0  0  0  0  0  0  0  0
    7.9520   -1.7890   -1.3400 C   0  0  0  0  0  0  0  0  0  0  0  0
    8.7130   -0.9240   -0.4070 C   0  0  0  0  0  0  0  0  0  0  0  0
    8.2730   -0.0820    0.5030 C   0  0  0  0  0  0  0  0  0  0  0  0
    9.4150    0.5430    1.1740 C   0  0  0  0  0  0  0  0  0  0  0  0
   10.4510    0.0980    0.5250 C   0  0  0  0  0  0  0  0  0  0  0  0
   10.1920   -0.8560   -0.3400 C   0  0  0  0  0  0  0  0  0  0  0  0
    3.6730    0.8150   -1.5020 C   0  0  0  0  0  0  0  0  0  0  0  0
    4.3690    2.1010   -1.9740 C   0  0  0  0  0  0  0  0  0  0  0  0
    0.4580   -0.8010   -0.5780 C   0  0  0  0  0  0  0  0  0  0  0  0
   -4.6400   -0.2030    0.8110 C   0  0  0  0  0  0  0  0  0  0  0  0
   -5.9750   -0.3970    1.1910 C   0  0  0  0  0  0  0  0  0  0  0  0
   -7.1550   -0.3820    0.4730 C   0  0  0  0  0  0  0  0  0  0  0  0
   -7.2580   -0.1330   -0.9960 C   0  0  0  0  0  0  0  0  0  0  0  0
  1  2  1  0
  2  3  1  0
  2 33  2  0
  3  4  1  0
  4  5  2  0
  4 32  1  0
  5  6  1  0
  6  7  2  0
  7  8  1  0
  7 31  1  0
  8  9  2  0
  8 10  1  0
 10 11  1  0
 12 10  1  6
 12 13  1  0
 12 30  1  0
 13 14  1  0
 14 15  1  0
 15 16  2  0
 15 28  1  0
 16 17  1  0
 16 30  1  0
 17 18  1  0
 18 19  1  0
 18 28  2  0
 19 20  2  0
 19 21  1  0
 21 22  1  0
 22 23  1  0
 23 24  2  0
 23 27  1  0
 24 25  1  0
 25 26  2  0
 26 27  2  0
 28 29  1  0
 31 32  2  0
 32 33  1  0
 33 34  1  0
M  END
