
     RDKit          3D

 34 34  0  0  0  0  0  0  0  0999 V2000
    8.6130    0.3610    2.4270 C   0  0  0  0  0  0  0  0  0  0  0  0
    7.7930   -0.0730    1.3520 O   0  0  0  0  0  0  0  0  0  0  0  0
    7.4420   -1.3900    1.2310 C   0  0  0  0  0  0  0  0  0  0  0  0
    7.8020   -2.2740    2.0260 O   0  0  0  0  0  0  0  0  0  0  0  0
    6.5710   -1.8000    0.0740 C   0  0  0  0  0  0  0  0  0  0  0  0
    6.2930   -0.6880   -0.6680 O   0  0  0  0  0  0  0  0  0  0  0  0
    5.5620   -0.8240   -1.7980 C   0  0  0  0  0  0  0  0  0  0  0  0
    4.1960   -1.3700   -1.5910 C   0  0  1  0  0  0  0  0  0  0  0  0
    4.1540   -2.6480   -1.0720 O   0  0  0  0  0  0  0  0  0  0  0  0
    3.5040   -0.5030   -0.7290 O   0  0  0  0  0  0  0  0  0  0  0  0
    2.3700    0.0310   -1.3200 C   0  0  0  0  0  0  0  0  0  0  0  0
    1.6760    0.9440   -0.3560 C   0  0  2  0  0  0  0  0  0  0  0  0
    2.5570    1.9680   -0.0110 O   0  0  0  0  0  0  0  0  0  0  0  0
    1.2430    0.1760    0.8570 C   0  0  0  0  0  0  0  0  0  0  0  0
    0.2060   -0.6960    0.4960 O   0  0  0  0  0  0  0  0  0  0  0  0
    0.2410   -1.7870    1.3640 C   0  0  0  0  0  0  0  0  0  0  0  0
   -1.0730   -2.5160    1.3110 C   0  0  0  0  0  0  0  0  0  0  0  0
   -2.1360   -1.6290    1.3100 O   0  0  0  0  0  0  0  0  0  0  0  0
   -3.3260   -2.2350    0.9060 C   0  0  0  0  0  0  0  0  0  0  0  0
   -4.4480   -1.2250    1.0260 C   0  0  0  0  0  0  0  0  0  0  0  0
   -4.6430   -0.6470   -0.1990 O   0  0  0  0  0  0  0  0  0  0  0  0
   -5.1630    0.6200   -0.1800 C   0  0  2  0  0  0  0  0  0  0  0  0
   -6.2020    0.8200    0.9010 C   0  0  0  0  0  0  0  0  0  0  0  0
   -6.6820    2.1270    0.8550 O   0  0  0  0  0  0  0  0  0  0  0  0
   -5.8690    0.8480   -1.5090 C   0  0  0  0  0  0  0  0  0  0  0  0
   -6.4320    2.1200   -1.5790 O   0  0  0  0  0  0  0  0  0  0  0  0
   -4.1190    1.7030   -0.0450 C   0  0  2  0  0  0  0  0  0  0  0  0
   -3.5750    1.7770    1.2130 O   0  0  0  0  0  0  0  0  0  0  0  0
   -4.7170    2.9300   -0.3290 O   0  0  0  0  0  0  0  0  0  0  0  0
   -3.0110    1.5090   -1.0650 C   0  0  2  0  0  0  0  0  0  0  0  0
   -3.0050    0.1690   -1.4600 O   0  0  0  0  0  0  0  0  0  0  0  0
   -1.7070    1.9270   -0.4530 C   0  0  0  0  0  0  0  0  0  0  0  0
   -0.7260    0.9360   -0.5900 O   0  0  0  0  0  0  0  0  0  0  0  0
    0.4490    1.5620   -0.9960 C   0  0  0  0  0  0  0  0  0  0  0  0
  1  2  1  0
  2  3  1  0
  3  4  2  0
  3  5  1  0
  5  6  1  0
  6  7  1  0
  7  8  1  0
  8  9  1  1
  8 10  1  0
 10 11  1  0
 11 12  1  0
 12 13  1  1
 12 14  1  0
 12 34  1  0
 14 15  1  0
 15 16  1  0
 16 17  1  0
 17 18  1  0
 18 19  1  0
 19 20  1  0
 20 21  1  0
 21 22  1  0
 22 23  1  1
 22 25  1  0
 22 27  1  0
 23 24  1  0
 25 26  1  0
 27 28  1  1
 27 29  1  0
 27 30  1  0
 30 31  1  1
 30 32  1  0
 32 33  1  0
 33 34  1  0
M  END
