
     RDKit          3D

 34 38  0  0  0  0  0  0  0  0999 V2000
   -4.4630   -4.4090   -0.3520 C   0  0  0  0  0  0  0  0  0  0  0  0
   -3.5820   -4.0420    0.7740 C   0  0  0  0  0  0  0  0  0  0  0  0
   -2.5100   -3.2790    0.6090 C   0  0  0  0  0  0  0  0  0  0  0  0
   -1.6460   -2.9300    1.7670 C   0  0  0  0  0  0  0  0  0  0  0  0
   -1.2240   -1.4580    1.6940 C   0  0  0  0  0  0  0  0  0  0  0  0
   -0.9530   -1.1090    0.3070 N   0  0  0  0  0  0  0  0  0  0  0  0
    0.3570   -0.6870   -0.0420 C   0  0  0  0  0  0  0  0  0  0  0  0
    1.2230   -1.5880   -0.5650 N   0  0  0  0  0  0  0  0  0  0  0  0
    2.4930   -1.2650   -0.8540 C   0  0  0  0  0  0  0  0  0  0  0  0
    3.4020   -2.2480   -1.4280 C   0  0  0  0  0  0  0  0  0  0  0  0
    2.9510   -3.2270   -2.0680 O   0  0  0  0  0  0  0  0  0  0  0  0
    4.8280   -2.0800   -1.2510 C   0  0  0  0  0  0  0  0  0  0  0  0
    5.5740   -1.5630   -0.2800 C   0  0  0  0  0  0  0  0  0  0  0  0
    6.9170   -1.5310   -0.3890 C   0  0  0  0  0  0  0  0  0  0  0  0
    7.4970   -2.0320   -1.5000 C   0  0  0  0  0  0  0  0  0  0  0  0
    6.0670   -2.5890   -2.4640 S   0  0  0  0  0  0  0  0  0  0  0  0
    2.9730    0.0100   -0.6290 C   0  0  0  0  0  0  0  0  0  0  0  0
    2.1150    0.9670   -0.0930 C   0  0  0  0  0  0  0  0  0  0  0  0
    0.8220    0.5910    0.1860 C   0  0  0  0  0  0  0  0  0  0  0  0
    0.1590    1.8130    0.7010 C   0  0  0  0  0  0  0  0  0  0  0  0
   -1.1440    2.0200    1.1070 C   0  0  0  0  0  0  0  0  0  0  0  0
   -1.5330    3.2980    1.5340 C   0  0  0  0  0  0  0  0  0  0  0  0
   -0.6260    4.3300    1.5480 C   0  0  0  0  0  0  0  0  0  0  0  0
   -1.0530    5.5720    1.9760 O   0  0  0  0  0  0  0  0  0  0  0  0
   -0.2380    6.7110    2.0420 C   0  0  0  0  0  0  0  0  0  0  0  0
    0.6730    4.1440    1.1480 C   0  0  0  0  0  0  0  0  0  0  0  0
    1.0540    2.8720    0.7250 C   0  0  0  0  0  0  0  0  0  0  0  0
    2.3660    2.3990    0.2500 C   0  0  0  0  0  0  0  0  0  0  0  0
   -2.0570   -1.2510   -0.6200 C   0  0  1  0  0  0  0  0  0  0  0  0
   -1.7940   -0.6410   -1.9250 C   0  0  0  0  0  0  0  0  0  0  0  0
   -2.3330    0.3960   -2.4900 C   0  0  0  0  0  0  0  0  0  0  0  0
   -3.3810    1.3020   -2.0160 C   0  0  0  0  0  0  0  0  0  0  0  0
   -3.8520    0.9870   -0.7820 O   0  0  0  0  0  0  0  0  0  0  0  0
   -2.2010   -2.7900   -0.7580 C   0  0  0  0  0  0  0  0  0  0  0  0
  1  2  1  0
  2  3  2  3
  3  4  1  0
  3 34  1  0
  4  5  1  0
  5  6  1  0
  6  7  1  0
  6 29  1  0
  7  8  2  0
  7 19  1  0
  8  9  1  0
  9 10  1  0
  9 17  2  0
 10 11  2  0
 10 12  1  0
 12 13  2  0
 12 16  1  0
 13 14  1  0
 14 15  2  0
 15 16  1  0
 17 18  1  0
 18 19  2  0
 18 28  1  0
 19 20  1  0
 20 21  2  0
 20 27  1  0
 21 22  1  0
 22 23  2  0
 23 24  1  0
 23 26  1  0
 24 25  1  0
 26 27  2  0
 27 28  1  0
 29 30  1  6
 29 34  1  0
 30 31  2  3
 31 32  1  0
 32 33  1  0
M  END
