
     RDKit          3D

 34 34  0  0  0  0  0  0  0  0999 V2000
   -5.9120    1.1550    1.5120 C   0  0  0  0  0  0  0  0  0  0  0  0
   -6.4250    0.3210    0.3780 C   0  0  2  0  0  0  0  0  0  0  0  0
   -7.9140    0.7740    0.2140 C   0  0  0  0  0  0  0  0  0  0  0  0
   -8.5140    0.7180    1.4690 O   0  0  0  0  0  0  0  0  0  0  0  0
   -6.5920   -1.1150    0.9320 C   0  0  0  0  0  0  0  0  0  0  0  0
   -7.2000   -1.0210    2.1820 O   0  0  0  0  0  0  0  0  0  0  0  0
   -5.8680    0.3730   -0.7880 O   0  0  0  0  0  0  0  0  0  0  0  0
   -4.7650    0.0930   -1.3830 C   0  0  0  0  0  0  0  0  0  0  0  0
   -3.4250    0.6610   -1.0080 C   0  0  1  0  0  0  0  0  0  0  0  0
   -3.4560    2.0420   -0.9800 O   0  0  0  0  0  0  0  0  0  0  0  0
   -2.8260    0.0310    0.1740 C   0  0  0  0  0  0  0  0  0  0  0  0
   -1.4780    0.5960    0.5570 C   0  0  2  0  0  0  0  0  0  0  0  0
   -1.5070    1.9350    0.8530 O   0  0  0  0  0  0  0  0  0  0  0  0
   -0.1740    2.3380    0.7850 C   0  0  0  0  0  0  0  0  0  0  0  0
    0.5430    1.1680    0.1340 C   0  0  2  0  0  0  0  0  0  0  0  0
    1.6110    1.5960   -0.8030 C   0  0  0  0  0  0  0  0  0  0  0  0
    2.2340    0.5920   -1.4320 O   0  0  0  0  0  0  0  0  0  0  0  0
    2.9960   -0.3010   -0.6680 C   0  0  2  0  0  0  0  0  0  0  0  0
    4.4640    0.0280   -0.8330 C   0  0  2  0  0  0  0  0  0  0  0  0
    4.9290    0.1690   -2.2400 C   0  0  0  0  0  0  0  0  0  0  0  0
    5.0110   -0.9960   -2.9650 O   0  0  0  0  0  0  0  0  0  0  0  0
    5.2750   -0.7880   -0.0390 O   0  0  0  0  0  0  0  0  0  0  0  0
    6.0120   -0.3670    1.0440 C   0  0  0  0  0  0  0  0  0  0  0  0
    5.9580    0.8280    1.3450 O   0  0  0  0  0  0  0  0  0  0  0  0
    6.8420   -1.3140    1.8240 C   0  0  0  0  0  0  0  0  0  0  0  0
    7.4850   -0.6030    2.8610 O   0  0  0  0  0  0  0  0  0  0  0  0
    8.3540    0.4360    2.6220 C   0  0  0  0  0  0  0  0  0  0  0  0
    8.5810    0.7600    1.4290 O   0  0  0  0  0  0  0  0  0  0  0  0
    8.9870    1.1360    3.6650 O   0  0  0  0  0  0  0  0  0  0  0  0
    2.5900   -1.6780   -0.9280 C   0  0  2  0  0  0  0  0  0  0  0  0
    1.2260   -1.7880   -0.5480 O   0  0  0  0  0  0  0  0  0  0  0  0
    3.2810   -2.7170   -0.0850 C   0  0  0  0  0  0  0  0  0  0  0  0
    2.7240   -3.9960   -0.3100 O   0  0  0  0  0  0  0  0  0  0  0  0
   -0.5480    0.5290   -0.4670 O   0  0  0  0  0  0  0  0  0  0  0  0
  2  1  1  1
  2  3  1  0
  2  5  1  0
  2  7  1  0
  3  4  1  0
  5  6  1  0
  7  8  1  0
  8  9  1  0
  9 10  1  1
  9 11  1  0
 12 11  1  6
 12 13  1  0
 12 34  1  0
 13 14  1  0
 14 15  1  0
 15 16  1  6
 15 34  1  0
 16 17  1  0
 18 17  1  6
 18 19  1  0
 18 30  1  0
 19 20  1  6
 19 22  1  0
 20 21  1  0
 22 23  1  0
 23 24  2  0
 23 25  1  0
 25 26  1  0
 26 27  1  0
 27 28  2  0
 27 29  1  0
 30 31  1  1
 30 32  1  0
 32 33  1  0
M  END
