
     RDKit          3D

 34 37  0  0  0  0  0  0  0  0999 V2000
   -4.9860   -2.6780   -0.0950 O   0  0  0  0  0  0  0  0  0  0  0  0
   -5.6850   -2.1520    0.9990 C   0  0  0  0  0  0  0  0  0  0  0  0
   -5.4170   -0.6650    1.0610 C   0  0  1  0  0  0  0  0  0  0  0  0
   -4.0660   -0.4390    1.2140 O   0  0  0  0  0  0  0  0  0  0  0  0
   -3.7520    0.8930    1.3730 C   0  0  1  0  0  0  0  0  0  0  0  0
   -2.0180    1.1440    1.7910 S   0  0  0  0  0  0  0  0  0  0  0  0
   -0.9420    0.6520    0.4150 C   0  0  2  0  0  0  0  0  0  0  0  0
   -1.0000   -0.7070    0.1940 O   0  0  0  0  0  0  0  0  0  0  0  0
   -0.2300   -1.0420   -0.9040 C   0  0  2  0  0  0  0  0  0  0  0  0
   -0.3720   -2.4910   -1.2950 C   0  0  0  0  0  0  0  0  0  0  0  0
    0.4430   -2.7130   -2.4090 O   0  0  0  0  0  0  0  0  0  0  0  0
    1.2380   -0.8240   -0.5090 C   0  0  2  0  0  0  0  0  0  0  0  0
    1.4120   -1.5160    0.6840 O   0  0  0  0  0  0  0  0  0  0  0  0
    1.4090    0.6510   -0.3410 C   0  0  2  0  0  0  0  0  0  0  0  0
    2.7420    1.0060    0.0360 N   0  0  0  0  0  0  0  0  0  0  0  0
    3.8080    0.1720   -0.0780 C   0  0  0  0  0  0  0  0  0  0  0  0
    4.9100    0.8440    0.3720 C   0  0  0  0  0  0  0  0  0  0  0  0
    6.2540    0.3080    0.4170 C   0  0  0  0  0  0  0  0  0  0  0  0
    6.5710   -0.9710    0.0060 C   0  0  0  0  0  0  0  0  0  0  0  0
    7.8750   -1.4510    0.0630 C   0  0  0  0  0  0  0  0  0  0  0  0
    8.8820   -0.6400    0.5380 C   0  0  0  0  0  0  0  0  0  0  0  0
    8.5470    0.6210    0.9390 C   0  0  0  0  0  0  0  0  0  0  0  0
    9.5680    1.4120    1.4060 F   0  0  0  0  0  0  0  0  0  0  0  0
    7.2720    1.1300    0.8970 C   0  0  0  0  0  0  0  0  0  0  0  0
    4.4940    2.0500    0.7420 N   0  0  0  0  0  0  0  0  0  0  0  0
    3.1960    2.1570    0.5450 N   0  0  0  0  0  0  0  0  0  0  0  0
    0.4470    1.1700    0.7080 C   0  0  1  0  0  0  0  0  0  0  0  0
    0.4120    2.5600    0.5990 O   0  0  0  0  0  0  0  0  0  0  0  0
   -4.1410    1.6620    0.1160 C   0  0  2  0  0  0  0  0  0  0  0  0
   -3.7440    2.9730    0.1560 O   0  0  0  0  0  0  0  0  0  0  0  0
   -5.6540    1.5020   -0.0030 C   0  0  1  0  0  0  0  0  0  0  0  0
   -6.1740    2.2750   -1.0280 O   0  0  0  0  0  0  0  0  0  0  0  0
   -5.8840    0.0180   -0.2330 C   0  0  1  0  0  0  0  0  0  0  0  0
   -4.9490   -0.3670   -1.2110 O   0  0  0  0  0  0  0  0  0  0  0  0
  1  2  1  0
  3  2  1  6
  3  4  1  0
  3 33  1  0
  4  5  1  0
  5  6  1  6
  5 29  1  0
  7  6  1  1
  7  8  1  0
  7 27  1  0
  8  9  1  0
  9 10  1  1
  9 12  1  0
 10 11  1  0
 12 13  1  1
 12 14  1  0
 14 15  1  1
 14 27  1  0
 15 16  1  0
 15 26  1  0
 16 17  2  0
 17 18  1  0
 17 25  1  0
 18 19  2  0
 18 24  1  0
 19 20  1  0
 20 21  2  0
 21 22  1  0
 22 23  1  0
 22 24  2  0
 25 26  2  0
 27 28  1  6
 29 30  1  1
 29 31  1  0
 31 32  1  6
 31 33  1  0
 33 34  1  6
M  END
