
     RDKit          3D

 33 37  0  0  0  0  0  0  0  0999 V2000
   -8.2890   -1.1720    0.2900 C   0  0  0  0  0  0  0  0  0  0  0  0
   -7.8370   -0.1830    1.3230 C   0  0  0  0  0  0  0  0  0  0  0  0
   -6.3510    0.0930    1.2620 C   0  0  0  0  0  0  0  0  0  0  0  0
   -5.8820    0.7520   -0.3160 S   0  0  2  0  0  0  0  0  0  0  0  0
   -6.6710    2.0120   -0.5280 O   0  0  0  0  0  0  0  0  0  0  0  0
   -6.2310   -0.2650   -1.3740 O   0  0  0  0  0  0  0  0  0  0  0  0
   -4.2170    1.0770   -0.4270 N   0  0  0  0  0  0  0  0  0  0  0  0
   -3.8050    2.0550    0.5270 C   0  0  0  0  0  0  0  0  0  0  0  0
   -2.5250    1.5500    1.1580 C   0  0  0  0  0  0  0  0  0  0  0  0
   -2.4680    0.0860    0.8560 C   0  0  2  0  0  0  0  0  0  0  0  0
   -1.0440   -0.2340    0.4750 C   0  0  0  0  0  0  0  0  0  0  0  0
   -0.4800   -1.0670    1.2030 O   0  0  0  0  0  0  0  0  0  0  0  0
   -0.3970    0.3780   -0.6420 C   0  0  0  0  0  0  0  0  0  0  0  0
    0.7670    0.2390   -1.1660 C   0  0  0  0  0  0  0  0  0  0  0  0
    1.8950   -0.5850   -0.8700 C   0  0  0  0  0  0  0  0  0  0  0  0
    1.8370   -1.9640   -0.6670 C   0  0  0  0  0  0  0  0  0  0  0  0
    0.6570   -2.8850   -0.8560 C   0  0  0  0  0  0  0  0  0  0  0  0
    3.0700   -2.3820   -0.3370 N   0  0  0  0  0  0  0  0  0  0  0  0
    3.9200   -1.3510   -0.3170 C   0  0  0  0  0  0  0  0  0  0  0  0
    5.2750   -1.2790   -0.0380 C   0  0  0  0  0  0  0  0  0  0  0  0
    5.9350   -2.4440    0.2820 C   0  0  0  0  0  0  0  0  0  0  0  0
    7.2720   -2.4080    0.5610 C   0  0  0  0  0  0  0  0  0  0  0  0
    7.9540   -1.2120    0.5230 C   0  0  0  0  0  0  0  0  0  0  0  0
    7.3100   -0.0330    0.2040 C   0  0  0  0  0  0  0  0  0  0  0  0
    5.9620   -0.0880   -0.0740 C   0  0  0  0  0  0  0  0  0  0  0  0
    5.2760    1.0680   -0.3960 C   0  0  0  0  0  0  0  0  0  0  0  0
    5.9180    2.2800   -0.4200 C   0  0  0  0  0  0  0  0  0  0  0  0
    5.2240    3.4580   -0.7210 C   0  0  0  0  0  0  0  0  0  0  0  0
    3.8980    3.3850   -0.9910 C   0  0  0  0  0  0  0  0  0  0  0  0
    3.2520    2.1400   -0.9640 C   0  0  0  0  0  0  0  0  0  0  0  0
    3.8990    0.9690   -0.6750 C   0  0  0  0  0  0  0  0  0  0  0  0
    3.2210   -0.2250   -0.6420 C   0  0  0  0  0  0  0  0  0  0  0  0
   -3.3800   -0.0720   -0.3330 C   0  0  0  0  0  0  0  0  0  0  0  0
  1  2  1  0
  2  3  1  0
  4  3  1  1
  4  5  2  0
  4  6  2  0
  4  7  1  0
  7  8  1  0
  7 33  1  0
  8  9  1  0
  9 10  1  0
 10 11  1  6
 10 33  1  0
 11 12  2  0
 11 13  1  0
 13 14  2  3
 14 15  1  0
 15 16  2  0
 15 32  1  0
 16 17  1  0
 16 18  1  0
 18 19  1  0
 19 20  2  0
 19 32  1  0
 20 21  1  0
 20 25  1  0
 21 22  2  0
 22 23  1  0
 23 24  2  0
 24 25  1  0
 25 26  2  0
 26 27  1  0
 26 31  1  0
 27 28  2  0
 28 29  1  0
 29 30  2  0
 30 31  1  0
 31 32  2  0
M  END
