
     RDKit          3D

 33 37  0  0  0  0  0  0  0  0999 V2000
   -4.6200    3.2630   -0.9810 C   0  0  0  0  0  0  0  0  0  0  0  0
   -4.7910    1.8750   -0.4620 C   0  0  0  0  0  0  0  0  0  0  0  0
   -3.6980    1.0110   -0.3460 C   0  0  0  0  0  0  0  0  0  0  0  0
   -3.7960   -0.2790    0.1260 C   0  0  0  0  0  0  0  0  0  0  0  0
   -2.7080   -1.1410    0.2450 C   0  0  0  0  0  0  0  0  0  0  0  0
   -1.4270   -0.6790   -0.1520 N   0  0  0  0  0  0  0  0  0  0  0  0
   -0.2070   -1.3600   -0.0620 C   0  0  0  0  0  0  0  0  0  0  0  0
   -0.1900   -2.5210    0.4230 O   0  0  0  0  0  0  0  0  0  0  0  0
    1.0650   -0.7560   -0.5210 C   0  0  0  0  0  0  0  0  0  0  0  0
    1.1520    0.4780   -1.0880 C   0  0  0  0  0  0  0  0  0  0  0  0
    2.4000    0.9830   -1.4920 C   0  0  0  0  0  0  0  0  0  0  0  0
    3.5520    0.2520   -1.3260 C   0  0  0  0  0  0  0  0  0  0  0  0
    3.4250   -0.9920   -0.7480 C   0  0  0  0  0  0  0  0  0  0  0  0
    4.6730   -1.8120   -0.5510 C   0  0  0  0  0  0  0  0  0  0  0  0
    5.4050   -1.4710    1.0720 S   0  0  0  0  0  0  0  0  0  0  0  0
    6.0150    0.2150    1.1910 C   0  0  0  0  0  0  0  0  0  0  0  0
    7.1880    0.4840    0.2730 C   0  0  2  0  0  0  0  0  0  0  0  0
    8.3350   -0.4170    0.5960 C   0  0  0  0  0  0  0  0  0  0  0  0
    9.5450    0.4140    0.2860 C   0  0  0  0  0  0  0  0  0  0  0  0
    8.9720    1.7940    0.0470 C   0  0  0  0  0  0  0  0  0  0  0  0
    7.6740    1.7570    0.5710 O   0  0  0  0  0  0  0  0  0  0  0  0
    2.2250   -1.4590   -0.3690 N   0  0  0  0  0  0  0  0  0  0  0  0
   -2.9480   -2.4020    0.7360 C   0  0  0  0  0  0  0  0  0  0  0  0
   -4.2140   -2.8610    1.1180 C   0  0  0  0  0  0  0  0  0  0  0  0
   -4.3980   -4.2220    1.6340 C   0  0  0  0  0  0  0  0  0  0  0  0
   -5.5150   -4.6560    1.9810 O   0  0  0  0  0  0  0  0  0  0  0  0
   -5.2560   -1.9810    0.9850 C   0  0  0  0  0  0  0  0  0  0  0  0
   -5.0700   -0.6980    0.4960 C   0  0  0  0  0  0  0  0  0  0  0  0
   -6.1770    0.1290    0.3960 C   0  0  0  0  0  0  0  0  0  0  0  0
   -6.0200    1.3970   -0.0800 C   0  0  0  0  0  0  0  0  0  0  0  0
   -7.3340    2.1000   -0.0990 C   0  0  0  0  0  0  0  0  0  0  0  0
   -8.3430    1.0190    0.1090 C   0  0  0  0  0  0  0  0  0  0  0  0
   -7.6090   -0.1270    0.7350 C   0  0  0  0  0  0  0  0  0  0  0  0
  1  2  1  0
  2  3  2  0
  2 30  1  0
  3  4  1  0
  4  5  2  0
  4 28  1  0
  5  6  1  0
  5 23  1  0
  6  7  1  0
  7  8  2  0
  7  9  1  0
  9 10  2  0
  9 22  1  0
 10 11  1  0
 11 12  2  0
 12 13  1  0
 13 14  1  0
 13 22  2  0
 14 15  1  0
 15 16  1  0
 17 16  1  1
 17 18  1  0
 17 21  1  0
 18 19  1  0
 19 20  1  0
 20 21  1  0
 23 24  2  0
 24 25  1  0
 24 27  1  0
 25 26  2  0
 27 28  2  0
 28 29  1  0
 29 30  2  0
 29 33  1  0
 30 31  1  0
 31 32  1  0
 32 33  1  0
M  END
