
     RDKit          3D

 21 21  0  0  0  0  0  0  0  0999 V2000
   -3.9970    1.1490   -2.3510 C   0  0  0  0  0  0  0  0  0  0  0  0
   -4.4120    0.6610   -1.0030 C   0  0  0  0  0  0  0  0  0  0  0  0
   -3.4410    0.2620   -0.1360 C   0  0  0  0  0  0  0  0  0  0  0  0
   -2.0780    0.3510   -0.6270 C   0  0  0  0  0  0  0  0  0  0  0  0
   -0.9670    0.0300   -0.0430 C   0  0  0  0  0  0  0  0  0  0  0  0
    0.3770    0.1710   -0.6500 C   0  0  0  0  0  0  0  0  0  0  0  0
    0.5290    0.7270   -1.9960 C   0  0  0  0  0  0  0  0  0  0  0  0
    1.4400   -0.1840    0.0100 C   0  0  0  0  0  0  0  0  0  0  0  0
    2.8170   -0.1060   -0.4550 C   0  0  0  0  0  0  0  0  0  0  0  0
    3.8370   -0.4790    0.2660 C   0  0  0  0  0  0  0  0  0  0  0  0
    5.2370   -0.4250   -0.1450 C   0  0  0  0  0  0  0  0  0  0  0  0
    5.7320    0.0560   -1.4340 C   0  0  0  0  0  0  0  0  0  0  0  0
    6.1950   -0.8450    0.7050 C   0  0  0  0  0  0  0  0  0  0  0  0
    7.6200   -0.8140    0.3470 C   0  0  0  0  0  0  0  0  0  0  0  0
    8.2790    0.0560    1.3350 N   0  0  0  0  0  0  0  0  0  0  0  0
   -3.9080   -0.1790    1.1610 C   0  0  1  0  0  0  0  0  0  0  0  0
   -4.5110   -1.5700    0.9840 C   0  0  0  0  0  0  0  0  0  0  0  0
   -2.9430   -0.2440    2.2910 C   0  0  0  0  0  0  0  0  0  0  0  0
   -5.0340    0.8000    1.5910 C   0  0  0  0  0  0  0  0  0  0  0  0
   -6.2110    0.4610    0.7350 C   0  0  0  0  0  0  0  0  0  0  0  0
   -5.8390    0.6080   -0.7050 C   0  0  0  0  0  0  0  0  0  0  0  0
  1  2  1  0
  2  3  2  0
  2 21  1  0
  3  4  1  0
  3 16  1  0
  4  5  2  3
  5  6  1  0
  6  7  1  0
  6  8  2  3
  8  9  1  0
  9 10  2  3
 10 11  1  0
 11 12  1  0
 11 13  2  3
 13 14  1  0
 14 15  1  0
 16 17  1  6
 16 18  1  0
 16 19  1  0
 19 20  1  0
 20 21  1  0
M  CHG  1  15   1
M  END
