
     RDKit          3D

 23 25  0  0  0  0  0  0  0  0999 V2000
   -5.5180    1.1790    0.1540 C   0  0  0  0  0  0  0  0  0  0  0  0
   -4.9410   -0.2140    0.2280 C   0  0  2  0  0  0  0  0  0  0  0  0
   -5.4030   -1.0210   -0.9820 C   0  0  0  0  0  0  0  0  0  0  0  0
   -5.4540   -0.8820    1.4880 C   0  0  0  0  0  0  0  0  0  0  0  0
   -3.5720   -0.2300    0.2560 O   0  0  0  0  0  0  0  0  0  0  0  0
   -3.0210    0.3500   -0.8640 C   0  0  0  0  0  0  0  0  0  0  0  0
   -1.4920    0.2710   -0.7170 C   0  0  0  0  0  0  0  0  0  0  0  0
   -0.8220   -0.2250    0.2400 N   0  0  0  0  0  0  0  0  0  0  0  0
    0.4110   -0.3030    0.3860 C   0  0  0  0  0  0  0  0  0  0  0  0
    1.5410   -0.9320    1.5980 S   0  0  0  0  0  0  0  0  0  0  0  0
    3.2300   -0.6960    1.1370 C   0  0  0  0  0  0  0  0  0  0  0  0
    4.1400    0.3130    1.3470 C   0  0  0  0  0  0  0  0  0  0  0  0
    5.3790    0.1780    0.8480 C   0  0  0  0  0  0  0  0  0  0  0  0
    6.4320    1.1130    0.9690 C   0  0  0  0  0  0  0  0  0  0  0  0
    6.2830    2.2070    1.5890 O   0  0  0  0  0  0  0  0  0  0  0  0
    7.6250    0.8800    0.4360 N   0  0  0  0  0  0  0  0  0  0  0  0
    7.9640   -0.2210   -0.2520 C   0  0  0  0  0  0  0  0  0  0  0  0
    6.9840   -1.1720   -0.4070 C   0  0  0  0  0  0  0  0  0  0  0  0
    5.6810   -0.9440    0.1610 C   0  0  0  0  0  0  0  0  0  0  0  0
    4.2570   -1.8810    0.1670 S   0  0  0  0  0  0  0  0  0  0  0  0
    0.9430    0.5170   -1.1980 S   0  0  0  0  0  0  0  0  0  0  0  0
   -0.7200    0.8350   -1.8060 C   0  0  0  0  0  0  0  0  0  0  0  0
   -1.2260    1.5690   -3.2210 Cl  0  0  0  0  0  0  0  0  0  0  0  0
  2  1  1  6
  2  3  1  0
  2  4  1  0
  2  5  1  0
  5  6  1  0
  6  7  1  0
  7  8  1  0
  7 22  2  0
  8  9  2  0
  9 10  1  0
  9 21  1  0
 10 11  1  0
 11 12  2  0
 11 20  1  0
 12 13  1  0
 13 14  1  0
 13 19  2  0
 14 15  2  0
 14 16  1  0
 16 17  1  0
 17 18  2  0
 18 19  1  0
 19 20  1  0
 21 22  1  0
 22 23  1  0
M  END
