
     RDKit          3D

 23 25  0  0  0  0  0  0  0  0999 V2000
    7.2190   -0.6050    0.2180 C   0  0  0  0  0  0  0  0  0  0  0  0
    6.3560    0.8700   -0.3930 S   0  0  0  0  0  0  0  0  0  0  0  0
    4.5930    0.7370   -0.1210 C   0  0  0  0  0  0  0  0  0  0  0  0
    4.0170   -0.3670    0.4800 C   0  0  0  0  0  0  0  0  0  0  0  0
    2.6510   -0.4050    0.6600 C   0  0  0  0  0  0  0  0  0  0  0  0
    1.8210    0.6260    0.2590 C   0  0  0  0  0  0  0  0  0  0  0  0
    0.0620    0.5220    0.5170 S   0  0  0  0  0  0  0  0  0  0  0  0
   -0.7590   -0.2340   -0.8740 C   0  0  0  0  0  0  0  0  0  0  0  0
   -0.1370   -0.6940   -2.0260 C   0  0  0  0  0  0  0  0  0  0  0  0
   -1.0960   -1.1820   -2.8080 N   0  0  0  0  0  0  0  0  0  0  0  0
   -2.2570   -1.0480   -2.2060 N   0  0  0  0  0  0  0  0  0  0  0  0
   -2.0920   -0.4550   -0.9840 C   0  0  0  0  0  0  0  0  0  0  0  0
   -3.2190   -0.1680   -0.0640 C   0  0  0  0  0  0  0  0  0  0  0  0
   -3.0220    0.3970    1.0880 C   0  0  0  0  0  0  0  0  0  0  0  0
   -4.3480    0.7380    2.1780 S   0  0  2  0  0  0  0  0  0  0  0  0
   -4.4220    2.2310    2.4600 O   0  0  0  0  0  0  0  0  0  0  0  0
   -4.1580    0.0710    3.5090 O   0  0  0  0  0  0  0  0  0  0  0  0
   -5.8650    0.2180    1.4800 C   0  0  0  0  0  0  0  0  0  0  0  0
   -5.6750   -0.3820    0.1470 C   0  0  0  0  0  0  0  0  0  0  0  0
   -4.5510   -0.5440   -0.5060 C   0  0  0  0  0  0  0  0  0  0  0  0
   -4.7520   -1.3180   -2.1030 Cl  0  0  0  0  0  0  0  0  0  0  0  0
    2.4190    1.7150   -0.3370 C   0  0  0  0  0  0  0  0  0  0  0  0
    3.7980    1.7760   -0.5290 C   0  0  0  0  0  0  0  0  0  0  0  0
  1  2  1  0
  2  3  1  0
  3  4  2  0
  3 23  1  0
  4  5  1  0
  5  6  2  0
  6  7  1  0
  6 22  1  0
  7  8  1  0
  8  9  2  0
  8 12  1  0
  9 10  1  0
 10 11  1  0
 11 12  2  0
 12 13  1  0
 13 14  2  0
 13 20  1  0
 14 15  1  0
 15 16  2  0
 15 17  2  0
 15 18  1  6
 18 19  1  0
 19 20  2  0
 20 21  1  0
 22 23  2  0
M  END
