
     RDKit          3D

 23 26  0  0  0  0  0  0  0  0999 V2000
    2.1890    3.5880    2.0150 O   0  0  0  0  0  0  0  0  0  0  0  0
    2.6350    2.7920    1.1810 C   0  0  0  0  0  0  0  0  0  0  0  0
    4.1110    3.0570    0.2400 S   0  0  0  0  0  0  0  0  0  0  0  0
    4.0190    1.5670   -0.7210 C   0  0  0  0  0  0  0  0  0  0  0  0
    4.6840    0.8860   -1.7460 C   0  0  0  0  0  0  0  0  0  0  0  0
    3.9700   -0.2280   -1.9300 N   0  0  0  0  0  0  0  0  0  0  0  0
    2.9300   -0.2560   -1.0880 N   0  0  0  0  0  0  0  0  0  0  0  0
    2.9270    0.8710   -0.3010 C   0  0  0  0  0  0  0  0  0  0  0  0
    2.1250    1.4730    0.7350 C   0  0  0  0  0  0  0  0  0  0  0  0
    0.9870    1.0080    1.2940 C   0  0  0  0  0  0  0  0  0  0  0  0
    0.3130   -0.2270    1.0380 C   0  0  0  0  0  0  0  0  0  0  0  0
    0.9770   -1.4230    1.1590 C   0  0  0  0  0  0  0  0  0  0  0  0
    0.3910   -2.6520    0.9230 C   0  0  0  0  0  0  0  0  0  0  0  0
   -0.9390   -2.7150    0.5420 C   0  0  0  0  0  0  0  0  0  0  0  0
   -1.6740   -4.2770    0.2460 Cl  0  0  0  0  0  0  0  0  0  0  0  0
   -1.6260   -1.5310    0.4140 C   0  0  0  0  0  0  0  0  0  0  0  0
   -2.9500   -1.5900    0.0350 O   0  0  0  0  0  0  0  0  0  0  0  0
   -3.7530   -0.4200   -0.1280 C   0  0  0  0  0  0  0  0  0  0  0  0
   -4.5230   -0.0580    0.8430 C   0  0  0  0  0  0  0  0  0  0  0  0
   -5.4960    1.4170    0.5580 S   0  0  0  0  0  0  0  0  0  0  0  0
   -5.2240    1.2700   -1.5920 S   0  0  0  0  0  0  0  0  0  0  0  0
   -3.6720    0.3200   -1.3760 C   0  0  0  0  0  0  0  0  0  0  0  0
   -1.0260   -0.3210    0.6530 C   0  0  0  0  0  0  0  0  0  0  0  0
  1  2  2  0
  2  3  1  0
  2  9  1  0
  3  4  1  0
  4  5  1  0
  4  8  2  0
  5  6  2  0
  6  7  1  0
  7  8  1  0
  8  9  1  0
  9 10  2  3
 10 11  1  0
 11 12  2  0
 11 23  1  0
 12 13  1  0
 13 14  2  0
 14 15  1  0
 14 16  1  0
 16 17  1  0
 16 23  2  0
 17 18  1  0
 18 19  2  0
 18 22  1  0
 19 20  1  0
 20 21  1  0
 21 22  1  0
M  END
