
     RDKit          3D

 20 20  0  0  0  0  0  0  0  0999 V2000
   -4.6870    1.5900   -1.3700 C   0  0  0  0  0  0  0  0  0  0  0  0
   -4.2330    0.2530   -1.4030 O   0  0  0  0  0  0  0  0  0  0  0  0
   -3.7390   -0.4250   -0.3270 C   0  0  0  0  0  0  0  0  0  0  0  0
   -2.4360   -0.5050    0.1050 C   0  0  0  0  0  0  0  0  0  0  0  0
   -1.2550    0.1380   -0.5120 C   0  0  0  0  0  0  0  0  0  0  0  0
   -1.3660    0.8490   -1.5410 O   0  0  0  0  0  0  0  0  0  0  0  0
    0.0440   -0.0210    0.0300 N   0  0  0  0  0  0  0  0  0  0  0  0
    1.2150    0.6020   -0.5590 C   0  0  0  0  0  0  0  0  0  0  0  0
    2.4700    0.2970    0.1780 C   0  0  0  0  0  0  0  0  0  0  0  0
    3.6150    0.9940   -0.5250 C   0  0  0  0  0  0  0  0  0  0  0  0
    4.9370    0.7380    0.1610 C   0  0  0  0  0  0  0  0  0  0  0  0
    5.3240   -1.0760    0.1910 P   0  0  0  0  0  0  0  0  0  0  0  0
    5.6000   -1.5780   -1.4500 O   0  0  0  0  0  0  0  0  0  0  0  0
    6.8360   -1.2780    1.0420 O   0  0  0  0  0  0  0  0  0  0  0  0
   -2.4630   -1.2830    1.1930 N   0  0  0  0  0  0  0  0  0  0  0  0
   -3.6530   -1.6890    1.4750 O   0  0  0  0  0  0  0  0  0  0  0  0
   -4.4560   -1.1880    0.5720 C   0  0  0  0  0  0  0  0  0  0  0  0
   -5.8980   -1.4420    0.5760 C   0  0  0  0  0  0  0  0  0  0  0  0
   -6.5880   -0.9200   -0.3290 O   0  0  0  0  0  0  0  0  0  0  0  0
   -6.4980   -2.2180    1.5220 O   0  0  0  0  0  0  0  0  0  0  0  0
  1  2  1  0
  2  3  1  0
  3  4  1  0
  3 17  2  0
  4  5  1  0
  4 15  2  0
  5  6  2  0
  5  7  1  0
  7  8  1  0
  8  9  1  0
  9 10  1  0
 10 11  1  0
 11 12  1  0
 12 13  1  0
 12 14  1  0
 15 16  1  0
 16 17  1  0
 17 18  1  0
 18 19  2  0
 18 20  1  0
M  END
