
     RDKit          3D

 28 28  0  0  0  0  0  0  0  0999 V2000
   -5.9420    3.1620    1.5260 C   0  0  0  0  0  0  0  0  0  0  0  0
   -5.8370    1.9110    0.8300 O   0  0  0  0  0  0  0  0  0  0  0  0
   -4.7400    1.6250    0.0300 C   0  0  0  0  0  0  0  0  0  0  0  0
   -3.8480    2.5100   -0.0540 O   0  0  0  0  0  0  0  0  0  0  0  0
   -4.6070    0.4150   -0.6610 O   0  0  0  0  0  0  0  0  0  0  0  0
   -3.4820    0.2710   -1.4060 O   0  0  0  0  0  0  0  0  0  0  0  0
   -2.4710   -0.2410   -0.5460 C   0  0  0  0  0  0  0  0  0  0  0  0
   -1.2360   -0.3980   -1.3690 C   0  0  2  0  0  0  0  0  0  0  0  0
   -1.0320    0.9790   -1.8220 O   0  0  0  0  0  0  0  0  0  0  0  0
   -1.3900   -1.1180   -2.6620 C   0  0  0  0  0  0  0  0  0  0  0  0
   -1.6410   -2.4490   -2.6360 O   0  0  0  0  0  0  0  0  0  0  0  0
   -0.0220   -0.6640   -0.6290 N   0  0  0  0  0  0  0  0  0  0  0  0
    0.9010    0.2900   -0.3290 N   0  0  0  0  0  0  0  0  0  0  0  0
    1.9260   -0.2240    0.3560 C   0  0  0  0  0  0  0  0  0  0  0  0
    3.0890    0.5240    0.8360 C   0  0  0  0  0  0  0  0  0  0  0  0
    3.9760   -0.0930    1.4670 O   0  0  0  0  0  0  0  0  0  0  0  0
    3.2560    1.8690    0.6280 O   0  0  0  0  0  0  0  0  0  0  0  0
    4.3370    2.6410    1.0570 C   0  0  0  0  0  0  0  0  0  0  0  0
    5.9610    2.0530    0.3520 P   0  0  0  0  0  0  0  0  0  0  0  0
    6.0900    2.5830   -1.3140 O   0  0  0  0  0  0  0  0  0  0  0  0
    7.2180    2.8440    1.2690 O   0  0  0  0  0  0  0  0  0  0  0  0
    1.6380   -1.5150    0.4840 N   0  0  0  0  0  0  0  0  0  0  0  0
    0.4300   -1.8010   -0.1230 C   0  0  0  0  0  0  0  0  0  0  0  0
   -0.1230   -3.1510   -0.1210 C   0  0  2  0  0  0  0  0  0  0  0  0
   -1.4490   -3.2690    0.2610 O   0  0  0  0  0  0  0  0  0  0  0  0
    0.7750   -4.1950    1.1920 P   0  0  0  0  0  0  0  0  0  0  0  0
    2.2690   -4.7720    0.5340 O   0  0  0  0  0  0  0  0  0  0  0  0
    1.0070   -3.2430    2.6130 O   0  0  0  0  0  0  0  0  0  0  0  0
  1  2  1  0
  2  3  1  0
  3  4  2  0
  3  5  1  0
  5  6  1  0
  6  7  1  0
  7  8  1  0
  8  9  1  6
  8 10  1  0
  8 12  1  0
 10 11  1  0
 12 13  1  0
 12 23  1  0
 13 14  2  0
 14 15  1  0
 14 22  1  0
 15 16  2  0
 15 17  1  0
 17 18  1  0
 18 19  1  0
 19 20  1  0
 19 21  1  0
 22 23  2  0
 23 24  1  0
 24 25  1  1
 24 26  1  0
 26 27  1  0
 26 28  1  0
M  END
