
     RDKit          3D

 28 28  0  0  0  0  0  0  0  0999 V2000
   -7.1230   -0.1060   -1.3520 O   0  0  0  0  0  0  0  0  0  0  0  0
   -6.7450   -0.1730   -0.1720 C   0  0  0  0  0  0  0  0  0  0  0  0
   -7.6950   -0.3460    0.8430 O   0  0  0  0  0  0  0  0  0  0  0  0
   -5.4170   -0.0830    0.1660 O   0  0  0  0  0  0  0  0  0  0  0  0
   -4.4350    0.0930   -0.8560 C   0  0  1  0  0  0  0  0  0  0  0  0
   -3.7330    1.3800   -0.5730 C   0  0  0  0  0  0  0  0  0  0  0  0
   -2.6800    1.6550   -1.4240 O   0  0  0  0  0  0  0  0  0  0  0  0
   -1.5180    1.1020   -1.0040 N   0  0  0  0  0  0  0  0  0  0  0  0
   -0.5210    2.1550   -1.0230 C   0  0  0  0  0  0  0  0  0  0  0  0
    0.3880    2.0540    0.1070 N   0  0  0  0  0  0  0  0  0  0  0  0
    0.7940    0.8530    0.6950 C   0  0  0  0  0  0  0  0  0  0  0  0
    0.8970    0.7630    1.9480 O   0  0  0  0  0  0  0  0  0  0  0  0
    1.1350   -0.3950   -0.0410 C   0  0  1  0  0  0  0  0  0  0  0  0
    2.9370   -0.1940   -0.5510 P   0  0  0  0  0  0  0  0  0  0  0  0
    3.1060    1.2840   -1.4370 O   0  0  0  0  0  0  0  0  0  0  0  0
    3.8460   -0.1340    0.9340 O   0  0  0  0  0  0  0  0  0  0  0  0
    5.4850    0.3390    0.6560 P   0  0  0  0  0  0  0  0  0  0  0  0
    5.4820    1.5680   -0.5660 O   0  0  0  0  0  0  0  0  0  0  0  0
    6.3300   -1.0470   -0.0080 O   0  0  0  0  0  0  0  0  0  0  0  0
    7.6890   -0.7450    0.0660 C   0  0  0  0  0  0  0  0  0  0  0  0
    8.4870   -1.7650   -0.4300 O   0  0  0  0  0  0  0  0  0  0  0  0
    1.0630   -1.5670    0.7850 N   0  0  0  0  0  0  0  0  0  0  0  0
    0.0680   -1.8190    1.7740 C   0  0  0  0  0  0  0  0  0  0  0  0
    0.4700   -2.2630    2.9090 O   0  0  0  0  0  0  0  0  0  0  0  0
   -1.2870   -1.6180    1.5950 O   0  0  0  0  0  0  0  0  0  0  0  0
   -1.9650   -2.0540    0.4190 C   0  0  0  0  0  0  0  0  0  0  0  0
   -3.3620   -1.5350    0.4000 C   0  0  0  0  0  0  0  0  0  0  0  0
   -3.6380   -1.0210   -0.8480 O   0  0  0  0  0  0  0  0  0  0  0  0
  1  2  2  0
  2  3  1  0
  2  4  1  0
  5  4  1  1
  5  6  1  0
  5 28  1  0
  6  7  1  0
  7  8  1  0
  8  9  1  0
  9 10  1  0
 10 11  1  0
 11 12  2  0
 11 13  1  0
 13 14  1  1
 13 22  1  0
 14 15  1  0
 14 16  1  0
 16 17  1  0
 17 18  1  0
 17 19  1  0
 19 20  1  0
 20 21  1  0
 22 23  1  0
 23 24  2  0
 23 25  1  0
 25 26  1  0
 26 27  1  0
 27 28  1  0
M  END
