
     RDKit          3D

 16 15  0  0  0  0  0  0  0  0999 V2000
    0.9840   -0.1740    2.4490 N   0  0  0  0  0  0  0  0  0  0  0  0
    1.6810    0.1050    1.2410 C   0  0  0  0  0  0  0  0  0  0  0  0
    2.9840    0.6690    1.2790 N   0  0  0  0  0  0  0  0  0  0  0  0
    3.9690    0.8010   -0.0690 P   0  0  0  0  0  0  0  0  0  0  0  0
    4.9280    2.1720   -0.2430 O   0  0  0  0  0  0  0  0  0  0  0  0
    3.8600   -0.2940   -1.2910 O   0  0  0  0  0  0  0  0  0  0  0  0
    5.2120    0.0740    0.4710 O   0  0  0  0  0  0  0  0  0  0  0  0
    1.1290   -0.1540    0.1190 N   0  0  0  0  0  0  0  0  0  0  0  0
   -0.1960   -0.7270    0.0880 C   0  0  0  0  0  0  0  0  0  0  0  0
   -0.9580   -0.3190   -1.1380 C   0  0  0  0  0  0  0  0  0  0  0  0
   -2.3220   -0.9340   -1.1430 C   0  0  0  0  0  0  0  0  0  0  0  0
   -3.1700   -0.5470    0.0360 C   0  0  2  0  0  0  0  0  0  0  0  0
   -4.4490   -1.2330   -0.1440 N   0  0  0  0  0  0  0  0  0  0  0  0
   -3.4100    0.8900    0.1780 C   0  0  0  0  0  0  0  0  0  0  0  0
   -4.5830    1.3360    0.1040 O   0  0  0  0  0  0  0  0  0  0  0  0
   -2.4170    1.8300    0.3940 O   0  0  0  0  0  0  0  0  0  0  0  0
  1  2  1  0
  2  3  1  0
  2  8  2  3
  3  4  1  0
  4  5  1  0
  4  6  1  0
  4  7  1  0
  8  9  1  0
  9 10  1  0
 10 11  1  0
 11 12  1  0
 12 13  1  6
 12 14  1  0
 14 15  2  0
 14 16  1  0
M  CHG  2   8   1  13   1
M  END
