
     RDKit          3D

 28 28  0  0  0  0  0  0  0  0999 V2000
   -5.9610    0.0140    1.4500 O   0  0  0  0  0  0  0  0  0  0  0  0
   -5.1400    0.4500    0.5980 C   0  0  0  0  0  0  0  0  0  0  0  0
   -4.9830   -0.2280   -0.6980 C   0  0  0  0  0  0  0  0  0  0  0  0
   -5.4280   -1.5450   -0.6610 O   0  0  0  0  0  0  0  0  0  0  0  0
   -4.5010   -2.4200   -0.4430 O   0  0  0  0  0  0  0  0  0  0  0  0
   -3.3920   -2.2170   -1.1210 O   0  0  0  0  0  0  0  0  0  0  0  0
   -2.4030   -2.9960   -0.5540 C   0  0  0  0  0  0  0  0  0  0  0  0
   -1.0910   -2.4170   -0.6600 N   0  0  0  0  0  0  0  0  0  0  0  0
   -0.7210   -1.8890    0.5720 N   0  0  0  0  0  0  0  0  0  0  0  0
    0.0330   -0.6920    0.7340 C   0  0  0  0  0  0  0  0  0  0  0  0
    0.6980   -0.5420    1.8070 O   0  0  0  0  0  0  0  0  0  0  0  0
    0.0060    0.3000   -0.3350 C   0  0  2  0  0  0  0  0  0  0  0  0
    0.6870   -0.1260   -1.4260 O   0  0  0  0  0  0  0  0  0  0  0  0
    1.9840   -0.4230   -1.2840 C   0  0  0  0  0  0  0  0  0  0  0  0
    2.9530    0.5890   -0.7790 C   0  0  0  0  0  0  0  0  0  0  0  0
    4.3850    0.0030   -0.8050 C   0  0  0  0  0  0  0  0  0  0  0  0
    5.2640    0.9700   -0.3290 O   0  0  0  0  0  0  0  0  0  0  0  0
    6.8900    0.4320   -0.3120 P   0  0  0  0  0  0  0  0  0  0  0  0
    7.8390    1.4710    0.7050 O   0  0  0  0  0  0  0  0  0  0  0  0
    7.0010   -1.1790    0.3510 O   0  0  0  0  0  0  0  0  0  0  0  0
    0.6870    1.9680    0.1750 P   0  0  0  0  0  0  0  0  0  0  0  0
    0.1790    2.4300    1.7410 O   0  0  0  0  0  0  0  0  0  0  0  0
    0.2400    3.1040   -1.0540 O   0  0  0  0  0  0  0  0  0  0  0  0
   -1.3760    0.5130   -0.6730 O   0  0  0  0  0  0  0  0  0  0  0  0
   -2.0610    0.5550    0.5390 C   0  0  0  0  0  0  0  0  0  0  0  0
   -3.0090    1.6940    0.5760 C   0  0  0  0  0  0  0  0  0  0  0  0
   -2.5490    2.8350    0.2720 O   0  0  0  0  0  0  0  0  0  0  0  0
   -4.3800    1.6000    0.9240 N   0  0  0  0  0  0  0  0  0  0  0  0
  1  2  2  0
  2  3  1  0
  2 28  1  0
  3  4  1  0
  4  5  1  0
  5  6  1  0
  6  7  1  0
  7  8  1  0
  8  9  1  0
  9 10  1  0
 10 11  2  0
 10 12  1  0
 12 13  1  6
 12 21  1  0
 12 24  1  0
 13 14  1  0
 14 15  1  0
 15 16  1  0
 16 17  1  0
 17 18  1  0
 18 19  1  0
 18 20  1  0
 21 22  1  0
 21 23  1  0
 24 25  1  0
 25 26  1  0
 26 27  2  0
 26 28  1  0
M  END
