
     RDKit          3D

 28 28  0  0  0  0  0  0  0  0999 V2000
    0.1810   -2.4400   -2.2640 O   0  0  0  0  0  0  0  0  0  0  0  0
   -0.4290   -1.8180   -1.3600 C   0  0  0  0  0  0  0  0  0  0  0  0
   -1.7950   -1.3040   -1.6110 C   0  0  0  0  0  0  0  0  0  0  0  0
   -2.3180   -0.6240   -0.4570 N   0  0  0  0  0  0  0  0  0  0  0  0
   -2.1500    0.7860   -0.2080 C   0  0  0  0  0  0  0  0  0  0  0  0
   -3.4130    1.4940    0.1530 C   0  0  2  0  0  0  0  0  0  0  0  0
   -3.9610    1.9960   -1.0490 O   0  0  0  0  0  0  0  0  0  0  0  0
   -3.0040    2.9060    1.2960 P   0  0  0  0  0  0  0  0  0  0  0  0
   -3.1400    4.3990    0.4210 O   0  0  0  0  0  0  0  0  0  0  0  0
   -3.9970    2.8990    2.7020 O   0  0  0  0  0  0  0  0  0  0  0  0
   -4.4550    0.6430    0.7900 C   0  0  0  0  0  0  0  0  0  0  0  0
   -3.9500   -0.5980    1.3430 N   0  0  0  0  0  0  0  0  0  0  0  0
   -3.0610   -1.3580    0.5370 C   0  0  0  0  0  0  0  0  0  0  0  0
   -2.9090   -2.5970    0.6600 O   0  0  0  0  0  0  0  0  0  0  0  0
    0.2290   -1.6490   -0.1560 O   0  0  0  0  0  0  0  0  0  0  0  0
    1.5140   -2.1440    0.0480 C   0  0  0  0  0  0  0  0  0  0  0  0
    2.5800   -1.6240   -0.8420 C   0  0  2  0  0  0  0  0  0  0  0  0
    3.8890   -2.2890   -0.3920 C   0  0  0  0  0  0  0  0  0  0  0  0
    4.2480   -1.8650    1.3610 P   0  0  0  0  0  0  0  0  0  0  0  0
    5.9360   -1.8370    1.6890 O   0  0  0  0  0  0  0  0  0  0  0  0
    3.4720   -2.9510    2.4770 O   0  0  0  0  0  0  0  0  0  0  0  0
    2.7820   -0.2040   -0.7800 N   0  0  0  0  0  0  0  0  0  0  0  0
    2.7610    0.6400   -1.9050 C   0  0  0  0  0  0  0  0  0  0  0  0
    2.5510    0.0980   -3.0230 O   0  0  0  0  0  0  0  0  0  0  0  0
    2.9490    1.9970   -1.8840 O   0  0  0  0  0  0  0  0  0  0  0  0
    2.9150    2.7520   -3.0140 O   0  0  0  0  0  0  0  0  0  0  0  0
    2.9320    4.0200   -2.7350 O   0  0  0  0  0  0  0  0  0  0  0  0
    4.1610    4.2970   -2.2920 O   0  0  0  0  0  0  0  0  0  0  0  0
  1  2  2  0
  2  3  1  0
  2 15  1  0
  3  4  1  0
  4  5  1  0
  4 13  1  0
  5  6  1  0
  6  7  1  6
  6  8  1  0
  6 11  1  0
  8  9  1  0
  8 10  1  0
 11 12  1  0
 12 13  1  0
 13 14  2  0
 15 16  1  0
 17 16  1  1
 17 18  1  0
 17 22  1  0
 18 19  1  0
 19 20  1  0
 19 21  1  0
 22 23  1  0
 23 24  2  0
 23 25  1  0
 25 26  1  0
 26 27  1  0
 27 28  1  0
M  END
