
     RDKit          3D

 28 29  0  0  0  0  0  0  0  0999 V2000
    5.3020   -1.8870   -0.0960 O   0  0  0  0  0  0  0  0  0  0  0  0
    4.7370   -0.9120   -0.6200 C   0  0  0  0  0  0  0  0  0  0  0  0
    5.5790    0.3390   -1.0090 C   0  0  0  0  0  0  0  0  0  0  0  0
    4.5950    1.3520   -0.6000 O   0  0  0  0  0  0  0  0  0  0  0  0
    5.0300    2.2820    0.1410 O   0  0  0  0  0  0  0  0  0  0  0  0
    6.2590    2.6480    0.1470 O   0  0  0  0  0  0  0  0  0  0  0  0
    3.4020   -0.8680   -0.8490 O   0  0  0  0  0  0  0  0  0  0  0  0
    2.4680   -1.7840   -0.2730 C   0  0  1  0  0  0  0  0  0  0  0  0
    1.4430   -0.7880    0.2760 C   0  0  0  0  0  0  0  0  0  0  0  0
    1.8480    0.2930    0.7740 O   0  0  0  0  0  0  0  0  0  0  0  0
    0.0630   -1.0680    0.1930 O   0  0  0  0  0  0  0  0  0  0  0  0
   -0.7440   -0.1500    0.7410 C   0  0  0  0  0  0  0  0  0  0  0  0
   -0.3320    0.7700    1.4390 N   0  0  0  0  0  0  0  0  0  0  0  0
   -1.5390    1.3740    2.0140 N   0  0  0  0  0  0  0  0  0  0  0  0
   -1.9100    2.6820    1.5290 C   0  0  0  0  0  0  0  0  0  0  0  0
   -2.2860    2.1820    0.0550 C   0  0  0  0  0  0  0  0  0  0  0  0
   -2.9800    0.9360    0.3780 N   0  0  0  0  0  0  0  0  0  0  0  0
   -2.2630   -0.2030    0.6180 C   0  0  1  0  0  0  0  0  0  0  0  0
   -2.7490   -1.2810   -0.1070 O   0  0  0  0  0  0  0  0  0  0  0  0
   -2.9990   -0.9940   -1.4600 C   0  0  0  0  0  0  0  0  0  0  0  0
   -4.9390   -0.9470   -1.5100 P   0  0  0  0  0  0  0  0  0  0  0  0
   -5.5070   -0.6770    0.1410 O   0  0  0  0  0  0  0  0  0  0  0  0
   -5.4750    0.2230   -2.6090 O   0  0  0  0  0  0  0  0  0  0  0  0
   -2.4690   -0.7110    2.0120 O   0  0  0  0  0  0  0  0  0  0  0  0
   -2.2530    0.4950    2.8520 C   0  0  0  0  0  0  0  0  0  0  0  0
    1.8110   -3.2390   -0.9720 P   0  0  0  0  0  0  0  0  0  0  0  0
    2.4550   -4.6790   -0.2330 O   0  0  0  0  0  0  0  0  0  0  0  0
    1.7250   -3.3400   -2.6510 O   0  0  0  0  0  0  0  0  0  0  0  0
  1  2  2  0
  2  3  1  0
  2  7  1  0
  3  4  1  0
  4  5  1  0
  5  6  1  0
  8  7  1  6
  8  9  1  0
  8 26  1  0
  9 10  2  0
  9 11  1  0
 11 12  1  0
 12 13  2  0
 12 18  1  0
 13 14  1  0
 14 15  1  0
 14 25  1  0
 15 16  1  0
 16 17  1  0
 17 18  1  0
 18 19  1  6
 18 24  1  0
 19 20  1  0
 20 21  1  0
 21 22  1  0
 21 23  1  0
 24 25  1  0
 26 27  1  0
 26 28  1  0
M  END
