
     RDKit          3D

  9  8  0  0  0  0  0  0  0  0999 V2000
   -0.9100   -1.4250    0.2940 C   0  0  0  0  0  0  0  0  0  0  0  0
   -0.5810   -0.0750    0.0090 N   0  0  0  0  0  0  0  0  0  0  0  0
   -1.4780    0.9060    0.4900 C   0  0  2  0  0  0  0  0  0  0  0  0
   -1.5390    0.8250    1.8970 O   0  0  0  0  0  0  0  0  0  0  0  0
   -2.7420    0.7180   -0.0670 O   0  0  0  0  0  0  0  0  0  0  0  0
    0.7920    0.2670    0.0220 C   0  0  2  0  0  0  0  0  0  0  0  0
    0.8710    1.6590   -0.2100 O   0  0  0  0  0  0  0  0  0  0  0  0
    1.6070   -0.4380   -1.0040 C   0  0  0  0  0  0  0  0  0  0  0  0
    2.9430   -0.0140   -0.8770 O   0  0  0  0  0  0  0  0  0  0  0  0
  1  2  1  0
  2  3  1  0
  2  6  1  0
  3  4  1  1
  3  5  1  0
  6  7  1  6
  6  8  1  0
  8  9  1  0
M  END
