
     RDKit          3D

 21 22  0  0  0  0  0  0  0  0999 V2000
    7.4090   -0.3670    0.9700 C   0  0  0  0  0  0  0  0  0  0  0  0
    6.5370    0.2390   -0.1120 C   0  0  0  0  0  0  0  0  0  0  0  0
    5.2850   -0.5240   -0.2750 C   0  0  0  0  0  0  0  0  0  0  0  0
    4.1270    0.0560   -0.0880 C   0  0  0  0  0  0  0  0  0  0  0  0
    2.8990   -0.6950   -0.2490 C   0  0  0  0  0  0  0  0  0  0  0  0
    1.6880   -0.1850   -0.0780 C   0  0  0  0  0  0  0  0  0  0  0  0
    1.6490    1.2620    0.3040 C   0  0  0  0  0  0  0  0  0  0  0  0
    0.3080    1.6500    0.8880 C   0  0  0  0  0  0  0  0  0  0  0  0
   -0.2540    0.4110    1.5470 C   0  0  0  0  0  0  0  0  0  0  0  0
   -0.7110   -0.6140    0.5470 C   0  0  1  0  0  0  0  0  0  0  0  0
   -1.9330   -0.3190   -0.2210 C   0  0  0  0  0  0  0  0  0  0  0  0
   -3.2100   -0.1350    0.5720 C   0  0  1  0  0  0  0  0  0  0  0  0
   -3.5100   -1.3970    1.3970 C   0  0  0  0  0  0  0  0  0  0  0  0
   -3.2360    1.0330    1.4750 C   0  0  0  0  0  0  0  0  0  0  0  0
   -4.3540   -0.0200   -0.4320 C   0  0  1  0  0  0  0  0  0  0  0  0
   -4.4270   -1.1730   -1.2530 O   0  0  0  0  0  0  0  0  0  0  0  0
   -5.7080    0.4430   -0.0260 C   0  0  0  0  0  0  0  0  0  0  0  0
   -4.8420    1.2460   -0.9530 C   0  0  0  0  0  0  0  0  0  0  0  0
    0.4750   -1.0110   -0.2640 C   0  0  1  0  0  0  0  0  0  0  0  0
    0.2520   -1.1810   -1.7350 C   0  0  0  0  0  0  0  0  0  0  0  0
    0.0530    0.0580   -2.5230 C   0  0  0  0  0  0  0  0  0  0  0  0
  1  2  1  0
  2  3  1  0
  3  4  2  3
  4  5  1  0
  5  6  2  3
  6  7  1  0
  6 19  1  0
  7  8  1  0
  8  9  1  0
  9 10  1  0
 10 11  1  6
 10 19  1  0
 11 12  1  0
 12 13  1  1
 12 14  1  0
 12 15  1  0
 15 16  1  6
 15 17  1  0
 15 18  1  0
 17 18  1  0
 19 20  1  6
 20 21  1  0
M  END
