
     RDKit          3D

 21 22  0  0  0  0  0  0  0  0999 V2000
   -3.8330    0.1930    1.6600 C   0  0  0  0  0  0  0  0  0  0  0  0
   -3.0590    0.1680    0.6220 C   0  0  0  0  0  0  0  0  0  0  0  0
   -2.0650   -0.8950    0.3190 C   0  0  0  0  0  0  0  0  0  0  0  0
   -1.1430   -0.3970   -0.4760 C   0  0  0  0  0  0  0  0  0  0  0  0
   -0.0200   -1.1700   -0.9810 C   0  0  0  0  0  0  0  0  0  0  0  0
    1.0150   -0.6600   -1.9190 C   0  0  0  0  0  0  0  0  0  0  0  0
    1.8840    0.4300   -1.4120 C   0  0  0  0  0  0  0  0  0  0  0  0
    2.6500    0.0570   -0.1480 C   0  0  0  0  0  0  0  0  0  0  0  0
    3.5110    1.2140    0.3170 C   0  0  0  0  0  0  0  0  0  0  0  0
    4.2590    0.8220    1.5690 C   0  0  0  0  0  0  0  0  0  0  0  0
    5.1100    1.9920    2.0120 C   0  0  0  0  0  0  0  0  0  0  0  0
    0.0390   -2.4430   -0.5940 C   0  0  0  0  0  0  0  0  0  0  0  0
    1.2050   -3.2600   -1.1090 C   0  0  0  0  0  0  0  0  0  0  0  0
   -0.9360   -3.1040    0.2560 C   0  0  0  0  0  0  0  0  0  0  0  0
   -2.0020   -2.2750    0.8070 C   0  0  1  0  0  0  0  0  0  0  0  0
   -2.0010   -2.2810    2.2360 O   0  0  0  0  0  0  0  0  0  0  0  0
   -1.4180    1.0560   -0.7190 C   0  0  2  0  0  0  0  0  0  0  0  0
   -0.7280    1.9480    0.2950 C   0  0  0  0  0  0  0  0  0  0  0  0
   -2.9280    1.1250   -0.5130 C   0  0  1  0  0  0  0  0  0  0  0  0
   -3.6620    0.6700   -1.7300 C   0  0  0  0  0  0  0  0  0  0  0  0
   -3.4090    2.4680   -0.0800 C   0  0  0  0  0  0  0  0  0  0  0  0
  1  2  2  0
  2  3  1  0
  2 19  1  0
  3  4  2  0
  3 15  1  0
  4  5  1  0
  4 17  1  0
  5  6  1  0
  5 12  2  0
  6  7  1  0
  7  8  1  0
  8  9  1  0
  9 10  1  0
 10 11  1  0
 12 13  1  0
 12 14  1  0
 14 15  1  0
 15 16  1  1
 17 18  1  1
 17 19  1  0
 19 20  1  6
 19 21  1  0
M  END
