
     RDKit          3D

 21 21  0  0  0  0  0  0  0  0999 V2000
   -4.4640   -0.4000    0.0580 C   0  0  0  0  0  0  0  0  0  0  0  0
   -3.0510   -0.7510   -0.1050 C   0  0  0  0  0  0  0  0  0  0  0  0
   -2.0130    0.3630    0.0280 C   0  0  1  0  0  0  0  0  0  0  0  0
   -2.3120    1.4030   -1.0160 C   0  0  0  0  0  0  0  0  0  0  0  0
   -2.3400    1.0850   -2.4330 C   0  0  0  0  0  0  0  0  0  0  0  0
   -2.1600    0.9610    1.3810 C   0  0  2  0  0  0  0  0  0  0  0  0
   -3.1140    0.2820    2.3410 C   0  0  0  0  0  0  0  0  0  0  0  0
   -2.6750    2.4120    1.3850 C   0  0  0  0  0  0  0  0  0  0  0  0
   -1.0140    1.0930    2.1440 O   0  0  0  0  0  0  0  0  0  0  0  0
   -0.2710   -0.0260    2.3220 C   0  0  0  0  0  0  0  0  0  0  0  0
   -0.3420   -0.9790    1.1620 C   0  0  0  0  0  0  0  0  0  0  0  0
   -0.6080   -0.2870   -0.1580 C   0  0  1  0  0  0  0  0  0  0  0  0
   -0.6860   -1.3940   -1.1690 C   0  0  0  0  0  0  0  0  0  0  0  0
    0.5630   -2.1530   -1.4740 C   0  0  0  0  0  0  0  0  0  0  0  0
    0.3950    0.7510   -0.4130 C   0  0  0  0  0  0  0  0  0  0  0  0
    1.8030    0.6090   -0.6680 C   0  0  0  0  0  0  0  0  0  0  0  0
    2.7420   -0.0140    0.3200 C   0  0  0  0  0  0  0  0  0  0  0  0
    4.1880    0.0300   -0.2250 C   0  0  2  0  0  0  0  0  0  0  0  0
    5.0410   -0.6190    0.8450 C   0  0  0  0  0  0  0  0  0  0  0  0
    4.5990    1.4530   -0.3910 C   0  0  0  0  0  0  0  0  0  0  0  0
    4.3270   -0.7690   -1.4780 C   0  0  0  0  0  0  0  0  0  0  0  0
  1  2  1  0
  3  2  1  1
  3  4  1  0
  3  6  1  0
  3 12  1  0
  4  5  1  0
  6  7  1  1
  6  8  1  0
  6  9  1  0
  9 10  1  0
 10 11  1  0
 11 12  1  0
 12 13  1  6
 12 15  1  0
 13 14  1  0
 15 16  1  0
 16 17  1  0
 17 18  1  0
 18 19  1  1
 18 20  1  0
 18 21  1  0
M  END
