
     RDKit          3D

 21 22  0  0  0  0  0  0  0  0999 V2000
   -1.2960   -0.4260   -2.6560 C   0  0  0  0  0  0  0  0  0  0  0  0
   -1.5680   -0.8470   -1.2440 C   0  0  0  0  0  0  0  0  0  0  0  0
   -2.2800    0.1130   -0.4030 C   0  0  2  0  0  0  0  0  0  0  0  0
   -1.7480    1.4540   -0.1440 C   0  0  0  0  0  0  0  0  0  0  0  0
   -0.4770    1.7310    0.5010 C   0  0  0  0  0  0  0  0  0  0  0  0
    0.7610    1.2600   -0.1960 C   0  0  0  0  0  0  0  0  0  0  0  0
    2.0280    1.6430    0.5660 C   0  0  2  0  0  0  0  0  0  0  0  0
    2.1710    3.1180    0.7440 C   0  0  0  0  0  0  0  0  0  0  0  0
    3.1040    1.2420   -0.2530 O   0  0  0  0  0  0  0  0  0  0  0  0
    2.0970    0.8850    1.8440 C   0  0  0  0  0  0  0  0  0  0  0  0
    2.1170   -0.6120    1.6040 C   0  0  0  0  0  0  0  0  0  0  0  0
    3.2860   -1.0180    0.7830 C   0  0  0  0  0  0  0  0  0  0  0  0
    3.1940   -1.6200   -0.3800 C   0  0  0  0  0  0  0  0  0  0  0  0
    4.5600   -1.8610   -0.8860 C   0  0  0  0  0  0  0  0  0  0  0  0
    5.4290   -1.3020    0.1730 C   0  0  0  0  0  0  0  0  0  0  0  0
    4.6840   -0.8130    1.1420 C   0  0  0  0  0  0  0  0  0  0  0  0
   -2.4550   -0.5510    0.9830 C   0  0  0  0  0  0  0  0  0  0  0  0
   -3.2380   -1.8310    0.8610 C   0  0  0  0  0  0  0  0  0  0  0  0
   -4.5660   -1.6630    0.2210 C   0  0  0  0  0  0  0  0  0  0  0  0
   -4.5180   -0.8860   -1.0730 C   0  0  0  0  0  0  0  0  0  0  0  0
   -3.7260    0.3380   -0.8680 C   0  0  0  0  0  0  0  0  0  0  0  0
  1  2  1  0
  3  2  1  6
  3  4  1  0
  3 17  1  0
  3 21  1  0
  4  5  1  0
  5  6  1  0
  6  7  1  0
  7  8  1  1
  7  9  1  0
  7 10  1  0
 10 11  1  0
 11 12  1  0
 12 13  2  0
 12 16  1  0
 13 14  1  0
 14 15  1  0
 15 16  2  0
 17 18  1  0
 18 19  1  0
 19 20  1  0
 20 21  1  0
M  END
