
     RDKit          3D

 21 22  0  0  0  0  0  0  0  0999 V2000
    3.7840    2.4010    0.6880 C   0  0  0  0  0  0  0  0  0  0  0  0
    3.9830    1.0930   -0.0010 C   0  0  0  0  0  0  0  0  0  0  0  0
    2.7070    0.5780   -0.6500 C   0  0  2  0  0  0  0  0  0  0  0  0
    1.6150    0.3710    0.3250 C   0  0  0  0  0  0  0  0  0  0  0  0
    0.3400   -0.0950   -0.2690 C   0  0  0  0  0  0  0  0  0  0  0  0
    0.2290   -0.1940   -1.5160 O   0  0  0  0  0  0  0  0  0  0  0  0
   -0.8080   -0.4450    0.5760 C   0  0  0  0  0  0  0  0  0  0  0  0
   -0.8850   -0.4140    1.8920 C   0  0  0  0  0  0  0  0  0  0  0  0
   -2.2090   -0.8450    2.3130 C   0  0  0  0  0  0  0  0  0  0  0  0
   -2.6770   -0.9430    3.7120 C   0  0  0  0  0  0  0  0  0  0  0  0
   -2.9560   -1.1440    1.2710 C   0  0  0  0  0  0  0  0  0  0  0  0
   -4.3550   -1.6230    1.2150 C   0  0  0  0  0  0  0  0  0  0  0  0
   -2.1170   -0.8930    0.0650 C   0  0  1  0  0  0  0  0  0  0  0  0
   -2.7640    0.1750   -0.7490 C   0  0  0  0  0  0  0  0  0  0  0  0
   -2.3340    1.3920   -1.0180 C   0  0  0  0  0  0  0  0  0  0  0  0
   -3.3320    2.0940   -1.8790 C   0  0  0  0  0  0  0  0  0  0  0  0
   -4.3810    1.0900   -2.0520 C   0  0  0  0  0  0  0  0  0  0  0  0
   -4.0480    0.0040   -1.4060 C   0  0  0  0  0  0  0  0  0  0  0  0
    3.0270   -0.7510   -1.3350 C   0  0  2  0  0  0  0  0  0  0  0  0
    3.5270   -1.7910   -0.3870 C   0  0  0  0  0  0  0  0  0  0  0  0
    4.1060   -0.4810   -2.4020 C   0  0  0  0  0  0  0  0  0  0  0  0
  1  2  1  0
  3  2  1  1
  3  4  1  0
  3 19  1  0
  4  5  1  0
  5  6  2  0
  5  7  1  0
  7  8  2  0
  7 13  1  0
  8  9  1  0
  9 10  1  0
  9 11  2  0
 11 12  1  0
 11 13  1  0
 13 14  1  6
 14 15  2  0
 14 18  1  0
 15 16  1  0
 16 17  1  0
 17 18  2  0
 19 20  1  1
 19 21  1  0
M  END
