
     RDKit          3D

 20 20  0  0  0  0  0  0  0  0999 V2000
    0.4860   -2.9810    1.6230 C   0  0  0  0  0  0  0  0  0  0  0  0
   -0.2630   -1.9260    0.8690 C   0  0  0  0  0  0  0  0  0  0  0  0
    0.4090   -0.9000    0.3610 C   0  0  0  0  0  0  0  0  0  0  0  0
    1.8770   -0.8770    0.5840 C   0  0  0  0  0  0  0  0  0  0  0  0
    2.2850    0.2370    1.4880 C   0  0  0  0  0  0  0  0  0  0  0  0
    3.7860    0.3010    1.6890 C   0  0  1  0  0  0  0  0  0  0  0  0
    4.3410   -0.9500    2.2930 C   0  0  0  0  0  0  0  0  0  0  0  0
    4.5130    0.6080    0.4120 C   0  0  0  0  0  0  0  0  0  0  0  0
   -0.2790    0.1660   -0.4150 C   0  0  0  0  0  0  0  0  0  0  0  0
    0.4230    1.1410   -0.9430 C   0  0  0  0  0  0  0  0  0  0  0  0
   -0.0370    2.2830   -1.7290 C   0  0  2  0  0  0  0  0  0  0  0  0
    0.7120    2.3640   -3.0740 C   0  0  0  0  0  0  0  0  0  0  0  0
    0.3390    3.5740   -1.0130 C   0  0  0  0  0  0  0  0  0  0  0  0
   -1.7460    0.1200   -0.6220 C   0  0  1  0  0  0  0  0  0  0  0  0
   -2.0790   -1.0560   -1.5010 C   0  0  0  0  0  0  0  0  0  0  0  0
   -3.4290   -1.4820   -1.0250 C   0  0  0  0  0  0  0  0  0  0  0  0
   -3.6810   -0.5920    0.1520 C   0  0  1  0  0  0  0  0  0  0  0  0
   -4.5620    0.5610   -0.3360 C   0  0  0  0  0  0  0  0  0  0  0  0
   -4.4010   -1.3490    1.2430 C   0  0  0  0  0  0  0  0  0  0  0  0
   -2.4480   -0.1100    0.5770 O   0  0  0  0  0  0  0  0  0  0  0  0
  1  2  1  0
  2  3  2  3
  3  4  1  0
  3  9  1  0
  4  5  1  0
  5  6  1  0
  6  7  1  6
  6  8  1  0
  9 10  2  3
 14  9  1  1
 10 11  1  0
 11 12  1  6
 11 13  1  0
 14 15  1  0
 14 20  1  0
 15 16  1  0
 16 17  1  0
 17 18  1  6
 17 19  1  0
 17 20  1  0
M  END
