
     RDKit          3D

 21 21  0  0  0  0  0  0  0  0999 V2000
   -3.9220    2.4650    0.1780 C   0  0  0  0  0  0  0  0  0  0  0  0
   -4.1890    1.0040    0.1850 C   0  0  0  0  0  0  0  0  0  0  0  0
   -3.2190    0.0990    0.1680 C   0  0  0  0  0  0  0  0  0  0  0  0
   -1.8720    0.6680    0.1440 C   0  0  0  0  0  0  0  0  0  0  0  0
   -0.7610   -0.0300    0.1290 C   0  0  0  0  0  0  0  0  0  0  0  0
    0.5360    0.6460    0.1050 C   0  0  0  0  0  0  0  0  0  0  0  0
    0.5920    2.1020    0.1190 C   0  0  0  0  0  0  0  0  0  0  0  0
    1.6230   -0.0910    0.0830 C   0  0  0  0  0  0  0  0  0  0  0  0
    2.9650    0.4670    0.0570 C   0  0  0  0  0  0  0  0  0  0  0  0
    4.0300   -0.3460    0.0390 C   0  0  0  0  0  0  0  0  0  0  0  0
    5.4050    0.1060    0.0120 C   0  0  0  0  0  0  0  0  0  0  0  0
    5.8790    1.4900    0.0010 C   0  0  0  0  0  0  0  0  0  0  0  0
    6.3620   -0.8400   -0.0050 C   0  0  0  0  0  0  0  0  0  0  0  0
    7.7880   -0.4500   -0.0330 C   0  0  0  0  0  0  0  0  0  0  0  0
    8.4280   -0.9510   -1.1800 O   0  0  0  0  0  0  0  0  0  0  0  0
   -3.4140   -1.3670    0.1640 C   0  0  2  0  0  0  0  0  0  0  0  0
   -2.7850   -1.9330    1.4330 C   0  0  0  0  0  0  0  0  0  0  0  0
   -2.7580   -1.9210   -1.0750 C   0  0  0  0  0  0  0  0  0  0  0  0
   -4.8790   -1.7480    0.1030 C   0  0  0  0  0  0  0  0  0  0  0  0
   -5.6920   -0.6910   -0.6120 C   0  0  0  0  0  0  0  0  0  0  0  0
   -5.5910    0.5610    0.2270 C   0  0  0  0  0  0  0  0  0  0  0  0
  1  2  1  0
  2  3  2  0
  2 21  1  0
  3  4  1  0
  3 16  1  0
  4  5  2  3
  5  6  1  0
  6  7  1  0
  6  8  2  3
  8  9  1  0
  9 10  2  3
 10 11  1  0
 11 12  1  0
 11 13  2  3
 13 14  1  0
 14 15  1  0
 16 17  1  1
 16 18  1  0
 16 19  1  0
 19 20  1  0
 20 21  1  0
M  END
