
     RDKit          3D

 24 26  0  0  0  0  0  0  0  0999 V2000
   -1.1530    0.0260   -1.5470 C   0  0  0  0  0  0  0  0  0  0  0  0
   -1.0640   -0.1920   -0.0870 C   0  0  0  0  0  0  0  0  0  0  0  0
   -2.2600   -0.3710    0.6210 C   0  0  0  0  0  0  0  0  0  0  0  0
   -3.4630   -0.4030   -0.1220 N   0  0  0  0  0  0  0  0  0  0  0  0
   -4.7800   -0.4840    0.3930 C   0  0  0  0  0  0  0  0  0  0  0  0
   -4.9460   -0.5320    1.6310 O   0  0  0  0  0  0  0  0  0  0  0  0
   -5.9470   -0.5120   -0.5200 C   0  0  0  0  0  0  0  0  0  0  0  0
   -7.2540   -0.5880   -0.1430 C   0  0  0  0  0  0  0  0  0  0  0  0
   -8.0550   -0.5910   -1.2930 C   0  0  0  0  0  0  0  0  0  0  0  0
   -7.1770   -0.5130   -2.3490 C   0  0  0  0  0  0  0  0  0  0  0  0
   -5.9330   -0.4680   -1.8560 N   0  0  0  0  0  0  0  0  0  0  0  0
   -2.1670   -0.5360    1.9820 C   0  0  0  0  0  0  0  0  0  0  0  0
   -0.9420   -0.5300    2.6450 C   0  0  0  0  0  0  0  0  0  0  0  0
    0.2270   -0.3570    1.9440 C   0  0  0  0  0  0  0  0  0  0  0  0
    0.1470   -0.1890    0.5740 C   0  0  0  0  0  0  0  0  0  0  0  0
    1.3670   -0.0700   -0.1290 N   0  0  0  0  0  0  0  0  0  0  0  0
    2.5970    0.1180    0.5560 C   0  0  2  0  0  0  0  0  0  0  0  0
    2.7030    1.4830    1.1860 C   0  0  0  0  0  0  0  0  0  0  0  0
    3.8560    1.4070    2.1500 C   0  0  0  0  0  0  0  0  0  0  0  0
    5.0970    1.0510    1.5200 N   0  0  0  0  0  0  0  0  0  0  0  0
    5.0520    0.0780    0.4980 C   0  0  0  0  0  0  0  0  0  0  0  0
    3.8210   -0.0090   -0.3350 C   0  0  2  0  0  0  0  0  0  0  0  0
    3.8200    0.9550   -1.4770 C   0  0  0  0  0  0  0  0  0  0  0  0
    3.7580   -1.4180   -0.9290 C   0  0  0  0  0  0  0  0  0  0  0  0
  1  2  1  0
  2  3  2  0
  2 15  1  0
  3  4  1  0
  3 12  1  0
  4  5  1  0
  5  6  2  0
  5  7  1  0
  7  8  2  0
  7 11  1  0
  8  9  1  0
  9 10  2  0
 10 11  1  0
 12 13  2  0
 13 14  1  0
 14 15  2  0
 15 16  1  0
 17 16  1  6
 17 18  1  0
 17 22  1  0
 18 19  1  0
 19 20  1  0
 20 21  1  0
 21 22  1  0
 22 23  1  6
 22 24  1  0
M  CHG  1  20   1
M  END
