
     RDKit          3D

 24 26  0  0  0  0  0  0  0  0999 V2000
    6.0700    2.0070    1.8530 C   0  0  0  0  0  0  0  0  0  0  0  0
    5.5980    0.7670    2.6700 C   0  0  0  0  0  0  0  0  0  0  0  0
    5.6750   -0.4320    1.7100 C   0  0  0  0  0  0  0  0  0  0  0  0
    4.7460   -0.2650    0.6040 N   0  0  0  0  0  0  0  0  0  0  0  0
    3.3440   -0.4150    0.7670 C   0  0  0  0  0  0  0  0  0  0  0  0
    2.8880   -0.7530    1.9020 O   0  0  0  0  0  0  0  0  0  0  0  0
    2.3640   -0.1910   -0.3730 C   0  0  0  0  0  0  0  0  0  0  0  0
    1.4060   -1.3250   -0.3230 C   0  0  0  0  0  0  0  0  0  0  0  0
    0.2370   -1.3300   -1.2080 C   0  0  1  0  0  0  0  0  0  0  0  0
    0.4440   -1.2000   -2.6700 C   0  0  0  0  0  0  0  0  0  0  0  0
   -0.2140   -2.8130   -1.0970 N   0  0  0  0  0  0  0  0  0  0  0  0
   -0.9940   -0.6630   -0.7730 C   0  0  0  0  0  0  0  0  0  0  0  0
   -1.1880   -0.2290    0.5290 C   0  0  0  0  0  0  0  0  0  0  0  0
   -2.3720    0.3210    0.8940 C   0  0  0  0  0  0  0  0  0  0  0  0
   -3.3880    0.4510   -0.0510 C   0  0  0  0  0  0  0  0  0  0  0  0
   -3.1610    0.0150   -1.3360 C   0  0  0  0  0  0  0  0  0  0  0  0
   -1.9800   -0.5300   -1.6790 N   0  0  0  0  0  0  0  0  0  0  0  0
   -4.3170    0.2410   -2.0060 N   0  0  0  0  0  0  0  0  0  0  0  0
   -5.2340    0.7860   -1.2030 C   0  0  0  0  0  0  0  0  0  0  0  0
   -6.5410    1.1680   -1.4170 C   0  0  0  0  0  0  0  0  0  0  0  0
   -7.2760    1.7000   -0.3540 C   0  0  0  0  0  0  0  0  0  0  0  0
   -6.7090    1.8440    0.8890 C   0  0  0  0  0  0  0  0  0  0  0  0
   -5.3810    1.4590    1.1160 C   0  0  0  0  0  0  0  0  0  0  0  0
   -4.6610    0.9340    0.0650 C   0  0  0  0  0  0  0  0  0  0  0  0
  1  2  1  0
  2  3  1  0
  3  4  1  0
  4  5  1  0
  5  6  2  0
  5  7  1  0
  7  8  1  0
  8  9  1  0
  9 10  1  6
  9 11  1  0
  9 12  1  0
 12 13  2  0
 12 17  1  0
 13 14  1  0
 14 15  2  0
 15 16  1  0
 15 24  1  0
 16 17  2  0
 16 18  1  0
 18 19  1  0
 19 20  2  0
 19 24  1  0
 20 21  1  0
 21 22  2  0
 22 23  1  0
 23 24  2  0
M  CHG  1  11   1
M  END
