
     RDKit          3D

 24 26  0  0  0  0  0  0  0  0999 V2000
    6.2040    0.5270   -0.1670 C   0  0  0  0  0  0  0  0  0  0  0  0
    5.4850    0.7700    1.1200 C   0  0  0  0  0  0  0  0  0  0  0  0
    4.7590   -0.4540    1.6410 C   0  0  0  0  0  0  0  0  0  0  0  0
    3.7500   -0.8960    0.6410 N   0  0  0  0  0  0  0  0  0  0  0  0
    2.5300   -0.1760    0.8340 C   0  0  0  0  0  0  0  0  0  0  0  0
    1.5640   -0.2570   -0.2710 C   0  0  0  0  0  0  0  0  0  0  0  0
    0.3290    0.4260   -0.1760 C   0  0  0  0  0  0  0  0  0  0  0  0
   -0.1040    1.2640    0.9830 C   0  0  0  0  0  0  0  0  0  0  0  0
   -1.4060    1.8110    0.7900 N   0  0  0  0  0  0  0  0  0  0  0  0
   -2.5960    1.0460    0.6880 C   0  0  0  0  0  0  0  0  0  0  0  0
   -2.5240   -0.3110    0.8770 C   0  0  0  0  0  0  0  0  0  0  0  0
   -3.6560   -1.1270    0.7880 C   0  0  0  0  0  0  0  0  0  0  0  0
   -4.8750   -0.5450    0.5030 C   0  0  0  0  0  0  0  0  0  0  0  0
   -6.0110   -1.3570    0.4130 C   0  0  0  0  0  0  0  0  0  0  0  0
   -7.2330   -0.7790    0.1280 C   0  0  0  0  0  0  0  0  0  0  0  0
   -7.2530    0.5890   -0.0530 C   0  0  0  0  0  0  0  0  0  0  0  0
   -8.3600    1.1150   -0.3110 O   0  0  0  0  0  0  0  0  0  0  0  0
   -6.1540    1.3630    0.0360 N   0  0  0  0  0  0  0  0  0  0  0  0
   -4.9700    0.8170    0.3100 C   0  0  0  0  0  0  0  0  0  0  0  0
   -3.8210    1.6110    0.4050 C   0  0  0  0  0  0  0  0  0  0  0  0
   -0.3320    0.1560   -1.3410 C   0  0  0  0  0  0  0  0  0  0  0  0
    0.4390   -0.6330   -2.0970 N   0  0  0  0  0  0  0  0  0  0  0  0
    1.6100   -0.9110   -1.4790 C   0  0  0  0  0  0  0  0  0  0  0  0
    2.7160   -1.7580   -2.0130 C   0  0  0  0  0  0  0  0  0  0  0  0
  1  2  1  0
  2  3  1  0
  3  4  1  0
  4  5  1  0
  5  6  1  0
  6  7  1  0
  6 23  2  0
  7  8  1  0
  7 21  2  0
  8  9  1  0
  9 10  1  0
 10 11  2  0
 10 20  1  0
 11 12  1  0
 12 13  2  0
 13 14  1  0
 13 19  1  0
 14 15  2  0
 15 16  1  0
 16 17  2  0
 16 18  1  0
 18 19  1  0
 19 20  2  0
 21 22  1  0
 22 23  1  0
 23 24  1  0
M  CHG  1   4   1
M  END
