
     RDKit          3D

 24 26  0  0  0  0  0  0  0  0999 V2000
    7.0720   -0.1330   -0.5790 C   0  0  0  0  0  0  0  0  0  0  0  0
    5.7710   -0.0830   -0.3460 C   0  0  0  0  0  0  0  0  0  0  0  0
    4.9330    0.1570   -1.4120 N   0  0  0  0  0  0  0  0  0  0  0  0
    3.6120    0.2210   -1.2500 C   0  0  0  0  0  0  0  0  0  0  0  0
    3.0150    0.0530   -0.0180 C   0  0  0  0  0  0  0  0  0  0  0  0
    1.5560    0.1270    0.1420 C   0  0  0  0  0  0  0  0  0  0  0  0
    0.7910    1.0960   -0.4300 C   0  0  0  0  0  0  0  0  0  0  0  0
   -0.5690    1.1500   -0.2710 C   0  0  0  0  0  0  0  0  0  0  0  0
   -1.1600    0.1750    0.5040 C   0  0  0  0  0  0  0  0  0  0  0  0
   -2.6310    0.1120    0.7540 C   0  0  1  0  0  0  0  0  0  0  0  0
   -3.2810    1.4190    0.8460 C   0  0  0  0  0  0  0  0  0  0  0  0
   -4.7430    1.4010    1.1330 C   0  0  0  0  0  0  0  0  0  0  0  0
   -5.5720    0.7580    0.1490 N   0  0  0  0  0  0  0  0  0  0  0  0
   -3.1380   -0.8250   -0.2810 C   0  0  0  0  0  0  0  0  0  0  0  0
   -3.4460   -2.1840   -0.1090 C   0  0  0  0  0  0  0  0  0  0  0  0
   -3.8430   -2.7070   -1.2580 N   0  0  0  0  0  0  0  0  0  0  0  0
   -3.8080   -1.7440   -2.1810 C   0  0  0  0  0  0  0  0  0  0  0  0
   -3.3790   -0.6020   -1.5830 N   0  0  0  0  0  0  0  0  0  0  0  0
   -0.3950   -0.8090    1.0860 C   0  0  0  0  0  0  0  0  0  0  0  0
    0.9750   -0.8540    0.9180 C   0  0  0  0  0  0  0  0  0  0  0  0
    3.8570   -0.1850    1.0340 C   0  0  0  0  0  0  0  0  0  0  0  0
    3.3660   -0.3480    2.1880 O   0  0  0  0  0  0  0  0  0  0  0  0
    5.2570   -0.2610    0.9110 C   0  0  0  0  0  0  0  0  0  0  0  0
    5.9930   -0.4930    1.9690 C   0  0  0  0  0  0  0  0  0  0  0  0
  1  2  2  0
  2  3  1  0
  2 23  1  0
  3  4  1  0
  4  5  2  0
  5  6  1  0
  5 21  1  0
  6  7  2  0
  6 20  1  0
  7  8  1  0
  8  9  2  0
  9 10  1  0
  9 19  1  0
 10 11  1  6
 10 14  1  0
 11 12  1  0
 12 13  1  0
 14 15  2  0
 14 18  1  0
 15 16  1  0
 16 17  2  0
 17 18  1  0
 19 20  2  0
 21 22  2  0
 21 23  1  0
 23 24  2  0
M  CHG  1  13   1
M  END
