
     RDKit          3D

 24 26  0  0  0  0  0  0  0  0999 V2000
    6.9910    1.9750    0.3140 C   0  0  0  0  0  0  0  0  0  0  0  0
    6.3860    0.5980    0.2100 C   0  0  0  0  0  0  0  0  0  0  0  0
    7.1720   -0.5130   -0.0070 C   0  0  0  0  0  0  0  0  0  0  0  0
    6.6150   -1.7780   -0.1010 C   0  0  0  0  0  0  0  0  0  0  0  0
    5.2440   -1.9230    0.0250 C   0  0  0  0  0  0  0  0  0  0  0  0
    4.4170   -0.8410    0.2430 C   0  0  0  0  0  0  0  0  0  0  0  0
    2.9780   -0.9750    0.3760 C   0  0  0  0  0  0  0  0  0  0  0  0
    2.2470    0.0510    0.5770 N   0  0  0  0  0  0  0  0  0  0  0  0
    0.8600   -0.0170    0.7130 N   0  0  0  0  0  0  0  0  0  0  0  0
    0.0460   -0.7860   -0.1450 C   0  0  0  0  0  0  0  0  0  0  0  0
    0.5580   -1.4440   -1.0710 O   0  0  0  0  0  0  0  0  0  0  0  0
   -1.4260   -0.8250    0.0350 C   0  0  1  0  0  0  0  0  0  0  0  0
   -1.8580   -0.0610    1.1520 N   0  0  0  0  0  0  0  0  0  0  0  0
   -2.1620   -0.5000   -1.2150 C   0  0  0  0  0  0  0  0  0  0  0  0
   -3.6140   -0.5310   -1.0020 C   0  0  0  0  0  0  0  0  0  0  0  0
   -4.4410   -1.6240   -1.2380 C   0  0  0  0  0  0  0  0  0  0  0  0
   -5.6970   -1.3200   -0.9050 N   0  0  0  0  0  0  0  0  0  0  0  0
   -5.7130   -0.0630   -0.4600 C   0  0  0  0  0  0  0  0  0  0  0  0
   -6.7280    0.7410   -0.0080 C   0  0  0  0  0  0  0  0  0  0  0  0
   -6.5370    2.0400    0.4000 C   0  0  0  0  0  0  0  0  0  0  0  0
   -5.2560    2.5210    0.3370 C   0  0  0  0  0  0  0  0  0  0  0  0
   -4.2080    1.7710   -0.1030 C   0  0  0  0  0  0  0  0  0  0  0  0
   -4.4230    0.4620   -0.5080 C   0  0  0  0  0  0  0  0  0  0  0  0
    5.0350    0.4000    0.3280 C   0  0  0  0  0  0  0  0  0  0  0  0
  1  2  1  0
  2  3  2  0
  2 24  1  0
  3  4  1  0
  4  5  2  0
  5  6  1  0
  6  7  1  0
  6 24  2  0
  7  8  2  3
  8  9  1  0
  9 10  1  0
 10 11  2  0
 10 12  1  0
 12 13  1  1
 12 14  1  0
 14 15  1  0
 15 16  2  0
 15 23  1  0
 16 17  1  0
 17 18  1  0
 18 19  2  0
 18 23  1  0
 19 20  1  0
 20 21  2  0
 21 22  1  0
 22 23  2  0
M  CHG  1  13   1
M  END
