
     RDKit          3D

 24 26  0  0  0  0  0  0  0  0999 V2000
   -4.3260    3.2310    1.0520 C   0  0  0  0  0  0  0  0  0  0  0  0
   -3.8090    3.1300   -0.3600 C   0  0  0  0  0  0  0  0  0  0  0  0
   -2.7330    2.2660   -0.4860 O   0  0  0  0  0  0  0  0  0  0  0  0
   -2.7050    0.9150   -0.2080 C   0  0  0  0  0  0  0  0  0  0  0  0
   -3.8340    0.2950    0.2420 C   0  0  0  0  0  0  0  0  0  0  0  0
   -3.8580   -1.0600    0.5350 C   0  0  0  0  0  0  0  0  0  0  0  0
   -5.0800   -1.7530    1.0280 C   0  0  0  0  0  0  0  0  0  0  0  0
   -2.7190   -1.8130    0.3730 C   0  0  0  0  0  0  0  0  0  0  0  0
   -2.7330   -3.2650    0.6840 C   0  0  0  0  0  0  0  0  0  0  0  0
   -1.5500   -1.1820   -0.0910 C   0  0  0  0  0  0  0  0  0  0  0  0
   -1.5330    0.1460   -0.3760 C   0  0  0  0  0  0  0  0  0  0  0  0
   -0.4090    0.8760   -0.9040 C   0  0  0  0  0  0  0  0  0  0  0  0
   -0.4710    2.1450   -1.4270 N   0  0  0  0  0  0  0  0  0  0  0  0
    0.6990    2.5750   -1.7990 N   0  0  0  0  0  0  0  0  0  0  0  0
    1.6230    1.6260   -1.5510 C   0  0  0  0  0  0  0  0  0  0  0  0
    2.9950    1.5920   -1.7470 C   0  0  0  0  0  0  0  0  0  0  0  0
    3.7030    0.4730   -1.3740 C   0  0  0  0  0  0  0  0  0  0  0  0
    3.0540   -0.6010   -0.8120 C   0  0  0  0  0  0  0  0  0  0  0  0
    3.7290   -1.7780   -0.3970 N   0  0  0  0  0  0  0  0  0  0  0  0
    5.1470   -1.8450   -0.1760 C   0  0  0  0  0  0  0  0  0  0  0  0
    5.6130   -1.2490    1.1240 C   0  0  0  0  0  0  0  0  0  0  0  0
    5.3170    0.1420    1.3110 N   0  0  0  0  0  0  0  0  0  0  0  0
    1.6650   -0.5530   -0.6200 C   0  0  0  0  0  0  0  0  0  0  0  0
    0.9260    0.5530   -0.9850 C   0  0  0  0  0  0  0  0  0  0  0  0
  1  2  1  0
  2  3  1  0
  3  4  1  0
  4  5  2  0
  4 11  1  0
  5  6  1  0
  6  7  1  0
  6  8  2  0
  8  9  1  0
  8 10  1  0
 10 11  2  0
 11 12  1  0
 12 13  2  0
 12 24  1  0
 13 14  1  0
 14 15  1  0
 15 16  2  0
 15 24  1  0
 16 17  1  0
 17 18  2  0
 18 19  1  0
 18 23  1  0
 19 20  1  0
 20 21  1  0
 21 22  1  0
 23 24  2  0
M  CHG  1  22   1
M  END
