
     RDKit          3D

 28 32  0  0  0  0  0  0  0  0999 V2000
    6.7170   -0.0350    1.5670 O   0  0  0  0  0  0  0  0  0  0  0  0
    5.7600    0.0990    0.7740 C   0  0  0  0  0  0  0  0  0  0  0  0
    6.0130   -0.2110   -0.6670 C   0  0  0  0  0  0  0  0  0  0  0  0
    4.8180   -0.6020   -1.3150 O   0  0  0  0  0  0  0  0  0  0  0  0
    3.5460   -0.1800   -0.8620 C   0  0  0  0  0  0  0  0  0  0  0  0
    2.4490   -0.3260   -1.6910 C   0  0  0  0  0  0  0  0  0  0  0  0
    1.2060    0.0780   -1.2690 C   0  0  0  0  0  0  0  0  0  0  0  0
    0.9960    0.6330   -0.0280 C   0  0  0  0  0  0  0  0  0  0  0  0
   -0.2750    1.1240    0.4580 C   0  0  0  0  0  0  0  0  0  0  0  0
   -1.3900    0.4480    0.3970 C   0  0  0  0  0  0  0  0  0  0  0  0
   -1.3100   -0.8960   -0.1910 C   0  0  0  0  0  0  0  0  0  0  0  0
   -0.2440   -1.5630    0.3390 C   0  0  0  0  0  0  0  0  0  0  0  0
   -0.0340   -2.8290   -0.1490 C   0  0  0  0  0  0  0  0  0  0  0  0
   -0.8760   -3.3800   -1.1260 C   0  0  0  0  0  0  0  0  0  0  0  0
   -1.9460   -2.6290   -1.6090 C   0  0  0  0  0  0  0  0  0  0  0  0
   -2.2040   -1.3520   -1.1570 C   0  0  0  0  0  0  0  0  0  0  0  0
   -3.4160   -0.7040   -1.7420 C   0  0  0  0  0  0  0  0  0  0  0  0
   -4.2000    0.0260   -0.8320 O   0  0  0  0  0  0  0  0  0  0  0  0
   -3.8800    0.8940    0.2180 C   0  0  0  0  0  0  0  0  0  0  0  0
   -4.9240    1.6290    0.7300 C   0  0  0  0  0  0  0  0  0  0  0  0
   -4.7100    2.5160    1.7720 C   0  0  0  0  0  0  0  0  0  0  0  0
   -5.7830    3.2030    2.2230 F   0  0  0  0  0  0  0  0  0  0  0  0
   -3.4280    2.6830    2.3270 C   0  0  0  0  0  0  0  0  0  0  0  0
   -2.3650    1.9610    1.8340 C   0  0  0  0  0  0  0  0  0  0  0  0
   -2.6610    1.1130    0.8100 C   0  0  0  0  0  0  0  0  0  0  0  0
    2.1100    0.7650    0.7730 C   0  0  0  0  0  0  0  0  0  0  0  0
    3.3740    0.3720    0.3830 C   0  0  0  0  0  0  0  0  0  0  0  0
    4.5030    0.5270    1.2480 N   0  0  0  0  0  0  0  0  0  0  0  0
  1  2  2  0
  2  3  1  0
  2 28  1  0
  3  4  1  0
  4  5  1  0
  5  6  2  0
  5 27  1  0
  6  7  1  0
  7  8  2  0
  8  9  1  0
  8 26  1  0
  9 10  2  3
 10 11  1  0
 10 25  1  0
 11 12  2  0
 11 16  1  0
 12 13  1  0
 13 14  2  0
 14 15  1  0
 15 16  2  0
 16 17  1  0
 17 18  1  0
 18 19  1  0
 19 20  2  0
 19 25  1  0
 20 21  1  0
 21 22  1  0
 21 23  2  0
 23 24  1  0
 24 25  2  0
 26 27  2  0
 27 28  1  0
M  END
