
     RDKit          3D

 16 17  0  0  0  0  0  0  0  0999 V2000
   -4.4200    1.6760    0.0600 N   0  0  0  0  0  0  0  0  0  0  0  0
   -3.6280    0.5190   -0.1630 C   0  0  0  0  0  0  0  0  0  0  0  0
   -2.2940    0.5840   -0.0360 N   0  0  0  0  0  0  0  0  0  0  0  0
   -1.4830   -0.4720   -0.2330 C   0  0  0  0  0  0  0  0  0  0  0  0
   -0.0380   -0.3620   -0.0860 C   0  0  0  0  0  0  0  0  0  0  0  0
    0.9940   -1.2010   -0.2100 C   0  0  0  0  0  0  0  0  0  0  0  0
    2.2420   -0.7770   -0.0000 C   0  0  0  0  0  0  0  0  0  0  0  0
    2.4630    0.5350    0.3460 C   0  0  0  0  0  0  0  0  0  0  0  0
    3.6120    1.2700    0.6250 N   0  0  0  0  0  0  0  0  0  0  0  0
    4.8890    0.6230    0.5690 C   0  0  0  0  0  0  0  0  0  0  0  0
    5.2530   -0.0460   -1.0280 Cl  0  0  0  0  0  0  0  0  0  0  0  0
    0.8210    1.1990    0.3760 S   0  0  0  0  0  0  0  0  0  0  0  0
   -2.0810   -1.6650   -0.5810 C   0  0  0  0  0  0  0  0  0  0  0  0
   -3.4170   -1.7340   -0.7090 N   0  0  0  0  0  0  0  0  0  0  0  0
   -4.2150   -0.6690   -0.5090 C   0  0  0  0  0  0  0  0  0  0  0  0
   -5.9710   -0.8160   -0.6920 Cl  0  0  0  0  0  0  0  0  0  0  0  0
  1  2  1  0
  2  3  2  0
  2 15  1  0
  3  4  1  0
  4  5  1  0
  4 13  2  0
  5  6  2  0
  5 12  1  0
  6  7  1  0
  7  8  2  0
  8  9  1  0
  8 12  1  0
  9 10  1  0
 10 11  1  0
 13 14  1  0
 14 15  2  0
 15 16  1  0
M  END
