
     RDKit          3D

 22 22  0  0  0  0  0  0  0  0999 V2000
    7.4810   -0.7740    1.3720 C   0  0  0  0  0  0  0  0  0  0  0  0
    6.7680   -0.1010    2.3440 O   0  0  0  0  0  0  0  0  0  0  0  0
    5.4860   -0.5160    2.5180 C   0  0  0  0  0  0  0  0  0  0  0  0
    4.6620   -0.2730    1.3300 C   0  0  0  0  0  0  0  0  0  0  0  0
    5.1170    0.3170    0.3300 O   0  0  0  0  0  0  0  0  0  0  0  0
    3.2930   -0.6930    1.2380 N   0  0  0  0  0  0  0  0  0  0  0  0
    2.5520   -0.4310    0.0720 N   0  0  0  0  0  0  0  0  0  0  0  0
    1.5850    0.6160    0.0640 C   0  0  0  0  0  0  0  0  0  0  0  0
    1.4410    1.2690    1.1340 O   0  0  0  0  0  0  0  0  0  0  0  0
    0.7940    0.9060   -1.1680 C   0  0  0  0  0  0  0  0  0  0  0  0
   -0.0680    1.9580   -0.8870 O   0  0  0  0  0  0  0  0  0  0  0  0
   -0.8490    2.3170   -1.9780 C   0  0  0  0  0  0  0  0  0  0  0  0
   -1.7150    1.1750   -2.4610 C   0  0  0  0  0  0  0  0  0  0  0  0
   -2.5720    0.7610   -1.4420 O   0  0  0  0  0  0  0  0  0  0  0  0
   -3.4960   -0.3100   -1.6240 C   0  0  0  0  0  0  0  0  0  0  0  0
   -3.6100   -0.9930   -2.7740 C   0  0  0  0  0  0  0  0  0  0  0  0
   -4.5240   -2.0030   -2.8520 C   0  0  0  0  0  0  0  0  0  0  0  0
   -5.2440   -1.9750   -1.2260 S   0  0  0  0  0  0  0  0  0  0  0  0
   -4.2990   -0.6550   -0.5810 C   0  0  0  0  0  0  0  0  0  0  0  0
   -4.3970   -0.1000    0.7550 C   0  0  0  0  0  0  0  0  0  0  0  0
   -5.2660   -0.6130    1.5970 C   0  0  0  0  0  0  0  0  0  0  0  0
   -5.3780   -0.0800    2.9120 N   0  0  0  0  0  0  0  0  0  0  0  0
  1  2  1  0
  2  3  1  0
  3  4  1  0
  4  5  2  0
  4  6  1  0
  6  7  1  0
  7  8  1  0
  8  9  2  0
  8 10  1  0
 10 11  1  0
 11 12  1  0
 12 13  1  0
 13 14  1  0
 14 15  1  0
 15 16  1  0
 15 19  2  0
 16 17  2  0
 17 18  1  0
 18 19  1  0
 19 20  1  0
 20 21  2  3
 21 22  1  0
M  CHG  1  22   1
M  END
