
     RDKit          3D

 22 21  0  0  0  0  0  0  0  0999 V2000
    4.5520   -2.3020    0.9650 C   0  0  0  0  0  0  0  0  0  0  0  0
    4.5090   -1.3980    0.0380 C   0  0  0  0  0  0  0  0  0  0  0  0
    3.6350   -0.1790    0.1030 C   0  0  0  0  0  0  0  0  0  0  0  0
    3.7260    0.6150   -0.8940 C   0  0  0  0  0  0  0  0  0  0  0  0
    2.8420   -0.0990    1.2670 O   0  0  0  0  0  0  0  0  0  0  0  0
    1.6550   -0.7300    1.3270 C   0  0  0  0  0  0  0  0  0  0  0  0
    0.3980   -0.4820    0.7320 C   0  0  0  0  0  0  0  0  0  0  0  0
   -0.5240   -1.6170    1.1480 O   0  0  0  0  0  0  0  0  0  0  0  0
   -0.2700    0.3130   -0.0130 C   0  0  0  0  0  0  0  0  0  0  0  0
   -1.6800   -0.0930   -0.2840 C   0  0  0  0  0  0  0  0  0  0  0  0
   -2.5610    0.5100   -0.9960 C   0  0  0  0  0  0  0  0  0  0  0  0
   -4.2400   -0.1990   -1.1750 S   0  0  0  0  0  0  0  0  0  0  0  0
   -4.3540   -1.7080   -0.1760 C   0  0  0  0  0  0  0  0  0  0  0  0
   -5.6850   -2.3290   -0.2770 C   0  0  0  0  0  0  0  0  0  0  0  0
   -6.7390   -1.7680   -1.0850 N   0  0  0  0  0  0  0  0  0  0  0  0
   -5.9780   -3.3840    0.3370 O   0  0  0  0  0  0  0  0  0  0  0  0
    0.0650    1.6570   -0.3800 C   0  0  0  0  0  0  0  0  0  0  0  0
   -0.6820    2.3320   -1.2050 O   0  0  0  0  0  0  0  0  0  0  0  0
    1.1620    2.4460    0.0580 N   0  0  0  0  0  0  0  0  0  0  0  0
    1.4040    3.7820   -0.4150 C   0  0  0  0  0  0  0  0  0  0  0  0
    2.5450    4.4920    0.0940 N   0  0  0  0  0  0  0  0  0  0  0  0
    0.6260    4.2870   -1.2470 O   0  0  0  0  0  0  0  0  0  0  0  0
  1  2  2  0
  2  3  1  0
  3  4  2  0
  3  5  1  0
  5  6  1  0
  6  7  1  0
  7  8  1  0
  7  9  2  3
  9 10  1  0
  9 17  1  0
 10 11  2  3
 11 12  1  0
 12 13  1  0
 13 14  1  0
 14 15  1  0
 14 16  2  0
 17 18  2  0
 17 19  1  0
 19 20  1  0
 20 21  1  0
 20 22  2  0
M  END
