
     RDKit          3D

 16 17  0  0  0  0  0  0  0  0999 V2000
   -3.7110    2.0820    0.0930 N   0  0  0  0  0  0  0  0  0  0  0  0
   -2.6690    1.0860    0.1380 C   0  0  0  0  0  0  0  0  0  0  0  0
   -1.4730    1.2760   -0.5080 C   0  0  0  0  0  0  0  0  0  0  0  0
   -0.4920    0.3130   -0.4510 C   0  0  0  0  0  0  0  0  0  0  0  0
   -0.6400   -0.8700    0.2360 C   0  0  0  0  0  0  0  0  0  0  0  0
    0.3560   -1.8830    0.3110 N   0  0  0  0  0  0  0  0  0  0  0  0
    1.6330   -1.8060   -0.3100 C   0  0  0  0  0  0  0  0  0  0  0  0
    2.4660   -0.7010    0.1130 C   0  0  0  0  0  0  0  0  0  0  0  0
    2.5380    0.2830    0.8510 N   0  0  0  0  0  0  0  0  0  0  0  0
    3.5340    1.0740    0.9380 N   0  0  0  0  0  0  0  0  0  0  0  0
    4.5730    1.0020    0.3210 C   0  0  0  0  0  0  0  0  0  0  0  0
    6.1070    1.7950    0.1200 Cl  0  0  0  0  0  0  0  0  0  0  0  0
    4.1750   -0.5530   -0.6920 S   0  0  0  0  0  0  0  0  0  0  0  0
   -1.8470   -1.0440    0.8780 C   0  0  0  0  0  0  0  0  0  0  0  0
   -2.8420   -0.0890    0.8330 C   0  0  0  0  0  0  0  0  0  0  0  0
   -4.3610   -0.3340    1.6550 Cl  0  0  0  0  0  0  0  0  0  0  0  0
  1  2  1  0
  2  3  2  0
  2 15  1  0
  3  4  1  0
  4  5  2  0
  5  6  1  0
  5 14  1  0
  6  7  1  0
  7  8  1  0
  8  9  2  0
  8 13  1  0
  9 10  1  0
 10 11  2  0
 11 12  1  0
 11 13  1  0
 14 15  2  0
 15 16  1  0
M  END
