
     RDKit          3D

 16 17  0  0  0  0  0  0  0  0999 V2000
    1.6640   -1.4310    2.0000 N   0  0  0  0  0  0  0  0  0  0  0  0
    1.5950   -0.4620    0.9580 C   0  0  0  0  0  0  0  0  0  0  0  0
    2.5750    0.5110    0.8120 C   0  0  0  0  0  0  0  0  0  0  0  0
    2.5420    1.4610   -0.1790 C   0  0  0  0  0  0  0  0  0  0  0  0
    3.8360    2.6450   -0.2690 Cl  0  0  0  0  0  0  0  0  0  0  0  0
    1.4990    1.4810   -1.0950 C   0  0  0  0  0  0  0  0  0  0  0  0
    1.5270    2.7100   -2.3170 Cl  0  0  0  0  0  0  0  0  0  0  0  0
    0.5280    0.5290   -0.9640 C   0  0  0  0  0  0  0  0  0  0  0  0
    0.5600   -0.4370    0.0440 C   0  0  0  0  0  0  0  0  0  0  0  0
   -0.4690   -1.4050    0.1330 N   0  0  0  0  0  0  0  0  0  0  0  0
   -1.5970   -1.4540   -0.7420 C   0  0  0  0  0  0  0  0  0  0  0  0
   -2.4290   -0.1980   -0.6020 C   0  0  0  0  0  0  0  0  0  0  0  0
   -2.1970    0.6920    0.4440 C   0  0  0  0  0  0  0  0  0  0  0  0
   -3.3850    1.9570    0.1750 S   0  0  0  0  0  0  0  0  0  0  0  0
   -4.0660    1.1110   -1.3520 N   0  0  0  0  0  0  0  0  0  0  0  0
   -3.4030    0.1820   -1.3970 N   0  0  0  0  0  0  0  0  0  0  0  0
  1  2  1  0
  2  3  2  0
  2  9  1  0
  3  4  1  0
  4  5  1  0
  4  6  2  0
  6  7  1  0
  6  8  1  0
  8  9  2  0
  9 10  1  0
 10 11  1  0
 11 12  1  0
 12 13  2  0
 12 16  1  0
 13 14  1  0
 14 15  1  0
 15 16  2  0
M  END
