
     RDKit          3D

 22 22  0  0  0  0  0  0  0  0999 V2000
   -1.7930   -0.9760    0.0390 O   0  0  0  0  0  0  0  0  0  0  0  0
   -1.5390   -1.0730   -1.1930 C   0  0  0  0  0  0  0  0  0  0  0  0
   -0.3280   -0.4100   -1.7720 C   0  0  0  0  0  0  0  0  0  0  0  0
    0.4430    0.3240   -0.6790 C   0  0  0  0  0  0  0  0  0  0  0  0
    0.8090   -0.6100    0.2440 O   0  0  0  0  0  0  0  0  0  0  0  0
    1.5090   -0.1960    1.3300 C   0  0  0  0  0  0  0  0  0  0  0  0
    2.8240    0.3800    0.9670 C   0  0  0  0  0  0  0  0  0  0  0  0
    3.2670    0.4410   -0.2040 O   0  0  0  0  0  0  0  0  0  0  0  0
    3.6870    0.9170    1.9760 N   0  0  0  0  0  0  0  0  0  0  0  0
    4.9530    1.4790    1.7230 C   0  0  0  0  0  0  0  0  0  0  0  0
    5.1320    2.7530    2.0240 C   0  0  0  0  0  0  0  0  0  0  0  0
    3.8110    3.6970    2.7180 S   0  0  0  0  0  0  0  0  0  0  0  0
    6.0950    0.6800    1.1550 C   0  0  0  0  0  0  0  0  0  0  0  0
    5.8250    0.1660   -0.0920 O   0  0  0  0  0  0  0  0  0  0  0  0
   -2.4360   -1.8260   -1.9870 N   0  0  0  0  0  0  0  0  0  0  0  0
   -3.5950   -2.4620   -1.4330 C   0  0  0  0  0  0  0  0  0  0  0  0
   -4.5240   -1.4830   -0.8020 C   0  0  0  0  0  0  0  0  0  0  0  0
   -4.8510   -1.5320    0.4650 C   0  0  0  0  0  0  0  0  0  0  0  0
   -5.7840   -0.4440    0.8210 C   0  0  0  0  0  0  0  0  0  0  0  0
   -5.9880    0.2790   -0.3890 N   0  0  0  0  0  0  0  0  0  0  0  0
   -5.2100   -0.3620   -1.3890 C   0  0  0  0  0  0  0  0  0  0  0  0
   -5.1190   -0.0260   -2.5960 O   0  0  0  0  0  0  0  0  0  0  0  0
  1  2  2  0
  2  3  1  0
  2 15  1  0
  3  4  1  0
  4  5  1  0
  5  6  1  0
  6  7  1  0
  7  8  2  0
  7  9  1  0
  9 10  1  0
 10 11  2  3
 10 13  1  0
 11 12  1  0
 13 14  1  0
 15 16  1  0
 16 17  1  0
 17 18  2  0
 17 21  1  0
 18 19  1  0
 19 20  1  0
 20 21  1  0
 21 22  2  0
M  END
