
     RDKit          3D

 39 42  0  0  0  0  0  0  0  0999 V2000
   -7.4320    4.1580   -1.8460 C   0  0  0  0  0  0  0  0  0  0  0  0
   -8.0930    3.0620   -1.5650 C   0  0  0  0  0  0  0  0  0  0  0  0
   -7.4800    2.1010   -0.5880 C   0  0  0  0  0  0  0  0  0  0  0  0
   -7.3830    0.7810   -1.2300 C   0  0  0  0  0  0  0  0  0  0  0  0
   -6.7240   -0.0850   -0.3780 C   0  0  0  0  0  0  0  0  0  0  0  0
   -6.7960   -1.5410   -0.5100 C   0  0  0  0  0  0  0  0  0  0  0  0
   -6.2020   -2.2210   -1.3430 N   0  0  0  0  0  0  0  0  0  0  0  0
   -6.6930   -3.5960   -1.2060 C   0  0  0  0  0  0  0  0  0  0  0  0
   -7.7390   -3.5850   -0.1400 C   0  0  0  0  0  0  0  0  0  0  0  0
   -7.8080   -2.3110    0.2340 C   0  0  0  0  0  0  0  0  0  0  0  0
   -6.1570    0.3300    0.8520 C   0  0  0  0  0  0  0  0  0  0  0  0
   -5.1400   -0.6960    1.3870 C   0  0  0  0  0  0  0  0  0  0  0  0
   -3.8430   -0.4760    0.9380 N   0  0  0  0  0  0  0  0  0  0  0  0
   -3.4550    0.4730   -0.0230 C   0  0  0  0  0  0  0  0  0  0  0  0
   -2.1760    0.1960   -0.7490 C   0  0  0  0  0  0  0  0  0  0  0  0
   -1.0540   -0.1920    0.0740 N   0  0  0  0  0  0  0  0  0  0  0  0
   -0.9280   -1.6100    0.1900 C   0  0  0  0  0  0  0  0  0  0  0  0
    0.5210   -2.1050    0.0540 C   0  0  0  0  0  0  0  0  0  0  0  0
    1.3060   -1.2990   -0.8190 N   0  0  0  0  0  0  0  0  0  0  0  0
    2.6590   -1.6120   -1.0010 C   0  0  0  0  0  0  0  0  0  0  0  0
    3.1560   -2.6630   -1.3580 O   0  0  0  0  0  0  0  0  0  0  0  0
    3.5550   -0.4490   -0.5790 C   0  0  0  0  0  0  0  0  0  0  0  0
    4.7310   -0.9610    0.0500 N   0  0  0  0  0  0  0  0  0  0  0  0
    5.9150   -0.2050    0.0960 C   0  0  0  0  0  0  0  0  0  0  0  0
    5.9850    0.9510   -0.3910 O   0  0  0  0  0  0  0  0  0  0  0  0
    7.1260   -0.7430    0.6620 N   0  0  0  0  0  0  0  0  0  0  0  0
    8.3500   -0.2220    0.1510 C   0  0  0  0  0  0  0  0  0  0  0  0
    9.5560    0.1260    0.5630 C   0  0  0  0  0  0  0  0  0  0  0  0
   10.4010    0.1810   -0.5090 C   0  0  0  0  0  0  0  0  0  0  0  0
   11.8520    0.4920   -0.4890 C   0  0  1  0  0  0  0  0  0  0  0  0
   12.1490    1.8450    0.0450 C   0  0  0  0  0  0  0  0  0  0  0  0
   12.5200   -0.6360    0.2920 C   0  0  0  0  0  0  0  0  0  0  0  0
    9.6730   -0.1190   -1.5590 O   0  0  0  0  0  0  0  0  0  0  0  0
    8.4770   -0.3510   -1.2740 N   0  0  0  0  0  0  0  0  0  0  0  0
    0.7330   -0.1630   -1.5040 C   0  0  0  0  0  0  0  0  0  0  0  0
    0.0940    0.5730   -0.2820 C   0  0  0  0  0  0  0  0  0  0  0  0
   -6.2560    1.5470    1.4030 C   0  0  0  0  0  0  0  0  0  0  0  0
   -7.0270    2.4510    0.5540 C   0  0  0  0  0  0  0  0  0  0  0  0
   -7.5500    3.6540    1.2550 C   0  0  0  0  0  0  0  0  0  0  0  0
  1  2  2  0
  2  3  1  0
  3  4  2  0
  3 38  1  0
  4  5  1  0
  5  6  1  0
  5 11  2  0
  6  7  2  0
  6 10  1  0
  7  8  1  0
  8  9  1  0
  9 10  2  0
 11 12  1  0
 11 37  1  0
 12 13  1  0
 13 14  1  0
 14 15  1  0
 15 16  1  0
 16 17  1  0
 16 36  1  0
 17 18  1  0
 18 19  1  0
 19 20  1  0
 19 35  1  0
 20 21  2  0
 20 22  1  0
 22 23  1  0
 23 24  1  0
 24 25  2  0
 24 26  1  0
 26 27  1  0
 27 28  1  0
 27 34  2  0
 28 29  2  0
 29 30  1  0
 29 33  1  0
 30 31  1  1
 30 32  1  0
 33 34  1  0
 35 36  1  0
 37 38  2  0
 38 39  1  0
M  CHG  1  13   1
M  END
