
     RDKit          3D

 39 43  0  0  0  0  0  0  0  0999 V2000
   -8.2760    3.5970    1.8610 C   0  0  0  0  0  0  0  0  0  0  0  0
   -7.1070    2.8340    1.6600 O   0  0  0  0  0  0  0  0  0  0  0  0
   -7.1880    1.6730    0.9160 C   0  0  0  0  0  0  0  0  0  0  0  0
   -8.3700    1.2590    0.3780 C   0  0  0  0  0  0  0  0  0  0  0  0
   -8.4550    0.1000   -0.3640 C   0  0  0  0  0  0  0  0  0  0  0  0
   -7.3030   -0.6340   -0.5480 C   0  0  0  0  0  0  0  0  0  0  0  0
   -6.0900   -0.2050    0.0080 C   0  0  0  0  0  0  0  0  0  0  0  0
   -6.0010    0.9460    0.7450 C   0  0  0  0  0  0  0  0  0  0  0  0
   -4.7910    1.4570    1.3660 C   0  0  0  0  0  0  0  0  0  0  0  0
   -3.5870    0.7250    1.1610 N   0  0  0  0  0  0  0  0  0  0  0  0
   -3.0520    0.6050   -0.1400 C   0  0  0  0  0  0  0  0  0  0  0  0
   -3.6460    1.1540   -1.1320 O   0  0  0  0  0  0  0  0  0  0  0  0
   -1.8110   -0.1360   -0.4420 C   0  0  0  0  0  0  0  0  0  0  0  0
   -1.0770   -0.7510    0.5180 C   0  0  0  0  0  0  0  0  0  0  0  0
    0.1190   -1.4600    0.2740 C   0  0  0  0  0  0  0  0  0  0  0  0
    0.8190   -2.0490    1.3450 N   0  0  0  0  0  0  0  0  0  0  0  0
    1.1280   -1.2120    2.4380 C   0  0  0  0  0  0  0  0  0  0  0  0
    2.1450   -0.4760    2.6710 C   0  0  0  0  0  0  0  0  0  0  0  0
    3.3440   -0.2220    1.9230 C   0  0  0  0  0  0  0  0  0  0  0  0
    3.6580   -0.8190    0.7340 C   0  0  0  0  0  0  0  0  0  0  0  0
    4.8380   -0.5140    0.0550 C   0  0  0  0  0  0  0  0  0  0  0  0
    5.6820    0.4120    0.6240 C   0  0  0  0  0  0  0  0  0  0  0  0
    6.8920    0.7230   -0.0640 N   0  0  0  0  0  0  0  0  0  0  0  0
    7.3730    0.2510   -1.3290 C   0  0  0  0  0  0  0  0  0  0  0  0
    8.0250    1.4680   -1.9320 C   0  0  0  0  0  0  0  0  0  0  0  0
    8.4300    2.3580   -0.7900 C   0  0  0  0  0  0  0  0  0  0  0  0
    7.9180    1.6330    0.4400 C   0  0  0  0  0  0  0  0  0  0  0  0
    5.3910    1.0060    1.7860 N   0  0  0  0  0  0  0  0  0  0  0  0
    4.2590    0.7150    2.4390 C   0  0  0  0  0  0  0  0  0  0  0  0
    1.2120   -3.4140    1.4530 C   0  0  0  0  0  0  0  0  0  0  0  0
    0.7120   -4.3830    0.5070 C   0  0  0  0  0  0  0  0  0  0  0  0
   -0.2000   -4.0980   -0.5070 N   0  0  0  0  0  0  0  0  0  0  0  0
    1.1140   -5.5940    0.5880 O   0  0  0  0  0  0  0  0  0  0  0  0
    0.5410   -1.5130   -1.0270 C   0  0  0  0  0  0  0  0  0  0  0  0
   -0.1850   -0.8930   -2.0460 C   0  0  0  0  0  0  0  0  0  0  0  0
   -1.3510   -0.2100   -1.7540 C   0  0  0  0  0  0  0  0  0  0  0  0
   -1.8720    0.3120   -2.9450 N   0  0  0  0  0  0  0  0  0  0  0  0
   -0.9930   -0.0760   -3.9430 N   0  0  0  0  0  0  0  0  0  0  0  0
   -0.0110   -0.7680   -3.4820 C   0  0  0  0  0  0  0  0  0  0  0  0
  1  2  1  0
  2  3  1  0
  3  4  2  0
  3  8  1  0
  4  5  1  0
  5  6  2  0
  6  7  1  0
  7  8  2  0
  8  9  1  0
  9 10  1  0
 10 11  1  0
 11 12  2  0
 11 13  1  0
 13 14  2  0
 13 36  1  0
 14 15  1  0
 15 16  1  0
 15 34  2  0
 16 17  1  0
 16 30  1  0
 17 18  2  3
 18 19  1  0
 19 20  2  0
 19 29  1  0
 20 21  1  0
 21 22  2  0
 22 23  1  0
 22 28  1  0
 23 24  1  0
 23 27  1  0
 24 25  1  0
 25 26  1  0
 26 27  1  0
 28 29  2  0
 30 31  1  0
 31 32  1  0
 31 33  2  0
 34 35  1  0
 35 36  2  0
 35 39  1  0
 36 37  1  0
 37 38  1  0
 38 39  2  0
M  CHG  1  37   1
M  END
