
     RDKit          3D

 39 42  0  0  0  0  0  0  0  0999 V2000
   -0.4910   -1.6600   -2.3470 C   0  0  0  0  0  0  0  0  0  0  0  0
   -0.0950   -0.8650   -1.1650 C   0  0  0  0  0  0  0  0  0  0  0  0
    1.2640   -0.9700   -0.8040 C   0  0  0  0  0  0  0  0  0  0  0  0
    1.7320   -0.2350    0.2400 C   0  0  0  0  0  0  0  0  0  0  0  0
    3.1690   -0.2970    0.6800 C   0  0  0  0  0  0  0  0  0  0  0  0
    3.2740   -1.3910    1.7190 C   0  0  0  0  0  0  0  0  0  0  0  0
    4.6010   -1.5540    2.2220 N   0  0  0  0  0  0  0  0  0  0  0  0
    5.6840   -1.8910    1.3760 C   0  0  0  0  0  0  0  0  0  0  0  0
    5.5230   -2.0660    0.1200 O   0  0  0  0  0  0  0  0  0  0  0  0
    7.0170   -2.0600    1.8450 N   0  0  0  0  0  0  0  0  0  0  0  0
    8.0950   -2.4070    0.9380 C   0  0  0  0  0  0  0  0  0  0  0  0
    8.1970   -1.3310   -0.0840 C   0  0  0  0  0  0  0  0  0  0  0  0
    7.4690   -0.2080   -0.2240 N   0  0  0  0  0  0  0  0  0  0  0  0
    7.8950    0.4930   -1.2900 C   0  0  0  0  0  0  0  0  0  0  0  0
    7.3800    1.7870   -1.8120 C   0  0  0  0  0  0  0  0  0  0  0  0
    8.0650    2.9170   -1.2220 N   0  0  0  0  0  0  0  0  0  0  0  0
    8.8930   -0.1930   -1.8210 O   0  0  0  0  0  0  0  0  0  0  0  0
    9.1100   -1.2790   -1.1440 C   0  0  0  0  0  0  0  0  0  0  0  0
   10.1290   -2.3440   -1.3780 C   0  0  0  0  0  0  0  0  0  0  0  0
    0.8850    0.5560    0.8790 N   0  0  0  0  0  0  0  0  0  0  0  0
   -0.4370    0.6810    0.5570 C   0  0  0  0  0  0  0  0  0  0  0  0
   -1.2760    1.5780    1.3570 C   0  0  2  0  0  0  0  0  0  0  0  0
   -0.3650    2.3390    2.3500 C   0  0  0  0  0  0  0  0  0  0  0  0
   -1.2430    3.2460    3.1440 C   0  0  0  0  0  0  0  0  0  0  0  0
   -2.7010    3.1700    2.8390 C   0  0  0  0  0  0  0  0  0  0  0  0
   -3.2330    1.7490    2.8430 C   0  0  0  0  0  0  0  0  0  0  0  0
   -2.2100    0.7870    2.2800 C   0  0  0  0  0  0  0  0  0  0  0  0
   -0.9680   -0.0550   -0.5090 C   0  0  0  0  0  0  0  0  0  0  0  0
   -2.3770    0.0320   -0.8100 C   0  0  0  0  0  0  0  0  0  0  0  0
   -3.0260    1.1280   -0.5760 O   0  0  0  0  0  0  0  0  0  0  0  0
   -3.2020   -0.9850   -1.3560 N   0  0  0  0  0  0  0  0  0  0  0  0
   -4.6150   -0.8380   -1.6390 C   0  0  0  0  0  0  0  0  0  0  0  0
   -5.3610   -0.5700   -0.3830 C   0  0  0  0  0  0  0  0  0  0  0  0
   -6.7910   -0.4230   -0.5930 N   0  0  2  0  0  0  0  0  0  0  0  0
   -7.1960   -1.0870   -1.8080 C   0  0  0  0  0  0  0  0  0  0  0  0
   -8.6810   -1.0810   -1.9640 C   0  0  0  0  0  0  0  0  0  0  0  0
   -9.3430    0.1550   -1.4420 C   0  0  0  0  0  0  0  0  0  0  0  0
   -8.3410    1.2930   -1.4230 C   0  0  0  0  0  0  0  0  0  0  0  0
   -7.1890    0.9580   -0.5340 C   0  0  0  0  0  0  0  0  0  0  0  0
  1  2  1  0
  2  3  2  0
  2 28  1  0
  3  4  1  0
  4  5  1  0
  4 20  2  0
  5  6  1  0
  6  7  1  0
  7  8  1  0
  8  9  2  0
  8 10  1  0
 10 11  1  0
 11 12  1  0
 12 13  1  0
 12 18  2  0
 13 14  2  0
 14 15  1  0
 14 17  1  0
 15 16  1  0
 17 18  1  0
 18 19  1  0
 20 21  1  0
 22 21  1  6
 21 28  2  0
 22 23  1  0
 22 27  1  0
 23 24  1  0
 24 25  1  0
 25 26  1  0
 26 27  1  0
 28 29  1  0
 29 30  2  0
 29 31  1  0
 31 32  1  0
 32 33  1  0
 34 33  1  6
 34 35  1  0
 34 39  1  0
 35 36  1  0
 36 37  1  0
 37 38  1  0
 38 39  1  0
M  CHG  1  34   1
M  END
