
     RDKit          3D

 39 42  0  0  0  0  0  0  0  0999 V2000
   -3.8300    4.8020    1.3160 C   0  0  0  0  0  0  0  0  0  0  0  0
   -2.5270    4.2430    0.8610 C   0  0  0  0  0  0  0  0  0  0  0  0
   -2.2860    2.8850    0.8820 C   0  0  0  0  0  0  0  0  0  0  0  0
   -1.1110    2.3220    0.4760 C   0  0  0  0  0  0  0  0  0  0  0  0
   -0.0770    3.1470    0.0110 C   0  0  0  0  0  0  0  0  0  0  0  0
   -0.3140    4.5030   -0.0120 C   0  0  0  0  0  0  0  0  0  0  0  0
   -1.5160    5.0550    0.4040 C   0  0  0  0  0  0  0  0  0  0  0  0
   -1.7380    6.5140    0.3670 C   0  0  0  0  0  0  0  0  0  0  0  0
   -0.5780    7.1460   -0.1320 O   0  0  0  0  0  0  0  0  0  0  0  0
    1.1300    2.6050   -0.4030 O   0  0  0  0  0  0  0  0  0  0  0  0
    2.0770    1.8880    0.3260 C   0  0  0  0  0  0  0  0  0  0  0  0
    2.8300    0.9510   -0.5720 C   0  0  0  0  0  0  0  0  0  0  0  0
    3.7930    0.1480    0.1390 O   0  0  0  0  0  0  0  0  0  0  0  0
    4.3250   -1.0450   -0.3720 C   0  0  0  0  0  0  0  0  0  0  0  0
    5.6810   -1.2040   -0.6170 C   0  0  0  0  0  0  0  0  0  0  0  0
    6.5570   -0.1260   -0.3260 O   0  0  0  0  0  0  0  0  0  0  0  0
    7.9310   -0.1590   -0.5170 C   0  0  0  0  0  0  0  0  0  0  0  0
    8.5140   -1.1750    0.2550 O   0  0  0  0  0  0  0  0  0  0  0  0
    6.2490   -2.3530   -1.1270 C   0  0  0  0  0  0  0  0  0  0  0  0
    5.4320   -3.4100   -1.4140 C   0  0  0  0  0  0  0  0  0  0  0  0
    4.0840   -3.2670   -1.1750 C   0  0  0  0  0  0  0  0  0  0  0  0
    3.4850   -2.1280   -0.6610 C   0  0  0  0  0  0  0  0  0  0  0  0
    2.1040   -2.0380   -0.4270 O   0  0  0  0  0  0  0  0  0  0  0  0
    1.4730   -1.8980    0.8260 C   0  0  0  0  0  0  0  0  0  0  0  0
    0.1400   -2.6150    0.8680 C   0  0  0  0  0  0  0  0  0  0  0  0
    0.2650   -3.8720    0.7370 O   0  0  0  0  0  0  0  0  0  0  0  0
   -0.9990   -1.9110    1.0320 O   0  0  0  0  0  0  0  0  0  0  0  0
   -1.9540   -1.3630    0.2200 C   0  0  1  0  0  0  0  0  0  0  0  0
   -3.3140   -2.0230    0.2470 C   0  0  2  0  0  0  0  0  0  0  0  0
   -3.2430   -3.5130    0.3710 C   0  0  2  0  0  0  0  0  0  0  0  0
   -2.5390   -4.1500   -0.7000 N   0  0  0  0  0  0  0  0  0  0  0  0
   -4.6620   -4.0440    0.3730 C   0  0  0  0  0  0  0  0  0  0  0  0
   -4.6910   -5.4270    0.5600 O   0  0  0  0  0  0  0  0  0  0  0  0
   -4.0500   -1.5720   -0.9970 C   0  0  0  0  0  0  0  0  0  0  0  0
   -3.4360   -0.4170   -1.4940 O   0  0  0  0  0  0  0  0  0  0  0  0
   -3.2680    0.5350   -0.4790 C   0  0  0  0  0  0  0  0  0  0  0  0
   -2.2700    0.1280    0.5570 C   0  0  2  0  0  0  0  0  0  0  0  0
   -0.9600    0.8610    0.5050 C   0  0  1  0  0  0  0  0  0  0  0  0
   -0.3150    0.3880   -0.6460 O   0  0  0  0  0  0  0  0  0  0  0  0
  1  2  1  0
  2  3  2  0
  2  7  1  0
  3  4  1  0
  4  5  2  0
  4 38  1  0
  5  6  1  0
  5 10  1  0
  6  7  2  0
  7  8  1  0
  8  9  1  0
 10 11  1  0
 11 12  1  0
 12 13  1  0
 13 14  1  0
 14 15  2  0
 14 22  1  0
 15 16  1  0
 15 19  1  0
 16 17  1  0
 17 18  1  0
 19 20  2  0
 20 21  1  0
 21 22  2  0
 22 23  1  0
 23 24  1  0
 24 25  1  0
 25 26  2  0
 25 27  1  0
 28 27  1  1
 28 29  1  0
 28 37  1  0
 29 30  1  0
 29 34  1  6
 30 31  1  6
 30 32  1  0
 32 33  1  0
 34 35  1  0
 35 36  1  0
 37 36  1  6
 37 38  1  0
 38 39  1  6
M  CHG  1  31   1
M  END
