
     RDKit          3D

 39 43  0  0  0  0  0  0  0  0999 V2000
  -11.9080    0.6210   -0.8720 C   0  0  0  0  0  0  0  0  0  0  0  0
  -11.1640    0.4280    0.4100 C   0  0  0  0  0  0  0  0  0  0  0  0
  -11.7570    0.1400    1.6290 C   0  0  0  0  0  0  0  0  0  0  0  0
  -10.7170    0.0480    2.5200 C   0  0  0  0  0  0  0  0  0  0  0  0
   -9.5280    0.2820    1.8210 C   0  0  0  0  0  0  0  0  0  0  0  0
   -8.2230    0.2540    2.4950 C   0  0  0  0  0  0  0  0  0  0  0  0
   -7.1270    0.4630    1.5740 N   0  0  0  0  0  0  0  0  0  0  0  0
   -5.7980    0.4660    2.0590 C   0  0  0  0  0  0  0  0  0  0  0  0
   -5.6440    0.2810    3.3120 O   0  0  0  0  0  0  0  0  0  0  0  0
   -4.6670    0.6610    1.2270 N   0  0  0  0  0  0  0  0  0  0  0  0
   -4.7290    0.8780   -0.1980 C   0  0  0  0  0  0  0  0  0  0  0  0
   -3.7660   -0.0300   -0.9450 C   0  0  0  0  0  0  0  0  0  0  0  0
   -2.5760   -0.3430   -0.2050 N   0  0  0  0  0  0  0  0  0  0  0  0
   -1.3130   -0.4230   -0.8430 C   0  0  0  0  0  0  0  0  0  0  0  0
   -1.2500   -0.2150   -2.0870 O   0  0  0  0  0  0  0  0  0  0  0  0
   -0.1250   -0.7470   -0.0230 C   0  0  0  0  0  0  0  0  0  0  0  0
    1.0930   -0.7310   -0.9050 C   0  0  0  0  0  0  0  0  0  0  0  0
    1.2770    0.5760   -1.4820 N   0  0  0  0  0  0  0  0  0  0  0  0
    1.8340    0.4090   -2.8200 C   0  0  0  0  0  0  0  0  0  0  0  0
    2.8740    1.4530   -3.0980 C   0  0  0  0  0  0  0  0  0  0  0  0
    3.9890    1.4600   -2.2120 N   0  0  0  0  0  0  0  0  0  0  0  0
    4.9930    0.4420   -2.1830 C   0  0  0  0  0  0  0  0  0  0  0  0
    5.0100   -0.6090   -3.0640 C   0  0  0  0  0  0  0  0  0  0  0  0
    5.9950   -1.5650   -2.9660 C   0  0  0  0  0  0  0  0  0  0  0  0
    6.9590   -1.4370   -1.9640 C   0  0  0  0  0  0  0  0  0  0  0  0
    6.9260   -0.3790   -1.0940 C   0  0  0  0  0  0  0  0  0  0  0  0
    7.9120   -0.2140   -0.0450 C   0  0  0  0  0  0  0  0  0  0  0  0
    7.8050    0.9030    0.7900 C   0  0  0  0  0  0  0  0  0  0  0  0
    8.6830    1.1580    1.8150 C   0  0  0  0  0  0  0  0  0  0  0  0
    9.7380    0.2720    2.0490 C   0  0  0  0  0  0  0  0  0  0  0  0
    9.8420   -0.8160    1.2370 C   0  0  0  0  0  0  0  0  0  0  0  0
    8.9480   -1.0790    0.1900 C   0  0  0  0  0  0  0  0  0  0  0  0
   10.8940   -1.5120    1.6260 C   0  0  0  0  0  0  0  0  0  0  0  0
   11.5210   -0.8330    2.7740 C   0  0  0  0  0  0  0  0  0  0  0  0
   10.6620    0.3210    2.9430 N   0  0  0  0  0  0  0  0  0  0  0  0
    5.9540    0.5100   -1.2370 N   0  0  0  0  0  0  0  0  0  0  0  0
   -2.6650   -0.5870    1.2110 C   0  0  0  0  0  0  0  0  0  0  0  0
   -3.3450    0.6440    1.8200 C   0  0  0  0  0  0  0  0  0  0  0  0
   -9.8760    0.4970    0.5870 O   0  0  0  0  0  0  0  0  0  0  0  0
  1  2  1  0
  2  3  2  0
  2 39  1  0
  3  4  1  0
  4  5  2  0
  5  6  1  0
  5 39  1  0
  6  7  1  0
  7  8  1  0
  8  9  2  0
  8 10  1  0
 10 11  1  0
 10 38  1  0
 11 12  1  0
 12 13  1  0
 13 14  1  0
 13 37  1  0
 14 15  2  0
 14 16  1  0
 16 17  1  0
 17 18  1  0
 18 19  1  0
 19 20  1  0
 20 21  1  0
 21 22  1  0
 22 23  2  0
 22 36  1  0
 23 24  1  0
 24 25  2  0
 25 26  1  0
 26 27  1  0
 26 36  2  0
 27 28  1  0
 27 32  2  0
 28 29  2  0
 29 30  1  0
 30 31  1  0
 30 35  2  0
 31 32  1  0
 31 33  2  0
 33 34  1  0
 34 35  1  0
 37 38  1  0
M  CHG  1  18   1
M  END
