
     RDKit          3D

 43 47  0  0  0  0  0  0  0  0999 V2000
   -6.3940   -3.2740   -1.3520 C   0  0  0  0  0  0  0  0  0  0  0  0
   -5.9240   -1.8570   -1.4170 C   0  0  0  0  0  0  0  0  0  0  0  0
   -5.3130   -1.4690   -0.0720 C   0  0  2  0  0  0  0  0  0  0  0  0
   -6.3390   -1.6120    0.9780 C   0  0  0  0  0  0  0  0  0  0  0  0
   -7.4260   -0.7770    0.9060 O   0  0  0  0  0  0  0  0  0  0  0  0
   -4.6530   -0.1950   -0.1830 N   0  0  0  0  0  0  0  0  0  0  0  0
   -5.4640    0.8910   -0.5070 C   0  0  0  0  0  0  0  0  0  0  0  0
   -4.7340    2.2450   -0.5490 C   0  0  0  0  0  0  0  0  0  0  0  0
   -5.5500    3.3400   -0.9820 C   0  0  0  0  0  0  0  0  0  0  0  0
   -6.9790    3.3210   -1.3460 C   0  0  0  0  0  0  0  0  0  0  0  0
   -4.4450    4.6990   -0.9740 S   0  0  0  0  0  0  0  0  0  0  0  0
   -2.9950    3.8150   -0.4170 C   0  0  0  0  0  0  0  0  0  0  0  0
   -1.7190    4.4190   -0.1760 C   0  0  0  0  0  0  0  0  0  0  0  0
   -1.6170    5.6770   -0.4170 O   0  0  0  0  0  0  0  0  0  0  0  0
   -3.4640    2.5040   -0.2710 C   0  0  0  0  0  0  0  0  0  0  0  0
   -2.5130    1.5020    0.3570 C   0  0  0  0  0  0  0  0  0  0  0  0
   -1.1860    1.3850    0.1030 C   0  0  0  0  0  0  0  0  0  0  0  0
   -0.7730    0.3560    0.8870 N   0  0  0  0  0  0  0  0  0  0  0  0
   -1.7690   -0.1390    1.5820 C   0  0  0  0  0  0  0  0  0  0  0  0
   -1.9510   -1.2100    2.5620 C   0  0  0  0  0  0  0  0  0  0  0  0
   -0.7470   -1.9360    2.9720 C   0  0  0  0  0  0  0  0  0  0  0  0
    0.3540   -1.2250    3.6420 C   0  0  0  0  0  0  0  0  0  0  0  0
    1.1230   -0.2600    2.9480 N   0  0  0  0  0  0  0  0  0  0  0  0
    1.9720   -0.5970    1.8230 C   0  0  0  0  0  0  0  0  0  0  0  0
    2.0130   -1.7970    1.4690 O   0  0  0  0  0  0  0  0  0  0  0  0
    2.7440    0.4300    1.1370 C   0  0  0  0  0  0  0  0  0  0  0  0
    2.7060    1.6420    1.4690 O   0  0  0  0  0  0  0  0  0  0  0  0
    3.5610    0.1060    0.0780 O   0  0  0  0  0  0  0  0  0  0  0  0
    4.3150    1.1110   -0.5960 C   0  0  2  0  0  0  0  0  0  0  0  0
    3.9590    1.0590   -2.0650 C   0  0  0  0  0  0  0  0  0  0  0  0
    4.1480   -0.3170   -2.6140 C   0  0  0  0  0  0  0  0  0  0  0  0
    5.3920   -0.8410   -2.2360 O   0  0  0  0  0  0  0  0  0  0  0  0
    6.2420   -0.2570   -1.3230 C   0  0  0  0  0  0  0  0  0  0  0  0
    5.7450    0.7190   -0.4870 C   0  0  0  0  0  0  0  0  0  0  0  0
    6.6010    1.3000    0.4240 C   0  0  0  0  0  0  0  0  0  0  0  0
    7.9220    0.9110    0.4950 C   0  0  0  0  0  0  0  0  0  0  0  0
    8.4330   -0.0600   -0.3310 C   0  0  0  0  0  0  0  0  0  0  0  0
    7.5810   -0.6510   -1.2520 C   0  0  0  0  0  0  0  0  0  0  0  0
    8.1110   -1.6200   -2.0690 O   0  0  0  0  0  0  0  0  0  0  0  0
    9.2040   -2.4420   -1.6950 C   0  0  0  0  0  0  0  0  0  0  0  0
   10.1430   -1.7780   -0.7380 C   0  0  0  0  0  0  0  0  0  0  0  0
    9.7360   -0.5000   -0.3200 O   0  0  0  0  0  0  0  0  0  0  0  0
   -2.8210    0.5960    1.2240 O   0  0  0  0  0  0  0  0  0  0  0  0
  1  2  1  0
  3  2  1  6
  3  4  1  0
  3  6  1  0
  4  5  1  0
  6  7  1  0
  7  8  1  0
  8  9  2  0
  8 15  1  0
  9 10  1  0
  9 11  1  0
 11 12  1  0
 12 13  1  0
 12 15  2  0
 13 14  2  0
 15 16  1  0
 16 17  2  0
 16 43  1  0
 17 18  1  0
 18 19  2  0
 19 20  1  0
 19 43  1  0
 20 21  1  0
 21 22  1  0
 22 23  1  0
 23 24  1  0
 24 25  2  0
 24 26  1  0
 26 27  2  0
 26 28  1  0
 29 28  1  1
 29 30  1  0
 29 34  1  0
 30 31  1  0
 31 32  1  0
 32 33  1  0
 33 34  2  0
 33 38  1  0
 34 35  1  0
 35 36  2  0
 36 37  1  0
 37 38  2  0
 37 42  1  0
 38 39  1  0
 39 40  1  0
 40 41  1  0
 41 42  1  0
M  END
