
     RDKit          3D

 44 48  0  0  0  0  0  0  0  0999 V2000
    7.8520    1.7460   -2.1460 C   0  0  0  0  0  0  0  0  0  0  0  0
    6.5840    1.9000   -1.4180 N   0  0  0  0  0  0  0  0  0  0  0  0
    6.2140    0.9460   -0.4340 C   0  0  0  0  0  0  0  0  0  0  0  0
    7.0140    0.0030   -0.2370 O   0  0  0  0  0  0  0  0  0  0  0  0
    4.9680    0.9880    0.3620 C   0  0  1  0  0  0  0  0  0  0  0  0
    3.8260    0.9980   -0.6170 C   0  0  0  0  0  0  0  0  0  0  0  0
    2.4660    1.4580   -0.1050 C   0  0  0  0  0  0  0  0  0  0  0  0
    1.5260    2.0360   -0.9360 C   0  0  0  0  0  0  0  0  0  0  0  0
    0.2250    2.4750   -0.5410 C   0  0  0  0  0  0  0  0  0  0  0  0
   -0.1600    2.3310    0.7530 C   0  0  0  0  0  0  0  0  0  0  0  0
    0.7860    1.7500    1.5810 C   0  0  0  0  0  0  0  0  0  0  0  0
    2.0790    1.3100    1.2010 C   0  0  0  0  0  0  0  0  0  0  0  0
   -1.5040    2.7230    1.1850 N   0  0  0  0  0  0  0  0  0  0  0  0
   -2.6360    1.8700    1.2520 C   0  0  0  0  0  0  0  0  0  0  0  0
   -3.0490    1.6930    2.4840 O   0  0  0  0  0  0  0  0  0  0  0  0
   -3.4640    1.1390    0.3140 C   0  0  1  0  0  0  0  0  0  0  0  0
   -4.6560    1.8790   -0.0880 N   0  0  0  0  0  0  0  0  0  0  0  0
   -5.9760    1.5860    0.3100 C   0  0  0  0  0  0  0  0  0  0  0  0
   -6.1670    0.6110    1.0830 O   0  0  0  0  0  0  0  0  0  0  0  0
   -7.1070    2.3940   -0.1600 C   0  0  0  0  0  0  0  0  0  0  0  0
   -7.0310    3.4800   -1.0020 C   0  0  0  0  0  0  0  0  0  0  0  0
   -8.3160    3.9740   -1.2110 C   0  0  0  0  0  0  0  0  0  0  0  0
   -9.1100    3.1660   -0.4870 N   0  0  0  0  0  0  0  0  0  0  0  0
   -8.3970    2.2310    0.1360 N   0  0  0  0  0  0  0  0  0  0  0  0
   -9.0030    1.2240    0.9870 C   0  0  0  0  0  0  0  0  0  0  0  0
   -2.7580    0.6020   -0.8990 C   0  0  0  0  0  0  0  0  0  0  0  0
   -2.1490   -0.7610   -0.6520 C   0  0  0  0  0  0  0  0  0  0  0  0
   -0.8680   -1.1010   -0.3380 C   0  0  0  0  0  0  0  0  0  0  0  0
   -0.5500   -2.4310   -0.1590 C   0  0  0  0  0  0  0  0  0  0  0  0
   -1.5900   -3.3900   -0.3120 C   0  0  0  0  0  0  0  0  0  0  0  0
   -2.8840   -3.0940   -0.6250 C   0  0  0  0  0  0  0  0  0  0  0  0
   -3.1440   -1.7560   -0.7920 C   0  0  0  0  0  0  0  0  0  0  0  0
   -4.8200   -1.3440   -1.2090 Cl  0  0  0  0  0  0  0  0  0  0  0  0
    0.7500   -3.1050    0.1850 C   0  0  0  0  0  0  0  0  0  0  0  0
    0.5510   -4.0590    1.2180 C   0  0  0  0  0  0  0  0  0  0  0  0
    1.5320   -4.8240    1.7730 C   0  0  0  0  0  0  0  0  0  0  0  0
    2.7820   -4.6120    1.2550 C   0  0  0  0  0  0  0  0  0  0  0  0
    3.0500   -3.6760    0.2230 C   0  0  0  0  0  0  0  0  0  0  0  0
    2.0340   -2.9360   -0.3000 C   0  0  0  0  0  0  0  0  0  0  0  0
    4.5030   -3.6810   -0.1130 C   0  0  0  0  0  0  0  0  0  0  0  0
    5.2400   -2.3710   -0.0120 C   0  0  0  0  0  0  0  0  0  0  0  0
    4.6270   -1.4820    0.9990 C   0  0  0  0  0  0  0  0  0  0  0  0
    3.7080   -2.0560    1.6960 O   0  0  0  0  0  0  0  0  0  0  0  0
    4.9520   -0.1310    1.2480 N   0  0  0  0  0  0  0  0  0  0  0  0
  1  2  1  0
  2  3  1  0
  3  4  2  0
  5  3  1  6
  5  6  1  0
  5 44  1  0
  6  7  1  0
  7  8  2  0
  7 12  1  0
  8  9  1  0
  9 10  2  0
 10 11  1  0
 10 13  1  0
 11 12  2  0
 13 14  1  0
 14 15  2  0
 14 16  1  0
 16 17  1  6
 16 26  1  0
 17 18  1  0
 18 19  2  0
 18 20  1  0
 20 21  2  0
 20 24  1  0
 21 22  1  0
 22 23  2  0
 23 24  1  0
 24 25  1  0
 26 27  1  0
 27 28  1  0
 27 32  2  0
 28 29  2  0
 29 30  1  0
 29 34  1  0
 30 31  2  0
 31 32  1  0
 32 33  1  0
 34 35  1  0
 34 39  2  0
 35 36  2  0
 36 37  1  0
 37 38  2  0
 38 39  1  0
 38 40  1  0
 40 41  1  0
 41 42  1  0
 42 43  2  0
 42 44  1  0
M  END
