
     RDKit          3D

 44 48  0  0  0  0  0  0  0  0999 V2000
  -10.8720   -1.0860    2.0320 C   0  0  0  0  0  0  0  0  0  0  0  0
   -9.6290   -1.0130    1.2910 N   0  0  0  0  0  0  0  0  0  0  0  0
   -8.5020   -0.2680    1.7730 C   0  0  0  0  0  0  0  0  0  0  0  0
   -8.6250    0.3210    2.8570 O   0  0  0  0  0  0  0  0  0  0  0  0
   -7.2800   -0.2430    0.9720 C   0  0  0  0  0  0  0  0  0  0  0  0
   -7.1980   -0.8190   -0.1400 O   0  0  0  0  0  0  0  0  0  0  0  0
   -6.1240    0.4420    1.4280 N   0  0  0  0  0  0  0  0  0  0  0  0
   -4.9210    0.4400    0.5850 C   0  0  0  0  0  0  0  0  0  0  0  0
   -3.7370    0.9860    0.8150 C   0  0  0  0  0  0  0  0  0  0  0  0
   -2.7500    0.8780   -0.0850 C   0  0  0  0  0  0  0  0  0  0  0  0
   -2.9990    0.1850   -1.2560 C   0  0  0  0  0  0  0  0  0  0  0  0
   -2.2480   -0.1150   -2.4500 C   0  0  0  0  0  0  0  0  0  0  0  0
   -1.3850   -1.2870   -2.5550 C   0  0  0  0  0  0  0  0  0  0  0  0
   -0.2750   -1.4870   -1.6710 N   0  0  0  0  0  0  0  0  0  0  0  0
    1.0030   -0.8570   -2.0070 C   0  0  0  0  0  0  0  0  0  0  0  0
    1.9930   -1.1550   -1.3040 O   0  0  0  0  0  0  0  0  0  0  0  0
    1.1480    0.0710   -3.0950 C   0  0  2  0  0  0  0  0  0  0  0  0
    2.4790    0.1650   -3.6050 O   0  0  0  0  0  0  0  0  0  0  0  0
    2.3030    1.2450   -4.5130 C   0  0  0  0  0  0  0  0  0  0  0  0
    1.4180    2.2580   -3.7850 C   0  0  0  0  0  0  0  0  0  0  0  0
    1.1950    1.5430   -2.4880 C   0  0  2  0  0  0  0  0  0  0  0  0
    2.2850    1.5920   -1.6250 O   0  0  0  0  0  0  0  0  0  0  0  0
    2.3070    1.7460   -0.2690 C   0  0  0  0  0  0  0  0  0  0  0  0
    1.2630    1.8750    0.3430 O   0  0  0  0  0  0  0  0  0  0  0  0
    3.6170    1.7540    0.4610 C   0  0  0  0  0  0  0  0  0  0  0  0
    4.6980    1.6210   -0.2500 C   0  0  0  0  0  0  0  0  0  0  0  0
    6.0790    1.5810    0.2020 C   0  0  0  0  0  0  0  0  0  0  0  0
    7.1670    2.3260   -0.1770 C   0  0  0  0  0  0  0  0  0  0  0  0
    8.2250    1.8600    0.5580 C   0  0  0  0  0  0  0  0  0  0  0  0
    7.7630    0.8460    1.3670 C   0  0  0  0  0  0  0  0  0  0  0  0
    8.5430    0.0200    2.3560 C   0  0  0  0  0  0  0  0  0  0  0  0
    8.3320   -1.3170    2.0310 O   0  0  0  0  0  0  0  0  0  0  0  0
    6.4840    0.7040    1.1330 O   0  0  0  0  0  0  0  0  0  0  0  0
    3.6200    2.0250    1.8820 C   0  0  0  0  0  0  0  0  0  0  0  0
    2.5440    1.9030    2.7700 C   0  0  0  0  0  0  0  0  0  0  0  0
    3.0110    2.3630    4.0030 C   0  0  0  0  0  0  0  0  0  0  0  0
    4.2510    2.7240    3.8580 O   0  0  0  0  0  0  0  0  0  0  0  0
    4.6640    2.5440    2.6090 C   0  0  0  0  0  0  0  0  0  0  0  0
   -0.2270   -2.2930   -0.4870 C   0  0  2  0  0  0  0  0  0  0  0  0
   -0.5590   -3.7930   -0.7060 C   0  0  0  0  0  0  0  0  0  0  0  0
   -1.2360   -2.9450    0.3050 C   0  0  2  0  0  0  0  0  0  0  0  0
   -2.7090   -2.7990    0.1910 C   0  0  0  0  0  0  0  0  0  0  0  0
   -0.8340   -3.3530    1.7640 C   0  0  0  0  0  0  0  0  0  0  0  0
   -4.7630   -0.2980   -0.9570 S   0  0  0  0  0  0  0  0  0  0  0  0
  1  2  1  0
  2  3  1  0
  3  4  2  0
  3  5  1  0
  5  6  2  0
  5  7  1  0
  7  8  1  0
  8  9  2  0
  8 44  1  0
  9 10  1  0
 10 11  2  0
 11 12  1  0
 11 44  1  0
 12 13  1  0
 13 14  1  0
 14 15  1  0
 39 14  1  6
 15 16  2  0
 17 15  1  1
 17 18  1  0
 17 21  1  0
 18 19  1  0
 19 20  1  0
 20 21  1  0
 21 22  1  1
 22 23  1  0
 23 24  2  0
 23 25  1  0
 25 26  2  3
 25 34  1  0
 26 27  1  0
 27 28  2  0
 27 33  1  0
 28 29  1  0
 29 30  2  0
 30 31  1  0
 30 33  1  0
 31 32  1  0
 34 35  1  0
 34 38  2  0
 35 36  2  0
 36 37  1  0
 37 38  1  0
 39 40  1  0
 39 41  1  0
 40 41  1  0
 41 42  1  1
 41 43  1  0
M  END
