
     RDKit          3D

 44 47  0  0  0  0  0  0  0  0999 V2000
    0.9830    4.0610   -5.3890 C   0  0  0  0  0  0  0  0  0  0  0  0
    2.2740    3.8800   -4.6030 C   0  0  0  0  0  0  0  0  0  0  0  0
    1.9480    3.4360   -3.3060 O   0  0  0  0  0  0  0  0  0  0  0  0
    2.8930    3.1950   -2.3180 C   0  0  0  0  0  0  0  0  0  0  0  0
    4.1070    3.3870   -2.6160 O   0  0  0  0  0  0  0  0  0  0  0  0
    2.4370    2.7400   -1.0110 C   0  0  0  0  0  0  0  0  0  0  0  0
    1.1800    2.5070   -0.6880 C   0  0  0  0  0  0  0  0  0  0  0  0
    0.1410    2.7220   -1.7390 C   0  0  0  0  0  0  0  0  0  0  0  0
    0.7310    2.0180    0.6300 C   0  0  1  0  0  0  0  0  0  0  0  0
   -0.0870    0.8230    0.4930 N   0  0  0  0  0  0  0  0  0  0  0  0
   -1.4890    0.8340    0.7890 C   0  0  0  0  0  0  0  0  0  0  0  0
   -1.9480    1.9040    1.1630 O   0  0  0  0  0  0  0  0  0  0  0  0
   -2.2880   -0.2920    0.6630 N   0  0  0  0  0  0  0  0  0  0  0  0
   -3.6700   -0.5000    0.8580 C   0  0  0  0  0  0  0  0  0  0  0  0
   -4.3180   -2.2060    0.7620 S   0  0  0  0  0  0  0  0  0  0  0  0
   -5.9880   -1.7930    1.0480 C   0  0  0  0  0  0  0  0  0  0  0  0
   -5.9720   -0.4390    1.1940 C   0  0  0  0  0  0  0  0  0  0  0  0
   -4.7850    0.2040    1.0940 C   0  0  0  0  0  0  0  0  0  0  0  0
   -4.7100    1.7320    1.2010 C   0  0  0  0  0  0  0  0  0  0  0  0
   -7.3190    0.2060    1.4010 C   0  0  0  0  0  0  0  0  0  0  0  0
   -8.4630   -0.5880    1.6940 C   0  0  0  0  0  0  0  0  0  0  0  0
   -8.4690   -2.0490    1.5120 C   0  0  0  0  0  0  0  0  0  0  0  0
   -9.3620   -3.0130    1.5670 C   0  0  0  0  0  0  0  0  0  0  0  0
   -8.6970   -4.2950    1.2820 C   0  0  0  0  0  0  0  0  0  0  0  0
   -7.2670   -3.9460    1.0400 C   0  0  0  0  0  0  0  0  0  0  0  0
   -7.1870   -2.6410    1.1870 C   0  0  0  0  0  0  0  0  0  0  0  0
    1.8070    1.8690    1.6320 C   0  0  1  0  0  0  0  0  0  0  0  0
    1.4710    1.0070    2.6530 O   0  0  0  0  0  0  0  0  0  0  0  0
    3.1630    1.4470    1.0200 C   0  0  1  0  0  0  0  0  0  0  0  0
    3.0470    0.1760    0.3850 N   0  0  0  0  0  0  0  0  0  0  0  0
    3.5320   -1.0430    0.9350 C   0  0  0  0  0  0  0  0  0  0  0  0
    4.0980   -0.9980    2.0480 O   0  0  0  0  0  0  0  0  0  0  0  0
    3.3950   -2.3580    0.2550 C   0  0  0  0  0  0  0  0  0  0  0  0
    3.8830   -3.3360    1.1000 O   0  0  0  0  0  0  0  0  0  0  0  0
    3.8130   -4.6210    0.6680 C   0  0  0  0  0  0  0  0  0  0  0  0
    4.5960   -4.8510   -0.5750 C   0  0  0  0  0  0  0  0  0  0  0  0
    4.4800   -6.2090   -0.9670 O   0  0  0  0  0  0  0  0  0  0  0  0
    5.2210   -6.4090   -2.1310 C   0  0  0  0  0  0  0  0  0  0  0  0
    3.4670    2.5470    0.0530 C   0  0  0  0  0  0  0  0  0  0  0  0
    4.5000    3.3440    0.1090 C   0  0  0  0  0  0  0  0  0  0  0  0
    5.5950    3.3370    1.0320 C   0  0  0  0  0  0  0  0  0  0  0  0
    6.5090    4.2310    0.8990 O   0  0  0  0  0  0  0  0  0  0  0  0
    5.8140    2.4720    2.0800 O   0  0  0  0  0  0  0  0  0  0  0  0
    6.9300    2.5540    2.9330 C   0  0  0  0  0  0  0  0  0  0  0  0
  1  2  1  0
  2  3  1  0
  3  4  1  0
  4  5  2  0
  4  6  1  0
  6  7  2  0
  6 39  1  0
  7  8  1  0
  7  9  1  0
  9 10  1  6
  9 27  1  0
 10 11  1  0
 11 12  2  0
 11 13  1  0
 13 14  1  0
 14 15  1  0
 14 18  2  0
 15 16  1  0
 16 17  2  0
 16 26  1  0
 17 18  1  0
 17 20  1  0
 18 19  1  0
 20 21  1  0
 21 22  1  0
 22 23  2  0
 22 26  1  0
 23 24  1  0
 24 25  1  0
 25 26  2  0
 27 28  1  1
 27 29  1  0
 29 30  1  6
 29 39  1  0
 30 31  1  0
 31 32  2  0
 31 33  1  0
 33 34  1  0
 34 35  1  0
 35 36  1  0
 36 37  1  0
 37 38  1  0
 39 40  2  3
 40 41  1  0
 41 42  2  0
 41 43  1  0
 43 44  1  0
M  END
