
     RDKit          3D

 44 48  0  0  0  0  0  0  0  0999 V2000
    9.2090    3.2790    0.1530 C   0  0  0  0  0  0  0  0  0  0  0  0
    9.1320    1.9160   -0.2000 O   0  0  0  0  0  0  0  0  0  0  0  0
    7.9960    1.3240   -0.7420 C   0  0  0  0  0  0  0  0  0  0  0  0
    6.8310    2.0180   -0.9850 C   0  0  0  0  0  0  0  0  0  0  0  0
    5.7240    1.3950   -1.5240 C   0  0  0  0  0  0  0  0  0  0  0  0
    5.7330    0.0410   -1.8470 C   0  0  0  0  0  0  0  0  0  0  0  0
    4.5210   -0.6040   -2.4260 C   0  0  1  0  0  0  0  0  0  0  0  0
    4.9670   -1.5220   -3.5330 C   0  0  0  0  0  0  0  0  0  0  0  0
    5.2360   -2.9020   -3.0900 C   0  0  0  0  0  0  0  0  0  0  0  0
    6.1560   -3.5430   -3.6940 O   0  0  0  0  0  0  0  0  0  0  0  0
    4.5060   -3.4830   -2.0460 N   0  0  0  0  0  0  0  0  0  0  0  0
    3.7720   -2.6640   -1.1690 C   0  0  0  0  0  0  0  0  0  0  0  0
    3.0550   -3.2330   -0.1410 C   0  0  0  0  0  0  0  0  0  0  0  0
    2.3390   -2.4480    0.7170 C   0  0  0  0  0  0  0  0  0  0  0  0
    1.4240   -3.1570    2.0130 S   0  0  2  0  0  0  0  0  0  0  0  0
    1.3340   -2.2100    3.1940 O   0  0  0  0  0  0  0  0  0  0  0  0
    1.9910   -4.4520    2.4940 O   0  0  0  0  0  0  0  0  0  0  0  0
   -0.1620   -3.4940    1.4260 O   0  0  0  0  0  0  0  0  0  0  0  0
   -1.1410   -2.5780    1.7230 C   0  0  0  0  0  0  0  0  0  0  0  0
   -1.9620   -2.6150    2.8210 C   0  0  0  0  0  0  0  0  0  0  0  0
   -2.9190   -1.6570    3.0450 C   0  0  0  0  0  0  0  0  0  0  0  0
   -3.1100   -0.5740    2.1490 C   0  0  0  0  0  0  0  0  0  0  0  0
   -4.0850    0.4120    2.4580 C   0  0  0  0  0  0  0  0  0  0  0  0
   -4.6180    0.2750    3.6820 O   0  0  0  0  0  0  0  0  0  0  0  0
   -4.6370    1.5180    1.7810 N   0  0  0  0  0  0  0  0  0  0  0  0
   -5.5760    2.2400    2.6460 C   0  0  0  0  0  0  0  0  0  0  0  0
   -6.9820    1.9380    2.6740 C   0  0  0  0  0  0  0  0  0  0  0  0
   -7.8500    2.2570    1.5450 C   0  0  0  0  0  0  0  0  0  0  0  0
   -7.5720    3.1020    0.6690 O   0  0  0  0  0  0  0  0  0  0  0  0
   -9.1100    1.5730    1.4070 N   0  0  0  0  0  0  0  0  0  0  0  0
   -9.9340    1.8450    0.3760 O   0  0  0  0  0  0  0  0  0  0  0  0
   -4.3350    1.9430    0.4720 C   0  0  0  0  0  0  0  0  0  0  0  0
   -5.0480    1.3790   -0.6960 C   0  0  2  0  0  0  0  0  0  0  0  0
   -4.9050   -0.0670   -1.0110 C   0  0  0  0  0  0  0  0  0  0  0  0
   -3.8090   -0.1730   -2.0120 C   0  0  0  0  0  0  0  0  0  0  0  0
   -3.4280    1.2720   -2.2230 C   0  0  0  0  0  0  0  0  0  0  0  0
   -4.5310    2.0140   -1.8560 O   0  0  0  0  0  0  0  0  0  0  0  0
   -2.2890   -0.5440    1.0590 C   0  0  0  0  0  0  0  0  0  0  0  0
   -1.3160   -1.5350    0.8490 C   0  0  0  0  0  0  0  0  0  0  0  0
    2.3500   -1.0890    0.5350 C   0  0  0  0  0  0  0  0  0  0  0  0
    3.0520   -0.4870   -0.4760 C   0  0  0  0  0  0  0  0  0  0  0  0
    3.7790   -1.3020   -1.3460 C   0  0  0  0  0  0  0  0  0  0  0  0
    6.8960   -0.6560   -1.6060 C   0  0  0  0  0  0  0  0  0  0  0  0
    8.0160   -0.0170   -1.0590 C   0  0  0  0  0  0  0  0  0  0  0  0
  1  2  1  0
  2  3  1  0
  3  4  2  0
  3 44  1  0
  4  5  1  0
  5  6  2  0
  7  6  1  1
  6 43  1  0
  7  8  1  0
  7 42  1  0
  8  9  1  0
  9 10  2  0
  9 11  1  0
 11 12  1  0
 12 13  2  0
 12 42  1  0
 13 14  1  0
 14 15  1  0
 14 40  2  0
 15 16  2  0
 15 17  2  0
 15 18  1  6
 18 19  1  0
 19 20  2  0
 19 39  1  0
 20 21  1  0
 21 22  2  0
 22 23  1  0
 22 38  1  0
 23 24  2  0
 23 25  1  0
 25 26  1  0
 25 32  1  0
 26 27  1  0
 27 28  1  0
 28 29  2  0
 28 30  1  0
 30 31  1  0
 33 32  1  1
 33 34  1  0
 33 37  1  0
 34 35  1  0
 35 36  1  0
 36 37  1  0
 38 39  2  0
 40 41  1  0
 41 42  2  0
 43 44  2  0
M  END
