
     RDKit          3D

 44 47  0  0  0  0  0  0  0  0999 V2000
  -11.0310   -1.9410    2.1220 C   0  0  0  0  0  0  0  0  0  0  0  0
   -9.6140   -1.4120    2.2970 C   0  0  0  0  0  0  0  0  0  0  0  0
   -8.9120   -1.5470    1.0160 C   0  0  0  0  0  0  0  0  0  0  0  0
   -9.3270   -2.0320   -0.1910 C   0  0  0  0  0  0  0  0  0  0  0  0
   -8.4430   -2.0320   -1.2080 C   0  0  0  0  0  0  0  0  0  0  0  0
   -7.1980   -1.5700   -1.0440 C   0  0  0  0  0  0  0  0  0  0  0  0
   -6.0340   -1.4060   -1.9000 C   0  0  0  0  0  0  0  0  0  0  0  0
   -5.8690   -1.8240   -3.1920 C   0  0  0  0  0  0  0  0  0  0  0  0
   -6.8630   -2.5960   -4.0050 C   0  0  0  0  0  0  0  0  0  0  0  0
   -4.6640   -1.4510   -3.6370 N   0  0  0  0  0  0  0  0  0  0  0  0
   -4.0160   -0.7920   -2.6700 C   0  0  0  0  0  0  0  0  0  0  0  0
   -2.7630   -0.2110   -2.6380 C   0  0  0  0  0  0  0  0  0  0  0  0
   -2.3160    0.4350   -1.4770 C   0  0  0  0  0  0  0  0  0  0  0  0
   -3.1100    0.4940   -0.3820 C   0  0  0  0  0  0  0  0  0  0  0  0
   -2.7870    1.1500    0.8350 N   0  0  0  0  0  0  0  0  0  0  0  0
   -1.8710    2.2180    0.9820 C   0  0  0  0  0  0  0  0  0  0  0  0
   -1.2880    2.6450   -0.0530 O   0  0  0  0  0  0  0  0  0  0  0  0
   -1.5620    2.8600    2.2940 C   0  0  0  0  0  0  0  0  0  0  0  0
   -0.6730    4.0610    2.1170 C   0  0  0  0  0  0  0  0  0  0  0  0
    0.5840    3.8010    1.4970 N   0  0  0  0  0  0  0  0  0  0  0  0
    1.5830    2.9360    1.9790 C   0  0  0  0  0  0  0  0  0  0  0  0
    1.3900    2.3230    3.0400 O   0  0  0  0  0  0  0  0  0  0  0  0
    2.8770    2.7200    1.2660 C   0  0  1  0  0  0  0  0  0  0  0  0
    4.0120    3.0430    2.2140 C   0  0  0  0  0  0  0  0  0  0  0  0
    3.0120    1.2620    0.8830 C   0  0  0  0  0  0  0  0  0  0  0  0
    4.3620    1.1670    0.1610 C   0  0  1  0  0  0  0  0  0  0  0  0
    4.9670   -0.1640    0.2470 C   0  0  0  0  0  0  0  0  0  0  0  0
    5.2620   -0.8620   -0.7550 O   0  0  0  0  0  0  0  0  0  0  0  0
    5.2270   -0.6790    1.4910 O   0  0  0  0  0  0  0  0  0  0  0  0
    5.8020   -1.9290    1.7740 C   0  0  0  0  0  0  0  0  0  0  0  0
    7.1840   -2.0480    1.1870 C   0  0  0  0  0  0  0  0  0  0  0  0
    7.8500   -3.0950    1.3670 O   0  0  0  0  0  0  0  0  0  0  0  0
    7.6440   -0.9650    0.4700 O   0  0  0  0  0  0  0  0  0  0  0  0
    8.9130   -0.9790   -0.1140 C   0  0  0  0  0  0  0  0  0  0  0  0
    9.1270   -2.0630   -1.1210 C   0  0  0  0  0  0  0  0  0  0  0  0
   10.3900   -2.0210   -1.6650 O   0  0  0  0  0  0  0  0  0  0  0  0
   11.3940   -2.2090   -0.7410 C   0  0  0  0  0  0  0  0  0  0  0  0
    4.0980    1.6340   -1.2510 C   0  0  0  0  0  0  0  0  0  0  0  0
    3.3410    2.9150   -1.1600 C   0  0  0  0  0  0  0  0  0  0  0  0
    3.0450    3.5190   -2.2230 O   0  0  0  0  0  0  0  0  0  0  0  0
    2.9500    3.4650    0.0650 O   0  0  0  0  0  0  0  0  0  0  0  0
   -4.3820   -0.1010   -0.4290 C   0  0  0  0  0  0  0  0  0  0  0  0
   -4.8470   -0.7460   -1.5640 C   0  0  0  0  0  0  0  0  0  0  0  0
   -7.1930   -1.0600    0.7190 S   0  0  0  0  0  0  0  0  0  0  0  0
  1  2  1  0
  2  3  1  0
  3  4  2  0
  3 44  1  0
  4  5  1  0
  5  6  2  0
  6  7  1  0
  6 44  1  0
  7  8  2  0
  7 43  1  0
  8  9  1  0
  8 10  1  0
 10 11  1  0
 11 12  2  0
 11 43  1  0
 12 13  1  0
 13 14  2  0
 14 15  1  0
 14 42  1  0
 15 16  1  0
 16 17  2  0
 16 18  1  0
 18 19  1  0
 19 20  1  0
 20 21  1  0
 21 22  2  0
 21 23  1  0
 23 24  1  1
 23 25  1  0
 23 41  1  0
 25 26  1  0
 26 27  1  6
 26 38  1  0
 27 28  2  0
 27 29  1  0
 29 30  1  0
 30 31  1  0
 31 32  2  0
 31 33  1  0
 33 34  1  0
 34 35  1  0
 35 36  1  0
 36 37  1  0
 38 39  1  0
 39 40  2  0
 39 41  1  0
 42 43  2  0
M  END
