
     RDKit          3D

 33 34  0  0  0  0  0  0  0  0999 V2000
    6.8140    0.6750    0.2590 C   0  0  0  0  0  0  0  0  0  0  0  0
    5.5970    0.7200    1.1010 C   0  0  0  0  0  0  0  0  0  0  0  0
    4.4290    0.3420    0.6080 C   0  0  0  0  0  0  0  0  0  0  0  0
    4.3240   -0.1230   -0.7650 C   0  0  0  0  0  0  0  0  0  0  0  0
    2.9420   -0.5560   -1.1840 C   0  0  0  0  0  0  0  0  0  0  0  0
    2.8970   -1.0540   -2.5720 C   0  0  0  0  0  0  0  0  0  0  0  0
    1.8990   -0.5180   -0.4420 C   0  0  0  0  0  0  0  0  0  0  0  0
    0.5560   -0.9130   -0.7830 C   0  0  1  0  0  0  0  0  0  0  0  0
   -0.3890    0.3300   -0.6600 C   0  0  0  0  0  0  0  0  0  0  0  0
    0.0850    1.6400   -0.6940 C   0  0  0  0  0  0  0  0  0  0  0  0
    1.3440    1.9020   -0.7500 O   0  0  0  0  0  0  0  0  0  0  0  0
   -0.6770    2.7730   -0.6750 O   0  0  0  0  0  0  0  0  0  0  0  0
   -0.1680    4.0880   -0.7110 C   0  0  0  0  0  0  0  0  0  0  0  0
   -1.3020    5.0910   -0.6760 C   0  0  0  0  0  0  0  0  0  0  0  0
   -1.6370   -0.0550   -0.6020 C   0  0  0  0  0  0  0  0  0  0  0  0
   -2.7680    0.8250   -0.4870 C   0  0  0  0  0  0  0  0  0  0  0  0
   -2.6960    2.0670   -0.3930 O   0  0  0  0  0  0  0  0  0  0  0  0
   -4.0880    0.3660   -0.4720 O   0  0  0  0  0  0  0  0  0  0  0  0
   -5.1880    1.2490   -0.3620 C   0  0  0  0  0  0  0  0  0  0  0  0
   -6.4170    0.3730   -0.3870 C   0  0  0  0  0  0  0  0  0  0  0  0
   -6.4500   -0.6190    0.7330 C   0  0  0  0  0  0  0  0  0  0  0  0
   -1.8990   -1.4880   -0.6680 N   0  0  0  0  0  0  0  0  0  0  0  0
   -2.8950   -2.0570    0.1970 C   0  0  0  0  0  0  0  0  0  0  0  0
   -2.2990   -3.0100    1.2360 C   0  0  0  0  0  0  0  0  0  0  0  0
   -1.1800   -2.3660   -1.5850 C   0  0  0  0  0  0  0  0  0  0  0  0
    0.1070   -1.5640   -2.0010 C   0  0  1  0  0  0  0  0  0  0  0  0
   -0.4470   -0.6680   -3.0860 C   0  0  0  0  0  0  0  0  0  0  0  0
    2.1220   -0.0090    0.9670 C   0  0  0  0  0  0  0  0  0  0  0  0
    1.0030   -0.0860    1.8790 N   0  0  0  0  0  0  0  0  0  0  0  0
    1.1210   -1.0310    2.9850 C   0  0  0  0  0  0  0  0  0  0  0  0
    1.1380   -2.4730    2.5580 C   0  0  0  0  0  0  0  0  0  0  0  0
    3.2480    0.3790    1.4320 C   0  0  0  0  0  0  0  0  0  0  0  0
    3.3820    0.9510    2.8110 C   0  0  0  0  0  0  0  0  0  0  0  0
  1  2  1  0
  2  3  2  3
  3  4  1  0
  3 32  1  0
  4  5  1  0
  5  6  1  0
  5  7  2  0
  8  7  1  6
  7 28  1  0
  8  9  1  0
  8 26  1  0
  9 10  1  0
  9 15  2  0
 10 11  2  0
 10 12  1  0
 12 13  1  0
 13 14  1  0
 15 16  1  0
 15 22  1  0
 16 17  2  0
 16 18  1  0
 18 19  1  0
 19 20  1  0
 20 21  1  0
 22 23  1  0
 22 25  1  0
 23 24  1  0
 25 26  1  0
 26 27  1  6
 28 29  1  0
 28 32  2  0
 29 30  1  0
 30 31  1  0
 32 33  1  0
M  END
