
     RDKit          3D

 32 34  0  0  0  0  0  0  0  0999 V2000
   -3.0800   -3.0390   -1.0670 C   0  0  0  0  0  0  0  0  0  0  0  0
   -3.8370   -2.4790    0.0390 N   0  0  2  0  0  0  0  0  0  0  0  0
   -5.2340   -2.6040   -0.2700 C   0  0  0  0  0  0  0  0  0  0  0  0
   -3.4680   -1.0550    0.1080 C   0  0  0  0  0  0  0  0  0  0  0  0
   -2.3410   -0.8750    1.1010 C   0  0  0  0  0  0  0  0  0  0  0  0
   -1.8830    0.5320    1.2580 C   0  0  0  0  0  0  0  0  0  0  0  0
   -1.3830    1.1430    0.0370 N   0  0  1  0  0  0  0  0  0  0  0  0
   -1.2190    2.5480    0.1990 C   0  0  0  0  0  0  0  0  0  0  0  0
   -2.4550    3.3770    0.1210 C   0  0  0  0  0  0  0  0  0  0  0  0
   -3.1840    3.2930   -1.1960 C   0  0  2  0  0  0  0  0  0  0  0  0
   -2.4180    3.7050   -2.3320 N   0  0  0  0  0  0  0  0  0  0  0  0
   -4.3750    4.1900   -1.1270 C   0  0  0  0  0  0  0  0  0  0  0  0
   -5.2200    4.0620   -0.2000 O   0  0  0  0  0  0  0  0  0  0  0  0
   -4.5940    5.1830   -2.0630 O   0  0  0  0  0  0  0  0  0  0  0  0
   -0.2820    0.4430   -0.5490 C   0  0  0  0  0  0  0  0  0  0  0  0
    0.8370    0.0690    0.3580 C   0  0  1  0  0  0  0  0  0  0  0  0
    1.8010   -0.6380   -0.4170 O   0  0  0  0  0  0  0  0  0  0  0  0
    2.8560   -0.6960    0.4920 C   0  0  1  0  0  0  0  0  0  0  0  0
    4.0000   -1.3720   -0.0220 N   0  0  0  0  0  0  0  0  0  0  0  0
    4.3280   -1.5620   -1.3210 C   0  0  0  0  0  0  0  0  0  0  0  0
    5.4810   -2.2510   -1.4020 N   0  0  0  0  0  0  0  0  0  0  0  0
    5.9030   -2.5080   -0.1560 C   0  0  0  0  0  0  0  0  0  0  0  0
    7.0250   -3.1800    0.2730 C   0  0  0  0  0  0  0  0  0  0  0  0
    7.9870   -3.7540   -0.5920 N   0  0  0  0  0  0  0  0  0  0  0  0
    7.1900   -3.2850    1.6030 N   0  0  0  0  0  0  0  0  0  0  0  0
    6.3090   -2.7620    2.4760 C   0  0  0  0  0  0  0  0  0  0  0  0
    5.2210   -2.1100    2.0350 N   0  0  0  0  0  0  0  0  0  0  0  0
    4.9670   -1.9520    0.7100 C   0  0  0  0  0  0  0  0  0  0  0  0
    3.0780    0.7720    0.7850 C   0  0  2  0  0  0  0  0  0  0  0  0
    3.7610    0.8570    1.9890 O   0  0  0  0  0  0  0  0  0  0  0  0
    1.6160    1.2440    0.9180 C   0  0  2  0  0  0  0  0  0  0  0  0
    1.4130    1.4090    2.2970 O   0  0  0  0  0  0  0  0  0  0  0  0
  2  1  1  6
  2  3  1  0
  2  4  1  0
  4  5  1  0
  5  6  1  0
  7  6  1  1
  7  8  1  0
  7 15  1  0
  8  9  1  0
  9 10  1  0
 10 11  1  6
 10 12  1  0
 12 13  2  0
 12 14  1  0
 16 15  1  6
 16 17  1  0
 16 31  1  0
 17 18  1  0
 18 19  1  6
 18 29  1  0
 19 20  1  0
 19 28  1  0
 20 21  2  0
 21 22  1  0
 22 23  2  0
 22 28  1  0
 23 24  1  0
 23 25  1  0
 25 26  2  0
 26 27  1  0
 27 28  2  0
 29 30  1  1
 29 31  1  0
 31 32  1  1
M  CHG  3   2   1   7   1  11   1
M  END
