
     RDKit          3D

 33 34  0  0  0  0  0  0  0  0999 V2000
   -1.6100   -0.4500    3.3770 C   0  0  0  0  0  0  0  0  0  0  0  0
   -2.7030   -0.6940    2.4950 N   0  0  0  0  0  0  0  0  0  0  0  0
   -2.8170   -0.2640    1.3000 C   0  0  0  0  0  0  0  0  0  0  0  0
   -3.9300   -0.5130    0.4040 C   0  0  0  0  0  0  0  0  0  0  0  0
   -4.9750   -1.2250    0.7380 C   0  0  0  0  0  0  0  0  0  0  0  0
   -5.0410   -1.8090    2.0890 C   0  0  0  0  0  0  0  0  0  0  0  0
   -6.0580   -1.4370   -0.2280 C   0  0  0  0  0  0  0  0  0  0  0  0
   -6.0490   -0.9060   -1.4980 C   0  0  0  0  0  0  0  0  0  0  0  0
   -7.0820   -1.1120   -2.4250 C   0  0  0  0  0  0  0  0  0  0  0  0
   -8.1690   -1.8710   -2.0880 C   0  0  0  0  0  0  0  0  0  0  0  0
   -9.2880   -2.1080   -3.0720 C   0  0  0  0  0  0  0  0  0  0  0  0
   -8.2060   -2.4110   -0.8320 C   0  0  0  0  0  0  0  0  0  0  0  0
   -7.1740   -2.2000    0.0810 C   0  0  0  0  0  0  0  0  0  0  0  0
   -1.6610    0.5870    0.8210 C   0  0  0  0  0  0  0  0  0  0  0  0
   -1.0620   -0.0620   -0.4040 C   0  0  0  0  0  0  0  0  0  0  0  0
    0.0700    0.7930   -0.8750 C   0  0  0  0  0  0  0  0  0  0  0  0
    0.7150    0.3330   -1.8000 O   0  0  0  0  0  0  0  0  0  0  0  0
    0.3550    2.1020   -0.2430 C   0  0  0  0  0  0  0  0  0  0  0  0
    1.4890    2.8440   -0.8500 C   0  0  0  0  0  0  0  0  0  0  0  0
    2.8030    2.2100   -0.7990 C   0  0  0  0  0  0  0  0  0  0  0  0
    3.1120    1.3180   -1.6130 O   0  0  0  0  0  0  0  0  0  0  0  0
    3.7570    2.5750    0.1540 O   0  0  0  0  0  0  0  0  0  0  0  0
    5.0390    1.9250    0.1610 C   0  0  2  0  0  0  0  0  0  0  0  0
    5.1960    1.2100    1.4940 C   0  0  0  0  0  0  0  0  0  0  0  0
    6.1060    2.9430    0.0500 C   0  0  0  0  0  0  0  0  0  0  0  0
    7.3390    2.6110   -0.1730 C   0  0  0  0  0  0  0  0  0  0  0  0
    7.7970    1.2380   -0.3330 C   0  0  0  0  0  0  0  0  0  0  0  0
    9.1270    0.8570   -0.5600 C   0  0  0  0  0  0  0  0  0  0  0  0
    9.1660   -0.5070   -0.6560 C   0  0  0  0  0  0  0  0  0  0  0  0
    7.8570   -0.9390   -0.4860 C   0  0  0  0  0  0  0  0  0  0  0  0
    7.4130   -2.3450   -0.5120 C   0  0  0  0  0  0  0  0  0  0  0  0
    6.1700   -2.6120   -0.3510 N   0  0  0  0  0  0  0  0  0  0  0  0
    7.1310    0.1260   -0.3060 O   0  0  0  0  0  0  0  0  0  0  0  0
  1  2  1  0
  2  3  2  3
  3  4  1  0
  3 14  1  0
  4  5  2  3
  5  6  1  0
  5  7  1  0
  7  8  2  0
  7 13  1  0
  8  9  1  0
  9 10  2  0
 10 11  1  0
 10 12  1  0
 12 13  2  0
 14 15  1  0
 15 16  1  0
 16 17  2  0
 16 18  1  0
 18 19  1  0
 19 20  1  0
 20 21  2  0
 20 22  1  0
 22 23  1  0
 23 24  1  1
 23 25  1  0
 25 26  2  3
 26 27  1  0
 27 28  2  0
 27 33  1  0
 28 29  1  0
 29 30  2  0
 30 31  1  0
 30 33  1  0
 31 32  2  0
M  END
