
     RDKit          3D

 33 34  0  0  0  0  0  0  0  0999 V2000
    5.4950   -2.7810    0.3020 C   0  0  0  0  0  0  0  0  0  0  0  0
    4.9340   -2.8320    1.4680 C   0  0  0  0  0  0  0  0  0  0  0  0
    4.5080   -1.6750    2.2530 C   0  0  0  0  0  0  0  0  0  0  0  0
    4.7300   -0.4560    1.6870 O   0  0  0  0  0  0  0  0  0  0  0  0
    4.2470    0.0890    0.5330 C   0  0  0  0  0  0  0  0  0  0  0  0
    4.9960    0.7620   -0.3030 C   0  0  0  0  0  0  0  0  0  0  0  0
    6.3940    0.9850   -0.0640 C   0  0  0  0  0  0  0  0  0  0  0  0
    7.1400    1.6720   -0.9810 C   0  0  0  0  0  0  0  0  0  0  0  0
    8.5720    1.8430   -0.6350 C   0  0  0  0  0  0  0  0  0  0  0  0
    9.0770    0.4780   -0.1980 C   0  0  0  0  0  0  0  0  0  0  0  0
    8.3220   -0.1170    0.7780 O   0  0  0  0  0  0  0  0  0  0  0  0
    7.1710    0.5970    1.1190 C   0  0  0  0  0  0  0  0  0  0  0  0
    2.8240   -0.0920    0.2560 C   0  0  0  0  0  0  0  0  0  0  0  0
    2.0900   -0.7320    1.0710 O   0  0  0  0  0  0  0  0  0  0  0  0
    2.2070    0.4240   -0.8830 N   0  0  0  0  0  0  0  0  0  0  0  0
    0.7910    0.2850   -1.1170 C   0  0  0  0  0  0  0  0  0  0  0  0
    0.0320   -0.6970   -0.5920 C   0  0  0  0  0  0  0  0  0  0  0  0
   -1.3800   -0.6960   -0.6880 C   0  0  0  0  0  0  0  0  0  0  0  0
   -2.0340    0.3140   -1.3300 C   0  0  0  0  0  0  0  0  0  0  0  0
   -3.4400    0.5330   -1.3100 C   0  0  0  0  0  0  0  0  0  0  0  0
   -3.9290    1.3220   -2.2200 O   0  0  0  0  0  0  0  0  0  0  0  0
   -4.4210   -0.0270   -0.3550 C   0  0  2  0  0  0  0  0  0  0  0  0
   -3.8810    0.0680    1.0680 C   0  0  0  0  0  0  0  0  0  0  0  0
   -4.7750   -1.4270   -0.7150 C   0  0  0  0  0  0  0  0  0  0  0  0
   -5.7860   -2.0660    0.2440 C   0  0  0  0  0  0  0  0  0  0  0  0
   -5.5860    0.8380   -0.4710 N   0  0  0  0  0  0  0  0  0  0  0  0
   -6.8730    0.8010    0.0610 C   0  0  0  0  0  0  0  0  0  0  0  0
   -7.9570    0.6410   -1.0020 C   0  0  0  0  0  0  0  0  0  0  0  0
   -7.6230    0.5360   -2.2720 C   0  0  0  0  0  0  0  0  0  0  0  0
   -7.2680    0.9030    1.2530 C   0  0  0  0  0  0  0  0  0  0  0  0
   -7.6350    1.0230    2.5940 C   0  0  0  0  0  0  0  0  0  0  0  0
   -1.2350    1.3480   -1.9010 C   0  0  0  0  0  0  0  0  0  0  0  0
    0.1110    1.3160   -1.7870 C   0  0  0  0  0  0  0  0  0  0  0  0
  1  2  2  0
  2  3  1  0
  3  4  1  0
  4  5  1  0
  5  6  2  3
  5 13  1  0
  6  7  1  0
  7  8  2  0
  7 12  1  0
  8  9  1  0
  9 10  1  0
 10 11  1  0
 11 12  1  0
 13 14  2  0
 13 15  1  0
 15 16  1  0
 16 17  2  0
 16 33  1  0
 17 18  1  0
 18 19  2  0
 19 20  1  0
 19 32  1  0
 20 21  2  0
 20 22  1  0
 22 23  1  1
 22 24  1  0
 22 26  1  0
 24 25  1  0
 26 27  1  0
 27 28  1  0
 27 30  2  3
 28 29  2  0
 30 31  1  0
 32 33  2  0
M  END
