
     RDKit          3D

 33 35  0  0  0  0  0  0  0  0999 V2000
   -7.2570    2.1160   -1.7100 C   0  0  0  0  0  0  0  0  0  0  0  0
   -7.4390    2.7060   -0.5420 C   0  0  0  0  0  0  0  0  0  0  0  0
   -6.3360    2.9340    0.4310 C   0  0  0  0  0  0  0  0  0  0  0  0
   -5.0540    2.3920   -0.1600 C   0  0  0  0  0  0  0  0  0  0  0  0
   -3.9080    2.5960    0.7880 C   0  0  0  0  0  0  0  0  0  0  0  0
   -4.1670    3.1690    1.8760 O   0  0  0  0  0  0  0  0  0  0  0  0
   -2.5950    2.1600    0.4630 N   0  0  0  0  0  0  0  0  0  0  0  0
   -1.5480    2.3930    1.4270 C   0  0  0  0  0  0  0  0  0  0  0  0
   -1.3320    1.3130    2.4240 C   0  0  0  0  0  0  0  0  0  0  0  0
   -0.9820    0.0780    2.0100 O   0  0  0  0  0  0  0  0  0  0  0  0
    0.0550   -0.5010    1.3640 C   0  0  0  0  0  0  0  0  0  0  0  0
    0.0160   -1.8830    1.1010 C   0  0  0  0  0  0  0  0  0  0  0  0
    1.0570   -2.4980    0.4480 C   0  0  0  0  0  0  0  0  0  0  0  0
    2.1690   -1.7510    0.0370 C   0  0  0  0  0  0  0  0  0  0  0  0
    3.1710   -2.4140   -0.6100 O   0  0  0  0  0  0  0  0  0  0  0  0
    4.3540   -1.8360   -0.9620 C   0  0  0  0  0  0  0  0  0  0  0  0
    4.6330   -1.7570   -2.3190 C   0  0  0  0  0  0  0  0  0  0  0  0
    5.8030   -1.1880   -2.7600 C   0  0  0  0  0  0  0  0  0  0  0  0
    6.6770   -0.7060   -1.8150 C   0  0  0  0  0  0  0  0  0  0  0  0
    7.9390   -0.0930   -2.3240 C   0  0  0  0  0  0  0  0  0  0  0  0
    6.4460   -0.7620   -0.4660 C   0  0  0  0  0  0  0  0  0  0  0  0
    5.2470   -1.3470   -0.0450 C   0  0  0  0  0  0  0  0  0  0  0  0
    4.9780   -1.4640    1.3390 N   0  0  0  0  0  0  0  0  0  0  0  0
    5.8900   -0.9090    2.3020 C   0  0  0  0  0  0  0  0  0  0  0  0
    2.2180   -0.4040    0.2880 C   0  0  0  0  0  0  0  0  0  0  0  0
    1.1570    0.1930    0.9480 C   0  0  0  0  0  0  0  0  0  0  0  0
   -2.3020    1.5450   -0.7960 C   0  0  0  0  0  0  0  0  0  0  0  0
   -2.4890    0.0690   -0.7880 C   0  0  0  0  0  0  0  0  0  0  0  0
   -1.9070   -0.8190   -1.6890 C   0  0  0  0  0  0  0  0  0  0  0  0
   -2.3270   -2.0860   -1.3470 C   0  0  0  0  0  0  0  0  0  0  0  0
   -3.1490   -1.9360   -0.2510 C   0  0  0  0  0  0  0  0  0  0  0  0
   -3.8560   -3.0300    0.4940 C   0  0  0  0  0  0  0  0  0  0  0  0
   -3.1990   -0.6660    0.0210 O   0  0  0  0  0  0  0  0  0  0  0  0
  1  2  2  0
  2  3  1  0
  3  4  1  0
  4  5  1  0
  5  6  2  0
  5  7  1  0
  7  8  1  0
  7 27  1  0
  8  9  1  0
  9 10  1  0
 10 11  1  0
 11 12  2  0
 11 26  1  0
 12 13  1  0
 13 14  2  0
 14 15  1  0
 14 25  1  0
 15 16  1  0
 16 17  2  0
 16 22  1  0
 17 18  1  0
 18 19  2  0
 19 20  1  0
 19 21  1  0
 21 22  2  0
 22 23  1  0
 23 24  1  0
 25 26  2  0
 27 28  1  0
 28 29  2  0
 28 33  1  0
 29 30  1  0
 30 31  2  0
 31 32  1  0
 31 33  1  0
M  END
