
     RDKit          3D

 33 35  0  0  0  0  0  0  0  0999 V2000
   -2.2920   -4.6950   -3.0000 C   0  0  0  0  0  0  0  0  0  0  0  0
   -2.0140   -4.4310   -1.5510 C   0  0  0  0  0  0  0  0  0  0  0  0
   -1.9200   -2.9970   -1.2100 C   0  0  0  0  0  0  0  0  0  0  0  0
   -0.8220   -2.5020   -0.6980 C   0  0  0  0  0  0  0  0  0  0  0  0
   -0.6270   -1.0820   -0.3220 C   0  0  2  0  0  0  0  0  0  0  0  0
    0.2160   -0.9990    0.9060 C   0  0  0  0  0  0  0  0  0  0  0  0
    0.4900    0.3470    1.3950 C   0  0  0  0  0  0  0  0  0  0  0  0
   -0.4630    0.8680    2.1030 O   0  0  0  0  0  0  0  0  0  0  0  0
    1.6350    1.1890    1.2160 C   0  0  0  0  0  0  0  0  0  0  0  0
    1.5470    2.5860    1.1840 C   0  0  0  0  0  0  0  0  0  0  0  0
    2.7440    3.1080    0.9420 N   0  0  0  0  0  0  0  0  0  0  0  0
    3.6630    2.1460    0.8040 C   0  0  0  0  0  0  0  0  0  0  0  0
    5.0120    2.1840    0.5600 C   0  0  0  0  0  0  0  0  0  0  0  0
    5.7490    1.0250    0.4770 C   0  0  0  0  0  0  0  0  0  0  0  0
    7.1140    1.0680    0.2300 O   0  0  0  0  0  0  0  0  0  0  0  0
    7.7480    2.3170    0.0640 C   0  0  0  0  0  0  0  0  0  0  0  0
    5.0710   -0.1620    0.6490 C   0  0  0  0  0  0  0  0  0  0  0  0
    5.8370   -1.3170    0.5610 O   0  0  0  0  0  0  0  0  0  0  0  0
    5.2510   -2.5870    0.7250 C   0  0  0  0  0  0  0  0  0  0  0  0
    3.6960   -0.2090    0.8970 C   0  0  0  0  0  0  0  0  0  0  0  0
    2.9710    0.9480    0.9760 C   0  0  0  0  0  0  0  0  0  0  0  0
   -1.9200   -0.3630   -0.2520 N   0  0  0  0  0  0  0  0  0  0  0  0
   -2.0880    0.6860   -1.2310 C   0  0  0  0  0  0  0  0  0  0  0  0
   -1.6620    2.0470   -0.8780 C   0  0  1  0  0  0  0  0  0  0  0  0
   -1.9570    2.9170   -2.1280 C   0  0  0  0  0  0  0  0  0  0  0  0
   -2.3220    2.7610    0.2360 C   0  0  0  0  0  0  0  0  0  0  0  0
   -2.8020   -0.7950    0.7190 C   0  0  0  0  0  0  0  0  0  0  0  0
   -2.3670   -1.7640    1.4680 O   0  0  0  0  0  0  0  0  0  0  0  0
   -4.1420   -0.3690    1.0650 C   0  0  0  0  0  0  0  0  0  0  0  0
   -4.8610    0.5710    0.4990 C   0  0  0  0  0  0  0  0  0  0  0  0
   -6.2150    0.7160    1.1510 C   0  0  0  0  0  0  0  0  0  0  0  0
   -6.1520   -0.3020    2.1890 C   0  0  0  0  0  0  0  0  0  0  0  0
   -5.0000   -0.9000    2.1370 C   0  0  0  0  0  0  0  0  0  0  0  0
  1  2  1  0
  2  3  1  0
  3  4  2  3
  4  5  1  0
  5  6  1  1
  5 22  1  0
  6  7  1  0
  7  8  2  0
  7  9  1  0
  9 10  2  0
  9 21  1  0
 10 11  1  0
 11 12  1  0
 12 13  2  0
 12 21  1  0
 13 14  1  0
 14 15  1  0
 14 17  2  0
 15 16  1  0
 17 18  1  0
 17 20  1  0
 18 19  1  0
 20 21  2  0
 22 23  1  0
 22 27  1  0
 23 24  1  0
 24 25  1  6
 24 26  1  0
 27 28  2  0
 27 29  1  0
 29 30  2  0
 29 33  1  0
 30 31  1  0
 31 32  1  0
 32 33  2  0
M  END
