
     RDKit          3D

 32 36  0  0  0  0  0  0  0  0999 V2000
   -6.4810   -1.6120    2.4720 C   0  0  0  0  0  0  0  0  0  0  0  0
   -5.6880   -1.3840    1.2370 C   0  0  0  0  0  0  0  0  0  0  0  0
   -6.2030   -1.6800    0.0140 C   0  0  0  0  0  0  0  0  0  0  0  0
   -5.5120   -1.4890   -1.1580 C   0  0  0  0  0  0  0  0  0  0  0  0
   -4.2320   -0.9700   -1.0790 C   0  0  0  0  0  0  0  0  0  0  0  0
   -3.3400   -0.6820   -2.0250 N   0  0  0  0  0  0  0  0  0  0  0  0
   -2.2110   -0.1890   -1.4790 C   0  0  0  0  0  0  0  0  0  0  0  0
   -2.4050   -0.1680   -0.1170 C   0  0  0  0  0  0  0  0  0  0  0  0
   -1.5050    0.2840    0.9070 C   0  0  0  0  0  0  0  0  0  0  0  0
   -0.3260    0.7270    0.8070 N   0  0  0  0  0  0  0  0  0  0  0  0
    0.4790    0.9210   -0.2780 N   0  0  0  0  0  0  0  0  0  0  0  0
    1.2010   -0.2150   -0.8870 C   0  0  0  0  0  0  0  0  0  0  0  0
    2.5140   -0.4010   -0.2520 C   0  0  0  0  0  0  0  0  0  0  0  0
    3.1120    0.2670    0.7350 N   0  0  0  0  0  0  0  0  0  0  0  0
    4.2740   -0.2650    0.9570 O   0  0  0  0  0  0  0  0  0  0  0  0
    4.4920   -1.2830    0.1450 C   0  0  0  0  0  0  0  0  0  0  0  0
    5.6810   -2.1280    0.0910 C   0  0  0  0  0  0  0  0  0  0  0  0
    6.7410   -1.9930    0.8690 C   0  0  0  0  0  0  0  0  0  0  0  0
    7.7550   -3.0280    0.5300 C   0  0  0  0  0  0  0  0  0  0  0  0
    7.1100   -3.7850   -0.5690 C   0  0  0  0  0  0  0  0  0  0  0  0
    5.9160   -3.2450   -0.8020 C   0  0  0  0  0  0  0  0  0  0  0  0
    3.3760   -1.3650   -0.6170 N   0  0  0  0  0  0  0  0  0  0  0  0
    0.6960    2.1790   -0.8550 C   0  0  0  0  0  0  0  0  0  0  0  0
    1.4650    2.1570   -1.9000 O   0  0  0  0  0  0  0  0  0  0  0  0
    0.1770    3.4580   -0.4330 C   0  0  0  0  0  0  0  0  0  0  0  0
   -0.5640    3.6900    0.6810 C   0  0  0  0  0  0  0  0  0  0  0  0
   -1.0360    4.9640    0.9870 C   0  0  0  0  0  0  0  0  0  0  0  0
   -0.7520    5.9770    0.1670 N   0  0  0  0  0  0  0  0  0  0  0  0
   -0.0290    5.8250   -0.9450 C   0  0  0  0  0  0  0  0  0  0  0  0
    0.4320    4.5690   -1.2400 C   0  0  0  0  0  0  0  0  0  0  0  0
   -3.6910   -0.6660    0.1260 C   0  0  0  0  0  0  0  0  0  0  0  0
   -4.4180   -0.8720    1.2960 C   0  0  0  0  0  0  0  0  0  0  0  0
  1  2  1  0
  2  3  2  0
  2 32  1  0
  3  4  1  0
  4  5  2  0
  5  6  1  0
  5 31  1  0
  6  7  1  0
  7  8  2  0
  8  9  1  0
  8 31  1  0
  9 10  2  3
 10 11  1  0
 11 12  1  0
 11 23  1  0
 12 13  1  0
 13 14  2  0
 13 22  1  0
 14 15  1  0
 15 16  1  0
 16 17  1  0
 16 22  2  0
 17 18  2  0
 17 21  1  0
 18 19  1  0
 19 20  1  0
 20 21  2  0
 23 24  2  0
 23 25  1  0
 25 26  2  0
 25 30  1  0
 26 27  1  0
 27 28  2  0
 28 29  1  0
 29 30  2  0
 31 32  2  0
M  END
