
     RDKit          3D

 32 36  0  0  0  0  0  0  0  0999 V2000
   -4.2900    3.6530   -0.5880 C   0  0  0  0  0  0  0  0  0  0  0  0
   -2.9720    4.0790   -0.1310 N   0  0  0  0  0  0  0  0  0  0  0  0
   -2.8080    5.0810    0.7350 C   0  0  0  0  0  0  0  0  0  0  0  0
   -1.4520    5.2040    0.9380 C   0  0  0  0  0  0  0  0  0  0  0  0
   -0.8190    4.2520    0.1720 C   0  0  0  0  0  0  0  0  0  0  0  0
   -1.7930    3.5490   -0.4980 C   0  0  0  0  0  0  0  0  0  0  0  0
   -1.6180    2.4210   -1.4490 C   0  0  0  0  0  0  0  0  0  0  0  0
   -0.5920    1.4570   -0.9660 N   0  0  0  0  0  0  0  0  0  0  0  0
    0.7050    1.7380   -1.3800 C   0  0  0  0  0  0  0  0  0  0  0  0
    0.7240    2.7820   -2.2330 O   0  0  0  0  0  0  0  0  0  0  0  0
    2.0320    1.2460   -1.1690 C   0  0  0  0  0  0  0  0  0  0  0  0
    2.3340    0.2160   -0.2770 N   0  0  0  0  0  0  0  0  0  0  0  0
    3.6890   -0.3490   -0.3070 C   0  0  0  0  0  0  0  0  0  0  0  0
    4.6000    0.1240   -1.1730 N   0  0  0  0  0  0  0  0  0  0  0  0
    5.8270   -0.3280   -1.2630 N   0  0  0  0  0  0  0  0  0  0  0  0
    6.1980   -1.3380   -0.4270 C   0  0  0  0  0  0  0  0  0  0  0  0
    7.4940   -1.8000   -0.5370 C   0  0  0  0  0  0  0  0  0  0  0  0
    7.8730   -2.8210    0.3060 C   0  0  0  0  0  0  0  0  0  0  0  0
    6.9890   -3.3550    1.2210 C   0  0  0  0  0  0  0  0  0  0  0  0
    5.6910   -2.8610    1.3000 C   0  0  0  0  0  0  0  0  0  0  0  0
    5.2900   -1.8450    0.4720 C   0  0  0  0  0  0  0  0  0  0  0  0
    4.0330   -1.3370    0.5190 N   0  0  0  0  0  0  0  0  0  0  0  0
   -1.0450    0.3500   -0.2070 C   0  0  1  0  0  0  0  0  0  0  0  0
   -1.6530    0.7660    1.1310 C   0  0  0  0  0  0  0  0  0  0  0  0
   -2.7180   -0.2780    1.4540 C   0  0  0  0  0  0  0  0  0  0  0  0
   -2.1270   -1.5150    1.1960 O   0  0  0  0  0  0  0  0  0  0  0  0
   -2.3640   -1.7550   -0.1820 C   0  0  2  0  0  0  0  0  0  0  0  0
   -3.7910   -2.2130   -0.2990 C   0  0  0  0  0  0  0  0  0  0  0  0
   -3.7440   -3.6810   -0.6710 C   0  0  0  0  0  0  0  0  0  0  0  0
   -2.3630   -4.1040   -0.1850 C   0  0  0  0  0  0  0  0  0  0  0  0
   -1.5050   -2.9240   -0.5930 C   0  0  0  0  0  0  0  0  0  0  0  0
   -2.0760   -0.5020   -0.9810 C   0  0  0  0  0  0  0  0  0  0  0  0
  1  2  1  0
  2  3  1  0
  2  6  1  0
  3  4  2  0
  4  5  1  0
  5  6  2  0
  6  7  1  0
  7  8  1  0
  8  9  1  0
 23  8  1  6
  9 10  2  0
  9 11  1  0
 11 12  1  0
 12 13  1  0
 13 14  2  0
 13 22  1  0
 14 15  1  0
 15 16  2  0
 16 17  1  0
 16 21  1  0
 17 18  2  0
 18 19  1  0
 19 20  2  0
 20 21  1  0
 21 22  2  0
 23 24  1  0
 23 32  1  0
 24 25  1  0
 25 26  1  0
 26 27  1  0
 27 28  1  1
 27 31  1  0
 27 32  1  0
 28 29  1  0
 29 30  1  0
 30 31  1  0
M  END
