
     RDKit          3D

 10 10  0  0  0  0  0  0  0  0999 V2000
    3.3500    0.3480    0.7060 C   0  0  0  0  0  0  0  0  0  0  0  0
    1.9460    0.2120    0.5080 O   0  0  0  0  0  0  0  0  0  0  0  0
    1.4490   -0.4200   -0.6330 C   0  0  0  0  0  0  0  0  0  0  0  0
    2.3090   -0.8430   -1.4430 O   0  0  0  0  0  0  0  0  0  0  0  0
    0.0540   -0.5980   -0.9060 C   0  0  0  0  0  0  0  0  0  0  0  0
   -0.3500   -1.2500   -2.0890 N   0  0  0  0  0  0  0  0  0  0  0  0
   -0.9160   -0.1700   -0.0830 C   0  0  0  0  0  0  0  0  0  0  0  0
   -2.4020   -0.1870   -0.0560 C   0  0  0  0  0  0  0  0  0  0  0  0
   -2.3330    1.0720    0.7840 C   0  0  0  0  0  0  0  0  0  0  0  0
   -0.9740    0.5400    1.2250 C   0  0  0  0  0  0  0  0  0  0  0  0
  1  2  1  0
  2  3  1  0
  3  4  2  0
  3  5  1  0
  5  6  1  0
  5  7  2  3
  7  8  1  0
  7 10  1  0
  8  9  1  0
  9 10  1  0
M  END
