
     RDKit          3D

 10 10  0  0  0  0  0  0  0  0999 V2000
    2.7800    0.2380    0.7710 C   0  0  0  0  0  0  0  0  0  0  0  0
    1.8570    1.3490    0.4820 N   0  0  0  0  0  0  0  0  0  0  0  0
    1.0140    1.0310   -0.6450 C   0  0  0  0  0  0  0  0  0  0  0  0
   -0.0020   -0.0650   -0.3470 C   0  0  1  0  0  0  0  0  0  0  0  0
    0.7430   -1.1860    0.0370 O   0  0  0  0  0  0  0  0  0  0  0  0
   -0.8460    0.3490    0.8250 C   0  0  0  0  0  0  0  0  0  0  0  0
   -2.0320   -0.5920    0.8540 C   0  0  0  0  0  0  0  0  0  0  0  0
   -2.8060   -0.4960   -0.2530 O   0  0  0  0  0  0  0  0  0  0  0  0
   -2.2180   -0.6100   -1.4600 C   0  0  0  0  0  0  0  0  0  0  0  0
   -0.7760   -0.3960   -1.5860 C   0  0  0  0  0  0  0  0  0  0  0  0
  1  2  1  0
  2  3  1  0
  3  4  1  0
  4  5  1  1
  4  6  1  0
  4 10  1  0
  6  7  1  0
  7  8  1  0
  8  9  1  0
  9 10  1  0
M  END
