
     RDKit          3D

 10 10  0  0  0  0  0  0  0  0999 V2000
   -0.4780   -2.2610    0.4800 C   0  0  0  0  0  0  0  0  0  0  0  0
   -0.3550   -0.8490    0.5260 N   0  0  0  0  0  0  0  0  0  0  0  0
    0.8750   -0.3200    0.9440 C   0  0  0  0  0  0  0  0  0  0  0  0
    1.6800    0.4220   -0.0460 C   0  0  2  0  0  0  0  0  0  0  0  0
    2.5380    1.3100    0.6400 O   0  0  0  0  0  0  0  0  0  0  0  0
    0.9110    1.1380   -1.1140 C   0  0  0  0  0  0  0  0  0  0  0  0
   -0.1220    0.1640   -1.6350 C   0  0  0  0  0  0  0  0  0  0  0  0
   -1.0530   -0.1310   -0.4940 C   0  0  2  0  0  0  0  0  0  0  0  0
   -1.6730    1.0920    0.1210 C   0  0  0  0  0  0  0  0  0  0  0  0
   -2.5540    0.6430    1.1150 O   0  0  0  0  0  0  0  0  0  0  0  0
  1  2  1  0
  2  3  1  0
  2  8  1  0
  3  4  1  0
  4  5  1  1
  4  6  1  0
  6  7  1  0
  7  8  1  0
  8  9  1  1
  9 10  1  0
M  END
