
     RDKit          3D

  9  9  0  0  0  0  0  0  0  0999 V2000
   -0.3880    1.7440    0.1570 C   0  0  0  0  0  0  0  0  0  0  0  0
    0.4510    0.4770   -0.0170 C   0  0  0  0  0  0  0  0  0  0  0  0
    1.7730    0.5000   -0.1070 C   0  0  0  0  0  0  0  0  0  0  0  0
    2.4120   -0.7600   -0.2670 C   0  0  0  0  0  0  0  0  0  0  0  0
    1.0430   -1.8720   -0.2740 S   0  0  0  0  0  0  0  0  0  0  0  0
   -0.2090   -0.7120   -0.0810 C   0  0  0  0  0  0  0  0  0  0  0  0
   -1.6500   -1.0040   -0.0080 C   0  0  0  0  0  0  0  0  0  0  0  0
   -2.4810   -0.0910    0.1340 O   0  0  0  0  0  0  0  0  0  0  0  0
   -2.1260   -2.3030   -0.0940 O   0  0  0  0  0  0  0  0  0  0  0  0
  1  2  1  0
  2  3  1  0
  2  6  2  0
  3  4  2  0
  4  5  1  0
  5  6  1  0
  6  7  1  0
  7  8  2  0
  7  9  1  0
M  END
