
     RDKit          3D

 10 10  0  0  0  0  0  0  0  0999 V2000
   -2.0450   -1.2780    0.9790 C   0  0  0  0  0  0  0  0  0  0  0  0
   -0.9490   -1.5180    0.1880 O   0  0  0  0  0  0  0  0  0  0  0  0
   -0.2140   -0.3830   -0.1010 C   0  0  1  0  0  0  0  0  0  0  0  0
    0.9490   -0.8220   -0.9750 C   0  0  0  0  0  0  0  0  0  0  0  0
    1.7280   -1.7890   -0.2150 N   0  0  0  0  0  0  0  0  0  0  0  0
   -1.0160    0.6800   -0.7960 C   0  0  0  0  0  0  0  0  0  0  0  0
   -0.0710    1.8110   -1.1240 C   0  0  0  0  0  0  0  0  0  0  0  0
    0.6090    2.3150   -0.0690 O   0  0  0  0  0  0  0  0  0  0  0  0
    1.1450    1.4670    0.8310 C   0  0  0  0  0  0  0  0  0  0  0  0
    0.3300    0.2400    1.1480 C   0  0  0  0  0  0  0  0  0  0  0  0
  1  2  1  0
  2  3  1  0
  3  4  1  6
  3  6  1  0
  3 10  1  0
  4  5  1  0
  6  7  1  0
  7  8  1  0
  8  9  1  0
  9 10  1  0
M  END
