
     RDKit          3D

 10 10  0  0  0  0  0  0  0  0999 V2000
   -2.2610    0.9190    0.4350 C   0  0  0  0  0  0  0  0  0  0  0  0
   -1.5510   -0.2540   -0.1310 C   0  0  0  0  0  0  0  0  0  0  0  0
   -2.3110   -1.2740   -0.7430 N   0  0  0  0  0  0  0  0  0  0  0  0
   -0.2340   -0.2820   -0.0330 C   0  0  0  0  0  0  0  0  0  0  0  0
    0.5450    0.7980    0.6120 C   0  0  0  0  0  0  0  0  0  0  0  0
    1.8660    0.8970   -0.1310 C   0  0  0  0  0  0  0  0  0  0  0  0
    2.6240   -0.3880    0.1780 C   0  0  0  0  0  0  0  0  0  0  0  0
    1.8510   -1.5210   -0.1120 O   0  0  0  0  0  0  0  0  0  0  0  0
    0.5440   -1.4120   -0.5710 C   0  0  0  0  0  0  0  0  0  0  0  0
    0.0210   -2.1990   -1.3850 O   0  0  0  0  0  0  0  0  0  0  0  0
  1  2  1  0
  2  3  1  0
  2  4  2  3
  4  5  1  0
  4  9  1  0
  5  6  1  0
  6  7  1  0
  7  8  1  0
  8  9  1  0
  9 10  2  0
M  END
