
     RDKit          3D

  9  8  0  0  0  0  0  0  0  0999 V2000
   -2.9240    1.0260   -0.3600 O   0  0  0  0  0  0  0  0  0  0  0  0
   -2.8160   -0.1230    0.2830 O   0  0  0  0  0  0  0  0  0  0  0  0
   -1.6380   -0.1850    0.9010 O   0  0  0  0  0  0  0  0  0  0  0  0
   -0.7120   -1.3790    0.0630 P   0  0  0  0  0  0  0  0  0  0  0  0
   -0.5460   -2.8410    0.9810 O   0  0  0  0  0  0  0  0  0  0  0  0
    0.8660   -0.7940   -0.4770 N   0  0  0  0  0  0  0  0  0  0  0  0
    0.9470    0.5380   -0.6110 O   0  0  0  0  0  0  0  0  0  0  0  0
    1.7930    1.1360    0.7980 P   0  0  0  0  0  0  0  0  0  0  0  0
    3.0050    2.2730    0.2810 O   0  0  0  0  0  0  0  0  0  0  0  0
  1  2  1  0
  2  3  1  0
  3  4  1  0
  4  5  1  0
  4  6  1  0
  6  7  1  0
  7  8  1  0
  8  9  1  0
M  END
