
     RDKit          3D

  9  8  0  0  0  0  0  0  0  0999 V2000
    3.4870   -0.9630   -0.2230 N   0  0  0  0  0  0  0  0  0  0  0  0
    2.3340   -0.4040   -0.6800 O   0  0  0  0  0  0  0  0  0  0  0  0
    1.4370   -0.4260    0.2790 O   0  0  0  0  0  0  0  0  0  0  0  0
    0.3350    0.8740    0.2360 P   0  0  0  0  0  0  0  0  0  0  0  0
    0.9600    2.3070   -0.4710 O   0  0  0  0  0  0  0  0  0  0  0  0
   -1.5980    0.2850   -0.6290 P   0  0  0  0  0  0  0  0  0  0  0  0
   -2.6540    1.6430   -0.7060 O   0  0  0  0  0  0  0  0  0  0  0  0
   -2.3140   -0.8700    0.4620 O   0  0  0  0  0  0  0  0  0  0  0  0
   -3.0840   -1.7240   -0.1930 O   0  0  0  0  0  0  0  0  0  0  0  0
  1  2  1  0
  2  3  1  0
  3  4  1  0
  4  5  1  0
  4  6  1  0
  6  7  1  0
  6  8  1  0
  8  9  1  0
M  END
