
     RDKit          3D

  9  8  0  0  0  0  0  0  0  0999 V2000
    4.4400    0.5730    0.1370 O   0  0  0  0  0  0  0  0  0  0  0  0
    2.9040   -0.0410    0.6970 P   0  0  0  0  0  0  0  0  0  0  0  0
    1.9650   -0.3980   -0.7260 O   0  0  0  0  0  0  0  0  0  0  0  0
    0.9750    0.4780   -0.7760 O   0  0  0  0  0  0  0  0  0  0  0  0
   -0.1380   -0.2230   -0.7410 O   0  0  0  0  0  0  0  0  0  0  0  0
   -1.2250    0.4820   -1.0710 N   0  0  0  0  0  0  0  0  0  0  0  0
   -2.6280   -0.3190   -0.2470 P   0  0  0  0  0  0  0  0  0  0  0  0
   -4.0470    0.6070   -0.4750 O   0  0  0  0  0  0  0  0  0  0  0  0
   -2.7680   -1.9420   -0.8300 O   0  0  0  0  0  0  0  0  0  0  0  0
  1  2  1  0
  2  3  1  0
  3  4  1  0
  4  5  1  0
  5  6  1  0
  6  7  1  0
  7  8  1  0
  7  9  1  0
M  END
