
     RDKit          3D

  9  8  0  0  0  0  0  0  0  0999 V2000
    3.7960   -0.0790   -0.3120 O   0  0  0  0  0  0  0  0  0  0  0  0
    2.7260    0.4470   -0.8840 O   0  0  0  0  0  0  0  0  0  0  0  0
    1.4850    0.8270    0.2420 P   0  0  0  0  0  0  0  0  0  0  0  0
    1.8560    0.2540    1.8490 O   0  0  0  0  0  0  0  0  0  0  0  0
   -0.1030    0.1550   -0.2090 N   0  0  0  0  0  0  0  0  0  0  0  0
   -0.7430    0.8900   -1.1170 O   0  0  0  0  0  0  0  0  0  0  0  0
   -2.4500    0.8440   -0.7270 P   0  0  0  0  0  0  0  0  0  0  0  0
   -2.6940    0.0750    0.8240 O   0  0  0  0  0  0  0  0  0  0  0  0
   -3.1790   -0.1950   -1.9340 O   0  0  0  0  0  0  0  0  0  0  0  0
  1  2  1  0
  2  3  1  0
  3  4  1  0
  3  5  1  0
  5  6  1  0
  6  7  1  0
  7  8  1  0
  7  9  1  0
M  END
