
     RDKit          3D

  9  8  0  0  0  0  0  0  0  0999 V2000
   -2.2200    1.7690    0.1490 N   0  0  0  0  0  0  0  0  0  0  0  0
   -1.4990    0.2650   -0.4840 P   0  0  0  0  0  0  0  0  0  0  0  0
   -2.7330   -0.8990   -0.7760 O   0  0  0  0  0  0  0  0  0  0  0  0
   -0.0430   -0.6090    0.9090 P   0  0  0  0  0  0  0  0  0  0  0  0
    0.2470   -2.2640    0.4460 O   0  0  0  0  0  0  0  0  0  0  0  0
    1.4830    0.2140    0.8310 O   0  0  0  0  0  0  0  0  0  0  0  0
    2.4600   -0.5780    0.4600 O   0  0  0  0  0  0  0  0  0  0  0  0
    3.1490    0.0910   -0.4580 O   0  0  0  0  0  0  0  0  0  0  0  0
    3.5240    1.2130    0.1310 O   0  0  0  0  0  0  0  0  0  0  0  0
  1  2  1  0
  2  3  1  0
  2  4  1  0
  4  5  1  0
  4  6  1  0
  6  7  1  0
  7  8  1  0
  8  9  1  0
M  END
