
     RDKit          3D

  9  8  0  0  0  0  0  0  0  0999 V2000
    3.8560   -0.4450    0.6680 O   0  0  0  0  0  0  0  0  0  0  0  0
    2.6880   -1.0050    0.5710 O   0  0  0  0  0  0  0  0  0  0  0  0
    1.5100   -0.1270   -0.2590 P   0  0  0  0  0  0  0  0  0  0  0  0
    2.0630    1.1890   -1.1830 O   0  0  0  0  0  0  0  0  0  0  0  0
    0.0640    0.1660    0.6120 O   0  0  0  0  0  0  0  0  0  0  0  0
   -0.7660   -0.9180    0.5160 N   0  0  0  0  0  0  0  0  0  0  0  0
   -2.1400   -0.4370   -0.5070 P   0  0  0  0  0  0  0  0  0  0  0  0
   -3.6180   -1.2150   -0.0450 O   0  0  0  0  0  0  0  0  0  0  0  0
   -2.3320    1.2790   -0.4620 O   0  0  0  0  0  0  0  0  0  0  0  0
  1  2  1  0
  2  3  1  0
  3  4  1  0
  3  5  1  0
  5  6  1  0
  6  7  1  0
  7  8  1  0
  7  9  1  0
M  END
