
     RDKit          3D

  9  9  0  0  0  0  0  0  0  0999 V2000
    1.4840    2.3590   -0.2780 O   0  0  0  0  0  0  0  0  0  0  0  0
    0.3780    1.0800   -0.1970 P   0  0  0  0  0  0  0  0  0  0  0  0
   -1.3180    1.2780   -0.1330 O   0  0  0  0  0  0  0  0  0  0  0  0
   -2.1990    0.3120    0.1960 N   0  0  0  0  0  0  0  0  0  0  0  0
   -2.0100   -0.8970    0.4810 O   0  0  0  0  0  0  0  0  0  0  0  0
   -1.5000   -1.8420   -0.2060 O   0  0  0  0  0  0  0  0  0  0  0  0
   -0.1870   -2.0590   -0.1790 O   0  0  0  0  0  0  0  0  0  0  0  0
    1.0160   -0.9180   -0.5890 P   0  0  0  0  0  0  0  0  0  0  0  0
    2.6850   -1.2100   -0.4310 O   0  0  0  0  0  0  0  0  0  0  0  0
  1  2  1  0
  2  3  1  0
  2  8  1  0
  3  4  1  0
  4  5  1  0
  5  6  1  0
  6  7  1  0
  7  8  1  0
  8  9  1  0
M  END
