
     RDKit          3D

  9  9  0  0  0  0  0  0  0  0999 V2000
    2.3660    0.6660    0.5920 O   0  0  0  0  0  0  0  0  0  0  0  0
    2.4120    0.3850   -0.7340 N   0  0  0  0  0  0  0  0  0  0  0  0
    1.1820    0.5830   -1.3100 O   0  0  0  0  0  0  0  0  0  0  0  0
   -0.0100   -0.2640   -0.8170 P   0  0  0  0  0  0  0  0  0  0  0  0
   -0.4470   -1.9590   -0.3820 O   0  0  0  0  0  0  0  0  0  0  0  0
   -1.4700   -2.0050    0.1580 O   0  0  0  0  0  0  0  0  0  0  0  0
   -2.3220   -1.3440    0.5220 O   0  0  0  0  0  0  0  0  0  0  0  0
   -1.9640    0.4350    0.1180 P   0  0  0  0  0  0  0  0  0  0  0  0
   -2.5150    1.8090    0.4880 O   0  0  0  0  0  0  0  0  0  0  0  0
  1  2  1  0
  2  3  1  0
  3  4  1  0
  4  5  1  0
  4  8  1  0
  5  6  1  0
  6  7  1  0
  7  8  1  0
  8  9  1  0
M  END
