
     RDKit          3D

 27 29  0  0  0  0  0  0  0  0999 V2000
    7.0360   -0.1900    0.0110 C   0  0  0  0  0  0  0  0  0  0  0  0
    6.3930   -1.3430    0.6140 N   0  0  0  0  0  0  0  0  0  0  0  0
    4.6790   -1.4650    0.0340 P   0  0  0  0  0  0  0  0  0  0  0  0
    4.5630   -2.5370   -1.3260 O   0  0  0  0  0  0  0  0  0  0  0  0
    4.2030    0.1270   -0.4450 O   0  0  0  0  0  0  0  0  0  0  0  0
    3.2120    0.1350   -1.2830 O   0  0  0  0  0  0  0  0  0  0  0  0
    1.7460   -0.5120   -0.6160 P   0  0  0  0  0  0  0  0  0  0  0  0
    1.5670    0.2410    0.9680 O   0  0  0  0  0  0  0  0  0  0  0  0
    0.2570    0.7650    0.8520 C   0  0  2  0  0  0  0  0  0  0  0  0
    0.1150    1.7050    1.8490 O   0  0  0  0  0  0  0  0  0  0  0  0
   -0.7230   -0.2570    1.0040 N   0  0  0  0  0  0  0  0  0  0  0  0
   -0.5340   -1.5480    1.6560 C   0  0  0  0  0  0  0  0  0  0  0  0
   -1.5750   -2.2390    1.2890 C   0  0  0  0  0  0  0  0  0  0  0  0
   -2.5940   -1.5180    0.9890 N   0  0  0  0  0  0  0  0  0  0  0  0
   -2.0610   -0.2330    0.5770 C   0  0  0  0  0  0  0  0  0  0  0  0
   -2.8060    0.6850    0.0050 C   0  0  0  0  0  0  0  0  0  0  0  0
   -2.5360    2.0690   -0.4140 C   0  0  0  0  0  0  0  0  0  0  0  0
   -3.8690    2.6180   -0.4710 O   0  0  0  0  0  0  0  0  0  0  0  0
   -4.7870    1.6080   -0.6620 C   0  0  0  0  0  0  0  0  0  0  0  0
   -6.1230    1.7700   -1.0730 O   0  0  0  0  0  0  0  0  0  0  0  0
   -4.2110    0.4480   -0.3950 C   0  0  0  0  0  0  0  0  0  0  0  0
   -5.0240   -1.1930   -0.5110 P   0  0  0  0  0  0  0  0  0  0  0  0
   -5.8810   -1.6000    0.9090 O   0  0  0  0  0  0  0  0  0  0  0  0
   -5.9350   -1.3220   -1.9520 O   0  0  0  0  0  0  0  0  0  0  0  0
    0.2400    1.4290   -0.3640 O   0  0  0  0  0  0  0  0  0  0  0  0
    0.3460    0.4970   -1.3910 C   0  0  1  0  0  0  0  0  0  0  0  0
    0.7860    1.1310   -2.5510 O   0  0  0  0  0  0  0  0  0  0  0  0
  1  2  1  0
  2  3  1  0
  3  4  1  0
  3  5  1  0
  5  6  1  0
  6  7  1  0
  7  8  1  0
  7 26  1  0
  8  9  1  0
  9 10  1  1
  9 11  1  0
  9 25  1  0
 11 12  1  0
 11 15  1  0
 12 13  2  0
 13 14  2  0
 14 15  1  0
 15 16  2  3
 16 17  1  0
 16 21  1  0
 17 18  1  0
 18 19  1  0
 19 20  1  0
 19 21  2  0
 21 22  1  0
 22 23  1  0
 22 24  1  0
 25 26  1  0
 26 27  1  6
M  END
