
     RDKit          3D

 27 28  0  0  0  0  0  0  0  0999 V2000
    1.7030    1.6490    3.5840 N   0  0  0  0  0  0  0  0  0  0  0  0
    1.0940    0.6080    2.8680 C   0  0  0  0  0  0  0  0  0  0  0  0
    0.7030   -0.4040    3.4600 O   0  0  0  0  0  0  0  0  0  0  0  0
    0.8820    0.6310    1.4480 N   0  0  0  0  0  0  0  0  0  0  0  0
    0.2730   -0.4280    0.7790 C   0  0  1  0  0  0  0  0  0  0  0  0
    1.0920   -1.6860    0.8090 C   0  0  0  0  0  0  0  0  0  0  0  0
    2.2920   -1.6990    0.1500 O   0  0  0  0  0  0  0  0  0  0  0  0
    3.4130   -0.9940    0.2730 C   0  0  0  0  0  0  0  0  0  0  0  0
    3.5020   -0.1070    1.1400 O   0  0  0  0  0  0  0  0  0  0  0  0
    4.5600   -1.1600   -0.5180 O   0  0  0  0  0  0  0  0  0  0  0  0
    5.9650   -0.1830   -0.2680 P   0  0  0  0  0  0  0  0  0  0  0  0
    7.4360   -1.0140   -0.6430 O   0  0  0  0  0  0  0  0  0  0  0  0
    5.8730    1.3540   -1.0540 O   0  0  0  0  0  0  0  0  0  0  0  0
   -1.1130   -0.8020    1.2450 C   0  0  0  0  0  0  0  0  0  0  0  0
   -2.0140    0.3650    1.4820 C   0  0  0  0  0  0  0  0  0  0  0  0
   -3.3630    0.2930    0.8540 C   0  0  0  0  0  0  0  0  0  0  0  0
   -3.6440   -0.8730    0.0820 N   0  0  0  0  0  0  0  0  0  0  0  0
   -3.5880   -0.8030   -1.3380 C   0  0  0  0  0  0  0  0  0  0  0  0
   -3.0690   -1.7900   -1.9780 O   0  0  0  0  0  0  0  0  0  0  0  0
   -4.0880    0.3340   -2.1490 C   0  0  0  0  0  0  0  0  0  0  0  0
   -3.2530    1.4110   -2.2220 O   0  0  0  0  0  0  0  0  0  0  0  0
   -2.1940    1.2840   -3.1220 C   0  0  0  0  0  0  0  0  0  0  0  0
   -1.0240    0.6830   -2.4060 C   0  0  0  0  0  0  0  0  0  0  0  0
    0.1720    0.2650   -2.8110 N   0  0  0  0  0  0  0  0  0  0  0  0
    0.8270   -0.1950   -1.7610 O   0  0  0  0  0  0  0  0  0  0  0  0
    0.0910   -0.0870   -0.6870 C   0  0  0  0  0  0  0  0  0  0  0  0
   -1.0640    0.4620   -1.0870 N   0  0  0  0  0  0  0  0  0  0  0  0
  1  2  1  0
  2  3  2  0
  2  4  1  0
  4  5  1  0
  5  6  1  6
  5 14  1  0
  5 26  1  0
  6  7  1  0
  7  8  1  0
  8  9  2  0
  8 10  1  0
 10 11  1  0
 11 12  1  0
 11 13  1  0
 14 15  1  0
 15 16  1  0
 16 17  1  0
 17 18  1  0
 18 19  2  0
 18 20  1  0
 20 21  1  0
 21 22  1  0
 22 23  1  0
 23 24  2  0
 23 27  1  0
 24 25  1  0
 25 26  1  0
 26 27  2  0
M  END
