
     RDKit          3D

 27 28  0  0  0  0  0  0  0  0999 V2000
   -6.6430   -0.0220   -2.5700 C   0  0  0  0  0  0  0  0  0  0  0  0
   -6.1820   -0.6040   -1.2770 C   0  0  0  0  0  0  0  0  0  0  0  0
   -7.1690   -0.9080   -0.4970 O   0  0  0  0  0  0  0  0  0  0  0  0
   -4.8590   -0.8150   -0.8890 N   0  0  0  0  0  0  0  0  0  0  0  0
   -3.4830   -0.7290   -1.3070 C   0  0  0  0  0  0  0  0  0  0  0  0
   -3.2110   -0.2200    0.1020 C   0  0  2  0  0  0  0  0  0  0  0  0
   -2.0120   -0.4400    0.7020 O   0  0  0  0  0  0  0  0  0  0  0  0
   -1.3690    0.7280    1.0980 C   0  0  1  0  0  0  0  0  0  0  0  0
   -1.7460    0.8490    2.5220 O   0  0  0  0  0  0  0  0  0  0  0  0
   -2.6310    2.3330    2.6770 P   0  0  0  0  0  0  0  0  0  0  0  0
   -2.0440    3.3070    3.9890 O   0  0  0  0  0  0  0  0  0  0  0  0
   -2.5220    3.2730    1.2060 O   0  0  0  0  0  0  0  0  0  0  0  0
    0.0680    0.5810    1.0950 C   0  0  0  0  0  0  0  0  0  0  0  0
    0.9160    1.4920    1.7000 N   0  0  0  0  0  0  0  0  0  0  0  0
    2.1230    1.0700    1.6310 O   0  0  0  0  0  0  0  0  0  0  0  0
    2.1740   -0.1210    0.9910 C   0  0  0  0  0  0  0  0  0  0  0  0
    3.4070   -0.8740    0.7530 C   0  0  2  0  0  0  0  0  0  0  0  0
    4.3960   -0.4210    1.8990 C   0  0  0  0  0  0  0  0  0  0  0  0
    3.9770   -0.5080   -0.4840 N   0  0  0  0  0  0  0  0  0  0  0  0
    5.3590   -1.0750   -0.8580 C   0  0  0  0  0  0  0  0  0  0  0  0
    5.8050   -1.7790   -0.0010 O   0  0  0  0  0  0  0  0  0  0  0  0
    5.7020   -0.6090   -2.0680 N   0  0  0  0  0  0  0  0  0  0  0  0
    7.3160   -1.2800   -2.1070 C   0  0  0  0  0  0  0  0  0  0  0  0
    7.5860   -1.8830   -1.1600 O   0  0  0  0  0  0  0  0  0  0  0  0
    7.9850   -0.9920   -3.2270 O   0  0  0  0  0  0  0  0  0  0  0  0
    0.8820   -0.3880    0.6730 N   0  0  0  0  0  0  0  0  0  0  0  0
   -4.2910   -1.2460    0.4220 C   0  0  0  0  0  0  0  0  0  0  0  0
  1  2  1  0
  2  3  2  0
  2  4  1  0
  4  5  1  0
  4 27  1  0
  5  6  1  0
  6  7  1  1
  6 27  1  0
  8  7  1  1
  8  9  1  0
  8 13  1  0
  9 10  1  0
 10 11  1  0
 10 12  1  0
 13 14  2  0
 13 26  1  0
 14 15  1  0
 15 16  1  0
 16 17  1  0
 16 26  2  0
 17 18  1  1
 17 19  1  0
 19 20  1  0
 20 21  2  0
 20 22  1  0
 22 23  1  0
 23 24  2  0
 23 25  1  0
M  END
