
     RDKit          3D

 27 28  0  0  0  0  0  0  0  0999 V2000
   -3.5510   -2.5320   -0.6830 N   0  0  0  0  0  0  0  0  0  0  0  0
   -4.3490   -1.6240   -0.3670 C   0  0  0  0  0  0  0  0  0  0  0  0
   -5.7460   -1.8650   -0.0630 N   0  0  0  0  0  0  0  0  0  0  0  0
   -6.6000   -0.7000    0.0030 C   0  0  0  0  0  0  0  0  0  0  0  0
   -6.0730    0.3780    0.9440 C   0  0  0  0  0  0  0  0  0  0  0  0
   -4.5940    0.2360    0.9920 N   0  0  0  0  0  0  0  0  0  0  0  0
   -3.9740    0.4690    2.2190 C   0  0  0  0  0  0  0  0  0  0  0  0
   -4.6960    0.8260    3.2370 O   0  0  0  0  0  0  0  0  0  0  0  0
   -2.6350    0.3680    2.5310 O   0  0  0  0  0  0  0  0  0  0  0  0
   -4.0090   -0.1570   -0.2430 C   0  0  1  0  0  0  0  0  0  0  0  0
   -2.6360    0.1860   -0.5300 C   0  0  0  0  0  0  0  0  0  0  0  0
   -2.0370   -0.2440   -1.5890 O   0  0  0  0  0  0  0  0  0  0  0  0
   -1.8700    0.9770    0.2690 O   0  0  0  0  0  0  0  0  0  0  0  0
   -0.5550    1.3380    0.0380 C   0  0  0  0  0  0  0  0  0  0  0  0
   -0.1960    2.4340   -0.6490 N   0  0  0  0  0  0  0  0  0  0  0  0
    1.1530    2.4890   -0.6890 C   0  0  0  0  0  0  0  0  0  0  0  0
    1.6110    1.3860   -0.0020 C   0  0  0  0  0  0  0  0  0  0  0  0
    3.0250    1.0160    0.2230 C   0  0  0  0  0  0  0  0  0  0  0  0
    3.2960   -0.0190    0.8690 O   0  0  0  0  0  0  0  0  0  0  0  0
    4.0720    1.8150   -0.2800 N   0  0  0  0  0  0  0  0  0  0  0  0
    5.4710    1.5910   -0.1520 C   0  0  0  0  0  0  0  0  0  0  0  0
    5.9950    0.3260   -0.7720 C   0  0  0  0  0  0  0  0  0  0  0  0
    5.4410   -0.8140   -0.2520 O   0  0  0  0  0  0  0  0  0  0  0  0
    6.0440   -2.2520   -0.9640 P   0  0  0  0  0  0  0  0  0  0  0  0
    6.8980   -3.2310    0.2070 O   0  0  0  0  0  0  0  0  0  0  0  0
    7.1600   -1.9000   -2.2710 O   0  0  0  0  0  0  0  0  0  0  0  0
    0.5490    0.7410    0.4060 O   0  0  0  0  0  0  0  0  0  0  0  0
  1  2  2  0
  2  3  1  0
  2 10  1  0
  3  4  1  0
  4  5  1  0
  5  6  1  0
  6  7  1  0
  6 10  1  0
  7  8  2  0
  7  9  1  0
 10 11  1  1
 11 12  2  0
 11 13  1  0
 13 14  1  0
 14 15  2  0
 14 27  1  0
 15 16  1  0
 16 17  2  0
 17 18  1  0
 17 27  1  0
 18 19  2  0
 18 20  1  0
 20 21  1  0
 21 22  1  0
 22 23  1  0
 23 24  1  0
 24 25  1  0
 24 26  1  0
M  END
