
     RDKit          3D

 27 28  0  0  0  0  0  0  0  0999 V2000
   -3.1940   -3.1280    0.9330 O   0  0  0  0  0  0  0  0  0  0  0  0
   -2.3950   -2.2140    0.1880 C   0  0  0  0  0  0  0  0  0  0  0  0
   -2.6950   -0.8530    0.5360 C   0  0  0  0  0  0  0  0  0  0  0  0
   -2.4490   -0.0270   -0.5610 O   0  0  0  0  0  0  0  0  0  0  0  0
   -2.8260    1.2660   -0.3510 C   0  0  1  0  0  0  0  0  0  0  0  0
   -4.1410    1.3600    0.4310 C   0  0  0  0  0  0  0  0  0  0  0  0
   -5.1460    0.7310   -0.3150 O   0  0  0  0  0  0  0  0  0  0  0  0
   -6.2580    0.5210    0.3720 O   0  0  0  0  0  0  0  0  0  0  0  0
   -1.7680    2.0540    0.3240 C   0  0  0  0  0  0  0  0  0  0  0  0
   -0.4730    1.3100    0.5000 C   0  0  0  0  0  0  0  0  0  0  0  0
    0.6600    2.1440   -0.0350 N   0  0  0  0  0  0  0  0  0  0  0  0
    1.7450    1.5580   -0.6400 C   0  0  0  0  0  0  0  0  0  0  0  0
    1.8530    1.9380   -1.9430 O   0  0  0  0  0  0  0  0  0  0  0  0
    2.7430    0.6340   -0.2660 C   0  0  1  0  0  0  0  0  0  0  0  0
    3.1200    0.7950    1.2690 C   0  0  0  0  0  0  0  0  0  0  0  0
    3.9940   -0.2770    1.4060 O   0  0  0  0  0  0  0  0  0  0  0  0
    5.4720   -0.2340    0.7100 P   0  0  0  0  0  0  0  0  0  0  0  0
    6.2590   -1.7460    0.5930 O   0  0  0  0  0  0  0  0  0  0  0  0
    6.4600    1.0870    0.6880 O   0  0  0  0  0  0  0  0  0  0  0  0
    2.5760   -0.7430   -0.4240 O   0  0  0  0  0  0  0  0  0  0  0  0
    1.7090   -1.4290   -1.2180 C   0  0  0  0  0  0  0  0  0  0  0  0
    1.9660   -1.8870   -2.4040 N   0  0  0  0  0  0  0  0  0  0  0  0
    1.1000   -2.5730   -3.1620 C   0  0  0  0  0  0  0  0  0  0  0  0
   -0.1050   -2.7610   -2.5270 N   0  0  0  0  0  0  0  0  0  0  0  0
   -0.3760   -2.3320   -1.3030 C   0  0  0  0  0  0  0  0  0  0  0  0
    0.5620   -1.6300   -0.6400 N   0  0  0  0  0  0  0  0  0  0  0  0
   -1.5620   -2.8540   -0.7050 N   0  0  0  0  0  0  0  0  0  0  0  0
  1  2  2  0
  2  3  1  0
  2 27  1  0
  3  4  1  0
  4  5  1  0
  5  6  1  1
  5  9  1  0
  6  7  1  0
  7  8  1  0
  9 10  1  0
 10 11  1  0
 11 12  1  0
 12 13  2  0
 12 14  1  0
 14 15  1  1
 14 20  1  0
 15 16  1  0
 16 17  1  0
 17 18  1  0
 17 19  1  0
 20 21  1  0
 21 22  1  0
 21 26  2  0
 22 23  2  0
 23 24  1  0
 24 25  2  0
 25 26  1  0
 25 27  1  0
M  END
