
     RDKit          3D

 27 28  0  0  0  0  0  0  0  0999 V2000
    2.7010    0.9050    0.2620 O   0  0  0  0  0  0  0  0  0  0  0  0
    3.0220    1.0520   -0.9280 C   0  0  0  0  0  0  0  0  0  0  0  0
    4.0960    0.3390   -1.5160 N   0  0  0  0  0  0  0  0  0  0  0  0
    4.8940   -0.6030   -0.7780 C   0  0  0  0  0  0  0  0  0  0  0  0
    5.5850    0.0750    0.3850 C   0  0  0  0  0  0  0  0  0  0  0  0
    6.6060   -1.1830    1.3050 P   0  0  0  0  0  0  0  0  0  0  0  0
    5.5460   -2.3260    2.0640 O   0  0  0  0  0  0  0  0  0  0  0  0
    5.9850   -2.5280    3.2980 O   0  0  0  0  0  0  0  0  0  0  0  0
    7.6810   -2.0100    0.2230 O   0  0  0  0  0  0  0  0  0  0  0  0
    8.3060   -1.0820   -0.5020 O   0  0  0  0  0  0  0  0  0  0  0  0
    2.2620    1.9830   -1.7190 N   0  0  0  0  0  0  0  0  0  0  0  0
    1.1650    2.7070   -1.1100 C   0  0  0  0  0  0  0  0  0  0  0  0
    0.1500    1.7630   -0.6130 C   0  0  0  0  0  0  0  0  0  0  0  0
    0.3070    0.5310   -0.7510 O   0  0  0  0  0  0  0  0  0  0  0  0
   -0.9870    2.2210    0.0110 O   0  0  0  0  0  0  0  0  0  0  0  0
   -1.9740    1.3340    0.4950 C   0  0  0  0  0  0  0  0  0  0  0  0
   -2.5500    0.5060   -0.5900 C   0  0  0  0  0  0  0  0  0  0  0  0
   -2.1170    0.6880   -1.7560 O   0  0  0  0  0  0  0  0  0  0  0  0
   -3.5550   -0.4660   -0.3650 N   0  0  0  0  0  0  0  0  0  0  0  0
   -4.0720   -1.2320   -1.4460 C   0  0  0  0  0  0  0  0  0  0  0  0
   -5.1700   -1.8960   -1.2870 N   0  0  0  0  0  0  0  0  0  0  0  0
   -5.8650   -1.8820   -0.0780 N   0  0  0  0  0  0  0  0  0  0  0  0
   -5.5760   -0.8070    0.8460 C   0  0  2  0  0  0  0  0  0  0  0  0
   -6.3470   -0.8370    2.1340 C   0  0  0  0  0  0  0  0  0  0  0  0
   -6.3790    0.6620    1.8240 C   0  0  0  0  0  0  0  0  0  0  0  0
   -6.1370    0.4110    0.4730 O   0  0  0  0  0  0  0  0  0  0  0  0
   -4.0860   -0.7070    0.9820 C   0  0  0  0  0  0  0  0  0  0  0  0
  1  2  2  0
  2  3  1  0
  2 11  1  0
  3  4  1  0
  4  5  1  0
  5  6  1  0
  6  7  1  0
  6  9  1  0
  7  8  1  0
  9 10  1  0
 11 12  1  0
 12 13  1  0
 13 14  2  0
 13 15  1  0
 15 16  1  0
 16 17  1  0
 17 18  2  0
 17 19  1  0
 19 20  1  0
 19 27  1  0
 20 21  2  0
 21 22  1  0
 22 23  1  0
 23 24  1  1
 23 26  1  0
 23 27  1  0
 24 25  1  0
 25 26  1  0
M  END
