
     RDKit          3D

 28 30  0  0  0  0  0  0  0  0999 V2000
    6.0800   -0.0940   -2.1020 O   0  0  0  0  0  0  0  0  0  0  0  0
    6.9830    0.4360   -1.4070 C   0  0  0  0  0  0  0  0  0  0  0  0
    8.0010    1.1090   -2.0750 O   0  0  0  0  0  0  0  0  0  0  0  0
    6.9940    0.3660    0.0840 C   0  0  0  0  0  0  0  0  0  0  0  0
    5.8330   -0.3850    0.5240 N   0  0  0  0  0  0  0  0  0  0  0  0
    4.5130    0.0170    0.2350 C   0  0  0  0  0  0  0  0  0  0  0  0
    4.3200    1.0840   -0.4420 O   0  0  0  0  0  0  0  0  0  0  0  0
    3.3880   -0.7340    0.6760 N   0  0  0  0  0  0  0  0  0  0  0  0
    2.0180   -0.3370    0.3880 C   0  0  1  0  0  0  0  0  0  0  0  0
    1.3520   -1.4940   -0.3070 C   0  0  0  0  0  0  0  0  0  0  0  0
   -0.3680   -1.0510   -0.8550 P   0  0  0  0  0  0  0  0  0  0  0  0
   -1.3540   -2.4420   -0.6960 O   0  0  0  0  0  0  0  0  0  0  0  0
   -1.0020    0.4330   -0.0160 C   0  0  2  0  0  0  0  0  0  0  0  0
   -0.0140    0.8360    1.5060 P   0  0  0  0  0  0  0  0  0  0  0  0
   -0.9600    0.5580    2.9460 O   0  0  0  0  0  0  0  0  0  0  0  0
   -2.2270    0.5530    2.6900 O   0  0  0  0  0  0  0  0  0  0  0  0
   -2.5800   -0.3500    1.6790 C   0  0  0  0  0  0  0  0  0  0  0  0
   -2.4440    0.3830    0.3640 C   0  0  1  0  0  0  0  0  0  0  0  0
   -2.8430    1.7150    0.6260 O   0  0  0  0  0  0  0  0  0  0  0  0
   -4.0340    1.5910    1.2110 O   0  0  0  0  0  0  0  0  0  0  0  0
   -4.9660    1.4210    0.2090 C   0  0  2  0  0  0  0  0  0  0  0  0
   -5.3090    2.7190   -0.2390 O   0  0  0  0  0  0  0  0  0  0  0  0
   -6.5630    0.7050    0.8940 P   0  0  0  0  0  0  0  0  0  0  0  0
   -4.5060    0.6940   -0.9240 N   0  0  0  0  0  0  0  0  0  0  0  0
   -3.3550   -0.1260   -0.6990 C   0  0  2  0  0  0  0  0  0  0  0  0
   -3.7810   -1.4290   -0.4990 O   0  0  0  0  0  0  0  0  0  0  0  0
   -2.6180   -0.1370   -1.9060 O   0  0  0  0  0  0  0  0  0  0  0  0
    1.3850   -0.1690    1.6160 O   0  0  0  0  0  0  0  0  0  0  0  0
  1  2  2  0
  2  3  1  0
  2  4  1  0
  4  5  1  0
  5  6  1  0
  6  7  2  0
  6  8  1  0
  9  8  1  1
  9 10  1  0
  9 28  1  0
 10 11  1  0
 11 12  1  0
 13 11  1  1
 13 14  1  0
 13 18  1  0
 14 15  1  0
 14 28  1  0
 15 16  1  0
 16 17  1  0
 18 17  1  1
 18 19  1  0
 18 25  1  0
 19 20  1  0
 20 21  1  0
 21 22  1  6
 21 23  1  0
 21 24  1  0
 24 25  1  0
 25 26  1  1
 25 27  1  0
M  END
