
     RDKit          3D

 28 29  0  0  0  0  0  0  0  0999 V2000
   -5.6220    1.6300   -0.1840 C   0  0  0  0  0  0  0  0  0  0  0  0
   -4.7070    0.7250    0.3370 O   0  0  0  0  0  0  0  0  0  0  0  0
   -4.1870   -0.1380   -0.6270 C   0  0  2  0  0  0  0  0  0  0  0  0
   -4.6340   -1.4390   -0.4320 O   0  0  0  0  0  0  0  0  0  0  0  0
   -2.4210    0.0730   -0.7840 P   0  0  0  0  0  0  0  0  0  0  0  0
   -1.8230    1.7550   -0.6110 N   0  0  0  0  0  0  0  0  0  0  0  0
   -2.6460    2.5820    0.1100 N   0  0  0  0  0  0  0  0  0  0  0  0
   -0.6800    1.6120    0.1430 O   0  0  0  0  0  0  0  0  0  0  0  0
    0.1930    0.6750   -0.3440 C   0  0  2  0  0  0  0  0  0  0  0  0
    0.1040    0.6290   -1.7740 N   0  0  0  0  0  0  0  0  0  0  0  0
   -0.0380   -0.6170    0.1390 O   0  0  0  0  0  0  0  0  0  0  0  0
   -1.3480   -0.8860    0.2500 N   0  0  0  0  0  0  0  0  0  0  0  0
   -1.8000   -1.8710    1.1470 C   0  0  0  0  0  0  0  0  0  0  0  0
   -3.0080   -1.8980    1.5640 O   0  0  0  0  0  0  0  0  0  0  0  0
   -0.8160   -2.8930    1.6020 C   0  0  0  0  0  0  0  0  0  0  0  0
    0.2230   -3.0650    0.7280 O   0  0  0  0  0  0  0  0  0  0  0  0
    1.3750   -2.5820    1.1700 O   0  0  0  0  0  0  0  0  0  0  0  0
    2.2670   -2.7900    0.2030 O   0  0  0  0  0  0  0  0  0  0  0  0
    2.3200   -2.1300   -1.0120 C   0  0  0  0  0  0  0  0  0  0  0  0
    2.6460   -2.8520   -1.9920 O   0  0  0  0  0  0  0  0  0  0  0  0
    2.0550   -0.8150   -1.2100 O   0  0  0  0  0  0  0  0  0  0  0  0
    2.4720    0.3170   -0.5340 C   0  0  2  0  0  0  0  0  0  0  0  0
    3.0170    1.1960   -1.5020 O   0  0  0  0  0  0  0  0  0  0  0  0
    3.6000    0.0660    0.4500 C   0  0  2  0  0  0  0  0  0  0  0  0
    3.9810    1.3520    1.1330 C   0  0  0  0  0  0  0  0  0  0  0  0
    4.8320   -0.3900   -0.3320 C   0  0  0  0  0  0  0  0  0  0  0  0
    5.2160    0.6050   -1.2490 O   0  0  0  0  0  0  0  0  0  0  0  0
    1.4690    1.0210    0.1080 O   0  0  0  0  0  0  0  0  0  0  0  0
  1  2  1  0
  2  3  1  0
  3  4  1  1
  3  5  1  0
  5  6  1  0
  5 12  1  0
  6  7  1  0
  6  8  1  0
  8  9  1  0
  9 10  1  6
  9 11  1  0
  9 28  1  0
 11 12  1  0
 12 13  1  0
 13 14  2  0
 13 15  1  0
 15 16  1  0
 16 17  1  0
 17 18  1  0
 18 19  1  0
 19 20  2  0
 19 21  1  0
 21 22  1  0
 22 23  1  6
 22 24  1  0
 22 28  1  0
 24 25  1  6
 24 26  1  0
 26 27  1  0
M  END
