
     RDKit          3D

 22 22  0  0  0  0  0  0  0  0999 V2000
    1.8170   -2.8700   -1.3860 C   0  0  0  0  0  0  0  0  0  0  0  0
    1.3520   -2.4530   -0.0880 O   0  0  0  0  0  0  0  0  0  0  0  0
    0.3020   -1.5420   -0.0490 C   0  0  0  0  0  0  0  0  0  0  0  0
   -0.9800   -2.1270   -0.0610 C   0  0  0  0  0  0  0  0  0  0  0  0
   -1.1070   -3.6020   -0.1110 C   0  0  0  0  0  0  0  0  0  0  0  0
   -2.0720   -1.3020   -0.0260 C   0  0  0  0  0  0  0  0  0  0  0  0
   -1.9650    0.0720    0.0210 C   0  0  0  0  0  0  0  0  0  0  0  0
   -3.1940    0.9230    0.0600 C   0  0  2  0  0  0  0  0  0  0  0  0
   -3.2540    1.8610   -1.1280 C   0  0  0  0  0  0  0  0  0  0  0  0
   -3.3810    1.6190    1.3740 C   0  0  0  0  0  0  0  0  0  0  0  0
   -4.4040   -0.0090   -0.1080 C   0  0  0  0  0  0  0  0  0  0  0  0
   -0.6920    0.6300    0.0320 C   0  0  0  0  0  0  0  0  0  0  0  0
   -0.4990    2.0780    0.0740 C   0  0  0  0  0  0  0  0  0  0  0  0
    0.4430   -0.1860   -0.0020 C   0  0  0  0  0  0  0  0  0  0  0  0
    1.6770    0.3960    0.0140 O   0  0  0  0  0  0  0  0  0  0  0  0
    2.4100    0.7070    1.1720 C   0  0  0  0  0  0  0  0  0  0  0  0
    3.6730    1.3890    0.7610 C   0  0  0  0  0  0  0  0  0  0  0  0
    4.6620    0.7480   -0.0940 C   0  0  0  0  0  0  0  0  0  0  0  0
    4.5350   -0.4660   -0.5680 C   0  0  0  0  0  0  0  0  0  0  0  0
    5.5270   -0.9900   -1.3730 O   0  0  0  0  0  0  0  0  0  0  0  0
    3.9260    2.6290    1.1830 C   0  0  0  0  0  0  0  0  0  0  0  0
    2.7840    3.4690    2.2210 Cl  0  0  0  0  0  0  0  0  0  0  0  0
  1  2  1  0
  2  3  1  0
  3  4  2  0
  3 14  1  0
  4  5  1  0
  4  6  1  0
  6  7  2  0
  7  8  1  0
  7 12  1  0
  8  9  1  6
  8 10  1  0
  8 11  1  0
 12 13  1  0
 12 14  2  0
 14 15  1  0
 15 16  1  0
 16 17  1  0
 17 18  1  0
 17 21  2  3
 18 19  2  3
 19 20  1  0
 21 22  1  0
M  END
