
     RDKit          3D

 22 23  0  0  0  0  0  0  0  0999 V2000
    5.6720    0.8480   -0.9910 C   0  0  0  0  0  0  0  0  0  0  0  0
    4.8700    0.1070    0.1150 C   0  0  0  0  0  0  0  0  0  0  0  0
    4.4490   -1.1850   -0.3710 C   0  0  0  0  0  0  0  0  0  0  0  0
    5.7220   -2.0360   -0.7630 C   0  0  0  0  0  0  0  0  0  0  0  0
    3.3450   -1.7710   -0.5540 C   0  0  0  0  0  0  0  0  0  0  0  0
    1.9530   -1.6820   -0.4610 C   0  0  0  0  0  0  0  0  0  0  0  0
    1.3650   -2.8300   -0.8910 O   0  0  0  0  0  0  0  0  0  0  0  0
    0.9740   -0.6980   -0.0310 C   0  0  0  0  0  0  0  0  0  0  0  0
    1.5320    0.4190    0.7920 C   0  0  0  0  0  0  0  0  0  0  0  0
    0.6340    1.1410    1.5240 O   0  0  0  0  0  0  0  0  0  0  0  0
   -0.3170   -0.9500   -0.0880 C   0  0  0  0  0  0  0  0  0  0  0  0
   -0.7230   -2.5900   -0.6830 Cl  0  0  0  0  0  0  0  0  0  0  0  0
   -1.3350    0.0700   -0.1150 C   0  0  0  0  0  0  0  0  0  0  0  0
   -2.6290   -0.2340   -0.0180 C   0  0  0  0  0  0  0  0  0  0  0  0
   -2.9780   -1.6740    0.1320 C   0  0  0  0  0  0  0  0  0  0  0  0
   -3.6670    0.7660    0.0340 C   0  0  0  0  0  0  0  0  0  0  0  0
   -4.9640    0.5870    0.0980 C   0  0  0  0  0  0  0  0  0  0  0  0
   -5.7670   -0.6250    0.1290 C   0  0  0  0  0  0  0  0  0  0  0  0
   -5.7930    1.8850    0.1550 C   0  0  0  0  0  0  0  0  0  0  0  0
   -3.2360    2.1260   -0.0040 O   0  0  0  0  0  0  0  0  0  0  0  0
   -1.8670    2.4720    0.1830 C   0  0  0  0  0  0  0  0  0  0  0  0
   -1.0230    1.4720   -0.5310 C   0  0  0  0  0  0  0  0  0  0  0  0
  1  2  1  0
  2  3  1  0
  3  4  1  0
  3  5  2  3
  5  6  1  0
  6  7  2  0
  6  8  1  0
  8  9  1  0
  8 11  2  0
  9 10  1  0
 11 12  1  0
 11 13  1  0
 13 14  2  0
 13 22  1  0
 14 15  1  0
 14 16  1  0
 16 17  2  3
 16 20  1  0
 17 18  1  0
 17 19  1  0
 20 21  1  0
 21 22  1  0
 12  7  1  0
M  END
