
     RDKit          3D

 22 22  0  0  0  0  0  0  0  0999 V2000
   -2.9090   -3.5880    0.4720 C   0  0  0  0  0  0  0  0  0  0  0  0
   -3.4270   -2.4390    1.2710 C   0  0  0  0  0  0  0  0  0  0  0  0
   -2.4410   -1.3690    1.5220 C   0  0  0  0  0  0  0  0  0  0  0  0
   -1.8770   -0.6870    0.2960 C   0  0  2  0  0  0  0  0  0  0  0  0
   -1.2140   -1.6000   -0.4610 O   0  0  0  0  0  0  0  0  0  0  0  0
   -1.0260    0.4450    0.7790 C   0  0  0  0  0  0  0  0  0  0  0  0
   -0.3670    1.2810   -0.2760 C   0  0  2  0  0  0  0  0  0  0  0  0
    0.4570    0.5850   -1.0250 O   0  0  0  0  0  0  0  0  0  0  0  0
    1.6440    0.0980   -0.8920 C   0  0  0  0  0  0  0  0  0  0  0  0
    2.0220   -0.8350    0.1980 C   0  0  0  0  0  0  0  0  0  0  0  0
    3.4640   -1.2510    0.0900 C   0  0  0  0  0  0  0  0  0  0  0  0
    4.5680   -0.2570    0.1460 C   0  0  0  0  0  0  0  0  0  0  0  0
    3.7440   -2.5260   -0.0550 C   0  0  0  0  0  0  0  0  0  0  0  0
    5.1330   -3.0530   -0.1720 C   0  0  0  0  0  0  0  0  0  0  0  0
    2.4390   -3.6890   -0.1190 Cl  0  0  0  0  0  0  0  0  0  0  0  0
    0.3080    2.3930    0.5260 C   0  0  0  0  0  0  0  0  0  0  0  0
   -0.3480    3.7120    0.5380 C   0  0  0  0  0  0  0  0  0  0  0  0
   -1.8180    3.7820    0.3760 C   0  0  0  0  0  0  0  0  0  0  0  0
   -2.4060    2.6310   -0.4020 C   0  0  0  0  0  0  0  0  0  0  0  0
   -1.3490    1.9790   -1.2070 C   0  0  2  0  0  0  0  0  0  0  0  0
   -1.8440    1.1400   -2.3300 C   0  0  0  0  0  0  0  0  0  0  0  0
   -0.6000    3.0250   -1.8100 O   0  0  0  0  0  0  0  0  0  0  0  0
  1  2  1  0
  2  3  1  0
  3  4  1  0
  4  5  1  1
  4  6  1  0
  7  6  1  1
  7  8  1  0
  7 16  1  0
  7 20  1  0
  8  9  1  0
  9 10  1  0
 10 11  1  0
 11 12  1  0
 11 13  2  3
 13 14  1  0
 13 15  1  0
 16 17  1  0
 17 18  1  0
 18 19  1  0
 19 20  1  0
 20 21  1  6
 20 22  1  0
M  END
