
     RDKit          3D

 22 22  0  0  0  0  0  0  0  0999 V2000
   -1.2440    3.3730   -2.1330 C   0  0  0  0  0  0  0  0  0  0  0  0
   -1.1350    2.6190   -0.7860 C   0  0  2  0  0  0  0  0  0  0  0  0
   -0.8170    3.7220    0.1780 C   0  0  0  0  0  0  0  0  0  0  0  0
   -0.2000    1.5070   -0.9390 C   0  0  0  0  0  0  0  0  0  0  0  0
    0.1300    0.5720    0.1470 C   0  0  2  0  0  0  0  0  0  0  0  0
    0.7150    1.3630    1.3010 C   0  0  0  0  0  0  0  0  0  0  0  0
    1.4550   -0.0470   -0.4580 C   0  0  0  0  0  0  0  0  0  0  0  0
    1.9900   -0.9880    0.4030 O   0  0  0  0  0  0  0  0  0  0  0  0
    3.1420   -1.7160    0.1810 C   0  0  0  0  0  0  0  0  0  0  0  0
    4.0610   -1.9340    1.0870 C   0  0  0  0  0  0  0  0  0  0  0  0
    5.1450   -2.7420    0.5110 C   0  0  0  0  0  0  0  0  0  0  0  0
    4.7180   -2.9690   -0.8850 C   0  0  0  0  0  0  0  0  0  0  0  0
    3.5570   -2.3640   -1.0490 C   0  0  0  0  0  0  0  0  0  0  0  0
    2.6860   -2.3870   -2.5900 Cl  0  0  0  0  0  0  0  0  0  0  0  0
   -0.6690   -0.5770    0.5190 C   0  0  2  0  0  0  0  0  0  0  0  0
   -0.1220   -1.3170    1.7090 C   0  0  0  0  0  0  0  0  0  0  0  0
   -0.4080   -1.5850   -0.5170 O   0  0  0  0  0  0  0  0  0  0  0  0
   -2.1450   -0.6300    0.5260 C   0  0  1  0  0  0  0  0  0  0  0  0
   -2.4780   -2.0600    1.0550 C   0  0  0  0  0  0  0  0  0  0  0  0
   -2.8990    0.2770    1.4050 C   0  0  0  0  0  0  0  0  0  0  0  0
   -2.7950   -0.6810   -0.8530 C   0  0  0  0  0  0  0  0  0  0  0  0
   -4.1940   -0.7190   -0.7300 O   0  0  0  0  0  0  0  0  0  0  0  0
  2  1  1  6
  2  3  1  0
  2  4  1  0
  4  5  1  0
  5  6  1  1
  5  7  1  0
  5 15  1  0
  7  8  1  0
  8  9  1  0
  9 10  2  0
  9 13  1  0
 10 11  1  0
 11 12  1  0
 12 13  2  0
 13 14  1  0
 15 16  1  1
 15 17  1  0
 15 18  1  0
 18 19  1  1
 18 20  1  0
 18 21  1  0
 21 22  1  0
M  END
