
     RDKit          3D

 28 29  0  0  0  0  0  0  0  0999 V2000
   -8.8370   -0.9970   -1.5100 C   0  0  0  0  0  0  0  0  0  0  0  0
   -8.6170   -1.3730   -0.0670 C   0  0  0  0  0  0  0  0  0  0  0  0
   -7.1760   -1.4470    0.1510 N   0  0  0  0  0  0  0  0  0  0  0  0
   -6.3710   -0.2850   -0.0680 C   0  0  0  0  0  0  0  0  0  0  0  0
   -6.8500    0.8040   -0.4420 O   0  0  0  0  0  0  0  0  0  0  0  0
   -4.9030   -0.4430    0.1770 C   0  0  0  0  0  0  0  0  0  0  0  0
   -4.2590    0.8720   -0.0980 C   0  0  0  0  0  0  0  0  0  0  0  0
   -2.7920    0.8510    0.1100 N   0  0  0  0  0  0  0  0  0  0  0  0
   -1.9630    0.0110   -0.6370 C   0  0  0  0  0  0  0  0  0  0  0  0
   -2.6060   -0.7190   -1.5060 O   0  0  0  0  0  0  0  0  0  0  0  0
   -0.5230   -0.1290   -0.5510 C   0  0  0  0  0  0  0  0  0  0  0  0
    0.1100   -0.9910   -1.3550 O   0  0  0  0  0  0  0  0  0  0  0  0
    1.3890   -0.9900   -1.1470 C   0  0  0  0  0  0  0  0  0  0  0  0
    2.4240   -1.8200   -1.8520 C   0  0  0  0  0  0  0  0  0  0  0  0
    1.6830   -0.0860   -0.1500 C   0  0  0  0  0  0  0  0  0  0  0  0
    3.0250    0.2310    0.3870 C   0  0  0  0  0  0  0  0  0  0  0  0
    3.1530    1.0720    1.2840 O   0  0  0  0  0  0  0  0  0  0  0  0
    4.3980   -0.6300   -0.3030 S   0  0  0  0  0  0  0  0  0  0  0  0
    5.9360   -0.1820    0.4130 C   0  0  0  0  0  0  0  0  0  0  0  0
    6.1140    0.7330    1.4140 C   0  0  0  0  0  0  0  0  0  0  0  0
    7.3280    1.0780    1.9700 C   0  0  0  0  0  0  0  0  0  0  0  0
    8.4340    0.4720    1.4960 N   0  0  0  0  0  0  0  0  0  0  0  0
    8.3180   -0.4400    0.5080 C   0  0  0  0  0  0  0  0  0  0  0  0
    9.5780   -1.0950    0.0060 C   0  0  0  0  0  0  0  0  0  0  0  0
    7.1240   -0.7880   -0.0470 C   0  0  0  0  0  0  0  0  0  0  0  0
    0.4520    0.4530    0.2180 C   0  0  0  0  0  0  0  0  0  0  0  0
    0.2190    1.4760    1.2450 C   0  0  0  0  0  0  0  0  0  0  0  0
    0.0060    2.8640    0.7310 C   0  0  0  0  0  0  0  0  0  0  0  0
  1  2  1  0
  2  3  1  0
  3  4  1  0
  4  5  2  0
  4  6  1  0
  6  7  1  0
  7  8  1  0
  8  9  1  0
  9 10  2  0
  9 11  1  0
 11 12  1  0
 11 26  2  0
 12 13  1  0
 13 14  1  0
 13 15  2  0
 15 16  1  0
 15 26  1  0
 16 17  2  0
 16 18  1  0
 18 19  1  0
 19 20  2  0
 19 25  1  0
 20 21  1  0
 21 22  2  0
 22 23  1  0
 23 24  1  0
 23 25  2  0
 26 27  1  0
 27 28  1  0
M  END
