
     RDKit          3D

  9 10  0  0  0  0  0  0  0  0999 V2000
   -2.1110    0.6520   -0.0600 C   0  0  0  0  0  0  0  0  0  0  0  0
   -2.0640   -0.7390    0.0710 C   0  0  0  0  0  0  0  0  0  0  0  0
   -0.8350   -1.3930    0.1320 C   0  0  0  0  0  0  0  0  0  0  0  0
    0.3420   -0.6920    0.0650 C   0  0  0  0  0  0  0  0  0  0  0  0
    1.6930   -1.0590    0.0980 C   0  0  0  0  0  0  0  0  0  0  0  0
    2.4180    0.0680   -0.0080 N   0  0  0  0  0  0  0  0  0  0  0  0
    1.5840    1.1170   -0.1070 C   0  0  0  0  0  0  0  0  0  0  0  0
    0.2660    0.6710   -0.0630 C   0  0  0  0  0  0  0  0  0  0  0  0
   -0.9260    1.3500   -0.1260 C   0  0  0  0  0  0  0  0  0  0  0  0
  1  2  1  0
  1  9  2  0
  2  3  2  0
  3  4  1  0
  4  5  2  0
  4  8  1  0
  5  6  1  0
  6  7  1  0
  7  8  2  0
  8  9  1  0
M  END
