
     RDKit          3D

 28 29  0  0  0  0  0  0  0  0999 V2000
    8.8520    1.3960   -0.4020 C   0  0  0  0  0  0  0  0  0  0  0  0
    7.6070    0.6090   -0.3820 C   0  0  0  0  0  0  0  0  0  0  0  0
    7.5760   -0.4890   -1.0110 O   0  0  0  0  0  0  0  0  0  0  0  0
    6.4580    1.1030    0.3520 C   0  0  0  0  0  0  0  0  0  0  0  0
    5.3260    0.4050    0.4290 C   0  0  0  0  0  0  0  0  0  0  0  0
    4.1890    0.9370    1.1710 C   0  0  0  0  0  0  0  0  0  0  0  0
    2.9500    1.0290    0.4100 N   0  0  0  0  0  0  0  0  0  0  0  0
    2.7060    2.2100   -0.3840 C   0  0  0  0  0  0  0  0  0  0  0  0
    2.0700   -0.0650    0.5040 C   0  0  0  0  0  0  0  0  0  0  0  0
    2.4420   -1.0620    1.2280 O   0  0  0  0  0  0  0  0  0  0  0  0
    0.8040   -0.2220   -0.0910 N   0  0  0  0  0  0  0  0  0  0  0  0
   -0.0080   -1.3830    0.1250 C   0  0  0  0  0  0  0  0  0  0  0  0
    0.5290   -2.8370    0.9690 S   0  0  0  0  0  0  0  0  0  0  0  0
   -1.0500   -3.6470    0.9990 C   0  0  0  0  0  0  0  0  0  0  0  0
   -1.8600   -2.7510    0.3720 C   0  0  0  0  0  0  0  0  0  0  0  0
   -1.3340   -1.5990   -0.0810 C   0  0  0  0  0  0  0  0  0  0  0  0
   -2.1730   -0.6320   -0.8410 C   0  0  0  0  0  0  0  0  0  0  0  0
   -1.5700    0.3070   -1.4150 O   0  0  0  0  0  0  0  0  0  0  0  0
   -3.6120   -0.7060   -0.9390 C   0  0  0  0  0  0  0  0  0  0  0  0
   -4.5100   -1.5400   -1.4730 C   0  0  0  0  0  0  0  0  0  0  0  0
   -4.1640   -2.7450   -2.2910 C   0  0  0  0  0  0  0  0  0  0  0  0
   -5.7690   -1.0960   -1.1750 N   0  0  0  0  0  0  0  0  0  0  0  0
   -5.6890    0.0290   -0.4470 C   0  0  0  0  0  0  0  0  0  0  0  0
   -6.8340    0.8280    0.0880 C   0  0  0  0  0  0  0  0  0  0  0  0
   -4.3580    0.3120   -0.2760 C   0  0  0  0  0  0  0  0  0  0  0  0
   -3.7790    1.4410    0.4110 C   0  0  0  0  0  0  0  0  0  0  0  0
   -3.3520    1.5380    1.8230 C   0  0  0  0  0  0  0  0  0  0  0  0
   -3.6090    2.4980   -0.3020 O   0  0  0  0  0  0  0  0  0  0  0  0
  1  2  1  0
  2  3  2  0
  2  4  1  0
  4  5  2  3
  5  6  1  0
  6  7  1  0
  7  8  1  0
  7  9  1  0
  9 10  2  0
  9 11  1  0
 11 12  1  0
 12 13  1  0
 12 16  2  0
 13 14  1  0
 14 15  2  0
 15 16  1  0
 16 17  1  0
 17 18  2  0
 17 19  1  0
 19 20  2  0
 19 25  1  0
 20 21  1  0
 20 22  1  0
 22 23  1  0
 23 24  1  0
 23 25  2  0
 25 26  1  0
 26 27  1  0
 26 28  2  0
M  END
