
     RDKit          3D

  9  9  0  0  0  0  0  0  0  0999 V2000
   -0.2210   -1.3190   -1.8630 C   0  0  0  0  0  0  0  0  0  0  0  0
   -0.8440   -0.6650   -0.9040 C   0  0  0  0  0  0  0  0  0  0  0  0
   -2.2320   -0.2350   -1.1840 C   0  0  0  0  0  0  0  0  0  0  0  0
   -2.8580    0.3980   -0.2740 N   0  0  0  0  0  0  0  0  0  0  0  0
   -0.1960   -0.3640    0.3650 C   0  0  1  0  0  0  0  0  0  0  0  0
    1.2640   -0.7930    0.3080 C   0  0  0  0  0  0  0  0  0  0  0  0
    1.7980    0.0250    1.5230 C   0  0  0  0  0  0  0  0  0  0  0  0
    1.2840    1.3780    1.0840 C   0  0  0  0  0  0  0  0  0  0  0  0
   -0.1410    1.1080    0.7010 C   0  0  0  0  0  0  0  0  0  0  0  0
  1  2  2  0
  2  3  1  0
  5  2  1  6
  3  4  2  0
  5  6  1  0
  5  9  1  0
  6  7  1  0
  7  8  1  0
  8  9  1  0
M  END
