
     RDKit          3D

 28 29  0  0  0  0  0  0  0  0999 V2000
    8.8110    1.7850   -0.5600 C   0  0  0  0  0  0  0  0  0  0  0  0
    7.4550    2.2280   -0.9540 C   0  0  0  0  0  0  0  0  0  0  0  0
    6.3590    1.8810   -0.2730 C   0  0  0  0  0  0  0  0  0  0  0  0
    6.4900    1.0170    0.9290 C   0  0  0  0  0  0  0  0  0  0  0  0
    5.7570   -0.1930    0.7710 N   0  0  0  0  0  0  0  0  0  0  0  0
    4.3310   -0.2850    0.7620 C   0  0  0  0  0  0  0  0  0  0  0  0
    3.5430    0.8090    0.9710 C   0  0  0  0  0  0  0  0  0  0  0  0
    2.1760    0.6950    0.9440 C   0  0  0  0  0  0  0  0  0  0  0  0
    1.5530   -0.5370    0.7020 C   0  0  0  0  0  0  0  0  0  0  0  0
    0.1160   -0.5420    0.6430 C   0  0  0  0  0  0  0  0  0  0  0  0
   -0.5110    0.3510    1.3290 O   0  0  0  0  0  0  0  0  0  0  0  0
   -0.6290   -1.4610   -0.1210 N   0  0  0  0  0  0  0  0  0  0  0  0
   -2.0540   -1.4940   -0.1970 C   0  0  0  0  0  0  0  0  0  0  0  0
   -2.6140   -2.6940   -0.6650 C   0  0  0  0  0  0  0  0  0  0  0  0
   -3.9760   -2.7970   -0.7820 C   0  0  0  0  0  0  0  0  0  0  0  0
   -4.7830   -1.7410   -0.4450 C   0  0  0  0  0  0  0  0  0  0  0  0
   -6.2600   -1.8270   -0.5610 C   0  0  0  0  0  0  0  0  0  0  0  0
   -4.2630   -0.5550    0.0170 C   0  0  0  0  0  0  0  0  0  0  0  0
   -5.1030    0.5810    0.3830 C   0  0  0  0  0  0  0  0  0  0  0  0
   -4.5700    1.6450    0.7970 O   0  0  0  0  0  0  0  0  0  0  0  0
   -6.4700    0.5570    0.3030 O   0  0  0  0  0  0  0  0  0  0  0  0
   -7.3390    1.6040    0.6360 C   0  0  0  0  0  0  0  0  0  0  0  0
   -7.1320    2.8580   -0.1570 C   0  0  0  0  0  0  0  0  0  0  0  0
   -2.8860   -0.4500    0.1350 C   0  0  0  0  0  0  0  0  0  0  0  0
    2.3560   -1.5990    0.5020 C   0  0  0  0  0  0  0  0  0  0  0  0
    1.7120   -3.2440    0.2480 S   0  0  0  0  0  0  0  0  0  0  0  0
    1.9920   -4.0510    1.5040 O   0  0  0  0  0  0  0  0  0  0  0  0
    3.7180   -1.4600    0.5330 N   0  0  0  0  0  0  0  0  0  0  0  0
  1  2  1  0
  2  3  2  3
  3  4  1  0
  4  5  1  0
  5  6  1  0
  6  7  2  0
  6 28  1  0
  7  8  1  0
  8  9  2  0
  9 10  1  0
  9 25  1  0
 10 11  2  0
 10 12  1  0
 12 13  1  0
 13 14  2  0
 13 24  1  0
 14 15  1  0
 15 16  2  0
 16 17  1  0
 16 18  1  0
 18 19  1  0
 18 24  2  0
 19 20  2  0
 19 21  1  0
 21 22  1  0
 22 23  1  0
 25 26  1  0
 25 28  2  0
 26 27  2  0
M  END
