
     RDKit          3D

 28 29  0  0  0  0  0  0  0  0999 V2000
    6.6820    2.1990   -0.7450 C   0  0  0  0  0  0  0  0  0  0  0  0
    6.6490    1.2240    0.1260 C   0  0  0  0  0  0  0  0  0  0  0  0
    6.5180   -0.1570   -0.1340 N   0  0  0  0  0  0  0  0  0  0  0  0
    7.5930   -1.0800    0.0590 C   0  0  0  0  0  0  0  0  0  0  0  0
    5.2330   -0.7200   -0.5140 C   0  0  0  0  0  0  0  0  0  0  0  0
    4.6540   -1.5130   -1.8870 S   0  0  0  0  0  0  0  0  0  0  0  0
    2.9230   -1.7970   -1.3080 C   0  0  0  0  0  0  0  0  0  0  0  0
    2.9730   -1.2300   -0.0730 C   0  0  0  0  0  0  0  0  0  0  0  0
    1.9090   -1.4280    0.9880 C   0  0  0  0  0  0  0  0  0  0  0  0
    0.6940   -0.8510    0.7900 N   0  0  0  0  0  0  0  0  0  0  0  0
   -0.4710   -0.8670    0.0360 C   0  0  0  0  0  0  0  0  0  0  0  0
   -0.5850   -1.7360   -0.8500 O   0  0  0  0  0  0  0  0  0  0  0  0
   -1.5270    0.1260    0.3000 C   0  0  2  0  0  0  0  0  0  0  0  0
   -2.8830   -0.1800    0.2610 N   0  0  0  0  0  0  0  0  0  0  0  0
   -3.6900   -0.5500   -0.8450 C   0  0  0  0  0  0  0  0  0  0  0  0
   -3.1150   -0.6660   -1.9680 O   0  0  0  0  0  0  0  0  0  0  0  0
   -5.1460   -0.7870   -0.7020 C   0  0  1  0  0  0  0  0  0  0  0  0
   -5.6700   -0.1140    0.5510 C   0  0  0  0  0  0  0  0  0  0  0  0
   -5.7880   -0.0010   -1.8470 C   0  0  0  0  0  0  0  0  0  0  0  0
   -5.5650   -2.2130   -0.6780 C   0  0  0  0  0  0  0  0  0  0  0  0
   -1.2570    1.2600   -0.7630 C   0  0  0  0  0  0  0  0  0  0  0  0
   -2.2870    2.3170   -0.5710 C   0  0  0  0  0  0  0  0  0  0  0  0
   -2.8390    2.4880    0.6440 O   0  0  0  0  0  0  0  0  0  0  0  0
   -2.3690    1.9050    1.7370 C   0  0  0  0  0  0  0  0  0  0  0  0
   -1.2470    0.9200    1.5570 C   0  0  0  0  0  0  0  0  0  0  0  0
    4.1460   -0.6850    0.3260 C   0  0  0  0  0  0  0  0  0  0  0  0
    4.2840    0.1270    1.5870 C   0  0  0  0  0  0  0  0  0  0  0  0
    3.9310    1.3360    1.5880 O   0  0  0  0  0  0  0  0  0  0  0  0
  1  2  2  0
  2  3  1  0
  3  4  1  0
  3  5  1  0
  5  6  1  0
  5 26  2  0
  6  7  1  0
  7  8  2  0
  8  9  1  0
  8 26  1  0
  9 10  1  0
 10 11  1  0
 11 12  2  0
 11 13  1  0
 13 14  1  1
 13 21  1  0
 13 25  1  0
 14 15  1  0
 15 16  2  0
 15 17  1  0
 17 18  1  1
 17 19  1  0
 17 20  1  0
 21 22  1  0
 22 23  1  0
 23 24  1  0
 24 25  1  0
 26 27  1  0
 27 28  2  0
M  END
