
     RDKit          3D

 28 29  0  0  0  0  0  0  0  0999 V2000
    6.5460   -1.5730    1.7710 C   0  0  0  0  0  0  0  0  0  0  0  0
    7.0760   -0.7100    0.9040 C   0  0  0  0  0  0  0  0  0  0  0  0
    7.0970   -0.9810   -0.5190 C   0  0  0  0  0  0  0  0  0  0  0  0
    7.6280   -0.1100   -1.3450 C   0  0  0  0  0  0  0  0  0  0  0  0
    6.5310   -2.2290   -1.0390 C   0  0  0  0  0  0  0  0  0  0  0  0
    5.1700   -2.4230   -0.7740 O   0  0  0  0  0  0  0  0  0  0  0  0
    4.1870   -1.5410   -1.2260 C   0  0  0  0  0  0  0  0  0  0  0  0
    4.5630   -0.5640   -1.8780 O   0  0  0  0  0  0  0  0  0  0  0  0
    2.8250   -1.7500   -0.9550 N   0  0  0  0  0  0  0  0  0  0  0  0
    1.7450   -0.9480   -1.3450 C   0  0  0  0  0  0  0  0  0  0  0  0
    1.8490    0.2650   -1.9770 C   0  0  0  0  0  0  0  0  0  0  0  0
    0.7310    1.0200   -2.3560 C   0  0  0  0  0  0  0  0  0  0  0  0
   -0.5310    0.5700   -2.1080 C   0  0  0  0  0  0  0  0  0  0  0  0
   -0.6460   -0.6540   -1.4700 C   0  0  0  0  0  0  0  0  0  0  0  0
    0.4440   -1.3930   -1.0990 C   0  0  0  0  0  0  0  0  0  0  0  0
   -1.9910   -0.8550   -1.3530 N   0  0  0  0  0  0  0  0  0  0  0  0
   -2.6530    0.1860   -1.8880 C   0  0  0  0  0  0  0  0  0  0  0  0
   -4.1240    0.3800   -1.9780 C   0  0  0  0  0  0  0  0  0  0  0  0
   -4.8060    1.2440   -0.5390 S   0  0  0  0  0  0  0  0  0  0  0  0
   -4.6250    0.2050    0.9070 C   0  0  2  0  0  0  0  0  0  0  0  0
   -5.4630   -1.0540    0.8280 C   0  0  0  0  0  0  0  0  0  0  0  0
   -4.9680    0.9320    2.1700 C   0  0  0  0  0  0  0  0  0  0  0  0
   -5.3370    2.1190    2.1980 O   0  0  0  0  0  0  0  0  0  0  0  0
   -4.8560    0.2080    3.3480 O   0  0  0  0  0  0  0  0  0  0  0  0
   -5.1470    0.7650    4.6160 C   0  0  0  0  0  0  0  0  0  0  0  0
   -4.2980    1.9490    4.9580 C   0  0  0  0  0  0  0  0  0  0  0  0
   -1.7470    1.0790   -2.3610 N   0  0  0  0  0  0  0  0  0  0  0  0
   -2.0180    2.3320   -3.0090 C   0  0  0  0  0  0  0  0  0  0  0  0
  1  2  2  0
  2  3  1  0
  3  4  2  0
  3  5  1  0
  5  6  1  0
  6  7  1  0
  7  8  2  0
  7  9  1  0
  9 10  1  0
 10 11  2  0
 10 15  1  0
 11 12  1  0
 12 13  2  0
 13 14  1  0
 13 27  1  0
 14 15  2  0
 14 16  1  0
 16 17  2  0
 17 18  1  0
 17 27  1  0
 18 19  1  0
 19 20  1  0
 20 21  1  6
 20 22  1  0
 22 23  2  0
 22 24  1  0
 24 25  1  0
 25 26  1  0
 27 28  1  0
M  END
