
     RDKit          3D

 28 29  0  0  0  0  0  0  0  0999 V2000
   -7.8640   -2.8680   -1.3260 C   0  0  0  0  0  0  0  0  0  0  0  0
   -6.4790   -3.2500   -1.7440 N   0  0  0  0  0  0  0  0  0  0  0  0
   -5.4190   -2.3150   -1.3410 C   0  0  0  0  0  0  0  0  0  0  0  0
   -4.2120   -2.8470   -1.0970 C   0  0  0  0  0  0  0  0  0  0  0  0
   -3.2060   -1.8670   -0.6680 C   0  0  0  0  0  0  0  0  0  0  0  0
   -3.4660   -0.5610   -0.5410 C   0  0  0  0  0  0  0  0  0  0  0  0
   -2.5850    0.5000   -0.1690 C   0  0  0  0  0  0  0  0  0  0  0  0
   -1.7760    1.3380    0.1610 C   0  0  0  0  0  0  0  0  0  0  0  0
   -0.3640    1.2390    0.6070 C   0  0  0  0  0  0  0  0  0  0  0  0
    0.1350    2.4020    0.8990 O   0  0  0  0  0  0  0  0  0  0  0  0
    0.4560    0.1570    0.7130 N   0  0  0  0  0  0  0  0  0  0  0  0
    1.8870    0.4240    0.8690 C   0  0  0  0  0  0  0  0  0  0  0  0
    3.1090   -0.6900    1.5820 S   0  0  0  0  0  0  0  0  0  0  0  0
    4.5610    0.3040    1.0790 C   0  0  0  0  0  0  0  0  0  0  0  0
    5.9110    0.0640    1.3920 C   0  0  0  0  0  0  0  0  0  0  0  0
    6.5210    1.2150    0.5220 O   0  0  0  0  0  0  0  0  0  0  0  0
    7.0700   -0.3420    1.8190 O   0  0  0  0  0  0  0  0  0  0  0  0
    8.3220    0.2930    1.4100 C   0  0  0  0  0  0  0  0  0  0  0  0
    9.5260   -0.2250    1.9450 C   0  0  0  0  0  0  0  0  0  0  0  0
    9.9740   -0.9570    2.7450 O   0  0  0  0  0  0  0  0  0  0  0  0
    3.9520    1.4600    0.3910 C   0  0  0  0  0  0  0  0  0  0  0  0
    4.7360    2.5300   -0.2620 C   0  0  0  0  0  0  0  0  0  0  0  0
    2.6480    1.3050    0.4010 C   0  0  0  0  0  0  0  0  0  0  0  0
    1.9820    2.2440   -0.6850 C   0  0  0  0  0  0  0  0  0  0  0  0
    1.4650    2.9840   -1.5630 N   0  0  0  0  0  0  0  0  0  0  0  0
   -4.7770   -0.0950   -0.8340 C   0  0  0  0  0  0  0  0  0  0  0  0
   -5.0940    1.3160   -0.7150 C   0  0  0  0  0  0  0  0  0  0  0  0
   -5.7290   -1.0120   -1.2360 C   0  0  0  0  0  0  0  0  0  0  0  0
  1  2  1  0
  2  3  1  0
  3  4  2  0
  3 28  1  0
  4  5  1  0
  5  6  2  0
  6  7  1  0
  6 26  1  0
  7  8  2  3
  8  9  1  0
  9 10  2  0
  9 11  1  0
 11 12  1  0
 12 13  1  0
 12 23  2  0
 13 14  1  0
 14 15  1  0
 14 21  2  0
 15 16  2  0
 15 17  1  0
 17 18  1  0
 18 19  1  0
 19 20  2  0
 21 22  1  0
 21 23  1  0
 23 24  1  0
 24 25  3  0
 26 27  1  0
 26 28  2  0
M  END
