
     RDKit          3D

 22 25  0  0  0  0  0  0  0  0999 V2000
   -5.8440    0.4030   -0.7370 C   0  0  0  0  0  0  0  0  0  0  0  0
   -4.3970    0.1300   -0.6160 C   0  0  2  0  0  0  0  0  0  0  0  0
   -3.9560   -1.2480   -1.0340 C   0  0  0  0  0  0  0  0  0  0  0  0
   -2.4590   -1.2100   -1.2290 C   0  0  0  0  0  0  0  0  0  0  0  0
   -1.7900   -0.3540   -0.2240 C   0  0  0  0  0  0  0  0  0  0  0  0
   -0.4500   -0.0810   -0.0340 N   0  0  0  0  0  0  0  0  0  0  0  0
   -0.2750    0.7270    0.9930 C   0  0  0  0  0  0  0  0  0  0  0  0
    0.9270    1.2770    1.5610 C   0  0  0  0  0  0  0  0  0  0  0  0
    0.9680    2.1350    2.6530 N   0  0  0  0  0  0  0  0  0  0  0  0
    2.1820    2.4660    2.9550 N   0  0  0  0  0  0  0  0  0  0  0  0
    2.9670    1.8700    2.1140 N   0  0  0  0  0  0  0  0  0  0  0  0
    2.2290    1.1170    1.2290 C   0  0  0  0  0  0  0  0  0  0  0  0
    2.8270    0.3520    0.2020 N   0  0  0  0  0  0  0  0  0  0  0  0
    2.8750   -1.0830    0.1010 C   0  0  0  0  0  0  0  0  0  0  0  0
    4.2950   -1.5580    0.0040 C   0  0  0  0  0  0  0  0  0  0  0  0
    5.2260   -0.7240   -0.7870 C   0  0  0  0  0  0  0  0  0  0  0  0
    4.6050    0.3730   -1.6070 C   0  0  0  0  0  0  0  0  0  0  0  0
    3.5100    1.0510   -0.8630 C   0  0  0  0  0  0  0  0  0  0  0  0
    3.2080    2.2080   -1.1750 O   0  0  0  0  0  0  0  0  0  0  0  0
   -1.5350    0.9700    1.4550 N   0  0  0  0  0  0  0  0  0  0  0  0
   -2.4570    0.3410    0.7510 C   0  0  0  0  0  0  0  0  0  0  0  0
   -3.9230    0.2810    0.8260 C   0  0  0  0  0  0  0  0  0  0  0  0
  2  1  1  1
  2  3  1  0
  2 22  1  0
  3  4  1  0
  4  5  1  0
  5  6  1  0
  5 21  2  0
  6  7  1  0
  7  8  1  0
  7 20  2  0
  8  9  1  0
  8 12  2  0
  9 10  1  0
 10 11  2  0
 11 12  1  0
 12 13  1  0
 13 14  1  0
 13 18  1  0
 14 15  1  0
 15 16  1  0
 16 17  1  0
 17 18  1  0
 18 19  2  0
 20 21  1  0
 21 22  1  0
M  END
