
     RDKit          3D

 23 26  0  0  0  0  0  0  0  0999 V2000
   -2.7700   -3.2630   -1.2620 C   0  0  0  0  0  0  0  0  0  0  0  0
   -2.6840   -2.5710    0.0800 C   0  0  1  0  0  0  0  0  0  0  0  0
   -2.3500   -3.5980    1.1400 C   0  0  0  0  0  0  0  0  0  0  0  0
   -1.7410   -1.4420    0.0750 C   0  0  0  0  0  0  0  0  0  0  0  0
   -2.1450   -0.1810    0.3150 N   0  0  0  0  0  0  0  0  0  0  0  0
   -1.3100    0.8730    0.3190 C   0  0  0  0  0  0  0  0  0  0  0  0
   -1.7910    2.2130    0.5830 C   0  0  0  0  0  0  0  0  0  0  0  0
   -1.0700    3.3130    0.6120 C   0  0  0  0  0  0  0  0  0  0  0  0
   -1.9180    4.4830    0.9140 C   0  0  0  0  0  0  0  0  0  0  0  0
   -3.2610    3.8910    1.0590 C   0  0  0  0  0  0  0  0  0  0  0  0
   -3.1610    2.5890    0.8640 C   0  0  0  0  0  0  0  0  0  0  0  0
   -0.0130    0.6260    0.0670 N   0  0  0  0  0  0  0  0  0  0  0  0
    0.4560   -0.6080   -0.1800 C   0  0  0  0  0  0  0  0  0  0  0  0
    1.6870   -0.8850   -0.4250 N   0  0  0  0  0  0  0  0  0  0  0  0
    2.7160    0.0800   -0.4660 C   0  0  0  0  0  0  0  0  0  0  0  0
    2.7030    1.3970   -0.2090 N   0  0  0  0  0  0  0  0  0  0  0  0
    3.8850    1.9060   -0.3720 O   0  0  0  0  0  0  0  0  0  0  0  0
    4.7440    0.9660   -0.7440 C   0  0  0  0  0  0  0  0  0  0  0  0
    4.0230   -0.2160   -0.8130 C   0  0  0  0  0  0  0  0  0  0  0  0
    4.9900   -1.2300   -1.2220 C   0  0  0  0  0  0  0  0  0  0  0  0
    6.1510   -0.7120   -1.3790 N   0  0  0  0  0  0  0  0  0  0  0  0
    6.1590    0.6950   -1.1090 C   0  0  0  0  0  0  0  0  0  0  0  0
   -0.4240   -1.6230   -0.1710 N   0  0  0  0  0  0  0  0  0  0  0  0
  2  1  1  6
  2  3  1  0
  2  4  1  0
  4  5  2  0
  4 23  1  0
  5  6  1  0
  6  7  1  0
  6 12  2  0
  7  8  2  0
  7 11  1  0
  8  9  1  0
  9 10  1  0
 10 11  2  0
 12 13  1  0
 13 14  2  3
 13 23  1  0
 14 15  1  0
 15 16  2  0
 15 19  1  0
 16 17  1  0
 17 18  1  0
 18 19  2  0
 18 22  1  0
 19 20  1  0
 20 21  2  0
 21 22  1  0
M  END
