
     RDKit          3D

 23 26  0  0  0  0  0  0  0  0999 V2000
   -4.6140    1.0630    1.5630 C   0  0  0  0  0  0  0  0  0  0  0  0
   -3.5450    0.9700    0.5630 N   0  0  0  0  0  0  0  0  0  0  0  0
   -2.8570    2.2050    0.2130 C   0  0  0  0  0  0  0  0  0  0  0  0
   -1.9280    1.9910   -0.9330 C   0  0  0  0  0  0  0  0  0  0  0  0
   -1.1760    0.6660   -0.7520 N   0  0  0  0  0  0  0  0  0  0  0  0
    0.1780    0.8630   -0.4850 C   0  0  0  0  0  0  0  0  0  0  0  0
    0.5640    2.1110   -0.3910 O   0  0  0  0  0  0  0  0  0  0  0  0
    1.2270   -0.0930   -0.2970 C   0  0  0  0  0  0  0  0  0  0  0  0
    2.5230    0.3900   -0.0210 C   0  0  0  0  0  0  0  0  0  0  0  0
    3.5880   -0.4580    0.1740 C   0  0  0  0  0  0  0  0  0  0  0  0
    4.9100    0.1100    0.4570 C   0  0  0  0  0  0  0  0  0  0  0  0
    5.1810    1.4150    0.5450 N   0  0  0  0  0  0  0  0  0  0  0  0
    6.4920    1.5380    0.8150 C   0  0  0  0  0  0  0  0  0  0  0  0
    7.0200    0.3200    0.8910 N   0  0  0  0  0  0  0  0  0  0  0  0
    6.0410   -0.5700    0.6690 N   0  0  0  0  0  0  0  0  0  0  0  0
    3.3860   -1.8090    0.0980 C   0  0  0  0  0  0  0  0  0  0  0  0
    2.1160   -2.2690   -0.1720 C   0  0  0  0  0  0  0  0  0  0  0  0
    1.1280   -1.4040   -0.3500 N   0  0  0  0  0  0  0  0  0  0  0  0
   -2.0360   -0.4100   -0.9070 C   0  0  1  0  0  0  0  0  0  0  0  0
   -1.6680   -1.8220   -0.6810 C   0  0  0  0  0  0  0  0  0  0  0  0
   -3.0940   -2.4790   -0.7070 C   0  0  0  0  0  0  0  0  0  0  0  0
   -3.8380   -1.4680    0.1010 C   0  0  0  0  0  0  0  0  0  0  0  0
   -3.2440   -0.2660    0.0070 C   0  0  0  0  0  0  0  0  0  0  0  0
  1  2  1  0
  2  3  1  0
  2 23  1  0
  3  4  1  0
  4  5  1  0
  5  6  1  0
  5 19  1  0
  6  7  2  0
  6  8  1  0
  8  9  2  0
  8 18  1  0
  9 10  1  0
 10 11  1  0
 10 16  2  0
 11 12  1  0
 11 15  2  0
 12 13  2  0
 13 14  1  0
 14 15  1  0
 16 17  1  0
 17 18  2  0
 19 20  1  1
 19 23  1  0
 20 21  1  0
 21 22  1  0
 22 23  2  0
M  END
