
     RDKit          3D

 23 26  0  0  0  0  0  0  0  0999 V2000
   -3.3140    1.9010   -0.8490 C   0  0  0  0  0  0  0  0  0  0  0  0
   -3.1470    0.4420   -1.1140 C   0  0  0  0  0  0  0  0  0  0  0  0
   -2.4390   -0.2780    0.0110 C   0  0  2  0  0  0  0  0  0  0  0  0
   -3.2900   -0.0830    1.2480 C   0  0  0  0  0  0  0  0  0  0  0  0
   -2.7560   -0.9960    2.3240 C   0  0  0  0  0  0  0  0  0  0  0  0
   -1.4290   -1.5530    1.9460 C   0  0  0  0  0  0  0  0  0  0  0  0
   -0.4970   -0.5570    1.2870 C   0  0  0  0  0  0  0  0  0  0  0  0
   -1.1390    0.2240    0.2870 N   0  0  0  0  0  0  0  0  0  0  0  0
   -0.3530    0.6420   -0.8170 C   0  0  0  0  0  0  0  0  0  0  0  0
    0.2570   -0.4660   -1.6100 C   0  0  0  0  0  0  0  0  0  0  0  0
   -0.3770   -1.2320   -2.4950 N   0  0  0  0  0  0  0  0  0  0  0  0
    0.4830   -2.0980   -3.0000 C   0  0  0  0  0  0  0  0  0  0  0  0
    1.6920   -1.8650   -2.4130 C   0  0  0  0  0  0  0  0  0  0  0  0
    1.5340   -0.8490   -1.5520 N   0  0  0  0  0  0  0  0  0  0  0  0
    2.5720   -0.2720   -0.7150 C   0  0  0  0  0  0  0  0  0  0  0  0
    3.0560   -0.8440    0.3270 N   0  0  0  0  0  0  0  0  0  0  0  0
    4.0540   -0.0230    0.9260 C   0  0  0  0  0  0  0  0  0  0  0  0
    4.8910    0.0470    1.9060 N   0  0  0  0  0  0  0  0  0  0  0  0
    5.6000    1.2530    1.8490 N   0  0  0  0  0  0  0  0  0  0  0  0
    5.1630    2.0040    0.7260 C   0  0  0  0  0  0  0  0  0  0  0  0
    5.5250    3.1200    0.3080 O   0  0  0  0  0  0  0  0  0  0  0  0
    4.1270    1.1700    0.0910 C   0  0  0  0  0  0  0  0  0  0  0  0
    3.2490    1.0080   -0.8710 C   0  0  0  0  0  0  0  0  0  0  0  0
  1  2  1  0
  3  2  1  6
  3  4  1  0
  3  8  1  0
  4  5  1  0
  5  6  1  0
  6  7  1  0
  7  8  1  0
  8  9  1  0
  9 10  1  0
 10 11  2  0
 10 14  1  0
 11 12  1  0
 12 13  2  0
 13 14  1  0
 14 15  1  0
 15 16  2  0
 15 23  1  0
 16 17  1  0
 17 18  2  0
 17 22  1  0
 18 19  1  0
 19 20  1  0
 20 21  2  0
 20 22  1  0
 22 23  2  0
M  END
