
     RDKit          3D

 22 24  0  0  0  0  0  0  0  0999 V2000
    3.8890   -2.0600    1.3230 N   0  0  0  0  0  0  0  0  0  0  0  0
    3.0720   -1.1900    0.5610 C   0  0  0  0  0  0  0  0  0  0  0  0
    3.5720   -0.1010    0.0600 C   0  0  0  0  0  0  0  0  0  0  0  0
    2.8360    0.8390   -0.7220 N   0  0  0  0  0  0  0  0  0  0  0  0
    3.7530    1.8150   -1.3290 C   0  0  0  0  0  0  0  0  0  0  0  0
    5.1400    1.2830   -1.0580 C   0  0  0  0  0  0  0  0  0  0  0  0
    4.9330    0.4120    0.1430 C   0  0  0  0  0  0  0  0  0  0  0  0
    5.7660    0.1710    1.0420 O   0  0  0  0  0  0  0  0  0  0  0  0
    1.6760   -1.5410    0.3600 C   0  0  0  0  0  0  0  0  0  0  0  0
    0.5750   -0.7720    0.3410 N   0  0  0  0  0  0  0  0  0  0  0  0
   -0.5240   -1.5170    0.1290 C   0  0  0  0  0  0  0  0  0  0  0  0
   -1.9270   -1.1320    0.0350 C   0  0  0  0  0  0  0  0  0  0  0  0
   -2.7670   -2.0460   -0.1320 O   0  0  0  0  0  0  0  0  0  0  0  0
   -2.3780    0.1850    0.1220 N   0  0  0  0  0  0  0  0  0  0  0  0
   -3.7130    0.6690    0.0520 C   0  0  0  0  0  0  0  0  0  0  0  0
   -4.8160   -0.1190    0.1260 C   0  0  0  0  0  0  0  0  0  0  0  0
   -6.0820    0.4070    0.0340 C   0  0  0  0  0  0  0  0  0  0  0  0
   -6.2370    1.7580   -0.1370 C   0  0  0  0  0  0  0  0  0  0  0  0
   -5.1520    2.6020   -0.2170 C   0  0  0  0  0  0  0  0  0  0  0  0
   -3.9050    2.0490   -0.1220 C   0  0  0  0  0  0  0  0  0  0  0  0
   -0.0530   -2.8030    0.0130 C   0  0  0  0  0  0  0  0  0  0  0  0
    1.2790   -2.8370    0.1500 N   0  0  0  0  0  0  0  0  0  0  0  0
  1  2  1  0
  2  3  2  3
  2  9  1  0
  3  4  1  0
  3  7  1  0
  4  5  1  0
  5  6  1  0
  6  7  1  0
  7  8  2  0
  9 10  2  0
  9 22  1  0
 10 11  1  0
 11 12  1  0
 11 21  2  0
 12 13  2  0
 12 14  1  0
 14 15  1  0
 15 16  2  0
 15 20  1  0
 16 17  1  0
 17 18  2  0
 18 19  1  0
 19 20  2  0
 21 22  1  0
M  END
