
     RDKit          3D

 18 20  0  0  0  0  0  0  0  0999 V2000
    4.2020    0.1350    1.3660 C   0  0  0  0  0  0  0  0  0  0  0  0
    3.2150    1.0070    0.6260 C   0  0  0  0  0  0  0  0  0  0  0  0
    2.2100    0.1350   -0.1150 C   0  0  0  0  0  0  0  0  0  0  0  0
    1.2660    1.0900   -0.8270 C   0  0  0  0  0  0  0  0  0  0  0  0
    0.2100    0.4550   -1.5890 C   0  0  0  0  0  0  0  0  0  0  0  0
    0.3270    0.2690   -2.9470 N   0  0  0  0  0  0  0  0  0  0  0  0
   -0.7330   -0.3500   -3.3960 N   0  0  0  0  0  0  0  0  0  0  0  0
   -1.5990   -0.6110   -2.4070 C   0  0  0  0  0  0  0  0  0  0  0  0
   -2.7670   -1.1880   -2.3230 O   0  0  0  0  0  0  0  0  0  0  0  0
   -3.4270   -1.3190   -1.2050 C   0  0  0  0  0  0  0  0  0  0  0  0
   -4.5680   -1.8990   -1.2120 O   0  0  0  0  0  0  0  0  0  0  0  0
   -2.9210   -0.8440   -0.0140 C   0  0  0  0  0  0  0  0  0  0  0  0
   -3.6070   -0.9660    1.1710 C   0  0  0  0  0  0  0  0  0  0  0  0
   -3.0240   -0.4510    2.3200 C   0  0  0  0  0  0  0  0  0  0  0  0
   -1.8040    0.1670    2.3080 C   0  0  0  0  0  0  0  0  0  0  0  0
   -1.1100    0.2860    1.0880 C   0  0  0  0  0  0  0  0  0  0  0  0
   -1.6750   -0.2200   -0.0540 C   0  0  0  0  0  0  0  0  0  0  0  0
   -0.9840   -0.0900   -1.2520 C   0  0  0  0  0  0  0  0  0  0  0  0
  1  2  1  0
  2  3  1  0
  3  4  1  0
  4  5  1  0
  5  6  2  0
  5 18  1  0
  6  7  1  0
  7  8  1  0
  8  9  1  0
  8 18  2  0
  9 10  1  0
 10 11  2  0
 10 12  1  0
 12 13  2  0
 12 17  1  0
 13 14  1  0
 14 15  2  0
 15 16  1  0
 16 17  2  0
 17 18  1  0
M  END
