
     RDKit          3D

 15 16  0  0  0  0  0  0  0  0999 V2000
    4.2490    0.6680   -0.7970 C   0  0  0  0  0  0  0  0  0  0  0  0
    3.8210    0.3940    0.9120 S   0  0  0  0  0  0  0  0  0  0  0  0
    2.4140   -0.6580    1.2010 C   0  0  0  0  0  0  0  0  0  0  0  0
    1.0820   -0.0910    0.7630 C   0  0  1  0  0  0  0  0  0  0  0  0
    1.1200    0.1660   -0.6880 C   0  0  0  0  0  0  0  0  0  0  0  0
   -0.1890    0.5530   -1.3110 C   0  0  0  0  0  0  0  0  0  0  0  0
   -1.1230    1.0200   -0.4350 O   0  0  0  0  0  0  0  0  0  0  0  0
   -1.9290    0.0920    0.1700 C   0  0  1  0  0  0  0  0  0  0  0  0
   -1.0800   -1.1460    0.4010 C   0  0  0  0  0  0  0  0  0  0  0  0
    0.0410   -0.9320    1.2470 N   0  0  0  0  0  0  0  0  0  0  0  0
   -2.4130    0.5090    1.5260 C   0  0  0  0  0  0  0  0  0  0  0  0
   -3.7080    1.7820    1.2460 S   0  0  0  0  0  0  0  0  0  0  0  0
   -4.2830    1.0210   -0.6750 S   0  0  0  0  0  0  0  0  0  0  0  0
   -3.9130    2.0810   -1.6820 O   0  0  0  0  0  0  0  0  0  0  0  0
   -3.0850   -0.3500   -0.6740 C   0  0  0  0  0  0  0  0  0  0  0  0
  1  2  1  0
  2  3  1  0
  4  3  1  6
  4  5  1  0
  4 10  1  0
  5  6  1  0
  6  7  1  0
  7  8  1  0
  8  9  1  1
  8 11  1  0
  8 15  1  0
  9 10  1  0
 11 12  1  0
 12 13  1  0
 13 14  2  0
 13 15  1  6
M  CHG  1  10   1
M  END
