
     RDKit          3D

 26 27  0  0  0  0  0  0  0  0999 V2000
    1.6560    1.9640   -2.4580 C   0  0  0  0  0  0  0  0  0  0  0  0
    0.8250    2.1650   -1.4690 C   0  0  0  0  0  0  0  0  0  0  0  0
    0.6230    1.3710   -0.2650 C   0  0  0  0  0  0  0  0  0  0  0  0
   -0.3630    1.8150    0.5640 C   0  0  0  0  0  0  0  0  0  0  0  0
   -0.8690    1.3340    1.8000 C   0  0  0  0  0  0  0  0  0  0  0  0
   -1.8320    0.5110    2.0720 N   0  0  0  0  0  0  0  0  0  0  0  0
   -2.7340   -0.2070    1.2660 C   0  0  0  0  0  0  0  0  0  0  0  0
   -3.2510    0.3430    0.0030 C   0  0  1  0  0  0  0  0  0  0  0  0
   -4.5130   -0.5030   -0.3210 C   0  0  0  0  0  0  0  0  0  0  0  0
   -3.8400    1.7270    0.3420 C   0  0  0  0  0  0  0  0  0  0  0  0
   -2.3510    0.4700   -1.4520 S   0  0  0  0  0  0  0  0  0  0  0  0
   -1.1890   -0.7110   -2.0070 C   0  0  0  0  0  0  0  0  0  0  0  0
   -1.0440   -1.9220   -1.1490 C   0  0  0  0  0  0  0  0  0  0  0  0
   -1.8690   -3.0060   -1.2800 N   0  0  0  0  0  0  0  0  0  0  0  0
   -1.5400   -3.9170   -0.4130 N   0  0  0  0  0  0  0  0  0  0  0  0
   -0.5300   -3.4710    0.2830 C   0  0  0  0  0  0  0  0  0  0  0  0
   -0.1710   -2.1690   -0.1640 C   0  0  0  0  0  0  0  0  0  0  0  0
    1.0990   -1.2740    0.5340 S   0  0  1  0  0  0  0  0  0  0  0  0
    0.7750   -1.0730    2.0360 O   0  0  0  0  0  0  0  0  0  0  0  0
    2.3030   -2.2120    0.6320 O   0  0  0  0  0  0  0  0  0  0  0  0
    1.4810    0.2740   -0.0020 N   0  0  0  0  0  0  0  0  0  0  0  0
    2.9210    0.5370   -0.1040 C   0  0  2  0  0  0  0  0  0  0  0  0
    3.7950   -0.4270   -0.7700 C   0  0  0  0  0  0  0  0  0  0  0  0
    5.2090    0.2330   -0.7100 C   0  0  0  0  0  0  0  0  0  0  0  0
    3.3650    0.7020    1.3920 C   0  0  0  0  0  0  0  0  0  0  0  0
    2.4840    2.0690    2.0940 Cl  0  0  0  0  0  0  0  0  0  0  0  0
  1  2  2  0
  2  3  1  0
  3  4  2  0
  3 21  1  0
  4  5  1  0
  5  6  2  0
  6  7  1  0
  7  8  1  0
  8  9  1  6
  8 10  1  0
  8 11  1  0
 11 12  1  0
 12 13  1  0
 13 14  2  0
 13 17  1  0
 14 15  1  0
 15 16  1  0
 16 17  2  0
 17 18  1  0
 18 19  2  0
 18 20  2  0
 18 21  1  6
 21 22  1  0
 22 23  1  1
 22 25  1  0
 23 24  1  0
 25 26  1  0
M  CHG  1   6   1
M  END
