
     RDKit          3D

 26 28  0  0  0  0  0  0  0  0999 V2000
    4.3470    1.5200   -1.8250 C   0  0  0  0  0  0  0  0  0  0  0  0
    3.6810    1.2150   -0.4770 C   0  0  0  0  0  0  0  0  0  0  0  0
    2.4680    0.3800   -0.7960 C   0  0  0  0  0  0  0  0  0  0  0  0
    1.7580    0.0380    0.3740 N   0  0  0  0  0  0  0  0  0  0  0  0
    2.4050   -0.6650    1.4040 C   0  0  0  0  0  0  0  0  0  0  0  0
    2.0950   -2.1710    1.2720 C   0  0  0  0  0  0  0  0  0  0  0  0
    0.6340   -2.3770    1.0580 C   0  0  0  0  0  0  0  0  0  0  0  0
    0.0330   -2.4620    2.3510 C   0  0  0  0  0  0  0  0  0  0  0  0
   -1.3100   -2.5670    2.5720 C   0  0  0  0  0  0  0  0  0  0  0  0
   -2.0080   -2.5800    1.4630 N   0  0  0  0  0  0  0  0  0  0  0  0
   -1.5270   -2.5030    0.1550 C   0  0  0  0  0  0  0  0  0  0  0  0
   -0.1740   -2.4040   -0.0530 C   0  0  0  0  0  0  0  0  0  0  0  0
    0.5390   -2.3540   -1.7790 Cl  0  0  0  0  0  0  0  0  0  0  0  0
   -2.7570   -2.4640   -0.6740 C   0  0  0  0  0  0  0  0  0  0  0  0
   -3.1610   -1.1880   -1.2050 N   0  0  0  0  0  0  0  0  0  0  0  0
   -2.9350   -0.1740   -0.2030 C   0  0  0  0  0  0  0  0  0  0  0  0
   -1.6180    0.5530   -0.3290 C   0  0  1  0  0  0  0  0  0  0  0  0
   -1.9250    2.0110   -0.6700 C   0  0  0  0  0  0  0  0  0  0  0  0
   -1.7290    2.5670   -1.8460 C   0  0  0  0  0  0  0  0  0  0  0  0
   -2.0530    3.9170   -2.0300 C   0  0  0  0  0  0  0  0  0  0  0  0
   -2.6780    4.4050   -0.4040 S   0  0  0  0  0  0  0  0  0  0  0  0
   -2.4550    2.7780    0.3820 C   0  0  0  0  0  0  0  0  0  0  0  0
   -0.9430    0.5090    0.9420 N   0  0  0  0  0  0  0  0  0  0  0  0
    0.6370    1.1680    0.9430 S   0  0  1  0  0  0  0  0  0  0  0  0
    0.9240    1.6110    2.3610 O   0  0  0  0  0  0  0  0  0  0  0  0
    0.6320    2.3650    0.0190 O   0  0  0  0  0  0  0  0  0  0  0  0
  1  2  1  0
  2  3  1  0
  3  4  1  0
  4  5  1  0
  4 24  1  0
  5  6  1  0
  6  7  1  0
  7  8  1  0
  7 12  2  0
  8  9  2  0
  9 10  1  0
 10 11  2  0
 11 12  1  0
 11 14  1  0
 12 13  1  0
 14 15  1  0
 15 16  1  0
 16 17  1  0
 17 18  1  1
 17 23  1  0
 18 19  1  0
 18 22  2  0
 19 20  2  0
 20 21  1  0
 21 22  1  0
 24 23  1  1
 24 25  2  0
 24 26  2  0
M  CHG  1  15   1
M  END
