
     RDKit          3D

 25 27  0  0  0  0  0  0  0  0999 V2000
    0.3990    0.7540   -2.2330 C   0  0  0  0  0  0  0  0  0  0  0  0
    1.0170    0.4300   -0.9060 C   0  0  0  0  0  0  0  0  0  0  0  0
    2.1860    0.2430   -0.5050 N   0  0  0  0  0  0  0  0  0  0  0  0
    2.7850   -0.0660    0.4090 C   0  0  0  0  0  0  0  0  0  0  0  0
    4.2330   -0.1990    0.6400 C   0  0  0  0  0  0  0  0  0  0  0  0
    4.9600    0.9610    0.3060 C   0  0  0  0  0  0  0  0  0  0  0  0
    6.2660    0.9920    0.0820 C   0  0  0  0  0  0  0  0  0  0  0  0
    7.0020   -0.1780    0.1810 C   0  0  0  0  0  0  0  0  0  0  0  0
    8.3680   -0.1100   -0.1400 N   0  0  0  0  0  0  0  0  0  0  0  0
    6.3120   -1.3230    0.5020 C   0  0  0  0  0  0  0  0  0  0  0  0
    4.9360   -1.3570    0.7410 C   0  0  0  0  0  0  0  0  0  0  0  0
    4.1690   -2.8970    1.1610 Cl  0  0  0  0  0  0  0  0  0  0  0  0
    1.3340   -0.3470    1.5120 S   0  0  0  0  0  0  0  0  0  0  0  0
    0.0980    0.1200    0.2230 C   0  0  0  0  0  0  0  0  0  0  0  0
   -1.2670    0.3800    0.3820 C   0  0  0  0  0  0  0  0  0  0  0  0
   -2.0650   -0.7870    0.6920 N   0  0  1  0  0  0  0  0  0  0  0  0
   -2.6500   -0.9400    1.9650 C   0  0  0  0  0  0  0  0  0  0  0  0
   -3.6200    0.1060    2.3590 C   0  0  0  0  0  0  0  0  0  0  0  0
   -4.3780    0.9390    0.9870 S   0  0  2  0  0  0  0  0  0  0  0  0
   -3.8900    2.3820    0.9200 O   0  0  0  0  0  0  0  0  0  0  0  0
   -5.8550    1.0160    1.2610 O   0  0  0  0  0  0  0  0  0  0  0  0
   -4.0590    0.0810   -0.5240 C   0  0  2  0  0  0  0  0  0  0  0  0
   -3.8540    1.0700   -1.6470 C   0  0  0  0  0  0  0  0  0  0  0  0
   -5.3610   -0.6900   -0.8730 C   0  0  0  0  0  0  0  0  0  0  0  0
   -3.0120   -0.9430   -0.4340 C   0  0  0  0  0  0  0  0  0  0  0  0
  1  2  1  0
  2  3  1  0
  2 14  2  0
  3  4  2  0
  4  5  1  0
  4 13  1  0
  5  6  2  0
  5 11  1  0
  6  7  1  0
  7  8  2  0
  8  9  1  0
  8 10  1  0
 10 11  2  0
 11 12  1  0
 13 14  1  0
 14 15  1  0
 16 15  1  1
 16 17  1  0
 16 25  1  0
 17 18  1  0
 19 18  1  1
 19 20  2  0
 19 21  2  0
 19 22  1  0
 22 23  1  6
 22 24  1  0
 22 25  1  0
M  CHG  1  16   1
M  END
