
     RDKit          3D

 26 27  0  0  0  0  0  0  0  0999 V2000
    0.2430    4.8130    1.0140 C   0  0  0  0  0  0  0  0  0  0  0  0
   -0.8010    4.4000    0.0010 C   0  0  0  0  0  0  0  0  0  0  0  0
   -0.8420    2.8990   -0.0000 C   0  0  0  0  0  0  0  0  0  0  0  0
   -0.6070    2.1920   -1.0720 C   0  0  0  0  0  0  0  0  0  0  0  0
   -0.2860    2.8590   -2.3460 C   0  0  0  0  0  0  0  0  0  0  0  0
   -0.6660    0.7680   -1.0150 N   0  0  0  0  0  0  0  0  0  0  0  0
    0.4970    0.0200   -1.3880 C   0  0  0  0  0  0  0  0  0  0  0  0
    1.6300    0.1370   -0.3800 C   0  0  0  0  0  0  0  0  0  0  0  0
    2.7250   -0.6790   -0.8650 N   0  0  0  0  0  0  0  0  0  0  0  0
    3.9380   -0.8580   -0.0970 C   0  0  0  0  0  0  0  0  0  0  0  0
    4.2760   -0.1120    0.8850 N   0  0  0  0  0  0  0  0  0  0  0  0
    5.5550   -0.5610    1.4460 C   0  0  0  0  0  0  0  0  0  0  0  0
    5.5690   -2.0430    1.0390 C   0  0  0  0  0  0  0  0  0  0  0  0
    4.9430   -1.9250   -0.3410 C   0  0  0  0  0  0  0  0  0  0  0  0
   -1.8340    0.1290   -0.5760 C   0  0  0  0  0  0  0  0  0  0  0  0
   -3.1300    1.0500   -0.1400 S   0  0  0  0  0  0  0  0  0  0  0  0
   -1.9720   -1.2550   -0.4850 N   0  0  0  0  0  0  0  0  0  0  0  0
   -3.1860   -1.8960   -0.0190 C   0  0  0  0  0  0  0  0  0  0  0  0
   -3.5340   -1.7190    1.2140 C   0  0  0  0  0  0  0  0  0  0  0  0
   -4.7080   -2.2540    1.9180 C   0  0  2  0  0  0  0  0  0  0  0  0
   -4.0940   -3.1510    3.3370 Cl  0  0  0  0  0  0  0  0  0  0  0  0
   -5.6240   -3.3570    0.9130 S   0  0  1  0  0  0  0  0  0  0  0  0
   -5.6480   -4.7480    1.5340 O   0  0  0  0  0  0  0  0  0  0  0  0
   -7.0490   -2.8660    0.7770 O   0  0  0  0  0  0  0  0  0  0  0  0
   -4.9560   -3.4100   -0.6820 C   0  0  0  0  0  0  0  0  0  0  0  0
   -3.8830   -2.7310   -0.9760 C   0  0  0  0  0  0  0  0  0  0  0  0
  1  2  1  0
  2  3  1  0
  3  4  2  3
  4  5  1  0
  4  6  1  0
  6  7  1  0
  6 15  1  0
  7  8  1  0
  8  9  1  0
  9 10  1  0
 10 11  2  0
 10 14  1  0
 11 12  1  0
 12 13  1  0
 13 14  1  0
 15 16  2  0
 15 17  1  0
 17 18  1  0
 18 19  2  0
 18 26  1  0
 19 20  1  0
 20 21  1  1
 20 22  1  0
 22 23  2  0
 22 24  2  0
 22 25  1  6
 25 26  2  0
M  CHG  1  11   1
M  END
