
     RDKit          3D

 26 27  0  0  0  0  0  0  0  0999 V2000
    6.1420   -1.6260   -1.2040 C   0  0  0  0  0  0  0  0  0  0  0  0
    5.1000   -0.7790   -1.8310 C   0  0  0  0  0  0  0  0  0  0  0  0
    3.7740   -0.9110   -1.6060 C   0  0  0  0  0  0  0  0  0  0  0  0
    3.3810   -1.9510   -0.6880 C   0  0  0  0  0  0  0  0  0  0  0  0
    2.8440   -1.9170    0.5140 C   0  0  0  0  0  0  0  0  0  0  0  0
    2.4720   -3.4400    1.3860 Cl  0  0  0  0  0  0  0  0  0  0  0  0
    2.5290   -0.7370    1.3320 C   0  0  0  0  0  0  0  0  0  0  0  0
    0.7770   -0.6990    1.7080 S   0  0  0  0  0  0  0  0  0  0  0  0
   -0.2030   -1.9630    0.9250 C   0  0  0  0  0  0  0  0  0  0  0  0
   -1.6670   -1.6550    1.1670 C   0  0  1  0  0  0  0  0  0  0  0  0
   -2.2900   -2.7980    1.9190 C   0  0  0  0  0  0  0  0  0  0  0  0
   -1.8210   -0.4430    1.9150 N   0  0  0  0  0  0  0  0  0  0  0  0
   -3.1890   -0.1370    2.1950 C   0  0  0  0  0  0  0  0  0  0  0  0
   -3.6410    0.9470    1.2560 C   0  0  1  0  0  0  0  0  0  0  0  0
   -4.7460    1.6200    1.7640 O   0  0  0  0  0  0  0  0  0  0  0  0
   -2.4870    1.9220    1.0990 C   0  0  0  0  0  0  0  0  0  0  0  0
   -2.5640    2.6190   -0.1760 N   0  0  0  0  0  0  0  0  0  0  0  0
   -3.3090    3.7110   -0.4930 C   0  0  0  0  0  0  0  0  0  0  0  0
   -3.0580    4.0230   -1.8290 C   0  0  0  0  0  0  0  0  0  0  0  0
   -2.1760    3.1020   -2.2440 N   0  0  0  0  0  0  0  0  0  0  0  0
   -1.8640    2.2440   -1.2610 C   0  0  0  0  0  0  0  0  0  0  0  0
   -0.7990    0.8250   -1.1100 S   0  0  0  0  0  0  0  0  0  0  0  0
    0.9570    1.2640   -1.2900 C   0  0  0  0  0  0  0  0  0  0  0  0
    1.6300    0.3690   -2.2430 C   0  0  0  0  0  0  0  0  0  0  0  0
    0.7980   -0.1250   -3.1260 O   0  0  0  0  0  0  0  0  0  0  0  0
    2.9600   -0.0310   -2.3710 N   0  0  0  0  0  0  0  0  0  0  0  0
  1  2  1  0
  2  3  2  3
  3  4  1  0
  3 26  1  0
  4  5  2  0
  5  6  1  0
  5  7  1  0
  7  8  1  0
  8  9  1  0
  9 10  1  0
 10 11  1  1
 10 12  1  0
 12 13  1  0
 13 14  1  0
 14 15  1  1
 14 16  1  0
 16 17  1  0
 17 18  1  0
 17 21  1  0
 18 19  2  0
 19 20  1  0
 20 21  2  0
 21 22  1  0
 22 23  1  0
 23 24  1  0
 24 25  2  0
 24 26  1  0
M  CHG  1  20   1
M  END
