
     RDKit          3D

 43 47  0  0  0  0  0  0  0  0999 V2000
    4.3050   -4.3060    1.4110 C   0  0  0  0  0  0  0  0  0  0  0  0
    3.0340   -3.5820    1.1170 C   0  0  0  0  0  0  0  0  0  0  0  0
    1.8510   -4.2410    1.1900 C   0  0  0  0  0  0  0  0  0  0  0  0
    0.6700   -3.5980    0.9240 C   0  0  0  0  0  0  0  0  0  0  0  0
    0.6060   -2.2480    0.5680 C   0  0  0  0  0  0  0  0  0  0  0  0
   -0.6370   -1.6340    0.3170 N   0  0  0  0  0  0  0  0  0  0  0  0
   -0.8940   -0.3580   -0.2080 C   0  0  0  0  0  0  0  0  0  0  0  0
    0.0800    0.3660   -0.5160 O   0  0  0  0  0  0  0  0  0  0  0  0
   -2.2780    0.1450   -0.4050 C   0  0  0  0  0  0  0  0  0  0  0  0
   -3.3790   -0.4420    0.1580 C   0  0  0  0  0  0  0  0  0  0  0  0
   -4.6810    0.0590   -0.0550 C   0  0  0  0  0  0  0  0  0  0  0  0
   -4.8780    1.1550   -0.8370 C   0  0  0  0  0  0  0  0  0  0  0  0
   -6.1710    1.7250   -1.1050 C   0  0  0  0  0  0  0  0  0  0  0  0
   -7.3620    1.1900   -0.5770 N   0  0  1  0  0  0  0  0  0  0  0  0
   -7.7800   -0.1040   -1.0050 C   0  0  0  0  0  0  0  0  0  0  0  0
   -9.3150   -0.0830   -1.0730 C   0  0  0  0  0  0  0  0  0  0  0  0
   -9.8590    0.6830    0.0210 N   0  0  1  0  0  0  0  0  0  0  0  0
  -11.0850    0.0430    0.4540 C   0  0  0  0  0  0  0  0  0  0  0  0
   -8.9380    0.6350    1.1260 C   0  0  0  0  0  0  0  0  0  0  0  0
   -7.6250    1.3690    0.8140 C   0  0  0  0  0  0  0  0  0  0  0  0
   -3.7600    1.7760   -1.4270 C   0  0  0  0  0  0  0  0  0  0  0  0
   -3.9170    2.9860   -2.2960 C   0  0  2  0  0  0  0  0  0  0  0  0
   -4.4740    4.0510   -1.6530 F   0  0  0  0  0  0  0  0  0  0  0  0
   -4.6200    2.6650   -3.4660 F   0  0  0  0  0  0  0  0  0  0  0  0
   -2.6680    3.3730   -2.7220 F   0  0  0  0  0  0  0  0  0  0  0  0
   -2.5120    1.2510   -1.1910 C   0  0  0  0  0  0  0  0  0  0  0  0
    1.8140   -1.6030    0.5010 C   0  0  0  0  0  0  0  0  0  0  0  0
    3.0380   -2.2270    0.7650 C   0  0  0  0  0  0  0  0  0  0  0  0
    4.2660   -1.6310    0.7120 O   0  0  0  0  0  0  0  0  0  0  0  0
    4.5020   -0.3040    0.3880 C   0  0  1  0  0  0  0  0  0  0  0  0
    5.0880    0.3650    1.6520 C   0  0  0  0  0  0  0  0  0  0  0  0
    6.4230   -0.2360    1.9330 C   0  0  0  0  0  0  0  0  0  0  0  0
    7.3270    0.1260    0.8090 N   0  0  0  0  0  0  0  0  0  0  0  0
    8.5340    0.7470    1.1930 C   0  0  0  0  0  0  0  0  0  0  0  0
    8.6390    0.9940    2.4680 O   0  0  0  0  0  0  0  0  0  0  0  0
    9.6560    1.1470    0.4050 C   0  0  0  0  0  0  0  0  0  0  0  0
   10.6230    2.0270    0.9580 C   0  0  0  0  0  0  0  0  0  0  0  0
   11.7410    2.3870    0.2680 C   0  0  0  0  0  0  0  0  0  0  0  0
   11.9660    1.9040   -0.9980 C   0  0  0  0  0  0  0  0  0  0  0  0
   11.0570    1.0810   -1.5090 N   0  0  0  0  0  0  0  0  0  0  0  0
    9.9260    0.6930   -0.8550 C   0  0  0  0  0  0  0  0  0  0  0  0
    6.8930   -0.1330   -0.5100 C   0  0  0  0  0  0  0  0  0  0  0  0
    5.4380   -0.1160   -0.7540 C   0  0  0  0  0  0  0  0  0  0  0  0
  1  2  1  0
  2  3  2  0
  2 28  1  0
  3  4  1  0
  4  5  2  0
  5  6  1  0
  5 27  1  0
  6  7  1  0
  7  8  2  0
  7  9  1  0
  9 10  2  0
  9 26  1  0
 10 11  1  0
 11 12  2  0
 12 13  1  0
 12 21  1  0
 14 13  1  1
 14 15  1  0
 14 20  1  0
 15 16  1  0
 16 17  1  0
 17 18  1  1
 17 19  1  0
 19 20  1  0
 21 22  1  0
 21 26  2  0
 22 23  1  1
 22 24  1  0
 22 25  1  0
 27 28  2  0
 28 29  1  0
 30 29  1  1
 30 31  1  0
 30 43  1  0
 31 32  1  0
 32 33  1  0
 33 34  1  0
 33 42  1  0
 34 35  2  0
 34 36  1  0
 36 37  2  0
 36 41  1  0
 37 38  1  0
 38 39  2  0
 39 40  1  0
 40 41  2  0
 42 43  1  0
M  CHG  2  14   1  17   1
M  END
