
     RDKit          3D

 43 47  0  0  0  0  0  0  0  0999 V2000
   -1.1640   -3.7540   -3.3110 C   0  0  0  0  0  0  0  0  0  0  0  0
   -1.2000   -3.0060   -2.1100 O   0  0  0  0  0  0  0  0  0  0  0  0
   -2.1120   -3.4010   -1.1390 C   0  0  0  0  0  0  0  0  0  0  0  0
   -2.9620   -4.4730   -1.3060 C   0  0  0  0  0  0  0  0  0  0  0  0
   -3.8710   -4.8840   -0.3630 C   0  0  0  0  0  0  0  0  0  0  0  0
   -4.6880   -5.9380   -0.5590 F   0  0  0  0  0  0  0  0  0  0  0  0
   -3.9600   -4.2020    0.8280 C   0  0  0  0  0  0  0  0  0  0  0  0
   -4.8820   -4.5780    1.8470 N   0  0  0  0  0  0  0  0  0  0  0  0
   -3.1230   -3.1280    1.0210 C   0  0  0  0  0  0  0  0  0  0  0  0
   -2.2140   -2.7240    0.0670 C   0  0  0  0  0  0  0  0  0  0  0  0
   -1.4030   -1.6170    0.3630 N   0  0  0  0  0  0  0  0  0  0  0  0
   -2.0320   -0.3510    0.6910 C   0  0  0  0  0  0  0  0  0  0  0  0
   -2.2540    0.4690   -0.5390 C   0  0  0  0  0  0  0  0  0  0  0  0
   -1.8950   -0.0110   -1.6290 O   0  0  0  0  0  0  0  0  0  0  0  0
   -2.8520    1.7530   -0.4770 N   0  0  0  0  0  0  0  0  0  0  0  0
   -3.2820    2.3310    0.7810 C   0  0  0  0  0  0  0  0  0  0  0  0
   -4.7750    2.5670    0.7400 C   0  0  0  0  0  0  0  0  0  0  0  0
   -5.1570    3.2220   -0.5590 C   0  0  1  0  0  0  0  0  0  0  0  0
   -6.0220    4.3470   -0.2680 N   0  0  0  0  0  0  0  0  0  0  0  0
   -3.9470    3.7110   -1.3290 C   0  0  0  0  0  0  0  0  0  0  0  0
   -3.0510    2.5370   -1.6790 C   0  0  0  0  0  0  0  0  0  0  0  0
    0.0220   -1.6660    0.3600 C   0  0  0  0  0  0  0  0  0  0  0  0
    0.5450   -2.7790    0.0600 O   0  0  0  0  0  0  0  0  0  0  0  0
    0.8630   -0.4910    0.6870 C   0  0  0  0  0  0  0  0  0  0  0  0
    2.2530   -0.8830    0.5920 N   0  0  2  0  0  0  0  0  0  0  0  0
    2.4850   -1.9700    1.4790 C   0  0  0  0  0  0  0  0  0  0  0  0
    3.6860   -1.8130    2.3950 C   0  0  1  0  0  0  0  0  0  0  0  0
    3.9410   -3.1680    3.0240 C   0  0  0  0  0  0  0  0  0  0  0  0
    4.7990   -1.3820    1.5260 C   0  0  0  0  0  0  0  0  0  0  0  0
    6.0480   -1.9520    1.5130 C   0  0  0  0  0  0  0  0  0  0  0  0
    7.0340   -1.4620    0.6410 C   0  0  0  0  0  0  0  0  0  0  0  0
    6.7590   -0.4030   -0.2120 C   0  0  0  0  0  0  0  0  0  0  0  0
    5.4840    0.1750   -0.1950 C   0  0  0  0  0  0  0  0  0  0  0  0
    4.5400   -0.3310    0.6740 C   0  0  0  0  0  0  0  0  0  0  0  0
    3.1620    0.2170    0.7620 C   0  0  1  0  0  0  0  0  0  0  0  0
    3.0130    1.2890   -0.2040 C   0  0  0  0  0  0  0  0  0  0  0  0
    3.0240    2.6000    0.2550 C   0  0  0  0  0  0  0  0  0  0  0  0
    2.8890    3.6670   -0.6070 C   0  0  0  0  0  0  0  0  0  0  0  0
    2.7400    3.4730   -1.9540 C   0  0  0  0  0  0  0  0  0  0  0  0
    2.6050    4.6390   -2.8900 C   0  0  0  0  0  0  0  0  0  0  0  0
    1.3660    5.2590   -2.7220 O   0  0  0  0  0  0  0  0  0  0  0  0
    2.7290    2.1690   -2.4150 C   0  0  0  0  0  0  0  0  0  0  0  0
    2.8630    1.0880   -1.5610 C   0  0  0  0  0  0  0  0  0  0  0  0
  1  2  1  0
  2  3  1  0
  3  4  2  0
  3 10  1  0
  4  5  1  0
  5  6  1  0
  5  7  2  0
  7  8  1  0
  7  9  1  0
  9 10  2  0
 10 11  1  0
 11 12  1  0
 11 22  1  0
 12 13  1  0
 13 14  2  0
 13 15  1  0
 15 16  1  0
 15 21  1  0
 16 17  1  0
 17 18  1  0
 18 19  1  1
 18 20  1  0
 20 21  1  0
 22 23  2  0
 22 24  1  0
 25 24  1  1
 25 26  1  0
 25 35  1  0
 26 27  1  0
 27 28  1  6
 27 29  1  0
 29 30  2  0
 29 34  1  0
 30 31  1  0
 31 32  2  0
 32 33  1  0
 33 34  2  0
 34 35  1  0
 35 36  1  6
 36 37  2  0
 36 43  1  0
 37 38  1  0
 38 39  2  0
 39 40  1  0
 39 42  1  0
 40 41  1  0
 42 43  2  0
M  CHG  2  19   1  25   1
M  END
