
     RDKit          3D

 43 45  0  0  0  0  0  0  0  0999 V2000
   -6.7430    1.8590   -3.6240 C   0  0  0  0  0  0  0  0  0  0  0  0
   -6.3530    1.3240   -2.4230 O   0  0  0  0  0  0  0  0  0  0  0  0
   -7.1740    0.2890   -2.0040 C   0  0  0  0  0  0  0  0  0  0  0  0
   -6.7340   -0.2920   -0.6780 C   0  0  1  0  0  0  0  0  0  0  0  0
   -7.6240   -1.5410   -0.4940 C   0  0  0  0  0  0  0  0  0  0  0  0
   -7.4740   -2.3700   -1.6210 O   0  0  0  0  0  0  0  0  0  0  0  0
   -5.4030   -0.7750   -0.7980 N   0  0  0  0  0  0  0  0  0  0  0  0
   -4.6680   -1.5040    0.1590 C   0  0  0  0  0  0  0  0  0  0  0  0
   -5.1720   -1.8170    1.2620 O   0  0  0  0  0  0  0  0  0  0  0  0
   -3.2650   -1.9140   -0.1440 C   0  0  0  0  0  0  0  0  0  0  0  0
   -2.7390   -1.6150   -1.2370 O   0  0  0  0  0  0  0  0  0  0  0  0
   -2.5100   -2.6460    0.8000 N   0  0  0  0  0  0  0  0  0  0  0  0
   -1.1630   -3.1060    0.6730 C   0  0  0  0  0  0  0  0  0  0  0  0
   -0.1010   -2.0820    0.5200 C   0  0  1  0  0  0  0  0  0  0  0  0
   -0.3160   -1.3420   -0.6260 O   0  0  0  0  0  0  0  0  0  0  0  0
    0.8690   -0.8050   -1.0500 C   0  0  0  0  0  0  0  0  0  0  0  0
    1.5090    0.0290    0.0060 C   0  0  2  0  0  0  0  0  0  0  0  0
    2.9230   -0.3370    0.1810 N   0  0  0  0  0  0  0  0  0  0  0  0
    3.9660    0.5710   -0.1310 C   0  0  0  0  0  0  0  0  0  0  0  0
    3.6470    1.7220   -0.5700 O   0  0  0  0  0  0  0  0  0  0  0  0
    5.3010    0.2900    0.0090 O   0  0  0  0  0  0  0  0  0  0  0  0
    6.3010    1.2250   -0.3140 C   0  0  2  0  0  0  0  0  0  0  0  0
    6.1840    2.4910    0.5010 C   0  0  0  0  0  0  0  0  0  0  0  0
    6.2900    1.6040   -1.7820 C   0  0  0  0  0  0  0  0  0  0  0  0
    7.6550    0.6480   -0.0520 C   0  0  0  0  0  0  0  0  0  0  0  0
    7.7240   -0.5240    0.3930 O   0  0  0  0  0  0  0  0  0  0  0  0
    8.8170    1.3350   -0.2740 O   0  0  0  0  0  0  0  0  0  0  0  0
   10.1080    0.8440   -0.0470 C   0  0  2  0  0  0  0  0  0  0  0  0
   10.8290    1.8460    0.8640 C   0  0  0  0  0  0  0  0  0  0  0  0
   11.1330    2.8490   -0.0840 O   0  0  0  0  0  0  0  0  0  0  0  0
   11.6040    2.1850   -1.1380 O   0  0  0  0  0  0  0  0  0  0  0  0
   10.9600    0.9640   -1.2800 C   0  0  0  0  0  0  0  0  0  0  0  0
   11.0550    0.1400   -2.2140 O   0  0  0  0  0  0  0  0  0  0  0  0
    0.7930    0.1010    1.3090 C   0  0  0  0  0  0  0  0  0  0  0  0
   -0.0300   -1.1020    1.6620 C   0  0  2  0  0  0  0  0  0  0  0  0
    0.3910   -1.7030    2.9540 C   0  0  0  0  0  0  0  0  0  0  0  0
    1.7380   -2.3430    2.9610 C   0  0  0  0  0  0  0  0  0  0  0  0
    1.9360   -2.8460    4.2700 O   0  0  0  0  0  0  0  0  0  0  0  0
   -6.9740    0.5610    0.4890 C   0  0  2  0  0  0  0  0  0  0  0  0
   -6.7700   -0.0870    1.7430 O   0  0  0  0  0  0  0  0  0  0  0  0
   -8.3120    1.3540    0.4460 C   0  0  0  0  0  0  0  0  0  0  0  0
   -6.9550    2.0210    0.5720 C   0  0  2  0  0  0  0  0  0  0  0  0
   -6.6100    2.9430   -0.4450 N   0  0  0  0  0  0  0  0  0  0  0  0
  1  2  1  0
  2  3  1  0
  4  3  1  6
  4  5  1  0
  4  7  1  0
  4 39  1  0
  5  6  1  0
  7  8  1  0
  8  9  2  0
  8 10  1  0
 10 11  2  0
 10 12  1  0
 12 13  1  0
 14 13  1  1
 14 15  1  0
 14 35  1  0
 15 16  1  0
 16 17  1  0
 17 18  1  1
 17 34  1  0
 18 19  1  0
 19 20  2  0
 19 21  1  0
 21 22  1  0
 22 23  1  1
 22 24  1  0
 22 25  1  0
 25 26  2  0
 25 27  1  0
 28 27  1  6
 28 29  1  0
 28 32  1  0
 29 30  1  0
 30 31  1  0
 31 32  1  0
 32 33  2  0
 34 35  1  0
 35 36  1  1
 36 37  1  0
 37 38  1  0
 39 40  1  1
 39 41  1  0
 39 42  1  0
 41 42  1  0
 42 43  1  6
M  END
