
     RDKit          3D

 43 45  0  0  0  0  0  0  0  0999 V2000
    4.8900    1.3660   -0.9390 C   0  0  0  0  0  0  0  0  0  0  0  0
    3.5260    1.4520   -0.5520 O   0  0  0  0  0  0  0  0  0  0  0  0
    3.1100    1.1730    0.7400 C   0  0  0  0  0  0  0  0  0  0  0  0
    3.9620    0.8380    1.5820 O   0  0  0  0  0  0  0  0  0  0  0  0
    1.6380    1.2940    1.0530 C   0  0  1  0  0  0  0  0  0  0  0  0
    1.6000    2.4360    2.0780 C   0  0  0  0  0  0  0  0  0  0  0  0
    0.9070    1.6730   -0.0430 O   0  0  0  0  0  0  0  0  0  0  0  0
    0.9320    2.7110   -0.8990 C   0  0  0  0  0  0  0  0  0  0  0  0
    1.0430    2.4200   -2.1520 O   0  0  0  0  0  0  0  0  0  0  0  0
    0.8450    4.1560   -0.5680 C   0  0  0  0  0  0  0  0  0  0  0  0
   -0.5040    4.6230   -0.1390 C   0  0  0  0  0  0  0  0  0  0  0  0
   -1.4330    4.9530   -1.2540 C   0  0  0  0  0  0  0  0  0  0  0  0
   -0.8280    5.4080   -2.2920 O   0  0  0  0  0  0  0  0  0  0  0  0
   -2.8390    4.8090   -1.2430 N   0  0  0  0  0  0  0  0  0  0  0  0
   -3.6120    3.6610   -1.1550 N   0  0  0  0  0  0  0  0  0  0  0  0
   -3.2640    2.3170   -1.3840 C   0  0  0  0  0  0  0  0  0  0  0  0
   -3.8610    1.7120   -2.3870 O   0  0  0  0  0  0  0  0  0  0  0  0
   -2.3550    1.4810   -0.6990 N   0  0  0  0  0  0  0  0  0  0  0  0
   -2.4220    0.9180    0.6030 C   0  0  1  0  0  0  0  0  0  0  0  0
   -3.1740    1.7470    1.4310 O   0  0  0  0  0  0  0  0  0  0  0  0
   -2.5580    2.1300    2.5920 C   0  0  0  0  0  0  0  0  0  0  0  0
   -2.9590   -0.4810    0.6190 C   0  0  0  0  0  0  0  0  0  0  0  0
   -4.3600   -0.4230    0.9390 O   0  0  0  0  0  0  0  0  0  0  0  0
   -2.4010   -1.6150    0.4080 C   0  0  0  0  0  0  0  0  0  0  0  0
   -3.1390   -2.9790    0.4700 C   0  0  1  0  0  0  0  0  0  0  0  0
   -4.3970   -2.9110    0.9240 O   0  0  0  0  0  0  0  0  0  0  0  0
   -2.9740   -3.3490   -0.9850 C   0  0  0  0  0  0  0  0  0  0  0  0
   -1.5470   -2.8320   -1.2940 C   0  0  0  0  0  0  0  0  0  0  0  0
   -1.1180   -2.1610    0.0440 C   0  0  1  0  0  0  0  0  0  0  0  0
    0.1180   -1.4530   -0.1410 C   0  0  2  0  0  0  0  0  0  0  0  0
    1.0300   -2.3280   -1.0380 C   0  0  1  0  0  0  0  0  0  0  0  0
    0.9930   -1.9420   -2.4470 C   0  0  0  0  0  0  0  0  0  0  0  0
    0.7180   -2.7020   -3.4210 O   0  0  0  0  0  0  0  0  0  0  0  0
    1.2820   -0.6170   -2.8220 O   0  0  0  0  0  0  0  0  0  0  0  0
    2.4800   -2.2680   -0.5970 C   0  0  2  0  0  0  0  0  0  0  0  0
    3.1550   -3.0560   -1.5670 O   0  0  0  0  0  0  0  0  0  0  0  0
    2.5940   -2.9460    0.7280 C   0  0  2  0  0  0  0  0  0  0  0  0
    2.4610   -4.4340    0.6540 C   0  0  0  0  0  0  0  0  0  0  0  0
    3.4280   -5.0390   -0.1500 O   0  0  0  0  0  0  0  0  0  0  0  0
    1.5050   -2.4290    1.6410 C   0  0  0  0  0  0  0  0  0  0  0  0
    0.9110   -1.2040    1.0700 N   0  0  0  0  0  0  0  0  0  0  0  0
    1.1570    0.0280    1.6840 C   0  0  0  0  0  0  0  0  0  0  0  0
    0.9390    0.0640    2.9510 O   0  0  0  0  0  0  0  0  0  0  0  0
  1  2  1  0
  2  3  1  0
  3  4  2  0
  3  5  1  0
  5  6  1  1
  5  7  1  0
  5 42  1  0
  7  8  1  0
  8  9  2  0
  8 10  1  0
 10 11  1  0
 11 12  1  0
 12 13  2  0
 12 14  1  0
 14 15  1  0
 15 16  1  0
 16 17  2  0
 16 18  1  0
 18 19  1  0
 19 20  1  1
 19 22  1  0
 20 21  1  0
 22 23  1  0
 22 24  2  0
 24 25  1  0
 24 29  1  0
 25 26  1  6
 25 27  1  0
 27 28  1  0
 29 28  1  6
 29 30  1  0
 30 31  1  0
 30 41  1  1
 31 32  1  6
 31 35  1  0
 32 33  2  0
 32 34  1  0
 35 36  1  6
 35 37  1  0
 37 38  1  6
 37 40  1  0
 38 39  1  0
 40 41  1  0
 41 42  1  0
 42 43  2  0
M  END
