
     RDKit          3D

 42 45  0  0  0  0  0  0  0  0999 V2000
    8.1710    2.4030   -1.7450 N   0  0  0  0  0  0  0  0  0  0  0  0
    6.9990    2.3260   -1.1150 O   0  0  0  0  0  0  0  0  0  0  0  0
    6.4100    1.0880   -1.1810 C   0  0  1  0  0  0  0  0  0  0  0  0
    7.1880    0.0910   -0.6230 O   0  0  0  0  0  0  0  0  0  0  0  0
    5.0750    1.1120   -0.4270 C   0  0  0  0  0  0  0  0  0  0  0  0
    4.3030    0.0650   -1.1670 C   0  0  1  0  0  0  0  0  0  0  0  0
    2.8710    0.2650   -1.0880 N   0  0  0  0  0  0  0  0  0  0  0  0
    1.9810   -0.6470   -0.4730 C   0  0  0  0  0  0  0  0  0  0  0  0
    2.4470   -1.7090    0.0430 O   0  0  0  0  0  0  0  0  0  0  0  0
    0.4860   -0.3900   -0.4180 C   0  0  2  0  0  0  0  0  0  0  0  0
    0.1330    0.9780   -0.0060 C   0  0  0  0  0  0  0  0  0  0  0  0
   -0.3660    1.1630    1.4350 C   0  0  1  0  0  0  0  0  0  0  0  0
    0.2890    2.3780    1.9670 C   0  0  1  0  0  0  0  0  0  0  0  0
   -0.0560    2.8410    3.3460 C   0  0  0  0  0  0  0  0  0  0  0  0
    0.1750    1.7460    4.3620 C   0  0  0  0  0  0  0  0  0  0  0  0
    1.1840    0.8720    3.9440 O   0  0  0  0  0  0  0  0  0  0  0  0
    2.2080    1.6670    3.4010 C   0  0  0  0  0  0  0  0  0  0  0  0
    1.8250    2.2010    2.0350 C   0  0  0  0  0  0  0  0  0  0  0  0
   -1.8730    1.2350    1.4400 C   0  0  2  0  0  0  0  0  0  0  0  0
   -2.3050    2.3450    2.1370 O   0  0  0  0  0  0  0  0  0  0  0  0
   -2.5370    0.0530    2.0180 C   0  0  0  0  0  0  0  0  0  0  0  0
   -2.0630   -0.5090    3.0400 O   0  0  0  0  0  0  0  0  0  0  0  0
   -3.6900   -0.4770    1.4690 O   0  0  0  0  0  0  0  0  0  0  0  0
   -3.9190   -0.7720    0.1180 C   0  0  2  0  0  0  0  0  0  0  0  0
   -5.2870   -0.2630   -0.2610 C   0  0  1  0  0  0  0  0  0  0  0  0
   -6.2380   -0.8810    0.5220 O   0  0  0  0  0  0  0  0  0  0  0  0
   -5.4250    1.2220   -0.1880 C   0  0  0  0  0  0  0  0  0  0  0  0
   -5.2830    1.7370    1.0750 O   0  0  0  0  0  0  0  0  0  0  0  0
   -3.8240   -2.2420   -0.1130 C   0  0  0  0  0  0  0  0  0  0  0  0
   -4.4750   -2.9480    0.7240 O   0  0  0  0  0  0  0  0  0  0  0  0
   -3.1160   -2.8930   -1.1210 N   0  0  0  0  0  0  0  0  0  0  0  0
   -1.7220   -2.7240   -1.4840 C   0  0  1  0  0  0  0  0  0  0  0  0
   -1.2770   -3.9870   -2.2700 C   0  0  0  0  0  0  0  0  0  0  0  0
   -2.1500   -3.8920   -3.4830 C   0  0  0  0  0  0  0  0  0  0  0  0
   -2.6230   -2.4410   -3.5940 C   0  0  0  0  0  0  0  0  0  0  0  0
   -1.6320   -1.7670   -2.6140 C   0  0  0  0  0  0  0  0  0  0  0  0
   -0.8160   -2.5950   -0.3690 C   0  0  0  0  0  0  0  0  0  0  0  0
   -0.5290   -3.7210    0.2070 O   0  0  0  0  0  0  0  0  0  0  0  0
   -0.1850   -1.4840    0.2120 N   0  0  0  0  0  0  0  0  0  0  0  0
    4.8310    0.0940   -2.5190 C   0  0  0  0  0  0  0  0  0  0  0  0
    4.3310   -0.4090   -3.5550 O   0  0  0  0  0  0  0  0  0  0  0  0
    6.0300    0.7900   -2.5140 O   0  0  0  0  0  0  0  0  0  0  0  0
  1  2  1  0
  2  3  1  0
  3  4  1  1
  3  5  1  0
  3 42  1  0
  5  6  1  0
  6  7  1  6
  6 40  1  0
  7  8  1  0
  8  9  2  0
 10  8  1  1
 10 11  1  0
 10 39  1  0
 12 11  1  6
 12 13  1  0
 12 19  1  0
 13 14  1  1
 13 18  1  0
 14 15  1  0
 15 16  1  0
 16 17  1  0
 17 18  1  0
 19 20  1  1
 19 21  1  0
 21 22  2  0
 21 23  1  0
 24 23  1  1
 24 25  1  0
 24 29  1  0
 25 26  1  1
 25 27  1  0
 27 28  1  0
 29 30  2  0
 29 31  1  0
 31 32  1  0
 32 33  1  6
 32 36  1  0
 32 37  1  0
 33 34  1  0
 34 35  1  0
 35 36  1  0
 37 38  2  0
 37 39  1  0
 40 41  2  0
 40 42  1  0
M  END
