
     RDKit          3D

 15 14  0  0  0  0  0  0  0  0999 V2000
    3.9120   -0.4060   -1.7570 C   0  0  0  0  0  0  0  0  0  0  0  0
    2.4930   -0.4040   -1.2200 C   0  0  0  0  0  0  0  0  0  0  0  0
    2.5100    0.3560    0.0100 N   0  0  2  0  0  0  0  0  0  0  0  0
    2.6020    1.6690   -0.3420 O   0  0  0  0  0  0  0  0  0  0  0  0
    3.9110   -0.0840    0.9580 S   0  0  0  0  0  0  0  0  0  0  0  0
    3.8350    0.5330    2.6480 C   0  0  0  0  0  0  0  0  0  0  0  0
    1.0250    0.1020    0.8110 S   0  0  1  0  0  0  0  0  0  0  0  0
    1.0750   -1.2640    1.3530 O   0  0  0  0  0  0  0  0  0  0  0  0
    0.7220    1.0320    1.9160 O   0  0  0  0  0  0  0  0  0  0  0  0
   -0.2480    0.6190   -0.6810 S   0  0  0  0  0  0  0  0  0  0  0  0
   -1.6180   -0.8050   -1.1200 S   0  0  0  0  0  0  0  0  0  0  0  0
   -3.2000   -0.2680   -0.4010 C   0  0  2  0  0  0  0  0  0  0  0  0
   -4.2040   -1.3810   -0.3240 C   0  0  0  0  0  0  0  0  0  0  0  0
   -3.7600    0.7950   -1.3310 C   0  0  0  0  0  0  0  0  0  0  0  0
   -3.0260    0.3710    0.9480 C   0  0  0  0  0  0  0  0  0  0  0  0
  1  2  1  0
  2  3  1  0
  3  4  1  6
  3  5  1  0
  3  7  1  0
  5  6  1  0
  7  8  2  0
  7  9  2  0
  7 10  1  6
 10 11  1  0
 11 12  1  0
 12 13  1  1
 12 14  1  0
 12 15  1  0
M  CHG  2   3   1   4  -1
M  END
