
     RDKit          3D

 15 15  0  0  0  0  0  0  0  0999 V2000
    4.2590    2.1770   -0.4430 O   0  0  0  0  0  0  0  0  0  0  0  0
    4.2770    0.6910   -0.2850 S   0  0  2  0  0  0  0  0  0  0  0  0
    5.6460    0.1060   -0.4610 O   0  0  0  0  0  0  0  0  0  0  0  0
    3.1490   -0.0980   -1.3700 C   0  0  0  0  0  0  0  0  0  0  0  0
    2.2810   -0.6970   -0.5640 C   0  0  0  0  0  0  0  0  0  0  0  0
    0.9330   -1.6360   -1.3340 S   0  0  0  0  0  0  0  0  0  0  0  0
   -0.2300   -2.4370    0.2410 S   0  0  0  0  0  0  0  0  0  0  0  0
   -1.5020   -1.2560    0.6430 C   0  0  0  0  0  0  0  0  0  0  0  0
   -2.4690   -1.5190    1.6940 S   0  0  0  0  0  0  0  0  0  0  0  0
   -1.5650    0.0210   -0.1190 C   0  0  0  0  0  0  0  0  0  0  0  0
   -2.7050    0.8950    0.3600 C   0  0  0  0  0  0  0  0  0  0  0  0
   -3.9110    0.1840    0.1750 O   0  0  0  0  0  0  0  0  0  0  0  0
   -5.2290    1.1460    0.7090 S   0  0  0  0  0  0  0  0  0  0  0  0
    2.5210   -0.5240    0.8240 C   0  0  0  0  0  0  0  0  0  0  0  0
    3.5270    0.1760    1.1750 N   0  0  0  0  0  0  0  0  0  0  0  0
  1  2  2  0
  2  3  2  0
  2  4  1  6
  2 15  1  0
  4  5  2  0
  5  6  1  0
  5 14  1  0
  6  7  1  0
  7  8  1  0
  8  9  2  0
  8 10  1  0
 10 11  1  0
 11 12  1  0
 12 13  1  0
 14 15  2  0
M  END
