
     RDKit          3D

 10  9  0  0  0  0  0  0  0  0999 V2000
    2.8470   -0.8270   -0.0850 O   0  0  0  0  0  0  0  0  0  0  0  0
    2.2230    0.1970    0.2690 C   0  0  0  0  0  0  0  0  0  0  0  0
    2.8680    1.1820    0.9860 O   0  0  0  0  0  0  0  0  0  0  0  0
    0.7830    0.2980   -0.1130 C   0  0  0  0  0  0  0  0  0  0  0  0
    0.0000   -0.8850    0.3620 C   0  0  0  0  0  0  0  0  0  0  0  0
   -1.4200   -0.8650    0.0200 C   0  0  0  0  0  0  0  0  0  0  0  0
   -2.1160   -1.8580    0.3740 O   0  0  0  0  0  0  0  0  0  0  0  0
   -2.0380    0.2210   -0.6880 C   0  0  0  0  0  0  0  0  0  0  0  0
   -1.4250    1.2420   -1.0540 O   0  0  0  0  0  0  0  0  0  0  0  0
   -3.4010    0.1580   -0.9990 O   0  0  0  0  0  0  0  0  0  0  0  0
  1  2  2  0
  2  3  1  0
  2  4  1  0
  4  5  1  0
  5  6  1  0
  6  7  2  0
  6  8  1  0
  8  9  2  0
  8 10  1  0
M  END
