
     RDKit          3D

 14 13  0  0  0  0  0  0  0  0999 V2000
   -4.2910    0.9250    0.2210 C   0  0  0  0  0  0  0  0  0  0  0  0
   -3.4890    0.4400   -0.9490 C   0  0  0  0  0  0  0  0  0  0  0  0
   -2.4010   -0.4950   -0.5270 C   0  0  0  0  0  0  0  0  0  0  0  0
   -1.6370   -0.9760   -1.3500 O   0  0  0  0  0  0  0  0  0  0  0  0
   -2.2130   -0.8690    0.8960 C   0  0  0  0  0  0  0  0  0  0  0  0
   -1.1250   -1.7430    1.0330 O   0  0  0  0  0  0  0  0  0  0  0  0
    0.1640   -1.4620    0.6810 C   0  0  0  0  0  0  0  0  0  0  0  0
    0.3940   -0.3070    0.1870 O   0  0  0  0  0  0  0  0  0  0  0  0
    1.5170   -2.6060    0.8730 S   0  0  0  0  0  0  0  0  0  0  0  0
    3.3220   -1.7310    0.1910 S   0  0  0  0  0  0  0  0  0  0  0  0
    4.0420   -0.9310    1.5340 O   0  0  0  0  0  0  0  0  0  0  0  0
    5.5640   -0.2690    1.1210 S   0  0  0  0  0  0  0  0  0  0  0  0
    5.7830   -0.0930   -0.9900 S   0  0  0  0  0  0  0  0  0  0  0  0
    5.1790    1.5380   -1.5640 C   0  0  0  0  0  0  0  0  0  0  0  0
  1  2  1  0
  2  3  1  0
  3  4  2  0
  3  5  1  0
  5  6  1  0
  6  7  1  0
  7  8  2  0
  7  9  1  0
  9 10  1  0
 10 11  1  0
 11 12  1  0
 12 13  1  0
 13 14  1  0
M  END
