
     RDKit          3D

 15 14  0  0  0  0  0  0  0  0999 V2000
   -5.8310    0.1220    1.5160 C   0  0  0  0  0  0  0  0  0  0  0  0
   -4.3350    0.0330    1.3610 C   0  0  0  0  0  0  0  0  0  0  0  0
   -3.7630   -1.0990    1.8880 O   0  0  0  0  0  0  0  0  0  0  0  0
   -2.0640   -0.9480    1.5990 S   0  0  0  0  0  0  0  0  0  0  0  0
   -1.5770    0.8710    0.6160 S   0  0  0  0  0  0  0  0  0  0  0  0
   -1.6240    0.6300   -1.4970 S   0  0  0  0  0  0  0  0  0  0  0  0
   -0.0320    0.1440   -2.0520 C   0  0  0  0  0  0  0  0  0  0  0  0
    0.1270   -0.0360   -3.2700 O   0  0  0  0  0  0  0  0  0  0  0  0
    1.1180   -0.0550   -1.1560 C   0  0  0  0  0  0  0  0  0  0  0  0
    2.5290   -0.5550   -2.1090 S   0  0  0  0  0  0  0  0  0  0  0  0
    4.1260   -0.0190   -1.6170 C   0  0  0  0  0  0  0  0  0  0  0  0
    4.6820   -0.6140   -0.3730 C   0  0  0  0  0  0  0  0  0  0  0  0
    3.9860   -0.3890    0.8350 N   0  0  0  0  0  0  0  0  0  0  0  0
    2.7740   -0.8780    1.1790 O   0  0  0  0  0  0  0  0  0  0  0  0
    4.7080    0.5630    1.9570 S   0  0  0  0  0  0  0  0  0  0  0  0
  1  2  1  0
  2  3  1  0
  3  4  1  0
  4  5  1  0
  5  6  1  0
  6  7  1  0
  7  8  2  0
  7  9  1  0
  9 10  1  0
 10 11  1  0
 11 12  1  0
 12 13  1  0
 13 14  1  0
 13 15  2  0
M  CHG  2  13   1  14  -1
M  END
