
     RDKit          3D

 15 14  0  0  0  0  0  0  0  0999 V2000
    5.1890    1.0090   -1.1780 C   0  0  0  0  0  0  0  0  0  0  0  0
    4.0960    2.2890   -0.4800 S   0  0  0  0  0  0  0  0  0  0  0  0
    2.1460    1.5110   -0.1380 S   0  0  0  0  0  0  0  0  0  0  0  0
    1.9950    0.6880    1.8310 S   0  0  0  0  0  0  0  0  0  0  0  0
    2.4540   -1.0410    1.7480 C   0  0  0  0  0  0  0  0  0  0  0  0
    1.3300   -2.0780    0.8260 S   0  0  0  0  0  0  0  0  0  0  0  0
    1.3840   -1.4900   -1.2170 S   0  0  0  0  0  0  0  0  0  0  0  0
    0.1460   -0.2580   -1.4190 O   0  0  0  0  0  0  0  0  0  0  0  0
   -0.9070   -0.1380   -0.5040 C   0  0  0  0  0  0  0  0  0  0  0  0
   -0.8740   -0.9830    0.4550 O   0  0  0  0  0  0  0  0  0  0  0  0
   -1.9780    0.8550   -0.5930 C   0  0  0  0  0  0  0  0  0  0  0  0
   -3.2770    0.3500   -1.1550 C   0  0  0  0  0  0  0  0  0  0  0  0
   -3.8750   -0.7440   -0.3710 C   0  0  0  0  0  0  0  0  0  0  0  0
   -5.0300   -0.6280    0.1900 N   0  0  0  0  0  0  0  0  0  0  0  0
   -3.2170   -1.9590   -0.2000 O   0  0  0  0  0  0  0  0  0  0  0  0
  1  2  1  0
  2  3  1  0
  3  4  1  0
  4  5  1  0
  5  6  1  0
  6  7  1  0
  7  8  1  0
  8  9  1  0
  9 10  2  0
  9 11  1  0
 11 12  1  0
 12 13  1  0
 13 14  2  0
 13 15  1  0
M  CHG  2  14   1  15  -1
M  END
