
     RDKit          3D

 15 14  0  0  0  0  0  0  0  0999 V2000
   -4.7730    0.4190   -0.9230 C   0  0  0  0  0  0  0  0  0  0  0  0
   -4.4430   -0.5950   -0.0300 O   0  0  0  0  0  0  0  0  0  0  0  0
   -3.6260   -0.4850    1.0620 C   0  0  0  0  0  0  0  0  0  0  0  0
   -4.2680    0.0580    2.4590 S   0  0  0  0  0  0  0  0  0  0  0  0
   -2.2200   -0.8270    1.0370 C   0  0  0  0  0  0  0  0  0  0  0  0
   -1.5260   -0.7070    2.0580 O   0  0  0  0  0  0  0  0  0  0  0  0
   -1.6300   -1.3280   -0.2550 C   0  0  0  0  0  0  0  0  0  0  0  0
   -0.2400   -1.5960   -0.0280 N   0  0  0  0  0  0  0  0  0  0  0  0
   -0.1710   -2.5440    0.9530 O   0  0  0  0  0  0  0  0  0  0  0  0
    0.6110   -0.1790    0.5810 S   0  0  0  0  0  0  0  0  0  0  0  0
    2.4370   -0.7160    1.5270 S   0  0  0  0  0  0  0  0  0  0  0  0
    4.0270   -0.7270    0.1140 S   0  0  0  0  0  0  0  0  0  0  0  0
    4.7980    0.8680    0.0220 C   0  0  0  0  0  0  0  0  0  0  0  0
    6.0520    1.0390   -0.4240 C   0  0  0  0  0  0  0  0  0  0  0  0
    6.7690    2.6710   -0.4910 S   0  0  0  0  0  0  0  0  0  0  0  0
  1  2  1  0
  2  3  1  0
  3  4  2  0
  3  5  1  0
  5  6  2  0
  5  7  1  0
  7  8  1  0
  8  9  1  0
  8 10  1  0
 10 11  1  0
 11 12  1  0
 12 13  1  0
 13 14  2  3
 14 15  1  0
M  CHG  1   9  -1
M  END
