
     RDKit          3D

  8  7  0  0  0  0  0  0  0  0999 V2000
   -1.3160    1.2420    0.7880 C   0  0  0  0  0  0  0  0  0  0  0  0
   -1.1980   -0.2060    0.3630 C   0  0  2  0  0  0  0  0  0  0  0  0
   -1.9300   -0.9950    1.3300 N   0  0  0  0  0  0  0  0  0  0  0  0
    0.1120   -0.6390    0.2770 O   0  0  0  0  0  0  0  0  0  0  0  0
    0.4480   -1.0110   -0.9250 O   0  0  0  0  0  0  0  0  0  0  0  0
    1.9500   -0.4250   -1.4460 P   0  0  0  0  0  0  0  0  0  0  0  0
    2.2600    1.2120   -1.1160 O   0  0  0  0  0  0  0  0  0  0  0  0
    3.2700   -1.4760   -1.2030 O   0  0  0  0  0  0  0  0  0  0  0  0
  2  1  1  1
  2  3  1  0
  2  4  1  0
  4  5  1  0
  5  6  1  0
  6  7  1  0
  6  8  1  0
M  END
