
     RDKit          3D

  9  8  0  0  0  0  0  0  0  0999 V2000
   -2.7330    1.3120   -0.5300 O   0  0  0  0  0  0  0  0  0  0  0  0
   -3.0680    0.2860    0.1000 C   0  0  0  0  0  0  0  0  0  0  0  0
   -2.0390   -0.4970    0.7000 N   0  0  0  0  0  0  0  0  0  0  0  0
   -0.6510   -0.1040    0.5740 C   0  0  0  0  0  0  0  0  0  0  0  0
    0.1430   -1.0000    1.2240 O   0  0  0  0  0  0  0  0  0  0  0  0
    1.4120   -0.7570    1.1850 O   0  0  0  0  0  0  0  0  0  0  0  0
    2.0460   -0.5200   -0.3900 P   0  0  0  0  0  0  0  0  0  0  0  0
    1.7580    1.0980   -0.9400 O   0  0  0  0  0  0  0  0  0  0  0  0
    3.7270   -0.9330   -0.4600 O   0  0  0  0  0  0  0  0  0  0  0  0
  1  2  2  0
  2  3  1  0
  3  4  1  0
  4  5  1  0
  5  6  1  0
  6  7  1  0
  7  8  1  0
  7  9  1  0
M  END
