
     RDKit          3D

  9  8  0  0  0  0  0  0  0  0999 V2000
    1.0280   -0.7600    1.1090 O   0  0  0  0  0  0  0  0  0  0  0  0
    1.6830    0.0440    0.4400 C   0  0  0  0  0  0  0  0  0  0  0  0
    2.8440    0.5900    1.0320 O   0  0  0  0  0  0  0  0  0  0  0  0
    1.2920    0.4020   -0.8580 N   0  0  0  0  0  0  0  0  0  0  0  0
    0.1460   -0.0600   -1.5660 C   0  0  0  0  0  0  0  0  0  0  0  0
   -1.0850    0.2940   -1.1360 O   0  0  0  0  0  0  0  0  0  0  0  0
   -1.6190   -0.1490    0.4050 P   0  0  0  0  0  0  0  0  0  0  0  0
   -2.7380   -1.4730    0.3280 O   0  0  0  0  0  0  0  0  0  0  0  0
   -2.4810    1.1930    1.0980 O   0  0  0  0  0  0  0  0  0  0  0  0
  1  2  2  0
  2  3  1  0
  2  4  1  0
  4  5  1  0
  5  6  1  0
  6  7  1  0
  7  8  1  0
  7  9  1  0
M  END
