
     RDKit          3D

 28 29  0  0  0  0  0  0  0  0999 V2000
    7.5740   -2.0180   -2.3090 O   0  0  0  0  0  0  0  0  0  0  0  0
    6.7580   -1.4760   -1.5060 C   0  0  0  0  0  0  0  0  0  0  0  0
    7.1210   -1.2030   -0.2040 C   0  0  0  0  0  0  0  0  0  0  0  0
    6.2150   -0.6080    0.6630 C   0  0  0  0  0  0  0  0  0  0  0  0
    4.9910   -0.3050    0.2190 N   0  0  0  0  0  0  0  0  0  0  0  0
    4.0340    0.3130    1.1020 C   0  0  1  0  0  0  0  0  0  0  0  0
    3.5020    1.6010    0.5140 C   0  0  0  0  0  0  0  0  0  0  0  0
    1.9990    1.4310    0.5450 C   0  0  2  0  0  0  0  0  0  0  0  0
    1.3760    2.5130    1.1710 O   0  0  0  0  0  0  0  0  0  0  0  0
    1.8270    0.2260    1.4120 C   0  0  1  0  0  0  0  0  0  0  0  0
    0.5630   -0.5030    1.0080 C   0  0  0  0  0  0  0  0  0  0  0  0
   -0.4980    0.3260    1.2060 O   0  0  0  0  0  0  0  0  0  0  0  0
   -1.9900   -0.2190    0.8480 P   0  0  0  0  0  0  0  0  0  0  0  0
   -3.2450   -0.0230    1.9560 O   0  0  0  0  0  0  0  0  0  0  0  0
   -1.7490   -1.6250    1.3620 O   0  0  0  0  0  0  0  0  0  0  0  0
   -2.4130   -0.7410   -0.7220 N   0  0  0  0  0  0  0  0  0  0  0  0
   -3.9080   -0.4080   -1.2020 P   0  0  0  0  0  0  0  0  0  0  0  0
   -4.5070   -1.2670    0.0920 O   0  0  0  0  0  0  0  0  0  0  0  0
   -3.7830   -1.1670   -2.6510 O   0  0  0  0  0  0  0  0  0  0  0  0
   -5.3350    0.0740   -1.5160 O   0  0  0  0  0  0  0  0  0  0  0  0
   -6.2080    0.9310   -0.6090 P   0  0  0  0  0  0  0  0  0  0  0  0
   -4.9790    1.8930   -0.1530 O   0  0  0  0  0  0  0  0  0  0  0  0
   -7.1610    1.3530   -1.9090 O   0  0  0  0  0  0  0  0  0  0  0  0
   -6.5900   -0.3840    0.3150 O   0  0  0  0  0  0  0  0  0  0  0  0
    2.9610   -0.5480    1.2420 O   0  0  0  0  0  0  0  0  0  0  0  0
    4.6340   -0.5670   -1.0420 C   0  0  0  0  0  0  0  0  0  0  0  0
    3.4970   -0.3030   -1.5110 O   0  0  0  0  0  0  0  0  0  0  0  0
    5.5110   -1.1390   -1.8680 N   0  0  0  0  0  0  0  0  0  0  0  0
  1  2  2  0
  2  3  1  0
  2 28  1  0
  3  4  2  0
  4  5  1  0
  6  5  1  6
  5 26  1  0
  6  7  1  0
  6 25  1  0
  7  8  1  0
  8  9  1  1
  8 10  1  0
 10 11  1  6
 10 25  1  0
 11 12  1  0
 12 13  1  0
 13 14  1  0
 13 15  1  0
 13 16  1  0
 16 17  1  0
 17 18  1  0
 17 19  1  0
 17 20  1  0
 20 21  1  0
 21 22  1  0
 21 23  1  0
 21 24  1  0
 26 27  2  0
 26 28  1  0
M  END
