
     RDKit          3D

 20 21  0  0  0  0  0  0  0  0999 V2000
    3.1330   -0.9730    0.9760 O   0  0  0  0  0  0  0  0  0  0  0  0
    3.0540   -0.8640   -0.2720 C   0  0  0  0  0  0  0  0  0  0  0  0
    4.2200   -0.7900   -1.0350 N   0  0  0  0  0  0  0  0  0  0  0  0
    5.5350   -0.8250   -0.4680 C   0  0  0  0  0  0  0  0  0  0  0  0
    5.7110    0.3630    0.4420 C   0  0  0  0  0  0  0  0  0  0  0  0
    5.5250    1.5010   -0.3800 O   0  0  0  0  0  0  0  0  0  0  0  0
    1.7680   -0.8220   -0.8300 O   0  0  0  0  0  0  0  0  0  0  0  0
    0.6240   -0.9010    0.0010 C   0  0  1  0  0  0  0  0  0  0  0  0
   -0.0840    0.2820   -0.1750 O   0  0  0  0  0  0  0  0  0  0  0  0
   -1.0790    0.0330   -1.1110 C   0  0  2  0  0  0  0  0  0  0  0  0
   -2.3060    0.8180   -0.6220 C   0  0  0  0  0  0  0  0  0  0  0  0
   -2.5280    0.3780    0.6790 O   0  0  0  0  0  0  0  0  0  0  0  0
   -3.8640    1.1200    1.4580 P   0  0  0  0  0  0  0  0  0  0  0  0
   -4.9440    2.0820    0.2460 C   0  0  0  0  0  0  0  0  0  0  0  0
   -6.1400    1.3490    0.4460 O   0  0  0  0  0  0  0  0  0  0  0  0
   -5.7840    0.0260    0.5290 C   0  0  0  0  0  0  0  0  0  0  0  0
   -5.0540   -0.1570    1.7290 O   0  0  0  0  0  0  0  0  0  0  0  0
   -1.3540   -1.3900   -1.0770 N   0  0  0  0  0  0  0  0  0  0  0  0
   -0.2840   -1.9990   -0.3710 C   0  0  0  0  0  0  0  0  0  0  0  0
   -0.1870   -3.2290   -0.1410 O   0  0  0  0  0  0  0  0  0  0  0  0
  1  2  2  0
  2  3  1  0
  2  7  1  0
  3  4  1  0
  4  5  1  0
  5  6  1  0
  8  7  1  6
  8  9  1  0
  8 19  1  0
  9 10  1  0
 10 11  1  1
 10 18  1  0
 11 12  1  0
 12 13  1  0
 13 14  1  0
 13 17  1  0
 14 15  1  0
 15 16  1  0
 16 17  1  0
 18 19  1  0
 19 20  2  0
M  END
