
     RDKit          3D

  8  7  0  0  0  0  0  0  0  0999 V2000
    3.2720    0.7140    0.2180 N   0  0  0  0  0  0  0  0  0  0  0  0
    2.1650    0.3960   -0.4850 O   0  0  0  0  0  0  0  0  0  0  0  0
    1.5990   -0.6450    0.0420 O   0  0  0  0  0  0  0  0  0  0  0  0
    0.2760   -0.8240   -0.3680 C   0  0  0  0  0  0  0  0  0  0  0  0
   -0.4270    0.3000    0.0120 O   0  0  0  0  0  0  0  0  0  0  0  0
   -2.0950    0.2320   -0.4270 P   0  0  0  0  0  0  0  0  0  0  0  0
   -2.9030    1.5700    0.3610 O   0  0  0  0  0  0  0  0  0  0  0  0
   -2.8560   -1.2180    0.1460 O   0  0  0  0  0  0  0  0  0  0  0  0
  1  2  1  0
  2  3  1  0
  3  4  1  0
  4  5  1  0
  5  6  1  0
  6  7  1  0
  6  8  1  0
M  END
