
     RDKit          3D

  9  8  0  0  0  0  0  0  0  0999 V2000
    1.1740    0.6060   -0.8850 O   0  0  0  0  0  0  0  0  0  0  0  0
    1.4050   -0.3250   -0.0640 C   0  0  0  0  0  0  0  0  0  0  0  0
    0.4750   -0.4700    1.0100 N   0  0  0  0  0  0  0  0  0  0  0  0
   -0.6600    0.4090    1.1330 C   0  0  0  0  0  0  0  0  0  0  0  0
   -1.8040    0.3900   -0.2600 P   0  0  0  0  0  0  0  0  0  0  0  0
   -2.5390   -1.0250   -0.6960 O   0  0  0  0  0  0  0  0  0  0  0  0
   -2.4930    1.8590   -0.7160 O   0  0  0  0  0  0  0  0  0  0  0  0
    2.5050   -1.1390   -0.2270 O   0  0  0  0  0  0  0  0  0  0  0  0
    3.3490   -0.9460   -1.2700 O   0  0  0  0  0  0  0  0  0  0  0  0
  1  2  2  0
  2  3  1  0
  2  8  1  0
  3  4  1  0
  4  5  1  0
  5  6  1  0
  5  7  1  0
  8  9  1  0
M  END
