
     RDKit          3D

  9  8  0  0  0  0  0  0  0  0999 V2000
    3.6750    1.3980   -0.3630 O   0  0  0  0  0  0  0  0  0  0  0  0
    3.0500    0.6210    0.6860 N   0  0  0  0  0  0  0  0  0  0  0  0
    1.9670   -0.0920   -0.0330 C   0  0  0  0  0  0  0  0  0  0  0  0
    0.8190    0.0690    0.7670 O   0  0  0  0  0  0  0  0  0  0  0  0
   -0.2430   -0.4170    0.0280 C   0  0  0  0  0  0  0  0  0  0  0  0
   -1.3710   -0.2040    0.8740 O   0  0  0  0  0  0  0  0  0  0  0  0
   -2.7970   -0.6680   -0.0620 P   0  0  0  0  0  0  0  0  0  0  0  0
   -3.1500    0.6430   -1.1300 O   0  0  0  0  0  0  0  0  0  0  0  0
   -4.0480   -1.0090    1.0740 O   0  0  0  0  0  0  0  0  0  0  0  0
  1  2  1  0
  2  3  1  0
  3  4  1  0
  4  5  1  0
  5  6  1  0
  6  7  1  0
  7  8  1  0
  7  9  1  0
M  END
