
     RDKit          3D

 32 34  0  0  0  0  0  0  0  0999 V2000
   -8.3040    1.1750   -0.2100 C   0  0  0  0  0  0  0  0  0  0  0  0
   -6.8150    0.9750   -0.1860 C   0  0  0  0  0  0  0  0  0  0  0  0
   -6.1900   -0.1920   -0.2960 C   0  0  0  0  0  0  0  0  0  0  0  0
   -6.8830   -1.4680   -0.4600 C   0  0  0  0  0  0  0  0  0  0  0  0
   -6.2390   -2.6100   -0.5670 C   0  0  0  0  0  0  0  0  0  0  0  0
   -7.0310   -3.8620   -0.7310 C   0  0  0  0  0  0  0  0  0  0  0  0
   -8.3810   -3.6090   -0.7450 F   0  0  0  0  0  0  0  0  0  0  0  0
   -4.7450    0.0490   -0.2240 C   0  0  0  0  0  0  0  0  0  0  0  0
   -3.8400   -0.8170   -0.2920 O   0  0  0  0  0  0  0  0  0  0  0  0
   -4.5900    1.4840   -0.0600 C   0  0  0  0  0  0  0  0  0  0  0  0
   -3.4710    2.1950    0.0540 C   0  0  0  0  0  0  0  0  0  0  0  0
   -2.1500    1.6350    0.0330 C   0  0  0  0  0  0  0  0  0  0  0  0
   -1.0620    2.3750    0.1500 C   0  0  0  0  0  0  0  0  0  0  0  0
   -1.1020    3.8130    0.3090 C   0  0  0  0  0  0  0  0  0  0  0  0
    0.0060    4.5300    0.4230 C   0  0  0  0  0  0  0  0  0  0  0  0
    1.2750    3.8650    0.3890 C   0  0  0  0  0  0  0  0  0  0  0  0
    1.4490    2.5450    0.2470 C   0  0  0  0  0  0  0  0  0  0  0  0
    2.8190    2.0180    0.2310 C   0  0  0  0  0  0  0  0  0  0  0  0
    3.7660    2.8620    0.3550 O   0  0  0  0  0  0  0  0  0  0  0  0
    3.1890    0.6750    0.0930 N   0  0  0  0  0  0  0  0  0  0  0  0
    4.5060    0.1350    0.0740 C   0  0  0  0  0  0  0  0  0  0  0  0
    5.6580    0.8590    0.1910 C   0  0  0  0  0  0  0  0  0  0  0  0
    6.9420    0.2700    0.1650 C   0  0  0  0  0  0  0  0  0  0  0  0
    7.0360   -1.0950    0.0160 C   0  0  0  0  0  0  0  0  0  0  0  0
    8.3390   -1.7640   -0.0180 C   0  0  0  0  0  0  0  0  0  0  0  0
    5.8940   -1.8550   -0.1040 C   0  0  0  0  0  0  0  0  0  0  0  0
    6.0270   -3.3130   -0.2620 C   0  0  0  0  0  0  0  0  0  0  0  0
    4.6800   -1.2520   -0.0750 C   0  0  0  0  0  0  0  0  0  0  0  0
    3.4160   -2.0580   -0.2040 C   0  0  0  0  0  0  0  0  0  0  0  0
    0.2720    1.7260    0.1190 C   0  0  0  0  0  0  0  0  0  0  0  0
    0.2940    0.4830   -0.0190 O   0  0  0  0  0  0  0  0  0  0  0  0
   -5.8970    1.9900   -0.0440 O   0  0  0  0  0  0  0  0  0  0  0  0
  1  2  1  0
  2  3  2  0
  2 32  1  0
  3  4  1  0
  3  8  1  0
  4  5  2  3
  5  6  1  0
  6  7  1  0
  8  9  2  0
  8 10  1  0
 10 11  2  3
 10 32  1  0
 11 12  1  0
 12 13  2  3
 13 14  1  0
 13 30  1  0
 14 15  2  0
 15 16  1  0
 16 17  2  0
 17 18  1  0
 17 30  1  0
 18 19  2  0
 18 20  1  0
 20 21  1  0
 21 22  2  0
 21 28  1  0
 22 23  1  0
 23 24  2  0
 24 25  1  0
 24 26  1  0
 26 27  1  0
 26 28  2  0
 28 29  1  0
 30 31  2  0
M  END
