
     RDKit          3D

 32 35  0  0  0  0  0  0  0  0999 V2000
    1.3670   -0.9030    3.0580 C   0  0  0  0  0  0  0  0  0  0  0  0
    0.9950   -1.5750    1.8710 O   0  0  0  0  0  0  0  0  0  0  0  0
    1.5940   -1.1970    0.6920 C   0  0  0  0  0  0  0  0  0  0  0  0
    2.5380   -0.1760    0.6990 C   0  0  0  0  0  0  0  0  0  0  0  0
    3.6390   -0.0570   -0.1210 C   0  0  0  0  0  0  0  0  0  0  0  0
    3.7650   -0.5010   -1.4500 C   0  0  0  0  0  0  0  0  0  0  0  0
    2.8320   -1.2140   -2.1780 C   0  0  0  0  0  0  0  0  0  0  0  0
    1.8410   -2.0500   -1.6510 C   0  0  0  0  0  0  0  0  0  0  0  0
    1.5420   -3.0150   -2.3750 O   0  0  0  0  0  0  0  0  0  0  0  0
    1.1900   -1.8870   -0.4220 C   0  0  0  0  0  0  0  0  0  0  0  0
   -0.0140   -2.5080   -0.3330 O   0  0  0  0  0  0  0  0  0  0  0  0
   -1.2650   -2.0020   -0.5440 C   0  0  0  0  0  0  0  0  0  0  0  0
   -2.1410   -2.0740    0.5470 C   0  0  0  0  0  0  0  0  0  0  0  0
   -3.4320   -1.5790    0.4130 C   0  0  0  0  0  0  0  0  0  0  0  0
   -3.8810   -1.0190   -0.7610 C   0  0  0  0  0  0  0  0  0  0  0  0
   -5.2630   -0.5010   -0.8710 C   0  0  0  0  0  0  0  0  0  0  0  0
   -5.3490    0.9600   -0.4770 C   0  0  1  0  0  0  0  0  0  0  0  0
   -4.9110    1.1930    0.9350 C   0  0  0  0  0  0  0  0  0  0  0  0
   -4.4690    1.7320   -1.4480 C   0  0  0  0  0  0  0  0  0  0  0  0
   -6.7610    1.4660   -0.6740 C   0  0  0  0  0  0  0  0  0  0  0  0
   -3.0250   -0.9460   -1.8320 C   0  0  0  0  0  0  0  0  0  0  0  0
   -1.7270   -1.4390   -1.7100 C   0  0  0  0  0  0  0  0  0  0  0  0
   -0.9160   -1.3510   -2.7690 F   0  0  0  0  0  0  0  0  0  0  0  0
    4.8950   -0.2490   -2.1090 N   0  0  0  0  0  0  0  0  0  0  0  0
    5.9030    0.4140   -1.5250 C   0  0  0  0  0  0  0  0  0  0  0  0
    6.9820    0.6670   -2.1250 O   0  0  0  0  0  0  0  0  0  0  0  0
    5.7990    0.8560   -0.2190 C   0  0  0  0  0  0  0  0  0  0  0  0
    6.8400    1.5300    0.3850 C   0  0  0  0  0  0  0  0  0  0  0  0
    6.7500    1.9650    1.6860 C   0  0  0  0  0  0  0  0  0  0  0  0
    5.5880    1.7140    2.3930 C   0  0  0  0  0  0  0  0  0  0  0  0
    4.5250    1.0430    1.8220 C   0  0  0  0  0  0  0  0  0  0  0  0
    4.6450    0.6250    0.5240 C   0  0  0  0  0  0  0  0  0  0  0  0
  1  2  1  0
  2  3  1  0
  3  4  1  0
  3 10  2  0
  4  5  2  0
  5  6  1  0
  5 32  1  0
  6  7  2  0
  6 24  1  0
  7  8  1  0
  8  9  2  0
  8 10  1  0
 10 11  1  0
 11 12  1  0
 12 13  2  0
 12 22  1  0
 13 14  1  0
 14 15  2  0
 15 16  1  0
 15 21  1  0
 16 17  1  0
 17 18  1  1
 17 19  1  0
 17 20  1  0
 21 22  2  0
 22 23  1  0
 24 25  1  0
 25 26  2  0
 25 27  1  0
 27 28  2  0
 27 32  1  0
 28 29  1  0
 29 30  2  0
 30 31  1  0
 31 32  2  0
M  END
