
     RDKit          3D

 32 35  0  0  0  0  0  0  0  0999 V2000
   -3.6420   -5.1200   -1.4550 C   0  0  0  0  0  0  0  0  0  0  0  0
   -4.4370   -4.0130   -0.8210 C   0  0  0  0  0  0  0  0  0  0  0  0
   -3.8920   -2.7350   -0.9790 O   0  0  0  0  0  0  0  0  0  0  0  0
   -2.6760   -2.3310   -0.4920 C   0  0  0  0  0  0  0  0  0  0  0  0
   -1.9180   -3.2390    0.2210 C   0  0  0  0  0  0  0  0  0  0  0  0
   -0.6920   -2.8930    0.7210 C   0  0  0  0  0  0  0  0  0  0  0  0
   -0.1950   -1.6230    0.5180 C   0  0  0  0  0  0  0  0  0  0  0  0
    1.0930   -1.3310    1.1070 C   0  0  0  0  0  0  0  0  0  0  0  0
    1.4110   -1.9420    2.1880 O   0  0  0  0  0  0  0  0  0  0  0  0
    2.0090   -0.3840    0.5160 C   0  0  0  0  0  0  0  0  0  0  0  0
    1.9590   -0.0960   -0.8260 C   0  0  0  0  0  0  0  0  0  0  0  0
    2.8380    0.8280   -1.3890 C   0  0  0  0  0  0  0  0  0  0  0  0
    3.7830    1.4820   -0.6330 C   0  0  0  0  0  0  0  0  0  0  0  0
    3.8110    1.1720    0.7120 C   0  0  0  0  0  0  0  0  0  0  0  0
    2.9670    0.2720    1.3050 C   0  0  0  0  0  0  0  0  0  0  0  0
    4.7850    1.7930    1.6780 C   0  0  0  0  0  0  0  0  0  0  0  0
    6.1720    1.7170    1.0880 C   0  0  0  0  0  0  0  0  0  0  0  0
    6.5440    2.9090    0.2710 C   0  0  0  0  0  0  0  0  0  0  0  0
    5.7030    3.1530   -0.9040 C   0  0  0  0  0  0  0  0  0  0  0  0
    6.0380    4.1790   -1.5520 O   0  0  0  0  0  0  0  0  0  0  0  0
    4.5990    2.3950   -1.3750 N   0  0  0  0  0  0  0  0  0  0  0  0
   -0.9400   -0.7190   -0.1850 C   0  0  0  0  0  0  0  0  0  0  0  0
   -2.2060   -1.0690   -0.7020 C   0  0  0  0  0  0  0  0  0  0  0  0
   -2.9640   -0.0030   -1.3450 C   0  0  0  0  0  0  0  0  0  0  0  0
   -3.4620    1.1040   -0.5070 C   0  0  0  0  0  0  0  0  0  0  0  0
   -2.8710    2.3290   -0.7060 C   0  0  0  0  0  0  0  0  0  0  0  0
   -3.2760    3.4800    0.0520 C   0  0  0  0  0  0  0  0  0  0  0  0
   -4.2160    3.4730    0.9730 C   0  0  0  0  0  0  0  0  0  0  0  0
   -4.8460    2.2720    1.2130 O   0  0  0  0  0  0  0  0  0  0  0  0
   -4.4850    1.1000    0.4910 C   0  0  0  0  0  0  0  0  0  0  0  0
   -5.1450   -0.0180    0.7770 C   0  0  0  0  0  0  0  0  0  0  0  0
   -6.1060    0.0540    1.7470 F   0  0  0  0  0  0  0  0  0  0  0  0
  1  2  1  0
  2  3  1  0
  3  4  1  0
  4  5  2  0
  4 23  1  0
  5  6  1  0
  6  7  2  0
  7  8  1  0
  7 22  1  0
  8  9  2  0
  8 10  1  0
 10 11  2  0
 10 15  1  0
 11 12  1  0
 12 13  2  0
 13 14  1  0
 13 21  1  0
 14 15  2  0
 14 16  1  0
 16 17  1  0
 17 18  1  0
 18 19  1  0
 19 20  2  0
 19 21  1  0
 22 23  2  0
 23 24  1  0
 24 25  1  0
 25 26  2  0
 25 30  1  0
 26 27  1  0
 27 28  2  0
 28 29  1  0
 29 30  1  0
 30 31  2  3
 31 32  1  0
M  END
