
     RDKit          3D

 31 34  0  0  0  0  0  0  0  0999 V2000
    1.1420    1.8560   -0.9120 C   0  0  0  0  0  0  0  0  0  0  0  0
    0.3180    0.6250   -1.0000 C   0  0  2  0  0  0  0  0  0  0  0  0
    1.1790   -0.5440   -1.5030 C   0  0  0  0  0  0  0  0  0  0  0  0
    2.1870   -0.9760   -0.7850 O   0  0  0  0  0  0  0  0  0  0  0  0
    3.3690   -0.8330   -0.2120 C   0  0  0  0  0  0  0  0  0  0  0  0
    4.1890    0.2850   -0.2800 C   0  0  0  0  0  0  0  0  0  0  0  0
    5.4170    0.3920    0.3400 C   0  0  0  0  0  0  0  0  0  0  0  0
    5.8880   -0.6630    1.0820 C   0  0  0  0  0  0  0  0  0  0  0  0
    5.1220   -1.8010    1.1870 C   0  0  0  0  0  0  0  0  0  0  0  0
    5.6230   -2.8750    1.9540 O   0  0  0  0  0  0  0  0  0  0  0  0
    3.9100   -1.8940    0.5700 C   0  0  0  0  0  0  0  0  0  0  0  0
    3.1270   -3.0360    0.6690 O   0  0  0  0  0  0  0  0  0  0  0  0
    7.1210   -0.2780    1.5770 O   0  0  0  0  0  0  0  0  0  0  0  0
    7.5690    0.8080    0.7820 C   0  0  0  0  0  0  0  0  0  0  0  0
    6.3560    1.4140    0.3820 O   0  0  0  0  0  0  0  0  0  0  0  0
   -0.6480    0.7780   -1.9790 O   0  0  0  0  0  0  0  0  0  0  0  0
   -1.5540    1.7600   -1.7680 C   0  0  0  0  0  0  0  0  0  0  0  0
   -2.2150    1.6290   -0.4310 C   0  0  2  0  0  0  0  0  0  0  0  0
   -1.9240    2.7830    0.3190 O   0  0  0  0  0  0  0  0  0  0  0  0
   -1.7870    0.3930    0.3180 C   0  0  1  0  0  0  0  0  0  0  0  0
   -2.4210   -0.8380   -0.2770 C   0  0  1  0  0  0  0  0  0  0  0  0
   -2.0540   -1.9950    0.3820 O   0  0  0  0  0  0  0  0  0  0  0  0
   -3.9100   -0.7300   -0.1550 C   0  0  0  0  0  0  0  0  0  0  0  0
   -4.6870   -0.4040   -1.2230 C   0  0  0  0  0  0  0  0  0  0  0  0
   -6.0480   -0.3220   -1.0450 C   0  0  0  0  0  0  0  0  0  0  0  0
   -6.5800   -0.5720    0.2050 C   0  0  0  0  0  0  0  0  0  0  0  0
   -7.9470   -0.4850    0.3690 O   0  0  0  0  0  0  0  0  0  0  0  0
   -5.8010   -0.9000    1.2790 C   0  0  0  0  0  0  0  0  0  0  0  0
   -4.4390   -0.9820    1.1020 C   0  0  0  0  0  0  0  0  0  0  0  0
   -0.2780    0.2730    0.3540 C   0  0  2  0  0  0  0  0  0  0  0  0
    0.2640    1.0310    1.3730 O   0  0  0  0  0  0  0  0  0  0  0  0
  2  1  1  1
  2  3  1  0
  2 16  1  0
  2 30  1  0
  3  4  1  0
  4  5  1  0
  5  6  2  0
  5 11  1  0
  6  7  1  0
  7  8  2  0
  7 15  1  0
  8  9  1  0
  8 13  1  0
  9 10  1  0
  9 11  2  0
 11 12  1  0
 13 14  1  0
 14 15  1  0
 16 17  1  0
 17 18  1  0
 18 19  1  1
 18 20  1  0
 20 21  1  6
 20 30  1  0
 21 22  1  1
 21 23  1  0
 23 24  2  0
 23 29  1  0
 24 25  1  0
 25 26  2  0
 26 27  1  0
 26 28  1  0
 28 29  2  0
 30 31  1  1
M  END
