
     RDKit          3D

 32 35  0  0  0  0  0  0  0  0999 V2000
   -7.2250   -2.7050   -0.3500 C   0  0  0  0  0  0  0  0  0  0  0  0
   -7.0350   -1.2090   -0.4080 C   0  0  1  0  0  0  0  0  0  0  0  0
   -7.6270   -0.4990    0.7800 C   0  0  0  0  0  0  0  0  0  0  0  0
   -6.6880    0.6880    0.9540 C   0  0  0  0  0  0  0  0  0  0  0  0
   -5.6200    0.4600   -0.0950 C   0  0  1  0  0  0  0  0  0  0  0  0
   -5.9400    1.0880   -1.2960 O   0  0  0  0  0  0  0  0  0  0  0  0
   -4.2530    0.8460    0.4040 C   0  0  0  0  0  0  0  0  0  0  0  0
   -3.2910    0.4820   -0.5470 O   0  0  0  0  0  0  0  0  0  0  0  0
   -1.9370    0.6910   -0.4080 C   0  0  0  0  0  0  0  0  0  0  0  0
   -1.4260    1.2930    0.7180 C   0  0  0  0  0  0  0  0  0  0  0  0
   -0.0590    1.5010    0.8530 C   0  0  0  0  0  0  0  0  0  0  0  0
    0.4180    2.1110    2.0030 O   0  0  0  0  0  0  0  0  0  0  0  0
    0.8200    1.1110   -0.1340 C   0  0  0  0  0  0  0  0  0  0  0  0
    2.1910    1.2860   -0.0690 O   0  0  0  0  0  0  0  0  0  0  0  0
    3.0670    0.3770    0.4590 C   0  0  0  0  0  0  0  0  0  0  0  0
    2.5970   -0.6940    0.9180 O   0  0  0  0  0  0  0  0  0  0  0  0
    4.5290    0.6300    0.4970 C   0  0  1  0  0  0  0  0  0  0  0  0
    4.8490    1.8680   -0.0580 O   0  0  0  0  0  0  0  0  0  0  0  0
    5.0770    0.6180    1.9090 C   0  0  0  0  0  0  0  0  0  0  0  0
    6.4920    1.2000    1.8170 C   0  0  0  0  0  0  0  0  0  0  0  0
    7.2560    0.5030    0.8670 O   0  0  0  0  0  0  0  0  0  0  0  0
    6.7280   -0.4200   -0.0300 C   0  0  0  0  0  0  0  0  0  0  0  0
    7.4550   -1.3070   -0.6750 C   0  0  0  0  0  0  0  0  0  0  0  0
    8.8320   -1.3240   -0.4470 O   0  0  0  0  0  0  0  0  0  0  0  0
    6.8430   -2.1770   -1.5410 O   0  0  0  0  0  0  0  0  0  0  0  0
    5.4850   -2.2370   -1.8330 C   0  0  0  0  0  0  0  0  0  0  0  0
    4.7120   -1.2270   -1.0900 C   0  0  0  0  0  0  0  0  0  0  0  0
    5.2940   -0.3990   -0.2650 C   0  0  0  0  0  0  0  0  0  0  0  0
    0.2760    0.5130   -1.2460 C   0  0  0  0  0  0  0  0  0  0  0  0
   -1.0840    0.2900   -1.4130 C   0  0  0  0  0  0  0  0  0  0  0  0
   -1.5910   -0.3300   -2.5750 O   0  0  0  0  0  0  0  0  0  0  0  0
   -5.6780   -0.9250   -0.2670 O   0  0  0  0  0  0  0  0  0  0  0  0
  2  1  1  1
  2  3  1  0
  2 32  1  0
  3  4  1  0
  4  5  1  0
  5  6  1  6
  5  7  1  0
  5 32  1  0
  7  8  1  0
  8  9  1  0
  9 10  2  0
  9 30  1  0
 10 11  1  0
 11 12  1  0
 11 13  2  0
 13 14  1  0
 13 29  1  0
 14 15  1  0
 15 16  2  0
 15 17  1  0
 17 18  1  6
 17 19  1  0
 17 28  1  0
 19 20  1  0
 20 21  1  0
 21 22  1  0
 22 23  2  0
 22 28  1  0
 23 24  1  0
 23 25  1  0
 25 26  1  0
 26 27  1  0
 27 28  2  0
 29 30  2  0
 30 31  1  0
M  END
