
     RDKit          3D

 20 22  0  0  0  0  0  0  0  0999 V2000
    6.0280   -0.5070    0.3380 C   0  0  0  0  0  0  0  0  0  0  0  0
    5.3060    0.8070    0.3450 C   0  0  0  0  0  0  0  0  0  0  0  0
    3.8920    0.6460    0.4780 N   0  0  0  0  0  0  0  0  0  0  0  0
    3.2560    0.6090    1.6280 O   0  0  0  0  0  0  0  0  0  0  0  0
    1.9810    0.4520    1.4050 C   0  0  0  0  0  0  0  0  0  0  0  0
    1.7590    0.3820    0.0480 C   0  0  0  0  0  0  0  0  0  0  0  0
    0.4670    0.2090   -0.6060 C   0  0  0  0  0  0  0  0  0  0  0  0
    0.2030    0.1330   -1.9660 C   0  0  0  0  0  0  0  0  0  0  0  0
   -1.1630   -0.0330   -2.1400 C   0  0  0  0  0  0  0  0  0  0  0  0
   -1.6680   -0.0490   -0.8460 C   0  0  0  0  0  0  0  0  0  0  0  0
   -3.0740   -0.2020   -0.4920 C   0  0  0  0  0  0  0  0  0  0  0  0
   -3.9970   -0.3420   -1.4370 C   0  0  0  0  0  0  0  0  0  0  0  0
   -5.4030   -0.4950   -1.0850 C   0  0  0  0  0  0  0  0  0  0  0  0
   -5.8000   -0.5000    0.1720 C   0  0  0  0  0  0  0  0  0  0  0  0
   -4.8900   -0.3560    1.3250 C   0  0  0  0  0  0  0  0  0  0  0  0
   -3.4780   -0.2040    0.9050 C   0  0  0  0  0  0  0  0  0  0  0  0
   -2.5890   -0.0710    1.7810 O   0  0  0  0  0  0  0  0  0  0  0  0
   -0.6760    0.0940   -0.0150 O   0  0  0  0  0  0  0  0  0  0  0  0
    3.0100    0.5090   -0.5260 C   0  0  0  0  0  0  0  0  0  0  0  0
    3.2010    0.4910   -1.7660 O   0  0  0  0  0  0  0  0  0  0  0  0
  1  2  1  0
  2  3  1  0
  3  4  1  0
  3 19  1  0
  4  5  1  0
  5  6  2  0
  6  7  1  0
  6 19  1  0
  7  8  2  0
  7 18  1  0
  8  9  1  0
  9 10  2  0
 10 11  1  0
 10 18  1  0
 11 12  2  0
 11 16  1  0
 12 13  1  0
 13 14  2  0
 14 15  1  0
 15 16  1  0
 16 17  2  0
 19 20  2  0
M  END
