
     RDKit          3D

 20 21  0  0  0  0  0  0  0  0999 V2000
    3.9700    1.7270   -0.3190 C   0  0  0  0  0  0  0  0  0  0  0  0
    3.5770    0.8620   -1.2400 C   0  0  0  0  0  0  0  0  0  0  0  0
    3.9030   -0.5750   -1.0490 C   0  0  0  0  0  0  0  0  0  0  0  0
    2.7520   -1.3840   -0.9890 O   0  0  0  0  0  0  0  0  0  0  0  0
    1.7710   -1.2050   -0.0140 C   0  0  0  0  0  0  0  0  0  0  0  0
    2.0200   -1.5420    1.2370 C   0  0  0  0  0  0  0  0  0  0  0  0
    3.2390   -2.0790    1.6390 O   0  0  0  0  0  0  0  0  0  0  0  0
    0.9620   -1.3350    2.2180 C   0  0  0  0  0  0  0  0  0  0  0  0
    1.1390   -1.6380    3.4330 O   0  0  0  0  0  0  0  0  0  0  0  0
   -0.3380   -0.7670    1.8080 C   0  0  0  0  0  0  0  0  0  0  0  0
   -0.5360   -0.4500    0.5540 C   0  0  0  0  0  0  0  0  0  0  0  0
   -1.8360    0.1330    0.0800 C   0  0  0  0  0  0  0  0  0  0  0  0
   -2.9120   -0.1660    0.7440 C   0  0  0  0  0  0  0  0  0  0  0  0
   -4.2850    0.2150    0.5690 C   0  0  0  0  0  0  0  0  0  0  0  0
   -4.9030    1.0910   -0.4290 C   0  0  0  0  0  0  0  0  0  0  0  0
   -5.1470   -0.2770    1.4170 O   0  0  0  0  0  0  0  0  0  0  0  0
   -1.7380    0.9830   -1.1190 C   0  0  0  0  0  0  0  0  0  0  0  0
   -0.9520    0.2440   -2.1860 C   0  0  0  0  0  0  0  0  0  0  0  0
    0.2510   -0.3100   -1.6560 N   0  0  0  0  0  0  0  0  0  0  0  0
    0.4980   -0.6410   -0.4580 C   0  0  0  0  0  0  0  0  0  0  0  0
  1  2  2  0
  2  3  1  0
  3  4  1  0
  4  5  1  0
  5  6  2  0
  5 20  1  0
  6  7  1  0
  6  8  1  0
  8  9  2  0
  8 10  1  0
 10 11  2  0
 11 12  1  0
 11 20  1  0
 12 13  2  3
 12 17  1  0
 13 14  1  0
 14 15  1  0
 14 16  2  0
 17 18  1  0
 18 19  1  0
 19 20  2  0
M  END
