
     RDKit          3D

 20 22  0  0  0  0  0  0  0  0999 V2000
    5.5860    1.3100   -0.1970 C   0  0  0  0  0  0  0  0  0  0  0  0
    4.3760    0.8300   -0.0380 C   0  0  0  0  0  0  0  0  0  0  0  0
    4.1750   -0.5890    0.0810 C   0  0  0  0  0  0  0  0  0  0  0  0
    3.0310   -1.2110    0.2430 C   0  0  0  0  0  0  0  0  0  0  0  0
    2.9340   -2.7080    0.3560 C   0  0  0  0  0  0  0  0  0  0  0  0
    1.8940   -3.1100   -0.5510 O   0  0  0  0  0  0  0  0  0  0  0  0
    0.6420   -2.5020   -0.5090 C   0  0  0  0  0  0  0  0  0  0  0  0
   -0.3780   -3.1300   -0.8560 O   0  0  0  0  0  0  0  0  0  0  0  0
    0.5760   -1.1240   -0.0500 C   0  0  0  0  0  0  0  0  0  0  0  0
    1.7640   -0.4810    0.3250 C   0  0  0  0  0  0  0  0  0  0  0  0
    1.4980    0.7190    0.7000 O   0  0  0  0  0  0  0  0  0  0  0  0
    0.1840    0.9620    0.6110 C   0  0  0  0  0  0  0  0  0  0  0  0
   -0.4600    2.2470    0.9620 C   0  0  0  0  0  0  0  0  0  0  0  0
   -0.4290   -0.1690    0.1450 C   0  0  0  0  0  0  0  0  0  0  0  0
   -1.8380   -0.4190   -0.1570 C   0  0  0  0  0  0  0  0  0  0  0  0
   -2.1540   -1.4510   -0.8370 O   0  0  0  0  0  0  0  0  0  0  0  0
   -2.8970    0.3990    0.2500 N   0  0  0  0  0  0  0  0  0  0  0  0
   -4.2700    0.0340   -0.1260 C   0  0  2  0  0  0  0  0  0  0  0  0
   -5.2260    1.1530   -0.2890 C   0  0  0  0  0  0  0  0  0  0  0  0
   -5.3340    0.2660    0.9040 C   0  0  0  0  0  0  0  0  0  0  0  0
  1  2  2  0
  2  3  1  0
  3  4  2  3
  4  5  1  0
  4 10  1  0
  5  6  1  0
  6  7  1  0
  7  8  2  0
  7  9  1  0
  9 10  2  0
  9 14  1  0
 10 11  1  0
 11 12  1  0
 12 13  1  0
 12 14  2  0
 14 15  1  0
 15 16  2  0
 15 17  1  0
 18 17  1  1
 18 19  1  0
 18 20  1  0
 19 20  1  0
M  END
