
     RDKit          3D

 20 22  0  0  0  0  0  0  0  0999 V2000
   -2.7710    1.7630    1.7150 C   0  0  0  0  0  0  0  0  0  0  0  0
   -2.2530    1.7430    0.3760 O   0  0  0  0  0  0  0  0  0  0  0  0
   -1.5610    0.6090   -0.0360 C   0  0  0  0  0  0  0  0  0  0  0  0
   -2.1120   -0.4980   -0.5070 C   0  0  0  0  0  0  0  0  0  0  0  0
   -3.5330   -0.7750   -0.6950 C   0  0  0  0  0  0  0  0  0  0  0  0
   -4.1780   -1.9770   -0.5060 C   0  0  0  0  0  0  0  0  0  0  0  0
   -5.5070   -1.7600   -0.8040 C   0  0  0  0  0  0  0  0  0  0  0  0
   -5.6270   -0.4350   -1.1650 C   0  0  0  0  0  0  0  0  0  0  0  0
   -4.4450    0.0800   -1.0810 O   0  0  0  0  0  0  0  0  0  0  0  0
   -1.1030   -1.4010   -0.8090 O   0  0  0  0  0  0  0  0  0  0  0  0
    0.1000   -1.0180   -0.1580 C   0  0  0  0  0  0  0  0  0  0  0  0
   -0.0980    0.4500   -0.0180 C   0  0  0  0  0  0  0  0  0  0  0  0
    0.7950    1.4170    0.0950 C   0  0  0  0  0  0  0  0  0  0  0  0
    2.2160    1.2060    0.1070 C   0  0  0  0  0  0  0  0  0  0  0  0
    3.1420    1.9040    0.8430 C   0  0  0  0  0  0  0  0  0  0  0  0
    4.3740    1.3660    0.5450 C   0  0  0  0  0  0  0  0  0  0  0  0
    4.1380    0.3540   -0.3700 C   0  0  0  0  0  0  0  0  0  0  0  0
    5.1210   -0.5450   -1.0180 C   0  0  0  0  0  0  0  0  0  0  0  0
    5.2850   -1.7070   -0.1770 N   0  0  0  0  0  0  0  0  0  0  0  0
    2.8470    0.2990   -0.5960 O   0  0  0  0  0  0  0  0  0  0  0  0
  1  2  1  0
  2  3  1  0
  3  4  2  0
  3 12  1  0
  4  5  1  0
  4 10  1  0
  5  6  2  0
  5  9  1  0
  6  7  1  0
  7  8  2  0
  8  9  1  0
 10 11  1  0
 11 12  1  0
 12 13  2  3
 13 14  1  0
 14 15  2  0
 14 20  1  0
 15 16  1  0
 16 17  2  0
 17 18  1  0
 17 20  1  0
 18 19  1  0
M  END
