
     RDKit          3D

 20 22  0  0  0  0  0  0  0  0999 V2000
    1.9410   -3.2420    1.3250 C   0  0  0  0  0  0  0  0  0  0  0  0
    1.1870   -2.0750    1.1220 O   0  0  0  0  0  0  0  0  0  0  0  0
    1.7730   -0.8460    0.8090 C   0  0  0  0  0  0  0  0  0  0  0  0
    3.1430   -0.7370    0.6850 C   0  0  0  0  0  0  0  0  0  0  0  0
    3.7310    0.4850    0.3730 C   0  0  0  0  0  0  0  0  0  0  0  0
    5.0220    0.9160    0.1840 C   0  0  0  0  0  0  0  0  0  0  0  0
    4.9780    2.2530   -0.1070 C   0  0  0  0  0  0  0  0  0  0  0  0
    3.7070    2.6660   -0.1060 N   0  0  0  0  0  0  0  0  0  0  0  0
    2.9260    1.5880    0.1880 C   0  0  0  0  0  0  0  0  0  0  0  0
    1.5600    1.4530    0.3170 C   0  0  0  0  0  0  0  0  0  0  0  0
    0.9620    0.2480    0.6260 C   0  0  0  0  0  0  0  0  0  0  0  0
   -0.4370    0.1520    0.7490 O   0  0  0  0  0  0  0  0  0  0  0  0
   -1.1800   -0.1540   -0.3740 C   0  0  0  0  0  0  0  0  0  0  0  0
   -0.5790   -0.3330   -1.4560 O   0  0  0  0  0  0  0  0  0  0  0  0
   -2.6530   -0.2690   -0.3130 C   0  0  2  0  0  0  0  0  0  0  0  0
   -3.0020   -1.6980   -0.7010 C   0  0  0  0  0  0  0  0  0  0  0  0
   -3.2970    0.7260   -1.2560 C   0  0  0  0  0  0  0  0  0  0  0  0
   -4.2080    1.5000   -0.3190 C   0  0  0  0  0  0  0  0  0  0  0  0
   -4.4660    0.4210    0.7430 C   0  0  0  0  0  0  0  0  0  0  0  0
   -3.1630   -0.0450    0.9410 O   0  0  0  0  0  0  0  0  0  0  0  0
  1  2  1  0
  2  3  1  0
  3  4  2  0
  3 11  1  0
  4  5  1  0
  5  6  1  0
  5  9  2  0
  6  7  2  0
  7  8  1  0
  8  9  1  0
  9 10  1  0
 10 11  2  0
 11 12  1  0
 12 13  1  0
 13 14  2  0
 13 15  1  0
 15 16  1  6
 15 17  1  0
 15 20  1  0
 17 18  1  0
 18 19  1  0
 19 20  1  0
M  END
