
     RDKit          3D

 20 22  0  0  0  0  0  0  0  0999 V2000
   -4.3240    2.1860   -1.2630 C   0  0  0  0  0  0  0  0  0  0  0  0
   -3.6000    1.3390   -0.3640 N   0  0  0  0  0  0  0  0  0  0  0  0
   -2.3690    1.0260   -0.4410 C   0  0  0  0  0  0  0  0  0  0  0  0
   -1.7030    0.1570    0.5110 C   0  0  0  0  0  0  0  0  0  0  0  0
   -2.3600   -0.3590    1.5140 C   0  0  0  0  0  0  0  0  0  0  0  0
   -3.7950   -0.0820    1.7200 C   0  0  0  0  0  0  0  0  0  0  0  0
   -1.7020   -1.1900    2.4230 O   0  0  0  0  0  0  0  0  0  0  0  0
   -0.2880   -0.1440    0.3210 C   0  0  0  0  0  0  0  0  0  0  0  0
    0.6460    0.7890    0.0810 O   0  0  0  0  0  0  0  0  0  0  0  0
    1.8190    0.2590   -0.0480 C   0  0  0  0  0  0  0  0  0  0  0  0
    3.0620    0.8270   -0.2990 C   0  0  0  0  0  0  0  0  0  0  0  0
    4.1390   -0.0300   -0.3800 C   0  0  0  0  0  0  0  0  0  0  0  0
    4.0030   -1.3980   -0.2220 C   0  0  0  0  0  0  0  0  0  0  0  0
    2.7710   -1.9680    0.0270 C   0  0  0  0  0  0  0  0  0  0  0  0
    1.6920   -1.1060    0.1080 C   0  0  0  0  0  0  0  0  0  0  0  0
    0.3470   -1.3570    0.3430 C   0  0  0  0  0  0  0  0  0  0  0  0
   -0.2020   -2.7030    0.5410 C   0  0  0  0  0  0  0  0  0  0  0  0
    5.2350    0.7860   -0.6320 O   0  0  0  0  0  0  0  0  0  0  0  0
    4.9150    2.1450   -0.3290 C   0  0  0  0  0  0  0  0  0  0  0  0
    3.5100    2.1380   -0.5000 O   0  0  0  0  0  0  0  0  0  0  0  0
  1  2  1  0
  2  3  2  3
  3  4  1  0
  4  5  2  3
  4  8  1  0
  5  6  1  0
  5  7  1  0
  8  9  1  0
  8 16  2  0
  9 10  1  0
 10 11  2  0
 10 15  1  0
 11 12  1  0
 11 20  1  0
 12 13  2  0
 12 18  1  0
 13 14  1  0
 14 15  2  0
 15 16  1  0
 16 17  1  0
 18 19  1  0
 19 20  1  0
M  END
