
     RDKit          3D

 20 22  0  0  0  0  0  0  0  0999 V2000
    3.5670    0.5400    1.3240 C   0  0  0  0  0  0  0  0  0  0  0  0
    4.3470    0.4900    0.1040 N   0  0  0  0  0  0  0  0  0  0  0  0
    3.4940   -0.2610   -0.8950 C   0  0  0  0  0  0  0  0  0  0  0  0
    2.3630    0.5940   -1.1880 C   0  0  0  0  0  0  0  0  0  0  0  0
    1.0820    0.4720   -1.1490 C   0  0  0  0  0  0  0  0  0  0  0  0
    0.1580    1.6280   -1.5230 C   0  0  0  0  0  0  0  0  0  0  0  0
   -0.7610    1.7390   -0.4000 O   0  0  0  0  0  0  0  0  0  0  0  0
   -1.4540    0.5760   -0.0260 C   0  0  0  0  0  0  0  0  0  0  0  0
   -2.6990    0.6860    0.5360 C   0  0  0  0  0  0  0  0  0  0  0  0
   -3.2790    1.9220    0.7420 O   0  0  0  0  0  0  0  0  0  0  0  0
   -4.5360    2.1710    1.3030 C   0  0  0  0  0  0  0  0  0  0  0  0
   -3.3760   -0.4520    0.8970 C   0  0  0  0  0  0  0  0  0  0  0  0
   -2.8240   -1.7170    0.7050 C   0  0  0  0  0  0  0  0  0  0  0  0
   -1.5720   -1.8430    0.1420 C   0  0  0  0  0  0  0  0  0  0  0  0
   -0.9730   -2.9840   -0.0850 O   0  0  0  0  0  0  0  0  0  0  0  0
    0.2170   -3.0980   -0.6260 C   0  0  0  0  0  0  0  0  0  0  0  0
    0.7560   -4.2340   -0.8300 O   0  0  0  0  0  0  0  0  0  0  0  0
    0.9180   -1.9600   -0.9910 C   0  0  0  0  0  0  0  0  0  0  0  0
    0.3700   -0.7250   -0.7840 C   0  0  0  0  0  0  0  0  0  0  0  0
   -0.9070   -0.6870   -0.2120 C   0  0  0  0  0  0  0  0  0  0  0  0
  1  2  1  0
  2  3  1  0
  3  4  1  0
  4  5  2  3
  5  6  1  0
  5 19  1  0
  6  7  1  0
  7  8  1  0
  8  9  1  0
  8 20  2  0
  9 10  1  0
  9 12  2  0
 10 11  1  0
 12 13  1  0
 13 14  2  0
 14 15  1  0
 14 20  1  0
 15 16  1  0
 16 17  2  0
 16 18  1  0
 18 19  2  0
 19 20  1  0
M  END
