
     RDKit          3D

  8  7  0  0  0  0  0  0  0  0999 V2000
    2.4740   -1.0640   -0.8920 N   0  0  0  0  0  0  0  0  0  0  0  0
    2.4920    0.2490   -0.5860 O   0  0  0  0  0  0  0  0  0  0  0  0
    1.7280    0.5330    0.4310 O   0  0  0  0  0  0  0  0  0  0  0  0
    0.3660    0.3830    0.1000 C   0  0  0  0  0  0  0  0  0  0  0  0
   -0.4360    0.6850    1.1820 O   0  0  0  0  0  0  0  0  0  0  0  0
   -2.0880    0.4860    0.7240 P   0  0  0  0  0  0  0  0  0  0  0  0
   -2.7470    1.9450    0.0440 O   0  0  0  0  0  0  0  0  0  0  0  0
   -2.2330   -0.8160   -0.4250 O   0  0  0  0  0  0  0  0  0  0  0  0
  1  2  1  0
  2  3  1  0
  3  4  1  0
  4  5  1  0
  5  6  1  0
  6  7  1  0
  6  8  1  0
M  END
