
     RDKit          3D

  9  8  0  0  0  0  0  0  0  0999 V2000
   -3.2220    0.8310    0.4180 O   0  0  0  0  0  0  0  0  0  0  0  0
   -2.1880    0.5360   -0.4140 N   0  0  0  0  0  0  0  0  0  0  0  0
   -1.7910   -0.8490   -0.2450 C   0  0  0  0  0  0  0  0  0  0  0  0
   -0.7530   -1.1600   -1.0810 O   0  0  0  0  0  0  0  0  0  0  0  0
    0.3850   -0.4300   -0.9070 C   0  0  0  0  0  0  0  0  0  0  0  0
    0.9280   -0.5650    0.3930 O   0  0  0  0  0  0  0  0  0  0  0  0
    2.3540    0.4420    0.3790 P   0  0  0  0  0  0  0  0  0  0  0  0
    3.7650   -0.4290    0.7950 O   0  0  0  0  0  0  0  0  0  0  0  0
    2.1380    1.8960    1.2550 O   0  0  0  0  0  0  0  0  0  0  0  0
  1  2  1  0
  2  3  1  0
  3  4  1  0
  4  5  1  0
  5  6  1  0
  6  7  1  0
  7  8  1  0
  7  9  1  0
M  END
