
     RDKit          3D

  9  8  0  0  0  0  0  0  0  0999 V2000
    1.5210    1.2000   -0.7830 O   0  0  0  0  0  0  0  0  0  0  0  0
    2.1890    0.1990   -0.3800 C   0  0  0  0  0  0  0  0  0  0  0  0
    3.5560    0.2190   -0.3280 O   0  0  0  0  0  0  0  0  0  0  0  0
    1.4380   -0.9620    0.0200 N   0  0  0  0  0  0  0  0  0  0  0  0
    0.0120   -0.9480   -0.0470 C   0  0  0  0  0  0  0  0  0  0  0  0
   -0.4330    0.0960    0.7920 O   0  0  0  0  0  0  0  0  0  0  0  0
   -2.1320    0.1400    0.7360 P   0  0  0  0  0  0  0  0  0  0  0  0
   -2.8220   -0.5650   -0.6640 O   0  0  0  0  0  0  0  0  0  0  0  0
   -2.8410    1.6090    1.2140 O   0  0  0  0  0  0  0  0  0  0  0  0
  1  2  2  0
  2  3  1  0
  2  4  1  0
  4  5  1  0
  5  6  1  0
  6  7  1  0
  7  8  1  0
  7  9  1  0
M  END
