
     RDKit          3D

  8  7  0  0  0  0  0  0  0  0999 V2000
   -2.6930    0.9120   -0.4420 N   0  0  0  0  0  0  0  0  0  0  0  0
   -2.2360   -0.4340   -0.0980 C   0  0  0  0  0  0  0  0  0  0  0  0
   -1.1480   -0.3780    0.7440 O   0  0  0  0  0  0  0  0  0  0  0  0
   -0.1190    0.2400    0.2490 O   0  0  0  0  0  0  0  0  0  0  0  0
    1.0220   -0.4570    0.6570 C   0  0  0  0  0  0  0  0  0  0  0  0
    2.5800    0.2770    0.0470 P   0  0  0  0  0  0  0  0  0  0  0  0
    2.3500    1.6340   -0.9880 O   0  0  0  0  0  0  0  0  0  0  0  0
    3.6760   -0.8700   -0.6130 O   0  0  0  0  0  0  0  0  0  0  0  0
  1  2  1  0
  2  3  1  0
  3  4  1  0
  4  5  1  0
  5  6  1  0
  6  7  1  0
  6  8  1  0
M  END
