
     RDKit          3D

  9  8  0  0  0  0  0  0  0  0999 V2000
   -2.6740   -0.2390    1.8880 O   0  0  0  0  0  0  0  0  0  0  0  0
   -3.1310    0.3820    0.8910 C   0  0  0  0  0  0  0  0  0  0  0  0
   -2.4130    0.2680   -0.2920 O   0  0  0  0  0  0  0  0  0  0  0  0
   -1.2650   -0.4940   -0.3380 N   0  0  0  0  0  0  0  0  0  0  0  0
   -0.0900    0.3100   -0.5860 C   0  0  0  0  0  0  0  0  0  0  0  0
    1.3870   -0.7830   -0.6310 P   0  0  0  0  0  0  0  0  0  0  0  0
    2.6630    0.1050   -1.4440 O   0  0  0  0  0  0  0  0  0  0  0  0
    1.9240   -1.1790    0.9860 O   0  0  0  0  0  0  0  0  0  0  0  0
    2.8950   -0.3900    1.3560 O   0  0  0  0  0  0  0  0  0  0  0  0
  1  2  2  0
  2  3  1  0
  3  4  1  0
  4  5  1  0
  5  6  1  0
  6  7  1  0
  6  8  1  0
  8  9  1  0
M  END
