
     RDKit          3D

  9  8  0  0  0  0  0  0  0  0999 V2000
   -3.3520   -0.8380   -0.1470 N   0  0  0  0  0  0  0  0  0  0  0  0
   -2.7810    0.1080    0.4670 O   0  0  0  0  0  0  0  0  0  0  0  0
   -1.7690    0.8300   -0.3380 C   0  0  0  0  0  0  0  0  0  0  0  0
   -0.6260    0.3960    0.6200 C   0  0  0  0  0  0  0  0  0  0  0  0
    0.5810    0.9720    0.4430 O   0  0  0  0  0  0  0  0  0  0  0  0
    1.4490    0.3640    1.2340 O   0  0  0  0  0  0  0  0  0  0  0  0
    2.9820    0.0330    0.7380 P   0  0  0  0  0  0  0  0  0  0  0  0
    3.2160   -1.5670    0.0930 O   0  0  0  0  0  0  0  0  0  0  0  0
    3.7270    1.2390   -0.2470 O   0  0  0  0  0  0  0  0  0  0  0  0
  1  2  1  0
  2  3  1  0
  3  4  1  0
  4  5  1  0
  5  6  1  0
  6  7  1  0
  7  8  1  0
  7  9  1  0
M  END
