
     RDKit          3D

  9  8  0  0  0  0  0  0  0  0999 V2000
    2.0460    1.0660    0.6590 O   0  0  0  0  0  0  0  0  0  0  0  0
    1.6620    0.0690    0.0150 C   0  0  0  0  0  0  0  0  0  0  0  0
    0.2880   -0.2720    0.0530 N   0  0  0  0  0  0  0  0  0  0  0  0
   -0.6160    0.5370    0.8290 C   0  0  0  0  0  0  0  0  0  0  0  0
   -2.3260   -0.0970    0.7240 P   0  0  0  0  0  0  0  0  0  0  0  0
   -3.3510    0.8470   -0.2940 O   0  0  0  0  0  0  0  0  0  0  0  0
   -2.4530   -1.7710    0.4660 O   0  0  0  0  0  0  0  0  0  0  0  0
    2.5810   -0.6610   -0.7070 O   0  0  0  0  0  0  0  0  0  0  0  0
    3.8610   -0.2740   -0.6920 O   0  0  0  0  0  0  0  0  0  0  0  0
  1  2  2  0
  2  3  1  0
  2  8  1  0
  3  4  1  0
  4  5  1  0
  5  6  1  0
  5  7  1  0
  8  9  1  0
M  END
