
     RDKit          3D

  8  7  0  0  0  0  0  0  0  0999 V2000
   -2.1550    0.7010    0.6250 C   0  0  0  0  0  0  0  0  0  0  0  0
   -1.1100   -0.1640   -0.0390 C   0  0  2  0  0  0  0  0  0  0  0  0
   -1.5320   -1.5490   -0.1040 N   0  0  0  0  0  0  0  0  0  0  0  0
    0.0820   -0.0490    0.6730 O   0  0  0  0  0  0  0  0  0  0  0  0
    0.9940    0.4430   -0.1450 O   0  0  0  0  0  0  0  0  0  0  0  0
    2.5580    0.2470    0.5850 P   0  0  0  0  0  0  0  0  0  0  0  0
    3.4500   -1.0340   -0.1740 O   0  0  0  0  0  0  0  0  0  0  0  0
    3.4700    1.7160    0.3300 O   0  0  0  0  0  0  0  0  0  0  0  0
  2  1  1  1
  2  3  1  0
  2  4  1  0
  4  5  1  0
  5  6  1  0
  6  7  1  0
  6  8  1  0
M  END
