
     RDKit          3D

  7  7  0  0  0  0  0  0  0  0999 V2000
    2.3780   -0.3670    0.1670 C   0  0  0  0  0  0  0  0  0  0  0  0
    0.9390   -0.1660   -0.1460 C   0  0  2  0  0  0  0  0  0  0  0  0
    0.4120    1.1900    0.2190 C   0  0  0  0  0  0  0  0  0  0  0  0
   -0.9090    1.3660   -0.5410 C   0  0  0  0  0  0  0  0  0  0  0  0
   -1.8750    0.3030   -0.1540 C   0  0  0  0  0  0  0  0  0  0  0  0
   -1.3120   -1.0730   -0.0880 C   0  0  0  0  0  0  0  0  0  0  0  0
    0.0300   -1.1680    0.5700 C   0  0  0  0  0  0  0  0  0  0  0  0
  2  1  1  1
  2  3  1  0
  2  7  1  0
  3  4  1  0
  4  5  1  0
  5  6  1  0
  6  7  1  0
M  END
