
     RDKit          3D

  7  7  0  0  0  0  0  0  0  0999 V2000
    2.2150   -0.1830    0.0830 C   0  0  0  0  0  0  0  0  0  0  0  0
    0.7280   -0.0550    0.0170 C   0  0  0  0  0  0  0  0  0  0  0  0
   -0.0780   -1.1760    0.0540 C   0  0  0  0  0  0  0  0  0  0  0  0
   -1.4590   -1.0590   -0.0070 C   0  0  0  0  0  0  0  0  0  0  0  0
   -2.0790    0.1700   -0.1070 C   0  0  0  0  0  0  0  0  0  0  0  0
   -1.2730    1.2900   -0.1440 C   0  0  0  0  0  0  0  0  0  0  0  0
    0.1030    1.1650   -0.0830 C   0  0  0  0  0  0  0  0  0  0  0  0
  1  2  1  0
  2  3  2  0
  2  7  1  0
  3  4  1  0
  4  5  2  0
  5  6  1  0
  6  7  2  0
M  END
