
     RDKit          3D

  7  7  0  0  0  0  0  0  0  0999 V2000
   -2.8510    0.6140   -0.0790 C   0  0  0  0  0  0  0  0  0  0  0  0
   -1.4190    0.2270    0.3080 C   0  0  0  0  0  0  0  0  0  0  0  0
   -0.8280   -0.4120   -0.9030 C   0  0  0  0  0  0  0  0  0  0  0  0
    0.5510   -0.9000   -0.7180 C   0  0  0  0  0  0  0  0  0  0  0  0
    1.6160    0.0330   -0.3330 C   0  0  1  0  0  0  0  0  0  0  0  0
    1.7380    0.8330    0.8660 C   0  0  0  0  0  0  0  0  0  0  0  0
    2.5330   -0.4300    0.8050 C   0  0  0  0  0  0  0  0  0  0  0  0
  1  2  1  0
  2  3  1  0
  3  4  1  0
  5  4  1  1
  5  6  1  0
  5  7  1  0
  6  7  1  0
M  END
