
     RDKit          3D

  7  7  0  0  0  0  0  0  0  0999 V2000
   -1.2900    0.3300   -1.1750 C   0  0  0  0  0  0  0  0  0  0  0  0
   -0.4920    0.2660    0.1260 C   0  0  1  0  0  0  0  0  0  0  0  0
   -0.9560    1.3150    1.1120 C   0  0  0  0  0  0  0  0  0  0  0  0
   -0.7500   -1.0850    0.7470 C   0  0  0  0  0  0  0  0  0  0  0  0
    0.9480    0.4530   -0.1990 C   0  0  2  0  0  0  0  0  0  0  0  0
    1.5670   -0.5570   -1.1300 C   0  0  0  0  0  0  0  0  0  0  0  0
    1.9670   -0.5430    0.2880 C   0  0  0  0  0  0  0  0  0  0  0  0
  2  1  1  6
  2  3  1  0
  2  4  1  0
  2  5  1  0
  5  6  1  6
  5  7  1  0
  6  7  1  0
M  END
