
     RDKit          3D

 19 20  0  0  0  0  0  0  0  0999 V2000
    1.9930   -2.3540    0.2360 O   0  0  0  0  0  0  0  0  0  0  0  0
    2.4910   -1.0550    0.1600 C   0  0  0  0  0  0  0  0  0  0  0  0
    3.6600   -0.7930   -0.5660 C   0  0  0  0  0  0  0  0  0  0  0  0
    4.1330    0.4920   -0.6280 C   0  0  0  0  0  0  0  0  0  0  0  0
    5.6020    0.7570   -1.5540 Cl  0  0  0  0  0  0  0  0  0  0  0  0
    3.4730    1.5090    0.0110 C   0  0  0  0  0  0  0  0  0  0  0  0
    4.0880    3.1430   -0.0780 Cl  0  0  0  0  0  0  0  0  0  0  0  0
    2.3180    1.2220    0.7230 C   0  0  0  0  0  0  0  0  0  0  0  0
    1.6900    2.2760    1.3480 O   0  0  0  0  0  0  0  0  0  0  0  0
    1.8140   -0.0540    0.8070 C   0  0  0  0  0  0  0  0  0  0  0  0
    0.3580   -0.3920    1.7120 S   0  0  0  0  0  0  0  0  0  0  0  0
   -1.1630   -0.2960    0.7970 C   0  0  1  0  0  0  0  0  0  0  0  0
   -1.5120    1.0870    0.3110 C   0  0  0  0  0  0  0  0  0  0  0  0
   -2.5080    1.0650   -0.8290 C   0  0  0  0  0  0  0  0  0  0  0  0
   -3.4560   -0.0990   -0.6230 C   0  0  1  0  0  0  0  0  0  0  0  0
   -4.3390    0.1870    0.9150 Cl  0  0  0  0  0  0  0  0  0  0  0  0
   -4.7110   -0.0760   -1.9100 Cl  0  0  0  0  0  0  0  0  0  0  0  0
   -2.7620   -1.4240   -0.6340 C   0  0  0  0  0  0  0  0  0  0  0  0
   -1.2600   -1.2310   -0.3760 C   0  0  0  0  0  0  0  0  0  0  0  0
  1  2  1  0
  2  3  2  0
  2 10  1  0
  3  4  1  0
  4  5  1  0
  4  6  2  0
  6  7  1  0
  6  8  1  0
  8  9  1  0
  8 10  2  0
 10 11  1  0
 12 11  1  6
 12 13  1  0
 12 19  1  0
 13 14  1  0
 14 15  1  0
 15 16  1  1
 15 17  1  0
 15 18  1  0
 18 19  1  0
M  END
