
     RDKit          3D

  7  6  0  0  0  0  0  0  0  0999 V2000
    2.8630   -0.1390   -0.5050 C   0  0  0  0  0  0  0  0  0  0  0  0
    1.5100   -0.6130   -0.0670 C   0  0  0  0  0  0  0  0  0  0  0  0
    0.5260    0.4870   -0.2650 C   0  0  0  0  0  0  0  0  0  0  0  0
   -0.8850    0.1180    0.1460 C   0  0  1  0  0  0  0  0  0  0  0  0
   -1.4230   -1.0470   -0.6230 C   0  0  0  0  0  0  0  0  0  0  0  0
   -0.9860   -0.1310    1.6240 C   0  0  0  0  0  0  0  0  0  0  0  0
   -1.7470    1.3340   -0.2180 C   0  0  0  0  0  0  0  0  0  0  0  0
  1  2  1  0
  2  3  1  0
  3  4  1  0
  4  5  1  6
  4  6  1  0
  4  7  1  0
M  END
