
     RDKit          3D

  7  6  0  0  0  0  0  0  0  0999 V2000
    3.1560   -0.4610    0.6390 C   0  0  0  0  0  0  0  0  0  0  0  0
    1.8650   -0.2590    0.8060 C   0  0  0  0  0  0  0  0  0  0  0  0
    1.1970    0.8120    0.0760 C   0  0  0  0  0  0  0  0  0  0  0  0
    0.0850    0.3370   -0.8250 C   0  0  0  0  0  0  0  0  0  0  0  0
   -1.0090   -0.3720   -0.0930 C   0  0  2  0  0  0  0  0  0  0  0  0
   -2.0510   -0.7920   -1.1080 C   0  0  0  0  0  0  0  0  0  0  0  0
   -1.6910    0.5560    0.8890 C   0  0  0  0  0  0  0  0  0  0  0  0
  1  2  2  0
  2  3  1  0
  3  4  1  0
  4  5  1  0
  5  6  1  6
  5  7  1  0
M  END
