
     RDKit          3D

 14 15  0  0  0  0  0  0  0  0999 V2000
   -3.8290    1.0460   -0.1940 C   0  0  0  0  0  0  0  0  0  0  0  0
   -2.3770    1.4180   -0.2520 C   0  0  0  0  0  0  0  0  0  0  0  0
   -1.4540    0.2460   -0.0250 C   0  0  1  0  0  0  0  0  0  0  0  0
   -1.6990   -0.3620    1.3280 C   0  0  0  0  0  0  0  0  0  0  0  0
   -2.9720   -0.8300    1.5010 O   0  0  0  0  0  0  0  0  0  0  0  0
   -1.4760   -0.7510   -1.1350 C   0  0  0  0  0  0  0  0  0  0  0  0
   -0.4420   -1.8040   -0.9590 C   0  0  0  0  0  0  0  0  0  0  0  0
    0.9160   -1.2940   -0.5740 C   0  0  0  0  0  0  0  0  0  0  0  0
    0.9450   -0.1180    0.1700 N   0  0  0  0  0  0  0  0  0  0  0  0
    2.1400    0.4270    0.6470 C   0  0  2  0  0  0  0  0  0  0  0  0
    3.0630    0.8320   -0.5040 C   0  0  0  0  0  0  0  0  0  0  0  0
    4.2410    0.3280    0.3100 C   0  0  0  0  0  0  0  0  0  0  0  0
    3.2310   -0.4650    1.1560 C   0  0  0  0  0  0  0  0  0  0  0  0
   -0.0580    0.8530   -0.0780 C   0  0  0  0  0  0  0  0  0  0  0  0
  1  2  1  0
  3  2  1  6
  3  4  1  0
  3  6  1  0
  3 14  1  0
  4  5  1  0
  6  7  1  0
  7  8  1  0
  8  9  1  0
 10  9  1  6
  9 14  1  0
 10 11  1  0
 10 13  1  0
 11 12  1  0
 12 13  1  0
M  END
