
     RDKit          3D

 14 15  0  0  0  0  0  0  0  0999 V2000
    3.1820   -2.6720   -0.8860 O   0  0  0  0  0  0  0  0  0  0  0  0
    2.0860   -2.0580   -0.2150 C   0  0  0  0  0  0  0  0  0  0  0  0
    1.9530   -0.6570   -0.7320 C   0  0  0  0  0  0  0  0  0  0  0  0
    0.9230    0.1530   -0.2190 N   0  0  0  0  0  0  0  0  0  0  0  0
    1.1920    1.5430   -0.5160 C   0  0  0  0  0  0  0  0  0  0  0  0
    1.0470    2.3870    0.7380 C   0  0  0  0  0  0  0  0  0  0  0  0
   -0.3170    2.9840    0.7150 C   0  0  0  0  0  0  0  0  0  0  0  0
   -1.4300    2.0040    0.5620 C   0  0  0  0  0  0  0  0  0  0  0  0
   -1.3130    0.9750   -0.4740 C   0  0  0  0  0  0  0  0  0  0  0  0
   -0.4190   -0.2190   -0.2020 C   0  0  2  0  0  0  0  0  0  0  0  0
   -0.7330   -0.7990    1.1630 C   0  0  0  0  0  0  0  0  0  0  0  0
   -2.0650   -1.4810    0.9420 C   0  0  0  0  0  0  0  0  0  0  0  0
   -1.7420   -2.2520   -0.3340 C   0  0  0  0  0  0  0  0  0  0  0  0
   -0.9160   -1.2780   -1.1270 C   0  0  0  0  0  0  0  0  0  0  0  0
  1  2  1  0
  2  3  1  0
  3  4  1  0
  4  5  1  0
  4 10  1  0
  5  6  1  0
  6  7  1  0
  7  8  1  0
  8  9  1  0
 10  9  1  6
 10 11  1  0
 10 14  1  0
 11 12  1  0
 12 13  1  0
 13 14  1  0
M  END
