
     RDKit          3D

 27 29  0  0  0  0  0  0  0  0999 V2000
   -1.5220   -1.2900   -2.9420 C   0  0  0  0  0  0  0  0  0  0  0  0
   -1.0840    0.0420   -2.5070 C   0  0  0  0  0  0  0  0  0  0  0  0
   -0.7080    0.1770   -1.0150 C   0  0  2  0  0  0  0  0  0  0  0  0
   -1.9520   -0.1650   -0.2660 C   0  0  2  0  0  0  0  0  0  0  0  0
   -2.2370   -1.4970   -0.7300 O   0  0  0  0  0  0  0  0  0  0  0  0
   -3.1430    0.6520   -0.7060 C   0  0  0  0  0  0  0  0  0  0  0  0
   -4.2530    0.6940    0.3170 C   0  0  0  0  0  0  0  0  0  0  0  0
   -4.2600   -0.4530    1.2550 C   0  0  0  0  0  0  0  0  0  0  0  0
   -3.0920   -1.1120    1.4720 O   0  0  0  0  0  0  0  0  0  0  0  0
   -1.9220   -0.3430    1.1900 C   0  0  2  0  0  0  0  0  0  0  0  0
   -1.8530    0.7480    2.1150 C   0  0  0  0  0  0  0  0  0  0  0  0
   -2.8820    0.9210    3.1090 N   0  0  0  0  0  0  0  0  0  0  0  0
   -0.9860    1.6430    2.2150 O   0  0  0  0  0  0  0  0  0  0  0  0
   -0.2300    1.5850   -0.8890 C   0  0  0  0  0  0  0  0  0  0  0  0
    1.0810    1.8140   -0.2450 C   0  0  0  0  0  0  0  0  0  0  0  0
    1.6240    0.7240    0.5610 C   0  0  0  0  0  0  0  0  0  0  0  0
    2.4580    1.0060    1.4690 O   0  0  0  0  0  0  0  0  0  0  0  0
    1.2200   -0.6100    0.3230 N   0  0  0  0  0  0  0  0  0  0  0  0
    1.7080   -1.6690    1.1780 C   0  0  0  0  0  0  0  0  0  0  0  0
    3.2480   -2.3070    0.4690 S   0  0  0  0  0  0  0  0  0  0  0  0
    4.5560   -1.1060    0.5030 C   0  0  0  0  0  0  0  0  0  0  0  0
    4.7900   -0.2240   -0.5120 C   0  0  0  0  0  0  0  0  0  0  0  0
    5.8130    0.6740   -0.4220 C   0  0  0  0  0  0  0  0  0  0  0  0
    6.6020    0.6730    0.7100 C   0  0  0  0  0  0  0  0  0  0  0  0
    6.3750   -0.1830    1.6960 N   0  0  0  0  0  0  0  0  0  0  0  0
    5.3740   -1.0710    1.6210 C   0  0  0  0  0  0  0  0  0  0  0  0
    0.3310   -0.8810   -0.7740 C   0  0  0  0  0  0  0  0  0  0  0  0
  1  2  1  0
  3  2  1  6
  3  4  1  0
  3 14  1  0
  3 27  1  0
  4  5  1  6
  4  6  1  0
  4 10  1  0
  6  7  1  0
  7  8  1  0
  8  9  1  0
  9 10  1  0
 10 11  1  1
 11 12  1  0
 11 13  2  0
 14 15  1  0
 15 16  1  0
 16 17  2  0
 16 18  1  0
 18 19  1  0
 18 27  1  0
 19 20  1  0
 20 21  1  0
 21 22  2  0
 21 26  1  0
 22 23  1  0
 23 24  2  0
 24 25  1  0
 25 26  2  0
M  END
