
     RDKit          3D

 27 29  0  0  0  0  0  0  0  0999 V2000
    6.3260   -0.5610   -2.3910 C   0  0  0  0  0  0  0  0  0  0  0  0
    5.7230   -0.0840   -1.1310 N   0  0  0  0  0  0  0  0  0  0  0  0
    4.3920    0.3540   -1.0140 C   0  0  0  0  0  0  0  0  0  0  0  0
    3.6650    0.3420   -2.0690 O   0  0  0  0  0  0  0  0  0  0  0  0
    3.7890    0.8300    0.3060 C   0  0  2  0  0  0  0  0  0  0  0  0
    5.2090    1.4150    1.2580 S   0  0  0  0  0  0  0  0  0  0  0  0
    5.3100   -0.0850    2.3330 C   0  0  0  0  0  0  0  0  0  0  0  0
    3.8820   -0.4450    2.4050 C   0  0  0  0  0  0  0  0  0  0  0  0
    3.2110   -0.3220    1.0350 C   0  0  1  0  0  0  0  0  0  0  0  0
    1.7590   -0.0980    1.3800 C   0  0  0  0  0  0  0  0  0  0  0  0
    0.8620    0.2200    0.2950 N   0  0  0  0  0  0  0  0  0  0  0  0
   -0.5660    0.1280    0.5830 C   0  0  0  0  0  0  0  0  0  0  0  0
   -0.7710   -0.2700    1.7290 O   0  0  0  0  0  0  0  0  0  0  0  0
   -1.5350    0.4550   -0.3950 C   0  0  1  0  0  0  0  0  0  0  0  0
   -1.3880   -0.1050   -1.7260 N   0  0  0  0  0  0  0  0  0  0  0  0
   -2.1950    0.5780   -2.7200 C   0  0  0  0  0  0  0  0  0  0  0  0
   -3.4550    0.9370   -2.4350 C   0  0  0  0  0  0  0  0  0  0  0  0
   -4.3470    1.6170   -3.3730 C   0  0  0  0  0  0  0  0  0  0  0  0
   -3.8720    0.6530   -1.0340 C   0  0  0  0  0  0  0  0  0  0  0  0
   -5.2410    0.5620   -0.7930 C   0  0  0  0  0  0  0  0  0  0  0  0
   -6.1470    1.1100   -1.6770 O   0  0  0  0  0  0  0  0  0  0  0  0
   -5.7190   -0.0950    0.3510 C   0  0  0  0  0  0  0  0  0  0  0  0
   -4.8090   -0.6320    1.2070 C   0  0  0  0  0  0  0  0  0  0  0  0
   -3.4130   -0.5590    1.0110 C   0  0  0  0  0  0  0  0  0  0  0  0
   -2.6030   -1.1640    1.9570 O   0  0  0  0  0  0  0  0  0  0  0  0
   -3.1810   -1.8140    3.0580 C   0  0  0  0  0  0  0  0  0  0  0  0
   -2.9820    0.0930   -0.1120 C   0  0  0  0  0  0  0  0  0  0  0  0
  1  2  1  0
  2  3  1  0
  3  4  2  0
  5  3  1  6
  5  6  1  0
  5  9  1  0
  6  7  1  0
  7  8  1  0
  8  9  1  0
  9 10  1  1
 10 11  1  0
 11 12  1  0
 12 13  2  0
 14 12  1  1
 14 15  1  0
 14 27  1  0
 15 16  1  0
 16 17  2  0
 17 18  1  0
 17 19  1  0
 19 20  2  0
 19 27  1  0
 20 21  1  0
 20 22  1  0
 22 23  2  0
 23 24  1  0
 24 25  1  0
 24 27  2  0
 25 26  1  0
M  END
