
     RDKit          3D

 27 29  0  0  0  0  0  0  0  0999 V2000
    0.4130   -5.1920    0.0510 C   0  0  0  0  0  0  0  0  0  0  0  0
    0.6450   -3.8450   -0.0670 O   0  0  0  0  0  0  0  0  0  0  0  0
    0.3910   -3.1220    1.0690 C   0  0  0  0  0  0  0  0  0  0  0  0
    0.7070   -1.6430    0.7390 C   0  0  2  0  0  0  0  0  0  0  0  0
   -0.1580   -1.3530   -0.3660 N   0  0  0  0  0  0  0  0  0  0  0  0
   -1.4630   -0.7750   -0.1430 C   0  0  0  0  0  0  0  0  0  0  0  0
   -1.8300   -0.5350    1.0320 O   0  0  0  0  0  0  0  0  0  0  0  0
   -2.3320   -0.4720   -1.1930 N   0  0  0  0  0  0  0  0  0  0  0  0
   -3.6280    0.1080   -1.1900 C   0  0  0  0  0  0  0  0  0  0  0  0
   -3.8230    1.4890   -0.7050 C   0  0  2  0  0  0  0  0  0  0  0  0
   -3.7250    1.6150    0.7900 C   0  0  0  0  0  0  0  0  0  0  0  0
   -4.7120    2.7500    1.1050 C   0  0  0  0  0  0  0  0  0  0  0  0
   -5.1700    3.1290   -0.2870 C   0  0  0  0  0  0  0  0  0  0  0  0
   -5.2070    1.8520   -0.8850 O   0  0  0  0  0  0  0  0  0  0  0  0
    2.1440   -1.4230    0.5150 C   0  0  0  0  0  0  0  0  0  0  0  0
    2.9540   -2.4230    0.6620 C   0  0  0  0  0  0  0  0  0  0  0  0
    4.4040   -2.4080    0.4830 C   0  0  0  0  0  0  0  0  0  0  0  0
    4.9230   -1.1320    0.1510 N   0  0  0  0  0  0  0  0  0  0  0  0
    4.0990    0.0010   -0.0240 C   0  0  0  0  0  0  0  0  0  0  0  0
    4.6960    1.0780   -0.3310 O   0  0  0  0  0  0  0  0  0  0  0  0
    2.6680   -0.0880    0.1480 C   0  0  0  0  0  0  0  0  0  0  0  0
    1.8730    0.9170    0.0540 C   0  0  0  0  0  0  0  0  0  0  0  0
    2.2210    2.2640   -0.2980 C   0  0  0  0  0  0  0  0  0  0  0  0
    2.8650    2.7880   -1.3790 C   0  0  0  0  0  0  0  0  0  0  0  0
    3.0830    4.0990   -1.4380 C   0  0  0  0  0  0  0  0  0  0  0  0
    2.6550    4.9070   -0.4100 C   0  0  0  0  0  0  0  0  0  0  0  0
    1.8870    3.7100    0.7230 S   0  0  0  0  0  0  0  0  0  0  0  0
  1  2  1  0
  2  3  1  0
  4  3  1  6
  4  5  1  0
  4 15  1  0
  5  6  1  0
  6  7  2  0
  6  8  1  0
  8  9  1  0
 10  9  1  1
 10 11  1  0
 10 14  1  0
 11 12  1  0
 12 13  1  0
 13 14  1  0
 15 16  2  0
 15 21  1  0
 16 17  1  0
 17 18  1  0
 18 19  1  0
 19 20  2  0
 19 21  1  0
 21 22  2  3
 22 23  1  0
 23 24  2  0
 23 27  1  0
 24 25  1  0
 25 26  2  0
 26 27  1  0
M  END
