
     RDKit          3D

 16 17  0  0  0  0  0  0  0  0999 V2000
   -2.1550    1.3270    1.3720 C   0  0  0  0  0  0  0  0  0  0  0  0
   -1.9850    1.7580   -0.0740 C   0  0  0  0  0  0  0  0  0  0  0  0
   -2.1100    0.5430   -0.9030 C   0  0  0  0  0  0  0  0  0  0  0  0
   -3.2670    0.2090   -1.6470 C   0  0  0  0  0  0  0  0  0  0  0  0
   -2.9770   -0.9960   -2.2220 C   0  0  0  0  0  0  0  0  0  0  0  0
   -1.7520   -1.3690   -1.8640 N   0  0  0  0  0  0  0  0  0  0  0  0
   -1.1650   -0.4520   -1.0440 C   0  0  0  0  0  0  0  0  0  0  0  0
    0.1450   -0.6300   -0.4050 C   0  0  0  0  0  0  0  0  0  0  0  0
    1.0670    0.3970   -0.3090 C   0  0  0  0  0  0  0  0  0  0  0  0
    2.2830    0.2520    0.3560 C   0  0  0  0  0  0  0  0  0  0  0  0
    3.1370    1.3290    0.4010 O   0  0  0  0  0  0  0  0  0  0  0  0
    4.3830    1.3410    1.0250 C   0  0  0  0  0  0  0  0  0  0  0  0
    2.6060   -0.9330    0.9440 C   0  0  0  0  0  0  0  0  0  0  0  0
    1.7380   -1.9630    0.8770 C   0  0  0  0  0  0  0  0  0  0  0  0
    0.5060   -1.8140    0.2040 C   0  0  0  0  0  0  0  0  0  0  0  0
   -0.3280   -2.9040    0.1930 O   0  0  0  0  0  0  0  0  0  0  0  0
  1  2  1  0
  2  3  1  0
  3  4  1  0
  3  7  2  0
  4  5  2  0
  5  6  1  0
  6  7  1  0
  7  8  1  0
  8  9  2  0
  8 15  1  0
  9 10  1  0
 10 11  1  0
 10 13  2  0
 11 12  1  0
 13 14  1  0
 14 15  2  0
 15 16  1  0
M  END
