
     RDKit          3D

 11 11  0  0  0  0  0  0  0  0999 V2000
    3.4190    1.0110    0.2910 C   0  0  0  0  0  0  0  0  0  0  0  0
    3.1460    0.0390   -0.8180 C   0  0  0  0  0  0  0  0  0  0  0  0
    1.8150   -0.6510   -0.6760 C   0  0  0  0  0  0  0  0  0  0  0  0
    0.7080    0.2880   -0.6770 N   0  0  0  0  0  0  0  0  0  0  0  0
   -0.1800   -0.0660    0.3750 C   0  0  2  0  0  0  0  0  0  0  0  0
   -0.3090   -1.5490    0.6080 C   0  0  0  0  0  0  0  0  0  0  0  0
   -1.7930   -1.8320    0.7270 C   0  0  0  0  0  0  0  0  0  0  0  0
   -2.3150   -0.4790    1.2160 C   0  0  0  0  0  0  0  0  0  0  0  0
   -1.5770    0.4440    0.2330 C   0  0  1  0  0  0  0  0  0  0  0  0
   -1.7440    1.8660    0.7080 C   0  0  0  0  0  0  0  0  0  0  0  0
   -2.1900    0.2440   -1.1040 C   0  0  0  0  0  0  0  0  0  0  0  0
  1  2  1  0
  2  3  1  0
  3  4  1  0
  5  4  1  6
  5  6  1  0
  5  9  1  0
  6  7  1  0
  7  8  1  0
  8  9  1  0
  9 10  1  1
  9 11  1  0
M  CHG  1   4   1
M  END
