
     RDKit          3D

 16 17  0  0  0  0  0  0  0  0999 V2000
   -3.8660    0.7640    0.7550 C   0  0  0  0  0  0  0  0  0  0  0  0
   -2.5600    0.2190    0.2440 C   0  0  0  0  0  0  0  0  0  0  0  0
   -2.4560   -1.1470    0.0760 C   0  0  0  0  0  0  0  0  0  0  0  0
   -1.2780   -1.6880   -0.3860 C   0  0  0  0  0  0  0  0  0  0  0  0
   -1.1220   -3.1020   -0.5770 N   0  0  0  0  0  0  0  0  0  0  0  0
   -0.2410   -0.8110   -0.6610 C   0  0  0  0  0  0  0  0  0  0  0  0
   -0.3090    0.5550   -0.5050 C   0  0  0  0  0  0  0  0  0  0  0  0
    0.7310    1.4100   -0.7850 O   0  0  0  0  0  0  0  0  0  0  0  0
    2.0010    1.1640   -1.2430 C   0  0  0  0  0  0  0  0  0  0  0  0
    2.8670    0.3310   -0.3890 C   0  0  0  0  0  0  0  0  0  0  0  0
    3.4430   -0.8830   -0.6340 C   0  0  0  0  0  0  0  0  0  0  0  0
    4.1550   -1.2150    0.4990 C   0  0  0  0  0  0  0  0  0  0  0  0
    3.9810   -0.1850    1.3890 C   0  0  0  0  0  0  0  0  0  0  0  0
    3.2210    0.7050    0.8390 O   0  0  0  0  0  0  0  0  0  0  0  0
   -1.5250    1.0790   -0.0330 C   0  0  0  0  0  0  0  0  0  0  0  0
   -1.6290    2.5550    0.1440 C   0  0  0  0  0  0  0  0  0  0  0  0
  1  2  1  0
  2  3  2  0
  2 15  1  0
  3  4  1  0
  4  5  1  0
  4  6  2  0
  6  7  1  0
  7  8  1  0
  7 15  2  0
  8  9  1  0
  9 10  1  0
 10 11  2  0
 10 14  1  0
 11 12  1  0
 12 13  2  0
 13 14  1  0
 15 16  1  0
M  END
