
     RDKit          3D

 11 10  0  0  0  0  0  0  0  0999 V2000
    5.5440   -0.0040    0.2150 C   0  0  0  0  0  0  0  0  0  0  0  0
    4.2170    0.3720   -0.3230 C   0  0  0  0  0  0  0  0  0  0  0  0
    3.1290   -0.1530    0.2170 C   0  0  0  0  0  0  0  0  0  0  0  0
    1.8120    0.1920   -0.2840 C   0  0  0  0  0  0  0  0  0  0  0  0
    0.7530   -0.3510    0.2800 C   0  0  0  0  0  0  0  0  0  0  0  0
   -0.5850   -0.0390   -0.1840 C   0  0  0  0  0  0  0  0  0  0  0  0
   -0.7310    0.9130   -1.3150 C   0  0  0  0  0  0  0  0  0  0  0  0
   -1.6230   -0.6020    0.4040 C   0  0  0  0  0  0  0  0  0  0  0  0
   -3.0200   -0.3260   -0.0200 C   0  0  2  0  0  0  0  0  0  0  0  0
   -3.4560    0.9430    0.6500 C   0  0  0  0  0  0  0  0  0  0  0  0
   -3.8900   -1.4490    0.3280 N   0  0  0  0  0  0  0  0  0  0  0  0
  1  2  1  0
  2  3  2  3
  3  4  1  0
  4  5  2  3
  5  6  1  0
  6  7  1  0
  6  8  2  3
  8  9  1  0
  9 10  1  1
  9 11  1  0
M  CHG  1  11   1
M  END
