
     RDKit          3D

 11 11  0  0  0  0  0  0  0  0999 V2000
    0.4960    2.5470   -0.2730 C   0  0  0  0  0  0  0  0  0  0  0  0
   -0.0720    1.3700   -0.0690 C   0  0  0  0  0  0  0  0  0  0  0  0
   -1.5190    1.2810   -0.0140 C   0  0  0  0  0  0  0  0  0  0  0  0
   -2.0930    0.1280    0.1870 C   0  0  0  0  0  0  0  0  0  0  0  0
   -3.6030    0.0920    0.2350 C   0  0  0  0  0  0  0  0  0  0  0  0
   -1.4240   -1.1560    0.3730 C   0  0  0  0  0  0  0  0  0  0  0  0
    0.0510   -1.1430    0.3610 C   0  0  0  0  0  0  0  0  0  0  0  0
    0.7060    0.1430    0.1050 C   0  0  0  0  0  0  0  0  0  0  0  0
    2.0200    0.1510    0.0380 C   0  0  0  0  0  0  0  0  0  0  0  0
    2.7670   -1.0770    0.2140 C   0  0  0  0  0  0  0  0  0  0  0  0
    4.0610   -1.0890    0.1510 N   0  0  0  0  0  0  0  0  0  0  0  0
  1  2  2  0
  2  3  1  0
  2  8  1  0
  3  4  2  0
  4  5  1  0
  4  6  1  0
  6  7  1  0
  7  8  1  0
  8  9  2  3
  9 10  1  0
 10 11  2  0
M  CHG  1  11   1
M  END
