
     RDKit          3D

 11 10  0  0  0  0  0  0  0  0999 V2000
   -5.4640    0.4560   -0.7480 C   0  0  0  0  0  0  0  0  0  0  0  0
   -4.2830    0.5450    0.1230 C   0  0  0  0  0  0  0  0  0  0  0  0
   -3.1110    0.1370   -0.2940 C   0  0  0  0  0  0  0  0  0  0  0  0
   -1.9040    0.1950    0.5130 C   0  0  0  0  0  0  0  0  0  0  0  0
   -0.7810   -0.2260    0.0350 C   0  0  0  0  0  0  0  0  0  0  0  0
    0.5150   -0.2060    0.7910 C   0  0  1  0  0  0  0  0  0  0  0  0
    0.9000   -1.6240    1.0520 C   0  0  0  0  0  0  0  0  0  0  0  0
    1.4500    0.5370    0.0090 N   0  0  0  0  0  0  0  0  0  0  0  0
    2.7750    0.0070   -0.0180 C   0  0  1  0  0  0  0  0  0  0  0  0
    3.2700   -0.2060   -1.4510 C   0  0  0  0  0  0  0  0  0  0  0  0
    3.7250    1.0180    0.6350 C   0  0  0  0  0  0  0  0  0  0  0  0
  1  2  1  0
  2  3  2  3
  3  4  1  0
  4  5  2  3
  5  6  1  0
  6  7  1  6
  6  8  1  0
  8  9  1  0
  9 10  1  6
  9 11  1  0
M  CHG  1   8   1
M  END
