
     RDKit          3D

 26 28  0  0  0  0  0  0  0  0999 V2000
    4.3430    0.5410    1.2110 C   0  0  0  0  0  0  0  0  0  0  0  0
    4.2630   -0.4890    0.1100 C   0  0  1  0  0  0  0  0  0  0  0  0
    4.1290   -1.8870    0.7120 C   0  0  0  0  0  0  0  0  0  0  0  0
    3.0740   -0.2800   -0.7490 C   0  0  0  0  0  0  0  0  0  0  0  0
    3.1570   -0.3420   -2.1380 C   0  0  0  0  0  0  0  0  0  0  0  0
    2.0530   -0.1370   -2.9290 C   0  0  0  0  0  0  0  0  0  0  0  0
    0.8180    0.1420   -2.3200 C   0  0  0  0  0  0  0  0  0  0  0  0
    0.6970    0.2100   -0.9660 C   0  0  0  0  0  0  0  0  0  0  0  0
   -0.5560    0.4860   -0.3040 C   0  0  0  0  0  0  0  0  0  0  0  0
   -1.5730   -0.4500   -0.3080 C   0  0  0  0  0  0  0  0  0  0  0  0
   -1.3560   -1.7180   -0.9840 C   0  0  0  0  0  0  0  0  0  0  0  0
   -0.8940   -2.6550   -0.2170 O   0  0  0  0  0  0  0  0  0  0  0  0
   -1.5700   -2.0360   -2.2870 O   0  0  0  0  0  0  0  0  0  0  0  0
   -2.7480   -0.2290    0.4020 C   0  0  0  0  0  0  0  0  0  0  0  0
   -3.9070   -1.1080    0.2830 C   0  0  2  0  0  0  0  0  0  0  0  0
   -4.1130   -2.0760    1.4200 C   0  0  0  0  0  0  0  0  0  0  0  0
   -4.2720   -1.5150   -1.0870 C   0  0  0  0  0  0  0  0  0  0  0  0
   -2.8280    0.9280    1.0810 N   0  0  0  0  0  0  0  0  0  0  0  0
   -1.8660    1.8750    1.1160 C   0  0  0  0  0  0  0  0  0  0  0  0
   -2.0090    3.0780    1.8090 C   0  0  0  0  0  0  0  0  0  0  0  0
   -1.0150    4.0340    1.7940 C   0  0  0  0  0  0  0  0  0  0  0  0
    0.1430    3.8070    1.0870 C   0  0  0  0  0  0  0  0  0  0  0  0
    1.4220    5.0170    1.0500 Cl  0  0  0  0  0  0  0  0  0  0  0  0
    0.3120    2.6320    0.3960 C   0  0  0  0  0  0  0  0  0  0  0  0
   -0.7060    1.6610    0.4140 C   0  0  0  0  0  0  0  0  0  0  0  0
    1.8390   -0.0030   -0.1960 C   0  0  0  0  0  0  0  0  0  0  0  0
  2  1  1  1
  2  3  1  0
  2  4  1  0
  4  5  2  0
  4 26  1  0
  5  6  1  0
  6  7  2  0
  7  8  1  0
  8  9  1  0
  8 26  2  0
  9 10  2  0
  9 25  1  0
 10 11  1  0
 10 14  1  0
 11 12  2  0
 11 13  1  0
 14 15  1  0
 14 18  2  0
 15 16  1  1
 15 17  1  0
 18 19  1  0
 19 20  2  0
 19 25  1  0
 20 21  1  0
 21 22  2  0
 22 23  1  0
 22 24  1  0
 24 25  2  0
M  END
