
     RDKit          3D

 16 17  0  0  0  0  0  0  0  0999 V2000
    0.6860    0.6610   -0.2390 O   0  0  0  0  0  0  0  0  0  0  0  0
    0.3820   -0.4560    0.2350 C   0  0  0  0  0  0  0  0  0  0  0  0
    1.4660   -1.4240    0.6070 C   0  0  0  0  0  0  0  0  0  0  0  0
    2.7900   -0.8540    0.3330 C   0  0  0  0  0  0  0  0  0  0  0  0
    3.6800   -1.3850   -0.4990 C   0  0  0  0  0  0  0  0  0  0  0  0
    4.9060   -0.5660   -0.5470 C   0  0  0  0  0  0  0  0  0  0  0  0
    4.5800    0.5440    0.4070 C   0  0  0  0  0  0  0  0  0  0  0  0
    3.3680    0.3540    0.8930 C   0  0  0  0  0  0  0  0  0  0  0  0
   -0.9560   -0.8420    0.4330 N   0  0  0  0  0  0  0  0  0  0  0  0
   -2.1080   -0.0760    0.1430 C   0  0  0  0  0  0  0  0  0  0  0  0
   -3.3590   -0.5680    0.5490 C   0  0  0  0  0  0  0  0  0  0  0  0
   -4.5160    0.1270    0.2910 C   0  0  0  0  0  0  0  0  0  0  0  0
   -4.5270    1.3330   -0.3730 C   0  0  0  0  0  0  0  0  0  0  0  0
   -5.7220    2.0100   -0.6180 O   0  0  0  0  0  0  0  0  0  0  0  0
   -3.3110    1.8270   -0.7770 C   0  0  0  0  0  0  0  0  0  0  0  0
   -2.1250    1.1170   -0.5130 C   0  0  0  0  0  0  0  0  0  0  0  0
  1  2  2  0
  2  3  1  0
  2  9  1  0
  3  4  1  0
  4  5  2  0
  4  8  1  0
  5  6  1  0
  6  7  1  0
  7  8  2  0
  9 10  1  0
 10 11  2  0
 10 16  1  0
 11 12  1  0
 12 13  2  0
 13 14  1  0
 13 15  1  0
 15 16  2  0
M  END
