
     RDKit          3D

 20 22  0  0  0  0  0  0  0  0999 V2000
   -4.6140    2.0860   -1.0720 O   0  0  0  0  0  0  0  0  0  0  0  0
   -3.9260    0.9540   -0.6580 C   0  0  0  0  0  0  0  0  0  0  0  0
   -4.6460   -0.0830   -0.0980 C   0  0  0  0  0  0  0  0  0  0  0  0
   -3.9560   -1.2030    0.3100 C   0  0  0  0  0  0  0  0  0  0  0  0
   -2.5860   -1.3180    0.1800 C   0  0  0  0  0  0  0  0  0  0  0  0
   -1.8940   -0.2590   -0.3850 C   0  0  0  0  0  0  0  0  0  0  0  0
   -2.5580    0.8600   -0.7970 C   0  0  0  0  0  0  0  0  0  0  0  0
   -1.8840    1.9280   -1.3640 O   0  0  0  0  0  0  0  0  0  0  0  0
   -0.5120   -0.4120   -0.5010 O   0  0  0  0  0  0  0  0  0  0  0  0
    0.2440   -1.1860    0.4150 C   0  0  1  0  0  0  0  0  0  0  0  0
    0.5460   -0.2520    1.5950 C   0  0  0  0  0  0  0  0  0  0  0  0
    1.2790    0.8750    1.1680 O   0  0  0  0  0  0  0  0  0  0  0  0
    2.4990    0.8600    0.5730 C   0  0  0  0  0  0  0  0  0  0  0  0
    3.3510   -0.1210    0.7810 C   0  0  0  0  0  0  0  0  0  0  0  0
    4.6920   -0.1960    0.1650 C   0  0  0  0  0  0  0  0  0  0  0  0
    4.9370    0.9090   -0.6660 O   0  0  0  0  0  0  0  0  0  0  0  0
    4.0870    1.9530   -0.9150 C   0  0  0  0  0  0  0  0  0  0  0  0
    2.8930    1.9400   -0.3150 C   0  0  0  0  0  0  0  0  0  0  0  0
   -0.5020   -2.3600    0.9600 C   0  0  0  0  0  0  0  0  0  0  0  0
   -1.8550   -2.4110    0.5710 O   0  0  0  0  0  0  0  0  0  0  0  0
  1  2  1  0
  2  3  2  0
  2  7  1  0
  3  4  1  0
  4  5  2  0
  5  6  1  0
  5 20  1  0
  6  7  2  0
  6  9  1  0
  7  8  1  0
  9 10  1  0
 10 11  1  1
 10 19  1  0
 11 12  1  0
 12 13  1  0
 13 14  2  0
 13 18  1  0
 14 15  1  0
 15 16  1  0
 16 17  1  0
 17 18  2  0
 19 20  1  0
M  END
