
     RDKit          3D

 20 21  0  0  0  0  0  0  0  0999 V2000
    5.4240    0.5010   -0.5230 C   0  0  0  0  0  0  0  0  0  0  0  0
    4.1470   -0.0720   -0.2850 O   0  0  0  0  0  0  0  0  0  0  0  0
    3.3950    0.2170    0.8480 C   0  0  0  0  0  0  0  0  0  0  0  0
    4.0630    0.4950    1.9600 C   0  0  0  0  0  0  0  0  0  0  0  0
    3.3580    0.7910    3.1210 O   0  0  0  0  0  0  0  0  0  0  0  0
    1.9400    0.2170    0.8200 C   0  0  0  0  0  0  0  0  0  0  0  0
    1.3060   -0.0640   -0.3040 C   0  0  0  0  0  0  0  0  0  0  0  0
    1.9150   -0.3760   -1.5280 O   0  0  0  0  0  0  0  0  0  0  0  0
    0.9550   -1.1030   -2.3010 C   0  0  0  0  0  0  0  0  0  0  0  0
   -0.2520   -0.4680   -1.9330 O   0  0  0  0  0  0  0  0  0  0  0  0
   -0.1210   -0.1300   -0.5920 C   0  0  0  0  0  0  0  0  0  0  0  0
   -1.0660    0.0980    0.2920 C   0  0  0  0  0  0  0  0  0  0  0  0
   -2.4940    0.0450    0.0600 C   0  0  0  0  0  0  0  0  0  0  0  0
   -3.3360    1.0090    0.6190 C   0  0  0  0  0  0  0  0  0  0  0  0
   -4.7020    1.0030    0.4410 C   0  0  0  0  0  0  0  0  0  0  0  0
   -5.5190    1.9880    1.0180 O   0  0  0  0  0  0  0  0  0  0  0  0
   -5.2700    0.0060   -0.3210 C   0  0  0  0  0  0  0  0  0  0  0  0
   -4.4790   -0.9650   -0.8900 C   0  0  0  0  0  0  0  0  0  0  0  0
   -3.0940   -0.9320   -0.6910 C   0  0  0  0  0  0  0  0  0  0  0  0
   -2.2880   -1.9080   -1.2600 O   0  0  0  0  0  0  0  0  0  0  0  0
  1  2  1  0
  2  3  1  0
  3  4  2  3
  3  6  1  0
  4  5  1  0
  6  7  2  3
  7  8  1  0
  7 11  1  0
  8  9  1  0
  9 10  1  0
 10 11  1  0
 11 12  2  3
 12 13  1  0
 13 14  2  0
 13 19  1  0
 14 15  1  0
 15 16  1  0
 15 17  2  0
 17 18  1  0
 18 19  2  0
 19 20  1  0
M  END
