
     RDKit          3D

 20 22  0  0  0  0  0  0  0  0999 V2000
    4.7480   -1.5820    0.3580 C   0  0  0  0  0  0  0  0  0  0  0  0
    3.6600   -0.6700   -0.0260 C   0  0  0  0  0  0  0  0  0  0  0  0
    2.4050   -0.8600    0.5380 C   0  0  0  0  0  0  0  0  0  0  0  0
    1.3780   -0.0200    0.1880 C   0  0  0  0  0  0  0  0  0  0  0  0
    0.0550    0.0250    0.5810 C   0  0  0  0  0  0  0  0  0  0  0  0
   -0.5090    1.0820   -0.0950 C   0  0  0  0  0  0  0  0  0  0  0  0
   -1.8970    1.5070    0.0070 C   0  0  0  0  0  0  0  0  0  0  0  0
   -2.9810    0.7930   -0.1410 C   0  0  0  0  0  0  0  0  0  0  0  0
   -3.1450   -0.6400   -0.4560 C   0  0  1  0  0  0  0  0  0  0  0  0
   -1.9560   -1.2530   -0.7730 O   0  0  0  0  0  0  0  0  0  0  0  0
   -3.8120   -1.4160    0.6640 C   0  0  0  0  0  0  0  0  0  0  0  0
   -3.0600   -1.4630    1.8120 O   0  0  0  0  0  0  0  0  0  0  0  0
   -4.1180    1.6160    0.0540 O   0  0  0  0  0  0  0  0  0  0  0  0
   -3.6620    2.7700    0.7380 C   0  0  0  0  0  0  0  0  0  0  0  0
   -2.3050    2.8270    0.2960 O   0  0  0  0  0  0  0  0  0  0  0  0
    0.4390    1.6310   -0.8490 O   0  0  0  0  0  0  0  0  0  0  0  0
    1.5690    1.0040   -0.7070 C   0  0  0  0  0  0  0  0  0  0  0  0
    2.8460    1.1710   -1.2590 C   0  0  0  0  0  0  0  0  0  0  0  0
    3.9000    0.3430   -0.9280 C   0  0  0  0  0  0  0  0  0  0  0  0
    5.1740    0.5240   -1.4870 O   0  0  0  0  0  0  0  0  0  0  0  0
  1  2  1  0
  2  3  2  0
  2 19  1  0
  3  4  1  0
  4  5  1  0
  4 17  2  0
  5  6  2  0
  6  7  1  0
  6 16  1  0
  7  8  2  0
  7 15  1  0
  8  9  1  0
  8 13  1  0
  9 10  1  1
  9 11  1  0
 11 12  1  0
 13 14  1  0
 14 15  1  0
 16 17  1  0
 17 18  1  0
 18 19  2  0
 19 20  1  0
M  END
