
     RDKit          3D

 20 22  0  0  0  0  0  0  0  0999 V2000
    2.9820   -1.7050   -0.4460 C   0  0  0  0  0  0  0  0  0  0  0  0
    2.4410   -0.5490   -0.1460 C   0  0  0  0  0  0  0  0  0  0  0  0
    3.3110    0.6070    0.1740 C   0  0  0  0  0  0  0  0  0  0  0  0
    2.7780    1.7660    0.4750 C   0  0  0  0  0  0  0  0  0  0  0  0
    1.4080    1.9550    0.5080 O   0  0  0  0  0  0  0  0  0  0  0  0
    0.5330    0.9090    0.2170 C   0  0  0  0  0  0  0  0  0  0  0  0
   -0.8280    1.1090    0.2520 C   0  0  0  0  0  0  0  0  0  0  0  0
   -1.7270    0.0920   -0.0310 C   0  0  0  0  0  0  0  0  0  0  0  0
   -3.0880    0.3480    0.0190 O   0  0  0  0  0  0  0  0  0  0  0  0
   -4.0180   -0.6730   -0.2650 C   0  0  0  0  0  0  0  0  0  0  0  0
   -5.4230   -0.0910   -0.1290 C   0  0  0  0  0  0  0  0  0  0  0  0
   -5.5400    0.9480   -1.0330 O   0  0  0  0  0  0  0  0  0  0  0  0
   -1.2440   -1.1520   -0.3560 C   0  0  0  0  0  0  0  0  0  0  0  0
    0.1040   -1.3860   -0.4000 C   0  0  0  0  0  0  0  0  0  0  0  0
    0.5260   -2.6430   -0.7290 O   0  0  0  0  0  0  0  0  0  0  0  0
    1.0030   -0.3670   -0.1170 C   0  0  0  0  0  0  0  0  0  0  0  0
    3.8500    2.7470    0.7510 C   0  0  0  0  0  0  0  0  0  0  0  0
    3.7130    3.9580    1.0720 O   0  0  0  0  0  0  0  0  0  0  0  0
    5.0250    2.0570    0.5830 O   0  0  0  0  0  0  0  0  0  0  0  0
    4.7910    0.7270    0.2260 C   0  0  0  0  0  0  0  0  0  0  0  0
  1  2  2  0
  2  3  1  0
  2 16  1  0
  3  4  2  0
  3 20  1  0
  4  5  1  0
  4 17  1  0
  5  6  1  0
  6  7  2  0
  6 16  1  0
  7  8  1  0
  8  9  1  0
  8 13  2  0
  9 10  1  0
 10 11  1  0
 11 12  1  0
 13 14  1  0
 14 15  1  0
 14 16  2  0
 17 18  2  0
 17 19  1  0
 19 20  1  0
M  END
