
     RDKit          3D

 19 20  0  0  0  0  0  0  0  0999 V2000
   -4.4190    1.1340    0.6340 C   0  0  0  0  0  0  0  0  0  0  0  0
   -3.6440   -0.0090    0.3930 O   0  0  0  0  0  0  0  0  0  0  0  0
   -2.2650    0.0300    0.3140 C   0  0  0  0  0  0  0  0  0  0  0  0
   -1.5510    0.9540    0.9380 C   0  0  0  0  0  0  0  0  0  0  0  0
   -0.0980    1.0240    0.8770 C   0  0  0  0  0  0  0  0  0  0  0  0
    0.6130    2.0250    1.5600 O   0  0  0  0  0  0  0  0  0  0  0  0
    0.5320    0.1120    0.1570 C   0  0  0  0  0  0  0  0  0  0  0  0
    1.9820    0.1340    0.0600 C   0  0  0  0  0  0  0  0  0  0  0  0
    2.6390    1.3530   -0.1400 C   0  0  0  0  0  0  0  0  0  0  0  0
    4.0080    1.3160   -0.2170 C   0  0  0  0  0  0  0  0  0  0  0  0
    4.7070    2.5090   -0.4160 O   0  0  0  0  0  0  0  0  0  0  0  0
    4.7360    0.1540   -0.1080 C   0  0  0  0  0  0  0  0  0  0  0  0
    4.1030   -1.0470    0.0890 C   0  0  0  0  0  0  0  0  0  0  0  0
    2.7080   -1.0270    0.1700 C   0  0  0  0  0  0  0  0  0  0  0  0
    2.1390   -2.2780    0.3730 O   0  0  0  0  0  0  0  0  0  0  0  0
   -0.2030   -0.8540   -0.5020 O   0  0  0  0  0  0  0  0  0  0  0  0
   -1.5830   -1.0020   -0.4990 C   0  0  1  0  0  0  0  0  0  0  0  0
   -1.9570   -2.3480    0.1370 C   0  0  0  0  0  0  0  0  0  0  0  0
   -2.1880   -1.0320   -1.8980 C   0  0  0  0  0  0  0  0  0  0  0  0
  1  2  1  0
  2  3  1  0
  3  4  2  0
  3 17  1  0
  4  5  1  0
  5  6  1  0
  5  7  2  0
  7  8  1  0
  7 16  1  0
  8  9  2  0
  8 14  1  0
  9 10  1  0
 10 11  1  0
 10 12  2  0
 12 13  1  0
 13 14  2  0
 14 15  1  0
 16 17  1  0
 17 18  1  1
 17 19  1  0
M  END
