
     RDKit          3D

 20 22  0  0  0  0  0  0  0  0999 V2000
    5.4450   -1.5280   -0.9130 O   0  0  0  0  0  0  0  0  0  0  0  0
    4.5440   -0.5860   -0.4060 C   0  0  0  0  0  0  0  0  0  0  0  0
    5.0340    0.4220    0.4140 C   0  0  0  0  0  0  0  0  0  0  0  0
    4.1760    1.3900    0.9470 C   0  0  0  0  0  0  0  0  0  0  0  0
    2.8310    1.3390    0.6540 C   0  0  0  0  0  0  0  0  0  0  0  0
    2.0040    2.3090    1.1950 O   0  0  0  0  0  0  0  0  0  0  0  0
    2.3420    0.3440   -0.1570 C   0  0  0  0  0  0  0  0  0  0  0  0
    1.0050    0.2810   -0.4590 O   0  0  0  0  0  0  0  0  0  0  0  0
    0.4230   -0.6950   -1.2730 C   0  0  0  0  0  0  0  0  0  0  0  0
   -0.9690   -0.4420   -1.3580 O   0  0  0  0  0  0  0  0  0  0  0  0
   -1.7060   -0.4520   -0.1730 C   0  0  0  0  0  0  0  0  0  0  0  0
   -1.2590   -0.6800    1.1110 C   0  0  0  0  0  0  0  0  0  0  0  0
   -2.2800   -0.5950    1.9020 O   0  0  0  0  0  0  0  0  0  0  0  0
   -3.3830   -0.3240    1.2270 C   0  0  0  0  0  0  0  0  0  0  0  0
   -3.0890   -0.2190   -0.1120 C   0  0  0  0  0  0  0  0  0  0  0  0
   -3.9860    0.0460   -1.0410 C   0  0  0  0  0  0  0  0  0  0  0  0
   -5.4000    0.2520   -0.6980 C   0  0  0  0  0  0  0  0  0  0  0  0
   -5.6100    0.1290    0.6730 O   0  0  0  0  0  0  0  0  0  0  0  0
   -4.6470   -0.1470    1.5940 C   0  0  0  0  0  0  0  0  0  0  0  0
    3.2030   -0.6230   -0.6900 C   0  0  0  0  0  0  0  0  0  0  0  0
  1  2  1  0
  2  3  2  0
  2 20  1  0
  3  4  1  0
  4  5  2  0
  5  6  1  0
  5  7  1  0
  7  8  1  0
  7 20  2  0
  8  9  1  0
  9 10  1  0
 10 11  1  0
 11 12  2  0
 11 15  1  0
 12 13  1  0
 13 14  1  0
 14 15  1  0
 14 19  2  0
 15 16  2  0
 16 17  1  0
 17 18  1  0
 18 19  1  0
M  END
