
     RDKit          3D

 20 22  0  0  0  0  0  0  0  0999 V2000
   -2.8080    1.3880   -3.0060 O   0  0  0  0  0  0  0  0  0  0  0  0
   -3.6590    1.1270   -1.9540 C   0  0  0  0  0  0  0  0  0  0  0  0
   -2.9470    0.6660   -0.7130 C   0  0  0  0  0  0  0  0  0  0  0  0
   -2.2140   -0.5230   -0.9160 O   0  0  0  0  0  0  0  0  0  0  0  0
   -1.5190   -1.0350    0.1670 C   0  0  0  0  0  0  0  0  0  0  0  0
   -2.0110   -1.9250    1.0740 C   0  0  0  0  0  0  0  0  0  0  0  0
   -3.3310   -2.3630    0.9020 O   0  0  0  0  0  0  0  0  0  0  0  0
   -1.2390   -2.3800    2.1240 C   0  0  0  0  0  0  0  0  0  0  0  0
   -1.8240   -3.2930    3.0070 O   0  0  0  0  0  0  0  0  0  0  0  0
    0.0420   -1.9370    2.2660 C   0  0  0  0  0  0  0  0  0  0  0  0
    0.5880   -1.0240    1.3590 C   0  0  0  0  0  0  0  0  0  0  0  0
   -0.1980   -0.5950    0.3360 C   0  0  0  0  0  0  0  0  0  0  0  0
    0.3100    0.3090   -0.5810 O   0  0  0  0  0  0  0  0  0  0  0  0
    1.6050    0.7910   -0.4820 C   0  0  0  0  0  0  0  0  0  0  0  0
    2.3740    0.3910    0.4930 C   0  0  0  0  0  0  0  0  0  0  0  0
    3.7290    1.0670    0.3660 C   0  0  0  0  0  0  0  0  0  0  0  0
    3.3610    2.3240   -0.3560 C   0  0  0  0  0  0  0  0  0  0  0  0
    2.3470    1.7690   -1.3630 C   0  0  0  0  0  0  0  0  0  0  0  0
    1.9710   -0.5610    1.5350 C   0  0  2  0  0  0  0  0  0  0  0  0
    2.8710   -1.6290    1.6380 O   0  0  0  0  0  0  0  0  0  0  0  0
  1  2  1  0
  2  3  1  0
  3  4  1  0
  4  5  1  0
  5  6  2  0
  5 12  1  0
  6  7  1  0
  6  8  1  0
  8  9  1  0
  8 10  2  0
 10 11  1  0
 11 12  2  0
 11 19  1  0
 12 13  1  0
 13 14  1  0
 14 15  2  0
 14 18  1  0
 15 16  1  0
 15 19  1  0
 16 17  1  0
 17 18  1  0
 19 20  1  6
M  END
