
     RDKit          3D

 27 30  0  0  0  0  0  0  0  0999 V2000
    0.2360   -2.2820   -1.1240 O   0  0  0  0  0  0  0  0  0  0  0  0
    0.2490   -1.6180   -0.0600 C   0  0  0  0  0  0  0  0  0  0  0  0
    0.5590   -2.2670    1.1190 O   0  0  0  0  0  0  0  0  0  0  0  0
   -0.0630   -0.2050   -0.1220 C   0  0  0  0  0  0  0  0  0  0  0  0
    0.9380    0.7050   -0.3030 C   0  0  0  0  0  0  0  0  0  0  0  0
    2.2700    0.2880   -0.4410 N   0  0  0  0  0  0  0  0  0  0  0  0
    2.8860   -0.4310   -1.5010 C   0  0  0  0  0  0  0  0  0  0  0  0
    3.6910   -1.5570   -0.8320 C   0  0  0  0  0  0  0  0  0  0  0  0
    4.9460   -0.8870   -0.2960 C   0  0  0  0  0  0  0  0  0  0  0  0
    4.6220    0.5070    0.1960 C   0  0  0  0  0  0  0  0  0  0  0  0
    3.1770    0.6310    0.6730 C   0  0  0  0  0  0  0  0  0  0  0  0
    0.5930    2.0280   -0.3510 N   0  0  0  0  0  0  0  0  0  0  0  0
   -0.6770    2.4400   -0.2260 C   0  0  0  0  0  0  0  0  0  0  0  0
   -0.9720    3.7740   -0.2830 C   0  0  0  0  0  0  0  0  0  0  0  0
    0.2420    5.0140   -0.5120 Cl  0  0  0  0  0  0  0  0  0  0  0  0
   -2.2940    4.1630   -0.1520 C   0  0  0  0  0  0  0  0  0  0  0  0
   -3.3140    3.2480    0.0320 C   0  0  0  0  0  0  0  0  0  0  0  0
   -4.9500    3.8000    0.1890 Cl  0  0  0  0  0  0  0  0  0  0  0  0
   -3.0180    1.9200    0.0880 C   0  0  0  0  0  0  0  0  0  0  0  0
   -1.6830    1.5170   -0.0440 C   0  0  0  0  0  0  0  0  0  0  0  0
   -1.3990    0.1720    0.0130 C   0  0  0  0  0  0  0  0  0  0  0  0
   -2.4840   -0.7930    0.2100 C   0  0  0  0  0  0  0  0  0  0  0  0
   -2.7400   -1.3420    1.4510 C   0  0  0  0  0  0  0  0  0  0  0  0
   -3.7520   -2.2450    1.6540 C   0  0  0  0  0  0  0  0  0  0  0  0
   -4.5400   -2.6180    0.5840 C   0  0  0  0  0  0  0  0  0  0  0  0
   -4.3230   -2.0970   -0.6780 C   0  0  0  0  0  0  0  0  0  0  0  0
   -3.2950   -1.1940   -0.8300 C   0  0  0  0  0  0  0  0  0  0  0  0
  1  2  2  0
  2  3  1  0
  2  4  1  0
  4  5  2  0
  4 21  1  0
  5  6  1  0
  5 12  1  0
  6  7  1  0
  6 11  1  0
  7  8  1  0
  8  9  1  0
  9 10  1  0
 10 11  1  0
 12 13  2  0
 13 14  1  0
 13 20  1  0
 14 15  1  0
 14 16  2  0
 16 17  1  0
 17 18  1  0
 17 19  2  0
 19 20  1  0
 20 21  2  0
 21 22  1  0
 22 23  2  0
 22 27  1  0
 23 24  1  0
 24 25  2  0
 25 26  1  0
 26 27  2  0
M  END
