
     RDKit          3D

 27 29  0  0  0  0  0  0  0  0999 V2000
   -0.3010   -1.8480   -2.6130 C   0  0  0  0  0  0  0  0  0  0  0  0
   -0.8140   -0.6030   -2.0580 C   0  0  0  0  0  0  0  0  0  0  0  0
   -1.6460    0.2610   -2.6810 C   0  0  0  0  0  0  0  0  0  0  0  0
   -2.2110    1.3770   -2.1860 C   0  0  0  0  0  0  0  0  0  0  0  0
   -1.9330    1.7590   -0.7960 C   0  0  0  0  0  0  0  0  0  0  0  0
   -2.4940    2.8630   -0.2930 O   0  0  0  0  0  0  0  0  0  0  0  0
   -2.9830    2.9390    1.0320 C   0  0  0  0  0  0  0  0  0  0  0  0
   -3.3530    4.2350    1.5080 C   0  0  0  0  0  0  0  0  0  0  0  0
   -3.8330    4.3490    2.7890 C   0  0  0  0  0  0  0  0  0  0  0  0
   -4.3570    5.9220    3.4000 Cl  0  0  0  0  0  0  0  0  0  0  0  0
   -3.9540    3.2250    3.6110 C   0  0  0  0  0  0  0  0  0  0  0  0
   -3.6270    2.0290    3.2170 C   0  0  0  0  0  0  0  0  0  0  0  0
   -3.6120    0.8270    3.9470 C   0  0  0  0  0  0  0  0  0  0  0  0
   -3.6180   -0.1990    4.5790 N   0  0  0  0  0  0  0  0  0  0  0  0
   -3.1220    1.9010    1.8590 C   0  0  0  0  0  0  0  0  0  0  0  0
   -1.0860    0.8560   -0.2150 C   0  0  0  0  0  0  0  0  0  0  0  0
   -0.5300   -0.2480   -0.7070 C   0  0  0  0  0  0  0  0  0  0  0  0
    0.3370   -1.0840    0.1400 C   0  0  0  0  0  0  0  0  0  0  0  0
    1.6070   -1.2620   -0.2080 C   0  0  0  0  0  0  0  0  0  0  0  0
    2.2210   -0.7300   -1.3150 N   0  0  0  0  0  0  0  0  0  0  0  0
    3.5920   -1.0450   -1.6680 C   0  0  0  0  0  0  0  0  0  0  0  0
    4.0510   -2.3380   -0.9960 C   0  0  1  0  0  0  0  0  0  0  0  0
    5.5390   -2.3920   -1.1840 C   0  0  0  0  0  0  0  0  0  0  0  0
    3.7130   -2.2760    0.3610 O   0  0  0  0  0  0  0  0  0  0  0  0
    2.3630   -2.1200    0.7560 C   0  0  0  0  0  0  0  0  0  0  0  0
    1.9150   -2.6780    1.8280 C   0  0  0  0  0  0  0  0  0  0  0  0
    2.9720   -3.6400    2.8190 Cl  0  0  0  0  0  0  0  0  0  0  0  0
  1  2  1  0
  2  3  2  0
  2 17  1  0
  3  4  1  0
  4  5  2  0
  5  6  1  0
  5 16  1  0
  6  7  1  0
  7  8  2  0
  7 15  1  0
  8  9  1  0
  9 10  1  0
  9 11  2  0
 11 12  1  0
 12 13  1  0
 12 15  2  0
 13 14  3  0
 16 17  2  0
 17 18  1  0
 18 19  2  3
 19 20  1  0
 19 25  1  0
 20 21  1  0
 21 22  1  0
 22 23  1  1
 22 24  1  0
 24 25  1  0
 25 26  2  3
 26 27  1  0
M  END
