
     RDKit          3D

 21 22  0  0  0  0  0  0  0  0999 V2000
    3.2950   -1.7750   -0.9180 C   0  0  0  0  0  0  0  0  0  0  0  0
    4.0490   -0.6500   -0.3970 C   0  0  0  0  0  0  0  0  0  0  0  0
    3.7290    0.4770    0.1510 C   0  0  0  0  0  0  0  0  0  0  0  0
    2.5200    1.1550    0.4960 C   0  0  0  0  0  0  0  0  0  0  0  0
    2.6710    2.3330    1.1560 C   0  0  0  0  0  0  0  0  0  0  0  0
    4.2720    2.8870    1.5090 Cl  0  0  0  0  0  0  0  0  0  0  0  0
    1.1660    0.7050    0.2820 C   0  0  0  0  0  0  0  0  0  0  0  0
    0.2690    0.7490    1.3280 C   0  0  0  0  0  0  0  0  0  0  0  0
    0.7090    1.0870    2.7230 C   0  0  0  0  0  0  0  0  0  0  0  0
   -1.0490    0.4570    1.0580 C   0  0  0  0  0  0  0  0  0  0  0  0
   -1.5190    0.1250   -0.1950 C   0  0  0  0  0  0  0  0  0  0  0  0
   -0.6260    0.0780   -1.2580 C   0  0  0  0  0  0  0  0  0  0  0  0
   -1.0940   -0.2620   -2.5080 C   0  0  0  0  0  0  0  0  0  0  0  0
   -2.4380   -0.5640   -2.7620 C   0  0  0  0  0  0  0  0  0  0  0  0
   -3.2680   -0.5000   -1.6760 C   0  0  0  0  0  0  0  0  0  0  0  0
   -4.4880   -0.7660   -1.8620 O   0  0  0  0  0  0  0  0  0  0  0  0
   -2.8070   -0.1630   -0.4340 N   0  0  0  0  0  0  0  0  0  0  0  0
   -3.7530   -0.1210    0.6550 C   0  0  0  0  0  0  0  0  0  0  0  0
   -3.8650   -1.3900    1.4240 C   0  0  0  0  0  0  0  0  0  0  0  0
    0.7020    0.3730   -0.9920 C   0  0  0  0  0  0  0  0  0  0  0  0
    1.5640    0.3360   -2.0650 O   0  0  0  0  0  0  0  0  0  0  0  0
  1  2  1  0
  2  3  2  3
  3  4  1  0
  4  5  2  3
  4  7  1  0
  5  6  1  0
  7  8  2  0
  7 20  1  0
  8  9  1  0
  8 10  1  0
 10 11  2  0
 11 12  1  0
 11 17  1  0
 12 13  1  0
 12 20  2  0
 13 14  2  0
 14 15  1  0
 15 16  2  0
 15 17  1  0
 17 18  1  0
 18 19  1  0
 20 21  1  0
M  END
