
     RDKit          3D

 21 23  0  0  0  0  0  0  0  0999 V2000
    0.7400    3.7050   -0.9630 C   0  0  0  0  0  0  0  0  0  0  0  0
    0.9690    2.2550   -0.7050 C   0  0  0  0  0  0  0  0  0  0  0  0
    2.2130    1.7120   -0.8640 N   0  0  0  0  0  0  0  0  0  0  0  0
    2.3390    0.3750   -0.6070 C   0  0  0  0  0  0  0  0  0  0  0  0
    3.5840   -0.2300   -0.7560 C   0  0  0  0  0  0  0  0  0  0  0  0
    3.7390   -1.5840   -0.5040 C   0  0  0  0  0  0  0  0  0  0  0  0
    2.6810   -2.3650   -0.1040 C   0  0  0  0  0  0  0  0  0  0  0  0
    2.8460   -4.0780    0.2190 Cl  0  0  0  0  0  0  0  0  0  0  0  0
    1.4310   -1.7610    0.0460 C   0  0  0  0  0  0  0  0  0  0  0  0
    1.2790   -0.4060   -0.2060 C   0  0  0  0  0  0  0  0  0  0  0  0
    0.0270    0.1540   -0.0490 C   0  0  0  0  0  0  0  0  0  0  0  0
   -1.0700   -0.6910    0.3800 C   0  0  0  0  0  0  0  0  0  0  0  0
   -1.3530   -1.0020    1.6940 C   0  0  0  0  0  0  0  0  0  0  0  0
   -2.4160   -1.8180    2.0250 C   0  0  0  0  0  0  0  0  0  0  0  0
   -3.2440   -2.3590    1.0670 C   0  0  0  0  0  0  0  0  0  0  0  0
   -2.9710   -2.0550   -0.2470 C   0  0  0  0  0  0  0  0  0  0  0  0
   -1.9050   -1.2380   -0.5680 C   0  0  0  0  0  0  0  0  0  0  0  0
   -0.1150    1.5050   -0.3060 C   0  0  0  0  0  0  0  0  0  0  0  0
   -1.4110    2.1380   -0.1550 C   0  0  0  0  0  0  0  0  0  0  0  0
   -2.1830    2.1740   -1.1500 O   0  0  0  0  0  0  0  0  0  0  0  0
   -1.8710    2.7120    1.0190 O   0  0  0  0  0  0  0  0  0  0  0  0
  1  2  1  0
  2  3  2  0
  2 18  1  0
  3  4  1  0
  4  5  2  0
  4 10  1  0
  5  6  1  0
  6  7  2  0
  7  8  1  0
  7  9  1  0
  9 10  2  0
 10 11  1  0
 11 12  1  0
 11 18  2  0
 12 13  2  0
 12 17  1  0
 13 14  1  0
 14 15  2  0
 15 16  1  0
 16 17  2  0
 18 19  1  0
 19 20  2  0
 19 21  1  0
M  END
