
     RDKit          3D

 24 26  0  0  0  0  0  0  0  0999 V2000
    5.6180    2.0540   -0.4460 O   0  0  0  0  0  0  0  0  0  0  0  0
    4.9550    0.9790   -0.3580 C   0  0  0  0  0  0  0  0  0  0  0  0
    5.3180   -0.0100    0.5990 N   0  0  0  0  0  0  0  0  0  0  0  0
    4.5550   -1.1960    0.6670 C   0  0  0  0  0  0  0  0  0  0  0  0
    4.9690   -2.1500    1.3710 O   0  0  0  0  0  0  0  0  0  0  0  0
    3.2740   -1.3970   -0.0480 C   0  0  1  0  0  0  0  0  0  0  0  0
    2.2690   -1.6450    0.9480 N   0  0  0  0  0  0  0  0  0  0  0  0
    1.6470   -0.5580    1.2870 C   0  0  0  0  0  0  0  0  0  0  0  0
    0.5390   -0.4750    2.3040 C   0  0  0  0  0  0  0  0  0  0  0  0
   -0.7320   -0.3950    1.7700 O   0  0  0  0  0  0  0  0  0  0  0  0
   -1.2080    0.5970    0.9680 C   0  0  0  0  0  0  0  0  0  0  0  0
   -0.4430    1.5490    0.6690 O   0  0  0  0  0  0  0  0  0  0  0  0
   -2.5840    0.5920    0.4410 C   0  0  0  0  0  0  0  0  0  0  0  0
   -3.4380   -0.3530    0.7010 C   0  0  0  0  0  0  0  0  0  0  0  0
   -4.8040   -0.2770    0.1260 C   0  0  2  0  0  0  0  0  0  0  0  0
   -4.8880   -1.1030   -1.1640 C   0  0  0  0  0  0  0  0  0  0  0  0
   -4.0090   -0.6540   -2.1110 F   0  0  0  0  0  0  0  0  0  0  0  0
   -5.2510    0.9980   -0.1160 O   0  0  0  0  0  0  0  0  0  0  0  0
   -4.3670    1.6770   -0.8920 N   0  0  0  0  0  0  0  0  0  0  0  0
   -3.0160    1.6960   -0.3990 C   0  0  0  0  0  0  0  0  0  0  0  0
   -2.2250    2.6260   -0.6750 O   0  0  0  0  0  0  0  0  0  0  0  0
    2.1850    0.4920    0.5370 N   0  0  0  0  0  0  0  0  0  0  0  0
    2.7780   -0.0960   -0.6870 C   0  0  1  0  0  0  0  0  0  0  0  0
    3.8390    0.7130   -1.1940 N   0  0  0  0  0  0  0  0  0  0  0  0
  1  2  2  0
  2  3  1  0
  2 24  1  0
  3  4  1  0
  4  5  2  0
  4  6  1  0
  6  7  1  1
  6 23  1  0
  7  8  2  0
  8  9  1  0
  8 22  1  0
  9 10  1  0
 10 11  1  0
 11 12  2  0
 11 13  1  0
 13 14  2  0
 13 20  1  0
 14 15  1  0
 15 16  1  6
 15 18  1  0
 16 17  1  0
 18 19  1  0
 19 20  1  0
 20 21  2  0
 23 22  1  1
 23 24  1  0
M  END
