
     RDKit          3D

 21 23  0  0  0  0  0  0  0  0999 V2000
    1.3770    0.1650   -1.1720 C   0  0  0  0  0  0  0  0  0  0  0  0
    1.0990   -0.1500    0.2280 C   0  0  0  0  0  0  0  0  0  0  0  0
    2.1810   -0.3240    1.0130 C   0  0  0  0  0  0  0  0  0  0  0  0
    3.5450   -0.2280    0.6250 C   0  0  0  0  0  0  0  0  0  0  0  0
    4.1190    0.7650   -0.0040 O   0  0  0  0  0  0  0  0  0  0  0  0
    5.3870    0.5850   -0.2330 C   0  0  0  0  0  0  0  0  0  0  0  0
    6.3430    1.5260   -0.9260 C   0  0  0  0  0  0  0  0  0  0  0  0
    5.7060   -0.6590    0.2920 C   0  0  0  0  0  0  0  0  0  0  0  0
    4.5620   -1.1710    0.8290 C   0  0  0  0  0  0  0  0  0  0  0  0
    4.3020   -2.6950    1.6350 Cl  0  0  0  0  0  0  0  0  0  0  0  0
   -0.1900   -0.2600    0.8500 C   0  0  0  0  0  0  0  0  0  0  0  0
   -0.1640   -0.5080    2.1300 O   0  0  0  0  0  0  0  0  0  0  0  0
   -1.5120   -0.1420    0.2930 C   0  0  0  0  0  0  0  0  0  0  0  0
   -1.8040    0.0560   -1.0290 C   0  0  0  0  0  0  0  0  0  0  0  0
   -3.0980    0.1660   -1.4730 C   0  0  0  0  0  0  0  0  0  0  0  0
   -4.1660    0.0870   -0.6320 C   0  0  0  0  0  0  0  0  0  0  0  0
   -3.9050   -0.1120    0.7130 C   0  0  0  0  0  0  0  0  0  0  0  0
   -2.6240   -0.2220    1.1520 C   0  0  0  0  0  0  0  0  0  0  0  0
   -5.2110   -0.1350    1.4320 C   0  0  0  0  0  0  0  0  0  0  0  0
   -6.2260   -0.3620    0.3330 C   0  0  0  0  0  0  0  0  0  0  0  0
   -5.5880    0.1570   -0.8560 N   0  0  0  0  0  0  0  0  0  0  0  0
  1  2  1  0
  2  3  2  3
  2 11  1  0
  3  4  1  0
  4  5  1  0
  4  9  2  0
  5  6  1  0
  6  7  1  0
  6  8  2  0
  8  9  1  0
  9 10  1  0
 11 12  2  0
 11 13  1  0
 13 14  2  0
 13 18  1  0
 14 15  1  0
 15 16  2  0
 16 17  1  0
 16 21  1  0
 17 18  2  0
 17 19  1  0
 19 20  1  0
 20 21  1  0
M  END
