
     RDKit          3D

 21 23  0  0  0  0  0  0  0  0999 V2000
    1.4050   -2.8330    0.7780 C   0  0  0  0  0  0  0  0  0  0  0  0
    0.0940   -2.2140    0.4750 C   0  0  0  0  0  0  0  0  0  0  0  0
   -0.9960   -3.0100    0.0920 C   0  0  0  0  0  0  0  0  0  0  0  0
   -2.2010   -2.4420   -0.1820 C   0  0  0  0  0  0  0  0  0  0  0  0
   -3.5920   -3.3940   -0.6640 Cl  0  0  0  0  0  0  0  0  0  0  0  0
   -2.3430   -1.0820   -0.0800 C   0  0  0  0  0  0  0  0  0  0  0  0
   -3.5510   -0.5090   -0.3390 N   0  0  0  0  0  0  0  0  0  0  0  0
   -3.7800    0.8050   -0.2500 C   0  0  0  0  0  0  0  0  0  0  0  0
   -4.9020    1.3230   -0.4930 O   0  0  0  0  0  0  0  0  0  0  0  0
   -2.7240    1.6070    0.1260 C   0  0  0  0  0  0  0  0  0  0  0  0
   -2.9410    3.0660    0.2360 C   0  0  0  0  0  0  0  0  0  0  0  0
   -1.4820    1.0470    0.3960 C   0  0  0  0  0  0  0  0  0  0  0  0
   -1.2570   -0.3020    0.3000 C   0  0  0  0  0  0  0  0  0  0  0  0
   -0.0170   -0.8550    0.5830 C   0  0  0  0  0  0  0  0  0  0  0  0
    1.0130   -0.0680    0.9470 O   0  0  0  0  0  0  0  0  0  0  0  0
    2.0740    0.4280    0.2700 C   0  0  0  0  0  0  0  0  0  0  0  0
    3.3190   -0.1420    0.4250 C   0  0  0  0  0  0  0  0  0  0  0  0
    4.4190    0.3590   -0.2690 C   0  0  0  0  0  0  0  0  0  0  0  0
    4.2540    1.4310   -1.1120 C   0  0  0  0  0  0  0  0  0  0  0  0
    3.0320    2.0330   -1.2980 C   0  0  0  0  0  0  0  0  0  0  0  0
    1.9530    1.4950   -0.5800 C   0  0  0  0  0  0  0  0  0  0  0  0
  1  2  1  0
  2  3  2  0
  2 14  1  0
  3  4  1  0
  4  5  1  0
  4  6  2  0
  6  7  1  0
  6 13  1  0
  7  8  1  0
  8  9  2  0
  8 10  1  0
 10 11  1  0
 10 12  2  0
 12 13  1  0
 13 14  2  0
 14 15  1  0
 15 16  1  0
 16 17  2  0
 16 21  1  0
 17 18  1  0
 18 19  2  0
 19 20  1  0
 20 21  2  0
M  END
