
     RDKit          3D

 21 23  0  0  0  0  0  0  0  0999 V2000
   -6.2650    0.6340    0.6900 C   0  0  0  0  0  0  0  0  0  0  0  0
   -4.7960    0.4820    0.5270 C   0  0  0  0  0  0  0  0  0  0  0  0
   -4.2250   -0.7620    0.3950 C   0  0  0  0  0  0  0  0  0  0  0  0
   -2.8420   -0.9330    0.2400 C   0  0  0  0  0  0  0  0  0  0  0  0
   -2.0000    0.1490    0.2140 C   0  0  0  0  0  0  0  0  0  0  0  0
   -0.6030    0.0150    0.0640 N   0  0  0  0  0  0  0  0  0  0  0  0
    0.1670   -1.1350   -0.0220 C   0  0  0  0  0  0  0  0  0  0  0  0
   -0.3900   -2.2500    0.0350 O   0  0  0  0  0  0  0  0  0  0  0  0
    1.6430   -1.1400   -0.1810 C   0  0  0  0  0  0  0  0  0  0  0  0
    2.3010   -2.2870   -0.2560 C   0  0  0  0  0  0  0  0  0  0  0  0
    3.7390   -2.3750   -0.4110 C   0  0  0  0  0  0  0  0  0  0  0  0
    4.3660   -3.4590   -0.4820 O   0  0  0  0  0  0  0  0  0  0  0  0
    4.5070   -1.1360   -0.4910 C   0  0  0  0  0  0  0  0  0  0  0  0
    5.7970   -0.8430   -0.6290 C   0  0  0  0  0  0  0  0  0  0  0  0
    5.9180    0.6130   -0.6380 C   0  0  0  0  0  0  0  0  0  0  0  0
    7.4510    1.4450   -0.8010 Cl  0  0  0  0  0  0  0  0  0  0  0  0
    4.7250    1.1750   -0.5080 C   0  0  0  0  0  0  0  0  0  0  0  0
    3.7280    0.0940   -0.4030 C   0  0  0  0  0  0  0  0  0  0  0  0
    2.4050    0.1010   -0.2600 C   0  0  0  0  0  0  0  0  0  0  0  0
   -2.5790    1.4060    0.3470 C   0  0  0  0  0  0  0  0  0  0  0  0
   -3.9240    1.5520    0.4970 C   0  0  0  0  0  0  0  0  0  0  0  0
  1  2  1  0
  2  3  2  0
  2 21  1  0
  3  4  1  0
  4  5  2  0
  5  6  1  0
  5 20  1  0
  6  7  1  0
  7  8  2  0
  7  9  1  0
  9 10  2  0
  9 19  1  0
 10 11  1  0
 11 12  2  0
 11 13  1  0
 13 14  2  0
 13 18  1  0
 14 15  1  0
 15 16  1  0
 15 17  2  0
 17 18  1  0
 18 19  2  0
 20 21  2  0
M  END
