
     RDKit          3D

 21 23  0  0  0  0  0  0  0  0999 V2000
    4.6430    1.6920    1.2750 C   0  0  0  0  0  0  0  0  0  0  0  0
    3.7670    1.0770    0.1420 C   0  0  0  0  0  0  0  0  0  0  0  0
    2.4240    0.9510    0.6690 C   0  0  0  0  0  0  0  0  0  0  0  0
    1.4160    0.4000    0.0250 C   0  0  0  0  0  0  0  0  0  0  0  0
    0.1500    0.2890    0.5380 N   0  0  0  0  0  0  0  0  0  0  0  0
   -0.6930   -0.3060   -0.3080 C   0  0  0  0  0  0  0  0  0  0  0  0
   -2.0010   -0.5500   -0.0740 C   0  0  0  0  0  0  0  0  0  0  0  0
   -3.0190   -1.1660   -0.8620 C   0  0  0  0  0  0  0  0  0  0  0  0
   -3.0000   -1.6570   -1.9860 O   0  0  0  0  0  0  0  0  0  0  0  0
   -4.2300   -1.1630   -0.1290 O   0  0  0  0  0  0  0  0  0  0  0  0
   -4.0000   -0.5730    1.0710 C   0  0  0  0  0  0  0  0  0  0  0  0
   -5.0510   -0.3910    2.1160 C   0  0  0  0  0  0  0  0  0  0  0  0
   -2.7030   -0.1830    1.1770 C   0  0  0  0  0  0  0  0  0  0  0  0
   -2.1800    0.4820    2.3690 C   0  0  0  0  0  0  0  0  0  0  0  0
    0.0660   -0.5900   -1.4160 C   0  0  0  0  0  0  0  0  0  0  0  0
   -0.1720   -1.1810   -2.6180 C   0  0  0  0  0  0  0  0  0  0  0  0
    0.8080   -1.3510   -3.6000 C   0  0  0  0  0  0  0  0  0  0  0  0
    0.3610   -2.1340   -5.1150 Cl  0  0  0  0  0  0  0  0  0  0  0  0
    2.0760   -0.9200   -3.3870 C   0  0  0  0  0  0  0  0  0  0  0  0
    2.3590   -0.3090   -2.1650 C   0  0  0  0  0  0  0  0  0  0  0  0
    1.3890   -0.1490   -1.2110 C   0  0  0  0  0  0  0  0  0  0  0  0
  1  2  1  0
  2  3  1  0
  3  4  2  3
  4  5  1  0
  4 21  1  0
  5  6  1  0
  6  7  2  3
  6 15  1  0
  7  8  1  0
  7 13  1  0
  8  9  2  0
  8 10  1  0
 10 11  1  0
 11 12  1  0
 11 13  2  0
 13 14  1  0
 15 16  2  0
 15 21  1  0
 16 17  1  0
 17 18  1  0
 17 19  2  0
 19 20  1  0
 20 21  2  0
M  END
