
     RDKit          3D

 25 27  0  0  0  0  0  0  0  0999 V2000
   -6.9240    0.2340   -0.8750 C   0  0  0  0  0  0  0  0  0  0  0  0
   -5.6210    0.4020   -0.7960 C   0  0  0  0  0  0  0  0  0  0  0  0
   -5.0420    1.1950    0.3060 C   0  0  0  0  0  0  0  0  0  0  0  0
   -4.0920    0.4140    1.1740 C   0  0  0  0  0  0  0  0  0  0  0  0
   -2.9620   -0.1110    0.4400 N   0  0  0  0  0  0  0  0  0  0  0  0
   -1.7840    0.6920    0.3210 C   0  0  0  0  0  0  0  0  0  0  0  0
   -0.7080    0.1840   -0.5370 C   0  0  1  0  0  0  0  0  0  0  0  0
    0.6350    0.1550    0.1290 C   0  0  0  0  0  0  0  0  0  0  0  0
    0.7550   -0.2590    1.4420 C   0  0  0  0  0  0  0  0  0  0  0  0
    1.9940   -0.2800    2.0450 C   0  0  0  0  0  0  0  0  0  0  0  0
    3.1380    0.1130    1.3420 C   0  0  0  0  0  0  0  0  0  0  0  0
    3.0710    0.5280    0.0510 C   0  0  0  0  0  0  0  0  0  0  0  0
    4.1790    0.9550   -0.7740 C   0  0  0  0  0  0  0  0  0  0  0  0
    3.8650    1.3140   -1.9820 O   0  0  0  0  0  0  0  0  0  0  0  0
    5.5180    1.0350   -0.4640 N   0  0  0  0  0  0  0  0  0  0  0  0
    6.4140    1.5260   -1.5620 C   0  0  0  0  0  0  0  0  0  0  0  0
    6.1880    0.7100    0.7680 C   0  0  0  0  0  0  0  0  0  0  0  0
    1.7790    0.5280   -0.5100 C   0  0  0  0  0  0  0  0  0  0  0  0
   -0.9180   -1.1700   -1.1000 C   0  0  0  0  0  0  0  0  0  0  0  0
   -0.0500   -1.8900   -1.8900 C   0  0  0  0  0  0  0  0  0  0  0  0
   -0.6520   -3.0930   -2.1800 C   0  0  0  0  0  0  0  0  0  0  0  0
   -1.8380   -3.0930   -1.5870 N   0  0  0  0  0  0  0  0  0  0  0  0
   -2.0230   -1.9300   -0.9220 C   0  0  0  0  0  0  0  0  0  0  0  0
   -3.1160   -1.4110   -0.1210 C   0  0  0  0  0  0  0  0  0  0  0  0
   -4.1420   -2.1210    0.0440 O   0  0  0  0  0  0  0  0  0  0  0  0
  1  2  2  0
  2  3  1  0
  3  4  1  0
  4  5  1  0
  5  6  1  0
  5 24  1  0
  6  7  1  0
  7  8  1  1
  7 19  1  0
  8  9  2  0
  8 18  1  0
  9 10  1  0
 10 11  2  0
 11 12  1  0
 12 13  1  0
 12 18  2  0
 13 14  2  0
 13 15  1  0
 15 16  1  0
 15 17  1  0
 19 20  1  0
 19 23  2  0
 20 21  2  0
 21 22  1  0
 22 23  1  0
 23 24  1  0
 24 25  2  0
M  END
