
     RDKit          3D

 20 21  0  0  0  0  0  0  0  0999 V2000
    5.4770   -0.1960   -1.1950 N   0  0  0  0  0  0  0  0  0  0  0  0
    4.2370    0.1810   -0.5870 C   0  0  0  0  0  0  0  0  0  0  0  0
    4.0740    1.3630    0.1010 C   0  0  0  0  0  0  0  0  0  0  0  0
    2.8810    1.7170    0.6810 C   0  0  0  0  0  0  0  0  0  0  0  0
    1.8050    0.8780    0.5820 C   0  0  0  0  0  0  0  0  0  0  0  0
    0.5980    1.2410    1.1710 C   0  0  0  0  0  0  0  0  0  0  0  0
   -0.4560    0.3580    1.0410 C   0  0  0  0  0  0  0  0  0  0  0  0
   -0.3850   -0.8320    0.3780 C   0  0  0  0  0  0  0  0  0  0  0  0
   -1.4270   -1.6840    0.2600 O   0  0  0  0  0  0  0  0  0  0  0  0
   -2.7240   -1.6520    0.6930 C   0  0  0  0  0  0  0  0  0  0  0  0
   -3.5770   -0.5570    0.2120 C   0  0  0  0  0  0  0  0  0  0  0  0
   -4.1730    0.3260    0.9650 C   0  0  0  0  0  0  0  0  0  0  0  0
   -4.9560    1.3190    0.4070 O   0  0  0  0  0  0  0  0  0  0  0  0
   -3.7730   -0.4550   -1.2790 C   0  0  1  0  0  0  0  0  0  0  0  0
   -4.3620   -1.6490   -1.7030 F   0  0  0  0  0  0  0  0  0  0  0  0
   -4.6440    0.5740   -1.5930 F   0  0  0  0  0  0  0  0  0  0  0  0
   -2.5700   -0.2300   -1.8740 F   0  0  0  0  0  0  0  0  0  0  0  0
    0.8410   -1.1700   -0.2040 C   0  0  0  0  0  0  0  0  0  0  0  0
    1.9270   -0.3140   -0.0990 C   0  0  0  0  0  0  0  0  0  0  0  0
    3.1410   -0.6450   -0.6730 C   0  0  0  0  0  0  0  0  0  0  0  0
  1  2  1  0
  2  3  2  0
  2 20  1  0
  3  4  1  0
  4  5  2  0
  5  6  1  0
  5 19  1  0
  6  7  2  0
  7  8  1  0
  8  9  1  0
  8 18  2  0
  9 10  1  0
 10 11  1  0
 11 12  2  3
 11 14  1  0
 12 13  1  0
 14 15  1  6
 14 16  1  0
 14 17  1  0
 18 19  1  0
 19 20  2  0
M  END
