
     RDKit          3D

 22 22  0  0  0  0  0  0  0  0999 V2000
   -1.6840    3.7010   -3.3160 C   0  0  0  0  0  0  0  0  0  0  0  0
   -0.3950    3.7700   -3.0510 C   0  0  0  0  0  0  0  0  0  0  0  0
    0.2380    2.7120   -2.1810 C   0  0  0  0  0  0  0  0  0  0  0  0
   -0.7500    1.7830   -1.7750 N   0  0  0  0  0  0  0  0  0  0  0  0
   -0.2440    0.6230   -1.0310 C   0  0  1  0  0  0  0  0  0  0  0  0
    0.3590    1.1510    0.2380 C   0  0  0  0  0  0  0  0  0  0  0  0
    0.9560    0.1670    1.1070 N   0  0  0  0  0  0  0  0  0  0  0  0
    2.0740   -0.6270    0.7200 C   0  0  0  0  0  0  0  0  0  0  0  0
    2.5210   -0.4230   -0.4540 O   0  0  0  0  0  0  0  0  0  0  0  0
    2.6640   -1.5820    1.5820 N   0  0  0  0  0  0  0  0  0  0  0  0
    3.7910   -2.3630    1.2230 C   0  0  0  0  0  0  0  0  0  0  0  0
    3.5510   -3.2250    0.0670 C   0  0  0  0  0  0  0  0  0  0  0  0
    2.3120   -3.2610   -0.5880 N   0  0  0  0  0  0  0  0  0  0  0  0
    4.4610   -3.9840   -0.3970 O   0  0  0  0  0  0  0  0  0  0  0  0
   -1.4670   -0.2740   -0.7350 C   0  0  1  0  0  0  0  0  0  0  0  0
   -1.1490   -1.6190   -0.2350 C   0  0  0  0  0  0  0  0  0  0  0  0
   -1.4300   -1.8980    1.0910 O   0  0  0  0  0  0  0  0  0  0  0  0
   -2.0860   -1.0330    1.9500 C   0  0  0  0  0  0  0  0  0  0  0  0
   -2.2500   -1.3350    3.2280 C   0  0  0  0  0  0  0  0  0  0  0  0
   -2.5920    0.2180    1.4130 C   0  0  0  0  0  0  0  0  0  0  0  0
   -3.2350    1.1160    2.1480 C   0  0  0  0  0  0  0  0  0  0  0  0
   -2.3730    0.4540    0.0500 O   0  0  0  0  0  0  0  0  0  0  0  0
  1  2  2  0
  2  3  1  0
  3  4  1  0
  4  5  1  0
  5  6  1  1
  5 15  1  0
  6  7  1  0
  7  8  1  0
  8  9  2  0
  8 10  1  0
 10 11  1  0
 11 12  1  0
 12 13  1  0
 12 14  2  0
 15 16  1  1
 15 22  1  0
 16 17  1  0
 17 18  1  0
 18 19  2  0
 18 20  1  0
 20 21  2  0
 20 22  1  0
M  END
