
     RDKit          3D

 22 22  0  0  0  0  0  0  0  0999 V2000
    6.4730    1.7840   -0.3250 C   0  0  0  0  0  0  0  0  0  0  0  0
    6.5110    0.6450   -1.0230 C   0  0  0  0  0  0  0  0  0  0  0  0
    6.5240   -0.6520   -0.3200 C   0  0  0  0  0  0  0  0  0  0  0  0
    5.3450   -1.5220   -0.7730 C   0  0  0  0  0  0  0  0  0  0  0  0
    4.1000   -0.8150   -0.4790 C   0  0  0  0  0  0  0  0  0  0  0  0
    3.7640    0.1880   -0.0450 O   0  0  0  0  0  0  0  0  0  0  0  0
    2.8200   -1.8980   -0.9600 N   0  0  0  0  0  0  0  0  0  0  0  0
    1.7290   -0.9620   -0.5220 C   0  0  0  0  0  0  0  0  0  0  0  0
    1.6860    0.1130   -0.0620 O   0  0  0  0  0  0  0  0  0  0  0  0
    0.4510   -1.6640   -0.7790 N   0  0  0  0  0  0  0  0  0  0  0  0
   -0.7320   -1.0420   -0.5570 N   0  0  0  0  0  0  0  0  0  0  0  0
   -1.0590   -0.3990    0.6760 C   0  0  0  0  0  0  0  0  0  0  0  0
   -0.2750   -0.3760    1.6450 O   0  0  0  0  0  0  0  0  0  0  0  0
   -2.3820    0.2840    0.8420 C   0  0  2  0  0  0  0  0  0  0  0  0
   -3.1380   -0.4770    1.9080 C   0  0  0  0  0  0  0  0  0  0  0  0
   -2.4540   -0.4310    3.1940 N   0  0  0  0  0  0  0  0  0  0  0  0
   -3.1250    0.1990   -0.3470 O   0  0  0  0  0  0  0  0  0  0  0  0
   -4.3770    0.7770   -0.4030 C   0  0  0  0  0  0  0  0  0  0  0  0
   -5.4730    0.2070   -0.9390 C   0  0  0  0  0  0  0  0  0  0  0  0
   -6.6090    1.1210   -0.8130 C   0  0  0  0  0  0  0  0  0  0  0  0
   -6.0700    2.3120   -0.1370 C   0  0  0  0  0  0  0  0  0  0  0  0
   -4.7900    2.0740    0.0800 C   0  0  0  0  0  0  0  0  0  0  0  0
  1  2  2  0
  2  3  1  0
  3  4  1  0
  4  5  1  0
  5  6  2  0
  5  7  1  0
  7  8  1  0
  8  9  2  0
  8 10  1  0
 10 11  1  0
 11 12  1  0
 12 13  2  0
 12 14  1  0
 14 15  1  1
 14 17  1  0
 15 16  1  0
 17 18  1  0
 18 19  2  0
 18 22  1  0
 19 20  1  0
 20 21  1  0
 21 22  2  0
M  END
