
     RDKit          3D

 20 21  0  0  0  0  0  0  0  0999 V2000
   -0.0880   -2.0420   -0.1010 O   0  0  0  0  0  0  0  0  0  0  0  0
    0.5310   -0.8720   -0.2540 C   0  0  0  0  0  0  0  0  0  0  0  0
    1.9770   -0.9380   -0.2460 C   0  0  0  0  0  0  0  0  0  0  0  0
    2.6220   -2.1230   -0.1120 C   0  0  0  0  0  0  0  0  0  0  0  0
    4.0700   -1.8910   -0.1360 C   0  0  0  0  0  0  0  0  0  0  0  0
    4.2240   -0.4620   -0.2870 C   0  0  0  0  0  0  0  0  0  0  0  0
    3.0030    0.0780   -0.3500 C   0  0  0  0  0  0  0  0  0  0  0  0
    2.8390    1.4530   -0.4970 O   0  0  0  0  0  0  0  0  0  0  0  0
   -0.3870    0.1550   -0.3890 N   0  0  0  0  0  0  0  0  0  0  0  0
   -0.1240    1.5430   -0.6380 C   0  0  0  0  0  0  0  0  0  0  0  0
    0.0360    2.2620    0.6710 C   0  0  0  0  0  0  0  0  0  0  0  0
    0.2560    3.7320    0.4080 C   0  0  2  0  0  0  0  0  0  0  0  0
    0.4110    4.4170    1.6040 F   0  0  0  0  0  0  0  0  0  0  0  0
   -0.8670    4.2560   -0.2580 F   0  0  0  0  0  0  0  0  0  0  0  0
    1.3330    4.0150   -0.3860 F   0  0  0  0  0  0  0  0  0  0  0  0
   -1.8450   -0.1270   -0.2460 C   0  0  2  0  0  0  0  0  0  0  0  0
   -2.1490   -0.5770    1.1570 C   0  0  0  0  0  0  0  0  0  0  0  0
   -3.4790   -1.3070    0.9280 C   0  0  0  0  0  0  0  0  0  0  0  0
   -3.1850   -2.1000   -0.3160 C   0  0  0  0  0  0  0  0  0  0  0  0
   -2.3390   -1.1620   -1.1810 C   0  0  0  0  0  0  0  0  0  0  0  0
  1  2  2  0
  2  3  1  0
  2  9  1  0
  3  4  2  0
  3  7  1  0
  4  5  1  0
  5  6  1  0
  6  7  2  0
  7  8  1  0
  9 10  1  0
 16  9  1  1
 10 11  1  0
 11 12  1  0
 12 13  1  1
 12 14  1  0
 12 15  1  0
 16 17  1  0
 16 20  1  0
 17 18  1  0
 18 19  1  0
 19 20  1  0
M  END
