
     RDKit          3D

 24 26  0  0  0  0  0  0  0  0999 V2000
    6.2010   -2.5310    0.5920 C   0  0  0  0  0  0  0  0  0  0  0  0
    5.3730   -1.7470   -0.7740 S   0  0  0  0  0  0  0  0  0  0  0  0
    4.3700   -0.3860   -0.1920 C   0  0  0  0  0  0  0  0  0  0  0  0
    3.1810   -0.3880    0.1940 O   0  0  0  0  0  0  0  0  0  0  0  0
    2.7690    0.8760    0.5300 C   0  0  0  0  0  0  0  0  0  0  0  0
    1.4570    1.2060    1.0180 C   0  0  0  0  0  0  0  0  0  0  0  0
    0.5020    1.9150    0.1730 N   0  0  0  0  0  0  0  0  0  0  0  0
   -0.7900    1.3620    0.0730 C   0  0  0  0  0  0  0  0  0  0  0  0
   -0.9640    0.2590    0.7290 O   0  0  0  0  0  0  0  0  0  0  0  0
   -1.9540    1.8380   -0.6340 N   0  0  0  0  0  0  0  0  0  0  0  0
   -3.1240    1.0300   -0.4010 C   0  0  0  0  0  0  0  0  0  0  0  0
   -3.2910    0.4540    0.8820 C   0  0  0  0  0  0  0  0  0  0  0  0
   -4.2280   -0.4570    1.2110 C   0  0  0  0  0  0  0  0  0  0  0  0
   -5.1140   -0.8550    0.1940 C   0  0  0  0  0  0  0  0  0  0  0  0
   -6.0540   -1.7930    0.4910 C   0  0  0  0  0  0  0  0  0  0  0  0
   -6.8870   -2.1940   -0.5310 C   0  0  0  0  0  0  0  0  0  0  0  0
   -6.7850   -1.6720   -1.8080 C   0  0  0  0  0  0  0  0  0  0  0  0
   -5.8350   -0.7430   -2.0090 N   0  0  0  0  0  0  0  0  0  0  0  0
   -4.9900   -0.3090   -1.0630 C   0  0  0  0  0  0  0  0  0  0  0  0
   -3.9850    0.6450   -1.3640 C   0  0  0  0  0  0  0  0  0  0  0  0
    3.8270    1.6920    0.3170 N   0  0  0  0  0  0  0  0  0  0  0  0
    4.8350    0.8960   -0.1260 C   0  0  0  0  0  0  0  0  0  0  0  0
    6.2640    1.3000   -0.1950 C   0  0  0  0  0  0  0  0  0  0  0  0
    6.5680    2.4400   -1.5830 S   0  0  0  0  0  0  0  0  0  0  0  0
  1  2  1  0
  2  3  1  0
  3  4  1  0
  3 22  2  0
  4  5  1  0
  5  6  1  0
  5 21  2  0
  6  7  1  0
  7  8  1  0
  8  9  2  0
  8 10  1  0
 10 11  1  0
 11 12  2  0
 11 20  1  0
 12 13  1  0
 13 14  2  0
 14 15  1  0
 14 19  1  0
 15 16  2  0
 16 17  1  0
 17 18  2  0
 18 19  1  0
 19 20  2  0
 21 22  1  0
 22 23  1  0
 23 24  1  0
M  END
