
     RDKit          3D

 24 26  0  0  0  0  0  0  0  0999 V2000
    6.7720    1.3070   -0.6160 C   0  0  0  0  0  0  0  0  0  0  0  0
    5.6930    0.5040    0.0330 C   0  0  0  0  0  0  0  0  0  0  0  0
    4.5900    0.0330   -0.6200 C   0  0  0  0  0  0  0  0  0  0  0  0
    3.8230   -0.6640    0.3160 C   0  0  0  0  0  0  0  0  0  0  0  0
    2.5230   -1.3520    0.0510 C   0  0  0  0  0  0  0  0  0  0  0  0
    1.8660   -2.0190    1.0720 C   0  0  0  0  0  0  0  0  0  0  0  0
    0.3500   -2.6430    0.1120 S   0  0  0  0  0  0  0  0  0  0  0  0
    0.9040   -1.8790   -1.4800 C   0  0  0  0  0  0  0  0  0  0  0  0
    0.1170   -1.9910   -2.7490 C   0  0  0  0  0  0  0  0  0  0  0  0
   -0.7360   -0.8460   -2.9440 N   0  0  0  0  0  0  0  0  0  0  0  0
   -1.7300   -0.5440   -1.9920 C   0  0  0  0  0  0  0  0  0  0  0  0
   -1.8660   -1.2630   -0.9940 O   0  0  0  0  0  0  0  0  0  0  0  0
   -2.6080    0.5720   -2.1180 N   0  0  0  0  0  0  0  0  0  0  0  0
   -3.6070    0.7890   -1.0640 C   0  0  0  0  0  0  0  0  0  0  0  0
   -4.0210    0.3920   -0.0710 N   0  0  0  0  0  0  0  0  0  0  0  0
   -5.0060    0.8620    0.6780 C   0  0  0  0  0  0  0  0  0  0  0  0
   -5.4780    0.2530    1.9870 C   0  0  0  0  0  0  0  0  0  0  0  0
   -5.6170    1.9860    0.1920 C   0  0  0  0  0  0  0  0  0  0  0  0
   -6.7230    2.8460    0.6540 C   0  0  0  0  0  0  0  0  0  0  0  0
   -4.7350    2.2890   -1.3040 S   0  0  0  0  0  0  0  0  0  0  0  0
    1.9880   -1.3470   -1.1060 N   0  0  0  0  0  0  0  0  0  0  0  0
    4.4990   -0.5800    1.4880 C   0  0  0  0  0  0  0  0  0  0  0  0
    4.1350   -1.1430    2.8080 C   0  0  0  0  0  0  0  0  0  0  0  0
    5.6120    0.1260    1.2770 O   0  0  0  0  0  0  0  0  0  0  0  0
  1  2  1  0
  2  3  2  0
  2 24  1  0
  3  4  1  0
  4  5  1  0
  4 22  2  0
  5  6  2  0
  5 21  1  0
  6  7  1  0
  7  8  1  0
  8  9  1  0
  8 21  2  0
  9 10  1  0
 10 11  1  0
 11 12  2  0
 11 13  1  0
 13 14  1  0
 14 15  2  0
 14 20  1  0
 15 16  1  0
 16 17  1  0
 16 18  2  0
 18 19  1  0
 18 20  1  0
 22 23  1  0
 22 24  1  0
M  END
