
     RDKit          3D

 24 26  0  0  0  0  0  0  0  0999 V2000
    8.0320   -2.3260    0.9940 C   0  0  0  0  0  0  0  0  0  0  0  0
    6.6390   -2.0980    0.9160 O   0  0  0  0  0  0  0  0  0  0  0  0
    6.1700   -0.9280    0.3550 C   0  0  0  0  0  0  0  0  0  0  0  0
    4.8220   -0.6960    0.2740 C   0  0  0  0  0  0  0  0  0  0  0  0
    4.3670    0.4790   -0.2890 C   0  0  0  0  0  0  0  0  0  0  0  0
    2.9670    0.7940   -0.4100 C   0  0  0  0  0  0  0  0  0  0  0  0
    2.2750    1.8630   -0.9160 C   0  0  0  0  0  0  0  0  0  0  0  0
    0.9540    1.8870   -0.8960 C   0  0  0  0  0  0  0  0  0  0  0  0
    0.2580    0.8170   -0.3570 C   0  0  0  0  0  0  0  0  0  0  0  0
   -1.1460    0.5640   -0.1990 C   0  0  0  0  0  0  0  0  0  0  0  0
   -1.6020   -0.5460    0.3540 C   0  0  0  0  0  0  0  0  0  0  0  0
   -3.0180   -0.8170    0.5200 C   0  0  0  0  0  0  0  0  0  0  0  0
   -3.4080   -1.9100    1.0640 O   0  0  0  0  0  0  0  0  0  0  0  0
   -4.0330    0.0790    0.1070 N   0  0  0  0  0  0  0  0  0  0  0  0
   -5.4010   -0.2980    0.3230 C   0  0  0  0  0  0  0  0  0  0  0  0
   -6.5340    0.4020    0.0080 C   0  0  0  0  0  0  0  0  0  0  0  0
   -7.7260   -0.0680    0.2660 C   0  0  0  0  0  0  0  0  0  0  0  0
   -9.0670    0.5210    0.0100 C   0  0  0  0  0  0  0  0  0  0  0  0
   -7.7220   -1.3750    0.9050 N   0  0  0  0  0  0  0  0  0  0  0  0
   -5.9850   -1.7630    1.0530 S   0  0  0  0  0  0  0  0  0  0  0  0
    1.6100   -0.2920    0.1530 S   0  0  0  0  0  0  0  0  0  0  0  0
    5.2550    1.3740   -0.7480 N   0  0  0  0  0  0  0  0  0  0  0  0
    6.5940    1.1510   -0.6710 C   0  0  0  0  0  0  0  0  0  0  0  0
    7.0200   -0.0070   -0.1150 N   0  0  0  0  0  0  0  0  0  0  0  0
  1  2  1  0
  2  3  1  0
  3  4  2  0
  3 24  1  0
  4  5  1  0
  5  6  1  0
  5 22  2  0
  6  7  2  0
  6 21  1  0
  7  8  1  0
  8  9  2  0
  9 10  1  0
  9 21  1  0
 10 11  2  3
 11 12  1  0
 12 13  2  0
 12 14  1  0
 14 15  1  0
 15 16  2  0
 15 20  1  0
 16 17  1  0
 17 18  1  0
 17 19  2  0
 19 20  1  0
 22 23  1  0
 23 24  2  0
M  END
