
     RDKit          3D

 24 26  0  0  0  0  0  0  0  0999 V2000
    2.6510   -0.9480    1.3220 C   0  0  0  0  0  0  0  0  0  0  0  0
    3.3960   -0.0880    0.3810 C   0  0  0  0  0  0  0  0  0  0  0  0
    2.7010    0.7920   -0.4260 C   0  0  0  0  0  0  0  0  0  0  0  0
    3.3010    1.6210   -1.3200 C   0  0  0  0  0  0  0  0  0  0  0  0
    2.6390    2.5640   -2.1930 C   0  0  0  0  0  0  0  0  0  0  0  0
    1.4830    2.8450   -2.3450 N   0  0  0  0  0  0  0  0  0  0  0  0
    0.3080    2.3120   -1.6750 C   0  0  0  0  0  0  0  0  0  0  0  0
   -0.4340    2.4550   -0.8160 N   0  0  0  0  0  0  0  0  0  0  0  0
   -1.4580    1.7890   -0.4580 N   0  0  0  0  0  0  0  0  0  0  0  0
   -1.7350    0.6870   -1.2430 C   0  0  0  0  0  0  0  0  0  0  0  0
   -3.1090   -0.5230   -1.0610 S   0  0  0  0  0  0  0  0  0  0  0  0
   -4.0340    0.0260    0.3770 C   0  0  2  0  0  0  0  0  0  0  0  0
   -3.1150   -0.1430    1.5890 C   0  0  0  0  0  0  0  0  0  0  0  0
   -5.2750   -0.7950    0.5620 C   0  0  0  0  0  0  0  0  0  0  0  0
   -5.2980   -2.1910    0.6190 C   0  0  0  0  0  0  0  0  0  0  0  0
   -6.6340   -2.5350    0.7980 C   0  0  0  0  0  0  0  0  0  0  0  0
   -7.3470   -1.3340    0.8400 C   0  0  0  0  0  0  0  0  0  0  0  0
   -6.4840   -0.3620    0.6950 O   0  0  0  0  0  0  0  0  0  0  0  0
   -0.4410    0.7390   -2.4530 S   0  0  0  0  0  0  0  0  0  0  0  0
    4.6720    1.5300   -1.3760 N   0  0  0  0  0  0  0  0  0  0  0  0
    5.3540    0.6870   -0.6050 C   0  0  0  0  0  0  0  0  0  0  0  0
    6.6240    0.6310   -0.6850 O   0  0  0  0  0  0  0  0  0  0  0  0
    4.7620   -0.1670    0.3140 C   0  0  0  0  0  0  0  0  0  0  0  0
    5.5620   -1.0950    1.1580 C   0  0  0  0  0  0  0  0  0  0  0  0
  1  2  1  0
  2  3  1  0
  2 23  2  0
  3  4  2  0
  4  5  1  0
  4 20  1  0
  5  6  2  3
  6  7  1  0
  7  8  2  0
  7 19  1  0
  8  9  1  0
  9 10  2  0
 10 11  1  0
 10 19  1  0
 11 12  1  0
 12 13  1  1
 12 14  1  0
 14 15  2  0
 14 18  1  0
 15 16  1  0
 16 17  2  0
 17 18  1  0
 20 21  1  0
 21 22  2  0
 21 23  1  0
 23 24  1  0
M  END
