
     RDKit          3D

 24 26  0  0  0  0  0  0  0  0999 V2000
    6.4740   -0.8570    2.0430 C   0  0  0  0  0  0  0  0  0  0  0  0
    5.5860   -0.5230    0.8650 C   0  0  0  0  0  0  0  0  0  0  0  0
    4.1870   -0.6710    1.2030 N   0  0  0  0  0  0  0  0  0  0  0  0
    3.1840   -0.4030    0.2290 C   0  0  0  0  0  0  0  0  0  0  0  0
    3.5990   -0.0060   -1.0220 C   0  0  0  0  0  0  0  0  0  0  0  0
    2.6490    0.2570   -1.9750 C   0  0  0  0  0  0  0  0  0  0  0  0
    1.3130    0.1250   -1.6820 C   0  0  0  0  0  0  0  0  0  0  0  0
    0.9320   -0.2710   -0.4340 C   0  0  0  0  0  0  0  0  0  0  0  0
   -0.4970   -0.4280   -0.0340 C   0  0  0  0  0  0  0  0  0  0  0  0
   -0.9740   -1.0560    1.5790 S   0  0  0  0  0  0  0  0  0  0  0  0
   -2.6870   -0.9630    1.2960 C   0  0  0  0  0  0  0  0  0  0  0  0
   -3.7360   -1.2940    2.1220 N   0  0  0  0  0  0  0  0  0  0  0  0
   -5.0100   -1.1540    1.7250 C   0  0  0  0  0  0  0  0  0  0  0  0
   -6.1320   -1.5070    2.6100 C   0  0  0  0  0  0  0  0  0  0  0  0
   -5.1730   -0.6620    0.4490 C   0  0  0  0  0  0  0  0  0  0  0  0
   -4.1270   -0.3290   -0.3850 C   0  0  0  0  0  0  0  0  0  0  0  0
   -2.7950   -0.4830    0.0520 C   0  0  0  0  0  0  0  0  0  0  0  0
   -1.6680   -0.2000   -0.6520 C   0  0  0  0  0  0  0  0  0  0  0  0
   -1.6900    0.3620   -1.9940 N   0  0  0  0  0  0  0  0  0  0  0  0
   -1.7850    2.0400   -2.3020 S   0  0  2  0  0  0  0  0  0  0  0  0
   -0.4470    2.9790   -1.6740 C   0  0  0  0  0  0  0  0  0  0  0  0
   -3.0670    2.6090   -1.7510 O   0  0  0  0  0  0  0  0  0  0  0  0
   -1.8270    2.2740   -3.8040 O   0  0  0  0  0  0  0  0  0  0  0  0
    1.8750   -0.5300    0.5070 N   0  0  0  0  0  0  0  0  0  0  0  0
  1  2  1  0
  2  3  1  0
  3  4  1  0
  4  5  2  0
  4 24  1  0
  5  6  1  0
  6  7  2  0
  7  8  1  0
  8  9  1  0
  8 24  2  0
  9 10  1  0
  9 18  2  0
 10 11  1  0
 11 12  2  0
 11 17  1  0
 12 13  1  0
 13 14  1  0
 13 15  2  0
 15 16  1  0
 16 17  2  0
 17 18  1  0
 18 19  1  0
 19 20  1  0
 20 21  1  1
 20 22  2  0
 20 23  2  0
M  END
