
     RDKit          3D

 24 26  0  0  0  0  0  0  0  0999 V2000
   -5.2140   -2.5860    2.1720 C   0  0  0  0  0  0  0  0  0  0  0  0
   -4.7070   -1.3030    1.6200 C   0  0  0  0  0  0  0  0  0  0  0  0
   -5.6260   -0.3190    1.3160 C   0  0  0  0  0  0  0  0  0  0  0  0
   -5.1360    0.8660    0.8050 C   0  0  0  0  0  0  0  0  0  0  0  0
   -3.7920    1.0950    0.5920 C   0  0  0  0  0  0  0  0  0  0  0  0
   -3.0640    2.0860    0.1350 O   0  0  0  0  0  0  0  0  0  0  0  0
   -1.7930    1.7830    0.1380 C   0  0  0  0  0  0  0  0  0  0  0  0
   -0.7030    2.6830   -0.3160 C   0  0  0  0  0  0  0  0  0  0  0  0
   -0.3910    2.5370   -1.7660 C   0  0  0  0  0  0  0  0  0  0  0  0
    0.0500    1.1820   -2.2020 C   0  0  0  0  0  0  0  0  0  0  0  0
    1.3150    0.7530   -1.5050 C   0  0  0  0  0  0  0  0  0  0  0  0
    1.8940    1.4940   -0.6930 O   0  0  0  0  0  0  0  0  0  0  0  0
    1.8370   -0.5210   -1.7950 N   0  0  0  0  0  0  0  0  0  0  0  0
    2.9950   -1.1210   -1.2680 C   0  0  0  0  0  0  0  0  0  0  0  0
    3.3450   -2.6440   -1.8110 S   0  0  0  0  0  0  0  0  0  0  0  0
    3.8530   -0.4890   -0.3620 N   0  0  0  0  0  0  0  0  0  0  0  0
    5.0490   -1.1380    0.1940 C   0  0  0  0  0  0  0  0  0  0  0  0
    6.1220   -0.4040    0.5070 C   0  0  0  0  0  0  0  0  0  0  0  0
    7.2070   -1.0420    1.0520 C   0  0  0  0  0  0  0  0  0  0  0  0
    6.6940   -2.7370    1.1260 S   0  0  0  0  0  0  0  0  0  0  0  0
    5.0550   -2.4720    0.4180 C   0  0  0  0  0  0  0  0  0  0  0  0
   -1.6940    0.5390    0.6190 N   0  0  0  0  0  0  0  0  0  0  0  0
   -2.9170    0.0790    0.9120 C   0  0  0  0  0  0  0  0  0  0  0  0
   -3.3930   -1.0960    1.4180 N   0  0  0  0  0  0  0  0  0  0  0  0
  1  2  1  0
  2  3  2  0
  2 24  1  0
  3  4  1  0
  4  5  2  0
  5  6  1  0
  5 23  1  0
  6  7  1  0
  7  8  1  0
  7 22  2  0
  8  9  1  0
  9 10  1  0
 10 11  1  0
 11 12  2  0
 11 13  1  0
 13 14  1  0
 14 15  2  0
 14 16  1  0
 16 17  1  0
 17 18  1  0
 17 21  2  0
 18 19  2  0
 19 20  1  0
 20 21  1  0
 22 23  1  0
 23 24  2  0
M  END
