
     RDKit          3D

 24 26  0  0  0  0  0  0  0  0999 V2000
   -1.9510   -1.5090   -0.4400 C   0  0  0  0  0  0  0  0  0  0  0  0
   -1.7990   -0.6740    0.7830 C   0  0  0  0  0  0  0  0  0  0  0  0
   -1.6980    0.7710    0.4840 C   0  0  0  0  0  0  0  0  0  0  0  0
   -2.5670    1.6330    0.6360 N   0  0  0  0  0  0  0  0  0  0  0  0
   -2.5400    2.8510    0.3270 C   0  0  0  0  0  0  0  0  0  0  0  0
   -3.5740    3.8990    0.4680 C   0  0  0  0  0  0  0  0  0  0  0  0
   -4.7920    3.6320    1.0650 C   0  0  0  0  0  0  0  0  0  0  0  0
   -5.5070    4.8040    1.0280 C   0  0  0  0  0  0  0  0  0  0  0  0
   -6.8860    5.0740    1.5240 C   0  0  0  0  0  0  0  0  0  0  0  0
   -4.7240    5.7100    0.4320 N   0  0  0  0  0  0  0  0  0  0  0  0
   -3.5610    5.1220    0.1060 O   0  0  0  0  0  0  0  0  0  0  0  0
   -0.9910    2.8320   -0.3120 S   0  0  0  0  0  0  0  0  0  0  0  0
   -0.2490    1.3800   -0.2650 C   0  0  0  0  0  0  0  0  0  0  0  0
    0.4180    0.0760   -0.2220 C   0  0  0  0  0  0  0  0  0  0  0  0
    0.4420   -0.8290    0.5420 O   0  0  0  0  0  0  0  0  0  0  0  0
    1.2740   -0.2020   -1.4150 N   0  0  0  0  0  0  0  0  0  0  0  0
    1.9620   -1.4900   -1.4780 C   0  0  0  0  0  0  0  0  0  0  0  0
    1.1960   -2.6200   -1.7700 C   0  0  0  0  0  0  0  0  0  0  0  0
    2.4560   -3.9550   -1.6880 S   0  0  0  0  0  0  0  0  0  0  0  0
    3.8420   -2.8590   -1.2780 C   0  0  0  0  0  0  0  0  0  0  0  0
    5.2270   -3.3360   -1.0350 C   0  0  0  0  0  0  0  0  0  0  0  0
    5.7700   -2.8360    0.2230 N   0  0  0  0  0  0  0  0  0  0  0  0
    7.0870   -3.4960    0.3650 C   0  0  0  0  0  0  0  0  0  0  0  0
    3.2710   -1.6650   -1.2430 C   0  0  0  0  0  0  0  0  0  0  0  0
  1  2  1  0
  2  3  1  0
  3  4  1  0
  3 13  2  0
  4  5  2  0
  5  6  1  0
  5 12  1  0
  6  7  2  0
  6 11  1  0
  7  8  1  0
  8  9  1  0
  8 10  2  0
 10 11  1  0
 12 13  1  0
 13 14  1  0
 14 15  2  0
 14 16  1  0
 16 17  1  0
 17 18  2  0
 17 24  1  0
 18 19  1  0
 19 20  1  0
 20 21  1  0
 20 24  2  0
 21 22  1  0
 22 23  1  0
M  END
