
     RDKit          3D

 30 33  0  0  0  0  0  0  0  0999 V2000
   -4.4320   -1.2980    2.0800 C   0  0  0  0  0  0  0  0  0  0  0  0
   -4.6710   -2.1620    1.1060 C   0  0  0  0  0  0  0  0  0  0  0  0
   -5.5930   -3.1980    1.2970 O   0  0  0  0  0  0  0  0  0  0  0  0
   -5.8400   -4.1070    0.2620 C   0  0  0  0  0  0  0  0  0  0  0  0
   -5.1950   -3.9720   -0.8850 C   0  0  0  0  0  0  0  0  0  0  0  0
   -4.2180   -2.8840   -1.1060 C   0  0  0  0  0  0  0  0  0  0  0  0
   -3.3810   -2.7260   -2.6270 Cl  0  0  0  0  0  0  0  0  0  0  0  0
   -3.9560   -2.0040   -0.1540 C   0  0  0  0  0  0  0  0  0  0  0  0
   -3.0350   -0.9360   -0.2860 N   0  0  0  0  0  0  0  0  0  0  0  0
   -1.7640   -1.0800   -0.1780 C   0  0  0  0  0  0  0  0  0  0  0  0
   -1.2630   -2.2930    0.0720 N   0  0  0  0  0  0  0  0  0  0  0  0
    0.0110   -2.5320    0.1980 N   0  0  0  0  0  0  0  0  0  0  0  0
    0.8800   -1.5210    0.0730 C   0  0  0  0  0  0  0  0  0  0  0  0
    2.2190   -1.5450    0.1640 N   0  0  0  0  0  0  0  0  0  0  0  0
    2.6670   -0.3070   -0.0290 C   0  0  0  0  0  0  0  0  0  0  0  0
    4.0560    0.1900   -0.0270 C   0  0  0  0  0  0  0  0  0  0  0  0
    4.3390    1.5160   -0.2470 C   0  0  0  0  0  0  0  0  0  0  0  0
    5.6480    1.9570   -0.2410 C   0  0  0  0  0  0  0  0  0  0  0  0
    6.6890    1.0940   -0.0180 C   0  0  0  0  0  0  0  0  0  0  0  0
    7.9730    1.5070   -0.0090 F   0  0  0  0  0  0  0  0  0  0  0  0
    6.4150   -0.2260    0.2010 C   0  0  0  0  0  0  0  0  0  0  0  0
    7.7270   -1.3750    0.4920 Cl  0  0  0  0  0  0  0  0  0  0  0  0
    5.1090   -0.6670    0.1950 C   0  0  0  0  0  0  0  0  0  0  0  0
    1.5700    0.5250   -0.2490 C   0  0  0  0  0  0  0  0  0  0  0  0
    0.4180   -0.2220   -0.1910 C   0  0  0  0  0  0  0  0  0  0  0  0
   -0.9160    0.0420   -0.3250 C   0  0  0  0  0  0  0  0  0  0  0  0
   -1.5110    1.3120   -0.5920 C   0  0  0  0  0  0  0  0  0  0  0  0
   -0.8090    2.5090   -0.7630 N   0  0  0  0  0  0  0  0  0  0  0  0
   -0.4310    3.2130    0.4510 C   0  0  0  0  0  0  0  0  0  0  0  0
    0.4520    4.3730    0.0400 C   0  0  0  0  0  0  0  0  0  0  0  0
  1  2  2  0
  2  3  1  0
  2  8  1  0
  3  4  1  0
  4  5  2  0
  5  6  1  0
  6  7  1  0
  6  8  2  0
  8  9  1  0
  9 10  2  3
 10 11  1  0
 10 26  1  0
 11 12  1  0
 12 13  2  0
 13 14  1  0
 13 25  1  0
 14 15  1  0
 15 16  1  0
 15 24  2  0
 16 17  2  0
 16 23  1  0
 17 18  1  0
 18 19  2  0
 19 20  1  0
 19 21  1  0
 21 22  1  0
 21 23  2  0
 24 25  1  0
 25 26  2  0
 26 27  1  0
 27 28  1  0
 28 29  1  0
 29 30  1  0
M  CHG  1  28   1
M  END
