
     RDKit          3D

 38 42  0  0  0  0  0  0  0  0999 V2000
   -5.4380    4.8940    1.4890 C   0  0  0  0  0  0  0  0  0  0  0  0
   -5.2920    3.4260    1.5990 C   0  0  0  0  0  0  0  0  0  0  0  0
   -6.0020    2.6870    2.4890 N   0  0  0  0  0  0  0  0  0  0  0  0
   -5.6140    1.4400    2.3020 N   0  0  0  0  0  0  0  0  0  0  0  0
   -4.6910    1.3770    1.3290 C   0  0  0  0  0  0  0  0  0  0  0  0
   -4.0470    0.1480    0.8650 C   0  0  0  0  0  0  0  0  0  0  0  0
   -3.1070    0.1470   -0.1430 C   0  0  0  0  0  0  0  0  0  0  0  0
   -2.4860   -1.0260   -0.5900 C   0  0  0  0  0  0  0  0  0  0  0  0
   -2.8170   -2.2190   -0.0120 C   0  0  0  0  0  0  0  0  0  0  0  0
   -2.1730   -3.5170   -0.4390 C   0  0  1  0  0  0  0  0  0  0  0  0
   -3.2110   -4.3510   -1.0190 N   0  0  0  0  0  0  0  0  0  0  0  0
   -3.1630   -4.7140   -2.3850 C   0  0  0  0  0  0  0  0  0  0  0  0
   -4.2560   -5.4870   -2.9410 N   0  0  0  0  0  0  0  0  0  0  0  0
   -2.1810   -4.3760   -3.1340 N   0  0  0  0  0  0  0  0  0  0  0  0
   -1.1180   -3.6170   -2.6050 C   0  0  0  0  0  0  0  0  0  0  0  0
   -1.0660   -3.1990   -1.3450 C   0  0  0  0  0  0  0  0  0  0  0  0
    0.0800   -2.4630   -0.8720 C   0  0  0  0  0  0  0  0  0  0  0  0
    1.0810   -2.1840   -1.7280 F   0  0  0  0  0  0  0  0  0  0  0  0
    0.1780   -2.0560    0.3650 C   0  0  0  0  0  0  0  0  0  0  0  0
    1.3660   -1.3020    0.8160 C   0  0  0  0  0  0  0  0  0  0  0  0
    2.0720   -0.3850    0.1080 N   0  0  0  0  0  0  0  0  0  0  0  0
    3.0790    0.0780    0.8560 C   0  0  0  0  0  0  0  0  0  0  0  0
    4.1020    1.1030    0.4600 C   0  0  0  0  0  0  0  0  0  0  0  0
    5.0040    1.4250    1.3220 C   0  0  0  0  0  0  0  0  0  0  0  0
    6.1020    2.3510    1.2580 C   0  0  0  0  0  0  0  0  0  0  0  0
    6.9710    2.5710    2.2800 C   0  0  0  0  0  0  0  0  0  0  0  0
    7.9310    3.5210    1.9310 N   0  0  0  0  0  0  0  0  0  0  0  0
    7.6610    3.9280    0.6210 C   0  0  0  0  0  0  0  0  0  0  0  0
    6.5770    3.2390    0.2140 C   0  0  0  0  0  0  0  0  0  0  0  0
    3.9870    1.6590   -0.8930 C   0  0  1  0  0  0  0  0  0  0  0  0
    2.8560    1.0310   -1.5020 F   0  0  0  0  0  0  0  0  0  0  0  0
    3.6420    2.9840   -0.9070 F   0  0  0  0  0  0  0  0  0  0  0  0
    5.0150    1.3110   -1.7430 F   0  0  0  0  0  0  0  0  0  0  0  0
    2.9830   -0.5640    2.0310 N   0  0  0  0  0  0  0  0  0  0  0  0
    1.9490   -1.3850    1.9800 O   0  0  0  0  0  0  0  0  0  0  0  0
   -3.7540   -2.2360    0.9960 C   0  0  0  0  0  0  0  0  0  0  0  0
   -4.3610   -1.0690    1.4290 C   0  0  0  0  0  0  0  0  0  0  0  0
   -4.5210    2.6070    0.9240 O   0  0  0  0  0  0  0  0  0  0  0  0
  1  2  1  0
  2  3  2  0
  2 38  1  0
  3  4  1  0
  4  5  2  0
  5  6  1  0
  5 38  1  0
  6  7  2  0
  6 37  1  0
  7  8  1  0
  8  9  2  0
 10  9  1  6
  9 36  1  0
 10 11  1  0
 10 16  1  0
 11 12  1  0
 12 13  1  0
 12 14  2  0
 14 15  1  0
 15 16  2  0
 16 17  1  0
 17 18  1  0
 17 19  2  3
 19 20  1  0
 20 21  2  0
 20 35  1  0
 21 22  1  0
 22 23  1  0
 22 34  2  0
 23 24  2  3
 23 30  1  0
 24 25  1  0
 25 26  2  0
 25 29  1  0
 26 27  1  0
 27 28  1  0
 28 29  2  0
 30 31  1  6
 30 32  1  0
 30 33  1  0
 34 35  1  0
 36 37  2  0
M  CHG  1  27   1
M  END
