
     RDKit          3D

 29 32  0  0  0  0  0  0  0  0999 V2000
   -5.5310    2.4260   -1.4430 C   0  0  0  0  0  0  0  0  0  0  0  0
   -5.1700    1.0770   -0.8090 C   0  0  0  0  0  0  0  0  0  0  0  0
   -3.6730    0.9450   -0.9470 C   0  0  0  0  0  0  0  0  0  0  0  0
   -3.2150   -0.2970   -0.3780 N   0  0  0  0  0  0  0  0  0  0  0  0
   -1.9420   -0.7500   -0.8220 C   0  0  0  0  0  0  0  0  0  0  0  0
   -0.7830   -0.2890    0.0310 C   0  0  1  0  0  0  0  0  0  0  0  0
   -0.8590   -0.7560    1.4320 C   0  0  0  0  0  0  0  0  0  0  0  0
   -0.8540   -2.1860    1.7520 C   0  0  2  0  0  0  0  0  0  0  0  0
   -1.9220   -3.0630    1.2320 C   0  0  0  0  0  0  0  0  0  0  0  0
   -0.9300   -2.2490    3.2970 C   0  0  0  0  0  0  0  0  0  0  0  0
    0.5190   -0.7810   -0.5530 C   0  0  0  0  0  0  0  0  0  0  0  0
    1.5530    0.3080   -0.7740 C   0  0  1  0  0  0  0  0  0  0  0  0
    0.9760    1.4250   -1.6390 C   0  0  0  0  0  0  0  0  0  0  0  0
   -0.4060    1.6930   -1.1360 C   0  0  0  0  0  0  0  0  0  0  0  0
   -0.7720    1.0790    0.0130 O   0  0  0  0  0  0  0  0  0  0  0  0
    1.9940    0.9420    0.4330 N   0  0  0  0  0  0  0  0  0  0  0  0
    3.2970    0.9370    0.9440 C   0  0  0  0  0  0  0  0  0  0  0  0
    3.6520    1.5550    2.1340 C   0  0  0  0  0  0  0  0  0  0  0  0
    4.9250    1.5630    2.6540 C   0  0  0  0  0  0  0  0  0  0  0  0
    5.3830    2.3370    4.1510 Cl  0  0  0  0  0  0  0  0  0  0  0  0
    5.8990    0.9080    1.9290 C   0  0  0  0  0  0  0  0  0  0  0  0
    7.5630    0.8420    2.4800 Cl  0  0  0  0  0  0  0  0  0  0  0  0
    5.5880    0.2790    0.7380 C   0  0  0  0  0  0  0  0  0  0  0  0
    4.2900    0.2920    0.2440 C   0  0  0  0  0  0  0  0  0  0  0  0
    3.9460   -0.3470   -0.9780 N   0  0  0  0  0  0  0  0  0  0  0  0
    4.7660   -1.0210   -1.8160 C   0  0  0  0  0  0  0  0  0  0  0  0
    4.0100   -1.4370   -2.8330 N   0  0  0  0  0  0  0  0  0  0  0  0
    2.7660   -1.0360   -2.6330 N   0  0  0  0  0  0  0  0  0  0  0  0
    2.6970   -0.3430   -1.4630 C   0  0  0  0  0  0  0  0  0  0  0  0
  1  2  1  0
  2  3  1  0
  3  4  1  0
  4  5  1  0
  6  5  1  6
  6  7  1  0
  6 11  1  0
  6 15  1  0
  7  8  1  0
  8  9  1  6
  8 10  1  0
 12 11  1  1
 12 13  1  0
 12 16  1  0
 12 29  1  0
 13 14  1  0
 14 15  1  0
 16 17  1  0
 17 18  2  0
 17 24  1  0
 18 19  1  0
 19 20  1  0
 19 21  2  0
 21 22  1  0
 21 23  1  0
 23 24  2  0
 24 25  1  0
 25 26  1  0
 25 29  1  0
 26 27  2  0
 27 28  1  0
 28 29  2  0
M  CHG  1   4   1
M  END
