
     RDKit          3D

 30 33  0  0  0  0  0  0  0  0999 V2000
   -0.7750   -3.1240    3.2640 C   0  0  0  0  0  0  0  0  0  0  0  0
   -0.8020   -2.8900    1.8400 N   0  0  0  0  0  0  0  0  0  0  0  0
    0.3640   -2.6040    1.1340 C   0  0  0  0  0  0  0  0  0  0  0  0
    0.5770   -1.4550    0.5120 C   0  0  0  0  0  0  0  0  0  0  0  0
    1.7350   -1.0690   -0.2350 N   0  0  0  0  0  0  0  0  0  0  0  0
    1.5300    0.1390   -0.6770 C   0  0  0  0  0  0  0  0  0  0  0  0
    0.1910    0.5910   -0.2180 C   0  0  0  0  0  0  0  0  0  0  0  0
   -0.3820   -0.3600    0.4940 C   0  0  0  0  0  0  0  0  0  0  0  0
   -1.6490   -0.3170    1.1010 N   0  0  0  0  0  0  0  0  0  0  0  0
   -2.8170    0.1690    0.4510 C   0  0  0  0  0  0  0  0  0  0  0  0
   -3.1600   -0.3620   -0.7070 C   0  0  0  0  0  0  0  0  0  0  0  0
   -2.2780   -1.6350   -1.5160 Cl  0  0  0  0  0  0  0  0  0  0  0  0
   -4.3840    0.1700   -1.3560 C   0  0  0  0  0  0  0  0  0  0  0  0
   -5.4320    0.1400   -0.3530 N   0  0  0  0  0  0  0  0  0  0  0  0
   -5.1490    0.9140    0.8150 C   0  0  0  0  0  0  0  0  0  0  0  0
   -3.6850    1.2460    0.9960 C   0  0  0  0  0  0  0  0  0  0  0  0
   -0.1640    1.9560   -0.6610 C   0  0  0  0  0  0  0  0  0  0  0  0
    0.1600    2.0240   -2.1530 C   0  0  0  0  0  0  0  0  0  0  0  0
    1.6050    1.8740   -2.4710 C   0  0  2  0  0  0  0  0  0  0  0  0
    1.7170    1.2390   -3.7080 O   0  0  0  0  0  0  0  0  0  0  0  0
    2.3540    1.0260   -1.4910 C   0  0  0  0  0  0  0  0  0  0  0  0
    3.6460    1.0720   -1.3500 C   0  0  0  0  0  0  0  0  0  0  0  0
    4.5100    2.2030   -2.4210 Cl  0  0  0  0  0  0  0  0  0  0  0  0
    4.4590    0.3500   -0.4220 C   0  0  0  0  0  0  0  0  0  0  0  0
    5.6300   -0.2330   -0.8330 C   0  0  0  0  0  0  0  0  0  0  0  0
    6.4060   -0.9120    0.1100 C   0  0  0  0  0  0  0  0  0  0  0  0
    6.0500   -1.0150    1.3970 N   0  0  0  0  0  0  0  0  0  0  0  0
    4.8920   -0.4420    1.8190 C   0  0  0  0  0  0  0  0  0  0  0  0
    4.5410   -0.5520    3.1230 F   0  0  0  0  0  0  0  0  0  0  0  0
    4.1000    0.2430    0.8930 C   0  0  0  0  0  0  0  0  0  0  0  0
  1  2  1  0
  2  3  1  0
  3  4  2  3
  4  5  1  0
  4  8  1  0
  5  6  2  0
  6  7  1  0
  6 21  1  0
  7  8  2  0
  7 17  1  0
  8  9  1  0
  9 10  1  0
 10 11  2  0
 10 16  1  0
 11 12  1  0
 11 13  1  0
 13 14  1  0
 14 15  1  0
 15 16  1  0
 17 18  1  0
 18 19  1  0
 19 20  1  6
 19 21  1  0
 21 22  2  3
 22 23  1  0
 22 24  1  0
 24 25  2  0
 24 30  1  0
 25 26  1  0
 26 27  2  0
 27 28  1  0
 28 29  1  0
 28 30  2  0
M  CHG  1  14   1
M  END
