
     RDKit          3D

 38 42  0  0  0  0  0  0  0  0999 V2000
    2.5570    2.4810    1.3610 C   0  0  0  0  0  0  0  0  0  0  0  0
    1.8040    1.3020    0.9970 N   0  0  0  0  0  0  0  0  0  0  0  0
    0.4680    1.4250    0.7920 C   0  0  0  0  0  0  0  0  0  0  0  0
   -0.0740    2.5250    1.0140 O   0  0  0  0  0  0  0  0  0  0  0  0
   -0.2550    0.3110    0.3400 C   0  0  0  0  0  0  0  0  0  0  0  0
   -1.6100    0.5610    0.0820 N   0  0  0  0  0  0  0  0  0  0  0  0
   -2.3450   -0.3760   -0.7490 C   0  0  0  0  0  0  0  0  0  0  0  0
   -1.6590   -1.2400   -1.5740 C   0  0  0  0  0  0  0  0  0  0  0  0
   -2.3490   -1.9870   -2.5730 C   0  0  0  0  0  0  0  0  0  0  0  0
   -3.6800   -1.7940   -2.6540 C   0  0  0  0  0  0  0  0  0  0  0  0
   -4.4110   -2.4620   -3.5990 F   0  0  0  0  0  0  0  0  0  0  0  0
   -4.3970   -0.9400   -1.8440 C   0  0  0  0  0  0  0  0  0  0  0  0
   -5.7560   -0.7740   -1.9860 C   0  0  0  0  0  0  0  0  0  0  0  0
   -6.3820    0.1100   -1.1380 C   0  0  0  0  0  0  0  0  0  0  0  0
   -5.7300    0.8310   -0.1600 C   0  0  0  0  0  0  0  0  0  0  0  0
   -6.4380    1.8070    0.7260 C   0  0  0  0  0  0  0  0  0  0  0  0
   -7.1040    1.0520    1.8700 C   0  0  0  0  0  0  0  0  0  0  0  0
   -8.1280    0.1310    1.3660 N   0  0  0  0  0  0  0  0  0  0  0  0
   -4.3790    0.6510   -0.0380 N   0  0  0  0  0  0  0  0  0  0  0  0
   -3.7230   -0.2150   -0.8690 C   0  0  0  0  0  0  0  0  0  0  0  0
    0.3920   -0.8320    0.1400 N   0  0  0  0  0  0  0  0  0  0  0  0
    1.7060   -1.0060    0.3270 C   0  0  0  0  0  0  0  0  0  0  0  0
    2.3520   -2.1750    0.0240 C   0  0  0  0  0  0  0  0  0  0  0  0
    3.7340   -2.2530    0.1250 C   0  0  0  0  0  0  0  0  0  0  0  0
    4.4390   -1.1470    0.5370 C   0  0  0  0  0  0  0  0  0  0  0  0
    5.9170   -1.1190    0.4770 C   0  0  0  0  0  0  0  0  0  0  0  0
    6.5200    0.0490    0.7010 N   0  0  0  0  0  0  0  0  0  0  0  0
    7.8590    0.1740    0.5330 C   0  0  0  0  0  0  0  0  0  0  0  0
    8.5010    1.5050    0.6980 C   0  0  2  0  0  0  0  0  0  0  0  0
    8.9190    1.9210   -0.5750 F   0  0  0  0  0  0  0  0  0  0  0  0
    9.5830    1.3670    1.5410 F   0  0  0  0  0  0  0  0  0  0  0  0
    7.5610    2.4030    1.1580 F   0  0  0  0  0  0  0  0  0  0  0  0
    8.6320   -0.8540    0.1480 N   0  0  0  0  0  0  0  0  0  0  0  0
    8.0080   -2.0180   -0.0640 C   0  0  0  0  0  0  0  0  0  0  0  0
    8.7170   -2.9880   -0.4220 O   0  0  0  0  0  0  0  0  0  0  0  0
    6.6580   -2.1630    0.0960 N   0  0  0  0  0  0  0  0  0  0  0  0
    3.7740    0.0140    0.8570 C   0  0  0  0  0  0  0  0  0  0  0  0
    2.4010    0.1450    0.7730 C   0  0  0  0  0  0  0  0  0  0  0  0
  1  2  1  0
  2  3  1  0
  2 38  1  0
  3  4  2  0
  3  5  1  0
  5  6  1  0
  5 21  2  0
  6  7  1  0
  7  8  2  0
  7 20  1  0
  8  9  1  0
  9 10  2  0
 10 11  1  0
 10 12  1  0
 12 13  2  0
 12 20  1  0
 13 14  1  0
 14 15  2  0
 15 16  1  0
 15 19  1  0
 16 17  1  0
 17 18  1  0
 19 20  2  0
 21 22  1  0
 22 23  2  0
 22 38  1  0
 23 24  1  0
 24 25  2  0
 25 26  1  0
 25 37  1  0
 26 27  1  0
 26 36  2  0
 27 28  2  0
 28 29  1  0
 28 33  1  0
 29 30  1  6
 29 31  1  0
 29 32  1  0
 33 34  1  0
 34 35  2  0
 34 36  1  0
 37 38  2  0
M  CHG  1  18   1
M  END
