
     RDKit          3D

 30 33  0  0  0  0  0  0  0  0999 V2000
    3.9170   -0.6640   -0.6790 F   0  0  0  0  0  0  0  0  0  0  0  0
    4.2610    0.6480   -0.5750 C   0  0  0  0  0  0  0  0  0  0  0  0
    3.6440    1.4900    0.2290 C   0  0  0  0  0  0  0  0  0  0  0  0
    2.5180    1.2090    1.1350 C   0  0  0  0  0  0  0  0  0  0  0  0
    2.2740    1.6960    2.4000 C   0  0  0  0  0  0  0  0  0  0  0  0
    1.1300    1.1970    2.8980 N   0  0  0  0  0  0  0  0  0  0  0  0
    0.6320    0.3850    1.9490 C   0  0  0  0  0  0  0  0  0  0  0  0
   -0.4710   -0.2680    2.0910 N   0  0  0  0  0  0  0  0  0  0  0  0
   -0.9110   -1.1010    1.0290 C   0  0  0  0  0  0  0  0  0  0  0  0
   -0.5570   -2.5330    1.1160 C   0  0  0  0  0  0  0  0  0  0  0  0
   -1.0130   -3.3330    0.0800 O   0  0  0  0  0  0  0  0  0  0  0  0
   -2.3070   -3.5840   -0.2970 C   0  0  0  0  0  0  0  0  0  0  0  0
   -3.4010   -3.0560    0.3460 C   0  0  0  0  0  0  0  0  0  0  0  0
   -4.7080   -3.3060   -0.0280 C   0  0  0  0  0  0  0  0  0  0  0  0
   -4.9290   -4.1330   -1.1110 C   0  0  0  0  0  0  0  0  0  0  0  0
   -3.8330   -4.6690   -1.7620 C   0  0  0  0  0  0  0  0  0  0  0  0
   -2.5450   -4.4200   -1.3910 C   0  0  0  0  0  0  0  0  0  0  0  0
   -1.2360   -5.1540   -2.2920 Cl  0  0  0  0  0  0  0  0  0  0  0  0
   -1.5670   -0.6060    0.0680 N   0  0  0  0  0  0  0  0  0  0  0  0
   -1.9100    0.7890   -0.0300 C   0  0  0  0  0  0  0  0  0  0  0  0
   -2.3230    1.5250    1.0470 C   0  0  0  0  0  0  0  0  0  0  0  0
   -2.6450    2.8580    0.9240 C   0  0  0  0  0  0  0  0  0  0  0  0
   -2.5540    3.4870   -0.3230 C   0  0  0  0  0  0  0  0  0  0  0  0
   -2.1400    2.7210   -1.3720 C   0  0  0  0  0  0  0  0  0  0  0  0
   -1.8170    1.3940   -1.2580 C   0  0  0  0  0  0  0  0  0  0  0  0
   -1.2970    0.5130   -2.6910 Cl  0  0  0  0  0  0  0  0  0  0  0  0
    1.4640    0.3880    0.8860 N   0  0  0  0  0  0  0  0  0  0  0  0
    4.2840    2.8120    0.0620 C   0  0  0  0  0  0  0  0  0  0  0  0
    5.6010    2.4750   -0.4300 N   0  0  0  0  0  0  0  0  0  0  0  0
    5.3560    1.3560   -1.3130 C   0  0  0  0  0  0  0  0  0  0  0  0
  1  2  1  0
  2  3  2  0
  2 30  1  0
  3  4  1  0
  3 28  1  0
  4  5  2  0
  4 27  1  0
  5  6  1  0
  6  7  1  0
  7  8  2  3
  7 27  1  0
  8  9  1  0
  9 10  1  0
  9 19  2  3
 10 11  1  0
 11 12  1  0
 12 13  2  0
 12 17  1  0
 13 14  1  0
 14 15  2  0
 15 16  1  0
 16 17  2  0
 17 18  1  0
 19 20  1  0
 20 21  2  0
 20 25  1  0
 21 22  1  0
 22 23  2  0
 23 24  1  0
 24 25  2  0
 25 26  1  0
 28 29  1  0
 29 30  1  0
M  CHG  1  29   1
M  END
