
     RDKit          3D

 37 41  0  0  0  0  0  0  0  0999 V2000
   -2.1990   -5.4290    0.0290 C   0  0  0  0  0  0  0  0  0  0  0  0
   -1.4770   -4.1140    0.1850 C   0  0  0  0  0  0  0  0  0  0  0  0
   -2.4100   -3.0590   -0.1920 N   0  0  0  0  0  0  0  0  0  0  0  0
   -1.6940   -1.8040   -0.3190 C   0  0  2  0  0  0  0  0  0  0  0  0
   -2.3990   -0.8160    0.5370 C   0  0  0  0  0  0  0  0  0  0  0  0
   -2.8020   -1.1380    1.8140 C   0  0  0  0  0  0  0  0  0  0  0  0
   -3.4490   -0.2270    2.5960 N   0  0  0  0  0  0  0  0  0  0  0  0
   -3.7180    1.0140    2.1590 C   0  0  0  0  0  0  0  0  0  0  0  0
   -4.3180    2.0690    2.6980 O   0  0  0  0  0  0  0  0  0  0  0  0
   -4.3260    3.0650    1.8360 C   0  0  0  0  0  0  0  0  0  0  0  0
   -4.8110    4.3610    1.8770 C   0  0  0  0  0  0  0  0  0  0  0  0
   -4.6690    5.1900    0.7950 C   0  0  0  0  0  0  0  0  0  0  0  0
   -4.0440    4.7690   -0.3690 C   0  0  0  0  0  0  0  0  0  0  0  0
   -3.5810    3.5090   -0.3900 N   0  0  0  0  0  0  0  0  0  0  0  0
   -3.7060    2.6640    0.6670 C   0  0  0  0  0  0  0  0  0  0  0  0
   -3.3270    1.3570    0.8930 C   0  0  0  0  0  0  0  0  0  0  0  0
   -2.6630    0.4520    0.0630 C   0  0  0  0  0  0  0  0  0  0  0  0
   -1.7380   -1.4120   -1.7500 C   0  0  0  0  0  0  0  0  0  0  0  0
   -2.8550   -1.4720   -2.4960 N   0  0  0  0  0  0  0  0  0  0  0  0
   -2.5280   -1.0490   -3.7130 C   0  0  0  0  0  0  0  0  0  0  0  0
   -1.2230   -0.7410   -3.6850 N   0  0  0  0  0  0  0  0  0  0  0  0
   -0.7210   -0.9580   -2.4830 N   0  0  0  0  0  0  0  0  0  0  0  0
    0.6030   -0.7790   -1.9820 C   0  0  0  0  0  0  0  0  0  0  0  0
    1.6470   -1.5890   -2.3700 C   0  0  0  0  0  0  0  0  0  0  0  0
    2.9170   -1.4020   -1.8780 C   0  0  0  0  0  0  0  0  0  0  0  0
    3.2410   -0.3940   -0.9610 C   0  0  0  0  0  0  0  0  0  0  0  0
    4.5750   -0.2810   -0.5090 N   0  0  0  0  0  0  0  0  0  0  0  0
    5.1100    0.6830    0.3660 C   0  0  0  0  0  0  0  0  0  0  0  0
    4.3610    1.5540    0.8150 O   0  0  0  0  0  0  0  0  0  0  0  0
    6.5080    0.6500    0.7280 N   0  0  0  0  0  0  0  0  0  0  0  0
    7.1040    1.5980    1.6000 C   0  0  0  0  0  0  0  0  0  0  0  0
    7.0850    3.0210    1.1470 C   0  0  2  0  0  0  0  0  0  0  0  0
    5.8510    3.5560    0.9470 F   0  0  0  0  0  0  0  0  0  0  0  0
    7.8990    3.2110    0.0220 F   0  0  0  0  0  0  0  0  0  0  0  0
    7.7230    3.7760    2.1480 F   0  0  0  0  0  0  0  0  0  0  0  0
    2.1940    0.4050   -0.5820 C   0  0  0  0  0  0  0  0  0  0  0  0
    0.8930    0.2190   -1.0810 C   0  0  0  0  0  0  0  0  0  0  0  0
  1  2  1  0
  2  3  1  0
  4  3  1  6
  4  5  1  0
  4 18  1  0
  5  6  2  0
  5 17  1  0
  6  7  1  0
  7  8  2  0
  8  9  1  0
  8 16  1  0
  9 10  1  0
 10 11  2  0
 10 15  1  0
 11 12  1  0
 12 13  2  0
 13 14  1  0
 14 15  2  0
 15 16  1  0
 16 17  2  0
 18 19  2  0
 18 22  1  0
 19 20  1  0
 20 21  2  0
 21 22  1  0
 22 23  1  0
 23 24  2  0
 23 37  1  0
 24 25  1  0
 25 26  2  0
 26 27  1  0
 26 36  1  0
 27 28  1  0
 28 29  2  0
 28 30  1  0
 30 31  1  0
 31 32  1  0
 32 33  1  6
 32 34  1  0
 32 35  1  0
 36 37  2  0
M  CHG  1   3   1
M  END
