
     RDKit          3D

 26 28  0  0  0  0  0  0  0  0999 V2000
    4.4540   -2.0280    1.1390 N   0  0  0  0  0  0  0  0  0  0  0  0
    3.1400   -1.5200    1.0950 C   0  0  0  0  0  0  0  0  0  0  0  0
    2.4410   -1.4820    2.1250 O   0  0  0  0  0  0  0  0  0  0  0  0
    2.6000   -1.0340   -0.1890 C   0  0  2  0  0  0  0  0  0  0  0  0
    1.2880   -0.5580   -0.0900 O   0  0  0  0  0  0  0  0  0  0  0  0
    0.9370    0.7670   -0.3190 C   0  0  0  0  0  0  0  0  0  0  0  0
    1.9130    1.5200   -0.6270 O   0  0  0  0  0  0  0  0  0  0  0  0
   -0.4320    1.2750   -0.2190 C   0  0  0  0  0  0  0  0  0  0  0  0
   -1.5590    0.5620    0.1050 C   0  0  0  0  0  0  0  0  0  0  0  0
   -1.6520   -0.8580    0.4270 C   0  0  1  0  0  0  0  0  0  0  0  0
   -2.5090   -1.0780    1.6070 N   0  0  0  0  0  0  0  0  0  0  0  0
   -2.7180   -2.5010    1.6780 C   0  0  0  0  0  0  0  0  0  0  0  0
   -3.4280   -2.9280    0.4190 C   0  0  0  0  0  0  0  0  0  0  0  0
   -2.6890   -1.7610   -0.7950 S   0  0  0  0  0  0  0  0  0  0  0  0
   -2.5770    1.4720    0.0620 N   0  0  0  0  0  0  0  0  0  0  0  0
   -2.0830    2.6710   -0.2700 C   0  0  0  0  0  0  0  0  0  0  0  0
   -2.6420    3.9330   -0.4570 C   0  0  0  0  0  0  0  0  0  0  0  0
   -3.8760    4.0470   -0.2960 O   0  0  0  0  0  0  0  0  0  0  0  0
   -1.8940    4.9990   -0.8000 N   0  0  0  0  0  0  0  0  0  0  0  0
   -0.5610    4.8760   -0.9750 C   0  0  0  0  0  0  0  0  0  0  0  0
    0.1220    5.8790   -1.2940 O   0  0  0  0  0  0  0  0  0  0  0  0
   -0.0310    3.6540   -0.7920 N   0  0  0  0  0  0  0  0  0  0  0  0
   -0.7390    2.5870   -0.4550 N   0  0  0  0  0  0  0  0  0  0  0  0
    2.7440   -2.0720   -1.2450 C   0  0  0  0  0  0  0  0  0  0  0  0
    3.9780   -2.7060   -1.5370 N   0  0  0  0  0  0  0  0  0  0  0  0
    1.7150   -2.3830   -1.8950 O   0  0  0  0  0  0  0  0  0  0  0  0
  1  2  1  0
  2  3  2  0
  2  4  1  0
  4  5  1  1
  4 24  1  0
  5  6  1  0
  6  7  2  0
  6  8  1  0
  8  9  2  0
  8 23  1  0
 10  9  1  6
  9 15  1  0
 10 11  1  0
 10 14  1  0
 11 12  1  0
 12 13  1  0
 13 14  1  0
 15 16  2  0
 16 17  1  0
 16 23  1  0
 17 18  2  0
 17 19  1  0
 19 20  1  0
 20 21  2  0
 20 22  1  0
 22 23  1  0
 24 25  1  0
 24 26  2  0
M  END
