
     RDKit          3D

 26 28  0  0  0  0  0  0  0  0999 V2000
    5.6950   -1.1790   -0.2050 O   0  0  0  0  0  0  0  0  0  0  0  0
    4.6940   -0.4290   -0.1210 C   0  0  0  0  0  0  0  0  0  0  0  0
    3.4200   -1.0070   -0.4050 N   0  0  0  0  0  0  0  0  0  0  0  0
    3.2840   -2.3730   -0.7710 C   0  0  0  0  0  0  0  0  0  0  0  0
    4.6420   -3.2870   -0.8630 S   0  0  0  0  0  0  0  0  0  0  0  0
    2.0190   -2.9440   -1.0460 N   0  0  0  0  0  0  0  0  0  0  0  0
    0.8080   -2.2500   -0.9880 N   0  0  0  0  0  0  0  0  0  0  0  0
   -0.2630   -2.6610   -0.1360 C   0  0  0  0  0  0  0  0  0  0  0  0
   -0.0070   -3.7070    0.5550 O   0  0  0  0  0  0  0  0  0  0  0  0
   -1.5580   -1.9960   -0.0150 C   0  0  2  0  0  0  0  0  0  0  0  0
   -2.2530   -1.5670   -1.3490 C   0  0  0  0  0  0  0  0  0  0  0  0
   -1.8110   -0.5770   -0.2940 C   0  0  2  0  0  0  0  0  0  0  0  0
   -0.8000    0.2930   -0.6950 O   0  0  0  0  0  0  0  0  0  0  0  0
   -2.9510    0.1070    0.4200 C   0  0  0  0  0  0  0  0  0  0  0  0
   -3.0950    1.5270    0.0450 C   0  0  0  0  0  0  0  0  0  0  0  0
   -2.3390    1.9930   -0.7770 O   0  0  0  0  0  0  0  0  0  0  0  0
   -4.1230    2.4240    0.6240 C   0  0  2  0  0  0  0  0  0  0  0  0
   -4.9240    1.7200    1.5870 O   0  0  0  0  0  0  0  0  0  0  0  0
   -5.9870    1.1930    0.8970 C   0  0  0  0  0  0  0  0  0  0  0  0
   -6.0860    1.8200   -0.2140 N   0  0  0  0  0  0  0  0  0  0  0  0
   -5.1100    2.7840   -0.3250 O   0  0  0  0  0  0  0  0  0  0  0  0
    4.8800    0.9640    0.2560 C   0  0  0  0  0  0  0  0  0  0  0  0
    6.0480    1.5280    0.5580 N   0  0  0  0  0  0  0  0  0  0  0  0
    5.8830    2.8260    0.8580 C   0  0  0  0  0  0  0  0  0  0  0  0
    4.5650    3.0420    0.7280 N   0  0  0  0  0  0  0  0  0  0  0  0
    3.9510    1.9320    0.3670 N   0  0  0  0  0  0  0  0  0  0  0  0
  1  2  2  0
  2  3  1  0
  2 22  1  0
  3  4  1  0
  4  5  2  0
  4  6  1  0
  6  7  1  0
  7  8  1  0
  8  9  2  0
 10  8  1  6
 10 11  1  0
 10 12  1  0
 11 12  1  0
 12 13  1  6
 12 14  1  0
 14 15  1  0
 15 16  2  0
 17 15  1  6
 17 18  1  0
 17 21  1  0
 18 19  1  0
 19 20  2  0
 20 21  1  0
 22 23  1  0
 22 26  2  0
 23 24  2  0
 24 25  1  0
 25 26  1  0
M  END
