
     RDKit          3D

 25 26  0  0  0  0  0  0  0  0999 V2000
    1.1040    0.7980    1.9570 C   0  0  0  0  0  0  0  0  0  0  0  0
    0.5330   -0.0500    0.8340 C   0  0  1  0  0  0  0  0  0  0  0  0
    1.3810   -1.6360    0.7140 S   0  0  0  0  0  0  0  0  0  0  0  0
    3.0700   -1.4720    0.1580 C   0  0  0  0  0  0  0  0  0  0  0  0
    3.8630   -2.5170    0.1370 N   0  0  0  0  0  0  0  0  0  0  0  0
    5.2140   -2.4560   -0.2880 C   0  0  0  0  0  0  0  0  0  0  0  0
    5.9290   -3.4810   -0.1430 O   0  0  0  0  0  0  0  0  0  0  0  0
    5.7580   -1.2570   -0.8700 C   0  0  2  0  0  0  0  0  0  0  0  0
    6.9010   -0.6820   -0.2700 O   0  0  0  0  0  0  0  0  0  0  0  0
    6.9780    0.5750   -0.9130 C   0  0  0  0  0  0  0  0  0  0  0  0
    7.9880    1.2620   -1.1950 O   0  0  0  0  0  0  0  0  0  0  0  0
    5.6300    1.0030   -1.2330 N   0  0  0  0  0  0  0  0  0  0  0  0
    4.8160   -0.0810   -0.7310 C   0  0  0  0  0  0  0  0  0  0  0  0
    3.5850   -0.1890   -0.2990 C   0  0  0  0  0  0  0  0  0  0  0  0
   -0.9090   -0.3460    1.0950 C   0  0  0  0  0  0  0  0  0  0  0  0
   -1.4090   -1.3890    0.5670 O   0  0  0  0  0  0  0  0  0  0  0  0
   -1.6990    0.5000    1.8960 N   0  0  0  0  0  0  0  0  0  0  0  0
   -3.0910    0.1790    2.0960 C   0  0  0  0  0  0  0  0  0  0  0  0
   -3.7460    0.2250    0.7470 C   0  0  0  0  0  0  0  0  0  0  0  0
   -3.0600    0.5030   -0.2500 O   0  0  0  0  0  0  0  0  0  0  0  0
   -5.1240   -0.0380    0.5780 N   0  0  0  0  0  0  0  0  0  0  0  0
   -5.7250    0.0190   -0.6890 N   0  0  0  0  0  0  0  0  0  0  0  0
   -6.8830    0.8120   -0.9150 C   0  0  0  0  0  0  0  0  0  0  0  0
   -7.5100    0.8990   -2.1890 N   0  0  0  0  0  0  0  0  0  0  0  0
   -7.3620    1.4560    0.0400 O   0  0  0  0  0  0  0  0  0  0  0  0
  2  1  1  1
  2  3  1  0
  2 15  1  0
  3  4  1  0
  4  5  2  0
  4 14  1  0
  5  6  1  0
  6  7  2  0
  6  8  1  0
  8  9  1  1
  8 13  1  0
  9 10  1  0
 10 11  2  0
 10 12  1  0
 12 13  1  0
 13 14  2  0
 15 16  2  0
 15 17  1  0
 17 18  1  0
 18 19  1  0
 19 20  2  0
 19 21  1  0
 21 22  1  0
 22 23  1  0
 23 24  1  0
 23 25  2  0
M  END
