
     RDKit          3D

 26 27  0  0  0  0  0  0  0  0999 V2000
    6.3180    1.7360   -0.5620 C   0  0  0  0  0  0  0  0  0  0  0  0
    4.8040    1.9610   -0.4990 C   0  0  0  0  0  0  0  0  0  0  0  0
    4.2170    0.8680   -1.0990 O   0  0  0  0  0  0  0  0  0  0  0  0
    2.8880    0.9680   -1.0950 N   0  0  0  0  0  0  0  0  0  0  0  0
    2.2990    0.3650    0.0930 C   0  0  2  0  0  0  0  0  0  0  0  0
    2.6100   -1.0120    0.1910 N   0  0  0  0  0  0  0  0  0  0  0  0
    1.3900   -1.7090    0.3130 C   0  0  0  0  0  0  0  0  0  0  0  0
    1.3490   -3.0020    0.4190 O   0  0  0  0  0  0  0  0  0  0  0  0
    0.2900   -0.7560    0.2940 C   0  0  0  0  0  0  0  0  0  0  0  0
    0.8390    0.4660    0.1600 C   0  0  0  0  0  0  0  0  0  0  0  0
   -0.0250    1.6820    0.0950 C   0  0  0  0  0  0  0  0  0  0  0  0
    0.3900    2.6020    0.9140 O   0  0  0  0  0  0  0  0  0  0  0  0
   -1.1630    1.9050   -0.7130 N   0  0  0  0  0  0  0  0  0  0  0  0
   -1.8920    1.3030   -1.7120 C   0  0  0  0  0  0  0  0  0  0  0  0
   -1.7420    1.8810   -2.9020 O   0  0  0  0  0  0  0  0  0  0  0  0
   -2.7760    0.2340   -1.8710 N   0  0  0  0  0  0  0  0  0  0  0  0
   -4.0130   -0.1650   -1.2380 C   0  0  0  0  0  0  0  0  0  0  0  0
   -4.1510   -1.6410   -1.0730 C   0  0  0  0  0  0  0  0  0  0  0  0
   -3.7420   -2.2250   -2.1560 O   0  0  0  0  0  0  0  0  0  0  0  0
   -4.6060   -2.4420   -0.0450 N   0  0  0  0  0  0  0  0  0  0  0  0
   -4.1540   -2.5790    1.3250 C   0  0  0  0  0  0  0  0  0  0  0  0
   -4.7790   -3.7350    2.3100 S   0  0  0  0  0  0  0  0  0  0  0  0
   -3.1400   -1.7250    1.8990 N   0  0  0  0  0  0  0  0  0  0  0  0
   -2.1900   -0.8710    1.2290 C   0  0  0  0  0  0  0  0  0  0  0  0
   -2.5090    0.3720    1.5470 O   0  0  0  0  0  0  0  0  0  0  0  0
   -1.1140   -1.0460    0.3990 N   0  0  0  0  0  0  0  0  0  0  0  0
  1  2  1  0
  2  3  1  0
  3  4  1  0
  5  4  1  6
  5  6  1  0
  5 10  1  0
  6  7  1  0
  7  8  2  0
  7  9  1  0
  9 10  2  0
  9 26  1  0
 10 11  1  0
 11 12  2  0
 11 13  1  0
 13 14  1  0
 14 15  2  0
 14 16  1  0
 16 17  1  0
 17 18  1  0
 18 19  2  0
 18 20  1  0
 20 21  1  0
 21 22  2  0
 21 23  1  0
 23 24  1  0
 24 25  2  0
 24 26  1  0
M  END
