
     RDKit          3D

 26 28  0  0  0  0  0  0  0  0999 V2000
   -2.5520    1.6600    1.4690 C   0  0  0  0  0  0  0  0  0  0  0  0
   -2.5600    0.7160    0.2670 C   0  0  2  0  0  0  0  0  0  0  0  0
   -1.2160    0.5610   -0.3080 C   0  0  0  0  0  0  0  0  0  0  0  0
   -1.0660    1.0670   -1.4800 O   0  0  0  0  0  0  0  0  0  0  0  0
   -0.0750   -0.0750    0.2670 C   0  0  0  0  0  0  0  0  0  0  0  0
    1.1250   -0.1000   -0.4060 C   0  0  0  0  0  0  0  0  0  0  0  0
    1.2100    0.5280   -1.6690 N   0  0  0  0  0  0  0  0  0  0  0  0
    2.2270   -0.6920    0.0740 N   0  0  0  0  0  0  0  0  0  0  0  0
    3.4560   -0.6780   -0.6900 C   0  0  0  0  0  0  0  0  0  0  0  0
    4.4700    0.7540   -0.3060 S   0  0  0  0  0  0  0  0  0  0  0  0
    5.9610    0.6700   -1.3070 C   0  0  0  0  0  0  0  0  0  0  0  0
    6.2970   -0.2740   -2.1930 N   0  0  0  0  0  0  0  0  0  0  0  0
    7.4790    0.0530   -2.7060 C   0  0  0  0  0  0  0  0  0  0  0  0
    7.8770    1.1610   -2.1660 O   0  0  0  0  0  0  0  0  0  0  0  0
    6.9770    1.5440   -1.3250 N   0  0  0  0  0  0  0  0  0  0  0  0
    2.1730   -1.3000    1.2810 C   0  0  0  0  0  0  0  0  0  0  0  0
    3.2380   -1.8530    1.7080 O   0  0  0  0  0  0  0  0  0  0  0  0
    1.0360   -1.3070    1.9770 N   0  0  0  0  0  0  0  0  0  0  0  0
   -0.0720   -0.7120    1.4930 C   0  0  0  0  0  0  0  0  0  0  0  0
   -1.1530   -0.7240    2.1620 O   0  0  0  0  0  0  0  0  0  0  0  0
   -3.4500    1.3420   -0.7230 N   0  0  0  0  0  0  0  0  0  0  0  0
   -4.6530    0.7980   -0.5650 O   0  0  0  0  0  0  0  0  0  0  0  0
   -4.6530   -0.0150    0.5410 C   0  0  1  0  0  0  0  0  0  0  0  0
   -5.6130   -1.1760    0.4420 C   0  0  0  0  0  0  0  0  0  0  0  0
   -5.3970   -1.9970    1.5630 O   0  0  0  0  0  0  0  0  0  0  0  0
   -3.2620   -0.4920    0.5520 N   0  0  0  0  0  0  0  0  0  0  0  0
  2  1  1  1
  2  3  1  0
  2 21  1  0
  2 26  1  0
  3  4  2  0
  3  5  1  0
  5  6  2  0
  5 19  1  0
  6  7  1  0
  6  8  1  0
  8  9  1  0
  8 16  1  0
  9 10  1  0
 10 11  1  0
 11 12  1  0
 11 15  2  0
 12 13  2  0
 13 14  1  0
 14 15  1  0
 16 17  2  0
 16 18  1  0
 18 19  1  0
 19 20  2  0
 21 22  1  0
 22 23  1  0
 23 24  1  6
 23 26  1  0
 24 25  1  0
M  END
