
     RDKit          3D

 26 27  0  0  0  0  0  0  0  0999 V2000
    4.5130    0.9820   -3.1300 C   0  0  0  0  0  0  0  0  0  0  0  0
    4.8550    1.0670   -1.7610 O   0  0  0  0  0  0  0  0  0  0  0  0
    4.5230    0.1340   -0.8070 C   0  0  0  0  0  0  0  0  0  0  0  0
    3.8700   -0.8770   -1.1390 O   0  0  0  0  0  0  0  0  0  0  0  0
    4.9460    0.3500    0.5690 C   0  0  2  0  0  0  0  0  0  0  0  0
    4.5340   -0.7380    1.4790 N   0  0  0  0  0  0  0  0  0  0  0  0
    3.1790   -0.8390    1.5300 N   0  0  0  0  0  0  0  0  0  0  0  0
    2.5470    0.1810    1.7280 C   0  0  0  0  0  0  0  0  0  0  0  0
    1.1700    0.0510    1.8010 N   0  0  0  0  0  0  0  0  0  0  0  0
    0.3820    1.0150    2.4190 C   0  0  0  0  0  0  0  0  0  0  0  0
    1.0560    1.9450    2.9160 O   0  0  0  0  0  0  0  0  0  0  0  0
   -1.0570    0.9150    2.4780 C   0  0  0  0  0  0  0  0  0  0  0  0
   -1.7370    1.7290    3.3380 N   0  0  0  0  0  0  0  0  0  0  0  0
   -3.0260    1.4620    3.2240 C   0  0  0  0  0  0  0  0  0  0  0  0
   -3.9620    2.0000    3.8490 O   0  0  0  0  0  0  0  0  0  0  0  0
   -3.1970    0.4940    2.3090 N   0  0  0  0  0  0  0  0  0  0  0  0
   -1.9640    0.1360    1.8270 C   0  0  0  0  0  0  0  0  0  0  0  0
   -1.7220   -0.8630    0.8550 N   0  0  0  0  0  0  0  0  0  0  0  0
   -1.6930   -2.2710    1.2260 C   0  0  0  0  0  0  0  0  0  0  0  0
   -1.5160   -0.4580   -0.5130 C   0  0  0  0  0  0  0  0  0  0  0  0
   -2.6690   -0.9110   -1.3210 C   0  0  0  0  0  0  0  0  0  0  0  0
   -3.5980   -1.5370   -0.7350 O   0  0  0  0  0  0  0  0  0  0  0  0
   -2.7820   -0.6810   -2.7080 N   0  0  0  0  0  0  0  0  0  0  0  0
   -3.9410   -1.1590   -3.4120 C   0  0  0  0  0  0  0  0  0  0  0  0
   -3.8590   -0.8310   -4.7690 O   0  0  0  0  0  0  0  0  0  0  0  0
    3.7700    1.4990    1.4520 S   0  0  0  0  0  0  0  0  0  0  0  0
  1  2  1  0
  2  3  1  0
  3  4  2  0
  5  3  1  6
  5  6  1  0
  5 26  1  0
  6  7  1  0
  7  8  2  0
  8  9  1  0
  8 26  1  0
  9 10  1  0
 10 11  2  0
 10 12  1  0
 12 13  1  0
 12 17  2  0
 13 14  1  0
 14 15  2  0
 14 16  1  0
 16 17  1  0
 17 18  1  0
 18 19  1  0
 18 20  1  0
 20 21  1  0
 21 22  2  0
 21 23  1  0
 23 24  1  0
 24 25  1  0
M  END
