
     RDKit          3D

 25 27  0  0  0  0  0  0  0  0999 V2000
    3.8210   -2.4030    0.2980 N   0  0  0  0  0  0  0  0  0  0  0  0
    2.4480   -2.0780    0.1500 C   0  0  0  0  0  0  0  0  0  0  0  0
    1.5870   -2.9840    0.1310 O   0  0  0  0  0  0  0  0  0  0  0  0
    2.0310   -0.6600    0.0160 C   0  0  2  0  0  0  0  0  0  0  0  0
    0.6290   -0.5790   -0.1240 N   0  0  0  0  0  0  0  0  0  0  0  0
   -0.0830   -1.1920   -1.1980 C   0  0  0  0  0  0  0  0  0  0  0  0
    0.6350   -1.8150   -2.0200 O   0  0  0  0  0  0  0  0  0  0  0  0
   -1.5550   -1.1120   -1.3510 C   0  0  0  0  0  0  0  0  0  0  0  0
   -2.1300   -0.3640   -0.3120 O   0  0  0  0  0  0  0  0  0  0  0  0
   -3.5020   -0.1800   -0.2870 C   0  0  0  0  0  0  0  0  0  0  0  0
   -4.4040   -0.6450   -1.1690 N   0  0  0  0  0  0  0  0  0  0  0  0
   -5.6020   -0.2400   -0.7720 N   0  0  0  0  0  0  0  0  0  0  0  0
   -5.5050    0.4750    0.3430 C   0  0  0  0  0  0  0  0  0  0  0  0
   -6.2170    1.1620    1.2630 N   0  0  0  0  0  0  0  0  0  0  0  0
   -5.3490    1.6420    2.1630 C   0  0  0  0  0  0  0  0  0  0  0  0
   -5.7240    2.5440    3.4760 S   0  0  0  0  0  0  0  0  0  0  0  0
   -4.1120    1.2610    1.8110 N   0  0  0  0  0  0  0  0  0  0  0  0
   -4.1800    0.5420    0.6950 C   0  0  0  0  0  0  0  0  0  0  0  0
    2.8370   -0.0700   -1.0990 C   0  0  0  0  0  0  0  0  0  0  0  0
    2.9340    1.4210   -0.8550 C   0  0  0  0  0  0  0  0  0  0  0  0
    4.3300    1.7500   -0.3490 C   0  0  0  0  0  0  0  0  0  0  0  0
    4.6440    0.9190    0.6930 O   0  0  0  0  0  0  0  0  0  0  0  0
    3.6540    0.6920    1.5600 N   0  0  0  0  0  0  0  0  0  0  0  0
    2.4290    0.0370    1.2650 C   0  0  0  0  0  0  0  0  0  0  0  0
    1.5380    0.0220    2.1510 O   0  0  0  0  0  0  0  0  0  0  0  0
  1  2  1  0
  2  3  2  0
  2  4  1  0
  4  5  1  6
  4 19  1  0
  4 24  1  0
  5  6  1  0
  6  7  2  0
  6  8  1  0
  8  9  1  0
  9 10  1  0
 10 11  1  0
 10 18  2  0
 11 12  1  0
 12 13  2  0
 13 14  1  0
 13 18  1  0
 14 15  1  0
 15 16  2  0
 15 17  1  0
 17 18  1  0
 19 20  1  0
 20 21  1  0
 21 22  1  0
 22 23  1  0
 23 24  1  0
 24 25  2  0
M  END
