
     RDKit          3D

 26 27  0  0  0  0  0  0  0  0999 V2000
   -5.1960   -0.0220   -1.5220 C   0  0  0  0  0  0  0  0  0  0  0  0
   -3.9410    0.1050   -0.6750 C   0  0  2  0  0  0  0  0  0  0  0  0
   -2.7260    0.3410   -1.5540 C   0  0  0  0  0  0  0  0  0  0  0  0
   -1.5450    0.4490   -0.6230 C   0  0  0  0  0  0  0  0  0  0  0  0
   -0.2830    0.6960   -1.4030 C   0  0  0  0  0  0  0  0  0  0  0  0
    0.8810    0.7900   -0.5470 N   0  0  0  0  0  0  0  0  0  0  0  0
    1.4150   -0.3400    0.1430 C   0  0  0  0  0  0  0  0  0  0  0  0
    0.5930   -1.2540    0.5090 N   0  0  0  0  0  0  0  0  0  0  0  0
    0.9900   -2.4260    1.2030 C   0  0  0  0  0  0  0  0  0  0  0  0
    0.1890   -3.3240    1.5630 O   0  0  0  0  0  0  0  0  0  0  0  0
    2.4190   -2.5590    1.4960 C   0  0  0  0  0  0  0  0  0  0  0  0
    2.8320   -3.7120    2.1830 O   0  0  0  0  0  0  0  0  0  0  0  0
    3.2660   -1.6620    1.1430 N   0  0  0  0  0  0  0  0  0  0  0  0
    2.8300   -0.4740    0.4330 C   0  0  0  0  0  0  0  0  0  0  0  0
    3.7410    0.3830    0.0700 C   0  0  0  0  0  0  0  0  0  0  0  0
    3.5280    1.5570   -0.6500 N   0  0  0  0  0  0  0  0  0  0  0  0
    5.1100    0.1280    0.4420 N   0  0  0  0  0  0  0  0  0  0  0  0
    6.2150    1.4330    0.5660 S   0  0  1  0  0  0  0  0  0  0  0  0
    5.5590    2.6980    0.9890 O   0  0  0  0  0  0  0  0  0  0  0  0
    7.3100    1.0840    1.5480 O   0  0  0  0  0  0  0  0  0  0  0  0
   -3.8090   -1.0500    0.1640 N   0  0  0  0  0  0  0  0  0  0  0  0
   -3.9510   -0.6350    1.5380 C   0  0  0  0  0  0  0  0  0  0  0  0
   -3.9370   -1.4540    2.4910 O   0  0  0  0  0  0  0  0  0  0  0  0
   -4.0990    0.7810    1.5770 N   0  0  0  0  0  0  0  0  0  0  0  0
   -4.0510    1.2530    0.2500 C   0  0  0  0  0  0  0  0  0  0  0  0
   -4.0960    2.4560   -0.0880 O   0  0  0  0  0  0  0  0  0  0  0  0
  2  1  1  6
  2  3  1  0
  2 21  1  0
  2 25  1  0
  3  4  1  0
  4  5  1  0
  5  6  1  0
  6  7  1  0
  7  8  2  0
  7 14  1  0
  8  9  1  0
  9 10  2  0
  9 11  1  0
 11 12  1  0
 11 13  2  0
 13 14  1  0
 14 15  2  3
 15 16  1  0
 15 17  1  0
 18 17  1  1
 18 19  2  0
 18 20  2  0
 21 22  1  0
 22 23  2  0
 22 24  1  0
 24 25  1  0
 25 26  2  0
M  END
