
     RDKit          3D

 13 13  0  0  0  0  0  0  0  0999 V2000
    4.3190   -0.8030   -0.1900 C   0  0  0  0  0  0  0  0  0  0  0  0
    3.5920   -0.7800    1.1440 C   0  0  0  0  0  0  0  0  0  0  0  0
    2.4730    0.1000    1.0770 O   0  0  0  0  0  0  0  0  0  0  0  0
    1.4280   -0.1890    0.1700 C   0  0  0  0  0  0  0  0  0  0  0  0
    1.5510   -1.2270   -0.5010 O   0  0  0  0  0  0  0  0  0  0  0  0
    0.3310    0.7830    0.1440 C   0  0  0  0  0  0  0  0  0  0  0  0
   -0.8010    0.4480   -0.6510 N   0  0  0  0  0  0  0  0  0  0  0  0
   -1.6640    1.6270   -0.7830 C   0  0  0  0  0  0  0  0  0  0  0  0
   -2.6250    1.7160    0.3520 C   0  0  0  0  0  0  0  0  0  0  0  0
   -3.4940    0.6230    0.3300 O   0  0  0  0  0  0  0  0  0  0  0  0
   -3.0320   -0.3610   -0.5470 C   0  0  0  0  0  0  0  0  0  0  0  0
   -1.5590   -0.6830   -0.2380 C   0  0  2  0  0  0  0  0  0  0  0  0
   -1.4620   -1.1330    1.1670 C   0  0  0  0  0  0  0  0  0  0  0  0
  1  2  1  0
  2  3  1  0
  3  4  1  0
  4  5  2  0
  4  6  1  0
  6  7  1  0
  7  8  1  0
  7 12  1  0
  8  9  1  0
  9 10  1  0
 10 11  1  0
 11 12  1  0
 12 13  1  1
M  END
