
     RDKit          3D

 14 14  0  0  0  0  0  0  0  0999 V2000
   -4.1480    0.1720    1.0120 C   0  0  0  0  0  0  0  0  0  0  0  0
   -2.9390    0.0400    0.2110 N   0  0  0  0  0  0  0  0  0  0  0  0
   -3.0620   -0.1840   -1.2050 C   0  0  0  0  0  0  0  0  0  0  0  0
   -1.6750    0.1330    0.8180 C   0  0  0  0  0  0  0  0  0  0  0  0
   -1.6120    0.3310    2.0590 O   0  0  0  0  0  0  0  0  0  0  0  0
   -0.4620   -0.0070   -0.0300 C   0  0  0  0  0  0  0  0  0  0  0  0
    0.6890    0.1150    0.7370 O   0  0  0  0  0  0  0  0  0  0  0  0
    1.9900    0.0410    0.3000 C   0  0  0  0  0  0  0  0  0  0  0  0
    2.9550    0.1820    1.2130 C   0  0  0  0  0  0  0  0  0  0  0  0
    4.3570    0.1190    0.8460 C   0  0  0  0  0  0  0  0  0  0  0  0
    4.5710   -0.0970   -0.5100 O   0  0  0  0  0  0  0  0  0  0  0  0
    3.5910   -0.2420   -1.4540 C   0  0  0  0  0  0  0  0  0  0  0  0
    2.3170   -0.1810   -1.0930 C   0  0  0  0  0  0  0  0  0  0  0  0
    1.0660   -0.3720   -2.3330 Cl  0  0  0  0  0  0  0  0  0  0  0  0
  1  2  1  0
  2  3  1  0
  2  4  1  0
  4  5  2  0
  4  6  1  0
  6  7  1  0
  7  8  1  0
  8  9  2  0
  8 13  1  0
  9 10  1  0
 10 11  1  0
 11 12  1  0
 12 13  2  0
 13 14  1  0
M  END
