
     RDKit          3D

 14 14  0  0  0  0  0  0  0  0999 V2000
   -1.7170   -1.4820   -0.6060 C   0  0  0  0  0  0  0  0  0  0  0  0
   -1.3680   -0.2970    0.2890 C   0  0  2  0  0  0  0  0  0  0  0  0
   -1.2910   -0.7960    1.7380 C   0  0  0  0  0  0  0  0  0  0  0  0
   -2.4670    0.6620    0.2110 C   0  0  0  0  0  0  0  0  0  0  0  0
   -3.5590    0.3880    0.7570 O   0  0  0  0  0  0  0  0  0  0  0  0
   -2.2910    1.8500   -0.4600 O   0  0  0  0  0  0  0  0  0  0  0  0
   -1.3160    1.9190   -1.4590 C   0  0  0  0  0  0  0  0  0  0  0  0
    0.0090    1.4980   -0.8750 C   0  0  0  0  0  0  0  0  0  0  0  0
   -0.0950    0.2730   -0.1100 N   0  0  0  0  0  0  0  0  0  0  0  0
    1.1100   -0.3780    0.2520 C   0  0  0  0  0  0  0  0  0  0  0  0
    1.0780   -1.4430    0.9160 O   0  0  0  0  0  0  0  0  0  0  0  0
    2.4470    0.1480   -0.1210 C   0  0  0  0  0  0  0  0  0  0  0  0
    3.5600   -0.7130    0.3760 C   0  0  0  0  0  0  0  0  0  0  0  0
    3.5080   -0.8250    2.1480 Cl  0  0  0  0  0  0  0  0  0  0  0  0
  2  1  1  6
  2  3  1  0
  2  4  1  0
  2  9  1  0
  4  5  2  0
  4  6  1  0
  6  7  1  0
  7  8  1  0
  8  9  1  0
  9 10  1  0
 10 11  2  0
 10 12  1  0
 12 13  1  0
 13 14  1  0
M  END
