
     RDKit          3D

  8  8  0  0  0  0  0  0  0  0999 V2000
    2.8100    0.1230   -0.1810 O   0  0  0  0  0  0  0  0  0  0  0  0
    1.4150    0.0570   -0.1550 C   0  0  0  0  0  0  0  0  0  0  0  0
    0.7420   -1.1480   -0.1240 C   0  0  0  0  0  0  0  0  0  0  0  0
   -0.6340   -1.2160   -0.0970 C   0  0  0  0  0  0  0  0  0  0  0  0
   -1.4020   -0.0690   -0.1010 C   0  0  0  0  0  0  0  0  0  0  0  0
   -2.7860   -0.1040   -0.0750 O   0  0  0  0  0  0  0  0  0  0  0  0
   -0.7400    1.1410   -0.1320 C   0  0  0  0  0  0  0  0  0  0  0  0
    0.6360    1.1960   -0.1580 C   0  0  0  0  0  0  0  0  0  0  0  0
  1  2  1  0
  2  3  2  0
  2  8  1  0
  3  4  1  0
  4  5  2  0
  5  6  1  0
  5  7  1  0
  7  8  2  0
M  END
