
     RDKit          3D

 13 13  0  0  0  0  0  0  0  0999 V2000
    4.3050    0.9000   -0.0710 C   0  0  0  0  0  0  0  0  0  0  0  0
    3.3840    0.1980    0.5670 C   0  0  0  0  0  0  0  0  0  0  0  0
    2.1150   -0.2170   -0.0740 C   0  0  0  0  0  0  0  0  0  0  0  0
    1.0420    0.3560    0.6800 O   0  0  0  0  0  0  0  0  0  0  0  0
   -0.2640    0.1130    0.2780 C   0  0  0  0  0  0  0  0  0  0  0  0
   -0.8980   -0.8490    0.9500 C   0  0  0  0  0  0  0  0  0  0  0  0
   -2.2570   -1.3520    0.7880 C   0  0  0  0  0  0  0  0  0  0  0  0
   -3.1750   -0.8100    0.0060 C   0  0  0  0  0  0  0  0  0  0  0  0
   -3.2400    0.3340   -0.8920 C   0  0  1  0  0  0  0  0  0  0  0  0
   -4.1160    1.6510   -0.0390 Cl  0  0  0  0  0  0  0  0  0  0  0  0
   -2.0400    0.7960   -1.3960 O   0  0  0  0  0  0  0  0  0  0  0  0
   -0.7980    0.9160   -0.8130 C   0  0  0  0  0  0  0  0  0  0  0  0
   -0.0440    1.8120   -1.2690 O   0  0  0  0  0  0  0  0  0  0  0  0
  1  2  2  0
  2  3  1  0
  3  4  1  0
  4  5  1  0
  5  6  2  0
  5 12  1  0
  6  7  1  0
  7  8  2  0
  8  9  1  0
  9 10  1  1
  9 11  1  0
 11 12  1  0
 12 13  2  0
M  END
