
     RDKit          3D

 14 14  0  0  0  0  0  0  0  0999 V2000
   -2.2100    2.6860   -1.4600 O   0  0  0  0  0  0  0  0  0  0  0  0
   -1.8390    1.7250   -0.7470 C   0  0  0  0  0  0  0  0  0  0  0  0
   -0.4020    1.4730   -0.5170 C   0  0  0  0  0  0  0  0  0  0  0  0
   -0.1630    0.0630   -0.3320 N   0  0  0  0  0  0  0  0  0  0  0  0
    1.1280   -0.3870    0.0300 C   0  0  0  0  0  0  0  0  0  0  0  0
    2.0550   -0.7140   -1.0390 C   0  0  0  0  0  0  0  0  0  0  0  0
    1.7040   -0.5960   -2.3250 C   0  0  0  0  0  0  0  0  0  0  0  0
    2.8060   -0.9850   -3.6210 Cl  0  0  0  0  0  0  0  0  0  0  0  0
    1.5260   -0.5220    1.2750 C   0  0  0  0  0  0  0  0  0  0  0  0
    0.6680   -0.2190    2.4470 C   0  0  0  0  0  0  0  0  0  0  0  0
    1.2210    0.7770    3.2490 O   0  0  0  0  0  0  0  0  0  0  0  0
   -1.1950   -0.9340   -0.5020 C   0  0  0  0  0  0  0  0  0  0  0  0
   -2.5550   -0.4920   -0.0990 C   0  0  0  0  0  0  0  0  0  0  0  0
   -2.7730    0.8980   -0.1750 O   0  0  0  0  0  0  0  0  0  0  0  0
  1  2  2  0
  2  3  1  0
  2 14  1  0
  3  4  1  0
  4  5  1  0
  4 12  1  0
  5  6  1  0
  5  9  2  3
  6  7  2  3
  7  8  1  0
  9 10  1  0
 10 11  1  0
 12 13  1  0
 13 14  1  0
M  END
