
     RDKit          3D

 30 32  0  0  0  0  0  0  0  0999 V2000
    0.9450    6.5700   -0.6530 C   0  0  0  0  0  0  0  0  0  0  0  0
    2.0430    5.5580   -0.8950 C   0  0  0  0  0  0  0  0  0  0  0  0
    1.5320    4.1730   -0.9200 C   0  0  0  0  0  0  0  0  0  0  0  0
    2.6390    2.8720   -1.1980 Cl  0  0  0  0  0  0  0  0  0  0  0  0
    0.2510    3.9520   -0.7420 C   0  0  0  0  0  0  0  0  0  0  0  0
   -0.3580    2.6060   -0.7480 C   0  0  0  0  0  0  0  0  0  0  0  0
   -1.6450    2.4190   -0.5740 C   0  0  0  0  0  0  0  0  0  0  0  0
   -2.7070    3.4680   -0.3410 C   0  0  0  0  0  0  0  0  0  0  0  0
   -1.9790    1.0010   -0.6750 C   0  0  0  0  0  0  0  0  0  0  0  0
   -3.1890    0.4600   -0.5480 C   0  0  0  0  0  0  0  0  0  0  0  0
   -3.4820   -0.9490   -0.6540 C   0  0  0  0  0  0  0  0  0  0  0  0
   -2.5910   -1.8060   -0.8790 N   0  0  0  0  0  0  0  0  0  0  0  0
   -2.7880   -3.2300   -1.0000 C   0  0  1  0  0  0  0  0  0  0  0  0
   -2.4740   -3.9160    0.3250 C   0  0  0  0  0  0  0  0  0  0  0  0
   -4.2350   -3.5650   -1.3270 C   0  0  0  0  0  0  0  0  0  0  0  0
   -5.1150   -2.7600   -0.3870 C   0  0  0  0  0  0  0  0  0  0  0  0
   -4.7930   -1.3890   -0.5030 O   0  0  0  0  0  0  0  0  0  0  0  0
   -0.7550    0.3420   -0.9330 N   0  0  0  0  0  0  0  0  0  0  0  0
    0.3090    1.3210   -0.8970 C   0  0  2  0  0  0  0  0  0  0  0  0
    1.1190    0.9660    0.2550 N   0  0  0  0  0  0  0  0  0  0  0  0
    1.8890   -0.2360    0.1850 C   0  0  0  0  0  0  0  0  0  0  0  0
    2.0450   -0.9850   -0.9610 C   0  0  0  0  0  0  0  0  0  0  0  0
    2.7990   -2.1520   -0.9640 C   0  0  0  0  0  0  0  0  0  0  0  0
    3.3970   -2.5620    0.1950 C   0  0  0  0  0  0  0  0  0  0  0  0
    3.2790   -1.8590    1.3720 C   0  0  0  0  0  0  0  0  0  0  0  0
    3.9350   -2.3280    2.6060 C   0  0  0  0  0  0  0  0  0  0  0  0
    3.8280   -1.6850    3.6760 O   0  0  0  0  0  0  0  0  0  0  0  0
    4.6870   -3.4900    2.6160 O   0  0  0  0  0  0  0  0  0  0  0  0
    5.3390   -3.9910    3.7630 C   0  0  0  0  0  0  0  0  0  0  0  0
    2.5290   -0.7120    1.3420 C   0  0  0  0  0  0  0  0  0  0  0  0
  1  2  1  0
  2  3  1  0
  3  4  1  0
  3  5  2  3
  5  6  1  0
  6  7  2  0
  6 19  1  0
  7  8  1  0
  7  9  1  0
  9 10  2  3
  9 18  1  0
 10 11  1  0
 11 12  2  0
 11 17  1  0
 12 13  1  0
 13 14  1  1
 13 15  1  0
 15 16  1  0
 16 17  1  0
 18 19  1  0
 19 20  1  1
 20 21  1  0
 21 22  2  0
 21 30  1  0
 22 23  1  0
 23 24  2  0
 24 25  1  0
 25 26  1  0
 25 30  2  0
 26 27  2  0
 26 28  1  0
 28 29  1  0
M  END
