
     RDKit          3D

 30 32  0  0  0  0  0  0  0  0999 V2000
   -6.9090   -2.2910    1.3540 C   0  0  0  0  0  0  0  0  0  0  0  0
   -5.4390   -2.0450    1.6100 C   0  0  0  0  0  0  0  0  0  0  0  0
   -4.7990   -1.2720    0.4450 C   0  0  1  0  0  0  0  0  0  0  0  0
   -5.5890    0.0480    0.3900 C   0  0  0  0  0  0  0  0  0  0  0  0
   -3.4020   -1.0050    0.7890 C   0  0  0  0  0  0  0  0  0  0  0  0
   -2.3980   -1.0610   -0.3130 C   0  0  2  0  0  0  0  0  0  0  0  0
   -1.5750    0.0540   -0.3640 O   0  0  0  0  0  0  0  0  0  0  0  0
   -0.2240   -0.2950   -0.2450 C   0  0  0  0  0  0  0  0  0  0  0  0
    0.6380    0.9310   -0.3060 C   0  0  0  0  0  0  0  0  0  0  0  0
    0.0660    2.0880   -0.4520 C   0  0  0  0  0  0  0  0  0  0  0  0
    0.6540    3.3980   -0.5440 C   0  0  0  0  0  0  0  0  0  0  0  0
    1.6480    3.7650   -1.4190 C   0  0  0  0  0  0  0  0  0  0  0  0
    2.1760    5.0060   -1.4330 N   0  0  0  0  0  0  0  0  0  0  0  0
    1.7360    5.9280   -0.5800 C   0  0  0  0  0  0  0  0  0  0  0  0
    2.2450    7.3200   -0.5090 C   0  0  0  0  0  0  0  0  0  0  0  0
    0.7640    5.5900    0.2830 N   0  0  0  0  0  0  0  0  0  0  0  0
    0.2100    4.3770    0.3360 C   0  0  0  0  0  0  0  0  0  0  0  0
    2.0700    0.7930   -0.1400 C   0  0  0  0  0  0  0  0  0  0  0  0
    2.9100    1.7080   -0.0970 O   0  0  0  0  0  0  0  0  0  0  0  0
    2.6420   -0.5190   -0.0040 N   0  0  0  0  0  0  0  0  0  0  0  0
    4.0220   -0.7330    0.1600 C   0  0  1  0  0  0  0  0  0  0  0  0
    4.4680   -1.4790    1.3590 C   0  0  0  0  0  0  0  0  0  0  0  0
    4.6040   -2.9530    1.0060 C   0  0  0  0  0  0  0  0  0  0  0  0
    5.9010   -3.0660    0.2030 C   0  0  2  0  0  0  0  0  0  0  0  0
    7.2180   -2.6910    1.3640 Cl  0  0  0  0  0  0  0  0  0  0  0  0
    5.9250   -1.9870   -0.8600 C   0  0  0  0  0  0  0  0  0  0  0  0
    4.5330   -1.4550   -1.0820 C   0  0  0  0  0  0  0  0  0  0  0  0
   -3.0730   -1.3000   -1.6710 C   0  0  0  0  0  0  0  0  0  0  0  0
   -4.0190   -2.4630   -1.3880 C   0  0  0  0  0  0  0  0  0  0  0  0
   -5.0820   -1.9510   -0.6900 O   0  0  0  0  0  0  0  0  0  0  0  0
  1  2  1  0
  2  3  1  0
  3  4  1  6
  3  5  1  0
  3 30  1  0
  5  6  1  0
  6  7  1  6
  6 28  1  0
  7  8  1  0
  8  9  1  0
  9 10  2  3
  9 18  1  0
 10 11  1  0
 11 12  2  0
 11 17  1  0
 12 13  1  0
 13 14  2  0
 14 15  1  0
 14 16  1  0
 16 17  2  0
 18 19  2  0
 18 20  1  0
 21 20  1  6
 21 22  1  0
 21 27  1  0
 22 23  1  0
 23 24  1  0
 24 25  1  1
 24 26  1  0
 26 27  1  0
 28 29  1  0
 29 30  1  0
M  END
