
     RDKit          3D

 29 32  0  0  0  0  0  0  0  0999 V2000
   -6.2730    0.4680    2.9010 C   0  0  0  0  0  0  0  0  0  0  0  0
   -5.0940    0.1790    2.0210 C   0  0  0  0  0  0  0  0  0  0  0  0
   -4.8720   -1.0530    1.4710 C   0  0  0  0  0  0  0  0  0  0  0  0
   -3.7690   -1.3020    0.6400 C   0  0  0  0  0  0  0  0  0  0  0  0
   -3.6220   -2.6760    0.0810 C   0  0  0  0  0  0  0  0  0  0  0  0
   -2.8600   -0.2960    0.3480 C   0  0  0  0  0  0  0  0  0  0  0  0
   -1.6800   -0.5720   -0.4850 C   0  0  0  0  0  0  0  0  0  0  0  0
   -1.5240   -1.8050   -0.8530 N   0  0  0  0  0  0  0  0  0  0  0  0
   -0.5390   -2.4480   -1.6320 C   0  0  0  0  0  0  0  0  0  0  0  0
   -0.7310   -3.6350   -2.0040 O   0  0  0  0  0  0  0  0  0  0  0  0
    0.7600   -1.8600   -2.0830 C   0  0  0  0  0  0  0  0  0  0  0  0
    1.4240   -2.5180   -2.9080 O   0  0  0  0  0  0  0  0  0  0  0  0
    1.2900   -0.5810   -1.6310 C   0  0  0  0  0  0  0  0  0  0  0  0
    2.5620   -0.4260   -1.3910 C   0  0  0  0  0  0  0  0  0  0  0  0
    3.5450   -1.4370   -1.5250 C   0  0  0  0  0  0  0  0  0  0  0  0
    4.8240   -1.4850   -1.3730 C   0  0  0  0  0  0  0  0  0  0  0  0
    5.7720   -0.4780   -1.0000 C   0  0  0  0  0  0  0  0  0  0  0  0
    7.0630   -0.9050   -0.5710 C   0  0  0  0  0  0  0  0  0  0  0  0
    8.0110    0.0370   -0.2820 C   0  0  0  0  0  0  0  0  0  0  0  0
    7.7830    1.3880   -0.3860 C   0  0  0  0  0  0  0  0  0  0  0  0
    6.5310    1.7740   -0.8030 C   0  0  0  0  0  0  0  0  0  0  0  0
    5.5200    0.8540   -1.1120 C   0  0  0  0  0  0  0  0  0  0  0  0
    0.3960    0.6020   -1.4270 C   0  0  0  0  0  0  0  0  0  0  0  0
   -0.8560    0.5380   -0.9400 C   0  0  0  0  0  0  0  0  0  0  0  0
   -3.0720    0.9440    0.9010 C   0  0  0  0  0  0  0  0  0  0  0  0
   -4.1720    1.1580    1.7140 C   0  0  0  0  0  0  0  0  0  0  0  0
   -4.1760    2.5950    2.1260 C   0  0  0  0  0  0  0  0  0  0  0  0
   -3.3100    3.2200    1.0090 C   0  0  0  0  0  0  0  0  0  0  0  0
   -2.2970    2.1770    0.9350 N   0  0  0  0  0  0  0  0  0  0  0  0
  1  2  1  0
  2  3  2  0
  2 26  1  0
  3  4  1  0
  4  5  1  0
  4  6  2  0
  6  7  1  0
  6 25  1  0
  7  8  2  0
  7 24  1  0
  8  9  1  0
  9 10  2  0
  9 11  1  0
 11 12  2  0
 11 13  1  0
 13 14  2  3
 13 23  1  0
 14 15  1  0
 15 16  2  3
 16 17  1  0
 17 18  2  0
 17 22  1  0
 18 19  1  0
 19 20  2  0
 20 21  1  0
 21 22  2  0
 23 24  2  0
 25 26  2  0
 25 29  1  0
 26 27  1  0
 27 28  1  0
 28 29  1  0
M  END
