
     RDKit          3D

 30 32  0  0  0  0  0  0  0  0999 V2000
    0.7180    5.3600    0.7430 C   0  0  0  0  0  0  0  0  0  0  0  0
   -0.5710    4.6960    0.2550 C   0  0  0  0  0  0  0  0  0  0  0  0
   -0.4280    4.4160   -1.1850 C   0  0  0  0  0  0  0  0  0  0  0  0
   -0.1190    5.7260   -2.2800 Cl  0  0  0  0  0  0  0  0  0  0  0  0
   -0.5310    3.1950   -1.6280 C   0  0  0  0  0  0  0  0  0  0  0  0
   -0.7840    2.1160   -0.7190 N   0  0  0  0  0  0  0  0  0  0  0  0
    0.0840    1.0240   -0.6020 C   0  0  0  0  0  0  0  0  0  0  0  0
    1.2290    0.9390   -1.3990 C   0  0  0  0  0  0  0  0  0  0  0  0
    2.1040   -0.1240   -1.3250 C   0  0  0  0  0  0  0  0  0  0  0  0
    1.8350   -1.1520   -0.4230 C   0  0  0  0  0  0  0  0  0  0  0  0
    0.7080   -1.0630    0.3590 C   0  0  0  0  0  0  0  0  0  0  0  0
   -0.1870    0.0180    0.2890 C   0  0  0  0  0  0  0  0  0  0  0  0
   -1.2740   -0.0220    1.1880 N   0  0  0  0  0  0  0  0  0  0  0  0
   -2.3540   -0.8890    1.0670 C   0  0  0  0  0  0  0  0  0  0  0  0
   -3.2090   -0.7810    2.0680 O   0  0  0  0  0  0  0  0  0  0  0  0
   -2.6670   -1.8360    0.0720 N   0  0  0  0  0  0  0  0  0  0  0  0
   -1.9180   -2.0620   -1.1090 C   0  0  0  0  0  0  0  0  0  0  0  0
   -2.8050   -2.5070   -2.2750 C   0  0  0  0  0  0  0  0  0  0  0  0
   -3.8860   -3.2530   -1.9090 O   0  0  0  0  0  0  0  0  0  0  0  0
   -4.6800   -2.6020   -0.9470 C   0  0  0  0  0  0  0  0  0  0  0  0
   -3.8810   -2.6620    0.3360 C   0  0  0  0  0  0  0  0  0  0  0  0
   -1.2030    0.8940    2.3280 C   0  0  1  0  0  0  0  0  0  0  0  0
   -2.4850    1.6480    2.4920 C   0  0  0  0  0  0  0  0  0  0  0  0
   -0.9950    0.1100    3.6400 C   0  0  0  0  0  0  0  0  0  0  0  0
   -0.9380    1.0950    4.6370 O   0  0  0  0  0  0  0  0  0  0  0  0
    2.9050   -2.2020   -0.5250 C   0  0  0  0  0  0  0  0  0  0  0  0
    4.0680   -1.3680   -1.0140 C   0  0  1  0  0  0  0  0  0  0  0  0
    5.1190   -2.2270   -1.6910 C   0  0  0  0  0  0  0  0  0  0  0  0
    5.5790   -3.2270   -0.6360 C   0  0  0  0  0  0  0  0  0  0  0  0
    3.3710   -0.4690   -2.0230 C   0  0  0  0  0  0  0  0  0  0  0  0
  1  2  1  0
  2  3  1  0
  3  4  1  0
  3  5  2  3
  5  6  1  0
  6  7  1  0
  7  8  2  0
  7 12  1  0
  8  9  1  0
  9 10  2  0
  9 30  1  0
 10 11  1  0
 10 26  1  0
 11 12  2  0
 12 13  1  0
 13 14  1  0
 13 22  1  0
 14 15  2  0
 14 16  1  0
 16 17  1  0
 16 21  1  0
 17 18  1  0
 18 19  1  0
 19 20  1  0
 20 21  1  0
 22 23  1  1
 22 24  1  0
 24 25  1  0
 26 27  1  0
 27 28  1  6
 27 30  1  0
 28 29  1  0
M  END
