
     RDKit          3D

 30 32  0  0  0  0  0  0  0  0999 V2000
    3.5050   -1.0190    2.7100 C   0  0  0  0  0  0  0  0  0  0  0  0
    4.9730   -1.1200    2.5120 C   0  0  0  0  0  0  0  0  0  0  0  0
    5.8120   -1.3330    3.6200 C   0  0  0  0  0  0  0  0  0  0  0  0
    7.1680   -1.4360    3.4340 C   0  0  0  0  0  0  0  0  0  0  0  0
    7.6520   -1.3260    2.1530 C   0  0  0  0  0  0  0  0  0  0  0  0
    6.8190   -1.1200    1.0980 N   0  0  0  0  0  0  0  0  0  0  0  0
    5.4840   -1.0130    1.2460 C   0  0  0  0  0  0  0  0  0  0  0  0
    4.6070   -0.8010    0.1040 C   0  0  0  0  0  0  0  0  0  0  0  0
    4.7700   -1.5860   -1.0470 C   0  0  0  0  0  0  0  0  0  0  0  0
    3.9540   -1.3910   -2.1460 C   0  0  0  0  0  0  0  0  0  0  0  0
    2.9630   -0.4340   -2.1620 C   0  0  0  0  0  0  0  0  0  0  0  0
    2.1690   -0.2340   -3.2150 N   0  0  0  0  0  0  0  0  0  0  0  0
    1.1840    0.7210   -3.2250 C   0  0  0  0  0  0  0  0  0  0  0  0
    0.4800    0.8180   -4.4630 N   0  0  0  0  0  0  0  0  0  0  0  0
    0.9490    1.5370   -2.1410 C   0  0  0  0  0  0  0  0  0  0  0  0
   -0.1140    2.5410   -2.1370 C   0  0  0  0  0  0  0  0  0  0  0  0
   -1.4990    2.1290   -1.8310 C   0  0  1  0  0  0  0  0  0  0  0  0
   -2.0440    1.0960   -2.7900 C   0  0  0  0  0  0  0  0  0  0  0  0
   -1.7730    1.7570   -0.4350 C   0  0  0  0  0  0  0  0  0  0  0  0
   -0.8730    1.7590    0.4150 O   0  0  0  0  0  0  0  0  0  0  0  0
   -3.1130    1.3780   -0.0330 N   0  0  0  0  0  0  0  0  0  0  0  0
   -3.2720    1.0310    1.3430 C   0  0  0  0  0  0  0  0  0  0  0  0
   -4.6480    0.6240    1.6880 C   0  0  0  0  0  0  0  0  0  0  0  0
   -5.2180   -0.5880    1.0590 C   0  0  1  0  0  0  0  0  0  0  0  0
   -4.3220   -1.7730    1.4150 C   0  0  0  0  0  0  0  0  0  0  0  0
   -6.5760   -0.8260    1.7600 C   0  0  0  0  0  0  0  0  0  0  0  0
   -5.4820   -0.5710   -0.3950 C   0  0  0  0  0  0  0  0  0  0  0  0
    1.7920    1.3080   -1.0570 C   0  0  0  0  0  0  0  0  0  0  0  0
    2.7840    0.3500   -1.0430 C   0  0  0  0  0  0  0  0  0  0  0  0
    3.6070    0.1430    0.0480 C   0  0  0  0  0  0  0  0  0  0  0  0
  1  2  1  0
  2  3  2  0
  2  7  1  0
  3  4  1  0
  4  5  2  0
  5  6  1  0
  6  7  2  0
  7  8  1  0
  8  9  2  0
  8 30  1  0
  9 10  1  0
 10 11  2  0
 11 12  1  0
 11 29  1  0
 12 13  2  0
 13 14  1  0
 13 15  1  0
 15 16  1  0
 15 28  2  0
 16 17  1  0
 17 18  1  6
 17 19  1  0
 19 20  2  0
 19 21  1  0
 21 22  1  0
 22 23  1  0
 23 24  1  0
 24 25  1  6
 24 26  1  0
 24 27  1  0
 28 29  1  0
 29 30  2  0
M  END
