
     RDKit          3D

 30 32  0  0  0  0  0  0  0  0999 V2000
    6.1050   -1.5720    1.0460 C   0  0  0  0  0  0  0  0  0  0  0  0
    5.0750   -2.0560    2.0230 C   0  0  1  0  0  0  0  0  0  0  0  0
    5.6880   -1.9830    3.4220 C   0  0  0  0  0  0  0  0  0  0  0  0
    7.1200   -3.0420    3.3810 Cl  0  0  0  0  0  0  0  0  0  0  0  0
    3.8210   -1.2660    2.0030 C   0  0  0  0  0  0  0  0  0  0  0  0
    3.5880   -0.2330    1.2240 C   0  0  0  0  0  0  0  0  0  0  0  0
    2.2490    0.4570    1.3410 C   0  0  0  0  0  0  0  0  0  0  0  0
    1.1570   -0.4460    1.4850 N   0  0  0  0  0  0  0  0  0  0  0  0
   -0.1530   -0.2810    0.9900 C   0  0  0  0  0  0  0  0  0  0  0  0
   -0.9450   -1.2740    1.1900 O   0  0  0  0  0  0  0  0  0  0  0  0
   -0.7270    0.8350    0.2920 C   0  0  0  0  0  0  0  0  0  0  0  0
   -1.9530    0.8660   -0.1810 C   0  0  0  0  0  0  0  0  0  0  0  0
   -3.0220   -0.1310   -0.1490 C   0  0  0  0  0  0  0  0  0  0  0  0
   -3.3500   -0.5140   -1.5990 C   0  0  0  0  0  0  0  0  0  0  0  0
   -4.4420   -1.5410   -1.6080 C   0  0  0  0  0  0  0  0  0  0  0  0
   -4.9730   -1.9430   -0.5540 O   0  0  0  0  0  0  0  0  0  0  0  0
   -4.8960   -2.0830   -2.8570 N   0  0  0  0  0  0  0  0  0  0  0  0
   -5.9500   -3.0820   -2.9270 C   0  0  1  0  0  0  0  0  0  0  0  0
   -6.8400   -3.2070   -4.0810 C   0  0  0  0  0  0  0  0  0  0  0  0
   -5.7860   -4.2740   -3.8080 C   0  0  0  0  0  0  0  0  0  0  0  0
    0.0070    2.0710    0.0590 N   0  0  0  0  0  0  0  0  0  0  0  0
    0.3210    2.9020    1.2040 C   0  0  0  0  0  0  0  0  0  0  0  0
   -0.4290    4.2330    1.1310 C   0  0  0  0  0  0  0  0  0  0  0  0
   -0.5070    4.6190   -0.3320 C   0  0  0  0  0  0  0  0  0  0  0  0
    0.8060    4.6260   -1.0380 C   0  0  0  0  0  0  0  0  0  0  0  0
    1.0490    3.3920   -1.8970 C   0  0  0  0  0  0  0  0  0  0  0  0
    0.2420    2.2870   -1.3250 C   0  0  0  0  0  0  0  0  0  0  0  0
   -0.2870    1.4610   -2.1060 O   0  0  0  0  0  0  0  0  0  0  0  0
    1.3940   -1.6850    2.2470 C   0  0  0  0  0  0  0  0  0  0  0  0
    2.7310   -1.6700    2.9320 C   0  0  0  0  0  0  0  0  0  0  0  0
  2  1  1  6
  2  3  1  0
  2  5  1  0
  3  4  1  0
  5  6  2  0
  5 30  1  0
  6  7  1  0
  7  8  1  0
  8  9  1  0
  8 29  1  0
  9 10  2  0
  9 11  1  0
 11 12  2  3
 11 21  1  0
 12 13  1  0
 13 14  1  0
 14 15  1  0
 15 16  2  0
 15 17  1  0
 18 17  1  6
 18 19  1  0
 18 20  1  0
 19 20  1  0
 21 22  1  0
 21 27  1  0
 22 23  1  0
 23 24  1  0
 24 25  1  0
 25 26  1  0
 26 27  1  0
 27 28  2  0
 29 30  1  0
M  END
