
     RDKit          3D

 30 32  0  0  0  0  0  0  0  0999 V2000
   -3.1750   -1.9880    1.2080 C   0  0  0  0  0  0  0  0  0  0  0  0
   -3.3520   -0.5220    1.2860 C   0  0  0  0  0  0  0  0  0  0  0  0
   -4.5900    0.0870    1.5150 C   0  0  0  0  0  0  0  0  0  0  0  0
   -4.3310    1.4350    1.5150 C   0  0  0  0  0  0  0  0  0  0  0  0
   -2.9900    1.6170    1.2940 C   0  0  0  0  0  0  0  0  0  0  0  0
   -2.3180    2.9390    1.2230 C   0  0  1  0  0  0  0  0  0  0  0  0
   -1.6630    3.2170    2.5280 C   0  0  0  0  0  0  0  0  0  0  0  0
   -1.4050    2.9450    0.0920 N   0  0  0  0  0  0  0  0  0  0  0  0
   -1.6370    3.6790   -1.0840 C   0  0  0  0  0  0  0  0  0  0  0  0
   -2.7130    4.3530   -1.1070 O   0  0  0  0  0  0  0  0  0  0  0  0
   -0.7860    3.7520   -2.2680 C   0  0  0  0  0  0  0  0  0  0  0  0
    0.4170    3.0010   -2.2550 N   0  0  0  0  0  0  0  0  0  0  0  0
    0.5290    1.5950   -2.1530 C   0  0  0  0  0  0  0  0  0  0  0  0
   -0.4960    0.9060   -2.0700 O   0  0  0  0  0  0  0  0  0  0  0  0
    1.8790    0.9050   -2.1420 C   0  0  0  0  0  0  0  0  0  0  0  0
    1.6460   -0.5110   -2.0320 N   0  0  0  0  0  0  0  0  0  0  0  0
    1.0000   -1.1720   -3.1340 C   0  0  0  0  0  0  0  0  0  0  0  0
   -0.1620   -1.9670   -2.7380 C   0  0  0  0  0  0  0  0  0  0  0  0
   -0.4380   -2.6830   -1.6720 C   0  0  0  0  0  0  0  0  0  0  0  0
    0.3140   -2.9640   -0.4620 C   0  0  0  0  0  0  0  0  0  0  0  0
    1.5120   -2.2090   -0.1680 C   0  0  0  0  0  0  0  0  0  0  0  0
    2.0790   -1.1600   -0.8470 C   0  0  0  0  0  0  0  0  0  0  0  0
    3.2600   -0.5930   -0.3480 C   0  0  0  0  0  0  0  0  0  0  0  0
    3.8600   -1.0490    0.7820 C   0  0  0  0  0  0  0  0  0  0  0  0
    5.1010   -0.4410    1.3050 C   0  0  0  0  0  0  0  0  0  0  0  0
    3.2750   -2.0980    1.4420 C   0  0  0  0  0  0  0  0  0  0  0  0
    3.9980   -2.7440    2.9140 Cl  0  0  0  0  0  0  0  0  0  0  0  0
    2.1010   -2.7070    1.0020 C   0  0  0  0  0  0  0  0  0  0  0  0
    1.5050   -3.8410    1.7530 C   0  0  0  0  0  0  0  0  0  0  0  0
   -2.4530    0.4230    1.1650 O   0  0  0  0  0  0  0  0  0  0  0  0
  1  2  1  0
  2  3  2  0
  2 30  1  0
  3  4  1  0
  4  5  2  0
  5  6  1  0
  5 30  1  0
  6  7  1  1
  6  8  1  0
  8  9  1  0
  9 10  2  0
  9 11  1  0
 11 12  1  0
 12 13  1  0
 13 14  2  0
 13 15  1  0
 15 16  1  0
 16 17  1  0
 16 22  1  0
 17 18  1  0
 18 19  2  0
 19 20  1  0
 20 21  1  0
 21 22  2  0
 21 28  1  0
 22 23  1  0
 23 24  2  0
 24 25  1  0
 24 26  1  0
 26 27  1  0
 26 28  2  0
 28 29  1  0
M  END
