
     RDKit          3D

 29 31  0  0  0  0  0  0  0  0999 V2000
    6.5770    2.9220   -0.3330 C   0  0  0  0  0  0  0  0  0  0  0  0
    5.2990    3.0060    0.0090 C   0  0  0  0  0  0  0  0  0  0  0  0
    4.1880    2.8020   -0.9510 C   0  0  0  0  0  0  0  0  0  0  0  0
    3.3360    1.6960   -0.5480 N   0  0  0  0  0  0  0  0  0  0  0  0
    3.8790    0.3910   -0.4160 C   0  0  0  0  0  0  0  0  0  0  0  0
    3.0510   -0.6540   -0.0310 C   0  0  0  0  0  0  0  0  0  0  0  0
    3.5340   -1.9400    0.1110 C   0  0  0  0  0  0  0  0  0  0  0  0
    2.6920   -3.0930    0.5200 C   0  0  2  0  0  0  0  0  0  0  0  0
    3.0230   -4.1560   -0.3420 O   0  0  0  0  0  0  0  0  0  0  0  0
    1.2570   -2.7970    0.4640 C   0  0  0  0  0  0  0  0  0  0  0  0
    0.5440   -2.5880    1.6360 C   0  0  0  0  0  0  0  0  0  0  0  0
   -0.8050   -2.3070    1.6280 C   0  0  0  0  0  0  0  0  0  0  0  0
   -1.5090   -2.2200    0.4410 C   0  0  0  0  0  0  0  0  0  0  0  0
   -2.9410   -1.9210    0.4340 C   0  0  0  0  0  0  0  0  0  0  0  0
   -3.8100   -2.8390    0.4850 O   0  0  0  0  0  0  0  0  0  0  0  0
   -3.4080   -0.5830    0.3710 N   0  0  0  0  0  0  0  0  0  0  0  0
   -2.4300    0.4810    0.3120 C   0  0  0  0  0  0  0  0  0  0  0  0
   -2.8780    1.6720   -0.4710 C   0  0  0  0  0  0  0  0  0  0  0  0
   -4.2110    1.6150   -0.8710 O   0  0  0  0  0  0  0  0  0  0  0  0
   -4.9510    1.2290    0.2380 C   0  0  1  0  0  0  0  0  0  0  0  0
   -6.3690    1.6860    0.0450 C   0  0  0  0  0  0  0  0  0  0  0  0
   -6.3710    3.1830   -0.0940 C   0  0  0  0  0  0  0  0  0  0  0  0
   -4.8220   -0.2680    0.3640 C   0  0  0  0  0  0  0  0  0  0  0  0
   -0.8070   -2.4260   -0.7280 C   0  0  0  0  0  0  0  0  0  0  0  0
   -1.6830   -2.3200   -2.2370 Cl  0  0  0  0  0  0  0  0  0  0  0  0
    0.5560   -2.7100   -0.7170 C   0  0  0  0  0  0  0  0  0  0  0  0
    4.8750   -2.1280   -0.1510 C   0  0  0  0  0  0  0  0  0  0  0  0
    5.7070   -1.0960   -0.5350 C   0  0  0  0  0  0  0  0  0  0  0  0
    5.1720    0.1410   -0.6550 N   0  0  0  0  0  0  0  0  0  0  0  0
  1  2  2  0
  2  3  1  0
  3  4  1  0
  4  5  1  0
  5  6  2  0
  5 29  1  0
  6  7  1  0
  7  8  1  0
  7 27  2  0
  8  9  1  6
  8 10  1  0
 10 11  2  0
 10 26  1  0
 11 12  1  0
 12 13  2  0
 13 14  1  0
 13 24  1  0
 14 15  2  0
 14 16  1  0
 16 17  1  0
 16 23  1  0
 17 18  1  0
 18 19  1  0
 19 20  1  0
 20 21  1  6
 20 23  1  0
 21 22  1  0
 24 25  1  0
 24 26  2  0
 27 28  1  0
 28 29  2  0
M  END
