
     RDKit          3D

 35 40  0  0  0  0  0  0  0  0999 V2000
   -0.0940    0.6950   -3.3340 N   0  0  0  0  0  0  0  0  0  0  0  0
   -0.2560    0.1610   -2.0190 C   0  0  0  0  0  0  0  0  0  0  0  0
   -0.6730    0.8620   -1.0410 N   0  0  0  0  0  0  0  0  0  0  0  0
   -0.7380    0.0640    0.1660 C   0  0  1  0  0  0  0  0  0  0  0  0
   -0.6330   -1.3420   -0.3440 C   0  0  0  0  0  0  0  0  0  0  0  0
   -0.0030   -1.1390   -1.5940 O   0  0  0  0  0  0  0  0  0  0  0  0
    0.3970    0.4390    1.0380 C   0  0  0  0  0  0  0  0  0  0  0  0
    1.6840    0.2200    0.5540 C   0  0  0  0  0  0  0  0  0  0  0  0
    2.8100    0.5310    1.2840 C   0  0  0  0  0  0  0  0  0  0  0  0
    4.1430    0.3240    0.8750 N   0  0  0  0  0  0  0  0  0  0  0  0
    4.5300   -0.4580   -0.2300 C   0  0  0  0  0  0  0  0  0  0  0  0
    3.6830   -1.0550   -0.9580 O   0  0  0  0  0  0  0  0  0  0  0  0
    5.9240   -0.6360   -0.6140 C   0  0  0  0  0  0  0  0  0  0  0  0
    6.9770   -0.0720    0.0480 C   0  0  0  0  0  0  0  0  0  0  0  0
    8.3050   -0.2610   -0.3450 C   0  0  0  0  0  0  0  0  0  0  0  0
    8.5760   -1.0410   -1.4360 C   0  0  0  0  0  0  0  0  0  0  0  0
   10.2150   -1.3290   -1.9950 Cl  0  0  0  0  0  0  0  0  0  0  0  0
    7.5000   -1.6010   -2.0900 C   0  0  0  0  0  0  0  0  0  0  0  0
    6.2420   -1.4050   -1.6950 N   0  0  0  0  0  0  0  0  0  0  0  0
    2.6610    1.0910    2.5630 C   0  0  0  0  0  0  0  0  0  0  0  0
    1.4010    1.3090    3.0450 C   0  0  0  0  0  0  0  0  0  0  0  0
    0.2660    0.9870    2.2900 C   0  0  0  0  0  0  0  0  0  0  0  0
   -1.0010    1.2130    2.7900 O   0  0  0  0  0  0  0  0  0  0  0  0
   -2.1280    0.8950    2.0460 C   0  0  0  0  0  0  0  0  0  0  0  0
   -3.3970    1.1250    2.5540 C   0  0  0  0  0  0  0  0  0  0  0  0
   -4.4940    0.8240    1.8470 N   0  0  0  0  0  0  0  0  0  0  0  0
   -4.4640    0.2850    0.6120 C   0  0  0  0  0  0  0  0  0  0  0  0
   -5.7090   -0.0130   -0.0880 C   0  0  0  0  0  0  0  0  0  0  0  0
   -6.8570    0.2720    0.5480 C   0  0  0  0  0  0  0  0  0  0  0  0
   -8.0670    0.0230   -0.0410 O   0  0  0  0  0  0  0  0  0  0  0  0
   -8.2330   -0.5290   -1.3070 C   0  0  0  0  0  0  0  0  0  0  0  0
   -6.9560   -0.8300   -1.9770 C   0  0  0  0  0  0  0  0  0  0  0  0
   -5.8010   -0.5880   -1.4060 C   0  0  0  0  0  0  0  0  0  0  0  0
   -3.2090    0.0500    0.0940 C   0  0  0  0  0  0  0  0  0  0  0  0
   -2.0520    0.3450    0.7860 C   0  0  0  0  0  0  0  0  0  0  0  0
  1  2  1  0
  2  3  2  0
  2  6  1  0
  3  4  1  0
  4  5  1  6
  4  7  1  0
  4 35  1  0
  5  6  1  0
  7  8  2  0
  7 22  1  0
  8  9  1  0
  9 10  1  0
  9 20  2  0
 10 11  1  0
 11 12  2  0
 11 13  1  0
 13 14  2  0
 13 19  1  0
 14 15  1  0
 15 16  2  0
 16 17  1  0
 16 18  1  0
 18 19  2  0
 20 21  1  0
 21 22  2  0
 22 23  1  0
 23 24  1  0
 24 25  2  0
 24 35  1  0
 25 26  1  0
 26 27  2  0
 27 28  1  0
 27 34  1  0
 28 29  2  0
 28 33  1  0
 29 30  1  0
 30 31  1  0
 31 32  1  0
 32 33  2  0
 34 35  2  0
M  CHG  1   3   1
M  END
