
     RDKit          3D

 46 49  0  0  0  0  0  0  0  0999 V2000
    8.2450   -4.2570    0.6250 C   0  0  0  0  0  0  0  0  0  0  0  0
    9.4540   -3.6080    0.6450 O   0  0  0  0  0  0  0  0  0  0  0  0
    9.3570   -2.3230    1.0500 C   0  0  0  0  0  0  0  0  0  0  0  0
    8.5040   -1.3850    0.2770 C   0  0  0  0  0  0  0  0  0  0  0  0
    7.1540   -1.7040    0.1900 O   0  0  0  0  0  0  0  0  0  0  0  0
    6.3060   -0.8580   -0.5200 C   0  0  0  0  0  0  0  0  0  0  0  0
    6.7850    0.2960   -1.1480 C   0  0  0  0  0  0  0  0  0  0  0  0
    5.9250    1.1140   -1.8450 C   0  0  0  0  0  0  0  0  0  0  0  0
    4.5830    0.8690   -1.9720 C   0  0  0  0  0  0  0  0  0  0  0  0
    3.6990    1.7840   -2.7270 C   0  0  0  0  0  0  0  0  0  0  0  0
    2.3300    1.3280   -2.7960 N   0  0  0  0  0  0  0  0  0  0  0  0
    1.4310    1.4020   -1.6970 C   0  0  0  0  0  0  0  0  0  0  0  0
    1.8260    1.8700   -0.5840 O   0  0  0  0  0  0  0  0  0  0  0  0
    0.0750    0.9740   -1.7690 N   0  0  0  0  0  0  0  0  0  0  0  0
   -0.7780    1.0840   -0.5800 C   0  0  1  0  0  0  0  0  0  0  0  0
   -1.6570    2.2970   -0.7370 C   0  0  0  0  0  0  0  0  0  0  0  0
   -1.5710    2.9580   -1.7640 O   0  0  0  0  0  0  0  0  0  0  0  0
   -2.5360    2.6230    0.3030 N   0  0  0  0  0  0  0  0  0  0  0  0
   -3.3780    3.7410    0.2860 C   0  0  0  0  0  0  0  0  0  0  0  0
   -3.3630    4.7740   -0.6150 C   0  0  0  0  0  0  0  0  0  0  0  0
   -4.2370    5.8470   -0.5160 C   0  0  0  0  0  0  0  0  0  0  0  0
   -5.1570    5.9250    0.4880 C   0  0  0  0  0  0  0  0  0  0  0  0
   -6.0450    6.9860    0.6130 O   0  0  0  0  0  0  0  0  0  0  0  0
   -5.1970    4.8950    1.4160 C   0  0  0  0  0  0  0  0  0  0  0  0
   -6.1100    4.9350    2.4410 O   0  0  0  0  0  0  0  0  0  0  0  0
   -6.3100    3.9780    3.4410 C   0  0  0  0  0  0  0  0  0  0  0  0
   -4.3310    3.8250    1.3220 C   0  0  0  0  0  0  0  0  0  0  0  0
   -1.5430   -0.1390   -0.3210 C   0  0  0  0  0  0  0  0  0  0  0  0
   -1.2970   -0.6950    0.8800 C   0  0  0  0  0  0  0  0  0  0  0  0
   -1.9410   -1.9240    1.3720 C   0  0  0  0  0  0  0  0  0  0  0  0
   -1.1590   -2.5850    2.3140 C   0  0  0  0  0  0  0  0  0  0  0  0
   -1.5900   -3.7620    2.8830 C   0  0  0  0  0  0  0  0  0  0  0  0
   -0.8130   -4.5270    3.8940 C   0  0  0  0  0  0  0  0  0  0  0  0
   -2.8190   -4.2480    2.4780 C   0  0  0  0  0  0  0  0  0  0  0  0
   -3.5980   -3.5960    1.5430 C   0  0  0  0  0  0  0  0  0  0  0  0
   -3.1640   -2.4010    0.9630 C   0  0  0  0  0  0  0  0  0  0  0  0
   -4.1510   -1.8570    0.0020 C   0  0  2  0  0  0  0  0  0  0  0  0
   -5.1330   -2.8140   -0.2520 O   0  0  0  0  0  0  0  0  0  0  0  0
   -3.5580   -1.3290   -1.2470 C   0  0  0  0  0  0  0  0  0  0  0  0
   -4.2700   -1.6600   -2.5020 C   0  0  0  0  0  0  0  0  0  0  0  0
   -5.3180   -2.3300   -2.5390 O   0  0  0  0  0  0  0  0  0  0  0  0
   -3.7240   -1.1860   -3.6770 O   0  0  0  0  0  0  0  0  0  0  0  0
   -4.2670   -1.4090   -4.9530 C   0  0  0  0  0  0  0  0  0  0  0  0
   -2.4580   -0.6090   -1.3630 C   0  0  0  0  0  0  0  0  0  0  0  0
    4.0980   -0.2910   -1.3430 C   0  0  0  0  0  0  0  0  0  0  0  0
    4.9560   -1.1100   -0.6440 C   0  0  0  0  0  0  0  0  0  0  0  0
  1  2  1  0
  2  3  1  0
  3  4  1  0
  4  5  1  0
  5  6  1  0
  6  7  2  0
  6 46  1  0
  7  8  1  0
  8  9  2  0
  9 10  1  0
  9 45  1  0
 10 11  1  0
 11 12  1  0
 12 13  2  0
 12 14  1  0
 15 14  1  6
 15 16  1  0
 15 28  1  0
 16 17  2  0
 16 18  1  0
 18 19  1  0
 19 20  2  0
 19 27  1  0
 20 21  1  0
 21 22  2  0
 22 23  1  0
 22 24  1  0
 24 25  1  0
 24 27  2  0
 25 26  1  0
 28 29  2  0
 28 44  1  0
 29 30  1  0
 30 31  2  0
 30 36  1  0
 31 32  1  0
 32 33  1  0
 32 34  2  0
 34 35  1  0
 35 36  2  0
 36 37  1  0
 37 38  1  6
 37 39  1  0
 39 40  1  0
 39 44  2  0
 40 41  2  0
 40 42  1  0
 42 43  1  0
 45 46  2  0
M  END
