
     RDKit          3D

 46 50  0  0  0  0  0  0  0  0999 V2000
    1.6280    2.9830   -0.7580 C   0  0  0  0  0  0  0  0  0  0  0  0
    2.1070    2.1860    0.3920 C   0  0  1  0  0  0  0  0  0  0  0  0
    3.4640    1.6350   -0.0030 C   0  0  0  0  0  0  0  0  0  0  0  0
    3.6700    0.4360    0.0390 O   0  0  0  0  0  0  0  0  0  0  0  0
    4.4200    2.5320   -0.3970 O   0  0  0  0  0  0  0  0  0  0  0  0
    5.7250    2.1330   -0.7820 C   0  0  0  0  0  0  0  0  0  0  0  0
    5.6520    1.2350   -1.9660 C   0  0  0  0  0  0  0  0  0  0  0  0
    7.0170    0.7860   -2.4020 C   0  0  0  0  0  0  0  0  0  0  0  0
    7.7410   -0.0240   -1.3830 C   0  0  0  0  0  0  0  0  0  0  0  0
    7.1070   -0.3310   -0.3470 O   0  0  0  0  0  0  0  0  0  0  0  0
    9.0650   -0.4390   -1.5400 N   0  0  0  0  0  0  0  0  0  0  0  0
    9.8280   -1.1870   -0.6400 C   0  0  0  0  0  0  0  0  0  0  0  0
   11.0040   -1.7930   -1.0830 C   0  0  0  0  0  0  0  0  0  0  0  0
   11.8160   -2.5220   -0.2460 C   0  0  0  0  0  0  0  0  0  0  0  0
   11.4340   -2.6420    1.0660 C   0  0  0  0  0  0  0  0  0  0  0  0
   10.2890   -2.0600    1.5270 C   0  0  0  0  0  0  0  0  0  0  0  0
    9.9030   -2.1870    2.8760 N   0  0  0  0  0  0  0  0  0  0  0  0
    9.4640   -1.3180    0.6740 C   0  0  0  0  0  0  0  0  0  0  0  0
    2.4750    3.0730    1.6180 C   0  0  0  0  0  0  0  0  0  0  0  0
    2.9800    1.6420    2.6880 S   0  0  0  0  0  0  0  0  0  0  0  0
    1.9220    0.3900    1.9130 C   0  0  0  0  0  0  0  0  0  0  0  0
    1.2110    1.2280    0.9020 N   0  0  0  0  0  0  0  0  0  0  0  0
   -0.1410    0.9410    0.6070 C   0  0  0  0  0  0  0  0  0  0  0  0
   -0.5900   -0.1560    1.1590 O   0  0  0  0  0  0  0  0  0  0  0  0
   -1.0940    1.6890   -0.2120 C   0  0  2  0  0  0  0  0  0  0  0  0
   -1.5860    2.9390    0.5290 C   0  0  0  0  0  0  0  0  0  0  0  0
   -2.5820    2.5780    1.5010 O   0  0  0  0  0  0  0  0  0  0  0  0
   -3.7120    1.8550    1.0870 C   0  0  0  0  0  0  0  0  0  0  0  0
   -4.9390    2.0490    1.6720 C   0  0  0  0  0  0  0  0  0  0  0  0
   -6.0030    1.2940    1.2010 C   0  0  0  0  0  0  0  0  0  0  0  0
   -5.8130    0.3890    0.1810 C   0  0  0  0  0  0  0  0  0  0  0  0
   -6.9630   -0.4100   -0.3250 C   0  0  0  0  0  0  0  0  0  0  0  0
   -8.0680   -0.2400    0.2150 O   0  0  0  0  0  0  0  0  0  0  0  0
   -6.8410   -1.2910   -1.3330 O   0  0  0  0  0  0  0  0  0  0  0  0
   -7.6790   -2.1390   -1.9910 C   0  0  0  0  0  0  0  0  0  0  0  0
   -8.2810   -3.2460   -1.2180 C   0  0  0  0  0  0  0  0  0  0  0  0
   -9.0860   -2.9460   -0.1730 O   0  0  0  0  0  0  0  0  0  0  0  0
  -10.2740   -2.3210   -0.0100 C   0  0  0  0  0  0  0  0  0  0  0  0
  -10.7580   -2.2210    1.3020 C   0  0  0  0  0  0  0  0  0  0  0  0
  -11.9430   -1.6150    1.6020 C   0  0  0  0  0  0  0  0  0  0  0  0
  -12.7150   -1.0690    0.5890 C   0  0  0  0  0  0  0  0  0  0  0  0
  -12.2630   -1.1530   -0.7020 C   0  0  0  0  0  0  0  0  0  0  0  0
  -11.0510   -1.7750   -0.9970 C   0  0  0  0  0  0  0  0  0  0  0  0
   -4.5640    0.2260   -0.3770 C   0  0  0  0  0  0  0  0  0  0  0  0
   -3.4690    0.9610    0.0650 C   0  0  0  0  0  0  0  0  0  0  0  0
   -2.2260    0.8370   -0.4500 O   0  0  0  0  0  0  0  0  0  0  0  0
  2  1  1  6
  2  3  1  0
  2 19  1  0
  2 22  1  0
  3  4  2  0
  3  5  1  0
  5  6  1  0
  6  7  1  0
  7  8  1  0
  8  9  1  0
  9 10  2  0
  9 11  1  0
 11 12  1  0
 12 13  2  0
 12 18  1  0
 13 14  1  0
 14 15  2  0
 15 16  1  0
 16 17  1  0
 16 18  2  0
 19 20  1  0
 20 21  1  0
 21 22  1  0
 22 23  1  0
 23 24  2  0
 25 23  1  1
 25 26  1  0
 25 46  1  0
 26 27  1  0
 27 28  1  0
 28 29  2  0
 28 45  1  0
 29 30  1  0
 30 31  2  0
 31 32  1  0
 31 44  1  0
 32 33  2  0
 32 34  1  0
 34 35  1  0
 35 36  1  0
 36 37  1  0
 37 38  1  0
 38 39  2  0
 38 43  1  0
 39 40  1  0
 40 41  2  0
 41 42  1  0
 42 43  2  0
 44 45  2  0
 45 46  1  0
M  END
