
     RDKit          3D

 46 49  0  0  0  0  0  0  0  0999 V2000
    7.3850    2.8830   -0.7860 C   0  0  0  0  0  0  0  0  0  0  0  0
    5.9880    2.3320   -0.8940 C   0  0  0  0  0  0  0  0  0  0  0  0
    4.9460    3.1450   -0.5340 C   0  0  0  0  0  0  0  0  0  0  0  0
    3.6560    2.6830   -0.5720 C   0  0  0  0  0  0  0  0  0  0  0  0
    3.3760    1.3680   -0.9780 C   0  0  0  0  0  0  0  0  0  0  0  0
    2.0070    0.9550   -0.9980 N   0  0  0  0  0  0  0  0  0  0  0  0
    0.9870    1.8180   -1.4900 C   0  0  0  0  0  0  0  0  0  0  0  0
    1.3740    2.9400   -1.9700 O   0  0  0  0  0  0  0  0  0  0  0  0
   -0.4530    1.5690   -1.4960 C   0  0  0  0  0  0  0  0  0  0  0  0
   -0.8440    0.3830   -0.8360 O   0  0  0  0  0  0  0  0  0  0  0  0
   -2.2700    0.3220   -0.4510 C   0  0  0  0  0  0  0  0  0  0  0  0
   -2.8160    1.3710   -0.8200 O   0  0  0  0  0  0  0  0  0  0  0  0
   -2.6580   -0.8220    0.2210 C   0  0  0  0  0  0  0  0  0  0  0  0
   -3.7350   -1.3020    0.6570 C   0  0  0  0  0  0  0  0  0  0  0  0
   -5.1310   -1.2350    0.8620 C   0  0  0  0  0  0  0  0  0  0  0  0
   -5.6550   -2.4130    1.4060 C   0  0  0  0  0  0  0  0  0  0  0  0
   -6.9460   -2.8270    1.7700 C   0  0  0  0  0  0  0  0  0  0  0  0
   -6.9800   -4.0820    2.3090 C   0  0  0  0  0  0  0  0  0  0  0  0
   -8.2120   -4.6710    2.7330 C   0  0  0  0  0  0  0  0  0  0  0  0
   -9.4900   -4.2010    2.5820 C   0  0  0  0  0  0  0  0  0  0  0  0
  -10.3070   -5.1110    3.1510 N   0  0  0  0  0  0  0  0  0  0  0  0
   -9.5540   -6.0910    3.6230 C   0  0  0  0  0  0  0  0  0  0  0  0
   -8.2930   -5.8360    3.3780 O   0  0  0  0  0  0  0  0  0  0  0  0
   -6.0560   -0.1480    0.8390 C   0  0  0  0  0  0  0  0  0  0  0  0
   -7.3310   -0.5070    0.7660 O   0  0  0  0  0  0  0  0  0  0  0  0
   -5.8460    1.2620    0.8870 C   0  0  0  0  0  0  0  0  0  0  0  0
   -4.6890    1.7910    1.4250 C   0  0  0  0  0  0  0  0  0  0  0  0
   -4.5390    3.1250    1.7340 C   0  0  0  0  0  0  0  0  0  0  0  0
   -5.5450    4.0180    1.5240 C   0  0  0  0  0  0  0  0  0  0  0  0
   -5.3980    5.4310    1.8760 C   0  0  0  0  0  0  0  0  0  0  0  0
   -6.7140    3.5170    0.9860 C   0  0  0  0  0  0  0  0  0  0  0  0
   -7.8370    4.4560    0.7270 C   0  0  0  0  0  0  0  0  0  0  0  0
   -6.8930    2.1790    0.6630 C   0  0  0  0  0  0  0  0  0  0  0  0
   -8.0790    1.7820    0.1250 O   0  0  0  0  0  0  0  0  0  0  0  0
    4.4500    0.5950   -1.3290 C   0  0  0  0  0  0  0  0  0  0  0  0
    5.7520    1.0100   -1.3100 C   0  0  0  0  0  0  0  0  0  0  0  0
    6.8910    0.3040   -1.7110 N   0  0  0  0  0  0  0  0  0  0  0  0
    6.9550   -1.0950   -2.0720 C   0  0  0  0  0  0  0  0  0  0  0  0
    5.9240   -1.7560   -2.0090 O   0  0  0  0  0  0  0  0  0  0  0  0
    8.2430   -1.6270   -2.4870 C   0  0  2  0  0  0  0  0  0  0  0  0
    8.3200   -2.9610   -2.7940 O   0  0  0  0  0  0  0  0  0  0  0  0
    9.6800   -3.0930   -3.1470 C   0  0  0  0  0  0  0  0  0  0  0  0
   10.4690   -2.1650   -2.2540 C   0  0  0  0  0  0  0  0  0  0  0  0
    9.3220   -1.5140   -1.4330 C   0  0  2  0  0  0  0  0  0  0  0  0
    9.0760   -2.4940   -0.3070 C   0  0  0  0  0  0  0  0  0  0  0  0
    7.8920   -2.3400    0.3500 O   0  0  0  0  0  0  0  0  0  0  0  0
  1  2  1  0
  2  3  2  0
  2 36  1  0
  3  4  1  0
  4  5  2  0
  5  6  1  0
  5 35  1  0
  6  7  1  0
  7  8  2  0
  7  9  1  0
  9 10  1  0
 10 11  1  0
 11 12  2  0
 11 13  1  0
 13 14  2  3
 14 15  1  0
 15 16  2  3
 15 24  1  0
 16 17  1  0
 17 18  2  3
 18 19  1  0
 19 20  2  0
 19 23  1  0
 20 21  1  0
 21 22  2  0
 22 23  1  0
 24 25  2  0
 24 26  1  0
 26 27  2  0
 26 33  1  0
 27 28  1  0
 28 29  2  0
 29 30  1  0
 29 31  1  0
 31 32  1  0
 31 33  2  0
 33 34  1  0
 35 36  2  0
 36 37  1  0
 37 38  1  0
 38 39  2  0
 40 38  1  1
 40 41  1  0
 40 44  1  0
 41 42  1  0
 42 43  1  0
 43 44  1  0
 44 45  1  1
 45 46  1  0
M  END
