
     RDKit          3D

 46 50  0  0  0  0  0  0  0  0999 V2000
   -1.9050   -2.6440   -1.8350 C   0  0  0  0  0  0  0  0  0  0  0  0
   -3.2040   -2.7460   -1.8510 C   0  0  0  0  0  0  0  0  0  0  0  0
   -4.0530   -2.8540   -0.6780 C   0  0  0  0  0  0  0  0  0  0  0  0
   -3.3220   -2.6850    0.6060 C   0  0  1  0  0  0  0  0  0  0  0  0
   -2.3130   -3.6300    0.7340 O   0  0  0  0  0  0  0  0  0  0  0  0
   -2.8930   -1.2750    0.8910 C   0  0  1  0  0  0  0  0  0  0  0  0
   -4.0730   -0.3320    0.7150 C   0  0  0  0  0  0  0  0  0  0  0  0
   -4.0600    0.8010    1.5720 N   0  0  0  0  0  0  0  0  0  0  0  0
   -5.0900    1.7590    1.7170 C   0  0  0  0  0  0  0  0  0  0  0  0
   -4.9360    2.7380    2.5400 O   0  0  0  0  0  0  0  0  0  0  0  0
   -6.3430    1.7120    0.9790 C   0  0  0  0  0  0  0  0  0  0  0  0
   -6.8080    0.8370    0.0500 C   0  0  0  0  0  0  0  0  0  0  0  0
   -8.0790    1.2640   -0.3340 C   0  0  0  0  0  0  0  0  0  0  0  0
   -9.0200    0.8010   -1.2140 C   0  0  0  0  0  0  0  0  0  0  0  0
  -10.2260    1.4220   -1.4150 C   0  0  0  0  0  0  0  0  0  0  0  0
  -10.4690    2.5600   -0.6820 C   0  0  0  0  0  0  0  0  0  0  0  0
  -12.0270    3.4080   -0.9170 S   0  0  0  0  0  0  0  0  0  0  0  0
  -11.7640    4.6170   -2.2460 C   0  0  0  0  0  0  0  0  0  0  0  0
   -9.5500    3.0490    0.2050 C   0  0  0  0  0  0  0  0  0  0  0  0
   -8.3260    2.3970    0.3930 C   0  0  0  0  0  0  0  0  0  0  0  0
   -7.3090    2.6350    1.1440 O   0  0  0  0  0  0  0  0  0  0  0  0
   -2.8930    1.0810    2.4210 C   0  0  0  0  0  0  0  0  0  0  0  0
   -1.8960    0.0210    2.4990 C   0  0  2  0  0  0  0  0  0  0  0  0
   -0.6450    0.3230    1.6910 C   0  0  0  0  0  0  0  0  0  0  0  0
    0.3390   -0.6690    1.8850 O   0  0  0  0  0  0  0  0  0  0  0  0
    1.5750   -0.7260    1.3230 C   0  0  0  0  0  0  0  0  0  0  0  0
    1.8970    0.2250    0.5360 O   0  0  0  0  0  0  0  0  0  0  0  0
    2.5140   -1.7080    1.5140 O   0  0  0  0  0  0  0  0  0  0  0  0
    3.7740   -1.7600    0.9360 C   0  0  0  0  0  0  0  0  0  0  0  0
    3.8750   -2.0410   -0.4270 C   0  0  0  0  0  0  0  0  0  0  0  0
    5.1010   -2.1060   -1.0520 C   0  0  0  0  0  0  0  0  0  0  0  0
    6.2850   -1.8990   -0.3780 C   0  0  0  0  0  0  0  0  0  0  0  0
    7.5640   -1.9740   -1.1250 C   0  0  0  0  0  0  0  0  0  0  0  0
    8.1170   -0.6840   -1.4890 C   0  0  0  0  0  0  0  0  0  0  0  0
    7.5570    0.3760   -1.1640 O   0  0  0  0  0  0  0  0  0  0  0  0
    9.3200   -0.6210   -2.2270 N   0  0  0  0  0  0  0  0  0  0  0  0
    9.8410    0.7060   -2.5600 C   0  0  0  0  0  0  0  0  0  0  0  0
   10.4710    1.2060   -1.3010 C   0  0  0  0  0  0  0  0  0  0  0  0
   10.6440    0.5620   -0.0960 C   0  0  0  0  0  0  0  0  0  0  0  0
   11.2710    1.4420    0.7300 C   0  0  0  0  0  0  0  0  0  0  0  0
   11.6430    1.1220    2.1440 C   0  0  0  0  0  0  0  0  0  0  0  0
   11.4620    2.5510    0.0570 O   0  0  0  0  0  0  0  0  0  0  0  0
   10.9890    2.4340   -1.1680 N   0  0  0  0  0  0  0  0  0  0  0  0
    6.1930   -1.6220    0.9680 C   0  0  0  0  0  0  0  0  0  0  0  0
    4.9550   -1.5540    1.6050 C   0  0  0  0  0  0  0  0  0  0  0  0
   -2.4120   -1.2260    2.1890 O   0  0  0  0  0  0  0  0  0  0  0  0
  1  2  2  0
  2  3  1  0
  3  4  1  0
  4  5  1  6
  4  6  1  0
  6  7  1  1
  6 46  1  0
  7  8  1  0
  8  9  1  0
  8 22  1  0
  9 10  2  0
  9 11  1  0
 11 12  2  0
 11 21  1  0
 12 13  1  0
 13 14  2  0
 13 20  1  0
 14 15  1  0
 15 16  2  0
 16 17  1  0
 16 19  1  0
 17 18  1  0
 19 20  2  0
 20 21  1  0
 22 23  1  0
 23 24  1  6
 23 46  1  0
 24 25  1  0
 25 26  1  0
 26 27  2  0
 26 28  1  0
 28 29  1  0
 29 30  2  0
 29 45  1  0
 30 31  1  0
 31 32  2  0
 32 33  1  0
 32 44  1  0
 33 34  1  0
 34 35  2  0
 34 36  1  0
 36 37  1  0
 37 38  1  0
 38 39  1  0
 38 43  2  0
 39 40  2  0
 40 41  1  0
 40 42  1  0
 42 43  1  0
 44 45  2  0
M  END
