
     RDKit          3D

 46 49  0  0  0  0  0  0  0  0999 V2000
   -8.5440   -3.1680   -0.4040 C   0  0  0  0  0  0  0  0  0  0  0  0
   -7.4780   -3.6820    0.5010 C   0  0  0  0  0  0  0  0  0  0  0  0
   -6.1300   -3.0380    0.3200 C   0  0  1  0  0  0  0  0  0  0  0  0
   -5.6830   -3.2870   -1.1040 C   0  0  0  0  0  0  0  0  0  0  0  0
   -6.1130   -1.5820    0.6930 C   0  0  1  0  0  0  0  0  0  0  0  0
   -6.9950   -0.8860   -0.0930 O   0  0  0  0  0  0  0  0  0  0  0  0
   -6.4900   -1.5080    2.0600 O   0  0  0  0  0  0  0  0  0  0  0  0
   -4.6940   -1.0510    0.6410 C   0  0  0  0  0  0  0  0  0  0  0  0
   -4.7250    0.4090    1.0200 C   0  0  1  0  0  0  0  0  0  0  0  0
   -3.3760    1.0610    1.0230 C   0  0  0  0  0  0  0  0  0  0  0  0
   -2.7100    0.9990   -0.3440 C   0  0  0  0  0  0  0  0  0  0  0  0
   -1.3970    1.6880   -0.2890 C   0  0  0  0  0  0  0  0  0  0  0  0
   -0.1750    1.0500   -0.2520 C   0  0  0  0  0  0  0  0  0  0  0  0
    1.0180    1.7340   -0.1990 C   0  0  0  0  0  0  0  0  0  0  0  0
    2.3050    1.0080   -0.1580 C   0  0  0  0  0  0  0  0  0  0  0  0
    2.2580   -0.2380   -0.1650 O   0  0  0  0  0  0  0  0  0  0  0  0
    3.5060    1.6400   -0.1140 O   0  0  0  0  0  0  0  0  0  0  0  0
    4.7890    1.0510   -0.0770 C   0  0  0  0  0  0  0  0  0  0  0  0
    5.0220    0.2070    1.0720 C   0  0  0  0  0  0  0  0  0  0  0  0
    4.0100    0.1000    1.8780 O   0  0  0  0  0  0  0  0  0  0  0  0
    6.1410   -0.5260    1.4730 N   0  0  0  0  0  0  0  0  0  0  0  0
    6.0700   -1.5940    2.4780 C   0  0  0  0  0  0  0  0  0  0  0  0
    6.7870   -2.8240    2.0670 C   0  0  0  0  0  0  0  0  0  0  0  0
    7.6110   -2.7610    0.8190 C   0  0  0  0  0  0  0  0  0  0  0  0
    8.1520   -1.4560    0.5040 C   0  0  0  0  0  0  0  0  0  0  0  0
    9.3680   -1.3000   -0.1100 C   0  0  0  0  0  0  0  0  0  0  0  0
    9.8760   -0.0170   -0.3670 C   0  0  0  0  0  0  0  0  0  0  0  0
   11.1510    0.2150   -1.0260 C   0  0  0  0  0  0  0  0  0  0  0  0
   11.5550    1.3860   -1.2240 O   0  0  0  0  0  0  0  0  0  0  0  0
   11.9710   -0.8050   -1.4620 O   0  0  0  0  0  0  0  0  0  0  0  0
   13.2140   -0.5770   -2.1080 C   0  0  0  0  0  0  0  0  0  0  0  0
    9.1210    1.0690    0.0170 C   0  0  0  0  0  0  0  0  0  0  0  0
    7.8750    0.9470    0.6470 C   0  0  0  0  0  0  0  0  0  0  0  0
    7.4200   -0.3370    0.8740 C   0  0  0  0  0  0  0  0  0  0  0  0
    0.9870    3.1050   -0.1820 C   0  0  0  0  0  0  0  0  0  0  0  0
   -0.2210    3.7600   -0.2180 C   0  0  0  0  0  0  0  0  0  0  0  0
   -1.4180    3.0720   -0.2710 C   0  0  0  0  0  0  0  0  0  0  0  0
   -2.6740    3.7310   -0.3070 N   0  0  0  0  0  0  0  0  0  0  0  0
   -5.5990    1.1220    0.0730 N   0  0  0  0  0  0  0  0  0  0  0  0
   -6.7150    1.8900    0.4780 C   0  0  0  0  0  0  0  0  0  0  0  0
   -6.9890    1.9830    1.6810 O   0  0  0  0  0  0  0  0  0  0  0  0
   -7.5340    2.5700   -0.5370 C   0  0  0  0  0  0  0  0  0  0  0  0
   -7.3110    2.5100   -1.9120 C   0  0  0  0  0  0  0  0  0  0  0  0
   -8.2800    3.2690   -2.5210 C   0  0  0  0  0  0  0  0  0  0  0  0
   -9.0650    3.7670   -1.4960 C   0  0  0  0  0  0  0  0  0  0  0  0
   -8.5770    3.3220   -0.3580 O   0  0  0  0  0  0  0  0  0  0  0  0
  1  2  1  0
  2  3  1  0
  3  4  1  6
  3  5  1  0
  5  6  1  6
  5  7  1  0
  5  8  1  0
  9  8  1  6
  9 10  1  0
  9 39  1  0
 10 11  1  0
 11 12  1  0
 12 13  2  0
 12 37  1  0
 13 14  1  0
 14 15  1  0
 14 35  2  0
 15 16  2  0
 15 17  1  0
 17 18  1  0
 18 19  1  0
 19 20  2  0
 19 21  1  0
 21 22  1  0
 21 34  1  0
 22 23  1  0
 23 24  1  0
 24 25  1  0
 25 26  2  0
 25 34  1  0
 26 27  1  0
 27 28  1  0
 27 32  2  0
 28 29  2  0
 28 30  1  0
 30 31  1  0
 32 33  1  0
 33 34  2  0
 35 36  1  0
 36 37  2  0
 37 38  1  0
 39 40  1  0
 40 41  2  0
 40 42  1  0
 42 43  2  0
 42 46  1  0
 43 44  1  0
 44 45  2  0
 45 46  1  0
M  END
