
     RDKit          3D

 46 49  0  0  0  0  0  0  0  0999 V2000
   12.5730    3.2470   -2.2850 C   0  0  0  0  0  0  0  0  0  0  0  0
   11.7770    2.3430   -1.5330 O   0  0  0  0  0  0  0  0  0  0  0  0
   10.4190    2.5670   -1.3500 C   0  0  0  0  0  0  0  0  0  0  0  0
    9.9370    3.5970   -1.8730 O   0  0  0  0  0  0  0  0  0  0  0  0
    9.5250    1.6700   -0.5820 C   0  0  0  0  0  0  0  0  0  0  0  0
    8.1490    2.2280   -0.5970 C   0  0  0  0  0  0  0  0  0  0  0  0
    7.1080    1.4890    0.0900 C   0  0  0  0  0  0  0  0  0  0  0  0
    6.7850    1.6610    1.4120 C   0  0  0  0  0  0  0  0  0  0  0  0
    5.7680    0.9420    2.0190 C   0  0  0  0  0  0  0  0  0  0  0  0
    5.0530    0.0340    1.3090 C   0  0  0  0  0  0  0  0  0  0  0  0
    5.3390   -0.1760   -0.0290 C   0  0  0  0  0  0  0  0  0  0  0  0
    4.5240   -1.1350   -0.7730 C   0  0  0  0  0  0  0  0  0  0  0  0
    4.7460   -1.5000   -2.0140 C   0  0  0  0  0  0  0  0  0  0  0  0
    3.9340   -2.4520   -2.7510 C   0  0  0  0  0  0  0  0  0  0  0  0
    2.8000   -3.0970   -2.2090 N   0  0  0  0  0  0  0  0  0  0  0  0
    4.2350   -2.7390   -3.9450 O   0  0  0  0  0  0  0  0  0  0  0  0
    3.3750   -1.7120   -0.1030 N   0  0  0  0  0  0  0  0  0  0  0  0
    2.3350   -0.8700    0.3320 C   0  0  0  0  0  0  0  0  0  0  0  0
    2.4080    0.3830    0.1340 O   0  0  0  0  0  0  0  0  0  0  0  0
    1.1620   -1.3870    1.0110 C   0  0  2  0  0  0  0  0  0  0  0  0
    1.5890   -2.2310    2.2000 C   0  0  0  0  0  0  0  0  0  0  0  0
    0.6440   -3.4190    2.3370 C   0  0  0  0  0  0  0  0  0  0  0  0
   -0.7840   -3.0210    2.2290 C   0  0  0  0  0  0  0  0  0  0  0  0
   -1.1180   -2.3610    0.9340 C   0  0  1  0  0  0  0  0  0  0  0  0
   -1.7630   -1.1660    1.1490 O   0  0  0  0  0  0  0  0  0  0  0  0
   -2.9780   -0.7510    0.7270 C   0  0  0  0  0  0  0  0  0  0  0  0
   -3.8180   -1.5410   -0.0130 C   0  0  0  0  0  0  0  0  0  0  0  0
   -5.0430   -1.0680   -0.4170 C   0  0  0  0  0  0  0  0  0  0  0  0
   -5.4550    0.1910   -0.0970 C   0  0  0  0  0  0  0  0  0  0  0  0
   -6.7070    0.6660   -0.5150 O   0  0  0  0  0  0  0  0  0  0  0  0
   -7.8370    0.6050    0.2760 C   0  0  0  0  0  0  0  0  0  0  0  0
   -7.7020    0.0950    1.4300 O   0  0  0  0  0  0  0  0  0  0  0  0
   -9.1520    1.0760   -0.1190 C   0  0  0  0  0  0  0  0  0  0  0  0
  -10.0130    0.1760   -0.7540 C   0  0  0  0  0  0  0  0  0  0  0  0
   -9.5740   -1.2140   -0.9980 C   0  0  0  0  0  0  0  0  0  0  0  0
  -11.2810    0.5800   -1.1550 C   0  0  0  0  0  0  0  0  0  0  0  0
  -11.7070    1.8690   -0.9330 C   0  0  0  0  0  0  0  0  0  0  0  0
  -12.8640    2.2620   -1.2910 O   0  0  0  0  0  0  0  0  0  0  0  0
  -10.8580    2.7120   -0.3210 N   0  0  0  0  0  0  0  0  0  0  0  0
   -9.6150    2.3480    0.0830 C   0  0  0  0  0  0  0  0  0  0  0  0
   -8.7160    3.3260    0.7560 C   0  0  0  0  0  0  0  0  0  0  0  0
   -4.6420    1.0140    0.6430 C   0  0  0  0  0  0  0  0  0  0  0  0
   -5.0200    2.3130    0.9960 O   0  0  0  0  0  0  0  0  0  0  0  0
   -3.4180    0.5410    1.0470 C   0  0  0  0  0  0  0  0  0  0  0  0
    0.1900   -2.1560    0.1450 C   0  0  0  0  0  0  0  0  0  0  0  0
    6.3590    0.5490   -0.6210 C   0  0  0  0  0  0  0  0  0  0  0  0
  1  2  1  0
  2  3  1  0
  3  4  2  0
  3  5  1  0
  5  6  1  0
  6  7  1  0
  7  8  2  0
  7 46  1  0
  8  9  1  0
  9 10  2  0
 10 11  1  0
 11 12  1  0
 11 46  2  0
 12 13  2  3
 12 17  1  0
 13 14  1  0
 14 15  1  0
 14 16  2  0
 17 18  1  0
 18 19  2  0
 20 18  1  6
 20 21  1  0
 20 45  1  0
 21 22  1  0
 22 23  1  0
 23 24  1  0
 24 25  1  1
 24 45  1  0
 25 26  1  0
 26 27  2  0
 26 44  1  0
 27 28  1  0
 28 29  2  0
 29 30  1  0
 29 42  1  0
 30 31  1  0
 31 32  2  0
 31 33  1  0
 33 34  1  0
 33 40  2  0
 34 35  1  0
 34 36  2  0
 36 37  1  0
 37 38  2  0
 37 39  1  0
 39 40  1  0
 40 41  1  0
 42 43  1  0
 42 44  2  0
M  END
