
     RDKit          3D

 46 50  0  0  0  0  0  0  0  0999 V2000
    9.1290    1.7050    0.9010 C   0  0  0  0  0  0  0  0  0  0  0  0
    7.9700    1.3820    0.2050 O   0  0  0  0  0  0  0  0  0  0  0  0
    7.4640    2.5420   -0.3770 C   0  0  0  0  0  0  0  0  0  0  0  0
    6.3040    2.2260   -1.0760 O   0  0  0  0  0  0  0  0  0  0  0  0
    5.2010    1.7030   -0.4410 C   0  0  0  0  0  0  0  0  0  0  0  0
    5.2730    1.5090    0.9330 C   0  0  0  0  0  0  0  0  0  0  0  0
    4.1980    0.9950    1.5890 C   0  0  0  0  0  0  0  0  0  0  0  0
    2.9930    0.6400    0.9540 C   0  0  0  0  0  0  0  0  0  0  0  0
    1.9350    0.1290    1.7460 N   0  0  0  0  0  0  0  0  0  0  0  0
    0.7460   -0.4550    1.3140 C   0  0  0  0  0  0  0  0  0  0  0  0
    0.5290   -0.5730    0.1010 O   0  0  0  0  0  0  0  0  0  0  0  0
   -0.2280   -0.9230    2.3140 C   0  0  2  0  0  0  0  0  0  0  0  0
   -1.3920   -1.6320    1.7920 C   0  0  0  0  0  0  0  0  0  0  0  0
   -2.4860   -1.3290    2.5730 C   0  0  0  0  0  0  0  0  0  0  0  0
   -3.6760   -1.8700    2.2780 N   0  0  0  0  0  0  0  0  0  0  0  0
   -3.8900   -2.7060    1.2550 C   0  0  0  0  0  0  0  0  0  0  0  0
   -5.1530   -3.2420    0.9990 C   0  0  0  0  0  0  0  0  0  0  0  0
   -5.3660   -4.1030   -0.0530 C   0  0  0  0  0  0  0  0  0  0  0  0
   -4.3030   -4.4410   -0.8670 C   0  0  0  0  0  0  0  0  0  0  0  0
   -4.5040   -5.3470   -1.9780 C   0  0  0  0  0  0  0  0  0  0  0  0
   -3.5540   -5.6670   -2.7340 O   0  0  0  0  0  0  0  0  0  0  0  0
   -5.8590   -5.9100   -2.2330 C   0  0  0  0  0  0  0  0  0  0  0  0
   -5.8410   -7.0070   -3.6850 S   0  0  0  0  0  0  0  0  0  0  0  0
   -3.0480   -3.9080   -0.6110 C   0  0  0  0  0  0  0  0  0  0  0  0
   -2.8310   -3.0450    0.4410 C   0  0  0  0  0  0  0  0  0  0  0  0
   -1.5840   -2.4940    0.7290 C   0  0  0  0  0  0  0  0  0  0  0  0
   -0.5650   -2.8870   -0.1390 O   0  0  0  0  0  0  0  0  0  0  0  0
    0.1910   -4.0640    0.1800 C   0  0  0  0  0  0  0  0  0  0  0  0
   -2.0510   -0.3940    3.6780 C   0  0  0  0  0  0  0  0  0  0  0  0
   -0.8660    0.2590    3.0560 C   0  0  2  0  0  0  0  0  0  0  0  0
   -1.1770    1.3970    2.1800 C   0  0  0  0  0  0  0  0  0  0  0  0
   -0.8920    2.5580    2.6000 O   0  0  0  0  0  0  0  0  0  0  0  0
   -1.7730    1.3390    0.9020 N   0  0  0  0  0  0  0  0  0  0  0  0
   -2.0730    2.5070    0.0950 C   0  0  2  0  0  0  0  0  0  0  0  0
   -3.3290    2.4160   -0.6850 C   0  0  0  0  0  0  0  0  0  0  0  0
   -3.7750    3.8010   -1.0970 C   0  0  0  0  0  0  0  0  0  0  0  0
   -3.3050    4.1340   -2.4990 C   0  0  0  0  0  0  0  0  0  0  0  0
   -1.8330    4.5230   -2.4940 C   0  0  0  0  0  0  0  0  0  0  0  0
   -1.0430    3.4090   -2.0690 O   0  0  0  0  0  0  0  0  0  0  0  0
   -0.9470    2.8070   -0.8450 C   0  0  0  0  0  0  0  0  0  0  0  0
    0.1550    2.4410   -0.3850 O   0  0  0  0  0  0  0  0  0  0  0  0
    2.9650    0.8440   -0.3850 C   0  0  0  0  0  0  0  0  0  0  0  0
    4.0450    1.3720   -1.1090 C   0  0  0  0  0  0  0  0  0  0  0  0
    3.9190    1.5750   -2.5460 C   0  0  0  0  0  0  0  0  0  0  0  0
    5.0390    2.1530   -3.3070 C   0  0  0  0  0  0  0  0  0  0  0  0
    2.8430    1.2560   -3.1450 O   0  0  0  0  0  0  0  0  0  0  0  0
  1  2  1  0
  2  3  1  0
  3  4  1  0
  4  5  1  0
  5  6  2  0
  5 43  1  0
  6  7  1  0
  7  8  2  0
  8  9  1  0
  8 42  1  0
  9 10  1  0
 10 11  2  0
 12 10  1  6
 12 13  1  0
 12 30  1  0
 13 14  1  0
 13 26  2  0
 14 15  2  0
 14 29  1  0
 15 16  1  0
 16 17  2  0
 16 25  1  0
 17 18  1  0
 18 19  2  0
 19 20  1  0
 19 24  1  0
 20 21  2  0
 20 22  1  0
 22 23  1  0
 24 25  2  0
 25 26  1  0
 26 27  1  0
 27 28  1  0
 29 30  1  0
 30 31  1  6
 31 32  2  0
 31 33  1  0
 34 33  1  6
 34 35  1  0
 34 40  1  0
 35 36  1  0
 36 37  1  0
 37 38  1  0
 38 39  1  0
 39 40  1  0
 40 41  2  0
 42 43  2  0
 43 44  1  0
 44 45  1  0
 44 46  2  0
M  END
