
     RDKit          3D

 44 48  0  0  0  0  0  0  0  0999 V2000
  -12.6220    0.4120   -0.2270 N   0  0  0  0  0  0  0  0  0  0  0  0
  -12.7260    0.4510    1.5150 S   0  0  0  0  0  0  0  0  0  0  0  0
  -14.1530    0.7650    1.9020 O   0  0  0  0  0  0  0  0  0  0  0  0
  -11.5710    1.6530    2.1850 C   0  0  0  0  0  0  0  0  0  0  0  0
  -10.2330    1.2990    1.8070 N   0  0  0  0  0  0  0  0  0  0  0  0
   -9.0850    2.0440    2.1710 C   0  0  0  0  0  0  0  0  0  0  0  0
   -9.2520    3.0780    2.8660 O   0  0  0  0  0  0  0  0  0  0  0  0
   -7.7320    1.6710    1.7800 C   0  0  0  0  0  0  0  0  0  0  0  0
   -7.3150    0.6170    1.0610 N   0  0  0  0  0  0  0  0  0  0  0  0
   -5.9830    0.6080    0.9030 C   0  0  0  0  0  0  0  0  0  0  0  0
   -5.1330   -0.3490    0.2020 C   0  0  0  0  0  0  0  0  0  0  0  0
   -5.6460   -1.4620   -0.4310 C   0  0  0  0  0  0  0  0  0  0  0  0
   -4.7870   -2.3360   -1.0810 C   0  0  0  0  0  0  0  0  0  0  0  0
   -3.4660   -2.1280   -1.1140 N   0  0  0  0  0  0  0  0  0  0  0  0
   -2.9470   -1.0530   -0.5060 C   0  0  0  0  0  0  0  0  0  0  0  0
   -1.5380   -0.8840   -0.5710 N   0  0  0  0  0  0  0  0  0  0  0  0
   -0.6900   -1.7990   -1.2300 C   0  0  0  0  0  0  0  0  0  0  0  0
   -1.2280   -2.8010   -1.7720 O   0  0  0  0  0  0  0  0  0  0  0  0
    0.7740   -1.6030   -1.2910 C   0  0  0  0  0  0  0  0  0  0  0  0
    1.6790   -2.4520   -1.8840 C   0  0  0  0  0  0  0  0  0  0  0  0
    2.9500   -1.9410   -1.7450 C   0  0  0  0  0  0  0  0  0  0  0  0
    4.2280   -2.5340   -2.2300 C   0  0  0  0  0  0  0  0  0  0  0  0
    5.2810   -1.5690   -2.0020 N   0  0  0  0  0  0  0  0  0  0  0  0
    5.8140   -1.3290   -0.7150 C   0  0  0  0  0  0  0  0  0  0  0  0
    5.3490   -1.9730    0.2480 O   0  0  0  0  0  0  0  0  0  0  0  0
    6.8530   -0.3880   -0.4700 N   0  0  0  0  0  0  0  0  0  0  0  0
    7.4020   -0.1340    0.8540 C   0  0  1  0  0  0  0  0  0  0  0  0
    8.8200   -0.6750    0.8590 C   0  0  0  0  0  0  0  0  0  0  0  0
    9.8020    0.2390    0.2670 C   0  0  0  0  0  0  0  0  0  0  0  0
   10.9440   -0.2410   -0.1720 O   0  0  0  0  0  0  0  0  0  0  0  0
   11.8760    0.5370   -0.7190 C   0  0  0  0  0  0  0  0  0  0  0  0
   12.9350   -0.0560   -1.1030 O   0  0  0  0  0  0  0  0  0  0  0  0
   11.6870    1.8550   -0.8460 N   0  0  0  0  0  0  0  0  0  0  0  0
   10.5450    2.4010   -0.4170 C   0  0  0  0  0  0  0  0  0  0  0  0
   10.2900    3.6270   -0.4990 O   0  0  0  0  0  0  0  0  0  0  0  0
    9.5670    1.5730    0.1590 C   0  0  0  0  0  0  0  0  0  0  0  0
    8.3540    2.1370    0.6110 N   0  0  0  0  0  0  0  0  0  0  0  0
    7.3670    1.2940    1.1870 C   0  0  0  0  0  0  0  0  0  0  0  0
    6.4800    1.7210    1.9580 O   0  0  0  0  0  0  0  0  0  0  0  0
    2.7830   -0.7450   -1.0420 C   0  0  0  0  0  0  0  0  0  0  0  0
    1.4770   -0.5810   -0.7920 N   0  0  0  0  0  0  0  0  0  0  0  0
   -3.7700   -0.1740    0.1440 C   0  0  0  0  0  0  0  0  0  0  0  0
   -5.5540    1.7110    1.5570 N   0  0  0  0  0  0  0  0  0  0  0  0
   -6.6010    2.3440    2.0800 N   0  0  0  0  0  0  0  0  0  0  0  0
  2  1  1  6
  2  3  2  0
  2  4  1  0
  4  5  1  0
  5  6  1  0
  6  7  2  0
  6  8  1  0
  8  9  2  0
  8 44  1  0
  9 10  1  0
 10 11  1  0
 10 43  2  0
 11 12  2  0
 11 42  1  0
 12 13  1  0
 13 14  2  0
 14 15  1  0
 15 16  1  0
 15 42  2  0
 16 17  1  0
 17 18  2  0
 17 19  1  0
 19 20  2  0
 19 41  1  0
 20 21  1  0
 21 22  1  0
 21 40  2  0
 22 23  1  0
 23 24  1  0
 24 25  2  0
 24 26  1  0
 27 26  1  6
 27 28  1  0
 27 38  1  0
 28 29  1  0
 29 30  1  0
 29 36  2  0
 30 31  1  0
 31 32  2  0
 31 33  1  0
 33 34  1  0
 34 35  2  0
 34 36  1  0
 36 37  1  0
 37 38  1  0
 38 39  2  0
 40 41  1  0
 43 44  1  0
M  CHG  1   1   1
M  END
