
     RDKit          3D

 44 47  0  0  0  0  0  0  0  0999 V2000
   -7.4220    3.9770    2.3910 C   0  0  0  0  0  0  0  0  0  0  0  0
   -6.3550    3.0500    2.7220 N   0  0  0  0  0  0  0  0  0  0  0  0
   -5.4400    2.6170    1.7160 C   0  0  0  0  0  0  0  0  0  0  0  0
   -5.6110    3.0750    0.5660 O   0  0  0  0  0  0  0  0  0  0  0  0
   -4.3340    1.6790    1.9940 C   0  0  1  0  0  0  0  0  0  0  0  0
   -3.2940    2.3970    2.8390 C   0  0  0  0  0  0  0  0  0  0  0  0
   -4.9310    0.5170    2.7940 C   0  0  0  0  0  0  0  0  0  0  0  0
   -3.7590    1.1410    0.7030 C   0  0  2  0  0  0  0  0  0  0  0  0
   -4.8440    0.3780   -0.0340 C   0  0  0  0  0  0  0  0  0  0  0  0
   -4.3600   -0.1760   -1.3080 C   0  0  0  0  0  0  0  0  0  0  0  0
   -3.1870    0.0440   -1.6660 O   0  0  0  0  0  0  0  0  0  0  0  0
   -5.2060   -0.9570   -2.1330 N   0  0  0  0  0  0  0  0  0  0  0  0
   -4.7320   -1.4420   -3.2900 N   0  0  0  0  0  0  0  0  0  0  0  0
   -5.5010   -2.1820   -4.0870 C   0  0  0  0  0  0  0  0  0  0  0  0
   -5.0360   -2.6330   -5.1780 O   0  0  0  0  0  0  0  0  0  0  0  0
   -6.8100   -2.4720   -3.7440 C   0  0  0  0  0  0  0  0  0  0  0  0
   -7.5100   -3.1770   -4.5250 O   0  0  0  0  0  0  0  0  0  0  0  0
   -7.2870   -1.9880   -2.5880 N   0  0  0  0  0  0  0  0  0  0  0  0
   -6.4720   -1.2470   -1.8190 C   0  0  0  0  0  0  0  0  0  0  0  0
   -7.0100   -0.8320   -0.7430 O   0  0  0  0  0  0  0  0  0  0  0  0
   -2.6580    0.2320    0.9510 N   0  0  0  0  0  0  0  0  0  0  0  0
   -1.3260    0.5800    0.5260 C   0  0  0  0  0  0  0  0  0  0  0  0
   -1.1650    1.6800   -0.0510 O   0  0  0  0  0  0  0  0  0  0  0  0
   -0.2420   -0.2730    0.7440 N   0  0  0  0  0  0  0  0  0  0  0  0
    1.0900   -0.0150    0.3640 C   0  0  0  0  0  0  0  0  0  0  0  0
    2.1400   -0.8190    0.5650 N   0  0  0  0  0  0  0  0  0  0  0  0
    3.2540   -0.2530    0.0750 C   0  0  0  0  0  0  0  0  0  0  0  0
    4.5700   -0.8790    0.1410 C   0  0  0  0  0  0  0  0  0  0  0  0
    5.7610   -0.4880   -0.2650 C   0  0  0  0  0  0  0  0  0  0  0  0
    6.8530   -1.2770   -0.0740 C   0  0  0  0  0  0  0  0  0  0  0  0
    6.6350   -2.4700    0.5540 C   0  0  0  0  0  0  0  0  0  0  0  0
    4.8850   -2.4850    0.8710 S   0  0  0  0  0  0  0  0  0  0  0  0
    7.6890   -3.4140    0.9520 C   0  0  0  0  0  0  0  0  0  0  0  0
    7.3830   -4.4870    1.5050 O   0  0  0  0  0  0  0  0  0  0  0  0
    9.0430   -3.0690    0.6900 N   0  0  0  0  0  0  0  0  0  0  0  0
    9.2620   -1.8060    0.0660 C   0  0  0  0  0  0  0  0  0  0  0  0
   10.5330   -1.3770    0.1340 N   0  0  0  0  0  0  0  0  0  0  0  0
    8.2520   -1.0220   -0.5810 C   0  0  1  0  0  0  0  0  0  0  0  0
    8.1930   -1.4850   -2.0530 C   0  0  0  0  0  0  0  0  0  0  0  0
    8.5120    0.4420   -0.5780 C   0  0  0  0  0  0  0  0  0  0  0  0
    9.5410    0.9860   -1.3490 N   0  0  0  0  0  0  0  0  0  0  0  0
    7.7930    1.1750    0.1200 O   0  0  0  0  0  0  0  0  0  0  0  0
    2.8900    0.9090   -0.4320 N   0  0  0  0  0  0  0  0  0  0  0  0
    1.5580    1.0650   -0.2590 N   0  0  0  0  0  0  0  0  0  0  0  0
  1  2  1  0
  2  3  1  0
  3  4  2  0
  3  5  1  0
  5  6  1  1
  5  7  1  0
  5  8  1  0
  8  9  1  1
  8 21  1  0
  9 10  1  0
 10 11  2  0
 10 12  1  0
 12 13  1  0
 12 19  1  0
 13 14  1  0
 14 15  2  0
 14 16  1  0
 16 17  2  0
 16 18  1  0
 18 19  1  0
 19 20  2  0
 21 22  1  0
 22 23  2  0
 22 24  1  0
 24 25  1  0
 25 26  2  0
 25 44  1  0
 26 27  1  0
 27 28  1  0
 27 43  2  0
 28 29  2  0
 28 32  1  0
 29 30  1  0
 30 31  2  0
 30 38  1  0
 31 32  1  0
 31 33  1  0
 33 34  2  0
 33 35  1  0
 35 36  1  0
 36 37  2  0
 36 38  1  0
 38 39  1  6
 38 40  1  0
 40 41  1  0
 40 42  2  0
 43 44  1  0
M  END
