
     RDKit          3D

 44 47  0  0  0  0  0  0  0  0999 V2000
   -8.7840    1.0530   -2.3070 N   0  0  0  0  0  0  0  0  0  0  0  0
   -9.3160    1.6610   -1.1740 N   0  0  0  0  0  0  0  0  0  0  0  0
   -9.1440    3.0100   -0.8570 N   0  0  0  0  0  0  0  0  0  0  0  0
   -8.0090    3.5480   -0.6750 N   0  0  0  0  0  0  0  0  0  0  0  0
   -6.8810    2.7110   -0.8080 N   0  0  0  0  0  0  0  0  0  0  0  0
   -6.6830    1.5890    0.0520 C   0  0  0  0  0  0  0  0  0  0  0  0
   -7.5630    1.3920    0.9250 O   0  0  0  0  0  0  0  0  0  0  0  0
   -5.5020    0.6810   -0.0580 C   0  0  2  0  0  0  0  0  0  0  0  0
   -5.6490   -0.3790    1.0100 C   0  0  0  0  0  0  0  0  0  0  0  0
   -4.5490   -1.3900    0.8280 C   0  0  1  0  0  0  0  0  0  0  0  0
   -5.1520   -2.6510    0.2600 C   0  0  0  0  0  0  0  0  0  0  0  0
   -6.1650   -3.1980    1.1740 C   0  0  0  0  0  0  0  0  0  0  0  0
   -6.8580   -4.3690    0.8010 N   0  0  0  0  0  0  0  0  0  0  0  0
   -6.4300   -2.6530    2.2750 O   0  0  0  0  0  0  0  0  0  0  0  0
   -3.5120   -0.8970   -0.1670 C   0  0  0  0  0  0  0  0  0  0  0  0
   -3.1300    0.4560    0.0670 N   0  0  0  0  0  0  0  0  0  0  0  0
   -1.7780    0.8600    0.1370 C   0  0  0  0  0  0  0  0  0  0  0  0
   -1.5800    2.1070    0.3580 O   0  0  0  0  0  0  0  0  0  0  0  0
   -0.6440    0.0510   -0.0070 N   0  0  0  0  0  0  0  0  0  0  0  0
    0.7190    0.4410    0.0590 C   0  0  0  0  0  0  0  0  0  0  0  0
    1.6800   -0.5750    0.1320 C   0  0  0  0  0  0  0  0  0  0  0  0
    3.0200   -0.2990    0.1910 C   0  0  0  0  0  0  0  0  0  0  0  0
    3.4890    1.0190    0.1820 C   0  0  0  0  0  0  0  0  0  0  0  0
    4.8880    1.2550    0.2620 N   0  0  0  0  0  0  0  0  0  0  0  0
    5.5510    2.4830    0.1030 C   0  0  0  0  0  0  0  0  0  0  0  0
    4.9300    3.5210   -0.1380 O   0  0  0  0  0  0  0  0  0  0  0  0
    7.0340    2.6190    0.2150 C   0  0  0  0  0  0  0  0  0  0  0  0
    7.6700    1.3320    0.5180 N   0  0  0  0  0  0  0  0  0  0  0  0
    7.8060    1.0420    1.8170 C   0  0  0  0  0  0  0  0  0  0  0  0
    7.4060    1.8300    2.7310 O   0  0  0  0  0  0  0  0  0  0  0  0
    8.5490   -0.4540    2.1510 S   0  0  0  0  0  0  0  0  0  0  0  0
    8.9850   -1.3070    0.7190 C   0  0  0  0  0  0  0  0  0  0  0  0
    9.5980   -2.5370    0.7320 C   0  0  0  0  0  0  0  0  0  0  0  0
    9.8580   -3.0740    1.8450 O   0  0  0  0  0  0  0  0  0  0  0  0
    9.9220   -3.1670   -0.4180 N   0  0  0  0  0  0  0  0  0  0  0  0
    9.6080   -2.5210   -1.5490 C   0  0  0  0  0  0  0  0  0  0  0  0
    9.8940   -3.0780   -2.6370 O   0  0  0  0  0  0  0  0  0  0  0  0
    9.0100   -1.3220   -1.5910 N   0  0  0  0  0  0  0  0  0  0  0  0
    8.6650   -0.6490   -0.4500 C   0  0  0  0  0  0  0  0  0  0  0  0
    8.0520    0.5810   -0.5180 C   0  0  0  0  0  0  0  0  0  0  0  0
    7.8490    1.0060   -1.7140 O   0  0  0  0  0  0  0  0  0  0  0  0
    2.5260    1.9820    0.1100 C   0  0  0  0  0  0  0  0  0  0  0  0
    1.1580    1.7170    0.0490 C   0  0  0  0  0  0  0  0  0  0  0  0
   -4.2160    1.4250    0.2350 C   0  0  0  0  0  0  0  0  0  0  0  0
  1  2  1  0
  2  3  1  0
  3  4  2  3
  4  5  1  0
  5  6  1  0
  6  7  2  0
  8  6  1  1
  8  9  1  0
  8 44  1  0
  9 10  1  0
 10 11  1  6
 10 15  1  0
 11 12  1  0
 12 13  1  0
 12 14  2  0
 15 16  1  0
 16 17  1  0
 16 44  1  0
 17 18  2  0
 17 19  1  0
 19 20  1  0
 20 21  2  0
 20 43  1  0
 21 22  1  0
 22 23  2  0
 23 24  1  0
 23 42  1  0
 24 25  1  0
 25 26  2  0
 25 27  1  0
 27 28  1  0
 28 29  1  0
 28 40  1  0
 29 30  2  0
 29 31  1  0
 31 32  1  0
 32 33  1  0
 32 39  2  0
 33 34  2  0
 33 35  1  0
 35 36  1  0
 36 37  2  0
 36 38  1  0
 38 39  1  0
 39 40  1  0
 40 41  2  0
 42 43  2  0
M  END
