
     RDKit          3D

 44 47  0  0  0  0  0  0  0  0999 V2000
   12.5450    2.4180    0.3370 C   0  0  0  0  0  0  0  0  0  0  0  0
   11.2660    1.8080    0.0070 N   0  0  0  0  0  0  0  0  0  0  0  0
   10.9920    0.5390    0.4140 C   0  0  0  0  0  0  0  0  0  0  0  0
   11.8530   -0.1850    1.0460 O   0  0  0  0  0  0  0  0  0  0  0  0
    9.8250   -0.1360    0.2440 N   0  0  0  0  0  0  0  0  0  0  0  0
    8.7200   -0.8430    0.1140 C   0  0  0  0  0  0  0  0  0  0  0  0
    8.8530   -2.0400    0.6340 O   0  0  0  0  0  0  0  0  0  0  0  0
    7.5290   -0.5460   -0.4330 N   0  0  0  0  0  0  0  0  0  0  0  0
    6.4170   -1.4480   -0.3660 C   0  0  1  0  0  0  0  0  0  0  0  0
    6.2500   -1.7990    1.1890 C   0  0  0  0  0  0  0  0  0  0  0  0
    5.2420   -0.6230   -0.6200 C   0  0  0  0  0  0  0  0  0  0  0  0
    4.1490   -1.0510   -1.1800 N   0  0  0  0  0  0  0  0  0  0  0  0
    3.2290   -0.0310   -1.1260 C   0  0  0  0  0  0  0  0  0  0  0  0
    1.8900   -0.1900   -1.4970 N   0  0  0  0  0  0  0  0  0  0  0  0
    1.4030   -1.0740   -2.5180 C   0  0  0  0  0  0  0  0  0  0  0  0
    0.8190   -2.1780   -1.6070 C   0  0  0  0  0  0  0  0  0  0  0  0
    0.3760   -3.1460   -2.1560 O   0  0  0  0  0  0  0  0  0  0  0  0
    0.7980   -2.0630   -0.1400 C   0  0  0  0  0  0  0  0  0  0  0  0
    0.8450   -0.7290    0.4620 C   0  0  2  0  0  0  0  0  0  0  0  0
   -0.3570   -0.3220    1.2940 C   0  0  0  0  0  0  0  0  0  0  0  0
   -0.2040    0.2050    2.4160 O   0  0  0  0  0  0  0  0  0  0  0  0
   -1.6050   -0.5230    0.7650 N   0  0  0  0  0  0  0  0  0  0  0  0
   -2.8820   -0.1060    1.2810 C   0  0  1  0  0  0  0  0  0  0  0  0
   -2.5990    1.4250    1.0310 C   0  0  0  0  0  0  0  0  0  0  0  0
   -3.1620    1.9570   -0.1140 N   0  0  0  0  0  0  0  0  0  0  0  0
   -1.8800    1.9920    1.8430 O   0  0  0  0  0  0  0  0  0  0  0  0
   -4.0710   -0.5180    0.5920 C   0  0  0  0  0  0  0  0  0  0  0  0
   -4.2080   -1.7110   -0.0890 N   0  0  0  0  0  0  0  0  0  0  0  0
   -5.3870   -1.7650   -0.6200 N   0  0  0  0  0  0  0  0  0  0  0  0
   -6.0810   -0.6460   -0.3300 C   0  0  0  0  0  0  0  0  0  0  0  0
   -5.2730    0.1310    0.4260 N   0  0  0  0  0  0  0  0  0  0  0  0
   -5.5800    1.3910    1.0500 C   0  0  0  0  0  0  0  0  0  0  0  0
   -7.0190    1.4990    1.5190 C   0  0  0  0  0  0  0  0  0  0  0  0
   -7.9550    1.7140    0.3750 C   0  0  0  0  0  0  0  0  0  0  0  0
   -7.5120    1.1520   -0.9450 C   0  0  0  0  0  0  0  0  0  0  0  0
   -7.4260   -0.3860   -0.9050 C   0  0  2  0  0  0  0  0  0  0  0  0
   -8.5190   -0.9580   -0.1030 C   0  0  0  0  0  0  0  0  0  0  0  0
  -10.1060   -0.6910   -0.8630 S   0  0  1  0  0  0  0  0  0  0  0  0
  -10.3830    0.6660   -1.3160 O   0  0  0  0  0  0  0  0  0  0  0  0
  -10.1750   -1.5730   -2.1320 O   0  0  0  0  0  0  0  0  0  0  0  0
  -11.3530   -1.2640    0.0980 O   0  0  0  0  0  0  0  0  0  0  0  0
    0.8790    0.3980   -0.6450 C   0  0  0  0  0  0  0  0  0  0  0  0
    3.8370    0.9970   -0.5260 N   0  0  0  0  0  0  0  0  0  0  0  0
    5.0800    0.6410   -0.2150 N   0  0  0  0  0  0  0  0  0  0  0  0
  1  2  1  0
  2  3  1  0
  3  4  2  0
  3  5  1  0
  5  6  1  0
  6  7  2  0
  6  8  1  0
  8  9  1  0
  9 10  1  1
  9 11  1  0
 11 12  2  0
 11 44  1  0
 12 13  1  0
 13 14  1  0
 13 43  2  0
 14 15  1  0
 14 42  1  0
 15 16  1  0
 16 17  2  0
 16 18  1  0
 18 19  1  0
 19 20  1  1
 19 42  1  0
 20 21  2  0
 20 22  1  0
 23 22  1  6
 23 24  1  0
 23 27  1  0
 24 25  1  0
 24 26  2  0
 27 28  2  0
 27 31  1  0
 28 29  1  0
 29 30  2  0
 30 31  1  0
 30 36  1  0
 31 32  1  0
 32 33  1  0
 33 34  1  0
 34 35  1  0
 35 36  1  0
 36 37  1  1
 37 38  1  0
 38 39  2  0
 38 40  2  0
 38 41  1  1
 43 44  1  0
M  END
