
     RDKit          3D

 44 47  0  0  0  0  0  0  0  0999 V2000
    4.7840    0.8760   -5.8260 C   0  0  0  0  0  0  0  0  0  0  0  0
    4.9480    0.5960   -4.4620 O   0  0  0  0  0  0  0  0  0  0  0  0
    3.8580    0.6510   -3.6170 C   0  0  0  0  0  0  0  0  0  0  0  0
    2.6180    0.9760   -4.0920 C   0  0  0  0  0  0  0  0  0  0  0  0
    1.5150    1.0350   -3.2430 C   0  0  0  0  0  0  0  0  0  0  0  0
    1.6210    0.7730   -1.9100 C   0  0  0  0  0  0  0  0  0  0  0  0
    0.5560    0.8010   -0.9900 N   0  0  0  0  0  0  0  0  0  0  0  0
   -0.8060    0.7040   -1.3680 C   0  0  0  0  0  0  0  0  0  0  0  0
   -1.1810    0.5600   -2.5420 O   0  0  0  0  0  0  0  0  0  0  0  0
   -1.8250    0.7780   -0.3570 N   0  0  0  0  0  0  0  0  0  0  0  0
   -3.2450    0.6770   -0.6810 C   0  0  2  0  0  0  0  0  0  0  0  0
   -3.9210    1.9750   -0.5350 C   0  0  0  0  0  0  0  0  0  0  0  0
   -3.8060    2.8290   -1.4700 O   0  0  0  0  0  0  0  0  0  0  0  0
   -4.6950    2.3450    0.5790 N   0  0  0  0  0  0  0  0  0  0  0  0
   -5.4340    3.5980    0.5690 C   0  0  0  0  0  0  0  0  0  0  0  0
   -6.7640    3.4020    0.0360 N   0  0  0  0  0  0  0  0  0  0  0  0
   -7.5220    4.5490   -0.0150 N   0  0  0  0  0  0  0  0  0  0  0  0
   -4.7360    1.4550    1.6910 C   0  0  0  0  0  0  0  0  0  0  0  0
   -5.4060    1.7240    2.7230 O   0  0  0  0  0  0  0  0  0  0  0  0
   -3.9800    0.2490    1.5770 N   0  0  0  0  0  0  0  0  0  0  0  0
   -3.8530   -0.3310    0.2380 C   0  0  1  0  0  0  0  0  0  0  0  0
   -5.1590   -0.7560   -0.1600 N   0  0  0  0  0  0  0  0  0  0  0  0
   -5.9360   -1.7090    0.5970 C   0  0  0  0  0  0  0  0  0  0  0  0
   -7.2630   -1.6820    0.4610 C   0  0  0  0  0  0  0  0  0  0  0  0
   -8.1970   -2.5460    1.1280 C   0  0  0  0  0  0  0  0  0  0  0  0
   -9.5750   -2.4850    0.9580 O   0  0  0  0  0  0  0  0  0  0  0  0
   -7.5540   -3.6570    2.1420 S   0  0  0  0  0  0  0  0  0  0  0  0
   -5.7470   -3.5630    2.2130 C   0  0  0  0  0  0  0  0  0  0  0  0
   -5.2200   -2.6370    1.4580 C   0  0  0  0  0  0  0  0  0  0  0  0
    2.8990    0.4400   -1.4350 C   0  0  0  0  0  0  0  0  0  0  0  0
    4.0090    0.3730   -2.2420 C   0  0  0  0  0  0  0  0  0  0  0  0
    5.3120    0.0630   -1.8340 N   0  0  0  0  0  0  0  0  0  0  0  0
    5.7230   -0.3530   -0.5470 C   0  0  0  0  0  0  0  0  0  0  0  0
    4.9040   -0.4910    0.3790 O   0  0  0  0  0  0  0  0  0  0  0  0
    7.0980   -0.6380   -0.2370 N   0  0  0  0  0  0  0  0  0  0  0  0
    7.4350   -1.0740    1.0790 C   0  0  0  0  0  0  0  0  0  0  0  0
    6.4870   -1.2490    2.0140 N   0  0  0  0  0  0  0  0  0  0  0  0
    6.7510   -1.6650    3.2450 N   0  0  0  0  0  0  0  0  0  0  0  0
    8.0110   -1.9250    3.5790 C   0  0  0  0  0  0  0  0  0  0  0  0
    8.2930   -2.3220    4.7370 O   0  0  0  0  0  0  0  0  0  0  0  0
    9.0240   -1.7710    2.6860 N   0  0  0  0  0  0  0  0  0  0  0  0
   10.3880   -2.0620    3.0790 C   0  0  0  0  0  0  0  0  0  0  0  0
    8.7370   -1.3470    1.4390 C   0  0  0  0  0  0  0  0  0  0  0  0
    9.6580   -1.1940    0.5890 O   0  0  0  0  0  0  0  0  0  0  0  0
  1  2  1  0
  2  3  1  0
  3  4  2  0
  3 31  1  0
  4  5  1  0
  5  6  2  0
  6  7  1  0
  6 30  1  0
  7  8  1  0
  8  9  2  0
  8 10  1  0
 11 10  1  1
 11 12  1  0
 11 21  1  0
 12 13  2  0
 12 14  1  0
 14 15  1  0
 14 18  1  0
 15 16  1  0
 16 17  1  0
 18 19  2  0
 18 20  1  0
 20 21  1  0
 21 22  1  6
 22 23  1  0
 23 24  2  0
 23 29  1  0
 24 25  1  0
 25 26  1  0
 25 27  2  0
 27 28  1  0
 28 29  2  0
 30 31  2  0
 31 32  1  0
 32 33  1  0
 33 34  2  0
 33 35  1  0
 35 36  1  0
 36 37  2  0
 36 43  1  0
 37 38  1  0
 38 39  1  0
 39 40  2  0
 39 41  1  0
 41 42  1  0
 41 43  1  0
 43 44  2  0
M  END
