
     RDKit          3D

 44 48  0  0  0  0  0  0  0  0999 V2000
    9.9770   -2.9800    1.3780 N   0  0  0  0  0  0  0  0  0  0  0  0
    9.6060   -3.9090    0.3140 C   0  0  0  0  0  0  0  0  0  0  0  0
    8.8870   -3.1480   -0.7730 C   0  0  0  0  0  0  0  0  0  0  0  0
    7.6620   -2.5350   -0.1870 C   0  0  0  0  0  0  0  0  0  0  0  0
    7.3900   -2.7450    1.0100 O   0  0  0  0  0  0  0  0  0  0  0  0
    6.8000   -1.7170   -0.9690 N   0  0  0  0  0  0  0  0  0  0  0  0
    5.6560   -1.1800   -0.3440 N   0  0  0  0  0  0  0  0  0  0  0  0
    4.5080   -1.4570   -1.1920 C   0  0  0  0  0  0  0  0  0  0  0  0
    3.2210   -0.9610   -0.6400 C   0  0  0  0  0  0  0  0  0  0  0  0
    2.0760   -1.6150   -0.3080 C   0  0  0  0  0  0  0  0  0  0  0  0
    1.0410   -0.9000    0.1700 C   0  0  0  0  0  0  0  0  0  0  0  0
    1.1570    0.4140    0.3080 C   0  0  0  0  0  0  0  0  0  0  0  0
    0.2150    1.4480    0.7640 C   0  0  0  0  0  0  0  0  0  0  0  0
   -0.9820    1.3140    1.0570 N   0  0  0  0  0  0  0  0  0  0  0  0
   -1.9070    0.3450    1.1130 N   0  0  0  0  0  0  0  0  0  0  0  0
   -2.3690   -0.3420   -0.0310 C   0  0  0  0  0  0  0  0  0  0  0  0
   -1.8800   -0.0210   -1.1430 O   0  0  0  0  0  0  0  0  0  0  0  0
   -3.3530   -1.3780    0.0200 N   0  0  0  0  0  0  0  0  0  0  0  0
   -3.6730   -2.0380   -1.2080 C   0  0  0  0  0  0  0  0  0  0  0  0
   -4.9630   -2.8310   -1.1870 C   0  0  0  0  0  0  0  0  0  0  0  0
   -5.8560   -2.1630   -0.1960 C   0  0  1  0  0  0  0  0  0  0  0  0
   -6.0980   -0.7880   -0.5980 N   0  0  0  0  0  0  0  0  0  0  0  0
   -7.0380   -0.8560   -1.5770 O   0  0  0  0  0  0  0  0  0  0  0  0
   -7.7480   -2.0560   -1.4090 C   0  0  0  0  0  0  0  0  0  0  0  0
   -7.2340   -2.6150   -0.2020 N   0  0  0  0  0  0  0  0  0  0  0  0
   -7.6900   -3.3800    0.8730 C   0  0  0  0  0  0  0  0  0  0  0  0
   -8.6150   -4.2120    0.7380 O   0  0  0  0  0  0  0  0  0  0  0  0
   -7.0670   -3.2190    2.2490 C   0  0  0  0  0  0  0  0  0  0  0  0
   -6.1940   -2.1040    2.1810 O   0  0  0  0  0  0  0  0  0  0  0  0
   -5.2970   -2.3450    1.1750 C   0  0  2  0  0  0  0  0  0  0  0  0
   -3.9620   -1.6780    1.3010 C   0  0  0  0  0  0  0  0  0  0  0  0
    0.7960    2.8040    0.9400 C   0  0  0  0  0  0  0  0  0  0  0  0
    2.0000    3.0420    0.6410 O   0  0  0  0  0  0  0  0  0  0  0  0
    0.0060    3.8620    1.4570 N   0  0  0  0  0  0  0  0  0  0  0  0
    0.5200    5.1840    1.6630 C   0  0  0  0  0  0  0  0  0  0  0  0
    0.5770    6.0170    0.4610 C   0  0  0  0  0  0  0  0  0  0  0  0
    1.2330    5.8360   -0.6840 N   0  0  0  0  0  0  0  0  0  0  0  0
    0.9730    6.8770   -1.4380 O   0  0  0  0  0  0  0  0  0  0  0  0
    0.1890    7.7230   -0.8570 C   0  0  0  0  0  0  0  0  0  0  0  0
   -0.3060    8.9890   -1.3970 C   0  0  0  0  0  0  0  0  0  0  0  0
    0.0720    9.4200   -2.6810 N   0  0  0  0  0  0  0  0  0  0  0  0
   -1.0860    9.6720   -0.6520 O   0  0  0  0  0  0  0  0  0  0  0  0
   -0.0780    7.2000    0.3500 N   0  0  0  0  0  0  0  0  0  0  0  0
    2.8220    0.7680   -0.2550 S   0  0  0  0  0  0  0  0  0  0  0  0
  1  2  1  0
  2  3  1  0
  3  4  1  0
  4  5  2  0
  4  6  1  0
  6  7  1  0
  7  8  1  0
  8  9  1  0
  9 10  2  0
  9 44  1  0
 10 11  1  0
 11 12  2  0
 12 13  1  0
 12 44  1  0
 13 14  2  3
 13 32  1  0
 14 15  1  0
 15 16  1  0
 16 17  2  0
 16 18  1  0
 18 19  1  0
 18 31  1  0
 19 20  1  0
 21 20  1  6
 21 22  1  0
 21 25  1  0
 21 30  1  0
 22 23  1  0
 23 24  1  0
 24 25  1  0
 25 26  1  0
 26 27  2  0
 26 28  1  0
 28 29  1  0
 29 30  1  0
 30 31  1  1
 32 33  2  0
 32 34  1  0
 34 35  1  0
 35 36  1  0
 36 37  2  0
 36 43  1  0
 37 38  1  0
 38 39  1  0
 39 40  1  0
 39 43  2  0
 40 41  1  0
 40 42  2  0
M  END
