
     RDKit          3D

 44 48  0  0  0  0  0  0  0  0999 V2000
   10.4990    0.3210   -0.3200 C   0  0  0  0  0  0  0  0  0  0  0  0
    9.7830    1.5990   -0.7940 C   0  0  1  0  0  0  0  0  0  0  0  0
   10.8400    2.6910   -0.7890 C   0  0  0  0  0  0  0  0  0  0  0  0
    9.1070    1.3600   -2.0790 C   0  0  0  0  0  0  0  0  0  0  0  0
    8.7820    1.9130    0.3300 C   0  0  0  0  0  0  0  0  0  0  0  0
    7.9450    0.7040    0.4230 C   0  0  0  0  0  0  0  0  0  0  0  0
    6.9630    0.6020    1.4060 N   0  0  0  0  0  0  0  0  0  0  0  0
    5.8050    1.4100    1.6010 C   0  0  0  0  0  0  0  0  0  0  0  0
    5.5130    2.4040    0.9150 O   0  0  0  0  0  0  0  0  0  0  0  0
    4.9280    0.9260    2.7170 C   0  0  0  0  0  0  0  0  0  0  0  0
    4.1020   -0.1650    2.2140 C   0  0  0  0  0  0  0  0  0  0  0  0
    3.1080   -0.1360    1.1710 C   0  0  0  0  0  0  0  0  0  0  0  0
    1.7600   -0.4110    1.5270 C   0  0  0  0  0  0  0  0  0  0  0  0
    0.7620   -0.5840    0.6360 C   0  0  0  0  0  0  0  0  0  0  0  0
   -0.4880   -1.0140    1.0610 C   0  0  0  0  0  0  0  0  0  0  0  0
   -1.5130   -1.3750    0.1700 C   0  0  0  0  0  0  0  0  0  0  0  0
   -2.6140   -2.1240    0.7590 C   0  0  0  0  0  0  0  0  0  0  0  0
   -2.3490   -3.0760    1.6900 C   0  0  0  0  0  0  0  0  0  0  0  0
   -3.1830   -3.9530    2.2980 C   0  0  0  0  0  0  0  0  0  0  0  0
   -4.5720   -3.8650    1.8790 C   0  0  0  0  0  0  0  0  0  0  0  0
   -4.8630   -2.9430    0.9740 C   0  0  0  0  0  0  0  0  0  0  0  0
   -3.9170   -2.0300    0.3760 C   0  0  0  0  0  0  0  0  0  0  0  0
   -4.4390   -0.9650   -0.3410 C   0  0  0  0  0  0  0  0  0  0  0  0
   -4.8770   -0.0800   -0.9450 C   0  0  0  0  0  0  0  0  0  0  0  0
   -5.4740    1.0740   -1.7330 C   0  0  0  0  0  0  0  0  0  0  0  0
   -6.6560    0.5720   -2.4650 C   0  0  1  0  0  0  0  0  0  0  0  0
   -7.6920   -0.0360   -1.5860 N   0  0  0  0  0  0  0  0  0  0  0  0
   -8.2750    0.6750   -0.5380 C   0  0  0  0  0  0  0  0  0  0  0  0
   -7.8640    1.8690   -0.3040 O   0  0  0  0  0  0  0  0  0  0  0  0
   -9.3250    0.1240    0.2620 C   0  0  0  0  0  0  0  0  0  0  0  0
  -10.6020    0.4220    0.0520 C   0  0  0  0  0  0  0  0  0  0  0  0
  -11.7460    0.0300    0.6970 C   0  0  0  0  0  0  0  0  0  0  0  0
  -11.4130   -0.9220    1.8540 C   0  0  0  0  0  0  0  0  0  0  0  0
  -12.5120   -1.2820    2.5150 F   0  0  0  0  0  0  0  0  0  0  0  0
  -10.1890   -1.1650    1.9970 C   0  0  0  0  0  0  0  0  0  0  0  0
   -9.0210   -0.7930    1.3710 C   0  0  0  0  0  0  0  0  0  0  0  0
   -7.2940    1.3740   -3.5630 C   0  0  0  0  0  0  0  0  0  0  0  0
   -6.5370    0.0930   -3.8570 C   0  0  0  0  0  0  0  0  0  0  0  0
   -1.2320   -1.2700   -1.1560 C   0  0  0  0  0  0  0  0  0  0  0  0
    0.0470   -0.8240   -1.5840 C   0  0  0  0  0  0  0  0  0  0  0  0
    1.0470   -0.4870   -0.7180 C   0  0  0  0  0  0  0  0  0  0  0  0
    2.3110   -0.2250   -1.0940 N   0  0  0  0  0  0  0  0  0  0  0  0
    3.3450   -0.0540   -0.1690 C   0  0  0  0  0  0  0  0  0  0  0  0
    4.6280    0.0730   -0.7280 N   0  0  0  0  0  0  0  0  0  0  0  0
  2  1  1  1
  2  3  1  0
  2  4  1  0
  2  5  1  0
  5  6  1  0
  6  7  1  0
  7  8  1  0
  8  9  2  0
  8 10  1  0
 10 11  1  0
 11 12  1  0
 12 13  2  0
 12 43  1  0
 13 14  1  0
 14 15  2  0
 14 41  1  0
 15 16  1  0
 16 17  1  0
 16 39  2  0
 17 18  2  0
 17 22  1  0
 18 19  1  0
 19 20  2  0
 20 21  1  0
 21 22  2  0
 22 23  1  0
 23 24  3  0
 24 25  1  0
 26 25  1  1
 26 27  1  0
 26 37  1  0
 26 38  1  0
 27 28  1  0
 28 29  2  0
 28 30  1  0
 30 31  2  0
 30 36  1  0
 31 32  1  0
 32 33  2  0
 33 34  1  0
 33 35  1  0
 35 36  2  0
 37 38  1  0
 39 40  1  0
 40 41  2  0
 41 42  1  0
 42 43  2  0
 43 44  1  0
M  END
