
     RDKit          3D

 44 47  0  0  0  0  0  0  0  0999 V2000
   -4.3260   -2.7280    2.9950 C   0  0  0  0  0  0  0  0  0  0  0  0
   -3.5210   -2.1260    1.8150 C   0  0  0  0  0  0  0  0  0  0  0  0
   -3.9660   -0.9300    1.4370 C   0  0  0  0  0  0  0  0  0  0  0  0
   -5.0840   -0.3980    2.1510 N   0  0  0  0  0  0  0  0  0  0  0  0
   -5.7100    0.6660    1.9250 C   0  0  0  0  0  0  0  0  0  0  0  0
   -5.2910    1.5050    0.8110 C   0  0  0  0  0  0  0  0  0  0  0  0
   -6.0130    2.6640    0.5050 C   0  0  0  0  0  0  0  0  0  0  0  0
   -7.0970    3.0170    1.3420 N   0  0  0  0  0  0  0  0  0  0  0  0
   -5.6410    3.3840   -0.5630 N   0  0  0  0  0  0  0  0  0  0  0  0
   -4.5940    2.9680   -1.2960 C   0  0  0  0  0  0  0  0  0  0  0  0
   -4.2970    3.6940   -2.2900 O   0  0  0  0  0  0  0  0  0  0  0  0
   -3.8920    1.8440   -0.9990 N   0  0  0  0  0  0  0  0  0  0  0  0
   -2.8210    1.4720   -1.8550 C   0  0  0  0  0  0  0  0  0  0  0  0
   -4.2290    1.0830    0.0720 C   0  0  0  0  0  0  0  0  0  0  0  0
   -3.3650   -0.1010    0.3450 C   0  0  1  0  0  0  0  0  0  0  0  0
   -2.0110    0.3100    0.6860 N   0  0  0  0  0  0  0  0  0  0  0  0
   -0.8260   -0.4140    0.8030 C   0  0  0  0  0  0  0  0  0  0  0  0
   -0.3430   -0.2750    2.0330 O   0  0  0  0  0  0  0  0  0  0  0  0
   -0.0110   -1.2450   -0.0260 C   0  0  0  0  0  0  0  0  0  0  0  0
    0.8660   -2.0210    0.5910 O   0  0  0  0  0  0  0  0  0  0  0  0
    0.0710   -1.4310   -1.4330 N   0  0  0  0  0  0  0  0  0  0  0  0
    1.3850   -1.5130   -2.0610 C   0  0  0  0  0  0  0  0  0  0  0  0
    2.1410   -0.1270   -2.6640 S   0  0  2  0  0  0  0  0  0  0  0  0
    1.3630    0.5530   -3.8040 O   0  0  0  0  0  0  0  0  0  0  0  0
    3.4350   -0.5540   -3.3710 O   0  0  0  0  0  0  0  0  0  0  0  0
    2.4690    1.0800   -1.5090 N   0  0  0  0  0  0  0  0  0  0  0  0
    3.3680    0.5830   -0.4880 C   0  0  2  0  0  0  0  0  0  0  0  0
    2.7720    0.7550    0.8550 C   0  0  0  0  0  0  0  0  0  0  0  0
    3.2740    1.9110    1.6570 C   0  0  0  0  0  0  0  0  0  0  0  0
    3.8960    2.9870    0.7860 C   0  0  0  0  0  0  0  0  0  0  0  0
    5.0670    2.3960    0.0570 C   0  0  0  0  0  0  0  0  0  0  0  0
    4.7240    1.1760   -0.7150 C   0  0  1  0  0  0  0  0  0  0  0  0
    5.7960    0.1020   -0.6160 C   0  0  0  0  0  0  0  0  0  0  0  0
    5.8150   -0.5460    0.6660 N   0  0  0  0  0  0  0  0  0  0  0  0
    6.7560   -1.5660    0.9450 C   0  0  0  0  0  0  0  0  0  0  0  0
    6.7190   -2.1740    2.2400 N   0  0  0  0  0  0  0  0  0  0  0  0
    7.6120   -1.9660    0.1300 O   0  0  0  0  0  0  0  0  0  0  0  0
   -1.0440   -1.5570   -2.3410 C   0  0  0  0  0  0  0  0  0  0  0  0
   -0.8940   -0.9640   -3.4890 O   0  0  0  0  0  0  0  0  0  0  0  0
   -2.2520   -2.2500   -2.0960 N   0  0  0  0  0  0  0  0  0  0  0  0
   -2.5210   -3.3040   -1.2250 N   0  0  0  0  0  0  0  0  0  0  0  0
   -2.1170   -3.5090    0.1080 C   0  0  0  0  0  0  0  0  0  0  0  0
   -1.2670   -4.5420    0.1680 O   0  0  0  0  0  0  0  0  0  0  0  0
   -2.4360   -2.8580    1.3050 N   0  0  0  0  0  0  0  0  0  0  0  0
  1  2  1  0
  2  3  2  0
  2 44  1  0
  3  4  1  0
  3 15  1  0
  4  5  2  0
  5  6  1  0
  6  7  1  0
  6 14  2  0
  7  8  1  0
  7  9  2  0
  9 10  1  0
 10 11  2  0
 10 12  1  0
 12 13  1  0
 12 14  1  0
 14 15  1  0
 15 16  1  1
 16 17  1  0
 17 18  2  0
 17 19  1  0
 19 20  2  0
 19 21  1  0
 21 22  1  0
 21 38  1  0
 23 22  1  1
 23 24  2  0
 23 25  2  0
 23 26  1  0
 27 26  1  6
 27 28  1  0
 27 32  1  0
 28 29  1  0
 29 30  1  0
 30 31  1  0
 31 32  1  0
 32 33  1  1
 33 34  1  0
 34 35  1  0
 35 36  1  0
 35 37  2  0
 38 39  2  0
 38 40  1  0
 40 41  1  0
 41 42  1  0
 42 43  2  0
 42 44  1  0
M  END
