
     RDKit          3D

 44 49  0  0  0  0  0  0  0  0999 V2000
   -6.8110    6.0570    1.0400 C   0  0  0  0  0  0  0  0  0  0  0  0
   -6.6720    4.6950    0.3780 C   0  0  0  0  0  0  0  0  0  0  0  0
   -5.3230    4.1120    0.6560 C   0  0  0  0  0  0  0  0  0  0  0  0
   -5.0470    3.3070    1.7440 C   0  0  0  0  0  0  0  0  0  0  0  0
   -3.7840    2.8030    1.9590 C   0  0  0  0  0  0  0  0  0  0  0  0
   -2.7200    3.0660    1.1100 C   0  0  0  0  0  0  0  0  0  0  0  0
   -1.4290    2.6170    1.2950 N   0  0  0  0  0  0  0  0  0  0  0  0
   -1.0580    1.3730    0.9070 C   0  0  0  0  0  0  0  0  0  0  0  0
   -1.8860    0.5070    0.3170 N   0  0  0  0  0  0  0  0  0  0  0  0
   -2.1610   -0.4910   -0.3930 C   0  0  0  0  0  0  0  0  0  0  0  0
   -3.5380   -0.9110   -0.6300 C   0  0  0  0  0  0  0  0  0  0  0  0
   -4.5280   -0.0580   -0.3280 C   0  0  0  0  0  0  0  0  0  0  0  0
   -5.8730   -0.4040   -0.5280 N   0  0  0  0  0  0  0  0  0  0  0  0
   -6.3150   -1.4440   -1.4060 C   0  0  0  0  0  0  0  0  0  0  0  0
   -5.2550   -2.5160   -1.4270 C   0  0  0  0  0  0  0  0  0  0  0  0
   -5.6170   -3.7950   -1.7440 C   0  0  0  0  0  0  0  0  0  0  0  0
   -4.7180   -4.8280   -1.8390 C   0  0  0  0  0  0  0  0  0  0  0  0
   -3.4060   -4.5320   -1.5970 C   0  0  0  0  0  0  0  0  0  0  0  0
   -3.0320   -3.2470   -1.2740 C   0  0  0  0  0  0  0  0  0  0  0  0
   -3.9190   -2.1820   -1.1750 C   0  0  0  0  0  0  0  0  0  0  0  0
   -1.1390   -1.1060   -1.3120 C   0  0  0  0  0  0  0  0  0  0  0  0
    0.0860   -1.4350   -0.6430 C   0  0  0  0  0  0  0  0  0  0  0  0
    0.7300   -2.7970   -0.7270 C   0  0  0  0  0  0  0  0  0  0  0  0
    1.9900   -2.5590    0.0400 N   0  0  0  0  0  0  0  0  0  0  0  0
    2.4750   -3.8840    0.3760 C   0  0  0  0  0  0  0  0  0  0  0  0
    2.9080   -1.7470   -0.6650 C   0  0  0  0  0  0  0  0  0  0  0  0
    3.2010   -0.3860   -0.1850 C   0  0  2  0  0  0  0  0  0  0  0  0
    4.6420   -0.1550   -0.0310 N   0  0  0  0  0  0  0  0  0  0  0  0
    5.3920    0.6430   -0.7630 N   0  0  0  0  0  0  0  0  0  0  0  0
    6.6460    0.6480   -0.3560 C   0  0  0  0  0  0  0  0  0  0  0  0
    7.7750    1.4180   -0.9100 C   0  0  0  0  0  0  0  0  0  0  0  0
    8.7170    0.5390   -1.6960 C   0  0  0  0  0  0  0  0  0  0  0  0
    6.7300   -0.2120    0.7270 C   0  0  0  0  0  0  0  0  0  0  0  0
    7.7840   -0.5670    1.5090 C   0  0  0  0  0  0  0  0  0  0  0  0
    7.5870   -1.4680    2.5470 C   0  0  0  0  0  0  0  0  0  0  0  0
    6.3290   -1.9640    2.7400 C   0  0  0  0  0  0  0  0  0  0  0  0
    5.2800   -1.5860    1.9330 C   0  0  0  0  0  0  0  0  0  0  0  0
    5.4450   -0.6900    0.8910 C   0  0  0  0  0  0  0  0  0  0  0  0
    2.4680    0.0950    1.0400 C   0  0  0  0  0  0  0  0  0  0  0  0
    1.5520    1.2860    0.6830 C   0  0  0  0  0  0  0  0  0  0  0  0
    0.3020    1.2450    1.3380 N   0  0  0  0  0  0  0  0  0  0  0  0
   -3.0130    3.8860    0.0050 C   0  0  0  0  0  0  0  0  0  0  0  0
   -1.9770    4.1780   -0.8750 O   0  0  0  0  0  0  0  0  0  0  0  0
   -4.2840    4.3910   -0.2070 C   0  0  0  0  0  0  0  0  0  0  0  0
  1  2  1  0
  2  3  1  0
  3  4  2  0
  3 44  1  0
  4  5  1  0
  5  6  2  0
  6  7  1  0
  6 42  1  0
  7  8  2  3
  8  9  1  0
  8 41  1  0
  9 10  2  0
 10 11  1  0
 10 21  1  0
 11 12  2  0
 11 20  1  0
 12 13  1  0
 13 14  1  0
 14 15  1  0
 15 16  2  0
 15 20  1  0
 16 17  1  0
 17 18  2  0
 18 19  1  0
 19 20  2  0
 21 22  1  0
 22 23  1  0
 23 24  1  0
 24 25  1  0
 24 26  1  0
 26 27  1  0
 27 28  1  1
 27 39  1  0
 28 29  1  0
 28 38  1  0
 29 30  2  0
 30 31  1  0
 30 33  1  0
 31 32  1  0
 33 34  2  0
 33 38  1  0
 34 35  1  0
 35 36  2  0
 36 37  1  0
 37 38  2  0
 39 40  1  0
 40 41  1  0
 42 43  1  0
 42 44  2  0
M  END
