
     RDKit          3D

 44 49  0  0  0  0  0  0  0  0999 V2000
   -8.3700    3.0900   -0.6890 C   0  0  0  0  0  0  0  0  0  0  0  0
   -7.0460    2.6590   -0.3590 N   0  0  0  0  0  0  0  0  0  0  0  0
   -6.0680    3.4240   -0.0220 C   0  0  0  0  0  0  0  0  0  0  0  0
   -6.3330    4.8370    0.0280 N   0  0  0  0  0  0  0  0  0  0  0  0
   -4.7950    2.8920    0.2990 N   0  0  0  0  0  0  0  0  0  0  0  0
   -4.2420    1.8550   -0.4900 C   0  0  0  0  0  0  0  0  0  0  0  0
   -4.8230    1.4530   -1.6960 C   0  0  0  0  0  0  0  0  0  0  0  0
   -4.2060    0.4730   -2.4370 C   0  0  0  0  0  0  0  0  0  0  0  0
   -4.7960    0.0090   -3.7420 C   0  0  0  0  0  0  0  0  0  0  0  0
   -3.0280   -0.1250   -2.0250 C   0  0  0  0  0  0  0  0  0  0  0  0
   -2.4690    0.2800   -0.8360 C   0  0  0  0  0  0  0  0  0  0  0  0
   -3.0690    1.2780   -0.0480 C   0  0  0  0  0  0  0  0  0  0  0  0
   -2.4860    1.6360    1.1820 N   0  0  0  0  0  0  0  0  0  0  0  0
   -1.0500    2.0000    1.1610 C   0  0  0  0  0  0  0  0  0  0  0  0
   -0.4550    1.4810    2.4630 C   0  0  0  0  0  0  0  0  0  0  0  0
   -1.1770    0.2940    2.7890 N   0  0  0  0  0  0  0  0  0  0  0  0
   -0.8400   -1.0300    2.5580 C   0  0  0  0  0  0  0  0  0  0  0  0
   -1.7090   -1.8760    3.0620 O   0  0  0  0  0  0  0  0  0  0  0  0
    0.2940   -1.6210    1.8630 C   0  0  0  0  0  0  0  0  0  0  0  0
    1.2100   -0.9220    1.1890 N   0  0  0  0  0  0  0  0  0  0  0  0
    2.1580   -1.7460    0.6780 C   0  0  0  0  0  0  0  0  0  0  0  0
    3.2900   -1.5060   -0.0800 C   0  0  0  0  0  0  0  0  0  0  0  0
    3.6210   -0.1310   -0.4570 C   0  0  0  0  0  0  0  0  0  0  0  0
    4.6880    0.0820   -1.1630 C   0  0  0  0  0  0  0  0  0  0  0  0
    5.0980    1.4040   -1.5840 C   0  0  0  0  0  0  0  0  0  0  0  0
    4.3620    2.4990   -1.2490 C   0  0  0  0  0  0  0  0  0  0  0  0
    4.8070    3.7530   -1.6850 C   0  0  0  0  0  0  0  0  0  0  0  0
    5.9520    3.8630   -2.4300 C   0  0  0  0  0  0  0  0  0  0  0  0
    6.4660    5.1710   -2.9180 C   0  0  0  0  0  0  0  0  0  0  0  0
    6.6820    2.7250   -2.7560 C   0  0  0  0  0  0  0  0  0  0  0  0
    6.2710    1.5070   -2.3450 C   0  0  0  0  0  0  0  0  0  0  0  0
    4.0520   -2.5470   -0.4480 N   0  0  0  0  0  0  0  0  0  0  0  0
    3.7410   -3.8110   -0.1010 C   0  0  0  0  0  0  0  0  0  0  0  0
    4.5520   -4.8440   -0.5120 C   0  0  0  0  0  0  0  0  0  0  0  0
    4.2360   -6.1390   -0.1670 C   0  0  0  0  0  0  0  0  0  0  0  0
    3.1170   -6.4100    0.5850 C   0  0  0  0  0  0  0  0  0  0  0  0
    2.7850   -7.8140    0.9500 C   0  0  0  0  0  0  0  0  0  0  0  0
    2.2770   -5.3640    1.0130 C   0  0  0  0  0  0  0  0  0  0  0  0
    2.6040   -4.0890    0.6650 C   0  0  0  0  0  0  0  0  0  0  0  0
    1.8010   -3.0320    1.0600 C   0  0  0  0  0  0  0  0  0  0  0  0
    0.6440   -2.9880    1.8010 C   0  0  0  0  0  0  0  0  0  0  0  0
   -0.1130   -4.0420    2.4510 C   0  0  0  0  0  0  0  0  0  0  0  0
   -2.5040    0.5910    3.4060 C   0  0  0  0  0  0  0  0  0  0  0  0
   -3.1450    1.6420    2.4740 C   0  0  0  0  0  0  0  0  0  0  0  0
  1  2  1  0
  2  3  2  3
  3  4  1  0
  3  5  1  0
  5  6  1  0
  6  7  2  0
  6 12  1  0
  7  8  1  0
  8  9  1  0
  8 10  2  0
 10 11  1  0
 11 12  2  0
 12 13  1  0
 13 14  1  0
 13 44  1  0
 14 15  1  0
 15 16  1  0
 16 17  1  0
 16 43  1  0
 17 18  2  0
 17 19  1  0
 19 20  1  0
 19 41  2  0
 20 21  1  0
 21 22  2  0
 21 40  1  0
 22 23  1  0
 22 32  1  0
 23 24  2  3
 24 25  1  0
 25 26  2  0
 25 31  1  0
 26 27  1  0
 27 28  2  0
 28 29  1  0
 28 30  1  0
 30 31  2  0
 32 33  2  0
 33 34  1  0
 33 39  1  0
 34 35  2  0
 35 36  1  0
 36 37  1  0
 36 38  2  0
 38 39  1  0
 39 40  2  0
 40 41  1  0
 41 42  1  0
 43 44  1  0
M  END
