
     RDKit          3D

 44 49  0  0  0  0  0  0  0  0999 V2000
   -3.5570    3.5500   -2.3600 C   0  0  0  0  0  0  0  0  0  0  0  0
   -4.3520    3.1140   -1.1690 C   0  0  0  0  0  0  0  0  0  0  0  0
   -5.6040    2.8480   -1.2040 N   0  0  0  0  0  0  0  0  0  0  0  0
   -6.0280    2.4670    0.1010 C   0  0  0  0  0  0  0  0  0  0  0  0
   -4.7930    2.5570    0.9160 C   0  0  0  0  0  0  0  0  0  0  0  0
   -3.7850    2.9450    0.1540 C   0  0  0  0  0  0  0  0  0  0  0  0
   -2.3950    3.1470    0.6320 C   0  0  0  0  0  0  0  0  0  0  0  0
   -1.4810    2.2590   -0.0870 N   0  0  0  0  0  0  0  0  0  0  0  0
   -1.7930    0.9010    0.3270 C   0  0  0  0  0  0  0  0  0  0  0  0
   -0.9600   -0.0180   -0.5070 C   0  0  0  0  0  0  0  0  0  0  0  0
   -1.3680   -1.3970   -0.5590 N   0  0  0  0  0  0  0  0  0  0  0  0
   -1.2830   -2.4810    0.3280 C   0  0  0  0  0  0  0  0  0  0  0  0
   -0.1540   -2.9540    0.9900 C   0  0  0  0  0  0  0  0  0  0  0  0
   -0.4780   -4.0800    1.7450 N   0  0  0  0  0  0  0  0  0  0  0  0
   -1.5490   -4.6880    1.9110 N   0  0  0  0  0  0  0  0  0  0  0  0
   -2.6600   -4.2680    1.2960 C   0  0  0  0  0  0  0  0  0  0  0  0
   -3.8640   -4.9300    1.4640 C   0  0  0  0  0  0  0  0  0  0  0  0
   -3.9110   -6.1170    2.3420 C   0  0  0  0  0  0  0  0  0  0  0  0
   -4.9920   -4.4860    0.8230 C   0  0  0  0  0  0  0  0  0  0  0  0
   -4.8930   -3.3640    0.0090 C   0  0  0  0  0  0  0  0  0  0  0  0
   -6.0490   -2.7980   -0.7300 C   0  0  0  0  0  0  0  0  0  0  0  0
   -3.6880   -2.7380   -0.1320 C   0  0  0  0  0  0  0  0  0  0  0  0
   -2.5330   -3.1570    0.4970 C   0  0  0  0  0  0  0  0  0  0  0  0
    1.1900   -2.5470    1.0310 N   0  0  0  0  0  0  0  0  0  0  0  0
    2.0230   -1.5090    1.4760 C   0  0  0  0  0  0  0  0  0  0  0  0
    2.7750   -1.7440    2.5880 O   0  0  0  0  0  0  0  0  0  0  0  0
    2.3470   -0.2060    1.1000 N   0  0  0  0  0  0  0  0  0  0  0  0
    2.9180    0.4090   -0.0590 C   0  0  2  0  0  0  0  0  0  0  0  0
    4.2380   -0.1070   -0.5280 C   0  0  0  0  0  0  0  0  0  0  0  0
    5.1350   -0.7260    0.3110 C   0  0  0  0  0  0  0  0  0  0  0  0
    6.3760   -1.2070   -0.1090 C   0  0  0  0  0  0  0  0  0  0  0  0
    7.2840   -1.8690    0.8930 C   0  0  0  0  0  0  0  0  0  0  0  0
    6.7260   -1.0590   -1.4130 C   0  0  0  0  0  0  0  0  0  0  0  0
    5.8450   -0.4430   -2.2700 C   0  0  0  0  0  0  0  0  0  0  0  0
    4.6210    0.0300   -1.8540 C   0  0  0  0  0  0  0  0  0  0  0  0
    3.6780    0.6950   -2.7940 C   0  0  0  0  0  0  0  0  0  0  0  0
    3.1070    1.8820    0.0990 C   0  0  0  0  0  0  0  0  0  0  0  0
    4.3060    2.2980    0.6390 C   0  0  0  0  0  0  0  0  0  0  0  0
    4.6510    3.6150    0.8610 C   0  0  0  0  0  0  0  0  0  0  0  0
    3.7520    4.5970    0.5290 C   0  0  0  0  0  0  0  0  0  0  0  0
    2.5460    4.2050   -0.0130 C   0  0  0  0  0  0  0  0  0  0  0  0
    2.2110    2.8640   -0.2320 C   0  0  0  0  0  0  0  0  0  0  0  0
    0.8630    2.6570   -0.8290 C   0  0  0  0  0  0  0  0  0  0  0  0
   -0.1060    2.4610    0.2860 C   0  0  0  0  0  0  0  0  0  0  0  0
  1  2  1  0
  2  3  2  0
  2  6  1  0
  3  4  1  0
  4  5  1  0
  5  6  2  0
  6  7  1  0
  7  8  1  0
  8  9  1  0
  8 44  1  0
  9 10  1  0
 10 11  1  0
 11 12  1  0
 12 13  2  0
 12 23  1  0
 13 14  1  0
 13 24  1  0
 14 15  2  0
 15 16  1  0
 16 17  2  0
 16 23  1  0
 17 18  1  0
 17 19  1  0
 19 20  2  0
 20 21  1  0
 20 22  1  0
 22 23  2  0
 24 25  1  0
 25 26  2  0
 25 27  1  0
 27 28  1  0
 28 29  1  1
 28 37  1  0
 29 30  2  0
 29 35  1  0
 30 31  1  0
 31 32  1  0
 31 33  2  0
 33 34  1  0
 34 35  2  0
 35 36  1  0
 37 38  2  0
 37 42  1  0
 38 39  1  0
 39 40  2  0
 40 41  1  0
 41 42  2  0
 42 43  1  0
 43 44  1  0
M  END
