
     RDKit          3D

 44 49  0  0  0  0  0  0  0  0999 V2000
   -0.5960   -2.6760    1.1760 C   0  0  0  0  0  0  0  0  0  0  0  0
   -1.3400   -3.7070    1.0620 C   0  0  0  0  0  0  0  0  0  0  0  0
   -2.7270   -3.9860    0.9200 C   0  0  0  0  0  0  0  0  0  0  0  0
   -3.1270   -5.2870    0.9790 C   0  0  0  0  0  0  0  0  0  0  0  0
   -4.4960   -5.7750    0.8840 C   0  0  0  0  0  0  0  0  0  0  0  0
   -5.6260   -5.0970    1.1720 C   0  0  0  0  0  0  0  0  0  0  0  0
   -5.7180   -3.7210    1.6330 N   0  0  0  0  0  0  0  0  0  0  0  0
   -4.8900   -2.6660    1.0620 C   0  0  0  0  0  0  0  0  0  0  0  0
   -5.5680   -1.5400    0.8070 N   0  0  0  0  0  0  0  0  0  0  0  0
   -5.0230   -0.5730    0.0690 C   0  0  0  0  0  0  0  0  0  0  0  0
   -3.7350   -0.7420   -0.4440 C   0  0  0  0  0  0  0  0  0  0  0  0
   -3.2420    0.3770   -1.2470 C   0  0  0  0  0  0  0  0  0  0  0  0
   -2.9430    0.2680   -2.5440 N   0  0  0  0  0  0  0  0  0  0  0  0
   -2.5270    1.2960   -3.2810 C   0  0  0  0  0  0  0  0  0  0  0  0
   -2.3920    2.5370   -2.6950 C   0  0  0  0  0  0  0  0  0  0  0  0
   -2.6930    2.6690   -1.3660 C   0  0  0  0  0  0  0  0  0  0  0  0
   -3.1240    1.5990   -0.6080 C   0  0  0  0  0  0  0  0  0  0  0  0
   -3.3750    1.8580    0.8230 C   0  0  2  0  0  0  0  0  0  0  0  0
   -3.5210    3.3530    1.0820 C   0  0  0  0  0  0  0  0  0  0  0  0
   -2.0360    1.5070    1.5220 C   0  0  0  0  0  0  0  0  0  0  0  0
   -3.0140   -1.8690   -0.2110 C   0  0  0  0  0  0  0  0  0  0  0  0
   -1.9770   -2.2640   -0.7920 N   0  0  0  0  0  0  0  0  0  0  0  0
   -1.2030   -1.7670   -1.8230 C   0  0  0  0  0  0  0  0  0  0  0  0
   -1.4080   -2.1640   -3.0410 O   0  0  0  0  0  0  0  0  0  0  0  0
   -0.1500   -0.8230   -1.6660 N   0  0  0  0  0  0  0  0  0  0  0  0
    0.6740   -0.2660   -2.6690 C   0  0  0  0  0  0  0  0  0  0  0  0
    0.4620   -0.3290   -4.0250 C   0  0  0  0  0  0  0  0  0  0  0  0
    1.2990    0.2480   -4.9630 C   0  0  0  0  0  0  0  0  0  0  0  0
    2.4050    0.9200   -4.5020 C   0  0  0  0  0  0  0  0  0  0  0  0
    2.6280    0.9900   -3.1410 C   0  0  0  0  0  0  0  0  0  0  0  0
    1.8080    0.4250   -2.1890 C   0  0  0  0  0  0  0  0  0  0  0  0
    2.1140    0.5460   -0.8130 N   0  0  0  0  0  0  0  0  0  0  0  0
    1.5110    1.5300    0.0400 C   0  0  0  0  0  0  0  0  0  0  0  0
    2.5680    2.3790    0.7330 C   0  0  0  0  0  0  0  0  0  0  0  0
    3.6190    1.5710    1.3020 N   0  0  0  0  0  0  0  0  0  0  0  0
    4.6650    2.4550    1.7260 C   0  0  0  0  0  0  0  0  0  0  0  0
    5.8410    1.8500    2.3410 C   0  0  0  0  0  0  0  0  0  0  0  0
    6.2010    2.1000    3.6100 C   0  0  0  0  0  0  0  0  0  0  0  0
    7.4170    1.3400    3.9060 C   0  0  0  0  0  0  0  0  0  0  0  0
    7.7110    0.6430    2.6550 C   0  0  0  0  0  0  0  0  0  0  0  0
    6.7990    0.9400    1.7600 C   0  0  0  0  0  0  0  0  0  0  0  0
    4.1180    0.5430    0.4830 C   0  0  0  0  0  0  0  0  0  0  0  0
    3.0630   -0.3440   -0.1470 C   0  0  0  0  0  0  0  0  0  0  0  0
   -3.6220   -2.8680    0.5910 C   0  0  0  0  0  0  0  0  0  0  0  0
  1  2  2  0
  2  3  1  0
  3  4  2  0
  3 44  1  0
  4  5  1  0
  5  6  2  0
  6  7  1  0
  7  8  1  0
  8  9  1  0
  8 44  2  0
  9 10  1  0
 10 11  2  0
 11 12  1  0
 11 21  1  0
 12 13  2  0
 12 17  1  0
 13 14  1  0
 14 15  2  0
 15 16  1  0
 16 17  2  0
 17 18  1  0
 18 19  1  6
 18 20  1  0
 21 22  2  3
 21 44  1  0
 22 23  1  0
 23 24  2  0
 23 25  1  0
 25 26  1  0
 26 27  2  0
 26 31  1  0
 27 28  1  0
 28 29  2  0
 29 30  1  0
 30 31  2  0
 31 32  1  0
 32 33  1  0
 32 43  1  0
 33 34  1  0
 34 35  1  0
 35 36  1  0
 35 42  1  0
 36 37  1  0
 37 38  2  0
 37 41  1  0
 38 39  1  0
 39 40  1  0
 40 41  2  0
 42 43  1  0
M  END
