
     RDKit          3D

 44 49  0  0  0  0  0  0  0  0999 V2000
   10.5690   -2.6720    0.1360 C   0  0  0  0  0  0  0  0  0  0  0  0
    9.2160   -2.1240   -0.1120 C   0  0  0  0  0  0  0  0  0  0  0  0
    9.0370   -1.1800   -1.1090 C   0  0  0  0  0  0  0  0  0  0  0  0
    7.7990   -0.6270   -1.3960 C   0  0  0  0  0  0  0  0  0  0  0  0
    6.6660   -1.0140   -0.6710 C   0  0  0  0  0  0  0  0  0  0  0  0
    5.3500   -0.4000   -1.0250 C   0  0  2  0  0  0  0  0  0  0  0  0
    5.2180   -0.3690   -2.3950 O   0  0  0  0  0  0  0  0  0  0  0  0
    5.2590    0.9060   -0.3320 C   0  0  0  0  0  0  0  0  0  0  0  0
    4.0200    1.6520   -0.6020 N   0  0  0  0  0  0  0  0  0  0  0  0
    4.0240    2.5100   -1.5780 N   0  0  0  0  0  0  0  0  0  0  0  0
    2.8370    3.0650   -1.6100 C   0  0  0  0  0  0  0  0  0  0  0  0
    2.0230    2.5120   -0.5700 C   0  0  0  0  0  0  0  0  0  0  0  0
    2.7850    1.6140    0.0600 C   0  0  0  0  0  0  0  0  0  0  0  0
    2.6530    0.6260    1.1350 C   0  0  0  0  0  0  0  0  0  0  0  0
    1.7360   -0.1610    1.6380 C   0  0  0  0  0  0  0  0  0  0  0  0
    0.3480   -0.2030    1.1070 C   0  0  2  0  0  0  0  0  0  0  0  0
    0.4910   -0.1500   -0.3160 C   0  0  0  0  0  0  0  0  0  0  0  0
   -0.2270    0.8090    2.0800 C   0  0  0  0  0  0  0  0  0  0  0  0
   -0.6280   -1.2930    1.3700 C   0  0  0  0  0  0  0  0  0  0  0  0
   -2.0170   -0.6330    1.0260 C   0  0  0  0  0  0  0  0  0  0  0  0
   -2.1190    0.1660   -0.0540 N   0  0  0  0  0  0  0  0  0  0  0  0
   -2.5950   -0.6540   -1.2110 C   0  0  0  0  0  0  0  0  0  0  0  0
   -3.9770   -1.1210   -1.1180 C   0  0  0  0  0  0  0  0  0  0  0  0
   -4.4920   -1.8700   -2.1650 C   0  0  0  0  0  0  0  0  0  0  0  0
   -5.7280   -2.3080   -2.1420 N   0  0  0  0  0  0  0  0  0  0  0  0
   -6.5360   -2.0490   -1.1100 C   0  0  0  0  0  0  0  0  0  0  0  0
   -7.8400   -2.5230   -1.1040 C   0  0  0  0  0  0  0  0  0  0  0  0
   -8.2970   -3.3120   -2.2930 C   0  0  0  0  0  0  0  0  0  0  0  0
   -8.6650   -2.2480   -0.0240 C   0  0  0  0  0  0  0  0  0  0  0  0
   -8.1990   -1.5050    1.0460 C   0  0  0  0  0  0  0  0  0  0  0  0
   -6.9070   -1.0240    1.0630 C   0  0  0  0  0  0  0  0  0  0  0  0
   -6.0930   -1.3070   -0.0240 C   0  0  0  0  0  0  0  0  0  0  0  0
   -4.7720   -0.8420   -0.0560 C   0  0  0  0  0  0  0  0  0  0  0  0
   -2.4870    1.4490   -0.3490 C   0  0  0  0  0  0  0  0  0  0  0  0
   -2.4390    2.6550    0.4650 C   0  0  0  0  0  0  0  0  0  0  0  0
   -1.4420    3.5420    0.7610 C   0  0  0  0  0  0  0  0  0  0  0  0
   -2.0690    4.4960    1.6260 C   0  0  0  0  0  0  0  0  0  0  0  0
   -3.3180    4.1900    1.8150 N   0  0  0  0  0  0  0  0  0  0  0  0
   -3.5750    3.1060    1.1430 N   0  0  0  0  0  0  0  0  0  0  0  0
   -4.9040    2.5130    1.1440 C   0  0  0  0  0  0  0  0  0  0  0  0
   -0.0470    3.7500    0.4490 C   0  0  0  0  0  0  0  0  0  0  0  0
    0.6690    3.0100   -0.4930 N   0  0  0  0  0  0  0  0  0  0  0  0
    6.8520   -1.9490    0.3160 C   0  0  0  0  0  0  0  0  0  0  0  0
    8.0940   -2.4940    0.5930 C   0  0  0  0  0  0  0  0  0  0  0  0
  1  2  1  0
  2  3  2  0
  2 44  1  0
  3  4  1  0
  4  5  2  0
  5  6  1  0
  5 43  1  0
  6  7  1  6
  6  8  1  0
  8  9  1  0
  9 10  1  0
  9 13  1  0
 10 11  2  0
 11 12  1  0
 12 13  2  0
 12 42  1  0
 13 14  1  0
 14 15  2  0
 15 16  1  0
 16 17  1  6
 16 18  1  0
 16 19  1  0
 19 20  1  0
 20 21  1  0
 21 22  1  0
 21 34  1  0
 22 23  1  0
 23 24  2  0
 23 33  1  0
 24 25  1  0
 25 26  2  0
 26 27  1  0
 26 32  1  0
 27 28  1  0
 27 29  2  0
 29 30  1  0
 30 31  2  0
 31 32  1  0
 32 33  2  0
 34 35  1  0
 35 36  2  0
 35 39  1  0
 36 37  1  0
 36 41  1  0
 37 38  2  0
 38 39  1  0
 39 40  1  0
 41 42  1  0
 43 44  2  0
M  END
