
     RDKit          3D

 46 50  0  0  0  0  0  0  0  0999 V2000
   -7.5740    1.4790    2.8900 C   0  0  0  0  0  0  0  0  0  0  0  0
   -8.3290    1.9920    1.7140 C   0  0  2  0  0  0  0  0  0  0  0  0
   -8.3000    3.5230    1.7980 C   0  0  0  0  0  0  0  0  0  0  0  0
   -9.7760    1.5680    1.8280 C   0  0  0  0  0  0  0  0  0  0  0  0
   -7.7910    1.5420    0.3780 C   0  0  0  0  0  0  0  0  0  0  0  0
   -6.3760    1.9750    0.1330 C   0  0  0  0  0  0  0  0  0  0  0  0
   -5.8700    1.5390   -1.1500 N   0  0  0  0  0  0  0  0  0  0  0  0
   -5.7550    0.1270   -1.4970 C   0  0  0  0  0  0  0  0  0  0  0  0
   -6.1080   -0.6610   -0.6270 O   0  0  0  0  0  0  0  0  0  0  0  0
   -5.2440   -0.2170   -2.8120 C   0  0  0  0  0  0  0  0  0  0  0  0
   -4.9190   -1.6260   -3.0960 C   0  0  0  0  0  0  0  0  0  0  0  0
   -3.8800   -2.2790   -2.2980 C   0  0  0  0  0  0  0  0  0  0  0  0
   -2.5400   -2.0190   -2.6760 C   0  0  0  0  0  0  0  0  0  0  0  0
   -1.5050   -2.5110   -1.9320 C   0  0  0  0  0  0  0  0  0  0  0  0
   -0.1700   -2.2570   -2.2860 C   0  0  0  0  0  0  0  0  0  0  0  0
    0.8870   -2.7320   -1.5480 C   0  0  0  0  0  0  0  0  0  0  0  0
    2.2750   -2.4700   -1.8590 C   0  0  0  0  0  0  0  0  0  0  0  0
    3.0870   -3.5510   -2.1280 C   0  0  0  0  0  0  0  0  0  0  0  0
    4.4080   -3.3890   -2.4730 C   0  0  0  0  0  0  0  0  0  0  0  0
    4.9530   -2.1360   -2.5590 C   0  0  0  0  0  0  0  0  0  0  0  0
    4.1640   -1.0430   -2.2960 C   0  0  0  0  0  0  0  0  0  0  0  0
    2.8190   -1.2160   -1.9440 C   0  0  0  0  0  0  0  0  0  0  0  0
    2.0410   -0.0240   -1.6290 C   0  0  0  0  0  0  0  0  0  0  0  0
    1.9240    0.1760   -0.1150 C   0  0  0  0  0  0  0  0  0  0  0  0
    3.2910    0.3450    0.3930 C   0  0  0  0  0  0  0  0  0  0  0  0
    3.8530    1.5990    0.4230 C   0  0  0  0  0  0  0  0  0  0  0  0
    5.1450    1.7500    0.9110 C   0  0  0  0  0  0  0  0  0  0  0  0
    5.8800    0.6840    1.3650 C   0  0  0  0  0  0  0  0  0  0  0  0
    7.2010    0.7230    1.8460 N   0  0  0  0  0  0  0  0  0  0  0  0
    8.1330    1.7530    1.5500 C   0  0  0  0  0  0  0  0  0  0  0  0
    7.7800    2.7060    0.7970 O   0  0  0  0  0  0  0  0  0  0  0  0
    9.4770    1.6950    2.1100 C   0  0  0  0  0  0  0  0  0  0  0  0
    9.6500    1.4350    3.4450 C   0  0  0  0  0  0  0  0  0  0  0  0
   10.9350    1.3620    4.0020 C   0  0  0  0  0  0  0  0  0  0  0  0
   12.0360    1.5520    3.1960 C   0  0  0  0  0  0  0  0  0  0  0  0
   13.3060    1.4930    3.6720 F   0  0  0  0  0  0  0  0  0  0  0  0
   11.8730    1.8140    1.8470 C   0  0  0  0  0  0  0  0  0  0  0  0
   10.5830    1.8840    1.3130 C   0  0  0  0  0  0  0  0  0  0  0  0
    5.2490   -0.5620    1.3070 C   0  0  0  0  0  0  0  0  0  0  0  0
    3.9850   -0.7090    0.8300 N   0  0  0  0  0  0  0  0  0  0  0  0
    0.5430   -3.4900   -0.4210 C   0  0  0  0  0  0  0  0  0  0  0  0
   -0.7630   -3.7450   -0.0670 C   0  0  0  0  0  0  0  0  0  0  0  0
   -1.8150   -3.2580   -0.8200 C   0  0  0  0  0  0  0  0  0  0  0  0
   -3.0870   -3.5000   -0.4720 N   0  0  0  0  0  0  0  0  0  0  0  0
   -4.1490   -3.0250   -1.1940 C   0  0  0  0  0  0  0  0  0  0  0  0
   -5.4720   -3.4160   -0.7830 N   0  0  0  0  0  0  0  0  0  0  0  0
  2  1  1  1
  2  3  1  0
  2  4  1  0
  2  5  1  0
  5  6  1  0
  6  7  1  0
  7  8  1  0
  8  9  2  0
  8 10  1  0
 10 11  1  0
 11 12  1  0
 12 13  2  0
 12 45  1  0
 13 14  1  0
 14 15  2  0
 14 43  1  0
 15 16  1  0
 16 17  1  0
 16 41  2  0
 17 18  2  0
 17 22  1  0
 18 19  1  0
 19 20  2  0
 20 21  1  0
 21 22  2  0
 22 23  1  0
 23 24  1  0
 24 25  1  0
 25 26  2  0
 25 40  1  0
 26 27  1  0
 27 28  2  0
 28 29  1  0
 28 39  1  0
 29 30  1  0
 30 31  2  0
 30 32  1  0
 32 33  2  0
 32 38  1  0
 33 34  1  0
 34 35  2  0
 35 36  1  0
 35 37  1  0
 37 38  2  0
 39 40  2  0
 41 42  1  0
 42 43  2  0
 43 44  1  0
 44 45  2  0
 45 46  1  0
M  END
