
     RDKit          3D

 21 22  0  0  0  0  0  0  0  0999 V2000
    2.4980    0.6530    0.3140 O   0  0  0  0  0  0  0  0  0  0  0  0
    1.9760   -0.3770   -0.1570 C   0  0  0  0  0  0  0  0  0  0  0  0
    2.5830   -1.0020   -1.2840 N   0  0  0  0  0  0  0  0  0  0  0  0
    3.7840   -0.4800   -1.8970 C   0  0  0  0  0  0  0  0  0  0  0  0
    4.8350   -0.4560   -0.9640 O   0  0  0  0  0  0  0  0  0  0  0  0
    0.7710   -0.9540    0.4080 N   0  0  0  0  0  0  0  0  0  0  0  0
    0.2330   -0.2770    1.5200 C   0  0  0  0  0  0  0  0  0  0  0  0
    0.6010   -0.6610    2.7880 C   0  0  0  0  0  0  0  0  0  0  0  0
    1.6900   -2.0140    2.9660 Cl  0  0  0  0  0  0  0  0  0  0  0  0
    0.1470   -0.0250    3.9180 C   0  0  0  0  0  0  0  0  0  0  0  0
   -0.7110    1.0390    3.7470 C   0  0  0  0  0  0  0  0  0  0  0  0
   -1.0980    1.4480    2.4930 C   0  0  0  0  0  0  0  0  0  0  0  0
   -0.6140    0.7740    1.3610 C   0  0  0  0  0  0  0  0  0  0  0  0
   -1.0150    1.2060    0.1310 O   0  0  0  0  0  0  0  0  0  0  0  0
   -1.7730    0.4140   -0.6990 C   0  0  0  0  0  0  0  0  0  0  0  0
   -2.2350   -0.8440   -0.3770 C   0  0  0  0  0  0  0  0  0  0  0  0
   -2.9910   -1.5910   -1.2510 C   0  0  0  0  0  0  0  0  0  0  0  0
   -3.3010   -1.0740   -2.4880 C   0  0  0  0  0  0  0  0  0  0  0  0
   -2.8360    0.1850   -2.8050 C   0  0  0  0  0  0  0  0  0  0  0  0
   -2.0790    0.9570   -1.9560 C   0  0  0  0  0  0  0  0  0  0  0  0
   -1.5070    2.5520   -2.3930 Cl  0  0  0  0  0  0  0  0  0  0  0  0
  1  2  2  0
  2  3  1  0
  2  6  1  0
  3  4  1  0
  4  5  1  0
  6  7  1  0
  7  8  2  0
  7 13  1  0
  8  9  1  0
  8 10  1  0
 10 11  2  0
 11 12  1  0
 12 13  2  0
 13 14  1  0
 14 15  1  0
 15 16  2  0
 15 20  1  0
 16 17  1  0
 17 18  2  0
 18 19  1  0
 19 20  2  0
 20 21  1  0
M  END
