
     RDKit          3D

 21 22  0  0  0  0  0  0  0  0999 V2000
    5.0340    2.2540   -0.7240 C   0  0  0  0  0  0  0  0  0  0  0  0
    5.3770    0.9520   -0.2900 O   0  0  0  0  0  0  0  0  0  0  0  0
    4.3530    0.0720    0.0200 C   0  0  0  0  0  0  0  0  0  0  0  0
    3.0290    0.4160   -0.0780 C   0  0  0  0  0  0  0  0  0  0  0  0
    1.9720   -0.4370    0.2240 C   0  0  0  0  0  0  0  0  0  0  0  0
    0.6630    0.0540    0.0800 N   0  0  0  0  0  0  0  0  0  0  0  0
   -0.5150   -0.7070    0.2450 C   0  0  0  0  0  0  0  0  0  0  0  0
   -0.4950   -1.9250    0.5400 O   0  0  0  0  0  0  0  0  0  0  0  0
   -1.8320   -0.0520    0.0640 C   0  0  0  0  0  0  0  0  0  0  0  0
   -2.0680    1.2320   -0.2500 N   0  0  0  0  0  0  0  0  0  0  0  0
   -3.3990    1.4520   -0.3280 C   0  0  0  0  0  0  0  0  0  0  0  0
   -4.0500    2.6520   -0.6290 O   0  0  0  0  0  0  0  0  0  0  0  0
   -4.0610    0.2620   -0.0530 C   0  0  0  0  0  0  0  0  0  0  0  0
   -5.5370    0.0800   -0.0370 C   0  0  0  0  0  0  0  0  0  0  0  0
   -6.1840    0.0090   -1.6720 Cl  0  0  0  0  0  0  0  0  0  0  0  0
   -3.0620   -0.6580    0.1870 C   0  0  0  0  0  0  0  0  0  0  0  0
   -3.3050   -2.0870    0.5280 C   0  0  0  0  0  0  0  0  0  0  0  0
    2.2990   -1.6900    0.6410 C   0  0  0  0  0  0  0  0  0  0  0  0
    3.6390   -2.0730    0.7520 C   0  0  0  0  0  0  0  0  0  0  0  0
    4.6730   -1.2190    0.4500 C   0  0  0  0  0  0  0  0  0  0  0  0
    6.3610   -1.6490    0.5720 Cl  0  0  0  0  0  0  0  0  0  0  0  0
  1  2  1  0
  2  3  1  0
  3  4  2  0
  3 20  1  0
  4  5  1  0
  5  6  1  0
  5 18  2  0
  6  7  1  0
  7  8  2  0
  7  9  1  0
  9 10  1  0
  9 16  2  0
 10 11  1  0
 11 12  1  0
 11 13  2  0
 13 14  1  0
 13 16  1  0
 14 15  1  0
 16 17  1  0
 18 19  1  0
 19 20  2  0
 20 21  1  0
M  END
