
     RDKit          3D

 21 22  0  0  0  0  0  0  0  0999 V2000
   -1.6250    2.2300    1.7140 C   0  0  0  0  0  0  0  0  0  0  0  0
   -0.3740    1.6390    1.2510 C   0  0  0  0  0  0  0  0  0  0  0  0
    0.8120    2.2870    1.4540 C   0  0  0  0  0  0  0  0  0  0  0  0
    1.9990    1.6850    0.9920 C   0  0  0  0  0  0  0  0  0  0  0  0
    3.5090    2.5450    1.2700 Cl  0  0  0  0  0  0  0  0  0  0  0  0
    2.0280    0.4840    0.3500 C   0  0  0  0  0  0  0  0  0  0  0  0
    3.2170   -0.1860   -0.1490 C   0  0  0  0  0  0  0  0  0  0  0  0
    4.5280    0.1860   -0.1070 C   0  0  0  0  0  0  0  0  0  0  0  0
    5.3240   -0.7970   -0.7250 C   0  0  0  0  0  0  0  0  0  0  0  0
    7.0570   -0.7710   -0.9180 Cl  0  0  0  0  0  0  0  0  0  0  0  0
    4.4600   -1.7540   -1.1300 C   0  0  0  0  0  0  0  0  0  0  0  0
    3.2270   -1.3940   -0.7920 N   0  0  0  0  0  0  0  0  0  0  0  0
    0.7880   -0.1520    0.1590 C   0  0  0  0  0  0  0  0  0  0  0  0
   -0.3870    0.4140    0.6000 C   0  0  0  0  0  0  0  0  0  0  0  0
   -1.6160   -0.2020    0.4200 O   0  0  0  0  0  0  0  0  0  0  0  0
   -1.6600   -1.4430   -0.2350 C   0  0  0  0  0  0  0  0  0  0  0  0
   -3.0040   -2.0520   -0.3990 C   0  0  0  0  0  0  0  0  0  0  0  0
   -3.9340   -1.2620   -1.1590 N   0  0  0  0  0  0  0  0  0  0  0  0
   -4.3930    0.0200   -0.8050 C   0  0  0  0  0  0  0  0  0  0  0  0
   -4.0240    0.6020    0.2420 O   0  0  0  0  0  0  0  0  0  0  0  0
   -5.3020    0.7270   -1.6140 O   0  0  0  0  0  0  0  0  0  0  0  0
  1  2  1  0
  2  3  2  0
  2 14  1  0
  3  4  1  0
  4  5  1  0
  4  6  2  0
  6  7  1  0
  6 13  1  0
  7  8  2  0
  7 12  1  0
  8  9  1  0
  9 10  1  0
  9 11  2  0
 11 12  1  0
 13 14  2  0
 14 15  1  0
 15 16  1  0
 16 17  1  0
 17 18  1  0
 18 19  1  0
 19 20  2  0
 19 21  1  0
M  END
