
     RDKit          3D

 21 22  0  0  0  0  0  0  0  0999 V2000
    0.3340   -0.2400   -0.6040 O   0  0  0  0  0  0  0  0  0  0  0  0
    0.4270    0.0570    0.5960 C   0  0  0  0  0  0  0  0  0  0  0  0
   -0.7730    0.2640    1.3310 N   0  0  0  0  0  0  0  0  0  0  0  0
   -2.0880    0.1720    0.8570 C   0  0  0  0  0  0  0  0  0  0  0  0
   -3.1140    0.4210    1.7770 C   0  0  0  0  0  0  0  0  0  0  0  0
   -4.4340    0.3690    1.4600 C   0  0  0  0  0  0  0  0  0  0  0  0
   -4.7850    0.0500    0.1460 C   0  0  0  0  0  0  0  0  0  0  0  0
   -3.8380   -0.2050   -0.8040 C   0  0  0  0  0  0  0  0  0  0  0  0
   -4.1930   -0.5370   -2.1730 C   0  0  0  0  0  0  0  0  0  0  0  0
   -5.4160   -0.5870   -2.4720 O   0  0  0  0  0  0  0  0  0  0  0  0
   -3.2080   -0.7970   -3.1410 O   0  0  0  0  0  0  0  0  0  0  0  0
   -2.5000   -0.1320   -0.4030 C   0  0  0  0  0  0  0  0  0  0  0  0
    1.7010    0.1760    1.1820 N   0  0  0  0  0  0  0  0  0  0  0  0
    2.9460   -0.0020    0.5530 C   0  0  0  0  0  0  0  0  0  0  0  0
    4.1230   -0.0130    1.3260 C   0  0  0  0  0  0  0  0  0  0  0  0
    5.3700   -0.1730    0.7840 C   0  0  0  0  0  0  0  0  0  0  0  0
    5.5400   -0.3340   -0.5650 C   0  0  0  0  0  0  0  0  0  0  0  0
    7.1500   -0.5360   -1.2230 Cl  0  0  0  0  0  0  0  0  0  0  0  0
    4.4220   -0.3280   -1.3460 C   0  0  0  0  0  0  0  0  0  0  0  0
    4.5710   -0.5280   -3.0680 Cl  0  0  0  0  0  0  0  0  0  0  0  0
    3.1470   -0.1650   -0.7910 C   0  0  0  0  0  0  0  0  0  0  0  0
  1  2  2  0
  2  3  1  0
  2 13  1  0
  3  4  1  0
  4  5  2  0
  4 12  1  0
  5  6  1  0
  6  7  2  0
  7  8  1  0
  8  9  1  0
  8 12  2  0
  9 10  2  0
  9 11  1  0
 13 14  1  0
 14 15  2  0
 14 21  1  0
 15 16  1  0
 16 17  2  0
 17 18  1  0
 17 19  1  0
 19 20  1  0
 19 21  2  0
M  END
