
     RDKit          3D

 21 22  0  0  0  0  0  0  0  0999 V2000
   -4.3400   -0.0770   -1.8070 C   0  0  0  0  0  0  0  0  0  0  0  0
   -4.3500   -0.8540   -0.4790 C   0  0  0  0  0  0  0  0  0  0  0  0
   -4.2120    0.1740    0.6110 C   0  0  0  0  0  0  0  0  0  0  0  0
   -3.0520    0.9060    0.5220 O   0  0  0  0  0  0  0  0  0  0  0  0
   -1.7590    0.4950    0.6550 C   0  0  0  0  0  0  0  0  0  0  0  0
   -1.3180   -0.7720    0.9450 C   0  0  0  0  0  0  0  0  0  0  0  0
    0.0240   -1.0650    1.0560 C   0  0  0  0  0  0  0  0  0  0  0  0
    1.0150   -0.0800    0.8790 C   0  0  0  0  0  0  0  0  0  0  0  0
    2.2860   -0.4810    1.0100 O   0  0  0  0  0  0  0  0  0  0  0  0
    3.3910   -0.4990    0.2710 C   0  0  0  0  0  0  0  0  0  0  0  0
    3.4930   -1.4410   -0.7480 C   0  0  0  0  0  0  0  0  0  0  0  0
    2.1840   -2.5460   -1.0160 Cl  0  0  0  0  0  0  0  0  0  0  0  0
    4.5760   -1.5370   -1.5470 N   0  0  0  0  0  0  0  0  0  0  0  0
    5.6240   -0.7080   -1.3880 C   0  0  0  0  0  0  0  0  0  0  0  0
    5.5420    0.2270   -0.3880 C   0  0  0  0  0  0  0  0  0  0  0  0
    4.4390    0.3560    0.4570 C   0  0  0  0  0  0  0  0  0  0  0  0
    4.4830    1.2570    1.3480 O   0  0  0  0  0  0  0  0  0  0  0  0
    0.5380    1.1600    0.5940 C   0  0  0  0  0  0  0  0  0  0  0  0
    1.6880    2.4620    0.3380 Cl  0  0  0  0  0  0  0  0  0  0  0  0
   -0.7830    1.4870    0.4760 C   0  0  0  0  0  0  0  0  0  0  0  0
   -1.2030    2.8330    0.1710 N   0  0  0  0  0  0  0  0  0  0  0  0
  1  2  1  0
  2  3  1  0
  3  4  1  0
  4  5  1  0
  5  6  2  0
  5 20  1  0
  6  7  1  0
  7  8  2  0
  8  9  1  0
  8 18  1  0
  9 10  1  0
 10 11  2  0
 10 16  1  0
 11 12  1  0
 11 13  1  0
 13 14  1  0
 14 15  2  0
 15 16  1  0
 16 17  2  0
 18 19  1  0
 18 20  2  0
 20 21  1  0
M  END
