
     RDKit          3D

 19 20  0  0  0  0  0  0  0  0999 V2000
   -2.4880   -0.9250    2.2150 O   0  0  0  0  0  0  0  0  0  0  0  0
   -2.7410   -0.0570    1.3620 C   0  0  0  0  0  0  0  0  0  0  0  0
   -3.6100    1.0340    1.4220 O   0  0  0  0  0  0  0  0  0  0  0  0
   -4.0290    1.3950    0.1150 C   0  0  0  0  0  0  0  0  0  0  0  0
   -3.4030    0.3620   -0.8170 C   0  0  0  0  0  0  0  0  0  0  0  0
   -2.1390    0.0260   -0.0090 C   0  0  1  0  0  0  0  0  0  0  0  0
   -1.2570    1.2120   -0.0500 C   0  0  0  0  0  0  0  0  0  0  0  0
    0.1860    0.8880    0.3050 C   0  0  1  0  0  0  0  0  0  0  0  0
    0.2590    0.5190    1.6130 O   0  0  0  0  0  0  0  0  0  0  0  0
    0.6050   -0.1690   -0.6770 C   0  0  1  0  0  0  0  0  0  0  0  0
    0.1540    0.2910   -1.9420 O   0  0  0  0  0  0  0  0  0  0  0  0
    2.0810   -0.3330   -0.8050 C   0  0  0  0  0  0  0  0  0  0  0  0
    2.7340   -0.7980    0.3860 N   0  0  0  0  0  0  0  0  0  0  0  0
    4.1790   -0.6160    0.1690 C   0  0  0  0  0  0  0  0  0  0  0  0
    4.3630    0.7670   -0.0020 O   0  0  0  0  0  0  0  0  0  0  0  0
    5.6360    1.0430   -0.2060 O   0  0  0  0  0  0  0  0  0  0  0  0
   -0.1340   -1.4450   -0.4270 C   0  0  0  0  0  0  0  0  0  0  0  0
   -1.6030   -1.2450   -0.5030 C   0  0  2  0  0  0  0  0  0  0  0  0
   -2.0290   -1.4430   -1.8370 O   0  0  0  0  0  0  0  0  0  0  0  0
  1  2  2  0
  2  3  1  0
  2  6  1  0
  3  4  1  0
  4  5  1  0
  6  5  1  6
  6  7  1  0
  6 18  1  0
  7  8  1  0
  8  9  1  1
  8 10  1  0
 10 11  1  6
 10 12  1  0
 10 17  1  0
 12 13  1  0
 13 14  1  0
 14 15  1  0
 15 16  1  0
 17 18  1  0
 18 19  1  6
M  CHG  1  13   1
M  END
