
     RDKit          3D

 20 21  0  0  0  0  0  0  0  0999 V2000
   -4.6100    1.0370    0.4780 C   0  0  0  0  0  0  0  0  0  0  0  0
   -4.3130   -0.3150   -0.1080 C   0  0  0  0  0  0  0  0  0  0  0  0
   -5.2220   -1.0530   -0.7570 N   0  0  0  0  0  0  0  0  0  0  0  0
   -4.6310   -2.1890   -1.1190 C   0  0  0  0  0  0  0  0  0  0  0  0
   -3.3220   -2.1700   -0.6960 C   0  0  0  0  0  0  0  0  0  0  0  0
   -3.0740   -0.9610   -0.0270 C   0  0  0  0  0  0  0  0  0  0  0  0
   -1.8820   -0.4790    0.6230 C   0  0  0  0  0  0  0  0  0  0  0  0
   -1.9320    0.0670    1.7470 O   0  0  0  0  0  0  0  0  0  0  0  0
   -0.5660   -0.5930    0.0140 N   0  0  0  0  0  0  0  0  0  0  0  0
    0.4980   -0.1540    0.6170 O   0  0  0  0  0  0  0  0  0  0  0  0
    1.7190    0.3590    0.4530 C   0  0  0  0  0  0  0  0  0  0  0  0
    2.8720   -0.3560    0.2370 C   0  0  0  0  0  0  0  0  0  0  0  0
    4.0840    0.2690    0.1240 C   0  0  0  0  0  0  0  0  0  0  0  0
    5.4120   -0.4270    0.0600 C   0  0  0  0  0  0  0  0  0  0  0  0
    5.7220   -0.7430   -1.2700 O   0  0  0  0  0  0  0  0  0  0  0  0
    4.2020    1.6610    0.2100 C   0  0  0  0  0  0  0  0  0  0  0  0
    5.7440    2.4610    0.1350 Cl  0  0  0  0  0  0  0  0  0  0  0  0
    3.0420    2.3790    0.4080 C   0  0  0  0  0  0  0  0  0  0  0  0
    1.8010    1.7810    0.5370 C   0  0  0  0  0  0  0  0  0  0  0  0
    0.3970    2.7810    0.8060 Cl  0  0  0  0  0  0  0  0  0  0  0  0
  1  2  1  0
  2  3  1  0
  2  6  2  0
  3  4  1  0
  4  5  2  0
  5  6  1  0
  6  7  1  0
  7  8  2  0
  7  9  1  0
  9 10  1  0
 10 11  1  0
 11 12  2  0
 11 19  1  0
 12 13  1  0
 13 14  1  0
 13 16  2  0
 14 15  1  0
 16 17  1  0
 16 18  1  0
 18 19  2  0
 19 20  1  0
M  END
