
     RDKit          3D

 21 22  0  0  0  0  0  0  0  0999 V2000
   -0.0320   -2.0600    0.6180 O   0  0  0  0  0  0  0  0  0  0  0  0
    0.0290   -0.8790    0.2360 C   0  0  0  0  0  0  0  0  0  0  0  0
   -1.1740   -0.1340   -0.0250 N   0  0  0  0  0  0  0  0  0  0  0  0
   -2.4320   -0.7680    0.1600 C   0  0  0  0  0  0  0  0  0  0  0  0
   -3.6430    0.0150   -0.1140 C   0  0  0  0  0  0  0  0  0  0  0  0
   -3.6100    1.2480   -0.5130 C   0  0  0  0  0  0  0  0  0  0  0  0
   -4.8220    2.0420   -0.7910 C   0  0  0  0  0  0  0  0  0  0  0  0
   -5.9840    1.3360   -0.5800 O   0  0  0  0  0  0  0  0  0  0  0  0
   -6.0380    0.0380   -0.1600 C   0  0  0  0  0  0  0  0  0  0  0  0
   -4.9620   -0.6680    0.0870 C   0  0  0  0  0  0  0  0  0  0  0  0
   -4.9670   -1.9770    0.5110 O   0  0  0  0  0  0  0  0  0  0  0  0
    1.3090   -0.2830    0.0630 N   0  0  0  0  0  0  0  0  0  0  0  0
    2.4940   -1.0500    0.3310 C   0  0  0  0  0  0  0  0  0  0  0  0
    3.7650   -0.3540    0.1260 C   0  0  0  0  0  0  0  0  0  0  0  0
    3.8960    0.9280   -0.2880 C   0  0  0  0  0  0  0  0  0  0  0  0
    5.1180    1.5820   -0.4800 C   0  0  0  0  0  0  0  0  0  0  0  0
    5.1970    3.2410   -1.0170 Cl  0  0  0  0  0  0  0  0  0  0  0  0
    6.2590    0.8570   -0.2260 C   0  0  0  0  0  0  0  0  0  0  0  0
    6.1760   -0.4650    0.2010 C   0  0  0  0  0  0  0  0  0  0  0  0
    4.9580   -1.0560    0.3730 C   0  0  0  0  0  0  0  0  0  0  0  0
    4.8520   -2.7150    0.9100 Cl  0  0  0  0  0  0  0  0  0  0  0  0
  1  2  2  0
  2  3  1  0
  2 12  1  0
  3  4  1  0
  4  5  1  0
  5  6  2  0
  5 10  1  0
  6  7  1  0
  7  8  1  0
  8  9  1  0
  9 10  2  0
 10 11  1  0
 12 13  1  0
 13 14  1  0
 14 15  2  0
 14 20  1  0
 15 16  1  0
 16 17  1  0
 16 18  2  0
 18 19  1  0
 19 20  2  0
 20 21  1  0
M  END
