
     RDKit          3D

 43 46  0  0  0  0  0  0  0  0999 V2000
    8.8320    1.2360   -0.0980 C   0  0  0  0  0  0  0  0  0  0  0  0
    7.5210    0.9250   -0.5390 O   0  0  0  0  0  0  0  0  0  0  0  0
    6.6080    0.3390    0.3320 C   0  0  0  0  0  0  0  0  0  0  0  0
    6.9390    0.0380    1.6470 C   0  0  0  0  0  0  0  0  0  0  0  0
    6.0230   -0.5420    2.4920 C   0  0  0  0  0  0  0  0  0  0  0  0
    4.7430   -0.8240    1.9960 C   0  0  0  0  0  0  0  0  0  0  0  0
    4.3650   -0.5490    0.7140 C   0  0  0  0  0  0  0  0  0  0  0  0
    3.0360   -0.7860    0.1050 C   0  0  0  0  0  0  0  0  0  0  0  0
    2.2240    0.3740    0.1150 C   0  0  2  0  0  0  0  0  0  0  0  0
    1.7810    1.0220    1.3630 C   0  0  0  0  0  0  0  0  0  0  0  0
    1.4490    0.4920    2.4460 N   0  0  0  0  0  0  0  0  0  0  0  0
    1.3470   -0.8330    2.9190 C   0  0  0  0  0  0  0  0  0  0  0  0
    0.6760   -1.7930    2.5250 N   0  0  0  0  0  0  0  0  0  0  0  0
   -0.2480   -2.2400    1.5840 C   0  0  0  0  0  0  0  0  0  0  0  0
   -0.2610   -3.5560    1.5200 O   0  0  0  0  0  0  0  0  0  0  0  0
   -1.0240   -1.4680    0.8410 O   0  0  0  0  0  0  0  0  0  0  0  0
   -2.0400   -0.5910    0.7380 C   0  0  0  0  0  0  0  0  0  0  0  0
   -3.1820   -0.9210   -0.2300 C   0  0  1  0  0  0  0  0  0  0  0  0
   -4.1540   -1.6470    0.3790 O   0  0  0  0  0  0  0  0  0  0  0  0
   -4.7500   -1.4110    1.5150 C   0  0  0  0  0  0  0  0  0  0  0  0
   -5.5140   -0.1800    1.8180 C   0  0  0  0  0  0  0  0  0  0  0  0
   -4.8710    1.0170    1.7860 O   0  0  0  0  0  0  0  0  0  0  0  0
   -5.6090    2.0410    2.0640 O   0  0  0  0  0  0  0  0  0  0  0  0
   -6.8630    1.6800    2.2220 O   0  0  0  0  0  0  0  0  0  0  0  0
   -3.8040    0.3680   -0.4640 O   0  0  0  0  0  0  0  0  0  0  0  0
   -4.9080    0.4630   -1.3050 C   0  0  0  0  0  0  0  0  0  0  0  0
   -5.3420   -0.5810   -1.8370 O   0  0  0  0  0  0  0  0  0  0  0  0
   -5.4750    1.6950   -1.5180 O   0  0  0  0  0  0  0  0  0  0  0  0
   -2.7650   -1.5150   -1.5200 C   0  0  0  0  0  0  0  0  0  0  0  0
   -2.5080   -2.7780   -1.4600 O   0  0  0  0  0  0  0  0  0  0  0  0
   -2.6030   -0.9310   -2.8030 N   0  0  0  0  0  0  0  0  0  0  0  0
   -3.1880   -1.5310   -3.9870 C   0  0  0  0  0  0  0  0  0  0  0  0
   -1.8250    0.2770   -3.0210 C   0  0  0  0  0  0  0  0  0  0  0  0
   -2.1980    0.9480   -4.0490 O   0  0  0  0  0  0  0  0  0  0  0  0
   -0.6920    0.7460   -2.1590 C   0  0  0  0  0  0  0  0  0  0  0  0
    0.2650    0.0490   -1.6020 C   0  0  0  0  0  0  0  0  0  0  0  0
    1.0890    0.7440   -0.6580 N   0  0  0  0  0  0  0  0  0  0  0  0
    0.9270    2.1300   -0.3130 C   0  0  0  0  0  0  0  0  0  0  0  0
    1.7660    2.3800    0.7200 N   0  0  0  0  0  0  0  0  0  0  0  0
   -0.0910    2.9030   -0.9280 N   0  0  0  0  0  0  0  0  0  0  0  0
   -0.9140    2.2120   -1.8610 C   0  0  0  0  0  0  0  0  0  0  0  0
   -1.8150    2.8860   -2.4100 O   0  0  0  0  0  0  0  0  0  0  0  0
    5.3400    0.0430   -0.1090 C   0  0  0  0  0  0  0  0  0  0  0  0
  1  2  1  0
  2  3  1  0
  3  4  2  0
  3 43  1  0
  4  5  1  0
  5  6  2  0
  6  7  1  0
  7  8  1  0
  7 43  2  0
  9  8  1  1
  9 10  1  0
  9 37  1  0
 10 11  2  0
 10 39  1  0
 11 12  1  0
 12 13  2  0
 13 14  1  0
 14 15  2  0
 14 16  1  0
 16 17  1  0
 17 18  1  0
 18 19  1  1
 18 25  1  0
 18 29  1  0
 19 20  1  0
 20 21  1  0
 21 22  1  0
 22 23  1  0
 23 24  1  0
 25 26  1  0
 26 27  2  0
 26 28  1  0
 29 30  2  0
 29 31  1  0
 31 32  1  0
 31 33  1  0
 33 34  2  0
 33 35  1  0
 35 36  2  0
 35 41  1  0
 36 37  1  0
 37 38  1  0
 38 39  2  0
 38 40  1  0
 40 41  1  0
 41 42  2  0
M  END
