
     RDKit          3D

 43 45  0  0  0  0  0  0  0  0999 V2000
    1.1020    1.8700   -1.7590 C   0  0  0  0  0  0  0  0  0  0  0  0
    0.8560    1.8220   -0.2850 C   0  0  1  0  0  0  0  0  0  0  0  0
    2.0850    2.2490    0.5320 C   0  0  0  0  0  0  0  0  0  0  0  0
    3.3830    2.0900   -0.1650 C   0  0  0  0  0  0  0  0  0  0  0  0
    3.8930    0.7070   -0.1430 N   0  0  0  0  0  0  0  0  0  0  0  0
    5.2760    0.6320    0.0720 C   0  0  0  0  0  0  0  0  0  0  0  0
    5.7410    0.5410    1.4900 C   0  0  0  0  0  0  0  0  0  0  0  0
    7.2590    0.4740    1.4590 C   0  0  0  0  0  0  0  0  0  0  0  0
    7.7840    1.6270    0.8460 O   0  0  0  0  0  0  0  0  0  0  0  0
    9.0810    1.5720    0.8180 O   0  0  0  0  0  0  0  0  0  0  0  0
    3.0910   -0.4790   -0.3200 C   0  0  0  0  0  0  0  0  0  0  0  0
    3.7440   -1.5310   -0.3420 O   0  0  0  0  0  0  0  0  0  0  0  0
    1.6330   -0.6000   -0.4760 N   0  0  0  0  0  0  0  0  0  0  0  0
    1.3980   -1.7770   -1.2650 C   0  0  0  0  0  0  0  0  0  0  0  0
    1.0600   -3.0440   -0.5510 C   0  0  2  0  0  0  0  0  0  0  0  0
    1.4600   -4.1630   -1.3470 N   0  0  0  0  0  0  0  0  0  0  0  0
    2.3930   -5.1060   -0.8280 C   0  0  0  0  0  0  0  0  0  0  0  0
    2.8530   -4.9260    0.3470 O   0  0  0  0  0  0  0  0  0  0  0  0
    2.7860   -6.1920   -1.5920 O   0  0  0  0  0  0  0  0  0  0  0  0
   -0.4450   -3.0710   -0.2560 C   0  0  0  0  0  0  0  0  0  0  0  0
   -0.7240   -3.0970    1.2260 C   0  0  0  0  0  0  0  0  0  0  0  0
   -2.1460   -2.6830    1.4600 C   0  0  0  0  0  0  0  0  0  0  0  0
   -2.7900   -2.3110    0.2840 O   0  0  0  0  0  0  0  0  0  0  0  0
   -4.1360   -2.6300    0.4120 C   0  0  0  0  0  0  0  0  0  0  0  0
   -4.9570   -1.4040    0.0170 C   0  0  0  0  0  0  0  0  0  0  0  0
   -5.3720   -0.7070    1.2020 N   0  0  0  0  0  0  0  0  0  0  0  0
   -5.7470    0.6800    1.1970 C   0  0  0  0  0  0  0  0  0  0  0  0
   -6.6460    1.0440    2.0150 O   0  0  0  0  0  0  0  0  0  0  0  0
   -5.1480    1.6540    0.3120 C   0  0  0  0  0  0  0  0  0  0  0  0
   -3.9340    1.4660   -0.1320 O   0  0  0  0  0  0  0  0  0  0  0  0
   -3.5810    2.4370   -0.9030 N   0  0  0  0  0  0  0  0  0  0  0  0
   -4.6100    3.3220   -0.9810 C   0  0  0  0  0  0  0  0  0  0  0  0
   -4.5450    4.3620   -1.6610 O   0  0  0  0  0  0  0  0  0  0  0  0
   -5.6480    2.8570   -0.2100 C   0  0  0  0  0  0  0  0  0  0  0  0
   -6.9330    3.3660    0.0660 N   0  0  0  0  0  0  0  0  0  0  0  0
   -7.4190    4.5630   -0.4480 C   0  0  0  0  0  0  0  0  0  0  0  0
   -6.7530    5.2900   -1.1990 O   0  0  0  0  0  0  0  0  0  0  0  0
   -2.2360    2.3850   -1.4900 C   0  0  0  0  0  0  0  0  0  0  0  0
   -1.2940    3.0630   -0.5630 C   0  0  0  0  0  0  0  0  0  0  0  0
   -1.4980    4.3210   -0.4350 O   0  0  0  0  0  0  0  0  0  0  0  0
   -0.2870    2.4860    0.1250 O   0  0  0  0  0  0  0  0  0  0  0  0
    0.7460    0.3420    0.0740 C   0  0  0  0  0  0  0  0  0  0  0  0
   -0.2010    0.1820    0.8780 O   0  0  0  0  0  0  0  0  0  0  0  0
  2  1  1  6
  2  3  1  0
  2 41  1  0
  2 42  1  0
  3  4  1  0
  4  5  1  0
  5  6  1  0
  5 11  1  0
  6  7  1  0
  7  8  1  0
  8  9  1  0
  9 10  1  0
 11 12  2  0
 11 13  1  0
 13 14  1  0
 13 42  1  0
 14 15  1  0
 15 16  1  6
 15 20  1  0
 16 17  1  0
 17 18  2  0
 17 19  1  0
 20 21  1  0
 21 22  1  0
 22 23  1  0
 23 24  1  0
 24 25  1  0
 25 26  1  0
 26 27  1  0
 27 28  2  0
 27 29  1  0
 29 30  1  0
 29 34  2  0
 30 31  1  0
 31 32  1  0
 31 38  1  0
 32 33  2  0
 32 34  1  0
 34 35  1  0
 35 36  1  0
 36 37  2  0
 38 39  1  0
 39 40  2  0
 39 41  1  0
 42 43  2  0
M  END
