
     RDKit          3D

 43 45  0  0  0  0  0  0  0  0999 V2000
    4.6370    3.3830    0.5160 C   0  0  0  0  0  0  0  0  0  0  0  0
    3.9590    2.1460   -0.0320 C   0  0  2  0  0  0  0  0  0  0  0  0
    3.7780    2.3310   -1.5180 C   0  0  0  0  0  0  0  0  0  0  0  0
    2.7350    1.9090    0.6320 O   0  0  0  0  0  0  0  0  0  0  0  0
    1.8980    0.8510    0.3440 C   0  0  0  0  0  0  0  0  0  0  0  0
    2.2090    0.0540   -0.5340 O   0  0  0  0  0  0  0  0  0  0  0  0
    0.6350    0.7130    1.1140 C   0  0  2  0  0  0  0  0  0  0  0  0
    1.0250    0.6270    2.5580 C   0  0  0  0  0  0  0  0  0  0  0  0
    1.2750   -0.7890    3.0530 C   0  0  0  0  0  0  0  0  0  0  0  0
    0.0550   -1.4820    2.8510 N   0  0  0  0  0  0  0  0  0  0  0  0
   -0.7980   -1.1420    1.7510 C   0  0  0  0  0  0  0  0  0  0  0  0
   -0.2940   -0.3460    0.6110 C   0  0  2  0  0  0  0  0  0  0  0  0
    0.3070   -1.2110   -0.4590 C   0  0  0  0  0  0  0  0  0  0  0  0
    0.0270   -0.9080   -1.6440 O   0  0  0  0  0  0  0  0  0  0  0  0
    1.1420   -2.3080   -0.2260 N   0  0  0  0  0  0  0  0  0  0  0  0
    1.6940   -3.1100   -1.2610 C   0  0  0  0  0  0  0  0  0  0  0  0
    0.7440   -3.8550   -2.1330 C   0  0  0  0  0  0  0  0  0  0  0  0
   -0.1520   -3.1120   -2.8420 O   0  0  0  0  0  0  0  0  0  0  0  0
   -1.5240    0.2560   -0.0380 C   0  0  0  0  0  0  0  0  0  0  0  0
   -1.1520    1.5130   -0.6860 N   0  0  0  0  0  0  0  0  0  0  0  0
   -1.5950    1.8810   -1.8080 C   0  0  0  0  0  0  0  0  0  0  0  0
   -2.4750    1.1060   -2.5090 O   0  0  0  0  0  0  0  0  0  0  0  0
   -1.1270    3.1890   -2.3460 C   0  0  0  0  0  0  0  0  0  0  0  0
   -2.2300    4.0920   -2.5610 N   0  0  0  0  0  0  0  0  0  0  0  0
   -2.0640    5.3980   -3.0650 C   0  0  0  0  0  0  0  0  0  0  0  0
   -0.8870    5.7800   -3.3360 O   0  0  0  0  0  0  0  0  0  0  0  0
   -3.1240    6.2730   -3.2740 O   0  0  0  0  0  0  0  0  0  0  0  0
   -2.6820   -0.1150   -0.0970 N   0  0  0  0  0  0  0  0  0  0  0  0
   -3.5280   -1.1490    0.3090 C   0  0  0  0  0  0  0  0  0  0  0  0
   -4.4560   -1.7340   -0.5770 C   0  0  0  0  0  0  0  0  0  0  0  0
   -5.2680   -2.7780   -0.1700 C   0  0  0  0  0  0  0  0  0  0  0  0
   -5.1510   -3.2440    1.1320 C   0  0  0  0  0  0  0  0  0  0  0  0
   -4.2400   -2.6570    1.9740 C   0  0  0  0  0  0  0  0  0  0  0  0
   -3.5220   -1.6810    1.5050 N   0  0  0  0  0  0  0  0  0  0  0  0
   -4.0320   -3.1600    3.3540 C   0  0  0  0  0  0  0  0  0  0  0  0
   -4.9660   -3.8250    3.8320 O   0  0  0  0  0  0  0  0  0  0  0  0
   -2.8230   -2.8590    4.0160 O   0  0  0  0  0  0  0  0  0  0  0  0
   -1.5900   -3.1950    3.5840 O   0  0  0  0  0  0  0  0  0  0  0  0
   -0.3980   -2.5150    3.7190 C   0  0  0  0  0  0  0  0  0  0  0  0
    0.4270   -2.7720    4.6770 O   0  0  0  0  0  0  0  0  0  0  0  0
    4.8970    1.0130    0.1610 C   0  0  0  0  0  0  0  0  0  0  0  0
    4.5250    0.0330    0.8460 O   0  0  0  0  0  0  0  0  0  0  0  0
    6.1600    1.0000   -0.3870 O   0  0  0  0  0  0  0  0  0  0  0  0
  2  1  1  1
  2  3  1  0
  2  4  1  0
  2 41  1  0
  4  5  1  0
  5  6  2  0
  7  5  1  6
  7  8  1  0
  7 12  1  0
  8  9  1  0
  9 10  1  0
 10 11  1  0
 10 39  1  0
 11 12  1  0
 12 13  1  6
 12 19  1  0
 13 14  2  0
 13 15  1  0
 15 16  1  0
 16 17  1  0
 17 18  1  0
 19 20  1  0
 19 28  2  0
 20 21  2  3
 21 22  1  0
 21 23  1  0
 23 24  1  0
 24 25  1  0
 25 26  2  0
 25 27  1  0
 28 29  1  0
 29 30  2  0
 29 34  1  0
 30 31  1  0
 31 32  2  0
 32 33  1  0
 33 34  2  0
 33 35  1  0
 35 36  2  0
 35 37  1  0
 37 38  1  0
 38 39  1  0
 39 40  2  0
 41 42  2  0
 41 43  1  0
M  END
