
     RDKit          3D

 43 46  0  0  0  0  0  0  0  0999 V2000
    2.2120    7.6400   -0.3560 C   0  0  0  0  0  0  0  0  0  0  0  0
    0.8310    7.6420    0.2410 C   0  0  0  0  0  0  0  0  0  0  0  0
    0.5200    6.3230    0.6400 O   0  0  0  0  0  0  0  0  0  0  0  0
    0.4700    5.2410   -0.2170 C   0  0  0  0  0  0  0  0  0  0  0  0
    0.7220    5.4440   -1.4440 O   0  0  0  0  0  0  0  0  0  0  0  0
    0.1620    3.9570    0.1880 O   0  0  0  0  0  0  0  0  0  0  0  0
    0.1070    2.8440   -0.6830 C   0  0  0  0  0  0  0  0  0  0  0  0
   -0.2820    1.6430    0.1750 C   0  0  1  0  0  0  0  0  0  0  0  0
    0.6640    1.5920    1.3220 C   0  0  0  0  0  0  0  0  0  0  0  0
    2.1120    1.4460    0.9620 C   0  0  0  0  0  0  0  0  0  0  0  0
    2.3130    0.2830    0.2660 O   0  0  0  0  0  0  0  0  0  0  0  0
    3.6250    0.0540   -0.1320 C   0  0  0  0  0  0  0  0  0  0  0  0
    4.6000   -0.0370    1.0080 C   0  0  0  0  0  0  0  0  0  0  0  0
    5.8980   -0.2680    0.5440 O   0  0  0  0  0  0  0  0  0  0  0  0
    6.2800   -1.4150   -0.1490 C   0  0  0  0  0  0  0  0  0  0  0  0
    5.3930   -2.2780   -0.3450 O   0  0  0  0  0  0  0  0  0  0  0  0
    7.6040   -1.5940   -0.6060 N   0  0  0  0  0  0  0  0  0  0  0  0
    8.0720   -2.7390   -1.3090 C   0  0  0  0  0  0  0  0  0  0  0  0
    8.0110   -4.0190   -0.5220 C   0  0  0  0  0  0  0  0  0  0  0  0
    6.7420   -4.3460   -0.1360 O   0  0  0  0  0  0  0  0  0  0  0  0
   -1.6610    1.9450    0.6980 C   0  0  0  0  0  0  0  0  0  0  0  0
   -2.4860    0.7390    0.3260 N   0  0  0  0  0  0  0  0  0  0  0  0
   -3.6180    0.3390    1.0220 C   0  0  0  0  0  0  0  0  0  0  0  0
   -3.8990    1.1960    2.0030 O   0  0  0  0  0  0  0  0  0  0  0  0
   -4.5180   -0.6980    0.9690 N   0  0  0  0  0  0  0  0  0  0  0  0
   -5.6450   -0.6520    1.9490 C   0  0  0  0  0  0  0  0  0  0  0  0
   -5.4610   -1.8010    2.9210 C   0  0  0  0  0  0  0  0  0  0  0  0
   -5.0700   -2.9610    2.2240 O   0  0  0  0  0  0  0  0  0  0  0  0
   -5.4520   -2.8700    0.9110 C   0  0  0  0  0  0  0  0  0  0  0  0
   -4.5410   -1.8420    0.1370 C   0  0  1  0  0  0  0  0  0  0  0  0
   -5.2780   -1.6640   -1.1530 C   0  0  0  0  0  0  0  0  0  0  0  0
   -5.8460   -2.9110   -1.6310 O   0  0  0  0  0  0  0  0  0  0  0  0
   -5.0980   -3.9490   -2.2300 C   0  0  0  0  0  0  0  0  0  0  0  0
   -5.5000   -4.9070   -3.0890 C   0  0  0  0  0  0  0  0  0  0  0  0
   -4.4430   -5.6540   -3.3730 O   0  0  0  0  0  0  0  0  0  0  0  0
   -3.3860   -5.2210   -2.7380 N   0  0  0  0  0  0  0  0  0  0  0  0
   -3.7390   -4.1520   -2.0040 C   0  0  0  0  0  0  0  0  0  0  0  0
   -2.8920   -3.3670   -1.1530 N   0  0  0  0  0  0  0  0  0  0  0  0
   -3.2680   -2.5390   -0.0630 C   0  0  0  0  0  0  0  0  0  0  0  0
   -2.3630   -2.4080    0.8360 O   0  0  0  0  0  0  0  0  0  0  0  0
   -1.8140    0.2700   -0.8230 C   0  0  0  0  0  0  0  0  0  0  0  0
   -2.3020   -0.2110   -1.8650 O   0  0  0  0  0  0  0  0  0  0  0  0
   -0.3860    0.4440   -0.6030 N   0  0  0  0  0  0  0  0  0  0  0  0
  1  2  1  0
  2  3  1  0
  3  4  1  0
  4  5  2  0
  4  6  1  0
  6  7  1  0
  8  7  1  6
  8  9  1  0
  8 21  1  0
  8 43  1  0
  9 10  1  0
 10 11  1  0
 11 12  1  0
 12 13  1  0
 13 14  1  0
 14 15  1  0
 15 16  2  0
 15 17  1  0
 17 18  1  0
 18 19  1  0
 19 20  1  0
 21 22  1  0
 22 23  1  0
 22 41  1  0
 23 24  2  0
 23 25  1  0
 25 26  1  0
 25 30  1  0
 26 27  1  0
 27 28  1  0
 28 29  1  0
 30 29  1  1
 30 31  1  0
 30 39  1  0
 31 32  1  0
 32 33  1  0
 33 34  2  0
 33 37  1  0
 34 35  1  0
 35 36  1  0
 36 37  2  0
 37 38  1  0
 38 39  1  0
 39 40  2  0
 41 42  2  0
 41 43  1  0
M  END
