
     RDKit          3D

 43 45  0  0  0  0  0  0  0  0999 V2000
    5.3810    2.6590    3.5170 C   0  0  0  0  0  0  0  0  0  0  0  0
    6.1040    1.7930    2.5130 C   0  0  0  0  0  0  0  0  0  0  0  0
    5.2310    1.5840    1.3660 N   0  0  0  0  0  0  0  0  0  0  0  0
    5.2110    2.4570    0.2220 C   0  0  0  0  0  0  0  0  0  0  0  0
    4.1180    1.9300   -0.6740 C   0  0  0  0  0  0  0  0  0  0  0  0
    3.6950    0.6710   -0.1230 N   0  0  0  0  0  0  0  0  0  0  0  0
    2.8810   -0.2280   -0.7250 O   0  0  0  0  0  0  0  0  0  0  0  0
    1.4750   -0.2900   -0.5140 C   0  0  0  0  0  0  0  0  0  0  0  0
    1.0990    0.5890    0.2930 O   0  0  0  0  0  0  0  0  0  0  0  0
    0.6840   -1.2510   -1.1730 N   0  0  0  0  0  0  0  0  0  0  0  0
    1.3680   -2.1410   -2.0400 C   0  0  0  0  0  0  0  0  0  0  0  0
    0.6730   -3.4860   -2.0520 C   0  0  0  0  0  0  0  0  0  0  0  0
   -0.7160   -3.2890   -2.4620 N   0  0  0  0  0  0  0  0  0  0  0  0
   -1.2890   -1.9750   -2.1920 C   0  0  0  0  0  0  0  0  0  0  0  0
   -2.1450   -1.5560   -2.9730 O   0  0  0  0  0  0  0  0  0  0  0  0
   -0.7280   -1.3540   -0.9940 C   0  0  1  0  0  0  0  0  0  0  0  0
   -1.0310   -2.2930    0.1750 C   0  0  0  0  0  0  0  0  0  0  0  0
   -0.0740   -2.4230    0.9740 O   0  0  0  0  0  0  0  0  0  0  0  0
   -2.2600   -2.9440    0.3310 N   0  0  0  0  0  0  0  0  0  0  0  0
   -2.6110   -3.8040    1.3730 C   0  0  0  0  0  0  0  0  0  0  0  0
   -1.8480   -3.9550    2.4960 C   0  0  0  0  0  0  0  0  0  0  0  0
   -2.2020   -4.8350    3.5300 C   0  0  0  0  0  0  0  0  0  0  0  0
   -3.3640   -5.5600    3.3840 C   0  0  0  0  0  0  0  0  0  0  0  0
   -4.1660   -5.4460    2.2780 C   0  0  0  0  0  0  0  0  0  0  0  0
   -3.7820   -4.5750    1.2930 C   0  0  0  0  0  0  0  0  0  0  0  0
   -1.3740   -0.0740   -0.5500 C   0  0  2  0  0  0  0  0  0  0  0  0
   -2.8320   -0.2830   -0.3930 C   0  0  0  0  0  0  0  0  0  0  0  0
   -3.3730   -0.3650    0.7660 O   0  0  0  0  0  0  0  0  0  0  0  0
   -3.7330   -0.4040   -1.4370 O   0  0  0  0  0  0  0  0  0  0  0  0
   -5.1170   -0.6010   -1.2460 C   0  0  0  0  0  0  0  0  0  0  0  0
   -1.0550    1.0850   -1.3750 C   0  0  0  0  0  0  0  0  0  0  0  0
   -0.3440    0.9660   -2.3910 O   0  0  0  0  0  0  0  0  0  0  0  0
   -1.5380    2.3300   -1.0410 O   0  0  0  0  0  0  0  0  0  0  0  0
   -1.3110    3.4840   -1.7310 C   0  0  0  0  0  0  0  0  0  0  0  0
   -0.5890    3.4070   -2.7770 O   0  0  0  0  0  0  0  0  0  0  0  0
   -1.8330    4.7910   -1.3590 C   0  0  0  0  0  0  0  0  0  0  0  0
   -2.5450    4.8790   -0.3310 O   0  0  0  0  0  0  0  0  0  0  0  0
   -1.5690    5.9540   -2.1080 N   0  0  0  0  0  0  0  0  0  0  0  0
   -2.0860    7.2410   -1.7360 C   0  0  0  0  0  0  0  0  0  0  0  0
   -2.8010    7.3690   -0.7130 O   0  0  0  0  0  0  0  0  0  0  0  0
   -1.8010    8.3680   -2.5070 O   0  0  0  0  0  0  0  0  0  0  0  0
    4.2800    0.5410    1.1560 C   0  0  0  0  0  0  0  0  0  0  0  0
    4.0560   -0.3350    2.0480 O   0  0  0  0  0  0  0  0  0  0  0  0
  1  2  1  0
  2  3  1  0
  3  4  1  0
  3 42  1  0
  4  5  1  0
  5  6  1  0
  6  7  1  0
  6 42  1  0
  7  8  1  0
  8  9  2  0
  8 10  1  0
 10 11  1  0
 10 16  1  0
 11 12  1  0
 12 13  1  0
 13 14  1  0
 14 15  2  0
 14 16  1  0
 16 17  1  1
 16 26  1  0
 17 18  2  0
 17 19  1  0
 19 20  1  0
 20 21  2  0
 20 25  1  0
 21 22  1  0
 22 23  2  0
 23 24  1  0
 24 25  2  0
 26 27  1  6
 26 31  1  0
 27 28  2  0
 27 29  1  0
 29 30  1  0
 31 32  2  0
 31 33  1  0
 33 34  1  0
 34 35  2  0
 34 36  1  0
 36 37  2  0
 36 38  1  0
 38 39  1  0
 39 40  2  0
 39 41  1  0
 42 43  2  0
M  END
