
     RDKit          3D

 44 48  0  0  0  0  0  0  0  0999 V2000
   11.2490   -0.7530    0.6000 N   0  0  0  0  0  0  0  0  0  0  0  0
   10.1590   -0.2590   -0.1490 C   0  0  0  0  0  0  0  0  0  0  0  0
   10.3200   -0.0250   -1.3680 O   0  0  0  0  0  0  0  0  0  0  0  0
    8.8610   -0.0160    0.4630 C   0  0  0  0  0  0  0  0  0  0  0  0
    8.6390   -0.2610    1.8140 C   0  0  0  0  0  0  0  0  0  0  0  0
    7.4330   -0.0400    2.4020 C   0  0  0  0  0  0  0  0  0  0  0  0
    6.4020    0.4380    1.6470 C   0  0  0  0  0  0  0  0  0  0  0  0
    6.6080    0.6820    0.3230 N   0  0  0  0  0  0  0  0  0  0  0  0
    5.5090    1.1850   -0.4550 C   0  0  2  0  0  0  0  0  0  0  0  0
    4.3710    1.3140    0.2840 O   0  0  0  0  0  0  0  0  0  0  0  0
    3.3060    0.7800   -0.3840 C   0  0  2  0  0  0  0  0  0  0  0  0
    2.8560   -0.5510    0.1610 C   0  0  0  0  0  0  0  0  0  0  0  0
    2.4670   -0.4540    1.4970 O   0  0  0  0  0  0  0  0  0  0  0  0
    1.9710   -1.9500    2.0750 P   0  0  1  0  0  0  0  0  0  0  0  0
    3.0660   -2.9840    1.9690 O   0  0  0  0  0  0  0  0  0  0  0  0
    1.5260   -1.7990    3.7000 O   0  0  0  0  0  0  0  0  0  0  0  0
    0.6340   -2.5410    1.2110 O   0  0  0  0  0  0  0  0  0  0  0  0
   -0.7920   -1.9100    1.8110 P   0  0  1  0  0  0  0  0  0  0  0  0
   -1.6650   -3.0190    2.3500 O   0  0  0  0  0  0  0  0  0  0  0  0
   -0.4260   -0.8590    3.0830 O   0  0  0  0  0  0  0  0  0  0  0  0
   -1.6670   -1.1030    0.6190 O   0  0  0  0  0  0  0  0  0  0  0  0
   -2.9970   -1.5550    0.5660 C   0  0  0  0  0  0  0  0  0  0  0  0
   -3.6650   -0.7420   -0.5500 C   0  0  1  0  0  0  0  0  0  0  0  0
   -4.9830   -1.0880   -0.7090 O   0  0  0  0  0  0  0  0  0  0  0  0
   -5.7270    0.0540   -0.8700 C   0  0  1  0  0  0  0  0  0  0  0  0
   -7.1130   -0.1860   -0.5480 N   0  0  0  0  0  0  0  0  0  0  0  0
   -7.6330   -1.0270    0.3580 C   0  0  0  0  0  0  0  0  0  0  0  0
   -8.9930   -0.9370    0.3340 N   0  0  0  0  0  0  0  0  0  0  0  0
   -9.3420   -0.0400   -0.5860 C   0  0  0  0  0  0  0  0  0  0  0  0
  -10.5740    0.4150   -0.9990 C   0  0  0  0  0  0  0  0  0  0  0  0
  -11.7980   -0.0490   -0.4510 N   0  0  0  0  0  0  0  0  0  0  0  0
  -10.6030    1.3440   -1.9690 N   0  0  0  0  0  0  0  0  0  0  0  0
   -9.4500    1.8160   -2.5210 C   0  0  0  0  0  0  0  0  0  0  0  0
   -8.2580    1.3560   -2.1020 N   0  0  0  0  0  0  0  0  0  0  0  0
   -8.1580    0.4260   -1.1340 C   0  0  0  0  0  0  0  0  0  0  0  0
   -5.0800    0.9990    0.1390 C   0  0  2  0  0  0  0  0  0  0  0  0
   -5.3950    2.3150   -0.0890 O   0  0  0  0  0  0  0  0  0  0  0  0
   -3.6020    0.6980   -0.1270 C   0  0  2  0  0  0  0  0  0  0  0  0
   -3.2280    1.5200   -1.1980 O   0  0  0  0  0  0  0  0  0  0  0  0
    3.7160    0.5580   -1.8260 C   0  0  1  0  0  0  0  0  0  0  0  0
    3.5150    1.7020   -2.5960 O   0  0  0  0  0  0  0  0  0  0  0  0
    5.2170    0.3020   -1.6400 C   0  0  1  0  0  0  0  0  0  0  0  0
    5.9290    0.6440   -2.7700 O   0  0  0  0  0  0  0  0  0  0  0  0
    7.7930    0.4650   -0.2570 C   0  0  0  0  0  0  0  0  0  0  0  0
  1  2  1  0
  2  3  2  0
  2  4  1  0
  4  5  2  0
  4 44  1  0
  5  6  1  0
  6  7  2  0
  7  8  1  0
  9  8  1  1
  8 44  2  0
  9 10  1  0
  9 42  1  0
 10 11  1  0
 11 12  1  1
 11 40  1  0
 12 13  1  0
 13 14  1  0
 14 15  2  0
 14 16  1  1
 14 17  1  0
 17 18  1  0
 18 19  2  0
 18 20  1  1
 18 21  1  0
 21 22  1  0
 23 22  1  1
 23 24  1  0
 23 38  1  0
 24 25  1  0
 25 26  1  1
 25 36  1  0
 26 27  1  0
 26 35  1  0
 27 28  2  0
 28 29  1  0
 29 30  2  0
 29 35  1  0
 30 31  1  0
 30 32  1  0
 32 33  2  0
 33 34  1  0
 34 35  2  0
 36 37  1  6
 36 38  1  0
 38 39  1  6
 40 41  1  6
 40 42  1  0
 42 43  1  6
M  CHG  2   8   1  16  -1
M  END
