
     RDKit          3D

 43 47  0  0  0  0  0  0  0  0999 V2000
   -5.9710    2.6320   -1.0290 O   0  0  0  0  0  0  0  0  0  0  0  0
   -6.2420    1.9420   -0.0460 C   0  0  0  0  0  0  0  0  0  0  0  0
   -6.1720    0.4610    0.0380 C   0  0  0  0  0  0  0  0  0  0  0  0
   -5.7150   -0.0350   -1.3230 C   0  0  1  0  0  0  0  0  0  0  0  0
   -4.4970    0.3740   -1.7760 O   0  0  0  0  0  0  0  0  0  0  0  0
   -3.2270    0.5400   -1.4090 C   0  0  0  0  0  0  0  0  0  0  0  0
   -2.6910    1.7550   -1.0210 C   0  0  0  0  0  0  0  0  0  0  0  0
   -1.3810    1.8640   -0.6460 C   0  0  0  0  0  0  0  0  0  0  0  0
   -0.5320    0.7480   -0.6440 C   0  0  0  0  0  0  0  0  0  0  0  0
    0.7530    0.9530   -0.2270 N   0  0  0  0  0  0  0  0  0  0  0  0
    1.5700   -0.1560    0.3930 C   0  0  0  0  0  0  0  0  0  0  0  0
    1.0150   -1.2160    0.4730 O   0  0  0  0  0  0  0  0  0  0  0  0
    2.7950    0.3930    0.7180 N   0  0  0  0  0  0  0  0  0  0  0  0
    3.3860   -0.9930    1.6030 C   0  0  0  0  0  0  0  0  0  0  0  0
    2.5910   -1.8280    1.7340 O   0  0  0  0  0  0  0  0  0  0  0  0
    4.7380   -0.8180    1.9970 C   0  0  0  0  0  0  0  0  0  0  0  0
    5.2910   -1.1820    3.2220 C   0  0  0  0  0  0  0  0  0  0  0  0
    6.5880   -0.8420    3.2590 N   0  0  0  0  0  0  0  0  0  0  0  0
    6.8840   -0.2720    2.1000 N   0  0  0  0  0  0  0  0  0  0  0  0
    7.8880    0.2950    1.3840 C   0  0  0  0  0  0  0  0  0  0  0  0
    7.3810    0.6710    0.1540 C   0  0  0  0  0  0  0  0  0  0  0  0
    8.1380    1.3250   -0.9480 C   0  0  2  0  0  0  0  0  0  0  0  0
    8.9980    0.2510   -1.5670 C   0  0  0  0  0  0  0  0  0  0  0  0
   10.1480    0.3420   -0.8080 O   0  0  0  0  0  0  0  0  0  0  0  0
   10.2440    1.6530   -0.3720 C   0  0  0  0  0  0  0  0  0  0  0  0
    9.0330    2.2610   -0.5090 O   0  0  0  0  0  0  0  0  0  0  0  0
    6.1160    0.3280    0.1650 O   0  0  0  0  0  0  0  0  0  0  0  0
    5.8070   -0.2360    1.3110 C   0  0  0  0  0  0  0  0  0  0  0  0
   -1.0700   -0.4440   -1.0330 C   0  0  0  0  0  0  0  0  0  0  0  0
   -2.3970   -0.5660   -1.4140 C   0  0  0  0  0  0  0  0  0  0  0  0
   -2.8170   -1.9360   -1.8420 C   0  0  0  0  0  0  0  0  0  0  0  0
   -3.3740   -2.6770   -0.8420 O   0  0  0  0  0  0  0  0  0  0  0  0
   -3.3100   -2.0990    0.4050 C   0  0  0  0  0  0  0  0  0  0  0  0
   -4.0810   -2.9780    1.3420 C   0  0  0  0  0  0  0  0  0  0  0  0
   -5.4010   -3.1550    1.1520 O   0  0  0  0  0  0  0  0  0  0  0  0
   -6.4990   -2.6060    0.6320 C   0  0  0  0  0  0  0  0  0  0  0  0
   -7.4410   -2.3170    1.4820 O   0  0  0  0  0  0  0  0  0  0  0  0
   -6.8380   -2.2750   -0.7030 N   0  0  0  0  0  0  0  0  0  0  0  0
   -6.1910   -1.3980   -1.5930 C   0  0  0  0  0  0  0  0  0  0  0  0
   -5.9990   -1.8370   -2.7870 O   0  0  0  0  0  0  0  0  0  0  0  0
   -6.6800    2.5860    1.1800 N   0  0  0  0  0  0  0  0  0  0  0  0
   -6.8020    3.9110    1.2970 O   0  0  0  0  0  0  0  0  0  0  0  0
   -5.9790    4.5620    0.5030 O   0  0  0  0  0  0  0  0  0  0  0  0
  1  2  2  0
  2  3  1  0
  2 41  1  0
  4  3  1  1
  4  5  1  0
  4 39  1  0
  5  6  1  0
  6  7  2  0
  6 30  1  0
  7  8  1  0
  8  9  2  0
  9 10  1  0
  9 29  1  0
 10 11  1  0
 11 12  2  0
 11 13  1  0
 13 14  1  0
 14 15  2  0
 14 16  1  0
 16 17  1  0
 16 28  2  0
 17 18  2  0
 18 19  1  0
 19 20  1  0
 19 28  1  0
 20 21  2  0
 22 21  1  1
 21 27  1  0
 22 23  1  0
 22 26  1  0
 23 24  1  0
 24 25  1  0
 25 26  1  0
 27 28  1  0
 29 30  2  0
 30 31  1  0
 31 32  1  0
 32 33  1  0
 33 34  1  0
 34 35  1  0
 35 36  1  0
 36 37  2  0
 36 38  1  0
 38 39  1  0
 39 40  2  0
 41 42  1  0
 42 43  1  0
M  END
