
     RDKit          3D

 43 46  0  0  0  0  0  0  0  0999 V2000
   -8.3000    5.2320   -1.0920 C   0  0  0  0  0  0  0  0  0  0  0  0
   -7.3080    4.1910   -0.7480 C   0  0  0  0  0  0  0  0  0  0  0  0
   -7.8600    2.9930   -0.1820 O   0  0  0  0  0  0  0  0  0  0  0  0
   -6.9830    2.0180    0.2720 C   0  0  0  0  0  0  0  0  0  0  0  0
   -5.7540    2.2270    0.1130 O   0  0  0  0  0  0  0  0  0  0  0  0
   -7.3120    0.8030    0.9460 O   0  0  0  0  0  0  0  0  0  0  0  0
   -6.3160    0.0130    1.3940 C   0  0  0  0  0  0  0  0  0  0  0  0
   -5.4220   -0.9540    0.8990 C   0  0  0  0  0  0  0  0  0  0  0  0
   -5.6010   -2.2190    0.7320 O   0  0  0  0  0  0  0  0  0  0  0  0
   -4.4670   -2.8170    0.3090 C   0  0  0  0  0  0  0  0  0  0  0  0
   -4.2840   -4.0780    0.0470 N   0  0  0  0  0  0  0  0  0  0  0  0
   -3.5320   -1.8830    0.2020 N   0  0  0  0  0  0  0  0  0  0  0  0
   -2.2050   -1.8710   -0.1840 C   0  0  0  0  0  0  0  0  0  0  0  0
   -1.5820   -2.9550   -0.4630 C   0  0  0  0  0  0  0  0  0  0  0  0
   -1.6360   -4.3410   -0.5370 C   0  0  0  0  0  0  0  0  0  0  0  0
   -1.8690   -5.2260   -1.5400 C   0  0  0  0  0  0  0  0  0  0  0  0
   -1.7670   -6.5240   -1.0690 N   0  0  0  0  0  0  0  0  0  0  0  0
   -1.4620   -6.3840    0.2540 C   0  0  0  0  0  0  0  0  0  0  0  0
   -1.3920   -5.1150    0.5540 O   0  0  0  0  0  0  0  0  0  0  0  0
   -1.5030   -0.6800   -0.2010 C   0  0  0  0  0  0  0  0  0  0  0  0
   -0.1590   -0.6540   -0.0870 C   0  0  0  0  0  0  0  0  0  0  0  0
    0.6600    0.5280   -0.1360 C   0  0  0  0  0  0  0  0  0  0  0  0
    1.8820    0.6860    0.2120 C   0  0  0  0  0  0  0  0  0  0  0  0
    2.8300   -0.2610    0.7720 N   0  0  0  0  0  0  0  0  0  0  0  0
    3.9120    0.4130    1.1100 C   0  0  0  0  0  0  0  0  0  0  0  0
    4.9860   -0.3070    1.6970 N   0  0  0  0  0  0  0  0  0  0  0  0
    5.8940   -1.1400    1.0140 C   0  0  2  0  0  0  0  0  0  0  0  0
    6.9780   -0.2510    0.3670 C   0  0  0  0  0  0  0  0  0  0  0  0
    6.3640    0.5580   -0.5660 O   0  0  0  0  0  0  0  0  0  0  0  0
    7.0930    1.4770   -1.2350 C   0  0  0  0  0  0  0  0  0  0  0  0
    7.4590    2.5940   -0.3660 C   0  0  0  0  0  0  0  0  0  0  0  0
    8.1980    2.2310    0.7130 O   0  0  0  0  0  0  0  0  0  0  0  0
    8.4500    3.3040    1.4750 O   0  0  0  0  0  0  0  0  0  0  0  0
    5.3610   -1.9900   -0.0710 C   0  0  0  0  0  0  0  0  0  0  0  0
    4.1490   -2.2210   -0.1930 O   0  0  0  0  0  0  0  0  0  0  0  0
    6.2440   -2.5490   -1.0040 O   0  0  0  0  0  0  0  0  0  0  0  0
    3.7810    1.7280    0.8230 O   0  0  0  0  0  0  0  0  0  0  0  0
    2.5620    1.9770    0.2550 C   0  0  0  0  0  0  0  0  0  0  0  0
    2.1600    3.1060   -0.1410 O   0  0  0  0  0  0  0  0  0  0  0  0
   -2.1320    0.5250    0.1540 C   0  0  0  0  0  0  0  0  0  0  0  0
   -1.7240    1.6660    0.1920 N   0  0  0  0  0  0  0  0  0  0  0  0
   -3.4210    0.3630    0.5120 O   0  0  0  0  0  0  0  0  0  0  0  0
   -4.0600   -0.7030    0.5420 C   0  0  0  0  0  0  0  0  0  0  0  0
  1  2  1  0
  2  3  1  0
  3  4  1  0
  4  5  2  0
  4  6  1  0
  6  7  1  0
  7  8  1  0
  8  9  1  0
  8 43  2  0
  9 10  1  0
 10 11  2  0
 10 12  1  0
 12 13  1  0
 12 43  1  0
 13 14  2  3
 13 20  1  0
 14 15  1  0
 15 16  2  0
 15 19  1  0
 16 17  1  0
 17 18  2  0
 18 19  1  0
 20 21  2  3
 20 40  1  0
 21 22  1  0
 22 23  2  3
 23 24  1  0
 23 38  1  0
 24 25  2  0
 25 26  1  0
 25 37  1  0
 26 27  1  0
 27 28  1  6
 27 34  1  0
 28 29  1  0
 29 30  1  0
 30 31  1  0
 31 32  1  0
 32 33  1  0
 34 35  2  0
 34 36  1  0
 37 38  1  0
 38 39  2  0
 40 41  2  0
 40 42  1  0
 42 43  1  0
M  END
