
     RDKit          3D

 43 47  0  0  0  0  0  0  0  0999 V2000
   -0.9150   -1.9970    3.3080 O   0  0  0  0  0  0  0  0  0  0  0  0
   -0.9060   -2.2110    2.0290 C   0  0  0  0  0  0  0  0  0  0  0  0
   -0.9410   -1.0040    1.2920 N   0  0  0  0  0  0  0  0  0  0  0  0
   -1.4030   -0.9390   -0.0690 C   0  0  0  0  0  0  0  0  0  0  0  0
   -1.1610    0.3220   -0.7990 C   0  0  1  0  0  0  0  0  0  0  0  0
   -2.4300    0.5900   -1.5890 C   0  0  0  0  0  0  0  0  0  0  0  0
   -3.5020    0.5990   -0.6430 O   0  0  0  0  0  0  0  0  0  0  0  0
   -4.8110    0.8180   -1.0380 C   0  0  0  0  0  0  0  0  0  0  0  0
   -5.0360    1.0100   -2.2570 O   0  0  0  0  0  0  0  0  0  0  0  0
   -5.9430    0.8330   -0.0810 C   0  0  2  0  0  0  0  0  0  0  0  0
   -6.4970    2.2320   -0.0490 C   0  0  0  0  0  0  0  0  0  0  0  0
   -6.9270    2.3640    1.2500 O   0  0  0  0  0  0  0  0  0  0  0  0
   -6.5550    1.2360    1.9540 C   0  0  0  0  0  0  0  0  0  0  0  0
   -5.5470    0.6090    1.2170 O   0  0  0  0  0  0  0  0  0  0  0  0
   -0.9180    1.5470    0.0540 C   0  0  0  0  0  0  0  0  0  0  0  0
   -0.8520    2.6980   -0.7070 O   0  0  0  0  0  0  0  0  0  0  0  0
    0.0150    2.6770   -1.7530 C   0  0  0  0  0  0  0  0  0  0  0  0
    0.0420    1.4290   -2.5870 C   0  0  0  0  0  0  0  0  0  0  0  0
    0.0160    0.2870   -1.6860 N   0  0  0  0  0  0  0  0  0  0  0  0
    0.9970   -0.7250   -1.6800 C   0  0  0  0  0  0  0  0  0  0  0  0
    1.1880   -1.2160   -2.8560 O   0  0  0  0  0  0  0  0  0  0  0  0
    1.7750   -1.2480   -0.5610 C   0  0  2  0  0  0  0  0  0  0  0  0
    2.4210   -0.2070    0.2760 C   0  0  0  0  0  0  0  0  0  0  0  0
    2.9420    0.9220   -0.3000 C   0  0  0  0  0  0  0  0  0  0  0  0
    3.5570    1.9160    0.4640 C   0  0  0  0  0  0  0  0  0  0  0  0
    3.6410    1.7570    1.8280 C   0  0  0  0  0  0  0  0  0  0  0  0
    4.2520    2.7350    2.6310 O   0  0  0  0  0  0  0  0  0  0  0  0
    4.7670    3.8400    2.1050 O   0  0  0  0  0  0  0  0  0  0  0  0
    5.8870    4.2160    2.7200 O   0  0  0  0  0  0  0  0  0  0  0  0
    6.9140    4.2090    1.8920 O   0  0  0  0  0  0  0  0  0  0  0  0
    3.1220    0.6310    2.4050 C   0  0  0  0  0  0  0  0  0  0  0  0
    2.5060   -0.3610    1.6280 C   0  0  0  0  0  0  0  0  0  0  0  0
    2.8040   -2.1860   -1.0630 N   0  0  0  0  0  0  0  0  0  0  0  0
    3.4890   -2.0210   -2.2010 C   0  0  0  0  0  0  0  0  0  0  0  0
    4.3730   -3.0740   -2.3380 C   0  0  0  0  0  0  0  0  0  0  0  0
    4.1760   -3.8200   -1.2730 N   0  0  0  0  0  0  0  0  0  0  0  0
    3.1890   -3.2910   -0.4400 C   0  0  0  0  0  0  0  0  0  0  0  0
    2.7200   -3.8160    0.8030 N   0  0  0  0  0  0  0  0  0  0  0  0
    1.5830   -4.5050    1.2450 C   0  0  0  0  0  0  0  0  0  0  0  0
    1.8610   -5.5910    2.0250 O   0  0  0  0  0  0  0  0  0  0  0  0
    0.1600   -4.3610    1.0830 C   0  0  0  0  0  0  0  0  0  0  0  0
   -0.3470   -5.1930    0.1940 O   0  0  0  0  0  0  0  0  0  0  0  0
   -0.8670   -3.5570    1.6320 N   0  0  0  0  0  0  0  0  0  0  0  0
  1  2  2  0
  2  3  1  0
  2 43  1  0
  3  4  1  0
  4  5  1  0
  5  6  1  6
  5 15  1  0
  5 19  1  0
  6  7  1  0
  7  8  1  0
  8  9  2  0
 10  8  1  6
 10 11  1  0
 10 14  1  0
 11 12  1  0
 12 13  1  0
 13 14  1  0
 15 16  1  0
 16 17  1  0
 17 18  1  0
 18 19  1  0
 19 20  1  0
 20 21  2  0
 20 22  1  0
 22 23  1  6
 22 33  1  0
 23 24  2  0
 23 32  1  0
 24 25  1  0
 25 26  2  0
 26 27  1  0
 26 31  1  0
 27 28  1  0
 28 29  1  0
 29 30  1  0
 31 32  2  0
 33 34  1  0
 33 37  1  0
 34 35  2  0
 35 36  1  0
 36 37  2  0
 37 38  1  0
 38 39  1  0
 39 40  2  0
 39 41  1  0
 41 42  2  0
 41 43  1  0
M  END
