
     RDKit          3D

 24 26  0  0  0  0  0  0  0  0999 V2000
    6.0120    1.6240   -0.8870 C   0  0  0  0  0  0  0  0  0  0  0  0
    5.3040    0.4210   -0.3240 C   0  0  0  0  0  0  0  0  0  0  0  0
    3.8880    0.5670   -0.4950 N   0  0  0  0  0  0  0  0  0  0  0  0
    2.9880   -0.4280   -0.0510 C   0  0  0  0  0  0  0  0  0  0  0  0
    3.4920   -1.5580    0.5580 C   0  0  0  0  0  0  0  0  0  0  0  0
    2.6540   -2.5540    1.0070 C   0  0  0  0  0  0  0  0  0  0  0  0
    1.3020   -2.3590    0.8150 C   0  0  0  0  0  0  0  0  0  0  0  0
    0.8040   -1.2260    0.2050 C   0  0  0  0  0  0  0  0  0  0  0  0
   -0.6520   -1.1480    0.0460 C   0  0  0  0  0  0  0  0  0  0  0  0
   -1.7970   -2.4020    0.5160 S   0  0  0  0  0  0  0  0  0  0  0  0
   -3.2740   -1.5580   -0.0150 C   0  0  0  0  0  0  0  0  0  0  0  0
   -4.5640   -1.9090    0.0220 N   0  0  0  0  0  0  0  0  0  0  0  0
   -5.5400   -1.0870   -0.4520 C   0  0  0  0  0  0  0  0  0  0  0  0
   -6.9570   -1.4720   -0.4100 C   0  0  0  0  0  0  0  0  0  0  0  0
   -5.1010    0.1110   -0.9630 C   0  0  0  0  0  0  0  0  0  0  0  0
   -3.7960    0.4720   -1.0050 C   0  0  0  0  0  0  0  0  0  0  0  0
   -2.7740   -0.3740   -0.5150 C   0  0  0  0  0  0  0  0  0  0  0  0
   -1.4390   -0.1930   -0.4700 C   0  0  0  0  0  0  0  0  0  0  0  0
   -0.8210    1.0490   -0.9440 N   0  0  0  0  0  0  0  0  0  0  0  0
   -0.6600    2.4010    0.0970 S   0  0  1  0  0  0  0  0  0  0  0  0
    0.3290    2.1080    1.5090 C   0  0  0  0  0  0  0  0  0  0  0  0
   -0.1960    3.6230   -0.6410 O   0  0  0  0  0  0  0  0  0  0  0  0
   -2.0640    2.7350    0.5840 O   0  0  0  0  0  0  0  0  0  0  0  0
    1.6410   -0.2970   -0.2100 N   0  0  0  0  0  0  0  0  0  0  0  0
  1  2  1  0
  2  3  1  0
  3  4  1  0
  4  5  2  0
  4 24  1  0
  5  6  1  0
  6  7  2  0
  7  8  1  0
  8  9  1  0
  8 24  2  0
  9 10  1  0
  9 18  2  0
 10 11  1  0
 11 12  2  0
 11 17  1  0
 12 13  1  0
 13 14  1  0
 13 15  2  0
 15 16  1  0
 16 17  2  0
 17 18  1  0
 18 19  1  0
 19 20  1  0
 20 21  1  1
 20 22  2  0
 20 23  2  0
M  END
