
     RDKit          3D

 24 26  0  0  0  0  0  0  0  0999 V2000
   -8.7670   -1.4800    0.7950 C   0  0  0  0  0  0  0  0  0  0  0  0
   -7.3620   -1.4990    0.8560 O   0  0  0  0  0  0  0  0  0  0  0  0
   -6.6220   -0.5080    0.1950 C   0  0  0  0  0  0  0  0  0  0  0  0
   -5.2590   -0.5580    0.2760 C   0  0  0  0  0  0  0  0  0  0  0  0
   -4.5190    0.4010   -0.3620 C   0  0  0  0  0  0  0  0  0  0  0  0
   -3.0490    0.4020   -0.3130 C   0  0  0  0  0  0  0  0  0  0  0  0
   -2.1400    1.2580   -0.8750 C   0  0  0  0  0  0  0  0  0  0  0  0
   -0.8430    1.0240   -0.6690 C   0  0  0  0  0  0  0  0  0  0  0  0
   -0.4530   -0.0440    0.0840 C   0  0  0  0  0  0  0  0  0  0  0  0
    0.8280   -0.5430    0.4740 C   0  0  0  0  0  0  0  0  0  0  0  0
    1.9150    0.0730    0.0840 C   0  0  0  0  0  0  0  0  0  0  0  0
    3.2510   -0.3830    0.4450 C   0  0  0  0  0  0  0  0  0  0  0  0
    3.3780   -1.4110    1.1610 O   0  0  0  0  0  0  0  0  0  0  0  0
    4.4270    0.2830    0.0250 N   0  0  0  0  0  0  0  0  0  0  0  0
    5.7210   -0.2430    0.4330 C   0  0  0  0  0  0  0  0  0  0  0  0
    6.9460    0.3460    0.0670 C   0  0  0  0  0  0  0  0  0  0  0  0
    8.0590   -0.2110    0.4910 C   0  0  0  0  0  0  0  0  0  0  0  0
    9.4950    0.2340    0.2320 C   0  0  0  0  0  0  0  0  0  0  0  0
    7.9260   -1.3650    1.2850 N   0  0  0  0  0  0  0  0  0  0  0  0
    6.0930   -1.5820    1.3730 S   0  0  0  0  0  0  0  0  0  0  0  0
   -2.0490   -0.7510    0.5190 S   0  0  0  0  0  0  0  0  0  0  0  0
   -5.1010    1.3700   -1.0530 N   0  0  0  0  0  0  0  0  0  0  0  0
   -6.4450    1.3970   -1.1180 C   0  0  0  0  0  0  0  0  0  0  0  0
   -7.2070    0.4760   -0.5060 N   0  0  0  0  0  0  0  0  0  0  0  0
  1  2  1  0
  2  3  1  0
  3  4  2  0
  3 24  1  0
  4  5  1  0
  5  6  1  0
  5 22  2  0
  6  7  2  0
  6 21  1  0
  7  8  1  0
  8  9  2  0
  9 10  1  0
  9 21  1  0
 10 11  2  3
 11 12  1  0
 12 13  2  0
 12 14  1  0
 14 15  1  0
 15 16  2  0
 15 20  1  0
 16 17  1  0
 17 18  1  0
 17 19  2  0
 19 20  1  0
 22 23  1  0
 23 24  2  0
M  END
