
     RDKit          3D

 24 26  0  0  0  0  0  0  0  0999 V2000
   -5.5850    2.0670    0.8060 C   0  0  0  0  0  0  0  0  0  0  0  0
   -6.3170    0.8370    0.6400 N   0  0  0  0  0  0  0  0  0  0  0  0
   -5.5130   -0.3160    0.9840 C   0  0  2  0  0  0  0  0  0  0  0  0
   -5.1560   -0.1960    2.4500 C   0  0  0  0  0  0  0  0  0  0  0  0
   -4.3120   -0.2920    0.1030 C   0  0  0  0  0  0  0  0  0  0  0  0
   -4.0080   -0.1380   -0.9890 N   0  0  0  0  0  0  0  0  0  0  0  0
   -2.8080   -0.1650   -1.5610 C   0  0  0  0  0  0  0  0  0  0  0  0
   -2.5800    0.0620   -3.0230 C   0  0  0  0  0  0  0  0  0  0  0  0
   -1.8000   -0.4140   -0.7160 C   0  0  0  0  0  0  0  0  0  0  0  0
   -0.3420   -0.5530   -0.8300 C   0  0  0  0  0  0  0  0  0  0  0  0
    0.4850   -0.4950   -1.8460 C   0  0  0  0  0  0  0  0  0  0  0  0
    1.8160   -0.6660   -1.6600 C   0  0  0  0  0  0  0  0  0  0  0  0
    2.2510   -0.8960   -0.3950 C   0  0  0  0  0  0  0  0  0  0  0  0
    3.5470   -1.1170    0.2010 C   0  0  0  0  0  0  0  0  0  0  0  0
    3.6240   -1.2930    1.4430 O   0  0  0  0  0  0  0  0  0  0  0  0
    4.7520   -1.1490   -0.5380 N   0  0  0  0  0  0  0  0  0  0  0  0
    6.0570   -1.3650    0.0430 C   0  0  0  0  0  0  0  0  0  0  0  0
    6.5430   -0.1490    0.7150 C   0  0  0  0  0  0  0  0  0  0  0  0
    7.2750    0.8580    0.1500 C   0  0  0  0  0  0  0  0  0  0  0  0
    7.5270    1.7870    1.0680 O   0  0  0  0  0  0  0  0  0  0  0  0
    6.9660    1.3740    2.1850 C   0  0  0  0  0  0  0  0  0  0  0  0
    6.3490    0.1770    1.9950 N   0  0  0  0  0  0  0  0  0  0  0  0
    0.6940   -0.8620    0.5330 S   0  0  0  0  0  0  0  0  0  0  0  0
   -2.6560   -0.6020    0.9100 S   0  0  0  0  0  0  0  0  0  0  0  0
  1  2  1  0
  2  3  1  0
  3  4  1  1
  3  5  1  0
  5  6  2  0
  5 24  1  0
  6  7  1  0
  7  8  1  0
  7  9  2  0
  9 10  1  0
  9 24  1  0
 10 11  2  0
 10 23  1  0
 11 12  1  0
 12 13  2  0
 13 14  1  0
 13 23  1  0
 14 15  2  0
 14 16  1  0
 16 17  1  0
 17 18  1  0
 18 19  2  0
 18 22  1  0
 19 20  1  0
 20 21  1  0
 21 22  2  0
M  END
