
     RDKit          3D

 24 26  0  0  0  0  0  0  0  0999 V2000
    1.8970   -0.3110    2.4010 C   0  0  0  0  0  0  0  0  0  0  0  0
    0.9740    0.3940    1.3790 C   0  0  0  0  0  0  0  0  0  0  0  0
    1.6090    0.3600    0.0190 C   0  0  0  0  0  0  0  0  0  0  0  0
    2.8610    0.5360   -0.1300 N   0  0  0  0  0  0  0  0  0  0  0  0
    3.4590    0.3450   -1.3140 C   0  0  0  0  0  0  0  0  0  0  0  0
    4.9450    0.4570   -1.6180 C   0  0  0  0  0  0  0  0  0  0  0  0
    5.8290    0.4490   -0.5890 C   0  0  0  0  0  0  0  0  0  0  0  0
    7.0960    0.5420   -1.1530 C   0  0  0  0  0  0  0  0  0  0  0  0
    8.3900    0.5050   -0.4190 C   0  0  0  0  0  0  0  0  0  0  0  0
    6.8860    0.6110   -2.4670 N   0  0  0  0  0  0  0  0  0  0  0  0
    5.5630    0.5560   -2.7090 O   0  0  0  0  0  0  0  0  0  0  0  0
    2.1170   -0.1270   -2.3210 S   0  0  0  0  0  0  0  0  0  0  0  0
    0.8720   -0.0510   -1.1460 C   0  0  0  0  0  0  0  0  0  0  0  0
   -0.4910   -0.5450   -1.0670 C   0  0  0  0  0  0  0  0  0  0  0  0
   -0.9080   -1.4570   -1.8680 O   0  0  0  0  0  0  0  0  0  0  0  0
   -1.4110   -0.0840   -0.1190 N   0  0  0  0  0  0  0  0  0  0  0  0
   -2.6800   -0.7390    0.0590 C   0  0  0  0  0  0  0  0  0  0  0  0
   -2.5950   -2.2020    0.3560 C   0  0  0  0  0  0  0  0  0  0  0  0
   -4.2320   -2.7130    0.5660 S   0  0  0  0  0  0  0  0  0  0  0  0
   -5.0150   -1.0760    0.2670 C   0  0  0  0  0  0  0  0  0  0  0  0
   -6.4260   -0.7460    0.2420 C   0  0  0  0  0  0  0  0  0  0  0  0
   -6.6120    0.6240    0.7060 N   0  0  0  0  0  0  0  0  0  0  0  0
   -7.4320    1.2980   -0.2310 C   0  0  0  0  0  0  0  0  0  0  0  0
   -3.9040   -0.2810    0.0340 C   0  0  0  0  0  0  0  0  0  0  0  0
  1  2  1  0
  2  3  1  0
  3  4  1  0
  3 13  2  0
  4  5  2  0
  5  6  1  0
  5 12  1  0
  6  7  2  0
  6 11  1  0
  7  8  1  0
  8  9  1  0
  8 10  2  0
 10 11  1  0
 12 13  1  0
 13 14  1  0
 14 15  2  0
 14 16  1  0
 16 17  1  0
 17 18  2  0
 17 24  1  0
 18 19  1  0
 19 20  1  0
 20 21  1  0
 20 24  2  0
 21 22  1  0
 22 23  1  0
M  END
