
     RDKit          3D

 24 26  0  0  0  0  0  0  0  0999 V2000
   -2.6120    2.9450   -1.2450 C   0  0  0  0  0  0  0  0  0  0  0  0
   -2.7470    2.5610    0.1890 C   0  0  0  0  0  0  0  0  0  0  0  0
   -2.9720    1.0670    0.3250 C   0  0  0  0  0  0  0  0  0  0  0  0
   -1.8130    0.3730   -0.2610 C   0  0  0  0  0  0  0  0  0  0  0  0
   -0.8810    1.0280   -0.7820 O   0  0  0  0  0  0  0  0  0  0  0  0
   -1.7530   -1.0340   -0.2350 N   0  0  0  0  0  0  0  0  0  0  0  0
   -2.8160   -1.7900    0.3590 C   0  0  0  0  0  0  0  0  0  0  0  0
   -3.1740   -3.0520   -0.3410 C   0  0  0  0  0  0  0  0  0  0  0  0
   -2.1100   -3.6570   -1.1720 C   0  0  0  0  0  0  0  0  0  0  0  0
   -1.1660   -2.7040   -1.8240 C   0  0  0  0  0  0  0  0  0  0  0  0
   -0.6240   -1.7320   -0.8010 C   0  0  2  0  0  0  0  0  0  0  0  0
    0.1390   -2.5180    0.2470 C   0  0  0  0  0  0  0  0  0  0  0  0
    0.7620   -1.3790    1.5430 S   0  0  0  0  0  0  0  0  0  0  0  0
    1.9870   -0.3110    0.8210 C   0  0  0  0  0  0  0  0  0  0  0  0
    2.4270   -0.3110   -0.4450 N   0  0  0  0  0  0  0  0  0  0  0  0
    3.3540    0.6520   -0.5690 C   0  0  0  0  0  0  0  0  0  0  0  0
    4.1340    1.1100   -1.5950 C   0  0  0  0  0  0  0  0  0  0  0  0
    5.0040    2.1160   -1.4420 N   0  0  0  0  0  0  0  0  0  0  0  0
    5.1270    2.7030   -0.2490 C   0  0  0  0  0  0  0  0  0  0  0  0
    6.0240    3.7570   -0.0420 O   0  0  0  0  0  0  0  0  0  0  0  0
    4.3830    2.3120    0.8550 C   0  0  0  0  0  0  0  0  0  0  0  0
    4.5790    3.1250    2.4320 S   0  0  0  0  0  0  0  0  0  0  0  0
    3.4930    1.2740    0.6730 C   0  0  0  0  0  0  0  0  0  0  0  0
    2.6330    0.6480    1.4910 N   0  0  0  0  0  0  0  0  0  0  0  0
  1  2  1  0
  2  3  1  0
  3  4  1  0
  4  5  2  0
  4  6  1  0
  6  7  1  0
  6 11  1  0
  7  8  1  0
  8  9  1  0
  9 10  1  0
 10 11  1  0
 11 12  1  1
 12 13  1  0
 13 14  1  0
 14 15  2  0
 14 24  1  0
 15 16  1  0
 16 17  2  0
 16 23  1  0
 17 18  1  0
 18 19  2  0
 19 20  1  0
 19 21  1  0
 21 22  1  0
 21 23  2  0
 23 24  1  0
M  END
