
     RDKit          3D

 23 24  0  0  0  0  0  0  0  0999 V2000
    6.2810    0.7270    0.4110 C   0  0  0  0  0  0  0  0  0  0  0  0
    5.6880   -0.5620   -0.0910 C   0  0  0  0  0  0  0  0  0  0  0  0
    4.3050   -0.3900   -0.6030 C   0  0  0  0  0  0  0  0  0  0  0  0
    3.8400   -0.3400   -1.8470 N   0  0  0  0  0  0  0  0  0  0  0  0
    2.5090   -0.1720   -1.8380 N   0  0  0  0  0  0  0  0  0  0  0  0
    2.0440   -0.1040   -0.5890 C   0  0  0  0  0  0  0  0  0  0  0  0
    0.6800    0.0900   -0.1040 C   0  0  0  0  0  0  0  0  0  0  0  0
    0.5150    0.2620    1.2940 O   0  0  0  0  0  0  0  0  0  0  0  0
   -0.0510   -0.7700    2.0770 C   0  0  0  0  0  0  0  0  0  0  0  0
   -0.3650    0.1050   -0.8970 C   0  0  0  0  0  0  0  0  0  0  0  0
   -0.2360   -0.0680   -2.2500 O   0  0  0  0  0  0  0  0  0  0  0  0
   -1.6970    0.3110   -0.3570 C   0  0  0  0  0  0  0  0  0  0  0  0
   -1.9220    1.2260    0.5910 O   0  0  0  0  0  0  0  0  0  0  0  0
   -3.1830    1.2260    0.9130 C   0  0  0  0  0  0  0  0  0  0  0  0
   -3.7460    2.0870    1.8940 N   0  0  0  0  0  0  0  0  0  0  0  0
   -3.8340    0.2650    0.1440 C   0  0  0  0  0  0  0  0  0  0  0  0
   -5.2380   -0.0160    0.2270 C   0  0  0  0  0  0  0  0  0  0  0  0
   -5.8750   -1.0550   -0.6230 C   0  0  0  0  0  0  0  0  0  0  0  0
   -6.0100    0.5940    1.0200 O   0  0  0  0  0  0  0  0  0  0  0  0
   -2.8850   -0.3180   -0.6640 C   0  0  0  0  0  0  0  0  0  0  0  0
   -3.1140   -1.6960   -1.9410 Br  0  0  0  0  0  0  0  0  0  0  0  0
    3.1750   -0.2400    0.2080 C   0  0  0  0  0  0  0  0  0  0  0  0
    3.1980   -0.2110    2.0980 Br  0  0  0  0  0  0  0  0  0  0  0  0
  1  2  1  0
  2  3  1  0
  3  4  2  0
  3 22  1  0
  4  5  1  0
  5  6  1  0
  6  7  1  0
  6 22  2  0
  7  8  1  0
  7 10  2  3
  8  9  1  0
 10 11  1  0
 10 12  1  0
 12 13  1  0
 12 20  2  0
 13 14  1  0
 14 15  1  0
 14 16  2  0
 16 17  1  0
 16 20  1  0
 17 18  1  0
 17 19  2  0
 20 21  1  0
 22 23  1  0
M  END
