
     RDKit          3D

 23 24  0  0  0  0  0  0  0  0999 V2000
    7.3300    1.2740    1.6860 O   0  0  0  0  0  0  0  0  0  0  0  0
    6.4620    0.7330    0.9570 C   0  0  0  0  0  0  0  0  0  0  0  0
    6.6670   -0.5730    0.2690 C   0  0  0  0  0  0  0  0  0  0  0  0
    5.4930   -1.3580    0.4910 O   0  0  0  0  0  0  0  0  0  0  0  0
    4.2420   -0.8080    0.2780 C   0  0  0  0  0  0  0  0  0  0  0  0
    3.1440   -1.5720   -0.0580 C   0  0  0  0  0  0  0  0  0  0  0  0
    1.8900   -1.0120   -0.2700 C   0  0  0  0  0  0  0  0  0  0  0  0
    1.7360    0.3310   -0.1440 C   0  0  0  0  0  0  0  0  0  0  0  0
    0.5530    1.0600   -0.3430 N   0  0  0  0  0  0  0  0  0  0  0  0
   -0.6310    0.5960   -0.9760 C   0  0  0  0  0  0  0  0  0  0  0  0
   -0.6400   -0.5760   -1.4110 O   0  0  0  0  0  0  0  0  0  0  0  0
   -1.7500    1.4240   -1.1060 O   0  0  0  0  0  0  0  0  0  0  0  0
   -2.9260    0.9950   -1.7180 C   0  0  0  0  0  0  0  0  0  0  0  0
   -3.5490   -0.1360   -0.9820 C   0  0  0  0  0  0  0  0  0  0  0  0
   -3.8800    0.2390    0.3890 N   0  0  0  0  0  0  0  0  0  0  0  0
   -4.4990   -0.8300    1.0810 C   0  0  0  0  0  0  0  0  0  0  0  0
   -5.8960   -1.0410    0.7730 C   0  0  0  0  0  0  0  0  0  0  0  0
   -6.7260   -0.3150    0.0880 C   0  0  0  0  0  0  0  0  0  0  0  0
   -6.3830    1.3490   -0.7710 Br  0  0  0  0  0  0  0  0  0  0  0  0
   -8.5700   -0.9430   -0.1290 Br  0  0  0  0  0  0  0  0  0  0  0  0
    2.8610    1.1000    0.1990 C   0  0  0  0  0  0  0  0  0  0  0  0
    4.0890    0.5590    0.4080 C   0  0  0  0  0  0  0  0  0  0  0  0
    5.2110    1.3700    0.7540 N   0  0  0  0  0  0  0  0  0  0  0  0
  1  2  2  0
  2  3  1  0
  2 23  1  0
  3  4  1  0
  4  5  1  0
  5  6  2  0
  5 22  1  0
  6  7  1  0
  7  8  2  0
  8  9  1  0
  8 21  1  0
  9 10  1  0
 10 11  2  0
 10 12  1  0
 12 13  1  0
 13 14  1  0
 14 15  1  0
 15 16  1  0
 16 17  1  0
 17 18  2  3
 18 19  1  0
 18 20  1  0
 21 22  2  0
 22 23  1  0
M  END
