
     RDKit          3D

 23 24  0  0  0  0  0  0  0  0999 V2000
    2.8240    1.0760    1.4340 N   0  0  0  0  0  0  0  0  0  0  0  0
    4.0800    0.8970    0.7810 C   0  0  0  0  0  0  0  0  0  0  0  0
    5.1160    1.0260    1.4660 O   0  0  0  0  0  0  0  0  0  0  0  0
    4.1370    0.5790   -0.6170 C   0  0  0  0  0  0  0  0  0  0  0  0
    3.0360    0.4410   -1.3520 C   0  0  0  0  0  0  0  0  0  0  0  0
    1.7710    0.5930   -0.8200 O   0  0  0  0  0  0  0  0  0  0  0  0
    0.8550   -0.4480   -0.7580 C   0  0  0  0  0  0  0  0  0  0  0  0
   -0.4140   -0.2140   -0.2020 C   0  0  0  0  0  0  0  0  0  0  0  0
   -1.3620   -1.1970   -0.1110 C   0  0  0  0  0  0  0  0  0  0  0  0
   -2.5800   -0.9480    0.4300 O   0  0  0  0  0  0  0  0  0  0  0  0
   -2.9600    0.3010    0.9270 C   0  0  0  0  0  0  0  0  0  0  0  0
   -2.8270    0.6440    2.1940 C   0  0  0  0  0  0  0  0  0  0  0  0
   -2.1070   -0.4580    3.5900 Br  0  0  0  0  0  0  0  0  0  0  0  0
   -3.3400    2.0310    2.3140 C   0  0  0  0  0  0  0  0  0  0  0  0
   -3.7500    2.3690    0.9820 N   0  0  0  0  0  0  0  0  0  0  0  0
   -3.5350    1.3680    0.1600 C   0  0  0  0  0  0  0  0  0  0  0  0
   -3.8260    1.3480   -1.2660 C   0  0  0  0  0  0  0  0  0  0  0  0
   -4.3300    2.3600   -1.7980 O   0  0  0  0  0  0  0  0  0  0  0  0
   -3.4260   -0.2200   -2.2570 Br  0  0  0  0  0  0  0  0  0  0  0  0
   -1.0650   -2.4520   -0.5790 C   0  0  0  0  0  0  0  0  0  0  0  0
    0.1660   -2.7370   -1.1350 C   0  0  0  0  0  0  0  0  0  0  0  0
    1.1100   -1.7100   -1.2110 C   0  0  0  0  0  0  0  0  0  0  0  0
    2.4000   -1.9850   -1.7870 N   0  0  0  0  0  0  0  0  0  0  0  0
  1  2  1  0
  2  3  2  0
  2  4  1  0
  4  5  2  3
  5  6  1  0
  6  7  1  0
  7  8  2  0
  7 22  1  0
  8  9  1  0
  9 10  1  0
  9 20  2  0
 10 11  1  0
 11 12  2  0
 11 16  1  0
 12 13  1  0
 12 14  1  0
 14 15  1  0
 15 16  2  0
 16 17  1  0
 17 18  2  0
 17 19  1  0
 20 21  1  0
 21 22  2  0
 22 23  1  0
M  END
