
     RDKit          3D

 23 24  0  0  0  0  0  0  0  0999 V2000
    6.4010   -1.5530    0.9820 N   0  0  0  0  0  0  0  0  0  0  0  0
    5.9680   -1.3780   -0.3460 C   0  0  0  0  0  0  0  0  0  0  0  0
    6.7610   -1.5520   -1.3000 O   0  0  0  0  0  0  0  0  0  0  0  0
    4.5960   -0.9920   -0.6350 C   0  0  0  0  0  0  0  0  0  0  0  0
    4.0250   -0.7840   -1.8650 C   0  0  0  0  0  0  0  0  0  0  0  0
    2.6950   -0.4330   -1.6080 C   0  0  0  0  0  0  0  0  0  0  0  0
    1.4800   -0.0410   -3.0150 Br  0  0  0  0  0  0  0  0  0  0  0  0
    2.4800   -0.4330   -0.2750 C   0  0  0  0  0  0  0  0  0  0  0  0
    1.2750   -0.1380    0.4660 C   0  0  0  0  0  0  0  0  0  0  0  0
    1.3110   -0.1940    1.7570 O   0  0  0  0  0  0  0  0  0  0  0  0
    0.0200    0.2150   -0.0550 N   0  0  0  0  0  0  0  0  0  0  0  0
   -1.1640    0.5160    0.6710 C   0  0  0  0  0  0  0  0  0  0  0  0
   -1.1530    0.8870    1.9810 C   0  0  0  0  0  0  0  0  0  0  0  0
   -2.3520    1.1540    2.6720 C   0  0  0  0  0  0  0  0  0  0  0  0
   -3.5270    1.0320    1.9920 C   0  0  0  0  0  0  0  0  0  0  0  0
   -5.1800    1.3800    2.8750 Br  0  0  0  0  0  0  0  0  0  0  0  0
   -3.5760    0.6610    0.6700 C   0  0  0  0  0  0  0  0  0  0  0  0
   -4.8010    0.5450    0.0020 O   0  0  0  0  0  0  0  0  0  0  0  0
   -4.8090    0.1600   -1.3600 C   0  0  0  0  0  0  0  0  0  0  0  0
   -6.1820    0.0910   -1.8960 C   0  0  0  0  0  0  0  0  0  0  0  0
   -7.1200    0.3520   -1.1720 O   0  0  0  0  0  0  0  0  0  0  0  0
   -2.4040    0.4040    0.0120 C   0  0  0  0  0  0  0  0  0  0  0  0
    3.6510   -0.7750    0.2910 N   0  0  0  0  0  0  0  0  0  0  0  0
  1  2  1  0
  2  3  2  0
  2  4  1  0
  4  5  2  0
  4 23  1  0
  5  6  1  0
  6  7  1  0
  6  8  2  0
  8  9  1  0
  8 23  1  0
  9 10  2  0
  9 11  1  0
 11 12  1  0
 12 13  2  0
 12 22  1  0
 13 14  1  0
 14 15  2  0
 15 16  1  0
 15 17  1  0
 17 18  1  0
 17 22  2  0
 18 19  1  0
 19 20  1  0
 20 21  2  0
M  END
