
     RDKit          3D

 23 24  0  0  0  0  0  0  0  0999 V2000
    8.7780    0.6080   -1.1560 N   0  0  0  0  0  0  0  0  0  0  0  0
    7.3380    0.4860   -1.1760 C   0  0  0  0  0  0  0  0  0  0  0  0
    6.7950    0.3950   -2.2700 O   0  0  0  0  0  0  0  0  0  0  0  0
    6.6000    0.4750    0.0180 N   0  0  0  0  0  0  0  0  0  0  0  0
    5.2370    0.3700    0.2430 C   0  0  0  0  0  0  0  0  0  0  0  0
    4.2130    0.2530   -0.4950 C   0  0  0  0  0  0  0  0  0  0  0  0
    4.2160    0.1740   -2.3810 Br  0  0  0  0  0  0  0  0  0  0  0  0
    2.8810    0.1690    0.1620 C   0  0  0  0  0  0  0  0  0  0  0  0
    2.8140    0.2440    2.0580 Br  0  0  0  0  0  0  0  0  0  0  0  0
    1.7790    0.0480   -0.5260 C   0  0  0  0  0  0  0  0  0  0  0  0
    0.4960   -0.0280    0.2070 C   0  0  0  0  0  0  0  0  0  0  0  0
    0.5030    0.0250    1.4570 O   0  0  0  0  0  0  0  0  0  0  0  0
   -0.7230   -0.1590   -0.4750 N   0  0  0  0  0  0  0  0  0  0  0  0
   -2.0000   -0.2410    0.1110 C   0  0  0  0  0  0  0  0  0  0  0  0
   -2.3090   -0.2040    1.4400 C   0  0  0  0  0  0  0  0  0  0  0  0
   -3.5900   -0.2910    1.9560 C   0  0  0  0  0  0  0  0  0  0  0  0
   -4.6250   -0.4230    1.0580 C   0  0  0  0  0  0  0  0  0  0  0  0
   -4.3800   -0.4670   -0.2980 C   0  0  0  0  0  0  0  0  0  0  0  0
   -3.1050   -0.3780   -0.7470 C   0  0  0  0  0  0  0  0  0  0  0  0
   -5.4880   -0.6030   -1.1250 O   0  0  0  0  0  0  0  0  0  0  0  0
   -6.7080   -0.0470   -0.6710 C   0  0  0  0  0  0  0  0  0  0  0  0
   -7.0470   -0.4860    0.7390 C   0  0  0  0  0  0  0  0  0  0  0  0
   -5.9130   -0.5110    1.5630 O   0  0  0  0  0  0  0  0  0  0  0  0
  1  2  1  0
  2  3  2  0
  2  4  1  0
  4  5  1  0
  5  6  2  3
  6  7  1  0
  6  8  1  0
  8  9  1  0
  8 10  2  3
 10 11  1  0
 11 12  2  0
 11 13  1  0
 13 14  1  0
 14 15  2  0
 14 19  1  0
 15 16  1  0
 16 17  2  0
 17 18  1  0
 17 23  1  0
 18 19  2  0
 18 20  1  0
 20 21  1  0
 21 22  1  0
 22 23  1  0
M  END
