
     RDKit          3D

 23 24  0  0  0  0  0  0  0  0999 V2000
   -2.4000    2.0870    0.2620 N   0  0  0  0  0  0  0  0  0  0  0  0
   -1.0400    2.2650   -0.0530 C   0  0  0  0  0  0  0  0  0  0  0  0
   -0.6440    3.4720   -0.2400 O   0  0  0  0  0  0  0  0  0  0  0  0
   -0.0390    1.2260   -0.1900 C   0  0  0  0  0  0  0  0  0  0  0  0
    1.2730    1.5170   -0.5100 C   0  0  0  0  0  0  0  0  0  0  0  0
    1.7410    3.3430   -0.7710 Br  0  0  0  0  0  0  0  0  0  0  0  0
    2.2450    0.5410   -0.6460 C   0  0  0  0  0  0  0  0  0  0  0  0
    3.5840    0.8600   -0.9840 N   0  0  0  0  0  0  0  0  0  0  0  0
    4.5770   -0.1700   -1.0650 C   0  0  0  0  0  0  0  0  0  0  0  0
    4.8400   -0.8190    0.2430 C   0  0  0  0  0  0  0  0  0  0  0  0
    4.2330   -0.4160    1.2160 O   0  0  0  0  0  0  0  0  0  0  0  0
    1.8430   -0.7600   -0.4450 C   0  0  0  0  0  0  0  0  0  0  0  0
    0.5460   -1.0560   -0.1270 C   0  0  0  0  0  0  0  0  0  0  0  0
    0.1830   -2.2700    0.0580 O   0  0  0  0  0  0  0  0  0  0  0  0
   -0.3730   -0.0540   -0.0060 N   0  0  0  0  0  0  0  0  0  0  0  0
   -1.6850   -0.5080    0.3290 C   0  0  0  0  0  0  0  0  0  0  0  0
   -1.9290   -0.9010    1.6510 C   0  0  0  0  0  0  0  0  0  0  0  0
   -3.1830   -1.3650    2.0340 C   0  0  0  0  0  0  0  0  0  0  0  0
   -3.5330   -1.9090    3.8410 Br  0  0  0  0  0  0  0  0  0  0  0  0
   -4.1960   -1.4370    1.0980 C   0  0  0  0  0  0  0  0  0  0  0  0
   -3.9800   -1.0530   -0.2170 C   0  0  0  0  0  0  0  0  0  0  0  0
   -2.7250   -0.5970   -0.5660 C   0  0  0  0  0  0  0  0  0  0  0  0
   -2.5210   -0.2180   -1.8780 O   0  0  0  0  0  0  0  0  0  0  0  0
  1  2  1  0
  2  3  2  0
  2  4  1  0
  4  5  2  0
  4 15  1  0
  5  6  1  0
  5  7  1  0
  7  8  1  0
  7 12  2  0
  8  9  1  0
  9 10  1  0
 10 11  2  0
 12 13  1  0
 13 14  2  0
 13 15  1  0
 15 16  1  0
 16 17  2  0
 16 22  1  0
 17 18  1  0
 18 19  1  0
 18 20  2  0
 20 21  1  0
 21 22  2  0
 22 23  1  0
M  END
