
     RDKit          3D

 23 24  0  0  0  0  0  0  0  0999 V2000
   -6.9260    0.5470    1.2330 C   0  0  0  0  0  0  0  0  0  0  0  0
   -6.3600    0.2680   -0.0200 O   0  0  0  0  0  0  0  0  0  0  0  0
   -4.9980    0.0860   -0.1870 C   0  0  0  0  0  0  0  0  0  0  0  0
   -4.1560    1.1290   -0.4740 C   0  0  0  0  0  0  0  0  0  0  0  0
   -4.8740    2.8640   -0.6480 Br  0  0  0  0  0  0  0  0  0  0  0  0
   -2.7750    0.9200   -0.6400 C   0  0  0  0  0  0  0  0  0  0  0  0
   -2.2070   -0.3140   -0.5250 C   0  0  0  0  0  0  0  0  0  0  0  0
   -0.8250   -0.5530   -0.6970 N   0  0  0  0  0  0  0  0  0  0  0  0
    0.1830    0.3890   -0.9630 C   0  0  0  0  0  0  0  0  0  0  0  0
   -0.1020    1.5940   -1.0720 O   0  0  0  0  0  0  0  0  0  0  0  0
    1.6010   -0.0160   -1.1220 C   0  0  0  0  0  0  0  0  0  0  0  0
    1.8900   -1.2280   -1.0180 O   0  0  0  0  0  0  0  0  0  0  0  0
    2.6140    0.9230   -1.3840 N   0  0  0  0  0  0  0  0  0  0  0  0
    3.9340    0.4840   -1.5260 N   0  0  0  0  0  0  0  0  0  0  0  0
    4.8150    0.2480   -0.4310 C   0  0  0  0  0  0  0  0  0  0  0  0
    5.1730    1.0550    0.5390 C   0  0  0  0  0  0  0  0  0  0  0  0
    6.1110    0.3650    1.4500 C   0  0  0  0  0  0  0  0  0  0  0  0
    6.2380   -0.9840    0.8440 C   0  0  0  0  0  0  0  0  0  0  0  0
    5.4850   -1.0340   -0.2390 C   0  0  0  0  0  0  0  0  0  0  0  0
   -3.0810   -1.3590   -0.2320 C   0  0  0  0  0  0  0  0  0  0  0  0
   -2.6080   -2.6250   -0.0980 O   0  0  0  0  0  0  0  0  0  0  0  0
   -4.4480   -1.1620   -0.0660 C   0  0  0  0  0  0  0  0  0  0  0  0
   -5.5950   -2.6330    0.3340 Br  0  0  0  0  0  0  0  0  0  0  0  0
  1  2  1  0
  2  3  1  0
  3  4  2  0
  3 22  1  0
  4  5  1  0
  4  6  1  0
  6  7  2  0
  7  8  1  0
  7 20  1  0
  8  9  1  0
  9 10  2  0
  9 11  1  0
 11 12  2  0
 11 13  1  0
 13 14  1  0
 14 15  1  0
 15 16  2  0
 15 19  1  0
 16 17  1  0
 17 18  1  0
 18 19  2  0
 20 21  1  0
 20 22  2  0
 22 23  1  0
M  END
