
     RDKit          3D

 23 23  0  0  0  0  0  0  0  0999 V2000
   -5.1860    3.7530   -0.2410 C   0  0  0  0  0  0  0  0  0  0  0  0
   -4.9540    2.5060   -1.0330 C   0  0  0  0  0  0  0  0  0  0  0  0
   -3.9650    1.6790   -0.8560 C   0  0  0  0  0  0  0  0  0  0  0  0
   -4.2850    0.5950   -1.9840 C   0  0  0  0  0  0  0  0  0  0  0  0
   -3.9930   -0.5550   -2.2540 C   0  0  0  0  0  0  0  0  0  0  0  0
   -2.9570   -1.9360   -1.4830 Br  0  0  0  0  0  0  0  0  0  0  0  0
   -4.7820   -1.2140   -3.9880 Br  0  0  0  0  0  0  0  0  0  0  0  0
   -3.1780    1.1650    0.1510 C   0  0  0  0  0  0  0  0  0  0  0  0
   -1.9350    0.7110   -0.1290 C   0  0  0  0  0  0  0  0  0  0  0  0
   -1.3530    0.8100   -1.4780 C   0  0  0  0  0  0  0  0  0  0  0  0
   -0.9440   -0.2440   -2.1530 O   0  0  0  0  0  0  0  0  0  0  0  0
   -1.2510    0.0510    0.8990 C   0  0  0  0  0  0  0  0  0  0  0  0
   -1.9350   -0.0430    2.0290 O   0  0  0  0  0  0  0  0  0  0  0  0
   -0.1480   -0.5430    1.1700 N   0  0  0  0  0  0  0  0  0  0  0  0
    1.1740   -0.9840    1.1760 C   0  0  0  0  0  0  0  0  0  0  0  0
    1.2900   -1.7950    2.0400 O   0  0  0  0  0  0  0  0  0  0  0  0
    1.9730   -0.4320    0.2910 N   0  0  0  0  0  0  0  0  0  0  0  0
    3.4720   -1.0670    0.6570 C   0  0  0  0  0  0  0  0  0  0  0  0
    3.9880   -0.3360   -0.3030 O   0  0  0  0  0  0  0  0  0  0  0  0
    4.3030   -1.7800    1.2710 N   0  0  0  0  0  0  0  0  0  0  0  0
    5.7640   -1.7950    1.0100 C   0  0  2  0  0  0  0  0  0  0  0  0
    6.4280   -3.1080    1.2960 C   0  0  0  0  0  0  0  0  0  0  0  0
    6.6100   -1.9420    2.2310 C   0  0  0  0  0  0  0  0  0  0  0  0
  1  2  1  0
  2  3  2  3
  3  4  1  0
  3  8  1  0
  4  5  2  3
  5  6  1  0
  5  7  1  0
  8  9  2  3
  9 10  1  0
  9 12  1  0
 10 11  1  0
 12 13  2  0
 12 14  1  0
 14 15  1  0
 15 16  2  0
 15 17  1  0
 17 18  1  0
 18 19  2  0
 18 20  1  0
 21 20  1  1
 21 22  1  0
 21 23  1  0
 22 23  1  0
M  END
