
     RDKit          3D

 24 26  0  0  0  0  0  0  0  0999 V2000
   -8.2510    0.5810   -2.1740 C   0  0  0  0  0  0  0  0  0  0  0  0
   -6.8620    0.5640   -2.0350 O   0  0  0  0  0  0  0  0  0  0  0  0
   -6.3010    0.1290   -0.8430 C   0  0  0  0  0  0  0  0  0  0  0  0
   -4.9190    0.1090   -0.6950 C   0  0  0  0  0  0  0  0  0  0  0  0
   -4.3640   -0.3150    0.4690 C   0  0  0  0  0  0  0  0  0  0  0  0
   -2.9110   -0.3520    0.6650 C   0  0  0  0  0  0  0  0  0  0  0  0
   -2.1970   -0.7410    1.7470 C   0  0  0  0  0  0  0  0  0  0  0  0
   -0.8590   -0.6870    1.6930 C   0  0  0  0  0  0  0  0  0  0  0  0
   -0.2640   -0.2420    0.5530 C   0  0  0  0  0  0  0  0  0  0  0  0
    1.1280   -0.0570    0.1580 C   0  0  0  0  0  0  0  0  0  0  0  0
    2.1010   -0.3410    0.9780 C   0  0  0  0  0  0  0  0  0  0  0  0
    3.5000   -0.1710    0.6220 C   0  0  0  0  0  0  0  0  0  0  0  0
    4.3550   -0.4770    1.4910 O   0  0  0  0  0  0  0  0  0  0  0  0
    3.9060    0.3100   -0.6250 N   0  0  0  0  0  0  0  0  0  0  0  0
    5.3030    0.4690   -0.9510 C   0  0  0  0  0  0  0  0  0  0  0  0
    6.4300    0.2430   -0.2740 C   0  0  0  0  0  0  0  0  0  0  0  0
    7.6300    0.4840   -0.8330 C   0  0  0  0  0  0  0  0  0  0  0  0
    8.9890    0.2620   -0.1510 C   0  0  0  0  0  0  0  0  0  0  0  0
    7.6310    0.9600   -2.0930 N   0  0  0  0  0  0  0  0  0  0  0  0
    5.8490    1.0810   -2.5350 S   0  0  0  0  0  0  0  0  0  0  0  0
   -1.7010    0.1240   -0.5150 S   0  0  0  0  0  0  0  0  0  0  0  0
   -5.1530   -0.7140    1.4740 N   0  0  0  0  0  0  0  0  0  0  0  0
   -6.4810   -0.7040    1.3590 C   0  0  0  0  0  0  0  0  0  0  0  0
   -7.0330   -0.2860    0.2100 N   0  0  0  0  0  0  0  0  0  0  0  0
  1  2  1  0
  2  3  1  0
  3  4  2  0
  3 24  1  0
  4  5  1  0
  5  6  1  0
  5 22  2  0
  6  7  2  0
  6 21  1  0
  7  8  1  0
  8  9  2  0
  9 10  1  0
  9 21  1  0
 10 11  2  3
 11 12  1  0
 12 13  2  0
 12 14  1  0
 14 15  1  0
 15 16  2  0
 15 20  1  0
 16 17  1  0
 17 18  1  0
 17 19  2  0
 19 20  1  0
 22 23  1  0
 23 24  2  0
M  END
