
     RDKit          3D

 24 26  0  0  0  0  0  0  0  0999 V2000
   -7.6330    2.0520   -0.9980 C   0  0  0  0  0  0  0  0  0  0  0  0
   -6.8080    0.9590   -0.4160 C   0  0  0  0  0  0  0  0  0  0  0  0
   -5.4330    0.9120   -0.4770 C   0  0  0  0  0  0  0  0  0  0  0  0
   -5.0430   -0.2370    0.1650 C   0  0  0  0  0  0  0  0  0  0  0  0
   -3.6310   -0.6890    0.3590 C   0  0  0  0  0  0  0  0  0  0  0  0
   -3.2940   -1.9320    0.8860 C   0  0  0  0  0  0  0  0  0  0  0  0
   -1.4720   -1.8390    0.8290 S   0  0  0  0  0  0  0  0  0  0  0  0
   -1.4230   -0.2200    0.1370 C   0  0  0  0  0  0  0  0  0  0  0  0
   -0.1230    0.4940   -0.1780 C   0  0  0  0  0  0  0  0  0  0  0  0
    0.9710   -0.3500    0.1870 N   0  0  0  0  0  0  0  0  0  0  0  0
    2.3030    0.0480    0.0100 C   0  0  0  0  0  0  0  0  0  0  0  0
    2.5250    1.1730   -0.4800 O   0  0  0  0  0  0  0  0  0  0  0  0
    3.3490   -0.8250    0.3870 N   0  0  0  0  0  0  0  0  0  0  0  0
    4.7480   -0.4430    0.2170 C   0  0  0  0  0  0  0  0  0  0  0  0
    5.8350   -0.8150    0.3760 N   0  0  0  0  0  0  0  0  0  0  0  0
    6.9670   -0.1970    0.1050 C   0  0  0  0  0  0  0  0  0  0  0  0
    8.3110   -0.8280    0.3740 C   0  0  0  0  0  0  0  0  0  0  0  0
    6.8580    1.0430   -0.4340 C   0  0  0  0  0  0  0  0  0  0  0  0
    7.8430    2.0580   -0.8780 C   0  0  0  0  0  0  0  0  0  0  0  0
    5.1020    1.2610   -0.5240 S   0  0  0  0  0  0  0  0  0  0  0  0
   -2.6140    0.0690    0.0250 N   0  0  0  0  0  0  0  0  0  0  0  0
   -6.1720   -0.8580    0.5990 C   0  0  0  0  0  0  0  0  0  0  0  0
   -6.3490   -2.1200    1.3460 C   0  0  0  0  0  0  0  0  0  0  0  0
   -7.2190   -0.1130    0.2330 O   0  0  0  0  0  0  0  0  0  0  0  0
  1  2  1  0
  2  3  2  0
  2 24  1  0
  3  4  1  0
  4  5  1  0
  4 22  2  0
  5  6  2  0
  5 21  1  0
  6  7  1  0
  7  8  1  0
  8  9  1  0
  8 21  2  0
  9 10  1  0
 10 11  1  0
 11 12  2  0
 11 13  1  0
 13 14  1  0
 14 15  2  0
 14 20  1  0
 15 16  1  0
 16 17  1  0
 16 18  2  0
 18 19  1  0
 18 20  1  0
 22 23  1  0
 22 24  1  0
M  END
