
     RDKit          3D

 24 26  0  0  0  0  0  0  0  0999 V2000
    6.0490    0.5650    2.0730 C   0  0  0  0  0  0  0  0  0  0  0  0
    5.4730    0.2300    0.7520 C   0  0  0  0  0  0  0  0  0  0  0  0
    4.1280   -0.0820    0.7110 C   0  0  0  0  0  0  0  0  0  0  0  0
    3.5370   -0.4020   -0.4930 C   0  0  0  0  0  0  0  0  0  0  0  0
    2.1260   -0.7370   -0.5960 C   0  0  0  0  0  0  0  0  0  0  0  0
    1.3380   -0.7560    0.4230 N   0  0  0  0  0  0  0  0  0  0  0  0
   -0.0230   -1.0740    0.3560 C   0  0  0  0  0  0  0  0  0  0  0  0
   -0.8650   -1.8640    0.9850 N   0  0  0  0  0  0  0  0  0  0  0  0
   -2.0590   -1.9670    0.7250 N   0  0  0  0  0  0  0  0  0  0  0  0
   -2.7020   -1.3080   -0.2260 C   0  0  0  0  0  0  0  0  0  0  0  0
   -4.2930   -1.2200   -0.8300 S   0  0  0  0  0  0  0  0  0  0  0  0
   -5.2220    0.0740    0.0790 C   0  0  2  0  0  0  0  0  0  0  0  0
   -5.3640   -0.3870    1.5040 C   0  0  0  0  0  0  0  0  0  0  0  0
   -6.4930    0.3650   -0.5840 C   0  0  0  0  0  0  0  0  0  0  0  0
   -6.8660    1.5600   -1.1530 C   0  0  0  0  0  0  0  0  0  0  0  0
   -8.1350    1.4020   -1.6640 C   0  0  0  0  0  0  0  0  0  0  0  0
   -8.4910    0.1010   -1.3830 C   0  0  0  0  0  0  0  0  0  0  0  0
   -7.4910   -0.4620   -0.7490 O   0  0  0  0  0  0  0  0  0  0  0  0
   -1.2170   -0.3400   -0.8540 S   0  0  0  0  0  0  0  0  0  0  0  0
    4.2740   -0.4070   -1.6090 N   0  0  0  0  0  0  0  0  0  0  0  0
    5.5730   -0.1050   -1.5690 C   0  0  0  0  0  0  0  0  0  0  0  0
    6.2890   -0.1060   -2.6300 O   0  0  0  0  0  0  0  0  0  0  0  0
    6.2090    0.2190   -0.4010 C   0  0  0  0  0  0  0  0  0  0  0  0
    7.6330    0.5490   -0.3640 C   0  0  0  0  0  0  0  0  0  0  0  0
  1  2  1  0
  2  3  1  0
  2 23  2  0
  3  4  2  0
  4  5  1  0
  4 20  1  0
  5  6  2  3
  6  7  1  0
  7  8  2  0
  7 19  1  0
  8  9  1  0
  9 10  2  0
 10 11  1  0
 10 19  1  0
 11 12  1  0
 12 13  1  1
 12 14  1  0
 14 15  2  0
 14 18  1  0
 15 16  1  0
 16 17  2  0
 17 18  1  0
 20 21  1  0
 21 22  2  0
 21 23  1  0
 23 24  1  0
M  END
