
     RDKit          3D

 24 26  0  0  0  0  0  0  0  0999 V2000
   -5.9640   -1.2810    0.3620 C   0  0  0  0  0  0  0  0  0  0  0  0
   -5.8710   -0.3120    1.4180 N   0  0  0  0  0  0  0  0  0  0  0  0
   -5.4990    1.0090    0.9700 C   0  0  2  0  0  0  0  0  0  0  0  0
   -6.5130    1.5740    0.0460 C   0  0  0  0  0  0  0  0  0  0  0  0
   -4.1790    1.0270    0.2690 C   0  0  0  0  0  0  0  0  0  0  0  0
   -3.5370    1.3910   -0.6250 N   0  0  0  0  0  0  0  0  0  0  0  0
   -2.2880    1.1770   -0.9280 C   0  0  0  0  0  0  0  0  0  0  0  0
   -1.5870    1.7280   -2.1460 C   0  0  0  0  0  0  0  0  0  0  0  0
   -1.5850    0.3820   -0.0490 C   0  0  0  0  0  0  0  0  0  0  0  0
   -0.2300   -0.1020    0.0170 C   0  0  0  0  0  0  0  0  0  0  0  0
    0.3470   -0.9080    0.9650 C   0  0  0  0  0  0  0  0  0  0  0  0
    1.6300   -1.2380    0.8250 C   0  0  0  0  0  0  0  0  0  0  0  0
    2.3290   -0.7550   -0.2690 C   0  0  0  0  0  0  0  0  0  0  0  0
    3.6840   -0.9230   -0.6950 C   0  0  0  0  0  0  0  0  0  0  0  0
    4.0460   -0.3500   -1.7540 O   0  0  0  0  0  0  0  0  0  0  0  0
    4.6410   -1.6890   -0.0060 N   0  0  0  0  0  0  0  0  0  0  0  0
    5.9830   -1.8250   -0.4760 C   0  0  0  0  0  0  0  0  0  0  0  0
    6.7400   -0.5940   -0.1830 C   0  0  0  0  0  0  0  0  0  0  0  0
    6.3230    0.4800    0.5440 C   0  0  0  0  0  0  0  0  0  0  0  0
    7.2860    1.3660    0.5680 O   0  0  0  0  0  0  0  0  0  0  0  0
    8.3020    0.8910   -0.1220 C   0  0  0  0  0  0  0  0  0  0  0  0
    7.9940   -0.3290   -0.6030 N   0  0  0  0  0  0  0  0  0  0  0  0
    1.0210    0.2090   -1.0930 S   0  0  0  0  0  0  0  0  0  0  0  0
   -2.8740    0.0160    1.1780 S   0  0  0  0  0  0  0  0  0  0  0  0
  1  2  1  0
  2  3  1  0
  3  4  1  6
  3  5  1  0
  5  6  2  0
  5 24  1  0
  6  7  1  0
  7  8  1  0
  7  9  2  0
  9 10  1  0
  9 24  1  0
 10 11  2  0
 10 23  1  0
 11 12  1  0
 12 13  2  0
 13 14  1  0
 13 23  1  0
 14 15  2  0
 14 16  1  0
 16 17  1  0
 17 18  1  0
 18 19  2  0
 18 22  1  0
 19 20  1  0
 20 21  1  0
 21 22  2  0
M  END
