
     RDKit          3D

 22 24  0  0  0  0  0  0  0  0999 V2000
    5.2500    0.1240   -0.4020 C   0  0  0  0  0  0  0  0  0  0  0  0
    4.3310    0.9160    0.3540 N   0  0  0  0  0  0  0  0  0  0  0  0
    4.9950    1.9860    1.1930 C   0  0  0  0  0  0  0  0  0  0  0  0
    2.9520    0.8690    0.4480 C   0  0  0  0  0  0  0  0  0  0  0  0
    2.4190    1.7510    1.2390 O   0  0  0  0  0  0  0  0  0  0  0  0
    2.0280   -0.0220   -0.2100 C   0  0  0  0  0  0  0  0  0  0  0  0
    2.3440   -1.0320   -1.0790 C   0  0  0  0  0  0  0  0  0  0  0  0
    1.4190   -1.8600   -1.6860 C   0  0  0  0  0  0  0  0  0  0  0  0
    0.0930   -1.6640   -1.4030 C   0  0  0  0  0  0  0  0  0  0  0  0
   -0.2930   -0.6540   -0.5270 C   0  0  0  0  0  0  0  0  0  0  0  0
   -1.7340   -0.5100   -0.2820 C   0  0  0  0  0  0  0  0  0  0  0  0
   -2.5970   -0.5150   -1.3520 C   0  0  0  0  0  0  0  0  0  0  0  0
   -3.9400   -0.3780   -1.1610 N   0  0  0  0  0  0  0  0  0  0  0  0
   -4.8340   -0.3860   -2.3020 C   0  0  0  0  0  0  0  0  0  0  0  0
   -4.4650   -0.2360    0.0680 C   0  0  0  0  0  0  0  0  0  0  0  0
   -5.7150   -0.1150    0.1740 O   0  0  0  0  0  0  0  0  0  0  0  0
   -3.6430   -0.2250    1.1750 C   0  0  0  0  0  0  0  0  0  0  0  0
   -3.9140   -0.1010    2.4850 N   0  0  0  0  0  0  0  0  0  0  0  0
   -2.7410   -0.1580    3.1380 C   0  0  0  0  0  0  0  0  0  0  0  0
   -1.7050   -0.3220    2.2150 C   0  0  0  0  0  0  0  0  0  0  0  0
   -2.2680   -0.3650    0.9730 C   0  0  0  0  0  0  0  0  0  0  0  0
    0.6460    0.1260    0.0380 C   0  0  0  0  0  0  0  0  0  0  0  0
  1  2  1  0
  2  3  1  0
  2  4  1  0
  4  5  2  0
  4  6  1  0
  6  7  2  0
  6 22  1  0
  7  8  1  0
  8  9  2  0
  9 10  1  0
 10 11  1  0
 10 22  2  0
 11 12  2  0
 11 21  1  0
 12 13  1  0
 13 14  1  0
 13 15  1  0
 15 16  2  0
 15 17  1  0
 17 18  1  0
 17 21  2  0
 18 19  1  0
 19 20  2  0
 20 21  1  0
M  END
