
     RDKit          3D

 24 26  0  0  0  0  0  0  0  0999 V2000
    0.8670   -2.8590   -1.0850 C   0  0  0  0  0  0  0  0  0  0  0  0
    1.1810   -1.5040   -1.7000 C   0  0  0  0  0  0  0  0  0  0  0  0
    1.8810   -0.6010   -0.7370 C   0  0  0  0  0  0  0  0  0  0  0  0
    3.2060   -0.4070   -0.8480 N   0  0  0  0  0  0  0  0  0  0  0  0
    3.9090    0.2190   -0.2330 C   0  0  0  0  0  0  0  0  0  0  0  0
    5.3250    0.5980   -0.1270 C   0  0  0  0  0  0  0  0  0  0  0  0
    5.9330    1.4350    0.7840 C   0  0  0  0  0  0  0  0  0  0  0  0
    7.2730    1.4540    0.4470 C   0  0  0  0  0  0  0  0  0  0  0  0
    8.3650    2.1910    1.1020 C   0  0  0  0  0  0  0  0  0  0  0  0
    7.4020    0.6450   -0.6260 N   0  0  0  0  0  0  0  0  0  0  0  0
    6.2520    0.1620   -0.9360 O   0  0  0  0  0  0  0  0  0  0  0  0
    2.7040    0.9430    1.0290 S   0  0  0  0  0  0  0  0  0  0  0  0
    1.2980    0.0500    0.2620 C   0  0  0  0  0  0  0  0  0  0  0  0
   -0.0530    0.1920    0.8130 C   0  0  0  0  0  0  0  0  0  0  0  0
   -0.1420    0.9670    1.8260 O   0  0  0  0  0  0  0  0  0  0  0  0
   -1.1980   -0.4120    0.3560 N   0  0  0  0  0  0  0  0  0  0  0  0
   -2.5280   -0.2250    0.9700 C   0  0  0  0  0  0  0  0  0  0  0  0
   -2.6190    0.2560    2.2400 C   0  0  0  0  0  0  0  0  0  0  0  0
   -4.4210    0.3280    2.4940 S   0  0  0  0  0  0  0  0  0  0  0  0
   -4.8430   -0.2790    0.9120 C   0  0  0  0  0  0  0  0  0  0  0  0
   -6.2560   -0.4960    0.3950 C   0  0  0  0  0  0  0  0  0  0  0  0
   -6.6040    0.7170   -0.3170 N   0  0  0  0  0  0  0  0  0  0  0  0
   -7.9470    0.5990   -0.8480 C   0  0  0  0  0  0  0  0  0  0  0  0
   -3.6820   -0.4910    0.3120 C   0  0  0  0  0  0  0  0  0  0  0  0
  1  2  1  0
  2  3  1  0
  3  4  1  0
  3 13  2  0
  4  5  2  0
  5  6  1  0
  5 12  1  0
  6  7  2  0
  6 11  1  0
  7  8  1  0
  8  9  1  0
  8 10  2  0
 10 11  1  0
 12 13  1  0
 13 14  1  0
 14 15  2  0
 14 16  1  0
 16 17  1  0
 17 18  2  0
 17 24  1  0
 18 19  1  0
 19 20  1  0
 20 21  1  0
 20 24  2  0
 21 22  1  0
 22 23  1  0
M  END
