
     RDKit          3D

 24 26  0  0  0  0  0  0  0  0999 V2000
    7.3830    2.2600   -0.5990 C   0  0  0  0  0  0  0  0  0  0  0  0
    6.4310    1.6980    0.8510 S   0  0  0  0  0  0  0  0  0  0  0  0
    5.0600    0.6890    0.2980 C   0  0  0  0  0  0  0  0  0  0  0  0
    3.8700    1.1240   -0.0090 O   0  0  0  0  0  0  0  0  0  0  0  0
    3.0940    0.1340   -0.3770 C   0  0  0  0  0  0  0  0  0  0  0  0
    1.6870    0.1870   -0.8000 C   0  0  0  0  0  0  0  0  0  0  0  0
    0.7710    0.0360    0.3140 N   0  0  0  0  0  0  0  0  0  0  0  0
   -0.6470    0.0680    0.0520 C   0  0  0  0  0  0  0  0  0  0  0  0
   -1.0240    0.2250   -1.1260 O   0  0  0  0  0  0  0  0  0  0  0  0
   -1.5850   -0.0730    1.0890 N   0  0  0  0  0  0  0  0  0  0  0  0
   -2.9920   -0.0640    0.9350 C   0  0  0  0  0  0  0  0  0  0  0  0
   -3.7620    0.0150    2.1010 C   0  0  0  0  0  0  0  0  0  0  0  0
   -5.1160    0.0180    2.0570 C   0  0  0  0  0  0  0  0  0  0  0  0
   -5.7770   -0.0580    0.8550 C   0  0  0  0  0  0  0  0  0  0  0  0
   -7.1680   -0.0550    0.8090 C   0  0  0  0  0  0  0  0  0  0  0  0
   -7.7570   -0.1310   -0.4150 C   0  0  0  0  0  0  0  0  0  0  0  0
   -7.0350   -0.2110   -1.5910 C   0  0  0  0  0  0  0  0  0  0  0  0
   -5.6940   -0.2100   -1.4850 N   0  0  0  0  0  0  0  0  0  0  0  0
   -5.0410   -0.1360   -0.3080 C   0  0  0  0  0  0  0  0  0  0  0  0
   -3.6620   -0.1380   -0.2420 C   0  0  0  0  0  0  0  0  0  0  0  0
    3.8370   -0.9980   -0.2980 N   0  0  0  0  0  0  0  0  0  0  0  0
    5.0630   -0.6750    0.1190 C   0  0  0  0  0  0  0  0  0  0  0  0
    6.2510   -1.5230    0.3710 C   0  0  0  0  0  0  0  0  0  0  0  0
    5.9400   -3.2560    0.0480 S   0  0  0  0  0  0  0  0  0  0  0  0
  1  2  1  0
  2  3  1  0
  3  4  1  0
  3 22  2  0
  4  5  1  0
  5  6  1  0
  5 21  2  0
  6  7  1  0
  7  8  1  0
  8  9  2  0
  8 10  1  0
 10 11  1  0
 11 12  2  0
 11 20  1  0
 12 13  1  0
 13 14  2  0
 14 15  1  0
 14 19  1  0
 15 16  2  0
 16 17  1  0
 17 18  2  0
 18 19  1  0
 19 20  2  0
 21 22  1  0
 22 23  1  0
 23 24  1  0
M  END
