
     RDKit          3D

 23 24  0  0  0  0  0  0  0  0999 V2000
    0.8510    3.2960   -0.9380 N   0  0  0  0  0  0  0  0  0  0  0  0
    1.1550    1.9980   -0.4720 C   0  0  0  0  0  0  0  0  0  0  0  0
    2.3300    1.7450   -0.1310 O   0  0  0  0  0  0  0  0  0  0  0  0
    0.1650    0.9320   -0.3680 C   0  0  0  0  0  0  0  0  0  0  0  0
   -1.1580    1.1950   -0.7440 C   0  0  0  0  0  0  0  0  0  0  0  0
   -1.5880    2.9310   -1.3730 Br  0  0  0  0  0  0  0  0  0  0  0  0
   -2.1560    0.2450   -0.6770 C   0  0  0  0  0  0  0  0  0  0  0  0
   -3.4830    0.5500   -1.0760 N   0  0  0  0  0  0  0  0  0  0  0  0
   -4.5880   -0.3450   -1.0100 C   0  0  0  0  0  0  0  0  0  0  0  0
   -4.8410   -0.6760    0.4210 C   0  0  0  0  0  0  0  0  0  0  0  0
   -4.2030   -0.2260    1.3490 O   0  0  0  0  0  0  0  0  0  0  0  0
   -1.7600   -0.9910   -0.2100 C   0  0  0  0  0  0  0  0  0  0  0  0
   -0.4510   -1.2490    0.1620 C   0  0  0  0  0  0  0  0  0  0  0  0
   -0.1850   -2.4240    0.5820 O   0  0  0  0  0  0  0  0  0  0  0  0
    0.4860   -0.2940    0.0800 N   0  0  0  0  0  0  0  0  0  0  0  0
    1.8020   -0.5800    0.4630 C   0  0  0  0  0  0  0  0  0  0  0  0
    2.1730   -0.4400    1.7860 C   0  0  0  0  0  0  0  0  0  0  0  0
    3.4720   -0.7240    2.1540 C   0  0  0  0  0  0  0  0  0  0  0  0
    4.0870   -0.5620    3.9510 Br  0  0  0  0  0  0  0  0  0  0  0  0
    4.3860   -1.1430    1.2080 C   0  0  0  0  0  0  0  0  0  0  0  0
    3.9930   -1.2800   -0.1290 C   0  0  0  0  0  0  0  0  0  0  0  0
    2.6970   -0.9980   -0.5000 C   0  0  0  0  0  0  0  0  0  0  0  0
    2.3470   -1.1480   -1.8470 O   0  0  0  0  0  0  0  0  0  0  0  0
  1  2  1  0
  2  3  2  0
  2  4  1  0
  4  5  2  0
  4 15  1  0
  5  6  1  0
  5  7  1  0
  7  8  1  0
  7 12  2  0
  8  9  1  0
  9 10  1  0
 10 11  2  0
 12 13  1  0
 13 14  2  0
 13 15  1  0
 15 16  1  0
 16 17  2  0
 16 22  1  0
 17 18  1  0
 18 19  1  0
 18 20  2  0
 20 21  1  0
 21 22  2  0
 22 23  1  0
M  END
