
     RDKit          3D

 23 24  0  0  0  0  0  0  0  0999 V2000
    6.1350   -0.0900    0.6560 N   0  0  0  0  0  0  0  0  0  0  0  0
    5.6540    1.0350   -0.0490 C   0  0  0  0  0  0  0  0  0  0  0  0
    6.3930    2.0550   -0.0740 O   0  0  0  0  0  0  0  0  0  0  0  0
    4.3630    1.0320   -0.7220 C   0  0  0  0  0  0  0  0  0  0  0  0
    3.5740   -0.0210   -0.7080 C   0  0  0  0  0  0  0  0  0  0  0  0
    2.3520   -0.0100   -1.3510 O   0  0  0  0  0  0  0  0  0  0  0  0
    1.1600   -0.1290   -0.6500 C   0  0  0  0  0  0  0  0  0  0  0  0
   -0.0590   -0.1130   -1.3450 C   0  0  0  0  0  0  0  0  0  0  0  0
   -1.2720   -0.2270   -0.7090 C   0  0  0  0  0  0  0  0  0  0  0  0
   -2.4300   -0.1990   -1.4880 O   0  0  0  0  0  0  0  0  0  0  0  0
   -3.6960   -0.3110   -0.8990 C   0  0  0  0  0  0  0  0  0  0  0  0
   -4.4050   -1.4220   -0.9940 C   0  0  0  0  0  0  0  0  0  0  0  0
   -3.9200   -3.0510   -1.8960 Br  0  0  0  0  0  0  0  0  0  0  0  0
   -5.6680   -1.1760   -0.2620 C   0  0  0  0  0  0  0  0  0  0  0  0
   -5.5250    0.1720    0.2120 N   0  0  0  0  0  0  0  0  0  0  0  0
   -4.4090    0.7010   -0.1330 C   0  0  0  0  0  0  0  0  0  0  0  0
   -3.9290    2.0550    0.1750 C   0  0  0  0  0  0  0  0  0  0  0  0
   -2.8100    2.4230   -0.2370 O   0  0  0  0  0  0  0  0  0  0  0  0
   -4.9960    3.2440    1.1900 Br  0  0  0  0  0  0  0  0  0  0  0  0
   -1.3030   -0.3630    0.6630 C   0  0  0  0  0  0  0  0  0  0  0  0
   -0.1040   -0.3770    1.3290 C   0  0  0  0  0  0  0  0  0  0  0  0
    1.1340   -0.2650    0.7230 C   0  0  0  0  0  0  0  0  0  0  0  0
    2.3380   -0.2900    1.5000 N   0  0  0  0  0  0  0  0  0  0  0  0
  1  2  1  0
  2  3  2  0
  2  4  1  0
  4  5  2  3
  5  6  1  0
  6  7  1  0
  7  8  2  0
  7 22  1  0
  8  9  1  0
  9 10  1  0
  9 20  2  0
 10 11  1  0
 11 12  2  0
 11 16  1  0
 12 13  1  0
 12 14  1  0
 14 15  1  0
 15 16  2  0
 16 17  1  0
 17 18  2  0
 17 19  1  0
 20 21  1  0
 21 22  2  0
 22 23  1  0
M  END
