
     RDKit          3D

 23 24  0  0  0  0  0  0  0  0999 V2000
   -4.5470    2.8490    0.3200 N   0  0  0  0  0  0  0  0  0  0  0  0
   -5.1910    1.6250    0.0380 C   0  0  0  0  0  0  0  0  0  0  0  0
   -6.4520    1.6000   -0.0970 O   0  0  0  0  0  0  0  0  0  0  0  0
   -4.4330    0.3990   -0.0990 C   0  0  0  0  0  0  0  0  0  0  0  0
   -4.9490   -0.8560   -0.3740 C   0  0  0  0  0  0  0  0  0  0  0  0
   -3.8540   -1.7080   -0.4100 C   0  0  0  0  0  0  0  0  0  0  0  0
   -4.0070   -3.5880   -0.7570 Br  0  0  0  0  0  0  0  0  0  0  0  0
   -2.7180   -0.9830   -0.1650 C   0  0  0  0  0  0  0  0  0  0  0  0
   -1.3620   -1.5410   -0.1220 C   0  0  0  0  0  0  0  0  0  0  0  0
   -1.2170   -2.7670   -0.3230 O   0  0  0  0  0  0  0  0  0  0  0  0
   -0.2340   -0.7580    0.1330 N   0  0  0  0  0  0  0  0  0  0  0  0
    1.1150   -1.1660    0.2060 C   0  0  0  0  0  0  0  0  0  0  0  0
    1.5250   -2.4690    0.2480 C   0  0  0  0  0  0  0  0  0  0  0  0
    2.8790   -2.7450    0.3020 C   0  0  0  0  0  0  0  0  0  0  0  0
    3.8110   -1.7300    0.3130 C   0  0  0  0  0  0  0  0  0  0  0  0
    5.6570   -2.2340    0.3890 Br  0  0  0  0  0  0  0  0  0  0  0  0
    3.4360   -0.3990    0.2720 C   0  0  0  0  0  0  0  0  0  0  0  0
    4.4050    0.5610    0.2860 O   0  0  0  0  0  0  0  0  0  0  0  0
    4.1790    1.9480    0.2490 C   0  0  0  0  0  0  0  0  0  0  0  0
    5.4550    2.7170    0.2780 C   0  0  0  0  0  0  0  0  0  0  0  0
    6.5240    2.1340    0.3280 O   0  0  0  0  0  0  0  0  0  0  0  0
    2.0960   -0.1450    0.2190 C   0  0  0  0  0  0  0  0  0  0  0  0
   -3.0900    0.2780    0.0190 N   0  0  0  0  0  0  0  0  0  0  0  0
  1  2  1  0
  2  3  2  0
  2  4  1  0
  4  5  2  0
  4 23  1  0
  5  6  1  0
  6  7  1  0
  6  8  2  0
  8  9  1  0
  8 23  1  0
  9 10  2  0
  9 11  1  0
 11 12  1  0
 12 13  2  0
 12 22  1  0
 13 14  1  0
 14 15  2  0
 15 16  1  0
 15 17  1  0
 17 18  1  0
 17 22  2  0
 18 19  1  0
 19 20  1  0
 20 21  2  0
M  END
