
     RDKit          3D

 23 25  0  0  0  0  0  0  0  0999 V2000
   -2.1610    3.3460    0.0570 N   0  0  0  0  0  0  0  0  0  0  0  0
   -1.8710    2.0100    0.4040 C   0  0  0  0  0  0  0  0  0  0  0  0
   -1.3860    1.7350    1.5260 O   0  0  0  0  0  0  0  0  0  0  0  0
   -2.1450    0.9240   -0.5720 C   0  0  0  0  0  0  0  0  0  0  0  0
   -1.7760   -0.4120   -0.0090 C   0  0  0  0  0  0  0  0  0  0  0  0
   -0.4180   -0.7420    0.0820 C   0  0  0  0  0  0  0  0  0  0  0  0
    0.5280    0.2200   -0.3340 N   0  0  0  0  0  0  0  0  0  0  0  0
    1.9350    0.0830   -0.3600 C   0  0  0  0  0  0  0  0  0  0  0  0
    2.4480   -0.9720    0.0060 O   0  0  0  0  0  0  0  0  0  0  0  0
    2.7870    1.1530   -0.8080 N   0  0  0  0  0  0  0  0  0  0  0  0
    4.2360    0.9790   -0.8200 C   0  0  0  0  0  0  0  0  0  0  0  0
    4.7920    1.0940   -1.9750 C   0  0  0  0  0  0  0  0  0  0  0  0
    6.6620    0.9060   -2.2300 Br  0  0  0  0  0  0  0  0  0  0  0  0
    4.9480    0.7030    0.4160 C   0  0  0  0  0  0  0  0  0  0  0  0
    6.8320    0.5290    0.1550 Br  0  0  0  0  0  0  0  0  0  0  0  0
   -0.1180   -1.9740    0.5870 C   0  0  0  0  0  0  0  0  0  0  0  0
   -1.1060   -2.8830    1.0020 C   0  0  0  0  0  0  0  0  0  0  0  0
   -2.4420   -2.5240    0.8990 C   0  0  0  0  0  0  0  0  0  0  0  0
   -2.7780   -1.2870    0.3930 C   0  0  0  0  0  0  0  0  0  0  0  0
   -4.2580   -1.1500    0.3860 C   0  0  0  0  0  0  0  0  0  0  0  0
   -4.7280   -2.3600    0.9150 O   0  0  0  0  0  0  0  0  0  0  0  0
   -3.6870   -3.2000    1.2280 C   0  0  0  0  0  0  0  0  0  0  0  0
   -3.7920   -4.3520    1.7150 O   0  0  0  0  0  0  0  0  0  0  0  0
  1  2  1  0
  2  3  2  0
  2  4  1  0
  4  5  1  0
  5  6  2  0
  5 19  1  0
  6  7  1  0
  6 16  1  0
  7  8  1  0
  8  9  2  0
  8 10  1  0
 10 11  1  0
 11 12  2  0
 11 14  1  0
 12 13  1  0
 14 15  1  0
 16 17  2  0
 17 18  1  0
 18 19  2  0
 18 22  1  0
 19 20  1  0
 20 21  1  0
 21 22  1  0
 22 23  2  0
 15 13  1  0
M  END
