
     RDKit          3D

 23 24  0  0  0  0  0  0  0  0999 V2000
    7.0230   -1.1720   -0.0450 C   0  0  0  0  0  0  0  0  0  0  0  0
    6.3850   -0.4910   -1.1120 O   0  0  0  0  0  0  0  0  0  0  0  0
    5.0400   -0.1440   -0.8880 C   0  0  0  0  0  0  0  0  0  0  0  0
    4.0070   -0.9640   -1.2120 C   0  0  0  0  0  0  0  0  0  0  0  0
    4.3520   -2.6570   -2.0020 Br  0  0  0  0  0  0  0  0  0  0  0  0
    2.6860   -0.5590   -0.9620 C   0  0  0  0  0  0  0  0  0  0  0  0
    2.3890    0.6590   -0.3910 C   0  0  0  0  0  0  0  0  0  0  0  0
    1.0740    1.1020   -0.1240 N   0  0  0  0  0  0  0  0  0  0  0  0
   -0.0910    0.3680   -0.4030 C   0  0  0  0  0  0  0  0  0  0  0  0
   -0.1020   -0.7590   -0.9160 O   0  0  0  0  0  0  0  0  0  0  0  0
   -1.4150    0.9430   -0.0750 C   0  0  0  0  0  0  0  0  0  0  0  0
   -1.5030    2.0900    0.4530 O   0  0  0  0  0  0  0  0  0  0  0  0
   -2.6270    0.2620   -0.3270 N   0  0  0  0  0  0  0  0  0  0  0  0
   -3.8650    0.8270   -0.0090 N   0  0  0  0  0  0  0  0  0  0  0  0
   -4.9760    0.0460    0.4100 C   0  0  0  0  0  0  0  0  0  0  0  0
   -6.1810    0.0820   -0.1010 C   0  0  0  0  0  0  0  0  0  0  0  0
   -7.0170   -0.8790    0.6240 C   0  0  0  0  0  0  0  0  0  0  0  0
   -6.1360   -1.4900    1.6370 C   0  0  0  0  0  0  0  0  0  0  0  0
   -4.9320   -0.9250    1.4900 C   0  0  0  0  0  0  0  0  0  0  0  0
    3.4900    1.4630   -0.0780 C   0  0  0  0  0  0  0  0  0  0  0  0
    3.2980    2.6950    0.4940 O   0  0  0  0  0  0  0  0  0  0  0  0
    4.7930    1.0810   -0.3160 C   0  0  0  0  0  0  0  0  0  0  0  0
    6.1970    2.2690    0.1580 Br  0  0  0  0  0  0  0  0  0  0  0  0
  1  2  1  0
  2  3  1  0
  3  4  2  0
  3 22  1  0
  4  5  1  0
  4  6  1  0
  6  7  2  0
  7  8  1  0
  7 20  1  0
  8  9  1  0
  9 10  2  0
  9 11  1  0
 11 12  2  0
 11 13  1  0
 13 14  1  0
 14 15  1  0
 15 16  2  0
 15 19  1  0
 16 17  1  0
 17 18  1  0
 18 19  2  0
 20 21  1  0
 20 22  2  0
 22 23  1  0
M  END
