
     RDKit          3D

 23 23  0  0  0  0  0  0  0  0999 V2000
   -5.2650   -0.2260   -0.5440 C   0  0  0  0  0  0  0  0  0  0  0  0
   -4.2760    0.4800   -1.3180 C   0  0  0  0  0  0  0  0  0  0  0  0
   -2.9760    0.7300   -0.8250 C   0  0  0  0  0  0  0  0  0  0  0  0
   -2.1710    1.4360   -1.7530 C   0  0  0  0  0  0  0  0  0  0  0  0
   -1.0820    2.0020   -1.9480 C   0  0  0  0  0  0  0  0  0  0  0  0
    0.4530    2.3480   -0.9330 Br  0  0  0  0  0  0  0  0  0  0  0  0
   -0.8760    2.7470   -3.8090 Br  0  0  0  0  0  0  0  0  0  0  0  0
   -2.8520    0.3310    0.5170 C   0  0  0  0  0  0  0  0  0  0  0  0
   -2.0340    0.1420    1.4540 C   0  0  0  0  0  0  0  0  0  0  0  0
   -2.5240   -0.2890    2.8350 C   0  0  0  0  0  0  0  0  0  0  0  0
   -3.8990   -0.3920    2.7630 O   0  0  0  0  0  0  0  0  0  0  0  0
   -0.6410   -0.1110    1.1840 C   0  0  0  0  0  0  0  0  0  0  0  0
   -0.1190   -0.2820    0.0690 O   0  0  0  0  0  0  0  0  0  0  0  0
    0.2500   -0.1770    2.2260 N   0  0  0  0  0  0  0  0  0  0  0  0
    1.5670   -0.3690    2.1810 C   0  0  0  0  0  0  0  0  0  0  0  0
    1.9290   -0.3130    3.4980 O   0  0  0  0  0  0  0  0  0  0  0  0
    2.7240   -0.5780    1.6620 N   0  0  0  0  0  0  0  0  0  0  0  0
    3.7240   -0.7910    0.7980 C   0  0  0  0  0  0  0  0  0  0  0  0
    4.8270   -0.8990    1.4050 O   0  0  0  0  0  0  0  0  0  0  0  0
    3.6970   -0.8950   -0.5600 N   0  0  0  0  0  0  0  0  0  0  0  0
    4.9300   -1.1200   -1.2860 C   0  0  1  0  0  0  0  0  0  0  0  0
    4.7120   -1.9600   -2.5360 C   0  0  0  0  0  0  0  0  0  0  0  0
    5.0740   -0.5050   -2.6010 C   0  0  0  0  0  0  0  0  0  0  0  0
  1  2  1  0
  2  3  2  3
  3  4  1  0
  3  8  1  0
  4  5  2  3
  5  6  1  0
  5  7  1  0
  8  9  2  3
  9 10  1  0
  9 12  1  0
 10 11  1  0
 12 13  2  0
 12 14  1  0
 14 15  1  0
 15 16  2  0
 15 17  1  0
 17 18  1  0
 18 19  2  0
 18 20  1  0
 21 20  1  1
 21 22  1  0
 21 23  1  0
 22 23  1  0
M  END
