
     RDKit          3D

 25 27  0  0  0  0  0  0  0  0999 V2000
    4.3270    3.2510    1.4500 C   0  0  0  0  0  0  0  0  0  0  0  0
    3.8980    2.6910    0.1400 C   0  0  0  0  0  0  0  0  0  0  0  0
    4.1780    1.4210   -0.1330 C   0  0  0  0  0  0  0  0  0  0  0  0
    3.7770    0.7980   -1.4270 C   0  0  0  0  0  0  0  0  0  0  0  0
    2.8990   -0.3200   -1.1400 N   0  0  0  0  0  0  0  0  0  0  0  0
    1.5640   -0.1840   -1.0530 C   0  0  0  0  0  0  0  0  0  0  0  0
    0.7330   -1.2620   -0.7780 C   0  0  0  0  0  0  0  0  0  0  0  0
   -0.7270   -1.0750   -0.6990 C   0  0  0  0  0  0  0  0  0  0  0  0
   -1.5970   -1.9170   -1.3570 C   0  0  0  0  0  0  0  0  0  0  0  0
   -2.9580   -1.7610   -1.2910 C   0  0  0  0  0  0  0  0  0  0  0  0
   -3.4890   -0.7070   -0.5250 C   0  0  0  0  0  0  0  0  0  0  0  0
   -2.6550    0.1520    0.1450 C   0  0  0  0  0  0  0  0  0  0  0  0
   -3.1240    1.2560    0.9470 C   0  0  0  0  0  0  0  0  0  0  0  0
   -2.1920    1.9730    1.5250 O   0  0  0  0  0  0  0  0  0  0  0  0
   -4.4090    1.7130    1.2300 N   0  0  0  0  0  0  0  0  0  0  0  0
   -4.5520    2.9200    2.1280 C   0  0  0  0  0  0  0  0  0  0  0  0
   -5.6660    1.1990    0.7850 C   0  0  0  0  0  0  0  0  0  0  0  0
   -1.2680   -0.0570    0.0400 C   0  0  0  0  0  0  0  0  0  0  0  0
    1.2870   -2.5090   -0.5880 C   0  0  0  0  0  0  0  0  0  0  0  0
    0.7340   -3.7420   -0.3040 C   0  0  0  0  0  0  0  0  0  0  0  0
    1.7770   -4.6400   -0.2210 C   0  0  0  0  0  0  0  0  0  0  0  0
    2.9050   -3.9550   -0.4480 N   0  0  0  0  0  0  0  0  0  0  0  0
    2.6600   -2.6640   -0.6750 C   0  0  0  0  0  0  0  0  0  0  0  0
    3.4060   -1.5380   -0.9520 C   0  0  0  0  0  0  0  0  0  0  0  0
    4.6550   -1.6820   -1.0300 O   0  0  0  0  0  0  0  0  0  0  0  0
  1  2  1  0
  2  3  2  3
  3  4  1  0
  4  5  1  0
  5  6  1  0
  5 24  1  0
  6  7  2  0
  7  8  1  0
  7 19  1  0
  8  9  2  0
  8 18  1  0
  9 10  1  0
 10 11  2  0
 11 12  1  0
 12 13  1  0
 12 18  2  0
 13 14  2  0
 13 15  1  0
 15 16  1  0
 15 17  1  0
 19 20  1  0
 19 23  2  0
 20 21  2  0
 21 22  1  0
 22 23  1  0
 23 24  1  0
 24 25  2  0
M  END
