
     RDKit          3D

 29 30  0  0  0  0  0  0  0  0999 V2000
   -8.0260    1.3900   -1.5870 C   0  0  0  0  0  0  0  0  0  0  0  0
   -7.2760    0.5060   -0.9920 C   0  0  0  0  0  0  0  0  0  0  0  0
   -5.8900    0.6450   -0.8720 C   0  0  0  0  0  0  0  0  0  0  0  0
   -5.4220   -0.4560   -0.1970 C   0  0  0  0  0  0  0  0  0  0  0  0
   -3.9860   -0.7170    0.1510 C   0  0  0  0  0  0  0  0  0  0  0  0
   -3.1360    0.4270   -0.3570 C   0  0  0  0  0  0  0  0  0  0  0  0
   -1.7560    0.2190   -0.0460 N   0  0  0  0  0  0  0  0  0  0  0  0
   -1.2350    1.3630    0.6680 C   0  0  2  0  0  0  0  0  0  0  0  0
   -0.4680    2.2970   -0.2460 C   0  0  0  0  0  0  0  0  0  0  0  0
   -0.2540    0.8540    1.7010 C   0  0  0  0  0  0  0  0  0  0  0  0
    0.8810    0.1020    0.9870 C   0  0  0  0  0  0  0  0  0  0  0  0
    1.8020   -0.3650    2.0860 C   0  0  0  0  0  0  0  0  0  0  0  0
    2.9030   -1.0650    1.6860 O   0  0  0  0  0  0  0  0  0  0  0  0
    3.9720   -0.7640    0.9330 C   0  0  0  0  0  0  0  0  0  0  0  0
    4.1870    0.4690    0.3680 C   0  0  0  0  0  0  0  0  0  0  0  0
    5.3050    0.7590   -0.4090 C   0  0  0  0  0  0  0  0  0  0  0  0
    5.4870    2.0250   -0.9660 O   0  0  0  0  0  0  0  0  0  0  0  0
    6.6240    2.3090   -1.7530 C   0  0  0  0  0  0  0  0  0  0  0  0
    6.2340   -0.2290   -0.6210 C   0  0  0  0  0  0  0  0  0  0  0  0
    6.0740   -1.4780   -0.0840 C   0  0  0  0  0  0  0  0  0  0  0  0
    7.0880   -2.5700   -0.3090 C   0  0  0  0  0  0  0  0  0  0  0  0
    4.9600   -1.7190    0.6740 C   0  0  0  0  0  0  0  0  0  0  0  0
    4.8080   -3.0490    1.2350 C   0  0  0  0  0  0  0  0  0  0  0  0
    5.2800   -3.3130    2.3690 O   0  0  0  0  0  0  0  0  0  0  0  0
   -6.4850   -1.2250    0.0760 N   0  0  0  0  0  0  0  0  0  0  0  0
   -7.6260   -0.6840   -0.3850 C   0  0  0  0  0  0  0  0  0  0  0  0
   -8.8400   -1.2040   -0.2710 C   0  0  0  0  0  0  0  0  0  0  0  0
   -8.9610   -2.4090    0.3770 F   0  0  0  0  0  0  0  0  0  0  0  0
   -9.9380   -0.6170   -0.7510 F   0  0  0  0  0  0  0  0  0  0  0  0
  1  2  2  0
  2  3  1  0
  2 26  1  0
  3  4  2  0
  4  5  1  0
  4 25  1  0
  5  6  1  0
  6  7  1  0
  7  8  1  0
  8  9  1  6
  8 10  1  0
 10 11  1  0
 11 12  1  0
 12 13  1  0
 13 14  1  0
 14 15  2  0
 14 22  1  0
 15 16  1  0
 16 17  1  0
 16 19  2  0
 17 18  1  0
 19 20  1  0
 20 21  1  0
 20 22  2  0
 22 23  1  0
 23 24  2  0
 25 26  1  0
 26 27  2  3
 27 28  1  0
 27 29  1  0
M  CHG  1   7   1
M  END
