
     RDKit          3D

 28 29  0  0  0  0  0  0  0  0999 V2000
   -5.3470    2.8650    0.0000 C   0  0  0  0  0  0  0  0  0  0  0  0
   -4.5640    1.6680    0.5760 C   0  0  0  0  0  0  0  0  0  0  0  0
   -3.4200    1.3240   -0.3330 C   0  0  0  0  0  0  0  0  0  0  0  0
   -2.5090    0.2430    0.0730 C   0  0  2  0  0  0  0  0  0  0  0  0
   -1.9250    0.7250    1.3050 O   0  0  0  0  0  0  0  0  0  0  0  0
   -1.4100   -0.1490   -0.8020 C   0  0  0  0  0  0  0  0  0  0  0  0
   -0.3540    0.7870   -1.2340 C   0  0  2  0  0  0  0  0  0  0  0  0
   -0.8630    1.9430   -2.0400 C   0  0  0  0  0  0  0  0  0  0  0  0
    0.6010    0.0690   -2.1070 N   0  0  0  0  0  0  0  0  0  0  0  0
    1.6340   -0.5940   -1.3520 C   0  0  0  0  0  0  0  0  0  0  0  0
    2.7160    0.3030   -0.9320 C   0  0  0  0  0  0  0  0  0  0  0  0
    2.7960    1.6510   -1.2040 C   0  0  0  0  0  0  0  0  0  0  0  0
    3.8750    2.4020   -0.7530 C   0  0  0  0  0  0  0  0  0  0  0  0
    4.8630    1.8370   -0.0450 N   0  0  0  0  0  0  0  0  0  0  0  0
    4.8240    0.5290    0.2410 C   0  0  0  0  0  0  0  0  0  0  0  0
    5.8340   -0.0870    0.9750 C   0  0  0  0  0  0  0  0  0  0  0  0
    5.8330   -1.4190    1.2900 C   0  0  0  0  0  0  0  0  0  0  0  0
    6.8840   -1.9860    2.0360 O   0  0  0  0  0  0  0  0  0  0  0  0
    7.9510   -1.1320    2.4550 C   0  0  0  0  0  0  0  0  0  0  0  0
    8.8830   -1.8340    3.1630 F   0  0  0  0  0  0  0  0  0  0  0  0
    4.7780   -2.1890    0.8580 C   0  0  0  0  0  0  0  0  0  0  0  0
    3.7540   -1.5970    0.1210 C   0  0  0  0  0  0  0  0  0  0  0  0
    3.7710   -0.2480   -0.1890 C   0  0  0  0  0  0  0  0  0  0  0  0
   -3.2030   -1.0280    0.5740 C   0  0  1  0  0  0  0  0  0  0  0  0
   -4.1720   -1.6060   -0.4140 C   0  0  0  0  0  0  0  0  0  0  0  0
   -2.1320   -2.1650    0.6700 C   0  0  0  0  0  0  0  0  0  0  0  0
   -3.7600   -0.9820    1.9400 C   0  0  0  0  0  0  0  0  0  0  0  0
   -4.3380   -2.2780    2.1530 O   0  0  0  0  0  0  0  0  0  0  0  0
  1  2  1  0
  2  3  1  0
  3  4  1  0
  4  5  1  1
  4  6  1  0
  4 24  1  0
  6  7  1  0
  7  8  1  6
  7  9  1  0
  9 10  1  0
 10 11  1  0
 11 12  2  0
 11 23  1  0
 12 13  1  0
 13 14  2  0
 14 15  1  0
 15 16  2  0
 15 23  1  0
 16 17  1  0
 17 18  1  0
 17 21  2  0
 18 19  1  0
 19 20  1  0
 21 22  1  0
 22 23  2  0
 24 25  1  6
 24 26  1  0
 24 27  1  0
 27 28  1  0
M  CHG  1   9   1
M  END
