
     RDKit          3D

 29 30  0  0  0  0  0  0  0  0999 V2000
   -5.6170    0.3350    2.7160 C   0  0  0  0  0  0  0  0  0  0  0  0
   -4.7910   -0.0870    1.5540 C   0  0  0  0  0  0  0  0  0  0  0  0
   -3.4050   -0.0980    1.6780 C   0  0  0  0  0  0  0  0  0  0  0  0
   -2.5740   -0.4730    0.6520 C   0  0  0  0  0  0  0  0  0  0  0  0
   -1.0570   -0.4760    0.8180 C   0  0  0  0  0  0  0  0  0  0  0  0
   -0.5310    0.8110    0.4630 N   0  0  0  0  0  0  0  0  0  0  0  0
    0.8160    1.0290    0.2790 C   0  0  0  0  0  0  0  0  0  0  0  0
    1.8410   -0.0320    0.0560 C   0  0  1  0  0  0  0  0  0  0  0  0
    2.0040   -1.0180    1.1560 C   0  0  0  0  0  0  0  0  0  0  0  0
    3.0600   -2.0940    0.8820 C   0  0  0  0  0  0  0  0  0  0  0  0
    3.0100   -2.9100    2.0510 O   0  0  0  0  0  0  0  0  0  0  0  0
    1.4680   -0.7160   -1.2310 C   0  0  0  0  0  0  0  0  0  0  0  0
    2.3900   -0.4590   -2.3950 C   0  0  0  0  0  0  0  0  0  0  0  0
    3.7290   -0.8620   -1.8930 C   0  0  0  0  0  0  0  0  0  0  0  0
    4.4090   -1.8160   -2.3140 O   0  0  0  0  0  0  0  0  0  0  0  0
    4.1900   -0.0220   -0.8400 N   0  0  0  0  0  0  0  0  0  0  0  0
    5.6140    0.1320   -0.5570 C   0  0  0  0  0  0  0  0  0  0  0  0
    6.2040    1.2800   -1.3460 C   0  0  0  0  0  0  0  0  0  0  0  0
    7.6830    1.4220   -1.0350 C   0  0  0  0  0  0  0  0  0  0  0  0
    7.9150    1.6720    0.3140 O   0  0  0  0  0  0  0  0  0  0  0  0
    3.1750    0.6660   -0.1030 C   0  0  0  0  0  0  0  0  0  0  0  0
   -3.1600   -0.8450   -0.5280 C   0  0  0  0  0  0  0  0  0  0  0  0
   -4.5330   -0.8450   -0.6820 C   0  0  0  0  0  0  0  0  0  0  0  0
   -5.0200   -1.2290   -1.8810 F   0  0  0  0  0  0  0  0  0  0  0  0
   -5.3570   -0.4630    0.3670 C   0  0  0  0  0  0  0  0  0  0  0  0
   -6.8130   -0.4770    0.1690 C   0  0  0  0  0  0  0  0  0  0  0  0
   -7.3570    0.9190   -0.0130 C   0  0  0  0  0  0  0  0  0  0  0  0
   -6.7670    1.6150   -1.1960 C   0  0  0  0  0  0  0  0  0  0  0  0
   -7.0140    0.9530   -2.3730 F   0  0  0  0  0  0  0  0  0  0  0  0
  1  2  1  0
  2  3  2  0
  2 25  1  0
  3  4  1  0
  4  5  1  0
  4 22  2  0
  5  6  1  0
  6  7  1  0
  8  7  1  1
  8  9  1  0
  8 12  1  0
  8 21  1  0
  9 10  1  0
 10 11  1  0
 12 13  1  0
 13 14  1  0
 14 15  2  0
 14 16  1  0
 16 17  1  0
 16 21  1  0
 17 18  1  0
 18 19  1  0
 19 20  1  0
 22 23  1  0
 23 24  1  0
 23 25  2  0
 25 26  1  0
 26 27  1  0
 27 28  1  0
 28 29  1  0
M  CHG  1   6   1
M  END
