
     RDKit          3D

 29 30  0  0  0  0  0  0  0  0999 V2000
    9.2840    0.8550   -0.0060 C   0  0  0  0  0  0  0  0  0  0  0  0
    8.1710   -0.1630    0.0510 C   0  0  0  0  0  0  0  0  0  0  0  0
    6.8280    0.5140    0.1610 C   0  0  0  0  0  0  0  0  0  0  0  0
    6.6130    1.8760    0.2080 C   0  0  0  0  0  0  0  0  0  0  0  0
    5.2620    2.0490    0.3090 C   0  0  0  0  0  0  0  0  0  0  0  0
    4.7000    0.7700    0.3200 C   0  0  0  0  0  0  0  0  0  0  0  0
    3.2350    0.5200    0.4220 C   0  0  2  0  0  0  0  0  0  0  0  0
    3.0230   -0.5820    1.2980 O   0  0  0  0  0  0  0  0  0  0  0  0
    2.6870    0.1250   -0.9220 C   0  0  0  0  0  0  0  0  0  0  0  0
    1.2530   -0.1460   -0.6960 N   0  0  0  0  0  0  0  0  0  0  0  0
    0.4330    0.8970   -0.2600 C   0  0  0  0  0  0  0  0  0  0  0  0
    0.8510    2.0910   -0.0720 O   0  0  0  0  0  0  0  0  0  0  0  0
   -1.0200    0.7060    0.0340 C   0  0  0  0  0  0  0  0  0  0  0  0
   -1.3850   -0.6670   -0.2170 N   0  0  0  0  0  0  0  0  0  0  0  0
   -2.7150   -0.9050    0.3340 C   0  0  1  0  0  0  0  0  0  0  0  0
   -3.5090    0.3100    0.3080 C   0  0  0  0  0  0  0  0  0  0  0  0
   -4.9000    0.4230    0.7610 C   0  0  0  0  0  0  0  0  0  0  0  0
   -5.2880    1.9230    0.5750 C   0  0  2  0  0  0  0  0  0  0  0  0
   -5.1270    2.2090   -0.9060 C   0  0  0  0  0  0  0  0  0  0  0  0
   -4.3260    2.7850    1.3350 C   0  0  0  0  0  0  0  0  0  0  0  0
   -3.2530   -2.2250    0.0820 C   0  0  0  0  0  0  0  0  0  0  0  0
   -4.5270   -2.5870    0.4370 C   0  0  0  0  0  0  0  0  0  0  0  0
   -5.0340   -3.8910    0.2730 C   0  0  0  0  0  0  0  0  0  0  0  0
   -6.2970   -4.2210    0.6270 F   0  0  0  0  0  0  0  0  0  0  0  0
   -4.2290   -4.8670   -0.2660 C   0  0  0  0  0  0  0  0  0  0  0  0
   -2.9490   -4.5390   -0.6310 C   0  0  0  0  0  0  0  0  0  0  0  0
   -2.4920   -3.2580   -0.4570 C   0  0  0  0  0  0  0  0  0  0  0  0
   -1.2310   -3.0240   -0.8570 F   0  0  0  0  0  0  0  0  0  0  0  0
    5.6660   -0.0690    0.2310 O   0  0  0  0  0  0  0  0  0  0  0  0
  1  2  1  0
  2  3  1  0
  3  4  2  0
  3 29  1  0
  4  5  1  0
  5  6  2  0
  6  7  1  0
  6 29  1  0
  7  8  1  1
  7  9  1  0
  9 10  1  0
 10 11  1  0
 11 12  2  0
 11 13  1  0
 13 14  1  0
 14 15  1  0
 15 16  1  6
 15 21  1  0
 16 17  1  0
 17 18  1  0
 18 19  1  6
 18 20  1  0
 21 22  2  0
 21 27  1  0
 22 23  1  0
 23 24  1  0
 23 25  2  0
 25 26  1  0
 26 27  2  0
 27 28  1  0
M  CHG  1  14   1
M  END
