
     RDKit          3D

 29 30  0  0  0  0  0  0  0  0999 V2000
    7.8730   -2.3200    0.7790 C   0  0  0  0  0  0  0  0  0  0  0  0
    6.5170   -1.7960    0.4280 C   0  0  0  0  0  0  0  0  0  0  0  0
    5.5040   -2.6340    0.0010 C   0  0  0  0  0  0  0  0  0  0  0  0
    4.2620   -2.1320   -0.3170 C   0  0  0  0  0  0  0  0  0  0  0  0
    3.9720   -0.7830   -0.2250 C   0  0  0  0  0  0  0  0  0  0  0  0
    2.7300   -0.2770   -0.5420 O   0  0  0  0  0  0  0  0  0  0  0  0
    1.6870   -1.1350   -0.9820 C   0  0  0  0  0  0  0  0  0  0  0  0
    0.4500   -0.3590   -1.2620 C   0  0  0  0  0  0  0  0  0  0  0  0
   -0.5530   -0.9920   -1.6580 O   0  0  0  0  0  0  0  0  0  0  0  0
    0.3540    1.0360   -1.1030 N   0  0  0  0  0  0  0  0  0  0  0  0
   -0.8390    1.7830   -1.3710 C   0  0  0  0  0  0  0  0  0  0  0  0
   -2.0200    1.3350   -0.4940 C   0  0  0  0  0  0  0  0  0  0  0  0
   -3.1620    2.2120   -0.9010 C   0  0  1  0  0  0  0  0  0  0  0  0
   -3.4500    1.9520   -2.3730 C   0  0  0  0  0  0  0  0  0  0  0  0
   -4.3960    2.1840   -0.0880 C   0  0  0  0  0  0  0  0  0  0  0  0
   -5.1080    1.0790    0.0750 O   0  0  0  0  0  0  0  0  0  0  0  0
   -4.6940   -0.0330    0.7030 C   0  0  2  0  0  0  0  0  0  0  0  0
   -4.7660   -1.2210   -0.1970 C   0  0  0  0  0  0  0  0  0  0  0  0
   -4.3400   -2.4480    0.4180 N   0  0  0  0  0  0  0  0  0  0  0  0
   -5.4290   -0.2700    2.0280 C   0  0  0  0  0  0  0  0  0  0  0  0
   -6.9100   -0.4100    1.8760 C   0  0  1  0  0  0  0  0  0  0  0  0
   -7.3220   -1.4540    1.0890 F   0  0  0  0  0  0  0  0  0  0  0  0
   -7.5440   -0.5330    3.1010 F   0  0  0  0  0  0  0  0  0  0  0  0
    4.9930    0.0390    0.2030 C   0  0  0  0  0  0  0  0  0  0  0  0
    4.6970    1.3910    0.2940 C   0  0  0  0  0  0  0  0  0  0  0  0
    5.6670    2.2690    0.7140 C   0  0  0  0  0  0  0  0  0  0  0  0
    6.9220    1.7910    1.0390 C   0  0  0  0  0  0  0  0  0  0  0  0
    7.2330    0.4410    0.9530 C   0  0  0  0  0  0  0  0  0  0  0  0
    6.2470   -0.4440    0.5270 C   0  0  0  0  0  0  0  0  0  0  0  0
  1  2  1  0
  2  3  2  0
  2 29  1  0
  3  4  1  0
  4  5  2  0
  5  6  1  0
  5 24  1  0
  6  7  1  0
  7  8  1  0
  8  9  2  0
  8 10  1  0
 10 11  1  0
 11 12  1  0
 12 13  1  0
 13 14  1  6
 13 15  1  0
 15 16  1  0
 16 17  1  0
 17 18  1  6
 17 20  1  0
 18 19  1  0
 20 21  1  0
 21 22  1  6
 21 23  1  0
 24 25  2  0
 24 29  1  0
 25 26  1  0
 26 27  2  0
 27 28  1  0
 28 29  2  0
M  CHG  1  19   1
M  END
