
     RDKit          3D

 29 30  0  0  0  0  0  0  0  0999 V2000
    7.5670    2.7890    0.8710 C   0  0  0  0  0  0  0  0  0  0  0  0
    7.6110    1.8630   -0.3090 C   0  0  0  0  0  0  0  0  0  0  0  0
    6.7600    0.6710   -0.0580 C   0  0  0  0  0  0  0  0  0  0  0  0
    5.5210    0.5110   -0.6410 C   0  0  0  0  0  0  0  0  0  0  0  0
    4.7280   -0.5930   -0.4160 C   0  0  0  0  0  0  0  0  0  0  0  0
    3.3850   -0.7800   -1.0380 C   0  0  0  0  0  0  0  0  0  0  0  0
    2.3020   -0.4240   -0.1390 N   0  0  0  0  0  0  0  0  0  0  0  0
    1.3410   -1.4980   -0.2140 C   0  0  2  0  0  0  0  0  0  0  0  0
    1.0300   -1.7760   -1.6630 C   0  0  0  0  0  0  0  0  0  0  0  0
    0.1030   -1.2730    0.6100 C   0  0  2  0  0  0  0  0  0  0  0  0
   -0.7880   -2.4870    0.4170 C   0  0  0  0  0  0  0  0  0  0  0  0
   -0.6810   -0.0580    0.1680 C   0  0  0  0  0  0  0  0  0  0  0  0
   -1.8840    0.0400    1.0710 C   0  0  0  0  0  0  0  0  0  0  0  0
   -2.7220    1.0850    0.8290 O   0  0  0  0  0  0  0  0  0  0  0  0
   -3.2840    1.1090   -0.4390 C   0  0  0  0  0  0  0  0  0  0  0  0
   -4.1020   -0.0870   -0.7620 C   0  0  0  0  0  0  0  0  0  0  0  0
   -5.1830   -0.3360    0.0440 O   0  0  0  0  0  0  0  0  0  0  0  0
   -6.3430    0.3330    0.2970 C   0  0  0  0  0  0  0  0  0  0  0  0
   -6.6750    1.4990   -0.3200 C   0  0  0  0  0  0  0  0  0  0  0  0
   -7.8760    2.1600   -0.0300 C   0  0  0  0  0  0  0  0  0  0  0  0
   -8.7230    1.6200    0.8870 C   0  0  0  0  0  0  0  0  0  0  0  0
   -9.9090    2.2270    1.2060 F   0  0  0  0  0  0  0  0  0  0  0  0
   -8.3960    0.4410    1.5160 C   0  0  0  0  0  0  0  0  0  0  0  0
   -7.2400   -0.1970    1.2380 C   0  0  0  0  0  0  0  0  0  0  0  0
   -6.8970   -1.3710    1.8510 O   0  0  0  0  0  0  0  0  0  0  0  0
    5.2350   -1.5570    0.4390 C   0  0  0  0  0  0  0  0  0  0  0  0
    6.4520   -1.4220    1.0250 N   0  0  0  0  0  0  0  0  0  0  0  0
    7.2150   -0.3210    0.7850 C   0  0  0  0  0  0  0  0  0  0  0  0
    8.4260   -0.1790    1.3650 F   0  0  0  0  0  0  0  0  0  0  0  0
  1  2  1  0
  2  3  1  0
  3  4  2  0
  3 28  1  0
  4  5  1  0
  5  6  1  0
  5 26  2  0
  6  7  1  0
  7  8  1  0
  8  9  1  6
  8 10  1  0
 10 11  1  6
 10 12  1  0
 12 13  1  0
 13 14  1  0
 14 15  1  0
 15 16  1  0
 16 17  1  0
 17 18  1  0
 18 19  2  0
 18 24  1  0
 19 20  1  0
 20 21  2  0
 21 22  1  0
 21 23  1  0
 23 24  2  0
 24 25  1  0
 26 27  1  0
 27 28  2  0
 28 29  1  0
M  CHG  1   7   1
M  END
