
     RDKit          3D

 29 30  0  0  0  0  0  0  0  0999 V2000
    4.9400   -2.3360    0.4850 C   0  0  0  0  0  0  0  0  0  0  0  0
    4.6530   -1.0120   -0.1060 C   0  0  0  0  0  0  0  0  0  0  0  0
    3.1780   -0.6170   -0.0720 C   0  0  0  0  0  0  0  0  0  0  0  0
    2.3650   -1.4540    0.3760 C   0  0  0  0  0  0  0  0  0  0  0  0
    0.8880   -1.5410    0.6040 C   0  0  0  0  0  0  0  0  0  0  0  0
    0.0730   -0.3790    0.2820 C   0  0  0  0  0  0  0  0  0  0  0  0
   -1.3150   -0.3180    0.5100 N   0  0  0  0  0  0  0  0  0  0  0  0
   -2.2130   -0.8570   -0.4430 C   0  0  2  0  0  0  0  0  0  0  0  0
   -1.6480   -1.0420   -1.8350 C   0  0  0  0  0  0  0  0  0  0  0  0
   -3.4990   -0.0630   -0.5960 C   0  0  2  0  0  0  0  0  0  0  0  0
   -3.3840    1.2370   -1.2820 C   0  0  0  0  0  0  0  0  0  0  0  0
   -4.4070    2.1570   -0.9140 O   0  0  0  0  0  0  0  0  0  0  0  0
   -5.4490    1.8700   -0.0470 C   0  0  0  0  0  0  0  0  0  0  0  0
   -6.5850    2.6390    0.0490 C   0  0  0  0  0  0  0  0  0  0  0  0
   -7.5980    2.3190    0.9290 C   0  0  0  0  0  0  0  0  0  0  0  0
   -7.5110    1.2110    1.7510 C   0  0  0  0  0  0  0  0  0  0  0  0
   -6.3640    0.4570    1.6340 C   0  0  0  0  0  0  0  0  0  0  0  0
   -5.3370    0.7600    0.7570 C   0  0  0  0  0  0  0  0  0  0  0  0
   -4.1990    0.0100    0.6440 O   0  0  0  0  0  0  0  0  0  0  0  0
    0.5190   -2.7020    1.1090 C   0  0  0  0  0  0  0  0  0  0  0  0
   -0.7580   -3.2620    1.4920 C   0  0  0  0  0  0  0  0  0  0  0  0
    1.6130   -3.6300    1.3340 O   0  0  0  0  0  0  0  0  0  0  0  0
    2.9350    0.7450   -0.5570 C   0  0  2  0  0  0  0  0  0  0  0  0
    3.1680    0.7050   -2.0760 C   0  0  0  0  0  0  0  0  0  0  0  0
    3.9800    1.5920    0.0470 N   0  0  0  0  0  0  0  0  0  0  0  0
    4.7970    2.2720   -0.8970 C   0  0  0  0  0  0  0  0  0  0  0  0
    5.9350    3.0180   -0.1970 C   0  0  1  0  0  0  0  0  0  0  0  0
    6.7430    2.1530    0.5010 F   0  0  0  0  0  0  0  0  0  0  0  0
    6.6980    3.7190   -1.0870 F   0  0  0  0  0  0  0  0  0  0  0  0
  1  2  1  0
  2  3  1  0
  3  4  2  3
  3 23  1  0
  4  5  1  0
  5  6  1  0
  5 20  2  3
  6  7  1  0
  7  8  1  0
  8  9  1  6
  8 10  1  0
 10 11  1  1
 10 19  1  0
 11 12  1  0
 12 13  1  0
 13 14  2  0
 13 18  1  0
 14 15  1  0
 15 16  2  0
 16 17  1  0
 17 18  2  0
 18 19  1  0
 20 21  1  0
 20 22  1  0
 23 24  1  6
 23 25  1  0
 25 26  1  0
 26 27  1  0
 27 28  1  6
 27 29  1  0
M  CHG  1   7   1
M  END
