
     RDKit          3D

 36 39  0  0  0  0  0  0  0  0999 V2000
    7.6630    2.8300   -2.8310 C   0  0  0  0  0  0  0  0  0  0  0  0
    7.2390    1.4890   -2.6980 O   0  0  0  0  0  0  0  0  0  0  0  0
    6.0220    1.1630   -2.0870 C   0  0  0  0  0  0  0  0  0  0  0  0
    5.3480    2.1270   -1.6740 O   0  0  0  0  0  0  0  0  0  0  0  0
    5.5840   -0.2510   -1.9510 C   0  0  0  0  0  0  0  0  0  0  0  0
    4.2720   -0.2440   -1.2840 N   0  0  0  0  0  0  0  0  0  0  0  0
    3.1780    0.4280   -1.8740 C   0  0  0  0  0  0  0  0  0  0  0  0
    3.3500    1.0120   -2.9640 O   0  0  0  0  0  0  0  0  0  0  0  0
    1.8430    0.4670   -1.2530 C   0  0  0  0  0  0  0  0  0  0  0  0
    1.4480   -0.1250   -0.0790 C   0  0  0  0  0  0  0  0  0  0  0  0
    0.1180    0.1580    0.1380 C   0  0  0  0  0  0  0  0  0  0  0  0
   -0.7240   -0.2700    1.2520 C   0  0  1  0  0  0  0  0  0  0  0  0
   -1.3510    0.7460    2.1030 C   0  0  0  0  0  0  0  0  0  0  0  0
   -0.5370    1.7160    2.8740 C   0  0  0  0  0  0  0  0  0  0  0  0
    0.2800    2.6160    2.0370 C   0  0  0  0  0  0  0  0  0  0  0  0
    1.0650    3.5950    2.8400 C   0  0  0  0  0  0  0  0  0  0  0  0
    0.7320    4.8590    3.2600 C   0  0  0  0  0  0  0  0  0  0  0  0
    1.8200    5.3220    3.9760 C   0  0  0  0  0  0  0  0  0  0  0  0
    2.7450    4.4020    3.9870 O   0  0  0  0  0  0  0  0  0  0  0  0
    2.3280    3.3390    3.3090 C   0  0  0  0  0  0  0  0  0  0  0  0
   -1.8270   -1.0670    0.6270 N   0  0  0  0  0  0  0  0  0  0  0  0
   -1.9440   -2.4530    0.8040 C   0  0  0  0  0  0  0  0  0  0  0  0
   -1.0730   -3.0100    1.5190 O   0  0  0  0  0  0  0  0  0  0  0  0
   -2.9850   -3.2840    0.2290 C   0  0  0  0  0  0  0  0  0  0  0  0
   -2.9130   -4.6440    0.4280 C   0  0  0  0  0  0  0  0  0  0  0  0
   -3.8390   -5.5380   -0.0740 C   0  0  0  0  0  0  0  0  0  0  0  0
   -3.7410   -6.8650    0.1360 F   0  0  0  0  0  0  0  0  0  0  0  0
   -4.8790   -5.0240   -0.8090 C   0  0  0  0  0  0  0  0  0  0  0  0
   -4.9610   -3.6690   -1.0130 C   0  0  0  0  0  0  0  0  0  0  0  0
   -5.8920   -2.9150   -1.7020 C   0  0  0  0  0  0  0  0  0  0  0  0
   -7.0840   -3.4040   -2.4250 C   0  0  0  0  0  0  0  0  0  0  0  0
   -5.4760   -1.6130   -1.5760 C   0  0  0  0  0  0  0  0  0  0  0  0
   -4.3760   -1.5780   -0.8660 O   0  0  0  0  0  0  0  0  0  0  0  0
   -4.0240   -2.7850   -0.5020 C   0  0  0  0  0  0  0  0  0  0  0  0
   -0.2810    0.9270   -0.9200 C   0  0  0  0  0  0  0  0  0  0  0  0
    0.7570    1.1010   -1.7370 N   0  0  0  0  0  0  0  0  0  0  0  0
  1  2  1  0
  2  3  1  0
  3  4  2  0
  3  5  1  0
  5  6  1  0
  6  7  1  0
  7  8  2  0
  7  9  1  0
  9 10  2  0
  9 36  1  0
 10 11  1  0
 11 12  1  0
 11 35  2  0
 12 13  1  6
 12 21  1  0
 13 14  1  0
 14 15  1  0
 15 16  1  0
 16 17  1  0
 16 20  2  0
 17 18  2  0
 18 19  1  0
 19 20  1  0
 21 22  1  0
 22 23  2  0
 22 24  1  0
 24 25  2  0
 24 34  1  0
 25 26  1  0
 26 27  1  0
 26 28  2  0
 28 29  1  0
 29 30  1  0
 29 34  2  0
 30 31  1  0
 30 32  2  0
 32 33  1  0
 33 34  1  0
 35 36  1  0
M  END
