
     RDKit          3D

 36 39  0  0  0  0  0  0  0  0999 V2000
   -0.9550    2.7150   -2.0440 C   0  0  0  0  0  0  0  0  0  0  0  0
   -1.8920    2.1980   -1.0190 C   0  0  0  0  0  0  0  0  0  0  0  0
   -1.5060    1.2720   -0.1180 C   0  0  0  0  0  0  0  0  0  0  0  0
   -2.4500    0.8220    0.8270 N   0  0  0  0  0  0  0  0  0  0  0  0
   -2.3280   -0.1330    1.8360 C   0  0  0  0  0  0  0  0  0  0  0  0
   -1.2360   -0.7420    1.9510 O   0  0  0  0  0  0  0  0  0  0  0  0
   -3.4360   -0.4740    2.7980 C   0  0  0  0  0  0  0  0  0  0  0  0
   -4.1790   -1.6560    2.3270 C   0  0  0  0  0  0  0  0  0  0  0  0
   -3.7310   -2.9430    2.1760 C   0  0  0  0  0  0  0  0  0  0  0  0
   -4.8130   -3.6840    1.7240 C   0  0  0  0  0  0  0  0  0  0  0  0
   -5.8700   -2.7980    1.6250 C   0  0  0  0  0  0  0  0  0  0  0  0
   -5.4920   -1.5660    1.9890 N   0  0  0  0  0  0  0  0  0  0  0  0
   -0.1440    0.8290   -0.1460 C   0  0  0  0  0  0  0  0  0  0  0  0
    0.6380    1.3240   -1.0370 O   0  0  0  0  0  0  0  0  0  0  0  0
    0.4660   -0.0720    0.6730 O   0  0  0  0  0  0  0  0  0  0  0  0
    1.8330   -0.3420    0.4670 C   0  0  0  0  0  0  0  0  0  0  0  0
    2.2450   -1.4750   -0.2480 C   0  0  0  0  0  0  0  0  0  0  0  0
    3.6080   -1.6940   -0.4290 C   0  0  0  0  0  0  0  0  0  0  0  0
    4.5560   -0.8210    0.0780 C   0  0  0  0  0  0  0  0  0  0  0  0
    5.9780   -1.0890   -0.1790 C   0  0  0  0  0  0  0  0  0  0  0  0
    7.0420   -0.3380    0.2800 C   0  0  0  0  0  0  0  0  0  0  0  0
    8.1960   -0.9580   -0.2090 C   0  0  0  0  0  0  0  0  0  0  0  0
    7.7770   -2.0430   -0.9300 C   0  0  0  0  0  0  0  0  0  0  0  0
    8.6240   -2.9960   -1.6330 C   0  0  0  0  0  0  0  0  0  0  0  0
    9.8520   -2.8890   -1.6220 O   0  0  0  0  0  0  0  0  0  0  0  0
    8.0190   -4.0350   -2.3190 O   0  0  0  0  0  0  0  0  0  0  0  0
    6.4720   -2.0730   -0.8790 O   0  0  0  0  0  0  0  0  0  0  0  0
    4.1190    0.2660    0.7660 C   0  0  0  0  0  0  0  0  0  0  0  0
    2.7810    0.5140    0.9650 C   0  0  0  0  0  0  0  0  0  0  0  0
    2.3830    1.6010    1.6640 F   0  0  0  0  0  0  0  0  0  0  0  0
   -3.2320    2.7520   -1.0460 C   0  0  0  0  0  0  0  0  0  0  0  0
   -3.8530    2.8320   -2.3090 C   0  0  0  0  0  0  0  0  0  0  0  0
   -5.1060    3.3660   -2.4890 C   0  0  0  0  0  0  0  0  0  0  0  0
   -5.8010    3.8470   -1.4130 C   0  0  0  0  0  0  0  0  0  0  0  0
   -5.1850    3.7630   -0.1930 C   0  0  0  0  0  0  0  0  0  0  0  0
   -3.9490    3.2330   -0.0410 N   0  0  0  0  0  0  0  0  0  0  0  0
  1  2  1  0
  2  3  2  3
  2 31  1  0
  3  4  1  0
  3 13  1  0
  4  5  1  0
  5  6  2  0
  5  7  1  0
  7  8  1  0
  8  9  2  0
  8 12  1  0
  9 10  1  0
 10 11  2  0
 11 12  1  0
 13 14  2  0
 13 15  1  0
 15 16  1  0
 16 17  2  0
 16 29  1  0
 17 18  1  0
 18 19  2  0
 19 20  1  0
 19 28  1  0
 20 21  2  0
 20 27  1  0
 21 22  1  0
 22 23  2  0
 23 24  1  0
 23 27  1  0
 24 25  2  0
 24 26  1  0
 28 29  2  0
 29 30  1  0
 31 32  2  0
 31 36  1  0
 32 33  1  0
 33 34  2  0
 34 35  1  0
 35 36  2  0
M  END
