
     RDKit          3D

 36 39  0  0  0  0  0  0  0  0999 V2000
   -7.7780    3.4710   -0.5100 C   0  0  0  0  0  0  0  0  0  0  0  0
   -6.4310    2.8630   -0.5310 C   0  0  0  0  0  0  0  0  0  0  0  0
   -6.3120    1.4920   -0.2670 C   0  0  0  0  0  0  0  0  0  0  0  0
   -5.0950    0.8500   -0.2680 C   0  0  0  0  0  0  0  0  0  0  0  0
   -4.8860   -0.4790   -0.0230 O   0  0  0  0  0  0  0  0  0  0  0  0
   -5.8900   -1.3940    0.2690 C   0  0  1  0  0  0  0  0  0  0  0  0
   -5.9580   -2.5030   -0.7780 C   0  0  0  0  0  0  0  0  0  0  0  0
   -5.7010   -2.0420    1.6340 C   0  0  0  0  0  0  0  0  0  0  0  0
   -3.9440    1.6120   -0.5440 C   0  0  0  0  0  0  0  0  0  0  0  0
   -2.6390    0.9430   -0.5480 C   0  0  0  0  0  0  0  0  0  0  0  0
   -2.3630   -0.3370   -0.3230 N   0  0  0  0  0  0  0  0  0  0  0  0
   -0.9900   -0.5650   -0.4240 C   0  0  0  0  0  0  0  0  0  0  0  0
   -0.3990   -1.8480   -0.2340 C   0  0  0  0  0  0  0  0  0  0  0  0
    0.7820   -2.2990   -0.2660 C   0  0  0  0  0  0  0  0  0  0  0  0
    2.0750   -1.7440   -0.5050 C   0  0  0  0  0  0  0  0  0  0  0  0
    2.3730   -0.5630   -0.7640 O   0  0  0  0  0  0  0  0  0  0  0  0
    3.2450   -2.6320   -0.4520 N   0  0  0  0  0  0  0  0  0  0  0  0
    4.5570   -2.0740   -0.6820 C   0  0  0  0  0  0  0  0  0  0  0  0
    4.9020   -1.1370    0.3990 C   0  0  0  0  0  0  0  0  0  0  0  0
    4.1450   -0.8640    1.5040 C   0  0  0  0  0  0  0  0  0  0  0  0
    4.5980    0.0220    2.4550 C   0  0  0  0  0  0  0  0  0  0  0  0
    3.8580    0.2550    3.4810 O   0  0  0  0  0  0  0  0  0  0  0  0
    5.7520    0.6120    2.3170 O   0  0  0  0  0  0  0  0  0  0  0  0
    6.5190    0.3900    1.2830 C   0  0  0  0  0  0  0  0  0  0  0  0
    6.1430   -0.4830    0.2820 C   0  0  0  0  0  0  0  0  0  0  0  0
    6.9700   -0.6870   -0.7800 O   0  0  0  0  0  0  0  0  0  0  0  0
    8.1960   -0.0950   -0.9820 C   0  0  0  0  0  0  0  0  0  0  0  0
    8.5830    0.8310    0.0910 C   0  0  0  0  0  0  0  0  0  0  0  0
    9.8880    1.5500    0.0170 C   0  0  0  0  0  0  0  0  0  0  0  0
   10.2740    2.3470    0.8920 O   0  0  0  0  0  0  0  0  0  0  0  0
    7.8060    1.0480    1.1280 C   0  0  0  0  0  0  0  0  0  0  0  0
   -0.4650    0.6440   -0.7200 C   0  0  0  0  0  0  0  0  0  0  0  0
   -1.4830    1.5620   -0.7940 N   0  0  0  0  0  0  0  0  0  0  0  0
   -4.0370    2.9570   -0.8040 C   0  0  0  0  0  0  0  0  0  0  0  0
   -5.2830    3.5680   -0.7950 C   0  0  0  0  0  0  0  0  0  0  0  0
   -5.3920    4.9020   -1.0510 F   0  0  0  0  0  0  0  0  0  0  0  0
  1  2  1  0
  2  3  2  0
  2 35  1  0
  3  4  1  0
  4  5  1  0
  4  9  2  0
  5  6  1  0
  6  7  1  6
  6  8  1  0
  9 10  1  0
  9 34  1  0
 10 11  2  0
 10 33  1  0
 11 12  1  0
 12 13  1  0
 12 32  2  0
 13 14  2  3
 14 15  1  0
 15 16  2  0
 15 17  1  0
 17 18  1  0
 18 19  1  0
 19 20  2  0
 19 25  1  0
 20 21  1  0
 21 22  2  0
 21 23  1  0
 23 24  1  0
 24 25  2  0
 24 31  1  0
 25 26  1  0
 26 27  1  0
 27 28  1  0
 28 29  1  0
 28 31  2  0
 29 30  2  0
 32 33  1  0
 34 35  2  0
 35 36  1  0
M  END
