
     RDKit          3D

 36 39  0  0  0  0  0  0  0  0999 V2000
    8.9330    1.5010   -1.0060 C   0  0  0  0  0  0  0  0  0  0  0  0
    7.9740    0.7420   -1.8620 C   0  0  0  0  0  0  0  0  0  0  0  0
    8.2060    0.6290   -3.1550 C   0  0  0  0  0  0  0  0  0  0  0  0
    7.3600   -0.0470   -3.9410 F   0  0  0  0  0  0  0  0  0  0  0  0
    6.7620    0.1080   -1.2900 C   0  0  0  0  0  0  0  0  0  0  0  0
    5.8780    1.1970   -0.6330 C   0  0  0  0  0  0  0  0  0  0  0  0
    4.8170    0.7920   -0.1100 O   0  0  0  0  0  0  0  0  0  0  0  0
    3.7640    0.3880    0.3970 C   0  0  0  0  0  0  0  0  0  0  0  0
    2.4500    0.9740   -0.1620 C   0  0  0  0  0  0  0  0  0  0  0  0
    1.2930    0.3720    0.5610 C   0  0  0  0  0  0  0  0  0  0  0  0
    0.5940    1.0580    1.5240 C   0  0  0  0  0  0  0  0  0  0  0  0
   -0.4720    0.4510    2.1620 C   0  0  0  0  0  0  0  0  0  0  0  0
   -0.8710   -0.8390    1.8680 C   0  0  0  0  0  0  0  0  0  0  0  0
   -1.9580   -1.4460    2.5310 N   0  0  0  0  0  0  0  0  0  0  0  0
   -3.1930   -1.3230    2.0190 C   0  0  0  0  0  0  0  0  0  0  0  0
   -4.2940   -1.8880    2.6080 C   0  0  0  0  0  0  0  0  0  0  0  0
   -4.1130   -2.6060    3.7700 C   0  0  0  0  0  0  0  0  0  0  0  0
   -5.0660   -3.1500    4.3660 O   0  0  0  0  0  0  0  0  0  0  0  0
   -2.8690   -2.7270    4.2810 N   0  0  0  0  0  0  0  0  0  0  0  0
   -1.8070   -2.1550    3.6690 C   0  0  0  0  0  0  0  0  0  0  0  0
   -0.6370   -2.2550    4.1280 O   0  0  0  0  0  0  0  0  0  0  0  0
   -5.6550   -1.7610    2.0580 C   0  0  0  0  0  0  0  0  0  0  0  0
   -5.7010   -0.9670    0.8130 C   0  0  0  0  0  0  0  0  0  0  0  0
   -4.6720   -0.4100    0.2170 C   0  0  0  0  0  0  0  0  0  0  0  0
   -4.8440    0.3640   -1.0300 C   0  0  0  0  0  0  0  0  0  0  0  0
   -3.9280    1.0160   -1.8030 C   0  0  0  0  0  0  0  0  0  0  0  0
   -4.5680    1.6060   -2.8850 C   0  0  0  0  0  0  0  0  0  0  0  0
   -5.9030    1.2610   -2.7000 C   0  0  0  0  0  0  0  0  0  0  0  0
   -6.9760    1.6850   -3.6390 C   0  0  0  0  0  0  0  0  0  0  0  0
   -7.5220    2.8740   -3.1410 O   0  0  0  0  0  0  0  0  0  0  0  0
   -6.0300    0.5360   -1.6080 O   0  0  0  0  0  0  0  0  0  0  0  0
   -3.3580   -0.5610    0.7930 C   0  0  0  0  0  0  0  0  0  0  0  0
   -2.3510   -0.0360    0.2410 O   0  0  0  0  0  0  0  0  0  0  0  0
   -0.1710   -1.5390    0.8970 C   0  0  0  0  0  0  0  0  0  0  0  0
    0.8890   -0.9290    0.2650 C   0  0  0  0  0  0  0  0  0  0  0  0
    1.6170   -1.6440   -0.7380 N   0  0  0  0  0  0  0  0  0  0  0  0
  1  2  1  0
  2  3  2  3
  2  5  1  0
  3  4  1  0
  5  6  1  0
  6  7  1  0
  7  8  1  0
  8  9  1  0
  9 10  1  0
 10 11  2  0
 10 35  1  0
 11 12  1  0
 12 13  2  0
 13 14  1  0
 13 34  1  0
 14 15  1  0
 14 20  1  0
 15 16  2  0
 15 32  1  0
 16 17  1  0
 16 22  1  0
 17 18  2  0
 17 19  1  0
 19 20  1  0
 20 21  2  0
 22 23  1  0
 23 24  2  0
 24 25  1  0
 24 32  1  0
 25 26  2  0
 25 31  1  0
 26 27  1  0
 27 28  2  0
 28 29  1  0
 28 31  1  0
 29 30  1  0
 32 33  2  0
 34 35  2  0
 35 36  1  0
M  END
