
     RDKit          3D

 36 39  0  0  0  0  0  0  0  0999 V2000
    4.4300   -5.3490    0.6150 C   0  0  0  0  0  0  0  0  0  0  0  0
    3.6810   -4.1110    0.5520 N   0  0  0  0  0  0  0  0  0  0  0  0
    4.3660   -2.9670    0.7410 C   0  0  0  0  0  0  0  0  0  0  0  0
    5.8030   -2.9680    1.0070 C   0  0  1  0  0  0  0  0  0  0  0  0
    6.7260   -2.0170    0.3480 C   0  0  0  0  0  0  0  0  0  0  0  0
    6.4390   -1.9080    1.8490 C   0  0  0  0  0  0  0  0  0  0  0  0
    3.6680   -1.7960    0.6820 C   0  0  0  0  0  0  0  0  0  0  0  0
    2.2770   -1.7310    0.4330 C   0  0  0  0  0  0  0  0  0  0  0  0
    1.6720   -0.4230    0.2900 C   0  0  0  0  0  0  0  0  0  0  0  0
    2.4930    0.5330   -0.0980 O   0  0  0  0  0  0  0  0  0  0  0  0
    0.3410   -0.1000    0.5220 N   0  0  0  0  0  0  0  0  0  0  0  0
   -0.0150    1.2970    0.0480 C   0  0  0  0  0  0  0  0  0  0  0  0
   -0.4050    1.1130   -1.3970 C   0  0  0  0  0  0  0  0  0  0  0  0
   -0.7740    2.4390   -2.0000 C   0  0  0  0  0  0  0  0  0  0  0  0
   -1.9370    3.0390   -1.2490 C   0  0  0  0  0  0  0  0  0  0  0  0
   -2.2710    4.3500   -1.8940 C   0  0  0  0  0  0  0  0  0  0  0  0
   -3.1590    4.5590   -2.9100 C   0  0  0  0  0  0  0  0  0  0  0  0
   -3.1390    5.9020   -3.1760 C   0  0  0  0  0  0  0  0  0  0  0  0
   -2.2330    6.4610   -2.3040 C   0  0  0  0  0  0  0  0  0  0  0  0
   -1.7400    5.4950   -1.5580 O   0  0  0  0  0  0  0  0  0  0  0  0
   -0.6570   -0.7880    1.2140 C   0  0  0  0  0  0  0  0  0  0  0  0
   -0.5560   -1.9090    1.7380 O   0  0  0  0  0  0  0  0  0  0  0  0
   -2.0030   -0.1810    1.3840 C   0  0  0  0  0  0  0  0  0  0  0  0
   -3.0190   -0.4280    0.4960 C   0  0  0  0  0  0  0  0  0  0  0  0
   -4.2550    0.1580    0.7270 C   0  0  0  0  0  0  0  0  0  0  0  0
   -5.4010   -0.0310   -0.1470 C   0  0  0  0  0  0  0  0  0  0  0  0
   -6.5650    0.6050    0.1860 F   0  0  0  0  0  0  0  0  0  0  0  0
   -5.3780   -0.7700   -1.2260 C   0  0  0  0  0  0  0  0  0  0  0  0
   -6.5230   -0.8940   -2.0040 O   0  0  0  0  0  0  0  0  0  0  0  0
   -4.3690    0.9610    1.8570 C   0  0  0  0  0  0  0  0  0  0  0  0
   -3.3660    1.1880    2.7080 N   0  0  0  0  0  0  0  0  0  0  0  0
   -2.1790    0.6230    2.4840 C   0  0  0  0  0  0  0  0  0  0  0  0
   -1.2230    0.8360    3.2910 O   0  0  0  0  0  0  0  0  0  0  0  0
    1.6360   -2.9130    0.2470 C   0  0  0  0  0  0  0  0  0  0  0  0
    2.3570   -4.0970    0.3120 C   0  0  0  0  0  0  0  0  0  0  0  0
    1.7140   -5.1760    0.1340 O   0  0  0  0  0  0  0  0  0  0  0  0
  1  2  1  0
  2  3  1  0
  2 35  1  0
  4  3  1  6
  3  7  2  0
  4  5  1  0
  4  6  1  0
  5  6  1  0
  7  8  1  0
  8  9  1  0
  8 34  2  0
  9 10  2  0
  9 11  1  0
 11 12  1  0
 11 21  1  0
 12 13  1  0
 13 14  1  0
 14 15  1  0
 15 16  1  0
 16 17  2  0
 16 20  1  0
 17 18  1  0
 18 19  2  0
 19 20  1  0
 21 22  2  0
 21 23  1  0
 23 24  2  0
 23 32  1  0
 24 25  1  0
 25 26  1  0
 25 30  2  0
 26 27  1  0
 26 28  2  3
 28 29  1  0
 30 31  1  0
 31 32  1  0
 32 33  2  0
 34 35  1  0
 35 36  2  0
M  END
