
     RDKit          3D

 36 39  0  0  0  0  0  0  0  0999 V2000
    3.8110    4.2310   -3.3770 C   0  0  0  0  0  0  0  0  0  0  0  0
    5.1650    4.0710   -3.0940 O   0  0  0  0  0  0  0  0  0  0  0  0
    5.7230    3.7390   -1.8900 C   0  0  0  0  0  0  0  0  0  0  0  0
    4.9650    3.5200   -0.7690 C   0  0  0  0  0  0  0  0  0  0  0  0
    5.5380    3.1860    0.4340 C   0  0  0  0  0  0  0  0  0  0  0  0
    4.8050    2.9410    1.6170 N   0  0  0  0  0  0  0  0  0  0  0  0
    3.3910    3.0720    1.7410 C   0  0  0  0  0  0  0  0  0  0  0  0
    2.8860    4.2760    2.1680 C   0  0  0  0  0  0  0  0  0  0  0  0
    3.6820    5.4100    2.5220 C   0  0  0  0  0  0  0  0  0  0  0  0
    4.3570    6.3390    2.8240 N   0  0  0  0  0  0  0  0  0  0  0  0
    1.4830    4.3550    2.2710 C   0  0  0  0  0  0  0  0  0  0  0  0
    0.7010    3.3140    1.9710 N   0  0  0  0  0  0  0  0  0  0  0  0
    1.1660    2.1350    1.5550 C   0  0  0  0  0  0  0  0  0  0  0  0
    0.3320    1.0690    1.2510 C   0  0  0  0  0  0  0  0  0  0  0  0
    0.8430   -0.1480    0.8200 C   0  0  0  0  0  0  0  0  0  0  0  0
   -0.0470   -1.1800    0.5340 O   0  0  0  0  0  0  0  0  0  0  0  0
   -1.4410   -0.9890    0.6800 C   0  0  0  0  0  0  0  0  0  0  0  0
   -2.2550   -2.2160    0.3380 C   0  0  0  0  0  0  0  0  0  0  0  0
   -3.7100   -1.8680    0.5510 C   0  0  0  0  0  0  0  0  0  0  0  0
   -4.6360   -2.9170    0.2840 N   0  0  1  0  0  0  0  0  0  0  0  0
   -5.9680   -2.2870    0.3290 C   0  0  0  0  0  0  0  0  0  0  0  0
   -6.9380   -2.9150   -0.6180 C   0  0  0  0  0  0  0  0  0  0  0  0
   -6.7960   -4.3530   -0.5140 N   0  0  1  0  0  0  0  0  0  0  0  0
   -7.8380   -4.9810   -1.3040 C   0  0  0  0  0  0  0  0  0  0  0  0
   -5.5010   -4.7100   -1.0470 C   0  0  0  0  0  0  0  0  0  0  0  0
   -4.5080   -3.5650   -0.9820 C   0  0  0  0  0  0  0  0  0  0  0  0
    2.2090   -0.2680    0.7020 C   0  0  0  0  0  0  0  0  0  0  0  0
    2.6990   -1.4840    0.2700 O   0  0  0  0  0  0  0  0  0  0  0  0
    4.0190   -1.8540    0.0690 C   0  0  0  0  0  0  0  0  0  0  0  0
    3.0300    0.8010    1.0090 C   0  0  0  0  0  0  0  0  0  0  0  0
    2.5530    2.0150    1.4380 C   0  0  0  0  0  0  0  0  0  0  0  0
    6.9270    3.0760    0.4750 C   0  0  0  0  0  0  0  0  0  0  0  0
    7.6930    2.6490    1.9970 Cl  0  0  0  0  0  0  0  0  0  0  0  0
    7.6870    3.2990   -0.6620 C   0  0  0  0  0  0  0  0  0  0  0  0
    7.1160    3.6330   -1.8630 C   0  0  0  0  0  0  0  0  0  0  0  0
    8.0910    3.9090   -3.2850 Cl  0  0  0  0  0  0  0  0  0  0  0  0
  1  2  1  0
  2  3  1  0
  3  4  2  0
  3 35  1  0
  4  5  1  0
  5  6  1  0
  5 32  2  0
  6  7  1  0
  7  8  2  0
  7 31  1  0
  8  9  1  0
  8 11  1  0
  9 10  3  0
 11 12  2  0
 12 13  1  0
 13 14  2  0
 13 31  1  0
 14 15  1  0
 15 16  1  0
 15 27  2  0
 16 17  1  0
 17 18  1  0
 18 19  1  0
 20 19  1  6
 20 21  1  0
 20 26  1  0
 21 22  1  0
 22 23  1  0
 23 24  1  6
 23 25  1  0
 25 26  1  0
 27 28  1  0
 27 30  1  0
 28 29  1  0
 30 31  2  0
 32 33  1  0
 32 34  1  0
 34 35  2  0
 35 36  1  0
M  CHG  2  20   1  23   1
M  END
