
     RDKit          3D

 36 39  0  0  0  0  0  0  0  0999 V2000
   -2.9130   -2.4760   -2.4890 C   0  0  0  0  0  0  0  0  0  0  0  0
   -4.0360   -2.3050   -1.5560 C   0  0  0  0  0  0  0  0  0  0  0  0
   -4.0820   -1.1350   -0.6670 C   0  0  0  0  0  0  0  0  0  0  0  0
   -3.2130   -0.1530   -0.5520 C   0  0  0  0  0  0  0  0  0  0  0  0
   -2.0140   -0.0920   -1.3550 N   0  0  0  0  0  0  0  0  0  0  0  0
   -0.7550   -0.2240   -0.7860 C   0  0  0  0  0  0  0  0  0  0  0  0
   -0.7980   -1.0990    0.3860 O   0  0  0  0  0  0  0  0  0  0  0  0
    0.4250    0.2750   -1.0980 C   0  0  0  0  0  0  0  0  0  0  0  0
    1.4540   -0.1610   -0.1900 N   0  0  0  0  0  0  0  0  0  0  0  0
    2.8060    0.1410   -0.1700 C   0  0  0  0  0  0  0  0  0  0  0  0
    3.2770    0.9000   -1.0260 O   0  0  0  0  0  0  0  0  0  0  0  0
    3.7260   -0.4240    0.8560 C   0  0  0  0  0  0  0  0  0  0  0  0
    3.3130   -1.1180    1.9420 C   0  0  0  0  0  0  0  0  0  0  0  0
    4.3010   -1.6040    2.8060 C   0  0  0  0  0  0  0  0  0  0  0  0
    5.6060   -1.4020    2.5850 N   0  0  0  0  0  0  0  0  0  0  0  0
    6.0630   -0.7060    1.5000 C   0  0  0  0  0  0  0  0  0  0  0  0
    7.5230   -0.5250    1.2990 C   0  0  2  0  0  0  0  0  0  0  0  0
    7.9500    0.9310    1.5010 C   0  0  0  0  0  0  0  0  0  0  0  0
    8.0230    0.2720    0.1390 C   0  0  0  0  0  0  0  0  0  0  0  0
    5.0920   -0.2290    0.6520 C   0  0  0  0  0  0  0  0  0  0  0  0
    0.6370    1.1430   -2.2030 C   0  0  0  0  0  0  0  0  0  0  0  0
   -0.4530    1.5940   -3.1360 C   0  0  0  0  0  0  0  0  0  0  0  0
    1.7740    1.6320   -2.5180 O   0  0  0  0  0  0  0  0  0  0  0  0
   -3.3830    0.8590    0.4680 C   0  0  0  0  0  0  0  0  0  0  0  0
   -4.3770    0.7200    1.2700 O   0  0  0  0  0  0  0  0  0  0  0  0
   -2.5100    2.0000    0.6310 C   0  0  0  0  0  0  0  0  0  0  0  0
   -2.6990    2.9560    1.6540 C   0  0  0  0  0  0  0  0  0  0  0  0
   -1.7120    3.8970    1.5300 C   0  0  0  0  0  0  0  0  0  0  0  0
   -0.9520    3.4960    0.4460 C   0  0  0  0  0  0  0  0  0  0  0  0
   -1.4810    2.3910   -0.0170 O   0  0  0  0  0  0  0  0  0  0  0  0
   -5.3740   -1.1110    0.1150 C   0  0  0  0  0  0  0  0  0  0  0  0
   -5.7490   -2.1670    0.8970 C   0  0  0  0  0  0  0  0  0  0  0  0
   -6.9620   -1.8400    1.4610 C   0  0  0  0  0  0  0  0  0  0  0  0
   -7.2760   -0.5890    0.9960 C   0  0  0  0  0  0  0  0  0  0  0  0
   -8.3960    0.1270    1.2990 F   0  0  0  0  0  0  0  0  0  0  0  0
   -6.2850   -0.2160    0.1980 O   0  0  0  0  0  0  0  0  0  0  0  0
  1  2  1  0
  2  3  1  0
  3  4  2  3
  3 31  1  0
  4  5  1  0
  4 24  1  0
  5  6  1  0
  6  7  1  0
  6  8  2  3
  8  9  1  0
  8 21  1  0
  9 10  1  0
 10 11  2  0
 10 12  1  0
 12 13  2  0
 12 20  1  0
 13 14  1  0
 14 15  2  0
 15 16  1  0
 17 16  1  6
 16 20  2  0
 17 18  1  0
 17 19  1  0
 18 19  1  0
 21 22  1  0
 21 23  2  0
 24 25  2  0
 24 26  1  0
 26 27  2  0
 26 30  1  0
 27 28  1  0
 28 29  2  0
 29 30  1  0
 31 32  2  0
 31 36  1  0
 32 33  1  0
 33 34  2  0
 34 35  1  0
 34 36  1  0
M  END
