
     RDKit          3D

 36 39  0  0  0  0  0  0  0  0999 V2000
   -3.1590    1.1070    0.1750 C   0  0  0  0  0  0  0  0  0  0  0  0
   -4.3750    0.2600    0.1430 C   0  0  0  0  0  0  0  0  0  0  0  0
   -5.6590    0.7490    0.0690 N   0  0  0  0  0  0  0  0  0  0  0  0
   -6.5450   -0.2450    0.0430 C   0  0  0  0  0  0  0  0  0  0  0  0
   -8.0020   -0.0920   -0.1370 C   0  0  0  0  0  0  0  0  0  0  0  0
   -8.8090   -1.0380   -0.1310 O   0  0  0  0  0  0  0  0  0  0  0  0
   -8.5220    1.1810   -0.3310 O   0  0  0  0  0  0  0  0  0  0  0  0
   -9.8770    1.4770   -0.5420 C   0  0  0  0  0  0  0  0  0  0  0  0
   -9.9940    2.9870   -0.6800 C   0  0  0  0  0  0  0  0  0  0  0  0
   -9.5620    3.6590    0.4410 F   0  0  0  0  0  0  0  0  0  0  0  0
   -5.8250   -1.4310    0.1090 C   0  0  0  0  0  0  0  0  0  0  0  0
   -6.3860   -2.8000    0.1520 C   0  0  0  0  0  0  0  0  0  0  0  0
   -4.4550   -1.0990    0.1650 C   0  0  0  0  0  0  0  0  0  0  0  0
   -3.4110   -2.1020    0.0900 C   0  0  0  0  0  0  0  0  0  0  0  0
   -3.7900   -3.3090   -0.2090 O   0  0  0  0  0  0  0  0  0  0  0  0
   -2.0020   -1.9650    0.2820 C   0  0  0  0  0  0  0  0  0  0  0  0
   -1.4200   -1.2040    1.2200 C   0  0  0  0  0  0  0  0  0  0  0  0
   -0.0320   -1.0180    1.2240 C   0  0  0  0  0  0  0  0  0  0  0  0
    0.7460   -1.6150    0.2650 C   0  0  0  0  0  0  0  0  0  0  0  0
    2.1370   -1.4290    0.2430 N   0  0  0  0  0  0  0  0  0  0  0  0
    2.8930   -1.0200    1.3530 C   0  0  0  0  0  0  0  0  0  0  0  0
    4.3060   -0.7010    1.0810 C   0  0  0  0  0  0  0  0  0  0  0  0
    5.0360   -0.3840    2.0920 O   0  0  0  0  0  0  0  0  0  0  0  0
    4.9890   -0.6870   -0.1510 N   0  0  0  0  0  0  0  0  0  0  0  0
    6.3950   -0.3290   -0.1900 C   0  0  0  0  0  0  0  0  0  0  0  0
    7.3540   -1.0520    0.4720 C   0  0  0  0  0  0  0  0  0  0  0  0
    8.6900   -0.6010    0.5060 C   0  0  0  0  0  0  0  0  0  0  0  0
    9.0350    0.5680   -0.1220 C   0  0  0  0  0  0  0  0  0  0  0  0
    8.0780    1.2960   -0.7940 C   0  0  0  0  0  0  0  0  0  0  0  0
    6.7820    0.8340   -0.8150 C   0  0  0  0  0  0  0  0  0  0  0  0
    8.5330    2.4640   -1.4040 O   0  0  0  0  0  0  0  0  0  0  0  0
    9.4470    3.3260   -0.7060 C   0  0  0  0  0  0  0  0  0  0  0  0
   10.4530    2.5440    0.1070 C   0  0  0  0  0  0  0  0  0  0  0  0
   10.3240    1.1250   -0.1430 O   0  0  0  0  0  0  0  0  0  0  0  0
    0.1330   -2.4120   -0.7110 C   0  0  0  0  0  0  0  0  0  0  0  0
   -1.2150   -2.5860   -0.7030 C   0  0  0  0  0  0  0  0  0  0  0  0
  1  2  1  0
  2  3  1  0
  2 13  2  0
  3  4  1  0
  4  5  1  0
  4 11  2  0
  5  6  2  0
  5  7  1  0
  7  8  1  0
  8  9  1  0
  9 10  1  0
 11 12  1  0
 11 13  1  0
 13 14  1  0
 14 15  2  0
 14 16  1  0
 16 17  2  0
 16 36  1  0
 17 18  1  0
 18 19  2  0
 19 20  1  0
 19 35  1  0
 20 21  1  0
 21 22  1  0
 22 23  2  0
 22 24  1  0
 24 25  1  0
 25 26  2  0
 25 30  1  0
 26 27  1  0
 27 28  2  0
 28 29  1  0
 28 34  1  0
 29 30  2  0
 29 31  1  0
 31 32  1  0
 32 33  1  0
 33 34  1  0
 35 36  2  0
M  END
