
     RDKit          3D

 32 35  0  0  0  0  0  0  0  0999 V2000
   -5.3280   -3.0280   -0.3960 C   0  0  0  0  0  0  0  0  0  0  0  0
   -5.3810   -1.8840    0.5350 C   0  0  0  0  0  0  0  0  0  0  0  0
   -5.2270   -0.5370    0.0120 C   0  0  0  0  0  0  0  0  0  0  0  0
   -6.1870    0.2600   -0.2750 O   0  0  0  0  0  0  0  0  0  0  0  0
   -5.7280    1.4200   -0.7180 C   0  0  0  0  0  0  0  0  0  0  0  0
   -6.6140    2.5330   -1.1200 C   0  0  0  0  0  0  0  0  0  0  0  0
   -6.6450    3.5090    0.1250 C   0  0  0  0  0  0  0  0  0  0  0  0
   -5.5620    4.0210    0.3770 C   0  0  0  0  0  0  0  0  0  0  0  0
   -4.3110    4.5870    0.6610 N   0  0  0  0  0  0  0  0  0  0  0  0
   -4.3900    1.3210   -0.7010 N   0  0  0  0  0  0  0  0  0  0  0  0
   -4.0140    0.1270   -0.2610 C   0  0  0  0  0  0  0  0  0  0  0  0
   -2.7220   -0.5200   -0.2860 C   0  0  0  0  0  0  0  0  0  0  0  0
   -1.7450    0.0220    0.6230 N   0  0  0  0  0  0  0  0  0  0  0  0
   -0.3940   -0.4030    0.6180 C   0  0  0  0  0  0  0  0  0  0  0  0
    0.6980    0.4310    0.7960 C   0  0  0  0  0  0  0  0  0  0  0  0
    1.9980    0.0100    0.8890 C   0  0  0  0  0  0  0  0  0  0  0  0
    3.2310    0.6410    1.1760 C   0  0  0  0  0  0  0  0  0  0  0  0
    3.6060    0.1550    2.4300 O   0  0  0  0  0  0  0  0  0  0  0  0
    4.1620    1.5000    0.7280 N   0  0  0  0  0  0  0  0  0  0  0  0
    4.2690    2.4680   -0.3250 C   0  0  0  0  0  0  0  0  0  0  0  0
    5.7860    2.7900   -0.4960 C   0  0  0  0  0  0  0  0  0  0  0  0
    6.2800    1.3700   -0.1730 C   0  0  2  0  0  0  0  0  0  0  0  0
    7.7290    1.1570   -0.1360 C   0  0  0  0  0  0  0  0  0  0  0  0
    5.5620    0.5000   -1.1830 C   0  0  0  0  0  0  0  0  0  0  0  0
    5.6350    1.3260    1.2250 C   0  0  0  0  0  0  0  0  0  0  0  0
    2.1150   -1.4180    0.7650 C   0  0  0  0  0  0  0  0  0  0  0  0
    3.3080   -1.8870    0.8250 O   0  0  0  0  0  0  0  0  0  0  0  0
    1.1020   -2.2270    0.5950 N   0  0  0  0  0  0  0  0  0  0  0  0
   -0.1590   -1.7830    0.5210 C   0  0  0  0  0  0  0  0  0  0  0  0
   -1.0700   -2.9860    0.4460 C   0  0  0  0  0  0  0  0  0  0  0  0
   -0.1470   -4.0210    1.1730 C   0  0  0  0  0  0  0  0  0  0  0  0
    1.1220   -3.6960    0.4320 C   0  0  0  0  0  0  0  0  0  0  0  0
  1  2  1  0
  2  3  1  0
  3  4  1  0
  3 11  2  0
  4  5  1  0
  5  6  1  0
  5 10  2  0
  6  7  1  0
  7  8  1  0
  8  9  3  0
 10 11  1  0
 11 12  1  0
 12 13  1  0
 13 14  1  0
 14 15  1  0
 14 29  2  0
 15 16  2  0
 16 17  1  0
 16 26  1  0
 17 18  2  0
 17 19  1  0
 19 20  1  0
 19 25  1  0
 20 21  1  0
 21 22  1  0
 22 23  1  1
 22 24  1  0
 22 25  1  0
 26 27  2  0
 26 28  1  0
 28 29  1  0
 28 32  1  0
 29 30  1  0
 30 31  1  0
 31 32  1  0
M  END
