
     RDKit          3D

 33 36  0  0  0  0  0  0  0  0999 V2000
    6.5080   -0.3510   -0.4850 C   0  0  0  0  0  0  0  0  0  0  0  0
    5.1390   -0.6800   -0.9870 C   0  0  0  0  0  0  0  0  0  0  0  0
    4.9860   -1.6940   -1.9110 C   0  0  0  0  0  0  0  0  0  0  0  0
    3.7300   -2.0210   -2.3950 C   0  0  0  0  0  0  0  0  0  0  0  0
    3.6230   -3.0340   -3.3110 F   0  0  0  0  0  0  0  0  0  0  0  0
    2.5920   -1.3600   -1.9830 C   0  0  0  0  0  0  0  0  0  0  0  0
    2.7710   -0.3360   -1.0470 C   0  0  0  0  0  0  0  0  0  0  0  0
    1.5520    0.3670   -0.6070 C   0  0  0  0  0  0  0  0  0  0  0  0
    1.0630   -0.2800    0.5860 N   0  0  0  0  0  0  0  0  0  0  0  0
    1.7740   -0.2510    1.8020 C   0  0  0  0  0  0  0  0  0  0  0  0
    1.9880    1.0860    2.3700 C   0  0  0  0  0  0  0  0  0  0  0  0
    1.3500    2.2690    2.1070 C   0  0  0  0  0  0  0  0  0  0  0  0
    1.9110    3.2540    2.8960 C   0  0  0  0  0  0  0  0  0  0  0  0
    2.8920    2.6020    3.6220 C   0  0  0  0  0  0  0  0  0  0  0  0
    2.8980    1.3560    3.2840 O   0  0  0  0  0  0  0  0  0  0  0  0
   -0.2030   -1.0130    0.3790 C   0  0  0  0  0  0  0  0  0  0  0  0
   -0.0300   -2.1480    0.0020 N   0  0  0  0  0  0  0  0  0  0  0  0
   -0.8000   -3.1790   -0.3280 N   0  0  0  0  0  0  0  0  0  0  0  0
   -1.7170   -3.3120   -1.1960 C   0  0  0  0  0  0  0  0  0  0  0  0
   -2.1730   -2.2510   -2.1160 C   0  0  0  0  0  0  0  0  0  0  0  0
   -3.1530   -2.9370   -3.0280 C   0  0  0  0  0  0  0  0  0  0  0  0
   -3.6580   -4.0790   -2.1470 C   0  0  0  0  0  0  0  0  0  0  0  0
   -2.4710   -4.4360   -1.4680 O   0  0  0  0  0  0  0  0  0  0  0  0
   -1.4450   -0.7280    0.8960 N   0  0  0  0  0  0  0  0  0  0  0  0
   -2.1240    0.4930    0.8270 C   0  0  0  0  0  0  0  0  0  0  0  0
   -1.5460    1.3110    0.1180 O   0  0  0  0  0  0  0  0  0  0  0  0
   -3.3450    0.6930    1.5080 N   0  0  0  0  0  0  0  0  0  0  0  0
   -3.9290    1.9890    1.2370 C   0  0  0  0  0  0  0  0  0  0  0  0
   -5.0790    2.1850    0.6300 C   0  0  0  0  0  0  0  0  0  0  0  0
   -5.3310    3.6380    0.5360 C   0  0  0  0  0  0  0  0  0  0  0  0
   -4.1490    4.2570    1.1750 C   0  0  0  0  0  0  0  0  0  0  0  0
   -3.3740    3.2840    1.5630 C   0  0  0  0  0  0  0  0  0  0  0  0
    4.0170   -0.0040   -0.5590 C   0  0  0  0  0  0  0  0  0  0  0  0
  1  2  1  0
  2  3  2  0
  2 33  1  0
  3  4  1  0
  4  5  1  0
  4  6  2  0
  6  7  1  0
  7  8  1  0
  7 33  2  0
  8  9  1  0
  9 10  1  0
  9 16  1  0
 10 11  1  0
 11 12  2  0
 11 15  1  0
 12 13  1  0
 13 14  2  0
 14 15  1  0
 16 17  2  3
 16 24  1  0
 17 18  1  0
 18 19  2  3
 19 20  1  0
 19 23  1  0
 20 21  1  0
 21 22  1  0
 22 23  1  0
 24 25  1  0
 25 26  2  0
 25 27  1  0
 27 28  1  0
 28 29  2  0
 28 32  1  0
 29 30  1  0
 30 31  1  0
 31 32  2  0
M  END
