
     RDKit          3D

 33 36  0  0  0  0  0  0  0  0999 V2000
    9.0660    0.3250    0.0340 C   0  0  0  0  0  0  0  0  0  0  0  0
    8.4080    1.5090   -0.6580 C   0  0  0  0  0  0  0  0  0  0  0  0
    7.4200    1.0870   -1.6650 N   0  0  0  0  0  0  0  0  0  0  0  0
    6.3260    0.2580   -1.4050 C   0  0  0  0  0  0  0  0  0  0  0  0
    5.4300   -0.0640   -2.4660 N   0  0  0  0  0  0  0  0  0  0  0  0
    4.5940   -0.8230   -1.8680 O   0  0  0  0  0  0  0  0  0  0  0  0
    4.7320   -1.0490   -0.6980 C   0  0  0  0  0  0  0  0  0  0  0  0
    3.8480   -1.9010    0.1610 C   0  0  0  0  0  0  0  0  0  0  0  0
    2.6740   -1.2330    0.6210 N   0  0  0  0  0  0  0  0  0  0  0  0
    2.4490   -0.6130    1.8860 C   0  0  0  0  0  0  0  0  0  0  0  0
    0.9750   -0.5000    2.0650 C   0  0  0  0  0  0  0  0  0  0  0  0
    0.2060   -0.1890    3.1950 C   0  0  0  0  0  0  0  0  0  0  0  0
    0.7730   -0.0120    4.5420 C   0  0  0  0  0  0  0  0  0  0  0  0
   -1.1810   -0.0690    3.0410 C   0  0  0  0  0  0  0  0  0  0  0  0
   -1.7450   -0.2490    1.8170 C   0  0  0  0  0  0  0  0  0  0  0  0
   -0.9420   -0.5650    0.7270 C   0  0  0  0  0  0  0  0  0  0  0  0
   -1.6650   -0.6160   -0.5690 C   0  0  0  0  0  0  0  0  0  0  0  0
   -1.6950   -1.6040   -1.2560 O   0  0  0  0  0  0  0  0  0  0  0  0
   -2.3260    0.5740   -0.8800 N   0  0  0  0  0  0  0  0  0  0  0  0
   -3.2030    1.0440   -1.8680 C   0  0  0  0  0  0  0  0  0  0  0  0
   -4.5580    0.3960   -1.7440 C   0  0  0  0  0  0  0  0  0  0  0  0
   -4.7460   -0.9180   -1.9660 C   0  0  0  0  0  0  0  0  0  0  0  0
   -6.0470   -1.4150   -1.8740 C   0  0  0  0  0  0  0  0  0  0  0  0
   -7.1040   -0.5660   -1.5580 C   0  0  0  0  0  0  0  0  0  0  0  0
   -8.4480   -1.1430   -1.4060 C   0  0  0  0  0  0  0  0  0  0  0  0
   -6.8870    0.7720   -1.3400 C   0  0  0  0  0  0  0  0  0  0  0  0
   -7.8740    1.6110   -1.0050 F   0  0  0  0  0  0  0  0  0  0  0  0
   -5.6090    1.2500   -1.4330 C   0  0  0  0  0  0  0  0  0  0  0  0
   -5.3350    2.7130   -1.1580 C   0  0  0  0  0  0  0  0  0  0  0  0
    0.4000   -0.6940    0.8290 C   0  0  0  0  0  0  0  0  0  0  0  0
    1.4450   -1.1440   -0.0820 C   0  0  0  0  0  0  0  0  0  0  0  0
    1.2660   -1.4100   -1.3150 O   0  0  0  0  0  0  0  0  0  0  0  0
    5.8710   -0.3640   -0.3190 N   0  0  0  0  0  0  0  0  0  0  0  0
  1  2  1  0
  2  3  1  0
  3  4  1  0
  4  5  2  0
  4 33  1  0
  5  6  1  0
  6  7  1  0
  7  8  1  0
  7 33  2  0
  8  9  1  0
  9 10  1  0
  9 31  1  0
 10 11  1  0
 11 12  2  0
 11 30  1  0
 12 13  1  0
 12 14  1  0
 14 15  2  0
 15 16  1  0
 16 17  1  0
 16 30  2  0
 17 18  2  0
 17 19  1  0
 19 20  1  0
 20 21  1  0
 21 22  2  0
 21 28  1  0
 22 23  1  0
 23 24  2  0
 24 25  1  0
 24 26  1  0
 26 27  1  0
 26 28  2  0
 28 29  1  0
 30 31  1  0
 31 32  2  0
M  END
