
     RDKit          3D

 33 36  0  0  0  0  0  0  0  0999 V2000
    6.6040   -1.3060    2.8020 C   0  0  0  0  0  0  0  0  0  0  0  0
    6.0930   -0.9910    1.4270 C   0  0  0  0  0  0  0  0  0  0  0  0
    6.3680   -1.8730    0.4050 C   0  0  0  0  0  0  0  0  0  0  0  0
    5.9370   -1.6510   -0.8850 C   0  0  0  0  0  0  0  0  0  0  0  0
    6.2140   -2.5300   -1.8860 F   0  0  0  0  0  0  0  0  0  0  0  0
    5.2060   -0.4880   -1.1110 C   0  0  0  0  0  0  0  0  0  0  0  0
    4.9020    0.4240   -0.1360 C   0  0  0  0  0  0  0  0  0  0  0  0
    4.1350    1.6370   -0.3730 C   0  0  0  0  0  0  0  0  0  0  0  0
    4.4790    2.8970    0.0140 N   0  0  0  0  0  0  0  0  0  0  0  0
    3.5540    3.7480   -0.3460 N   0  0  0  0  0  0  0  0  0  0  0  0
    2.5510    3.1200   -0.9840 C   0  0  0  0  0  0  0  0  0  0  0  0
    1.3210    3.7220   -1.5470 C   0  0  0  0  0  0  0  0  0  0  0  0
    2.9260    1.7660   -1.0000 C   0  0  0  0  0  0  0  0  0  0  0  0
    2.0590    0.7290   -1.5990 C   0  0  0  0  0  0  0  0  0  0  0  0
    1.2970   -0.0280   -0.5420 C   0  0  0  0  0  0  0  0  0  0  0  0
    1.4460    0.3160    0.6400 O   0  0  0  0  0  0  0  0  0  0  0  0
    0.4670   -1.0790   -1.0100 N   0  0  0  0  0  0  0  0  0  0  0  0
   -0.2820   -1.8160    0.0150 C   0  0  0  0  0  0  0  0  0  0  0  0
   -1.4540   -0.9410    0.3530 C   0  0  0  0  0  0  0  0  0  0  0  0
   -2.7190   -1.3330   -0.0690 C   0  0  0  0  0  0  0  0  0  0  0  0
   -3.8320   -0.5590    0.2140 C   0  0  0  0  0  0  0  0  0  0  0  0
   -5.1130   -1.0020   -0.2360 N   0  0  0  0  0  0  0  0  0  0  0  0
   -5.6860   -2.2570    0.1980 C   0  0  0  0  0  0  0  0  0  0  0  0
   -7.1530   -2.1990    0.3770 C   0  0  0  0  0  0  0  0  0  0  0  0
   -7.9150   -1.2980   -0.5260 C   0  0  0  0  0  0  0  0  0  0  0  0
   -7.0970   -0.7130   -1.5460 O   0  0  0  0  0  0  0  0  0  0  0  0
   -5.8770   -0.2210   -1.1470 C   0  0  0  0  0  0  0  0  0  0  0  0
   -5.3920    0.8750   -1.5340 O   0  0  0  0  0  0  0  0  0  0  0  0
   -3.6210    0.5970    0.9220 C   0  0  0  0  0  0  0  0  0  0  0  0
   -2.3590    0.9890    1.3430 C   0  0  0  0  0  0  0  0  0  0  0  0
   -2.2560    2.2630    2.0950 C   0  0  0  0  0  0  0  0  0  0  0  0
   -1.3060    0.2000    1.0420 N   0  0  0  0  0  0  0  0  0  0  0  0
    5.3710    0.1360    1.1540 C   0  0  0  0  0  0  0  0  0  0  0  0
  1  2  1  0
  2  3  2  0
  2 33  1  0
  3  4  1  0
  4  5  1  0
  4  6  2  0
  6  7  1  0
  7  8  1  0
  7 33  2  0
  8  9  2  0
  8 13  1  0
  9 10  1  0
 10 11  1  0
 11 12  1  0
 11 13  2  0
 13 14  1  0
 14 15  1  0
 15 16  2  0
 15 17  1  0
 17 18  1  0
 18 19  1  0
 19 20  2  0
 19 32  1  0
 20 21  1  0
 21 22  1  0
 21 29  2  0
 22 23  1  0
 22 27  1  0
 23 24  1  0
 24 25  1  0
 25 26  1  0
 26 27  1  0
 27 28  2  0
 29 30  1  0
 30 31  1  0
 30 32  2  0
M  END
