
     RDKit          3D

 33 36  0  0  0  0  0  0  0  0999 V2000
   -0.9270    1.6310    2.9670 C   0  0  0  0  0  0  0  0  0  0  0  0
   -1.2570    1.0840    1.6160 C   0  0  0  0  0  0  0  0  0  0  0  0
   -0.3280    0.4800    0.8590 N   0  0  0  0  0  0  0  0  0  0  0  0
   -0.5810   -0.0300   -0.3750 C   0  0  0  0  0  0  0  0  0  0  0  0
    0.4110   -0.6790   -1.1610 N   0  0  0  0  0  0  0  0  0  0  0  0
    1.7050   -0.7470   -0.5230 C   0  0  0  0  0  0  0  0  0  0  0  0
    2.1870   -0.3650    0.5510 N   0  0  0  0  0  0  0  0  0  0  0  0
    3.4240   -0.5600    0.9140 C   0  0  0  0  0  0  0  0  0  0  0  0
    4.2330   -1.2220    0.0620 C   0  0  0  0  0  0  0  0  0  0  0  0
    5.6450   -1.6040    0.1790 C   0  0  0  0  0  0  0  0  0  0  0  0
    6.2070   -2.2450   -0.7380 O   0  0  0  0  0  0  0  0  0  0  0  0
    6.3960   -1.2490    1.3380 N   0  0  0  0  0  0  0  0  0  0  0  0
    7.7550   -1.5780    1.5310 C   0  0  0  0  0  0  0  0  0  0  0  0
    8.7580   -0.7600    1.0700 C   0  0  0  0  0  0  0  0  0  0  0  0
    8.3650    0.4900    0.3460 C   0  0  0  0  0  0  0  0  0  0  0  0
   10.1000   -1.0510    1.2480 C   0  0  0  0  0  0  0  0  0  0  0  0
   10.4840   -2.2140    1.9190 C   0  0  0  0  0  0  0  0  0  0  0  0
    9.4860   -3.0320    2.3800 C   0  0  0  0  0  0  0  0  0  0  0  0
    8.1490   -2.7380    2.2010 C   0  0  0  0  0  0  0  0  0  0  0  0
    6.8770   -3.7770    2.7990 Cl  0  0  0  0  0  0  0  0  0  0  0  0
    3.1480   -1.5550   -1.2850 S   0  0  0  0  0  0  0  0  0  0  0  0
   -1.8700    0.0920   -0.8550 C   0  0  0  0  0  0  0  0  0  0  0  0
   -2.8390    0.7080   -0.0940 C   0  0  0  0  0  0  0  0  0  0  0  0
   -4.1610    0.8410   -0.5940 N   0  0  0  0  0  0  0  0  0  0  0  0
   -5.2090    1.2150    0.3420 C   0  0  0  0  0  0  0  0  0  0  0  0
   -6.5560    0.6550   -0.0460 C   0  0  0  0  0  0  0  0  0  0  0  0
   -6.8320    0.7370   -1.4630 N   0  0  1  0  0  0  0  0  0  0  0  0
   -8.1070    1.3700   -1.6200 C   0  0  0  0  0  0  0  0  0  0  0  0
   -8.6980    1.2020   -2.9970 C   0  0  0  0  0  0  0  0  0  0  0  0
   -9.9420    1.8450   -3.0450 O   0  0  0  0  0  0  0  0  0  0  0  0
   -5.8060    1.3980   -2.2120 C   0  0  0  0  0  0  0  0  0  0  0  0
   -4.4940    0.6400   -1.9780 C   0  0  0  0  0  0  0  0  0  0  0  0
   -2.4870    1.1840    1.1240 N   0  0  0  0  0  0  0  0  0  0  0  0
  1  2  1  0
  2  3  2  0
  2 33  1  0
  3  4  1  0
  4  5  1  0
  4 22  2  0
  5  6  1  0
  6  7  2  0
  6 21  1  0
  7  8  1  0
  8  9  2  0
  9 10  1  0
  9 21  1  0
 10 11  2  0
 10 12  1  0
 12 13  1  0
 13 14  2  0
 13 19  1  0
 14 15  1  0
 14 16  1  0
 16 17  2  0
 17 18  1  0
 18 19  2  0
 19 20  1  0
 22 23  1  0
 23 24  1  0
 23 33  2  0
 24 25  1  0
 24 32  1  0
 25 26  1  0
 26 27  1  0
 27 28  1  1
 27 31  1  0
 28 29  1  0
 29 30  1  0
 31 32  1  0
M  CHG  1  27   1
M  END
