
     RDKit          3D

 33 36  0  0  0  0  0  0  0  0999 V2000
    8.4160   -0.9030    0.6760 C   0  0  0  0  0  0  0  0  0  0  0  0
    7.9700    0.3390    0.1130 N   0  0  0  0  0  0  0  0  0  0  0  0
    8.8780    1.2910   -0.1540 C   0  0  0  0  0  0  0  0  0  0  0  0
    8.5360    2.5110   -0.6950 C   0  0  0  0  0  0  0  0  0  0  0  0
    7.2070    2.7200   -0.9550 C   0  0  0  0  0  0  0  0  0  0  0  0
    6.8000    3.8090   -1.4520 O   0  0  0  0  0  0  0  0  0  0  0  0
    6.2660    1.7630   -0.6910 C   0  0  0  0  0  0  0  0  0  0  0  0
    4.9280    1.9530   -0.9440 C   0  0  0  0  0  0  0  0  0  0  0  0
    3.9550    0.9800   -0.6780 C   0  0  0  0  0  0  0  0  0  0  0  0
    4.3510   -0.1950   -0.1480 C   0  0  0  0  0  0  0  0  0  0  0  0
    3.4710   -1.2470    0.1530 N   0  0  0  0  0  0  0  0  0  0  0  0
    2.0910   -1.3110   -0.1620 C   0  0  0  0  0  0  0  0  0  0  0  0
    1.5530   -0.3720   -0.7650 O   0  0  0  0  0  0  0  0  0  0  0  0
    1.3110   -2.4870    0.2300 C   0  0  0  0  0  0  0  0  0  0  0  0
   -0.1520   -2.3900   -0.0810 C   0  0  0  0  0  0  0  0  0  0  0  0
   -0.8510   -1.2700    0.6240 C   0  0  0  0  0  0  0  0  0  0  0  0
   -2.3030   -1.2530    0.2570 C   0  0  0  0  0  0  0  0  0  0  0  0
   -2.7170   -2.1120   -0.5330 O   0  0  0  0  0  0  0  0  0  0  0  0
   -3.1290   -0.2640    0.8240 N   0  0  0  0  0  0  0  0  0  0  0  0
   -4.5160   -0.1170    0.5770 C   0  0  0  0  0  0  0  0  0  0  0  0
   -5.2380   -0.9120   -0.2420 C   0  0  0  0  0  0  0  0  0  0  0  0
   -6.6100   -0.6840   -0.4220 C   0  0  0  0  0  0  0  0  0  0  0  0
   -7.2700    0.3370    0.2150 C   0  0  0  0  0  0  0  0  0  0  0  0
   -8.6560    0.5600    0.0290 N   0  0  0  0  0  0  0  0  0  0  0  0
   -9.2530    1.7730   -0.1260 C   0  0  0  0  0  0  0  0  0  0  0  0
  -10.6150    1.6320   -0.2850 C   0  0  0  0  0  0  0  0  0  0  0  0
  -10.8320    0.2720   -0.2210 C   0  0  0  0  0  0  0  0  0  0  0  0
   -9.6420   -0.3230   -0.0340 N   0  0  0  0  0  0  0  0  0  0  0  0
   -6.4990    1.1220    1.0410 C   0  0  0  0  0  0  0  0  0  0  0  0
   -5.1670    0.9320    1.2390 C   0  0  0  0  0  0  0  0  0  0  0  0
   -4.4860    1.7710    2.0830 F   0  0  0  0  0  0  0  0  0  0  0  0
    5.7050   -0.4150    0.1200 C   0  0  0  0  0  0  0  0  0  0  0  0
    6.6570    0.5490   -0.1460 C   0  0  0  0  0  0  0  0  0  0  0  0
  1  2  1  0
  2  3  1  0
  2 33  1  0
  3  4  2  0
  4  5  1  0
  5  6  2  0
  5  7  1  0
  7  8  2  0
  7 33  1  0
  8  9  1  0
  9 10  2  0
 10 11  1  0
 10 32  1  0
 11 12  1  0
 12 13  2  0
 12 14  1  0
 14 15  1  0
 15 16  1  0
 16 17  1  0
 17 18  2  0
 17 19  1  0
 19 20  1  0
 20 21  2  0
 20 30  1  0
 21 22  1  0
 22 23  2  0
 23 24  1  0
 23 29  1  0
 24 25  1  0
 24 28  1  0
 25 26  2  0
 26 27  1  0
 27 28  2  0
 29 30  2  0
 30 31  1  0
 32 33  2  0
M  END
