
     RDKit          3D

 33 35  0  0  0  0  0  0  0  0999 V2000
   -8.9730    0.1630    1.6190 C   0  0  0  0  0  0  0  0  0  0  0  0
   -8.8450   -0.6130    0.4170 N   0  0  0  0  0  0  0  0  0  0  0  0
   -8.2770    0.1640   -0.6550 C   0  0  0  0  0  0  0  0  0  0  0  0
   -6.9070   -0.3040   -1.0390 C   0  0  0  0  0  0  0  0  0  0  0  0
   -6.7560   -1.3050   -1.9690 C   0  0  0  0  0  0  0  0  0  0  0  0
   -5.5180   -1.7550   -2.3510 C   0  0  0  0  0  0  0  0  0  0  0  0
   -4.4170   -1.1650   -1.7680 C   0  0  0  0  0  0  0  0  0  0  0  0
   -3.0770   -1.6540   -2.2000 C   0  0  0  0  0  0  0  0  0  0  0  0
   -4.5030   -0.1520   -0.8230 C   0  0  0  0  0  0  0  0  0  0  0  0
   -3.3380    0.4090   -0.2610 N   0  0  0  0  0  0  0  0  0  0  0  0
   -2.5480   -0.3630    0.5890 N   0  0  0  0  0  0  0  0  0  0  0  0
   -1.2260   -0.2250    1.0760 C   0  0  0  0  0  0  0  0  0  0  0  0
   -0.7480   -1.2550    1.6700 O   0  0  0  0  0  0  0  0  0  0  0  0
   -0.3100    0.9050    1.0120 C   0  0  1  0  0  0  0  0  0  0  0  0
    1.1290    0.5280    1.0810 C   0  0  0  0  0  0  0  0  0  0  0  0
    2.0310    1.3390    1.7110 C   0  0  0  0  0  0  0  0  0  0  0  0
    3.3760    1.0520    1.7820 C   0  0  0  0  0  0  0  0  0  0  0  0
    3.8390   -0.1070    1.1900 C   0  0  0  0  0  0  0  0  0  0  0  0
    5.2410   -0.3660    1.2330 C   0  0  0  0  0  0  0  0  0  0  0  0
    6.4460   -0.5940    1.2490 C   0  0  0  0  0  0  0  0  0  0  0  0
    7.8790   -0.8730    1.2830 C   0  0  0  0  0  0  0  0  0  0  0  0
    8.5620   -0.1930    0.0900 C   0  0  1  0  0  0  0  0  0  0  0  0
   10.0250   -0.4870    0.1200 C   0  0  0  0  0  0  0  0  0  0  0  0
    7.9350   -0.7160   -1.1950 C   0  0  0  0  0  0  0  0  0  0  0  0
    8.2490    1.2760    0.1810 C   0  0  0  0  0  0  0  0  0  0  0  0
    2.9290   -0.9200    0.5590 C   0  0  0  0  0  0  0  0  0  0  0  0
    1.5700   -0.6510    0.4760 C   0  0  0  0  0  0  0  0  0  0  0  0
   -0.5160    1.8270   -0.1500 C   0  0  0  0  0  0  0  0  0  0  0  0
    0.5200    2.1430   -0.7810 O   0  0  0  0  0  0  0  0  0  0  0  0
   -1.7120    2.3750   -0.6150 N   0  0  0  0  0  0  0  0  0  0  0  0
   -3.0250    1.7610   -0.6180 C   0  0  0  0  0  0  0  0  0  0  0  0
   -3.9940    2.4560   -0.9620 O   0  0  0  0  0  0  0  0  0  0  0  0
   -5.7790    0.2790   -0.4600 C   0  0  0  0  0  0  0  0  0  0  0  0
  1  2  1  0
  2  3  1  0
  3  4  1  0
  4  5  2  0
  4 33  1  0
  5  6  1  0
  6  7  2  0
  7  8  1  0
  7  9  1  0
  9 10  1  0
  9 33  2  0
 10 11  1  0
 10 31  1  0
 11 12  1  0
 12 13  2  0
 12 14  1  0
 14 15  1  6
 14 28  1  0
 15 16  2  0
 15 27  1  0
 16 17  1  0
 17 18  2  0
 18 19  1  0
 18 26  1  0
 19 20  3  0
 20 21  1  0
 21 22  1  0
 22 23  1  6
 22 24  1  0
 22 25  1  0
 26 27  2  0
 28 29  2  0
 28 30  1  0
 30 31  1  0
 31 32  2  0
M  CHG  1   2   1
M  END
