
     RDKit          3D

 33 35  0  0  0  0  0  0  0  0999 V2000
    9.9010    2.2130   -0.7810 C   0  0  0  0  0  0  0  0  0  0  0  0
    8.6870    1.7090   -0.7720 C   0  0  0  0  0  0  0  0  0  0  0  0
    7.6790    2.1870   -1.5720 N   0  0  0  0  0  0  0  0  0  0  0  0
    6.5770    1.4820   -1.3410 C   0  0  0  0  0  0  0  0  0  0  0  0
    5.2790    1.5270   -1.8560 C   0  0  0  0  0  0  0  0  0  0  0  0
    4.3280    0.6140   -1.3840 C   0  0  0  0  0  0  0  0  0  0  0  0
    4.5870   -0.3320   -0.4370 C   0  0  0  0  0  0  0  0  0  0  0  0
    3.6590   -1.2640    0.0750 N   0  0  0  0  0  0  0  0  0  0  0  0
    2.2740   -1.3320   -0.1770 C   0  0  0  0  0  0  0  0  0  0  0  0
    1.7520   -0.4880   -0.9360 O   0  0  0  0  0  0  0  0  0  0  0  0
    1.4200   -2.4100    0.4570 C   0  0  0  0  0  0  0  0  0  0  0  0
    0.1020   -2.2070    0.0910 O   0  0  0  0  0  0  0  0  0  0  0  0
   -0.7290   -1.1660    0.3290 C   0  0  0  0  0  0  0  0  0  0  0  0
   -0.3190   -0.0750    1.0500 C   0  0  0  0  0  0  0  0  0  0  0  0
   -1.1690    1.0010    1.3010 C   0  0  0  0  0  0  0  0  0  0  0  0
   -2.4550    0.9440    0.7990 C   0  0  0  0  0  0  0  0  0  0  0  0
   -2.9040   -0.1400    0.0680 C   0  0  0  0  0  0  0  0  0  0  0  0
   -4.2680   -0.1850   -0.4550 C   0  0  0  0  0  0  0  0  0  0  0  0
   -4.5560    0.2720   -1.5990 O   0  0  0  0  0  0  0  0  0  0  0  0
   -5.2770   -0.7610    0.3580 N   0  0  0  0  0  0  0  0  0  0  0  0
   -4.9350   -1.2890    1.6710 C   0  0  0  0  0  0  0  0  0  0  0  0
   -6.6390   -0.8140   -0.1220 C   0  0  0  0  0  0  0  0  0  0  0  0
   -7.4740    0.3710    0.2450 C   0  0  1  0  0  0  0  0  0  0  0  0
   -6.9520    1.6730   -0.2770 C   0  0  0  0  0  0  0  0  0  0  0  0
   -8.8670    0.1310   -0.3100 C   0  0  0  0  0  0  0  0  0  0  0  0
   -9.7630    1.2180   -0.0140 N   0  0  0  0  0  0  0  0  0  0  0  0
   -2.0190   -1.1870   -0.1550 C   0  0  0  0  0  0  0  0  0  0  0  0
   -2.5500   -2.3320   -0.9480 C   0  0  0  0  0  0  0  0  0  0  0  0
    5.8930   -0.3510    0.0590 C   0  0  0  0  0  0  0  0  0  0  0  0
    6.8550    0.5360   -0.3880 C   0  0  0  0  0  0  0  0  0  0  0  0
    8.2060    0.6670   -0.0110 C   0  0  0  0  0  0  0  0  0  0  0  0
    8.7790   -0.0960    0.8860 C   0  0  0  0  0  0  0  0  0  0  0  0
   10.1720   -0.0560    1.3580 C   0  0  0  0  0  0  0  0  0  0  0  0
  1  2  2  0
  2  3  1  0
  2 31  1  0
  3  4  1  0
  4  5  2  0
  4 30  1  0
  5  6  1  0
  6  7  2  0
  7  8  1  0
  7 29  1  0
  8  9  1  0
  9 10  2  0
  9 11  1  0
 11 12  1  0
 12 13  1  0
 13 14  2  0
 13 27  1  0
 14 15  1  0
 15 16  2  0
 16 17  1  0
 17 18  1  0
 17 27  2  0
 18 19  2  0
 18 20  1  0
 20 21  1  0
 20 22  1  0
 22 23  1  0
 23 24  1  6
 23 25  1  0
 25 26  1  0
 27 28  1  0
 29 30  2  0
 30 31  1  0
 31 32  2  3
 32 33  1  0
M  CHG  1  26   1
M  END
