
     RDKit          3D

 33 36  0  0  0  0  0  0  0  0999 V2000
    5.9240   -1.3410   -0.9130 C   0  0  0  0  0  0  0  0  0  0  0  0
    5.3820   -0.9850    0.4450 C   0  0  0  0  0  0  0  0  0  0  0  0
    3.9360   -1.0340    0.4830 N   0  0  0  0  0  0  0  0  0  0  0  0
    3.1400   -0.1740   -0.3140 C   0  0  0  0  0  0  0  0  0  0  0  0
    3.7270    0.7810   -1.1060 C   0  0  0  0  0  0  0  0  0  0  0  0
    2.9690    1.6440   -1.9030 C   0  0  0  0  0  0  0  0  0  0  0  0
    1.5990    1.5040   -1.8700 C   0  0  0  0  0  0  0  0  0  0  0  0
    0.9460    0.5580   -1.0910 C   0  0  0  0  0  0  0  0  0  0  0  0
   -0.5330    0.4440   -1.0770 C   0  0  1  0  0  0  0  0  0  0  0  0
   -0.8870   -1.0340   -1.0870 C   0  0  0  0  0  0  0  0  0  0  0  0
   -0.3530   -1.9360   -2.0970 C   0  0  0  0  0  0  0  0  0  0  0  0
   -0.5670   -3.3780   -2.1030 C   0  0  0  0  0  0  0  0  0  0  0  0
    0.3490   -1.4480   -3.0350 O   0  0  0  0  0  0  0  0  0  0  0  0
   -1.6480   -1.3080   -0.0570 C   0  0  0  0  0  0  0  0  0  0  0  0
   -2.2500   -2.5550    0.3710 C   0  0  0  0  0  0  0  0  0  0  0  0
   -1.9660   -3.0680    1.6120 C   0  0  0  0  0  0  0  0  0  0  0  0
   -2.5960   -4.2300    2.0750 C   0  0  0  0  0  0  0  0  0  0  0  0
   -3.5070   -4.8580    1.2720 C   0  0  0  0  0  0  0  0  0  0  0  0
   -4.1370   -6.0140    1.7240 O   0  0  0  0  0  0  0  0  0  0  0  0
   -3.8130   -4.3610    0.0090 C   0  0  0  0  0  0  0  0  0  0  0  0
   -3.1630   -3.2000   -0.4130 C   0  0  0  0  0  0  0  0  0  0  0  0
   -1.8500   -0.0490    0.7010 C   0  0  0  0  0  0  0  0  0  0  0  0
   -1.1880    0.9890    0.0980 C   0  0  0  0  0  0  0  0  0  0  0  0
   -1.2670    2.2480    0.6670 C   0  0  0  0  0  0  0  0  0  0  0  0
   -0.5630    3.4160    0.0520 C   0  0  0  0  0  0  0  0  0  0  0  0
   -0.8500    4.6760    0.8400 C   0  0  2  0  0  0  0  0  0  0  0  0
   -2.2950    5.0400    0.9120 C   0  0  0  0  0  0  0  0  0  0  0  0
   -0.0750    5.7560    0.2570 N   0  0  0  0  0  0  0  0  0  0  0  0
   -1.9950    2.3760    1.7860 N   0  0  0  0  0  0  0  0  0  0  0  0
   -2.6440    1.4110    2.3950 N   0  0  0  0  0  0  0  0  0  0  0  0
   -2.5880    0.1790    1.8700 C   0  0  0  0  0  0  0  0  0  0  0  0
   -3.2020   -0.7400    2.4420 O   0  0  0  0  0  0  0  0  0  0  0  0
    1.7590   -0.2630   -0.3260 C   0  0  0  0  0  0  0  0  0  0  0  0
  1  2  1  0
  2  3  1  0
  3  4  1  0
  4  5  2  0
  4 33  1  0
  5  6  1  0
  6  7  2  0
  7  8  1  0
  9  8  1  1
  8 33  2  0
  9 10  1  0
  9 23  1  0
 10 11  1  0
 10 14  2  0
 11 12  1  0
 11 13  2  0
 14 15  1  0
 14 22  1  0
 15 16  2  0
 15 21  1  0
 16 17  1  0
 17 18  2  0
 18 19  1  0
 18 20  1  0
 20 21  2  0
 22 23  2  0
 22 31  1  0
 23 24  1  0
 24 25  1  0
 24 29  2  0
 25 26  1  0
 26 27  1  6
 26 28  1  0
 29 30  1  0
 30 31  1  0
 31 32  2  0
M  CHG  1  28   1
M  END
