
     RDKit          3D

 35 37  0  0  0  0  0  0  0  0999 V2000
   -0.8520    1.4980   -1.8810 C   0  0  0  0  0  0  0  0  0  0  0  0
   -1.1990    0.8620   -0.4940 C   0  0  0  0  0  0  0  0  0  0  0  0
   -1.0490   -0.5830   -0.5920 C   0  0  0  0  0  0  0  0  0  0  0  0
   -1.7980   -1.5160   -0.1610 C   0  0  0  0  0  0  0  0  0  0  0  0
   -2.9950   -1.7360    0.5510 C   0  0  0  0  0  0  0  0  0  0  0  0
   -3.3350   -3.0750    0.6020 O   0  0  0  0  0  0  0  0  0  0  0  0
   -3.9280   -0.9660    1.2230 N   0  0  0  0  0  0  0  0  0  0  0  0
   -5.1720   -1.6790    1.7390 C   0  0  0  0  0  0  0  0  0  0  0  0
   -6.2680   -0.6660    1.7990 C   0  0  0  0  0  0  0  0  0  0  0  0
   -6.2200    0.3720    0.7130 C   0  0  0  0  0  0  0  0  0  0  0  0
   -4.9200    1.1750    0.7870 C   0  0  1  0  0  0  0  0  0  0  0  0
   -5.1530    2.4740    1.4650 C   0  0  0  0  0  0  0  0  0  0  0  0
   -4.5130    2.7600    2.5040 O   0  0  0  0  0  0  0  0  0  0  0  0
   -6.0800    3.4440    1.0030 N   0  0  0  0  0  0  0  0  0  0  0  0
   -6.2590    4.6680    1.6960 C   0  0  0  0  0  0  0  0  0  0  0  0
   -6.3870    5.6610    2.2510 N   0  0  0  0  0  0  0  0  0  0  0  0
   -3.9240    0.3960    1.6200 C   0  0  0  0  0  0  0  0  0  0  0  0
    0.2060   -1.0220   -1.3050 C   0  0  0  0  0  0  0  0  0  0  0  0
    1.1460   -0.2470   -1.8570 N   0  0  0  0  0  0  0  0  0  0  0  0
    2.0870   -1.0140   -2.3700 O   0  0  0  0  0  0  0  0  0  0  0  0
    1.7930   -2.2780   -2.1710 C   0  0  0  0  0  0  0  0  0  0  0  0
    2.5710   -3.5040   -2.5780 C   0  0  0  0  0  0  0  0  0  0  0  0
    3.4830   -3.7880   -1.3950 C   0  0  0  0  0  0  0  0  0  0  0  0
    4.3280   -2.5790   -1.2340 C   0  0  0  0  0  0  0  0  0  0  0  0
    5.4580   -2.5840   -1.8230 O   0  0  0  0  0  0  0  0  0  0  0  0
    3.9970   -1.4600   -0.5100 O   0  0  0  0  0  0  0  0  0  0  0  0
    4.9210   -0.3520   -0.4420 C   0  0  0  0  0  0  0  0  0  0  0  0
    4.9230    0.4920   -1.5560 C   0  0  0  0  0  0  0  0  0  0  0  0
    6.1790    1.7050   -1.0710 S   0  0  0  0  0  0  0  0  0  0  0  0
    6.5760    1.0180    0.4960 C   0  0  0  0  0  0  0  0  0  0  0  0
    7.5560    1.5070    1.4840 C   0  0  0  0  0  0  0  0  0  0  0  0
    8.2060    2.7460    0.9380 C   0  0  0  0  0  0  0  0  0  0  0  0
    9.1150    3.1710    1.8970 F   0  0  0  0  0  0  0  0  0  0  0  0
    5.7450   -0.0730    0.5570 C   0  0  0  0  0  0  0  0  0  0  0  0
    0.6240   -2.2780   -1.5110 N   0  0  0  0  0  0  0  0  0  0  0  0
  1  2  1  0
  2  3  1  0
  3  4  2  3
  3 18  1  0
  4  5  1  0
  5  6  2  0
  5  7  1  0
  7  8  1  0
  7 17  1  0
  8  9  1  0
  9 10  1  0
 10 11  1  0
 11 12  1  1
 11 17  1  0
 12 13  2  0
 12 14  1  0
 14 15  1  0
 15 16  3  0
 18 19  2  0
 18 35  1  0
 19 20  1  0
 20 21  1  0
 21 22  1  0
 21 35  2  0
 22 23  1  0
 23 24  1  0
 24 25  2  0
 24 26  1  0
 26 27  1  0
 27 28  2  0
 27 34  1  0
 28 29  1  0
 29 30  1  0
 30 31  1  0
 30 34  2  0
 31 32  1  0
 32 33  1  0
M  END
