
     RDKit          3D

 35 39  0  0  0  0  0  0  0  0999 V2000
   -8.1940   -1.8610   -2.7130 C   0  0  0  0  0  0  0  0  0  0  0  0
   -7.5440   -0.6470   -2.5310 O   0  0  0  0  0  0  0  0  0  0  0  0
   -7.0150   -0.6530   -1.2200 C   0  0  1  0  0  0  0  0  0  0  0  0
   -5.5180   -0.5580   -1.3130 C   0  0  0  0  0  0  0  0  0  0  0  0
   -5.0250   -0.3020   -2.4650 O   0  0  0  0  0  0  0  0  0  0  0  0
   -4.6840   -0.7380   -0.2010 N   0  0  0  0  0  0  0  0  0  0  0  0
   -4.9980   -1.0270    1.0600 C   0  0  0  0  0  0  0  0  0  0  0  0
   -3.8430   -1.0930    1.8190 C   0  0  0  0  0  0  0  0  0  0  0  0
   -3.2790   -1.2980    3.0100 N   0  0  0  0  0  0  0  0  0  0  0  0
   -1.9470   -1.1730    2.9210 N   0  0  0  0  0  0  0  0  0  0  0  0
   -1.6060   -0.8830    1.6630 C   0  0  0  0  0  0  0  0  0  0  0  0
   -0.2990   -0.6620    1.1230 N   0  0  0  0  0  0  0  0  0  0  0  0
    0.8670   -0.7370    1.9110 C   0  0  0  0  0  0  0  0  0  0  0  0
    0.7040   -1.0160    3.1360 O   0  0  0  0  0  0  0  0  0  0  0  0
    2.2260   -0.5180    1.4160 C   0  0  0  0  0  0  0  0  0  0  0  0
    3.3180   -0.6860    2.2560 C   0  0  0  0  0  0  0  0  0  0  0  0
    4.6030   -0.4810    1.8070 C   0  0  0  0  0  0  0  0  0  0  0  0
    4.8780   -0.1000    0.5060 C   0  0  0  0  0  0  0  0  0  0  0  0
    6.2210    0.1080    0.0660 N   0  0  0  0  0  0  0  0  0  0  0  0
    7.3010   -0.0650    0.9860 C   0  0  0  0  0  0  0  0  0  0  0  0
    8.5830    0.5870    0.4610 C   0  0  0  0  0  0  0  0  0  0  0  0
    8.8090    0.1110   -0.8660 N   0  0  2  0  0  0  0  0  0  0  0  0
   10.0690    0.7180   -1.3280 C   0  0  0  0  0  0  0  0  0  0  0  0
    7.8010    0.4720   -1.8000 C   0  0  0  0  0  0  0  0  0  0  0  0
    6.4130    0.4890   -1.3100 C   0  0  0  0  0  0  0  0  0  0  0  0
    3.7940    0.0670   -0.3290 C   0  0  0  0  0  0  0  0  0  0  0  0
    2.4860   -0.1390    0.1180 C   0  0  0  0  0  0  0  0  0  0  0  0
   -2.7850   -0.8270    0.9460 C   0  0  0  0  0  0  0  0  0  0  0  0
   -3.3220   -0.6100   -0.2960 C   0  0  0  0  0  0  0  0  0  0  0  0
   -7.4600    0.5510   -0.5050 C   0  0  0  0  0  0  0  0  0  0  0  0
   -8.0600    0.4850    0.7170 C   0  0  0  0  0  0  0  0  0  0  0  0
   -8.4840    1.6360    1.3930 C   0  0  0  0  0  0  0  0  0  0  0  0
   -8.2860    2.8720    0.7990 C   0  0  0  0  0  0  0  0  0  0  0  0
   -7.6850    2.9480   -0.4290 C   0  0  0  0  0  0  0  0  0  0  0  0
   -7.2770    1.7910   -1.0710 C   0  0  0  0  0  0  0  0  0  0  0  0
  1  2  1  0
  3  2  1  6
  3  4  1  0
  3 30  1  0
  4  5  2  0
  4  6  1  0
  6  7  1  0
  6 29  1  0
  7  8  2  0
  8  9  1  0
  8 28  1  0
  9 10  1  0
 10 11  2  0
 11 12  1  0
 11 28  1  0
 12 13  1  0
 13 14  2  0
 13 15  1  0
 15 16  2  0
 15 27  1  0
 16 17  1  0
 17 18  2  0
 18 19  1  0
 18 26  1  0
 19 20  1  0
 19 25  1  0
 20 21  1  0
 21 22  1  0
 22 23  1  6
 22 24  1  0
 24 25  1  0
 26 27  2  0
 28 29  2  0
 30 31  2  0
 30 35  1  0
 31 32  1  0
 32 33  2  0
 33 34  1  0
 34 35  2  0
M  CHG  1  22   1
M  END
