
     RDKit          3D

 35 37  0  0  0  0  0  0  0  0999 V2000
   -5.0780   -3.8910   -1.1740 C   0  0  0  0  0  0  0  0  0  0  0  0
   -4.9750   -2.4510   -1.5450 C   0  0  0  0  0  0  0  0  0  0  0  0
   -3.6100   -1.9120   -1.2290 C   0  0  0  0  0  0  0  0  0  0  0  0
   -2.6150   -1.6530   -2.0610 N   0  0  0  0  0  0  0  0  0  0  0  0
   -1.5320   -1.1760   -1.4140 N   0  0  0  0  0  0  0  0  0  0  0  0
   -0.3200   -0.7870   -2.0650 C   0  0  0  0  0  0  0  0  0  0  0  0
   -1.8170   -1.1160   -0.1050 C   0  0  0  0  0  0  0  0  0  0  0  0
   -1.1000   -0.6790    1.0720 C   0  0  1  0  0  0  0  0  0  0  0  0
   -1.2970   -1.7890    2.1490 C   0  0  0  0  0  0  0  0  0  0  0  0
    0.3280   -0.4080    1.0840 C   0  0  0  0  0  0  0  0  0  0  0  0
    1.3390   -1.4450    0.7950 C   0  0  0  0  0  0  0  0  0  0  0  0
    2.7350   -0.9220    0.8470 C   0  0  0  0  0  0  0  0  0  0  0  0
    3.4250   -0.9510    2.0240 C   0  0  0  0  0  0  0  0  0  0  0  0
    4.7300   -0.4740    2.1190 C   0  0  0  0  0  0  0  0  0  0  0  0
    5.3970   -0.4790    3.1670 O   0  0  0  0  0  0  0  0  0  0  0  0
    5.2490    0.0020    1.0110 O   0  0  0  0  0  0  0  0  0  0  0  0
    4.6340    0.0500   -0.1280 C   0  0  0  0  0  0  0  0  0  0  0  0
    5.3160    0.6060   -1.3100 C   0  0  2  0  0  0  0  0  0  0  0  0
    6.6100   -0.1080   -1.6180 C   0  0  0  0  0  0  0  0  0  0  0  0
    5.4980    2.1020   -1.2520 C   0  0  0  0  0  0  0  0  0  0  0  0
    6.3260    2.4700   -0.0480 C   0  0  0  0  0  0  0  0  0  0  0  0
    6.4950    3.8660   -0.0210 F   0  0  0  0  0  0  0  0  0  0  0  0
    3.3460   -0.4190   -0.2300 N   0  0  0  0  0  0  0  0  0  0  0  0
   -1.7950    0.4590    1.6760 N   0  0  0  0  0  0  0  0  0  0  0  0
   -1.7700    1.9090    0.8620 S   0  0  1  0  0  0  0  0  0  0  0  0
   -1.2370    3.0280    1.7470 O   0  0  0  0  0  0  0  0  0  0  0  0
   -0.9600    1.9750   -0.3940 O   0  0  0  0  0  0  0  0  0  0  0  0
   -3.3830    2.4010    0.3770 C   0  0  0  0  0  0  0  0  0  0  0  0
   -4.6070    1.8550    0.6250 C   0  0  0  0  0  0  0  0  0  0  0  0
   -5.5350    2.6200    0.0500 N   0  0  0  0  0  0  0  0  0  0  0  0
   -4.9330    3.5990   -0.5320 O   0  0  0  0  0  0  0  0  0  0  0  0
   -3.6580    3.5380   -0.3820 C   0  0  0  0  0  0  0  0  0  0  0  0
   -2.6330    4.4700   -0.8970 C   0  0  0  0  0  0  0  0  0  0  0  0
   -3.1430   -1.5830    0.0270 C   0  0  0  0  0  0  0  0  0  0  0  0
   -4.0150   -1.7400    1.2140 C   0  0  0  0  0  0  0  0  0  0  0  0
  1  2  1  0
  2  3  1  0
  3  4  2  0
  3 34  1  0
  4  5  1  0
  5  6  1  0
  5  7  1  0
  7  8  1  0
  7 34  2  0
  8  9  1  1
  8 10  1  0
  8 24  1  0
 10 11  1  0
 11 12  1  0
 12 13  2  0
 12 23  1  0
 13 14  1  0
 14 15  2  0
 14 16  1  0
 16 17  1  0
 17 18  1  0
 17 23  2  0
 18 19  1  1
 18 20  1  0
 20 21  1  0
 21 22  1  0
 25 24  1  1
 25 26  2  0
 25 27  2  0
 25 28  1  0
 28 29  1  0
 28 32  2  0
 29 30  2  0
 30 31  1  0
 31 32  1  0
 32 33  1  0
 34 35  1  0
M  END
