
     RDKit          3D

 34 34  0  0  0  0  0  0  0  0999 V2000
   -2.7630   -0.9470   -3.2590 C   0  0  0  0  0  0  0  0  0  0  0  0
   -2.9720   -0.3020   -1.9050 C   0  0  2  0  0  0  0  0  0  0  0  0
   -2.2370   -1.0740   -0.8170 C   0  0  1  0  0  0  0  0  0  0  0  0
   -2.7990   -2.3840   -0.9160 O   0  0  0  0  0  0  0  0  0  0  0  0
   -0.7620   -1.1450   -0.9870 C   0  0  0  0  0  0  0  0  0  0  0  0
   -0.3050   -2.0380    0.0080 O   0  0  0  0  0  0  0  0  0  0  0  0
    1.0450   -2.2550   -0.0260 C   0  0  2  0  0  0  0  0  0  0  0  0
    1.3930   -3.6880   -0.4240 C   0  0  0  0  0  0  0  0  0  0  0  0
    0.8750   -3.9610   -1.7140 O   0  0  0  0  0  0  0  0  0  0  0  0
    1.6420   -2.0050    1.3160 C   0  0  2  0  0  0  0  0  0  0  0  0
    0.8350   -2.7840    2.3760 C   0  0  0  0  0  0  0  0  0  0  0  0
    1.4180   -2.5370    3.6440 O   0  0  0  0  0  0  0  0  0  0  0  0
    1.4960   -0.6300    1.7570 O   0  0  0  0  0  0  0  0  0  0  0  0
    2.5900    0.0570    2.2280 C   0  0  0  0  0  0  0  0  0  0  0  0
    3.6940   -0.5860    2.2320 O   0  0  0  0  0  0  0  0  0  0  0  0
    2.6410    1.4360    2.7320 C   0  0  1  0  0  0  0  0  0  0  0  0
    3.7260    2.1390    1.8870 C   0  0  0  0  0  0  0  0  0  0  0  0
    4.8940    1.3880    1.9380 O   0  0  0  0  0  0  0  0  0  0  0  0
    1.4610    2.1520    2.7140 O   0  0  0  0  0  0  0  0  0  0  0  0
    0.2960    1.7280    3.3590 C   0  0  0  0  0  0  0  0  0  0  0  0
   -0.9110    1.8760    2.8810 C   0  0  0  0  0  0  0  0  0  0  0  0
   -2.0240    1.4210    3.5970 O   0  0  0  0  0  0  0  0  0  0  0  0
    0.4490    1.0560    4.6960 C   0  0  0  0  0  0  0  0  0  0  0  0
    1.0560    1.8690    5.6230 O   0  0  0  0  0  0  0  0  0  0  0  0
   -4.3420   -0.3450   -1.6440 O   0  0  0  0  0  0  0  0  0  0  0  0
   -4.8840    0.8730   -1.9250 C   0  0  0  0  0  0  0  0  0  0  0  0
   -3.8780    1.7790   -2.0500 O   0  0  0  0  0  0  0  0  0  0  0  0
   -2.6640    1.1510   -1.9440 C   0  0  2  0  0  0  0  0  0  0  0  0
   -1.7480    1.5570   -3.0540 C   0  0  0  0  0  0  0  0  0  0  0  0
   -2.0830    2.3350   -3.9820 O   0  0  0  0  0  0  0  0  0  0  0  0
   -0.4720    1.0570   -3.0700 O   0  0  0  0  0  0  0  0  0  0  0  0
    0.5340    1.3110   -4.0120 C   0  0  0  0  0  0  0  0  0  0  0  0
    0.8930    2.7750   -4.1070 C   0  0  0  0  0  0  0  0  0  0  0  0
    1.8990    2.9750   -5.0610 O   0  0  0  0  0  0  0  0  0  0  0  0
  2  1  1  6
  2  3  1  0
  2 25  1  0
  2 28  1  0
  3  4  1  6
  3  5  1  0
  5  6  1  0
  6  7  1  0
  7  8  1  1
  7 10  1  0
  8  9  1  0
 10 11  1  1
 10 13  1  0
 11 12  1  0
 13 14  1  0
 14 15  2  0
 14 16  1  0
 16 17  1  6
 16 19  1  0
 17 18  1  0
 19 20  1  0
 20 21  2  3
 20 23  1  0
 21 22  1  0
 23 24  1  0
 25 26  1  0
 26 27  1  0
 27 28  1  0
 28 29  1  6
 29 30  2  0
 29 31  1  0
 31 32  1  0
 32 33  1  0
 33 34  1  0
M  END
