
     RDKit          3D

 35 37  0  0  0  0  0  0  0  0999 V2000
   -6.2080    0.7700   -1.5110 C   0  0  0  0  0  0  0  0  0  0  0  0
   -6.0850    0.7620   -0.2000 C   0  0  0  0  0  0  0  0  0  0  0  0
   -7.1040    1.3060    0.5100 F   0  0  0  0  0  0  0  0  0  0  0  0
   -4.9550    0.2170    0.4980 C   0  0  0  0  0  0  0  0  0  0  0  0
   -4.8680    0.2310    1.8170 C   0  0  0  0  0  0  0  0  0  0  0  0
   -5.9340    0.8100    2.6640 C   0  0  0  0  0  0  0  0  0  0  0  0
   -3.6600   -0.3520    2.4590 C   0  0  0  0  0  0  0  0  0  0  0  0
   -3.4330   -1.7170    1.8990 C   0  0  0  0  0  0  0  0  0  0  0  0
   -3.5940   -1.7800    0.4080 C   0  0  0  0  0  0  0  0  0  0  0  0
   -3.7860   -0.4100   -0.2050 C   0  0  2  0  0  0  0  0  0  0  0  0
   -2.3810    0.6830   -0.0160 S   0  0  0  0  0  0  0  0  0  0  0  0
   -0.9140    0.0720   -0.7990 C   0  0  0  0  0  0  0  0  0  0  0  0
   -0.6940   -1.0330   -1.4840 N   0  0  0  0  0  0  0  0  0  0  0  0
    0.6070   -1.1170   -1.9220 C   0  0  0  0  0  0  0  0  0  0  0  0
    1.0590   -2.2360   -2.6730 C   0  0  0  0  0  0  0  0  0  0  0  0
    2.1490   -2.5560   -3.1420 O   0  0  0  0  0  0  0  0  0  0  0  0
    0.0790   -3.2450   -2.9830 O   0  0  0  0  0  0  0  0  0  0  0  0
    0.4430   -4.3860   -3.7240 C   0  0  0  0  0  0  0  0  0  0  0  0
    1.2030    0.0130   -1.4690 C   0  0  0  0  0  0  0  0  0  0  0  0
    2.4690    0.4630   -1.5990 N   0  0  0  0  0  0  0  0  0  0  0  0
    3.4760   -0.2390   -2.3310 C   0  0  0  0  0  0  0  0  0  0  0  0
    4.2800   -1.1800   -1.5090 C   0  0  0  0  0  0  0  0  0  0  0  0
    5.1960   -1.8550   -2.0440 O   0  0  0  0  0  0  0  0  0  0  0  0
    4.0730   -1.3610   -0.1560 O   0  0  0  0  0  0  0  0  0  0  0  0
    4.8910   -2.2890    0.5690 C   0  0  0  0  0  0  0  0  0  0  0  0
    4.5180   -2.3450    2.0090 C   0  0  0  0  0  0  0  0  0  0  0  0
    2.7850    1.6580   -1.0210 C   0  0  0  0  0  0  0  0  0  0  0  0
    3.9390    2.1480   -1.0650 N   0  0  0  0  0  0  0  0  0  0  0  0
    1.8520    2.3900   -0.3280 N   0  0  0  0  0  0  0  0  0  0  0  0
    2.2300    3.6540    0.2700 C   0  0  0  0  0  0  0  0  0  0  0  0
    2.7240    3.4280    1.6830 C   0  0  0  0  0  0  0  0  0  0  0  0
    3.1190    4.7370    2.3110 C   0  0  0  0  0  0  0  0  0  0  0  0
    0.6200    1.8900   -0.2400 C   0  0  0  0  0  0  0  0  0  0  0  0
   -0.2290    2.5810    0.4030 O   0  0  0  0  0  0  0  0  0  0  0  0
    0.2640    0.7190   -0.7920 N   0  0  0  0  0  0  0  0  0  0  0  0
  1  2  2  0
  2  3  1  0
  2  4  1  0
  4  5  2  0
  4 10  1  0
  5  6  1  0
  5  7  1  0
  7  8  1  0
  8  9  1  0
  9 10  1  0
 10 11  1  1
 11 12  1  0
 12 13  2  0
 12 35  1  0
 13 14  1  0
 14 15  1  0
 14 19  2  0
 15 16  2  0
 15 17  1  0
 17 18  1  0
 19 20  1  0
 19 35  1  0
 20 21  1  0
 20 27  1  0
 21 22  1  0
 22 23  2  0
 22 24  1  0
 24 25  1  0
 25 26  1  0
 27 28  2  0
 27 29  1  0
 29 30  1  0
 29 33  1  0
 30 31  1  0
 31 32  1  0
 33 34  2  0
 33 35  1  0
M  END
