
     RDKit          3D

 35 37  0  0  0  0  0  0  0  0999 V2000
    5.8290   -1.4040    1.7030 C   0  0  0  0  0  0  0  0  0  0  0  0
    5.0830   -0.7520    0.7070 O   0  0  0  0  0  0  0  0  0  0  0  0
    5.0720   -0.9510   -0.6130 C   0  0  0  0  0  0  0  0  0  0  0  0
    5.8460   -1.8700   -1.1020 O   0  0  0  0  0  0  0  0  0  0  0  0
    4.2710   -0.2440   -1.6550 C   0  0  1  0  0  0  0  0  0  0  0  0
    4.4020   -0.8530   -2.9980 C   0  0  0  0  0  0  0  0  0  0  0  0
    3.0700   -1.2580   -3.6010 C   0  0  0  0  0  0  0  0  0  0  0  0
    2.2190    0.0370   -3.6190 C   0  0  0  0  0  0  0  0  0  0  0  0
    1.9530    0.2940   -2.2380 N   0  0  0  0  0  0  0  0  0  0  0  0
    0.6620    1.0030   -1.9350 C   0  0  0  0  0  0  0  0  0  0  0  0
    0.0240    1.3540   -2.8320 O   0  0  0  0  0  0  0  0  0  0  0  0
    0.4530    1.1110   -0.4810 C   0  0  0  0  0  0  0  0  0  0  0  0
   -0.9420    1.5110   -0.0280 C   0  0  1  0  0  0  0  0  0  0  0  0
   -0.8990    1.5280    1.4590 C   0  0  0  0  0  0  0  0  0  0  0  0
   -0.8800    1.5260    2.5490 N   0  0  0  0  0  0  0  0  0  0  0  0
   -1.2940    2.8430   -0.5420 C   0  0  0  0  0  0  0  0  0  0  0  0
   -2.5350    3.5440   -0.1890 C   0  0  0  0  0  0  0  0  0  0  0  0
   -2.6920    3.9910    1.1780 N   0  0  0  0  0  0  0  0  0  0  0  0
   -2.0150    5.0980    1.5700 N   0  0  0  0  0  0  0  0  0  0  0  0
   -2.2530    5.3260    2.8990 C   0  0  0  0  0  0  0  0  0  0  0  0
   -3.0810    4.3500    3.2970 C   0  0  0  0  0  0  0  0  0  0  0  0
   -3.3520    3.5170    2.2220 C   0  0  0  0  0  0  0  0  0  0  0  0
   -4.2670    2.3390    2.2930 C   0  0  0  0  0  0  0  0  0  0  0  0
   -2.0650    0.2600   -0.5850 S   0  0  2  0  0  0  0  0  0  0  0  0
   -2.1040    0.2250   -2.1190 O   0  0  0  0  0  0  0  0  0  0  0  0
   -3.4860    0.5210   -0.0890 O   0  0  0  0  0  0  0  0  0  0  0  0
   -1.7010   -1.3180   -0.1030 N   0  0  0  0  0  0  0  0  0  0  0  0
   -2.7780   -1.9500    0.5830 C   0  0  0  0  0  0  0  0  0  0  0  0
   -2.3770   -3.3510    0.9570 C   0  0  0  0  0  0  0  0  0  0  0  0
   -3.0430   -4.3920    0.5070 C   0  0  0  0  0  0  0  0  0  0  0  0
   -2.4420   -5.6300    1.0230 C   0  0  0  0  0  0  0  0  0  0  0  0
   -1.3170   -5.1370    1.8770 C   0  0  0  0  0  0  0  0  0  0  0  0
   -1.3280   -3.7870    1.8030 C   0  0  0  0  0  0  0  0  0  0  0  0
   -0.4030   -3.0170    2.4740 F   0  0  0  0  0  0  0  0  0  0  0  0
    2.8460   -0.0530   -1.2100 C   0  0  0  0  0  0  0  0  0  0  0  0
  1  2  1  0
  2  3  1  0
  3  4  2  0
  5  3  1  1
  5  6  1  0
  5 35  1  0
  6  7  1  0
  7  8  1  0
  8  9  1  0
  9 10  1  0
  9 35  1  0
 10 11  2  0
 10 12  1  0
 13 12  1  6
 13 14  1  0
 13 16  1  0
 13 24  1  0
 14 15  3  0
 16 17  1  0
 17 18  1  0
 18 19  1  0
 18 22  1  0
 19 20  2  0
 20 21  1  0
 21 22  2  0
 22 23  1  0
 24 25  2  0
 24 26  2  0
 24 27  1  1
 27 28  1  0
 28 29  1  0
 29 30  2  0
 29 33  1  0
 30 31  1  0
 31 32  1  0
 32 33  2  0
 33 34  1  0
M  END
