
     RDKit          3D

 37 39  0  0  0  0  0  0  0  0999 V2000
   -6.0800    1.2480   -2.9370 C   0  0  0  0  0  0  0  0  0  0  0  0
   -6.4160   -0.0280   -2.2400 C   0  0  0  0  0  0  0  0  0  0  0  0
   -5.4960   -0.3710   -1.1690 N   0  0  2  0  0  0  0  0  0  0  0  0
   -5.1950    0.7160   -0.2930 C   0  0  0  0  0  0  0  0  0  0  0  0
   -5.6460    0.5490    1.1230 C   0  0  0  0  0  0  0  0  0  0  0  0
   -7.1170    0.3910    1.3190 C   0  0  2  0  0  0  0  0  0  0  0  0
   -7.9070    1.5780    0.8110 C   0  0  0  0  0  0  0  0  0  0  0  0
   -7.3730    0.3560    2.8310 C   0  0  0  0  0  0  0  0  0  0  0  0
   -7.6630   -0.7570    0.8040 O   0  0  0  0  0  0  0  0  0  0  0  0
   -4.2370   -0.8720   -1.7260 C   0  0  0  0  0  0  0  0  0  0  0  0
   -3.7330   -2.0360   -1.0240 C   0  0  0  0  0  0  0  0  0  0  0  0
   -2.5860   -2.0860   -0.4180 C   0  0  0  0  0  0  0  0  0  0  0  0
   -1.6760   -0.9580   -0.3820 C   0  0  0  0  0  0  0  0  0  0  0  0
   -0.5030   -1.0290    0.2450 C   0  0  0  0  0  0  0  0  0  0  0  0
    0.3820    0.1000    0.2680 C   0  0  0  0  0  0  0  0  0  0  0  0
    1.5420    0.0660    0.8740 C   0  0  0  0  0  0  0  0  0  0  0  0
    2.1800   -1.0840    1.6390 C   0  0  0  0  0  0  0  0  0  0  0  0
    3.5280   -0.9330    1.0280 N   0  0  2  0  0  0  0  0  0  0  0  0
    4.4930   -1.6970    1.7980 C   0  0  0  0  0  0  0  0  0  0  0  0
    3.7400    0.4530    1.1180 C   0  0  0  0  0  0  0  0  0  0  0  0
    4.9800    1.2210    1.3640 C   0  0  0  0  0  0  0  0  0  0  0  0
    5.1820    2.0980    2.4230 C   0  0  0  0  0  0  0  0  0  0  0  0
    6.3770    2.5980    2.3170 O   0  0  0  0  0  0  0  0  0  0  0  0
    6.9810    2.1220    1.2720 C   0  0  0  0  0  0  0  0  0  0  0  0
    8.2450    2.3710    0.7790 C   0  0  0  0  0  0  0  0  0  0  0  0
    8.6720    1.7390   -0.3680 C   0  0  0  0  0  0  0  0  0  0  0  0
   10.0220    1.9950   -0.9070 C   0  0  0  0  0  0  0  0  0  0  0  0
   10.9490    0.9610   -0.2560 C   0  0  0  0  0  0  0  0  0  0  0  0
   12.6090    1.1440   -0.8060 Cl  0  0  0  0  0  0  0  0  0  0  0  0
    7.8160    0.8670   -0.9970 C   0  0  0  0  0  0  0  0  0  0  0  0
    6.5470    0.5970   -0.5280 C   0  0  0  0  0  0  0  0  0  0  0  0
    5.6550   -0.3290   -1.2630 C   0  0  0  0  0  0  0  0  0  0  0  0
    6.1180    1.2240    0.6170 C   0  0  0  0  0  0  0  0  0  0  0  0
    2.5630    1.0500    1.0230 N   0  0  0  0  0  0  0  0  0  0  0  0
   -4.5850   -3.2440   -1.0040 C   0  0  0  0  0  0  0  0  0  0  0  0
   -4.1050   -4.3920   -0.3230 N   0  0  0  0  0  0  0  0  0  0  0  0
   -5.7170   -3.2640   -1.5800 O   0  0  0  0  0  0  0  0  0  0  0  0
  1  2  1  0
  3  2  1  6
  3  4  1  0
  3 10  1  0
  4  5  1  0
  5  6  1  0
  6  7  1  6
  6  8  1  0
  6  9  1  0
 10 11  1  0
 11 12  2  3
 11 35  1  0
 12 13  1  0
 13 14  2  3
 14 15  1  0
 15 16  2  3
 16 17  1  0
 16 34  1  0
 17 18  1  0
 18 19  1  1
 18 20  1  0
 20 21  1  0
 20 34  2  0
 21 22  2  0
 21 33  1  0
 22 23  1  0
 23 24  1  0
 24 25  2  0
 24 33  1  0
 25 26  1  0
 26 27  1  0
 26 30  2  0
 27 28  1  0
 28 29  1  0
 30 31  1  0
 31 32  1  0
 31 33  2  0
 35 36  1  0
 35 37  2  0
M  CHG  2   3   1  18   1
M  END
