
     RDKit          3D

 37 39  0  0  0  0  0  0  0  0999 V2000
    1.4900   -3.6300   -0.7810 C   0  0  0  0  0  0  0  0  0  0  0  0
    2.1800   -2.8700   -0.0640 C   0  0  0  0  0  0  0  0  0  0  0  0
    2.2450   -1.4130    0.0690 C   0  0  0  0  0  0  0  0  0  0  0  0
    1.5080   -0.6370   -0.8250 N   0  0  0  0  0  0  0  0  0  0  0  0
    2.3110   -0.0360   -1.9530 C   0  0  0  0  0  0  0  0  0  0  0  0
    3.0060    1.1520   -1.4110 C   0  0  0  0  0  0  0  0  0  0  0  0
    3.0800    1.4850   -0.0840 C   0  0  0  0  0  0  0  0  0  0  0  0
    3.8520    2.5370    0.1300 N   0  0  0  0  0  0  0  0  0  0  0  0
    4.3420    2.9760   -1.0820 C   0  0  0  0  0  0  0  0  0  0  0  0
    5.1260    4.0080   -1.2460 C   0  0  0  0  0  0  0  0  0  0  0  0
    5.5100    4.7630    0.0290 C   0  0  0  0  0  0  0  0  0  0  0  0
    3.8160    2.1150   -2.0420 C   0  0  0  0  0  0  0  0  0  0  0  0
    3.9920    2.1080   -3.3430 C   0  0  0  0  0  0  0  0  0  0  0  0
    4.8150    3.0650   -4.0990 C   0  0  0  0  0  0  0  0  0  0  0  0
    3.2030    0.8600   -4.3320 Cl  0  0  0  0  0  0  0  0  0  0  0  0
    0.1530   -0.2490   -0.7510 C   0  0  0  0  0  0  0  0  0  0  0  0
   -0.3140    0.4930   -1.7110 O   0  0  0  0  0  0  0  0  0  0  0  0
   -0.8410   -0.5850    0.2810 C   0  0  2  0  0  0  0  0  0  0  0  0
   -2.0850   -1.0340   -0.4500 N   0  0  0  0  0  0  0  0  0  0  0  0
   -1.9380   -2.4360   -0.6240 C   0  0  2  0  0  0  0  0  0  0  0  0
   -1.6410   -2.6630   -2.0970 C   0  0  0  0  0  0  0  0  0  0  0  0
   -3.1160   -3.2330   -0.2480 C   0  0  0  0  0  0  0  0  0  0  0  0
   -3.8430   -3.8550   -1.2200 C   0  0  0  0  0  0  0  0  0  0  0  0
   -4.9660   -4.5930   -0.9110 C   0  0  0  0  0  0  0  0  0  0  0  0
   -5.7330   -5.2580   -1.8780 O   0  0  0  0  0  0  0  0  0  0  0  0
   -5.3490   -4.6910    0.4010 C   0  0  0  0  0  0  0  0  0  0  0  0
   -4.5950   -4.0440    1.4200 C   0  0  0  0  0  0  0  0  0  0  0  0
   -3.4820   -3.3200    1.0930 C   0  0  0  0  0  0  0  0  0  0  0  0
   -2.7030   -2.6700    2.0660 O   0  0  0  0  0  0  0  0  0  0  0  0
   -3.0350   -2.7400    3.4180 C   0  0  0  0  0  0  0  0  0  0  0  0
   -1.2710    0.5350    1.1800 C   0  0  2  0  0  0  0  0  0  0  0  0
   -1.9450    1.6830    0.4840 C   0  0  0  0  0  0  0  0  0  0  0  0
   -1.4100    3.0340    0.8240 C   0  0  0  0  0  0  0  0  0  0  0  0
   -1.0920    3.2500    2.2020 N   0  0  1  0  0  0  0  0  0  0  0  0
   -2.2020    3.8020    2.9660 C   0  0  0  0  0  0  0  0  0  0  0  0
   -0.5750    2.1020    2.8910 C   0  0  0  0  0  0  0  0  0  0  0  0
   -0.0440    1.1330    1.8440 C   0  0  0  0  0  0  0  0  0  0  0  0
  1  2  2  0
  2  3  1  0
  3  4  1  0
  4  5  1  0
  4 16  1  0
  5  6  1  0
  6  7  2  0
  6 12  1  0
  7  8  1  0
  8  9  1  0
  9 10  2  3
  9 12  1  0
 10 11  1  0
 12 13  2  3
 13 14  1  0
 13 15  1  0
 16 17  2  0
 16 18  1  0
 18 19  1  6
 18 31  1  0
 19 20  1  0
 20 21  1  6
 20 22  1  0
 22 23  2  0
 22 28  1  0
 23 24  1  0
 24 25  1  0
 24 26  2  0
 26 27  1  0
 27 28  2  0
 28 29  1  0
 29 30  1  0
 31 32  1  6
 31 37  1  0
 32 33  1  0
 33 34  1  0
 34 35  1  1
 34 36  1  0
 36 37  1  0
M  CHG  2  19   1  34   1
M  END
