
     RDKit          3D

 37 40  0  0  0  0  0  0  0  0999 V2000
   -9.2760    1.0750    1.8770 C   0  0  0  0  0  0  0  0  0  0  0  0
   -8.1540    0.9250    1.5550 C   0  0  0  0  0  0  0  0  0  0  0  0
   -6.7730    0.3710    1.4310 C   0  0  0  0  0  0  0  0  0  0  0  0
   -6.4500   -0.0070    0.1080 N   0  0  0  0  0  0  0  0  0  0  0  0
   -5.6390   -1.1580   -0.1970 C   0  0  0  0  0  0  0  0  0  0  0  0
   -4.5520   -0.9150   -1.1630 C   0  0  0  0  0  0  0  0  0  0  0  0
   -4.7480   -1.5510   -2.4000 C   0  0  0  0  0  0  0  0  0  0  0  0
   -6.1540   -2.5650   -2.6990 Cl  0  0  0  0  0  0  0  0  0  0  0  0
   -3.8190   -1.3820   -3.3940 C   0  0  0  0  0  0  0  0  0  0  0  0
   -2.7160   -0.5930   -3.1600 C   0  0  0  0  0  0  0  0  0  0  0  0
   -2.5660    0.0110   -1.9130 C   0  0  0  0  0  0  0  0  0  0  0  0
   -3.4920   -0.1460   -0.8720 C   0  0  0  0  0  0  0  0  0  0  0  0
   -3.0530    0.3540    0.3750 N   0  0  0  0  0  0  0  0  0  0  0  0
   -3.2480   -0.1450    1.6970 C   0  0  0  0  0  0  0  0  0  0  0  0
   -2.2700    0.5180    2.7030 C   0  0  0  0  0  0  0  0  0  0  0  0
   -0.8740    0.3660    2.2330 C   0  0  0  0  0  0  0  0  0  0  0  0
   -0.7980    1.1520    0.9090 C   0  0  1  0  0  0  0  0  0  0  0  0
    0.0850    0.3600    0.0890 N   0  0  0  0  0  0  0  0  0  0  0  0
    0.7810    1.1000   -0.8930 C   0  0  0  0  0  0  0  0  0  0  0  0
    2.2980    1.0150   -0.9260 C   0  0  2  0  0  0  0  0  0  0  0  0
    2.6820   -0.4400   -1.1890 C   0  0  0  0  0  0  0  0  0  0  0  0
    2.8800    1.7390    0.0550 N   0  0  0  0  0  0  0  0  0  0  0  0
    3.0180    1.5960    1.4050 C   0  0  0  0  0  0  0  0  0  0  0  0
    4.1140    0.7870    2.0120 C   0  0  0  0  0  0  0  0  0  0  0  0
    4.1070   -0.6040    1.5380 C   0  0  0  0  0  0  0  0  0  0  0  0
    5.1630   -1.0100    0.8760 C   0  0  0  0  0  0  0  0  0  0  0  0
    6.2260   -0.1830    0.6310 O   0  0  0  0  0  0  0  0  0  0  0  0
    7.3200   -0.6430   -0.0780 C   0  0  0  0  0  0  0  0  0  0  0  0
    8.3700    0.2010   -0.3170 C   0  0  0  0  0  0  0  0  0  0  0  0
    9.4780   -0.2480   -1.0350 C   0  0  0  0  0  0  0  0  0  0  0  0
    9.5010   -1.5330   -1.4910 C   0  0  0  0  0  0  0  0  0  0  0  0
    8.4350   -2.4120   -1.2570 C   0  0  0  0  0  0  0  0  0  0  0  0
    7.3350   -1.9640   -0.5440 C   0  0  0  0  0  0  0  0  0  0  0  0
    6.2710   -2.8330   -0.3080 O   0  0  0  0  0  0  0  0  0  0  0  0
    5.1690   -2.4190    0.3840 C   0  0  0  0  0  0  0  0  0  0  0  0
    4.1730   -3.1590    0.6270 O   0  0  0  0  0  0  0  0  0  0  0  0
   -2.1480    1.4860    0.4180 C   0  0  0  0  0  0  0  0  0  0  0  0
  1  2  2  0
  2  3  1  0
  3  4  1  0
  4  5  1  0
  5  6  1  0
  6  7  2  0
  6 12  1  0
  7  8  1  0
  7  9  1  0
  9 10  2  0
 10 11  1  0
 11 12  2  0
 12 13  1  0
 13 14  1  0
 13 37  1  0
 14 15  1  0
 15 16  1  0
 16 17  1  0
 17 18  1  6
 17 37  1  0
 18 19  1  0
 19 20  1  0
 20 21  1  1
 20 22  1  0
 22 23  1  0
 23 24  1  0
 24 25  1  0
 25 26  2  3
 26 27  1  0
 26 35  1  0
 27 28  1  0
 28 29  2  0
 28 33  1  0
 29 30  1  0
 30 31  2  0
 31 32  1  0
 32 33  2  0
 33 34  1  0
 34 35  1  0
 35 36  2  0
M  CHG  2   4   1  18   1
M  END
