
     RDKit          3D

 37 40  0  0  0  0  0  0  0  0999 V2000
    5.5390    2.5300    1.8260 C   0  0  0  0  0  0  0  0  0  0  0  0
    5.7970    2.1640    0.4220 C   0  0  0  0  0  0  0  0  0  0  0  0
    6.3130    0.8720    0.1350 N   0  0  1  0  0  0  0  0  0  0  0  0
    7.4990    0.5070    0.8670 C   0  0  1  0  0  0  0  0  0  0  0  0
    8.8360    1.0990    0.3410 C   0  0  0  0  0  0  0  0  0  0  0  0
    8.2870    1.4150    1.6840 C   0  0  0  0  0  0  0  0  0  0  0  0
    5.3890   -0.2050    0.1560 C   0  0  2  0  0  0  0  0  0  0  0  0
    5.4190   -1.0030    1.4540 C   0  0  0  0  0  0  0  0  0  0  0  0
    5.7330   -1.2090   -0.9520 C   0  0  0  0  0  0  0  0  0  0  0  0
    3.9580    0.1980   -0.0790 C   0  0  0  0  0  0  0  0  0  0  0  0
    3.1070   -0.9820   -0.0400 N   0  0  0  0  0  0  0  0  0  0  0  0
    1.7170   -0.9390   -0.2210 C   0  0  0  0  0  0  0  0  0  0  0  0
    1.1690    0.1720   -0.4290 O   0  0  0  0  0  0  0  0  0  0  0  0
    0.8730   -2.1430   -0.1790 C   0  0  0  0  0  0  0  0  0  0  0  0
    1.4280   -3.2330    0.0240 O   0  0  0  0  0  0  0  0  0  0  0  0
   -0.5260   -2.0870   -0.3600 N   0  0  0  0  0  0  0  0  0  0  0  0
   -1.4650   -3.1250   -0.3430 C   0  0  0  0  0  0  0  0  0  0  0  0
   -2.7140   -2.7820   -0.5650 C   0  0  0  0  0  0  0  0  0  0  0  0
   -3.0460   -1.4160   -0.8140 C   0  0  0  0  0  0  0  0  0  0  0  0
   -2.5760   -0.6550   -1.8620 C   0  0  0  0  0  0  0  0  0  0  0  0
   -2.9510    0.6640   -2.0030 C   0  0  0  0  0  0  0  0  0  0  0  0
   -3.8060    1.2500   -1.1000 C   0  0  0  0  0  0  0  0  0  0  0  0
   -4.2860    0.5280   -0.0590 C   0  0  0  0  0  0  0  0  0  0  0  0
   -3.9130   -0.7790    0.0800 C   0  0  0  0  0  0  0  0  0  0  0  0
   -5.2050    1.1320    0.9240 C   0  0  0  0  0  0  0  0  0  0  0  0
   -5.9730    2.2280    0.3870 N   0  0  2  0  0  0  0  0  0  0  0  0
   -7.1040    1.6840   -0.3190 C   0  0  2  0  0  0  0  0  0  0  0  0
   -7.6690    2.5960   -1.3600 C   0  0  0  0  0  0  0  0  0  0  0  0
   -8.2240    1.2780    0.6160 C   0  0  0  0  0  0  0  0  0  0  0  0
   -5.2140    3.1760   -0.3490 C   0  0  0  0  0  0  0  0  0  0  0  0
   -4.1900    2.6520   -1.2720 C   0  0  0  0  0  0  0  0  0  0  0  0
   -3.8650   -3.7230   -0.6060 C   0  0  0  0  0  0  0  0  0  0  0  0
   -3.8960   -5.0300   -0.7890 C   0  0  0  0  0  0  0  0  0  0  0  0
   -2.7680   -5.8560   -0.9940 O   0  0  0  0  0  0  0  0  0  0  0  0
   -1.5450   -5.6570   -0.3430 C   0  0  0  0  0  0  0  0  0  0  0  0
   -0.6640   -7.0900    0.1490 Cl  0  0  0  0  0  0  0  0  0  0  0  0
   -0.9740   -4.5070   -0.0560 C   0  0  0  0  0  0  0  0  0  0  0  0
  1  2  1  0
  3  2  1  1
  3  4  1  0
  3  7  1  0
  4  5  1  6
  4  6  1  0
  5  6  1  0
  7  8  1  1
  7  9  1  0
  7 10  1  0
 10 11  1  0
 11 12  1  0
 12 13  2  0
 12 14  1  0
 14 15  2  0
 14 16  1  0
 16 17  1  0
 17 18  2  0
 17 37  1  0
 18 19  1  0
 18 32  1  0
 19 20  2  0
 19 24  1  0
 20 21  1  0
 21 22  2  0
 22 23  1  0
 22 31  1  0
 23 24  2  0
 23 25  1  0
 26 25  1  6
 26 27  1  0
 26 30  1  0
 27 28  1  6
 27 29  1  0
 30 31  1  0
 32 33  2  0
 33 34  1  0
 34 35  1  0
 35 36  1  0
 35 37  2  0
M  CHG  2   3   1  26   1
M  END
