
     RDKit          3D

 37 40  0  0  0  0  0  0  0  0999 V2000
    9.7110    2.5690    0.0510 C   0  0  0  0  0  0  0  0  0  0  0  0
    9.4900    1.0700    0.2190 C   0  0  0  0  0  0  0  0  0  0  0  0
    8.1220    0.8710    0.8010 C   0  0  0  0  0  0  0  0  0  0  0  0
    7.9710    0.5440    2.1260 C   0  0  0  0  0  0  0  0  0  0  0  0
    6.6990    0.3670    2.6270 C   0  0  0  0  0  0  0  0  0  0  0  0
    5.6320    0.5110    1.8330 N   0  0  0  0  0  0  0  0  0  0  0  0
    5.7330    0.8350    0.5100 C   0  0  0  0  0  0  0  0  0  0  0  0
    4.5620    0.9680   -0.2660 N   0  0  0  0  0  0  0  0  0  0  0  0
    4.2630    2.2100   -0.9110 C   0  0  0  0  0  0  0  0  0  0  0  0
    3.6770   -0.1410   -0.3950 C   0  0  0  0  0  0  0  0  0  0  0  0
    3.0350   -0.6500    0.7430 C   0  0  0  0  0  0  0  0  0  0  0  0
    2.1740   -1.7160    0.6390 C   0  0  0  0  0  0  0  0  0  0  0  0
    1.8950   -2.3340   -0.5580 C   0  0  0  0  0  0  0  0  0  0  0  0
    0.9830   -3.4710   -0.6890 C   0  0  0  0  0  0  0  0  0  0  0  0
   -0.3890   -3.0770   -0.9450 N   0  0  2  0  0  0  0  0  0  0  0  0
   -0.4180   -1.7400   -1.4010 C   0  0  0  0  0  0  0  0  0  0  0  0
   -1.7500   -1.0360   -1.3510 C   0  0  0  0  0  0  0  0  0  0  0  0
   -2.3220   -1.2840    0.0360 C   0  0  1  0  0  0  0  0  0  0  0  0
   -1.0940   -1.0990    0.8570 O   0  0  0  0  0  0  0  0  0  0  0  0
   -3.2040   -0.2830    0.5750 C   0  0  0  0  0  0  0  0  0  0  0  0
   -4.4590    0.2040    0.0040 C   0  0  1  0  0  0  0  0  0  0  0  0
   -5.5970   -0.6320   -0.1840 C   0  0  0  0  0  0  0  0  0  0  0  0
   -5.5990   -1.8300   -1.0560 C   0  0  0  0  0  0  0  0  0  0  0  0
   -5.2190   -1.6030   -2.3770 O   0  0  0  0  0  0  0  0  0  0  0  0
   -4.7790    1.5640    0.5440 N   0  0  1  0  0  0  0  0  0  0  0  0
   -5.3970    2.3640   -0.4510 C   0  0  0  0  0  0  0  0  0  0  0  0
   -6.7790    2.8330   -0.2380 C   0  0  0  0  0  0  0  0  0  0  0  0
   -6.9390    3.2220    1.2190 C   0  0  0  0  0  0  0  0  0  0  0  0
   -6.7850    1.8830    1.9560 C   0  0  0  0  0  0  0  0  0  0  0  0
   -5.3470    1.5150    1.8340 C   0  0  0  0  0  0  0  0  0  0  0  0
   -2.5500   -2.7400    0.1560 C   0  0  0  0  0  0  0  0  0  0  0  0
   -1.1550   -3.3760    0.2420 C   0  0  0  0  0  0  0  0  0  0  0  0
    2.5270   -1.8300   -1.6700 C   0  0  0  0  0  0  0  0  0  0  0  0
    3.4030   -0.7520   -1.5900 C   0  0  0  0  0  0  0  0  0  0  0  0
    4.1940   -0.1470   -3.0390 Cl  0  0  0  0  0  0  0  0  0  0  0  0
    7.0010    1.0120    0.0110 C   0  0  0  0  0  0  0  0  0  0  0  0
    7.1960    1.3410   -1.3180 O   0  0  0  0  0  0  0  0  0  0  0  0
  1  2  1  0
  2  3  1  0
  3  4  2  0
  3 36  1  0
  4  5  1  0
  5  6  2  0
  6  7  1  0
  7  8  1  0
  7 36  2  0
  8  9  1  0
  8 10  1  0
 10 11  2  0
 10 34  1  0
 11 12  1  0
 12 13  2  0
 13 14  1  0
 13 33  1  0
 15 14  1  1
 15 16  1  0
 15 32  1  0
 16 17  1  0
 17 18  1  0
 18 19  1  1
 18 20  1  0
 18 31  1  0
 21 20  1  1
 21 22  1  0
 21 25  1  0
 22 23  1  0
 23 24  1  0
 25 26  1  6
 25 30  1  0
 26 27  1  0
 27 28  1  0
 28 29  1  0
 29 30  1  0
 31 32  1  0
 33 34  2  0
 34 35  1  0
 36 37  1  0
M  CHG  2  15   1  25   1
M  END
