
     RDKit          3D

 37 40  0  0  0  0  0  0  0  0999 V2000
    4.2730   -4.8060   -3.1320 C   0  0  0  0  0  0  0  0  0  0  0  0
    4.5310   -3.5320   -2.4220 C   0  0  0  0  0  0  0  0  0  0  0  0
    3.4230   -2.8280   -1.9200 C   0  0  0  0  0  0  0  0  0  0  0  0
    2.1940   -3.3720   -2.1210 O   0  0  0  0  0  0  0  0  0  0  0  0
    0.9640   -2.8660   -1.7500 C   0  0  0  0  0  0  0  0  0  0  0  0
    0.5670   -1.5970   -2.4150 C   0  0  0  0  0  0  0  0  0  0  0  0
   -0.7450   -1.1180   -1.9710 N   0  0  0  0  0  0  0  0  0  0  0  0
   -1.0550   -0.7840   -0.6390 C   0  0  0  0  0  0  0  0  0  0  0  0
   -0.1550   -0.9020    0.2300 O   0  0  0  0  0  0  0  0  0  0  0  0
   -2.3680   -0.3070   -0.2020 C   0  0  0  0  0  0  0  0  0  0  0  0
   -2.6300   -0.1040    1.1380 C   0  0  0  0  0  0  0  0  0  0  0  0
   -3.8430    0.3460    1.6180 C   0  0  0  0  0  0  0  0  0  0  0  0
   -4.8760    0.6200    0.7280 C   0  0  0  0  0  0  0  0  0  0  0  0
   -6.1690    1.0710    0.8880 C   0  0  0  0  0  0  0  0  0  0  0  0
   -6.7070    1.1460   -0.3750 C   0  0  0  0  0  0  0  0  0  0  0  0
   -5.7850    0.7590   -1.2460 N   0  0  0  0  0  0  0  0  0  0  0  0
   -4.6380    0.4250   -0.6120 C   0  0  0  0  0  0  0  0  0  0  0  0
   -3.4000   -0.0330   -1.0760 C   0  0  0  0  0  0  0  0  0  0  0  0
   -8.0870    1.5970   -0.5620 C   0  0  0  0  0  0  0  0  0  0  0  0
   -8.7760    1.9140    0.7420 C   0  0  1  0  0  0  0  0  0  0  0  0
   -9.4730    0.6770    1.2290 C   0  0  0  0  0  0  0  0  0  0  0  0
   -7.8690    2.4840    1.7150 N   0  0  1  0  0  0  0  0  0  0  0  0
   -8.6700    2.9390    2.8350 C   0  0  0  0  0  0  0  0  0  0  0  0
   -6.9460    1.4370    2.1100 C   0  0  0  0  0  0  0  0  0  0  0  0
    3.7290   -1.6580   -1.2740 C   0  0  0  0  0  0  0  0  0  0  0  0
    5.0450   -1.1960   -1.1250 C   0  0  0  0  0  0  0  0  0  0  0  0
    5.2210   -0.0030   -0.4560 O   0  0  0  0  0  0  0  0  0  0  0  0
    4.1210    0.7170    0.0560 C   0  0  0  0  0  0  0  0  0  0  0  0
    4.6150    1.9750    0.7330 C   0  0  0  0  0  0  0  0  0  0  0  0
    5.4940    1.6100    1.8020 N   0  0  0  0  0  0  0  0  0  0  0  0
    6.8530    2.0770    1.5950 C   0  0  1  0  0  0  0  0  0  0  0  0
    6.9880    3.4520    2.1620 C   0  0  0  0  0  0  0  0  0  0  0  0
    7.8670    1.1080    2.1630 C   0  0  0  0  0  0  0  0  0  0  0  0
    6.0970   -1.9250   -1.6370 C   0  0  0  0  0  0  0  0  0  0  0  0
    7.7140   -1.3010   -1.4230 Cl  0  0  0  0  0  0  0  0  0  0  0  0
    5.8240   -3.0970   -2.2860 C   0  0  0  0  0  0  0  0  0  0  0  0
    6.9830   -3.8570   -2.8260 C   0  0  0  0  0  0  0  0  0  0  0  0
  1  2  1  0
  2  3  2  0
  2 36  1  0
  3  4  1  0
  3 25  1  0
  4  5  1  0
  5  6  1  0
  6  7  1  0
  7  8  1  0
  8  9  2  0
  8 10  1  0
 10 11  2  0
 10 18  1  0
 11 12  1  0
 12 13  2  0
 13 14  1  0
 13 17  1  0
 14 15  2  0
 14 24  1  0
 15 16  1  0
 15 19  1  0
 16 17  1  0
 17 18  2  0
 19 20  1  0
 20 21  1  1
 20 22  1  0
 22 23  1  1
 22 24  1  0
 25 26  2  0
 26 27  1  0
 26 34  1  0
 27 28  1  0
 28 29  1  0
 29 30  1  0
 30 31  1  0
 31 32  1  1
 31 33  1  0
 34 35  1  0
 34 36  2  0
 36 37  1  0
M  CHG  2  22   1  30   1
M  END
