
     RDKit          3D

 37 40  0  0  0  0  0  0  0  0999 V2000
    9.3170    0.4120    0.9080 C   0  0  0  0  0  0  0  0  0  0  0  0
    9.8400   -0.9320    0.5560 C   0  0  0  0  0  0  0  0  0  0  0  0
    9.0050   -1.9390    0.4380 C   0  0  0  0  0  0  0  0  0  0  0  0
    7.6420   -1.8460    0.6200 O   0  0  0  0  0  0  0  0  0  0  0  0
    6.8360   -1.3560   -0.3820 N   0  0  0  0  0  0  0  0  0  0  0  0
    5.7630   -0.4700   -0.1310 C   0  0  0  0  0  0  0  0  0  0  0  0
    5.5390   -0.1210    1.0510 O   0  0  0  0  0  0  0  0  0  0  0  0
    4.8930    0.0670   -1.2050 C   0  0  0  0  0  0  0  0  0  0  0  0
    3.8960    0.9420   -0.6860 N   0  0  0  0  0  0  0  0  0  0  0  0
    4.2260    2.3450   -0.5800 C   0  0  0  0  0  0  0  0  0  0  0  0
    5.1550    2.7990   -1.2530 O   0  0  0  0  0  0  0  0  0  0  0  0
    3.4340    3.1980    0.3380 C   0  0  0  0  0  0  0  0  0  0  0  0
    1.9860    2.8610    0.2470 C   0  0  0  0  0  0  0  0  0  0  0  0
    1.6730    1.4160    0.1930 C   0  0  0  0  0  0  0  0  0  0  0  0
    0.4370    0.9350    0.6010 C   0  0  0  0  0  0  0  0  0  0  0  0
    0.0910   -0.3950    0.5530 C   0  0  0  0  0  0  0  0  0  0  0  0
   -1.2550   -0.8570    1.0260 C   0  0  0  0  0  0  0  0  0  0  0  0
   -2.1410   -1.0180   -0.0700 N   0  0  0  0  0  0  0  0  0  0  0  0
   -3.2310   -0.1090   -0.1970 C   0  0  2  0  0  0  0  0  0  0  0  0
   -3.5730    0.6790    1.0040 C   0  0  0  0  0  0  0  0  0  0  0  0
   -3.8440    0.1210    2.2250 C   0  0  0  0  0  0  0  0  0  0  0  0
   -4.1420    0.9230    3.3290 C   0  0  0  0  0  0  0  0  0  0  0  0
   -4.1680    2.2930    3.2110 C   0  0  0  0  0  0  0  0  0  0  0  0
   -4.5340    3.3250    4.6040 Cl  0  0  0  0  0  0  0  0  0  0  0  0
   -3.9010    2.8250    2.0080 N   0  0  0  0  0  0  0  0  0  0  0  0
   -3.6130    2.0770    0.9370 C   0  0  0  0  0  0  0  0  0  0  0  0
   -4.4440   -0.7500   -0.7760 C   0  0  0  0  0  0  0  0  0  0  0  0
   -5.1660   -0.0610   -1.7220 C   0  0  0  0  0  0  0  0  0  0  0  0
   -6.2930   -0.5650   -2.3260 C   0  0  0  0  0  0  0  0  0  0  0  0
   -7.0130    0.2650   -3.3440 C   0  0  0  0  0  0  0  0  0  0  0  0
   -6.7350   -1.8190   -1.9800 C   0  0  0  0  0  0  0  0  0  0  0  0
   -6.0350   -2.5340   -1.0370 C   0  0  0  0  0  0  0  0  0  0  0  0
   -6.4800   -3.8780   -0.6560 C   0  0  0  0  0  0  0  0  0  0  0  0
   -4.8980   -2.0030   -0.4390 C   0  0  0  0  0  0  0  0  0  0  0  0
    1.0440   -1.2620    0.0690 C   0  0  0  0  0  0  0  0  0  0  0  0
    2.2820   -0.8380   -0.3470 C   0  0  0  0  0  0  0  0  0  0  0  0
    2.5970    0.5180   -0.2830 C   0  0  0  0  0  0  0  0  0  0  0  0
  1  2  1  0
  2  3  2  3
  3  4  1  0
  4  5  1  0
  5  6  1  0
  6  7  2  0
  6  8  1  0
  8  9  1  0
  9 10  1  0
  9 37  1  0
 10 11  2  0
 10 12  1  0
 12 13  1  0
 13 14  1  0
 14 15  2  0
 14 37  1  0
 15 16  1  0
 16 17  1  0
 16 35  2  0
 17 18  1  0
 19 18  1  1
 19 20  1  0
 19 27  1  0
 20 21  2  0
 20 26  1  0
 21 22  1  0
 22 23  2  0
 23 24  1  0
 23 25  1  0
 25 26  2  0
 27 28  2  0
 27 34  1  0
 28 29  1  0
 29 30  1  0
 29 31  2  0
 31 32  1  0
 32 33  1  0
 32 34  2  0
 35 36  1  0
 36 37  2  0
M  CHG  2  18   1  25   1
M  END
