
     RDKit          3D

 34 39  0  0  0  0  0  0  0  0999 V2000
   -7.5590    1.5400    1.4900 C   0  0  0  0  0  0  0  0  0  0  0  0
   -6.2540    1.0970    0.9610 C   0  0  0  0  0  0  0  0  0  0  0  0
   -5.1130    1.3120    1.6950 C   0  0  0  0  0  0  0  0  0  0  0  0
   -3.8620    0.9100    1.2320 C   0  0  0  0  0  0  0  0  0  0  0  0
   -3.7380    0.2710   -0.0020 C   0  0  0  0  0  0  0  0  0  0  0  0
   -4.8890    0.0610   -0.7280 C   0  0  0  0  0  0  0  0  0  0  0  0
   -6.1400    0.4700   -0.2520 C   0  0  0  0  0  0  0  0  0  0  0  0
   -4.8000   -0.5830   -1.9910 N   0  0  0  0  0  0  0  0  0  0  0  0
   -3.5140   -0.9780   -2.4370 C   0  0  0  0  0  0  0  0  0  0  0  0
   -3.2660   -1.1670   -3.6360 O   0  0  0  0  0  0  0  0  0  0  0  0
   -2.4040   -1.1770   -1.4290 C   0  0  0  0  0  0  0  0  0  0  0  0
   -2.4230   -0.1360   -0.4600 N   0  0  0  0  0  0  0  0  0  0  0  0
   -1.3710    0.5740    0.1240 C   0  0  0  0  0  0  0  0  0  0  0  0
   -1.3180    1.9570   -0.0150 C   0  0  0  0  0  0  0  0  0  0  0  0
   -0.3420    2.7560    0.5230 C   0  0  0  0  0  0  0  0  0  0  0  0
    0.6450    2.1330    1.2470 C   0  0  0  0  0  0  0  0  0  0  0  0
    1.9640    2.9920    2.0030 Cl  0  0  0  0  0  0  0  0  0  0  0  0
    0.6070    0.7450    1.3960 C   0  0  0  0  0  0  0  0  0  0  0  0
   -0.3760   -0.0470    0.8520 C   0  0  0  0  0  0  0  0  0  0  0  0
   -0.4040   -1.5160    0.9990 C   0  0  0  0  0  0  0  0  0  0  0  0
    1.0410   -1.9490    1.3190 C   0  0  0  0  0  0  0  0  0  0  0  0
    1.9550   -1.5650    0.3160 N   0  0  0  0  0  0  0  0  0  0  0  0
    1.8780   -2.1900   -0.9520 C   0  0  0  0  0  0  0  0  0  0  0  0
    3.1980   -2.4690   -1.6160 C   0  0  0  0  0  0  0  0  0  0  0  0
    4.1370   -1.3460   -1.3840 C   0  0  0  0  0  0  0  0  0  0  0  0
    4.9910   -0.5970   -2.1020 N   0  0  0  0  0  0  0  0  0  0  0  0
    5.5830    0.3010   -1.2690 C   0  0  0  0  0  0  0  0  0  0  0  0
    6.5190    1.3080   -1.4170 C   0  0  0  0  0  0  0  0  0  0  0  0
    6.9470    2.0850   -0.3760 C   0  0  0  0  0  0  0  0  0  0  0  0
    6.4360    1.8740    0.8860 C   0  0  0  0  0  0  0  0  0  0  0  0
    5.5000    0.8670    1.0330 C   0  0  0  0  0  0  0  0  0  0  0  0
    5.1030    0.1190   -0.0250 N   0  0  0  0  0  0  0  0  0  0  0  0
    4.2300   -0.8740   -0.0900 C   0  0  0  0  0  0  0  0  0  0  0  0
    3.3150   -1.6040    0.8690 C   0  0  0  0  0  0  0  0  0  0  0  0
  1  2  1  0
  2  3  2  0
  2  7  1  0
  3  4  1  0
  4  5  2  0
  5  6  1  0
  5 12  1  0
  6  7  2  0
  6  8  1  0
  8  9  1  0
  9 10  2  0
  9 11  1  0
 11 12  1  0
 12 13  1  0
 13 14  2  0
 13 19  1  0
 14 15  1  0
 15 16  2  0
 16 17  1  0
 16 18  1  0
 18 19  2  0
 19 20  1  0
 20 21  1  0
 21 22  1  0
 22 23  1  0
 22 34  1  0
 23 24  1  0
 24 25  1  0
 25 26  1  0
 25 33  2  0
 26 27  2  0
 27 28  1  0
 27 32  1  0
 28 29  2  0
 29 30  1  0
 30 31  2  0
 31 32  1  0
 32 33  1  0
 33 34  1  0
M  END
