
     RDKit          3D

 34 39  0  0  0  0  0  0  0  0999 V2000
    0.6170   -0.7820   -1.0830 C   0  0  0  0  0  0  0  0  0  0  0  0
    0.9070    0.1110    0.0950 C   0  0  2  0  0  0  0  0  0  0  0  0
    2.2380    0.7240   -0.1080 C   0  0  0  0  0  0  0  0  0  0  0  0
    2.3930    2.0430   -0.4620 C   0  0  0  0  0  0  0  0  0  0  0  0
    3.6410    2.6320   -0.6570 C   0  0  0  0  0  0  0  0  0  0  0  0
    4.7490    1.8360   -0.4800 C   0  0  0  0  0  0  0  0  0  0  0  0
    6.0700    2.0940   -0.5890 N   0  0  0  0  0  0  0  0  0  0  0  0
    6.8050    1.0050   -0.3230 C   0  0  0  0  0  0  0  0  0  0  0  0
    8.1680    0.7460   -0.2970 C   0  0  0  0  0  0  0  0  0  0  0  0
    8.6330   -0.5350    0.0280 C   0  0  0  0  0  0  0  0  0  0  0  0
    7.7210   -1.5270    0.3200 C   0  0  0  0  0  0  0  0  0  0  0  0
    6.4030   -1.2510    0.2870 N   0  0  0  0  0  0  0  0  0  0  0  0
    5.9390   -0.0300   -0.0210 C   0  0  0  0  0  0  0  0  0  0  0  0
    4.6600    0.5110   -0.1240 C   0  0  0  0  0  0  0  0  0  0  0  0
    3.4040   -0.0150    0.0540 C   0  0  0  0  0  0  0  0  0  0  0  0
    0.9790   -0.7240    1.3590 C   0  0  0  0  0  0  0  0  0  0  0  0
   -0.1800   -0.3840    2.2690 C   0  0  0  0  0  0  0  0  0  0  0  0
   -1.4360   -0.3850    1.4870 N   0  0  0  0  0  0  0  0  0  0  0  0
   -2.3810   -1.3890    1.7570 C   0  0  0  0  0  0  0  0  0  0  0  0
   -1.9830   -2.2410    2.6630 O   0  0  0  0  0  0  0  0  0  0  0  0
   -3.6790   -1.6380    1.2180 C   0  0  0  0  0  0  0  0  0  0  0  0
   -4.3530   -2.8230    1.5230 C   0  0  0  0  0  0  0  0  0  0  0  0
   -5.6170   -3.0910    1.0640 C   0  0  0  0  0  0  0  0  0  0  0  0
   -6.2450   -2.1760    0.2830 N   0  0  0  0  0  0  0  0  0  0  0  0
   -5.6460   -1.0210   -0.0410 C   0  0  0  0  0  0  0  0  0  0  0  0
   -6.3040   -0.0590   -0.8470 N   0  0  0  0  0  0  0  0  0  0  0  0
   -5.7810    0.8830   -1.6490 C   0  0  0  0  0  0  0  0  0  0  0  0
   -6.7530    1.6270   -2.2650 C   0  0  0  0  0  0  0  0  0  0  0  0
   -7.9540    1.1250   -1.8240 C   0  0  0  0  0  0  0  0  0  0  0  0
   -9.5520    1.6960   -2.2700 Cl  0  0  0  0  0  0  0  0  0  0  0  0
   -7.6530    0.0950   -0.9590 C   0  0  0  0  0  0  0  0  0  0  0  0
   -4.3600   -0.7600    0.4320 C   0  0  0  0  0  0  0  0  0  0  0  0
   -1.5160    0.6460    0.4920 C   0  0  0  0  0  0  0  0  0  0  0  0
   -0.1230    1.1920    0.2280 C   0  0  0  0  0  0  0  0  0  0  0  0
  2  1  1  6
  2  3  1  0
  2 16  1  0
  2 34  1  0
  3  4  2  0
  3 15  1  0
  4  5  1  0
  5  6  2  0
  6  7  1  0
  6 14  1  0
  7  8  1  0
  8  9  2  0
  8 13  1  0
  9 10  1  0
 10 11  2  0
 11 12  1  0
 12 13  2  0
 13 14  1  0
 14 15  2  0
 16 17  1  0
 17 18  1  0
 18 19  1  0
 18 33  1  0
 19 20  2  0
 19 21  1  0
 21 22  2  0
 21 32  1  0
 22 23  1  0
 23 24  2  0
 24 25  1  0
 25 26  1  0
 25 32  2  0
 26 27  1  0
 26 31  1  0
 27 28  2  0
 28 29  1  0
 29 30  1  0
 29 31  2  0
 33 34  1  0
M  END
