
     RDKit          3D

 35 39  0  0  0  0  0  0  0  0999 V2000
   -0.5770   -3.6530   -0.1110 C   0  0  0  0  0  0  0  0  0  0  0  0
   -0.7230   -2.1640   -0.1600 C   0  0  0  0  0  0  0  0  0  0  0  0
    0.4050   -1.3900   -0.2490 C   0  0  0  0  0  0  0  0  0  0  0  0
    0.2850   -0.0250   -0.2940 C   0  0  0  0  0  0  0  0  0  0  0  0
    1.4540    0.8330   -0.3990 C   0  0  0  0  0  0  0  0  0  0  0  0
    1.3780    2.0690   -0.1020 O   0  0  0  0  0  0  0  0  0  0  0  0
    2.7200    0.3000   -0.8430 N   0  0  0  0  0  0  0  0  0  0  0  0
    3.8570    1.1270   -0.9460 C   0  0  2  0  0  0  0  0  0  0  0  0
    4.5340    1.1600   -2.3010 C   0  0  0  0  0  0  0  0  0  0  0  0
    5.4680    2.3540   -2.3260 C   0  0  0  0  0  0  0  0  0  0  0  0
    5.8040    2.8740   -0.9450 C   0  0  0  0  0  0  0  0  0  0  0  0
    5.9550    1.7590    0.0450 C   0  0  0  0  0  0  0  0  0  0  0  0
    6.8020    1.3600    0.9760 N   0  0  0  0  0  0  0  0  0  0  0  0
    6.3880    0.2350    1.5270 N   0  0  0  0  0  0  0  0  0  0  0  0
    5.2060   -0.1580    0.9510 C   0  0  0  0  0  0  0  0  0  0  0  0
    4.4810   -1.4240    1.2730 C   0  0  0  0  0  0  0  0  0  0  0  0
    4.9480   -2.5270    0.3580 C   0  0  2  0  0  0  0  0  0  0  0  0
    4.7540   -2.2640   -0.9590 F   0  0  0  0  0  0  0  0  0  0  0  0
    4.3040   -3.7200    0.6570 F   0  0  0  0  0  0  0  0  0  0  0  0
    4.9250    0.7960    0.0220 C   0  0  0  0  0  0  0  0  0  0  0  0
   -0.9820    0.5270   -0.2460 C   0  0  0  0  0  0  0  0  0  0  0  0
   -2.0890   -0.2490   -0.1580 C   0  0  0  0  0  0  0  0  0  0  0  0
   -3.4520    0.3040   -0.1090 C   0  0  0  0  0  0  0  0  0  0  0  0
   -3.7810    1.6520   -0.1410 C   0  0  0  0  0  0  0  0  0  0  0  0
   -5.1250    1.7270   -0.0800 N   0  0  0  0  0  0  0  0  0  0  0  0
   -5.6760    0.5380   -0.0120 N   0  0  0  0  0  0  0  0  0  0  0  0
   -7.0830    0.2860    0.0620 C   0  0  0  0  0  0  0  0  0  0  0  0
   -7.8790    0.9800    0.9510 C   0  0  0  0  0  0  0  0  0  0  0  0
   -9.2460    0.7360    1.0220 C   0  0  0  0  0  0  0  0  0  0  0  0
   -9.8580   -0.1990    0.2150 C   0  0  0  0  0  0  0  0  0  0  0  0
  -11.1970   -0.4430    0.2790 F   0  0  0  0  0  0  0  0  0  0  0  0
   -9.0650   -0.8940   -0.6730 C   0  0  0  0  0  0  0  0  0  0  0  0
   -7.7060   -0.6480   -0.7400 C   0  0  0  0  0  0  0  0  0  0  0  0
   -4.6590   -0.3500   -0.0290 C   0  0  0  0  0  0  0  0  0  0  0  0
   -1.9240   -1.5810   -0.1170 N   0  0  0  0  0  0  0  0  0  0  0  0
  1  2  1  0
  2  3  2  0
  2 35  1  0
  3  4  1  0
  4  5  1  0
  4 21  2  0
  5  6  2  0
  5  7  1  0
  8  7  1  6
  8  9  1  0
  8 20  1  0
  9 10  1  0
 10 11  1  0
 11 12  1  0
 12 13  1  0
 12 20  2  0
 13 14  1  0
 14 15  2  0
 15 16  1  0
 15 20  1  0
 16 17  1  0
 17 18  1  6
 17 19  1  0
 21 22  1  0
 22 23  1  0
 22 35  2  0
 23 24  1  0
 23 34  2  0
 24 25  2  0
 25 26  1  0
 26 27  1  0
 26 34  1  0
 27 28  2  0
 27 33  1  0
 28 29  1  0
 29 30  2  0
 30 31  1  0
 30 32  1  0
 32 33  2  0
M  END
