
     RDKit          3D

 34 38  0  0  0  0  0  0  0  0999 V2000
    4.0010   -2.3280    0.2310 C   0  0  0  0  0  0  0  0  0  0  0  0
    4.5310   -1.9080   -0.8560 C   0  0  0  0  0  0  0  0  0  0  0  0
    5.1160   -0.6500   -1.1440 C   0  0  0  0  0  0  0  0  0  0  0  0
    5.7610   -0.4960   -2.3030 C   0  0  0  0  0  0  0  0  0  0  0  0
    6.4870    0.6540   -2.8890 C   0  0  0  0  0  0  0  0  0  0  0  0
    7.2180    1.6320   -2.3140 C   0  0  0  0  0  0  0  0  0  0  0  0
    7.5450    1.8950   -0.8960 C   0  0  0  0  0  0  0  0  0  0  0  0
    6.8910    1.7450    0.2820 C   0  0  0  0  0  0  0  0  0  0  0  0
    7.5610    2.1290    1.5120 C   0  0  0  0  0  0  0  0  0  0  0  0
    7.6670    0.6470    2.5300 Cl  0  0  0  0  0  0  0  0  0  0  0  0
    5.5020    1.2660    0.5030 C   0  0  0  0  0  0  0  0  0  0  0  0
    4.7100    1.8980    1.3410 N   0  0  0  0  0  0  0  0  0  0  0  0
    3.4960    1.3940    1.1910 N   0  0  0  0  0  0  0  0  0  0  0  0
    3.4940    0.4040    0.2270 C   0  0  0  0  0  0  0  0  0  0  0  0
    2.3300   -0.2420   -0.3710 C   0  0  0  0  0  0  0  0  0  0  0  0
    1.2150   -0.0080    0.5260 N   0  0  0  0  0  0  0  0  0  0  0  0
    1.3930   -0.5150    1.8460 C   0  0  0  0  0  0  0  0  0  0  0  0
    0.9440   -1.9500    1.8930 C   0  0  0  0  0  0  0  0  0  0  0  0
    0.1830   -2.0990    0.6160 C   0  0  0  0  0  0  0  0  0  0  0  0
    0.0970   -0.7550   -0.0310 C   0  0  1  0  0  0  0  0  0  0  0  0
   -1.1990   -0.0570    0.2060 C   0  0  0  0  0  0  0  0  0  0  0  0
   -2.2980   -0.8510   -0.3880 C   0  0  0  0  0  0  0  0  0  0  0  0
   -2.0080   -1.9180   -1.0000 O   0  0  0  0  0  0  0  0  0  0  0  0
   -3.6320   -0.4250   -0.2730 N   0  0  0  0  0  0  0  0  0  0  0  0
   -3.9380    0.7880    0.4260 C   0  0  0  0  0  0  0  0  0  0  0  0
   -5.1990    0.5120    1.2230 C   0  0  0  0  0  0  0  0  0  0  0  0
   -6.3270    0.3520    0.2270 C   0  0  1  0  0  0  0  0  0  0  0  0
   -7.4620   -0.4250    0.8270 C   0  0  0  0  0  0  0  0  0  0  0  0
   -8.5950    0.2420    0.6530 C   0  0  0  0  0  0  0  0  0  0  0  0
   -8.3650    1.5230   -0.0720 C   0  0  0  0  0  0  0  0  0  0  0  0
   -6.8720    1.7520   -0.0140 C   0  0  0  0  0  0  0  0  0  0  0  0
   -5.9160   -0.3030   -1.0480 C   0  0  0  0  0  0  0  0  0  0  0  0
   -4.6940   -1.1960   -0.8510 C   0  0  0  0  0  0  0  0  0  0  0  0
    4.7790    0.3510   -0.1660 N   0  0  0  0  0  0  0  0  0  0  0  0
  1  2  2  0
  2  3  1  0
  3  4  2  0
  3 34  1  0
  4  5  1  0
  5  6  2  0
  6  7  1  0
  7  8  2  0
  8  9  1  0
  8 11  1  0
  9 10  1  0
 11 12  2  0
 11 34  1  0
 12 13  1  0
 13 14  2  0
 14 15  1  0
 14 34  1  0
 15 16  1  0
 16 17  1  0
 16 20  1  0
 17 18  1  0
 18 19  1  0
 19 20  1  0
 20 21  1  1
 21 22  1  0
 22 23  2  0
 22 24  1  0
 24 25  1  0
 24 33  1  0
 25 26  1  0
 27 26  1  1
 27 28  1  0
 27 31  1  0
 27 32  1  0
 28 29  2  0
 29 30  1  0
 30 31  1  0
 32 33  1  0
M  END
