
     RDKit          3D

 35 38  0  0  0  0  0  0  0  0999 V2000
   -0.2730   -2.5140    0.7970 C   0  0  0  0  0  0  0  0  0  0  0  0
    0.2930   -1.8030   -0.3710 C   0  0  1  0  0  0  0  0  0  0  0  0
    1.0460   -2.9260   -1.1440 C   0  0  0  0  0  0  0  0  0  0  0  0
   -0.5460   -1.1860   -1.3860 C   0  0  0  0  0  0  0  0  0  0  0  0
   -1.6860   -1.9640   -1.8760 C   0  0  0  0  0  0  0  0  0  0  0  0
   -2.7470   -2.3790   -1.2270 C   0  0  0  0  0  0  0  0  0  0  0  0
   -3.2190   -2.2690    0.1190 C   0  0  0  0  0  0  0  0  0  0  0  0
   -3.5370   -3.4520    0.7440 C   0  0  0  0  0  0  0  0  0  0  0  0
   -4.0310   -3.5370    2.1160 C   0  0  2  0  0  0  0  0  0  0  0  0
   -4.9400   -2.5120    2.4210 F   0  0  0  0  0  0  0  0  0  0  0  0
   -3.0250   -3.5890    3.0590 F   0  0  0  0  0  0  0  0  0  0  0  0
   -3.4010   -1.0870    0.9030 N   0  0  0  0  0  0  0  0  0  0  0  0
   -3.8910    0.1970    0.6710 C   0  0  0  0  0  0  0  0  0  0  0  0
   -5.0910    0.5010    1.2160 O   0  0  0  0  0  0  0  0  0  0  0  0
   -3.3730    1.3560   -0.0650 C   0  0  0  0  0  0  0  0  0  0  0  0
   -2.1720    1.9190    0.0690 C   0  0  0  0  0  0  0  0  0  0  0  0
   -1.1430    1.4040    1.0200 C   0  0  0  0  0  0  0  0  0  0  0  0
    0.1160    1.3160    0.3170 N   0  0  0  0  0  0  0  0  0  0  0  0
    1.2090    0.4400    0.4540 C   0  0  0  0  0  0  0  0  0  0  0  0
    2.4840    0.8110    0.9270 C   0  0  0  0  0  0  0  0  0  0  0  0
    3.3040   -0.2430    0.9380 N   0  0  0  0  0  0  0  0  0  0  0  0
    4.7120   -0.2730    1.3630 C   0  0  0  0  0  0  0  0  0  0  0  0
    5.5430    0.0220    0.1580 C   0  0  0  0  0  0  0  0  0  0  0  0
    7.0150    0.0250    0.4370 C   0  0  0  0  0  0  0  0  0  0  0  0
    7.3690    1.0850    1.4870 C   0  0  0  0  0  0  0  0  0  0  0  0
    8.7430    1.0390    1.7010 F   0  0  0  0  0  0  0  0  0  0  0  0
    2.5890   -1.2450    0.4910 N   0  0  0  0  0  0  0  0  0  0  0  0
    1.3280   -0.8870    0.1860 C   0  0  0  0  0  0  0  0  0  0  0  0
   -1.8100    3.1420   -0.5600 N   0  0  0  0  0  0  0  0  0  0  0  0
   -0.7530    3.9080   -0.6280 N   0  0  0  0  0  0  0  0  0  0  0  0
   -0.9080    4.9820   -1.3770 C   0  0  0  0  0  0  0  0  0  0  0  0
   -2.1810    4.9390   -1.8560 C   0  0  0  0  0  0  0  0  0  0  0  0
   -2.7310    3.7610   -1.3200 C   0  0  0  0  0  0  0  0  0  0  0  0
   -4.1100    3.3040   -1.5100 C   0  0  0  0  0  0  0  0  0  0  0  0
   -4.2800    1.9020   -1.1110 C   0  0  0  0  0  0  0  0  0  0  0  0
  2  1  1  1
  2  3  1  0
  2  4  1  0
  2 28  1  0
  4  5  1  0
  5  6  2  0
  6  7  1  0
  7  8  2  3
  7 12  1  0
  8  9  1  0
  9 10  1  1
  9 11  1  0
 12 13  1  0
 13 14  2  0
 13 15  1  0
 15 16  2  0
 15 35  1  0
 16 17  1  0
 16 29  1  0
 17 18  1  0
 18 19  1  0
 19 20  2  0
 19 28  1  0
 20 21  1  0
 21 22  1  0
 21 27  1  0
 22 23  1  0
 23 24  1  0
 24 25  1  0
 25 26  1  0
 27 28  2  0
 29 30  1  0
 29 33  1  0
 30 31  2  0
 31 32  1  0
 32 33  2  0
 33 34  1  0
 34 35  1  0
M  END
