
     RDKit          3D

 34 38  0  0  0  0  0  0  0  0999 V2000
   -8.7270   -2.2160    0.5340 O   0  0  0  0  0  0  0  0  0  0  0  0
   -8.3430   -1.0650    0.8540 C   0  0  0  0  0  0  0  0  0  0  0  0
   -9.2740   -0.2070    1.4160 O   0  0  0  0  0  0  0  0  0  0  0  0
   -6.9720   -0.5960    0.6600 C   0  0  0  0  0  0  0  0  0  0  0  0
   -6.6120    0.6790    1.0320 C   0  0  0  0  0  0  0  0  0  0  0  0
   -5.3330    1.1540    0.8660 C   0  0  0  0  0  0  0  0  0  0  0  0
   -4.3160    0.3660    0.3070 C   0  0  0  0  0  0  0  0  0  0  0  0
   -3.0290    0.9210    0.1610 N   0  0  0  0  0  0  0  0  0  0  0  0
   -1.8560    0.2370   -0.2640 C   0  0  0  0  0  0  0  0  0  0  0  0
   -1.8070   -1.0510   -0.5880 N   0  0  0  0  0  0  0  0  0  0  0  0
   -0.6670   -1.6960   -0.9960 C   0  0  0  0  0  0  0  0  0  0  0  0
    0.5030   -1.0100   -1.0880 C   0  0  0  0  0  0  0  0  0  0  0  0
    0.4330    0.3490   -0.7420 C   0  0  0  0  0  0  0  0  0  0  0  0
   -0.6810    0.9460   -0.3510 N   0  0  0  0  0  0  0  0  0  0  0  0
    1.5990    1.2170   -0.8250 C   0  0  0  0  0  0  0  0  0  0  0  0
    1.2490    2.4990   -1.1200 C   0  0  0  0  0  0  0  0  0  0  0  0
    2.2710    3.4020   -1.3690 C   0  0  0  0  0  0  0  0  0  0  0  0
    3.6180    3.0410   -1.3280 C   0  0  0  0  0  0  0  0  0  0  0  0
    4.8860    4.2330   -1.6470 Cl  0  0  0  0  0  0  0  0  0  0  0  0
    3.9420    1.7440   -1.0270 C   0  0  0  0  0  0  0  0  0  0  0  0
    2.9350    0.8390   -0.7720 C   0  0  0  0  0  0  0  0  0  0  0  0
    3.4080   -0.4700   -0.4230 C   0  0  0  0  0  0  0  0  0  0  0  0
    4.6360   -0.5580    0.3370 C   0  0  0  0  0  0  0  0  0  0  0  0
    5.2210   -1.8450    0.3910 C   0  0  0  0  0  0  0  0  0  0  0  0
    4.6880   -2.8520   -0.3750 F   0  0  0  0  0  0  0  0  0  0  0  0
    6.2960   -2.0920    1.1850 C   0  0  0  0  0  0  0  0  0  0  0  0
    6.8890   -1.1360    1.9810 C   0  0  0  0  0  0  0  0  0  0  0  0
    6.3220    0.1170    1.9340 C   0  0  0  0  0  0  0  0  0  0  0  0
    5.2200    0.3760    1.1250 C   0  0  0  0  0  0  0  0  0  0  0  0
    4.6780    1.6080    1.2990 F   0  0  0  0  0  0  0  0  0  0  0  0
    2.8400   -1.6030   -0.7750 N   0  0  0  0  0  0  0  0  0  0  0  0
    1.6410   -1.8320   -1.5590 C   0  0  0  0  0  0  0  0  0  0  0  0
   -4.6940   -0.9030   -0.0580 C   0  0  0  0  0  0  0  0  0  0  0  0
   -5.9970   -1.3930    0.1100 C   0  0  0  0  0  0  0  0  0  0  0  0
  1  2  2  0
  2  3  1  0
  2  4  1  0
  4  5  2  0
  4 34  1  0
  5  6  1  0
  6  7  2  0
  7  8  1  0
  7 33  1  0
  8  9  1  0
  9 10  2  0
  9 14  1  0
 10 11  1  0
 11 12  2  0
 12 13  1  0
 12 32  1  0
 13 14  2  0
 13 15  1  0
 15 16  2  0
 15 21  1  0
 16 17  1  0
 17 18  2  0
 18 19  1  0
 18 20  1  0
 20 21  2  0
 21 22  1  0
 22 23  1  0
 22 31  2  0
 23 24  2  0
 23 29  1  0
 24 25  1  0
 24 26  1  0
 26 27  2  0
 27 28  1  0
 28 29  2  0
 29 30  1  0
 31 32  1  0
 33 34  2  0
M  END
