
     RDKit          3D

 34 38  0  0  0  0  0  0  0  0999 V2000
   -5.9520    3.0960    0.4050 C   0  0  0  0  0  0  0  0  0  0  0  0
   -4.8880    2.0450    0.3090 C   0  0  0  0  0  0  0  0  0  0  0  0
   -5.1550    0.7730    0.1680 C   0  0  0  0  0  0  0  0  0  0  0  0
   -6.5740    0.4280    0.1060 C   0  0  0  0  0  0  0  0  0  0  0  0
   -7.2380   -0.7280   -0.0540 C   0  0  0  0  0  0  0  0  0  0  0  0
   -8.9690   -0.3700   -0.0290 Cl  0  0  0  0  0  0  0  0  0  0  0  0
   -7.0120   -2.1600   -0.2360 C   0  0  0  0  0  0  0  0  0  0  0  0
   -5.6780   -2.6210    0.2840 C   0  0  0  0  0  0  0  0  0  0  0  0
   -4.5500   -2.3550   -0.7140 C   0  0  0  0  0  0  0  0  0  0  0  0
   -3.7100   -1.2630   -0.2200 N   0  0  0  0  0  0  0  0  0  0  0  0
   -3.9590   -0.0450    0.1210 C   0  0  0  0  0  0  0  0  0  0  0  0
   -2.7590    0.5700    0.5610 N   0  0  0  0  0  0  0  0  0  0  0  0
   -1.4630    0.2420    0.1540 C   0  0  1  0  0  0  0  0  0  0  0  0
   -0.9390   -1.1280    0.4730 C   0  0  0  0  0  0  0  0  0  0  0  0
    0.5370   -1.1040    0.1310 C   0  0  0  0  0  0  0  0  0  0  0  0
    1.2790   -2.0770    0.2050 O   0  0  0  0  0  0  0  0  0  0  0  0
    1.1440    0.1770   -0.3190 C   0  0  0  0  0  0  0  0  0  0  0  0
    2.3230    0.8280   -0.1470 C   0  0  0  0  0  0  0  0  0  0  0  0
    3.5380    0.3070    0.6250 C   0  0  1  0  0  0  0  0  0  0  0  0
    3.4380    1.0590    1.9340 C   0  0  0  0  0  0  0  0  0  0  0  0
    3.5320   -1.0750    0.5680 N   0  0  0  0  0  0  0  0  0  0  0  0
    4.4310   -1.8200    1.4290 C   0  0  0  0  0  0  0  0  0  0  0  0
    5.6880   -1.1000    1.7870 C   0  0  0  0  0  0  0  0  0  0  0  0
    6.3180   -0.6840    0.5010 C   0  0  0  0  0  0  0  0  0  0  0  0
    7.5210   -0.1910    0.2860 C   0  0  0  0  0  0  0  0  0  0  0  0
    7.6980    0.0640   -1.1580 C   0  0  0  0  0  0  0  0  0  0  0  0
    6.3960   -0.3570   -1.7330 C   0  0  0  0  0  0  0  0  0  0  0  0
    5.5920   -0.7970   -0.7460 C   0  0  0  0  0  0  0  0  0  0  0  0
    4.2150   -1.3230   -0.7980 C   0  0  0  0  0  0  0  0  0  0  0  0
    2.2460    1.9730   -0.8080 N   0  0  0  0  0  0  0  0  0  0  0  0
    1.0620    2.1030   -1.4060 N   0  0  0  0  0  0  0  0  0  0  0  0
    0.6650    3.2320   -2.2620 C   0  0  0  0  0  0  0  0  0  0  0  0
    0.3740    1.0250   -1.1170 C   0  0  0  0  0  0  0  0  0  0  0  0
   -1.0530    0.5520   -1.2870 C   0  0  0  0  0  0  0  0  0  0  0  0
  1  2  1  0
  2  3  2  3
  3  4  1  0
  3 11  1  0
  4  5  2  0
  5  6  1  0
  5  7  1  0
  7  8  1  0
  8  9  1  0
  9 10  1  0
 10 11  2  0
 11 12  1  0
 13 12  1  6
 13 14  1  0
 13 34  1  0
 14 15  1  0
 15 16  2  0
 15 17  1  0
 17 18  1  0
 17 33  2  0
 18 19  1  0
 18 30  2  0
 19 20  1  1
 19 21  1  0
 21 22  1  0
 21 29  1  0
 22 23  1  0
 23 24  1  0
 24 25  2  0
 24 28  1  0
 25 26  1  0
 26 27  1  0
 27 28  2  0
 28 29  1  0
 30 31  1  0
 31 32  1  0
 31 33  1  0
 33 34  1  0
M  END
