
     RDKit          3D

 29 31  0  0  0  0  0  0  0  0999 V2000
    8.0980    2.1450   -0.3450 C   0  0  0  0  0  0  0  0  0  0  0  0
    7.6830    0.9180    0.4290 C   0  0  0  0  0  0  0  0  0  0  0  0
    6.4910    0.3040   -0.0820 N   0  0  0  0  0  0  0  0  0  0  0  0
    5.3060    1.0450    0.0890 C   0  0  0  0  0  0  0  0  0  0  0  0
    4.1780    0.2900   -0.6250 C   0  0  0  0  0  0  0  0  0  0  0  0
    4.0040   -0.9180    0.1300 N   0  0  0  0  0  0  0  0  0  0  0  0
    2.7360   -1.3400    0.5540 C   0  0  0  0  0  0  0  0  0  0  0  0
    2.5700   -2.4060    1.2110 O   0  0  0  0  0  0  0  0  0  0  0  0
    1.5490   -0.4800    0.2060 C   0  0  0  0  0  0  0  0  0  0  0  0
    0.3710   -1.0990    0.7390 N   0  0  0  0  0  0  0  0  0  0  0  0
   -0.6390   -1.2050   -0.2870 C   0  0  1  0  0  0  0  0  0  0  0  0
   -1.6940   -2.1730    0.2090 C   0  0  0  0  0  0  0  0  0  0  0  0
   -3.0000   -1.9910   -0.5430 C   0  0  0  0  0  0  0  0  0  0  0  0
   -3.5860   -0.6200   -0.3020 C   0  0  1  0  0  0  0  0  0  0  0  0
   -4.6330   -0.6170    0.6680 N   0  0  2  0  0  0  0  0  0  0  0  0
   -5.8180   -1.3310    0.2370 C   0  0  0  0  0  0  0  0  0  0  0  0
   -6.5730   -0.4590   -0.7260 C   0  0  0  0  0  0  0  0  0  0  0  0
   -5.8590    0.8720   -0.5530 C   0  0  0  0  0  0  0  0  0  0  0  0
   -5.8920    1.8670   -1.4010 C   0  0  0  0  0  0  0  0  0  0  0  0
   -5.2530    3.0330   -1.2310 F   0  0  0  0  0  0  0  0  0  0  0  0
   -6.6190    1.7310   -2.5350 F   0  0  0  0  0  0  0  0  0  0  0  0
   -5.1530    0.7450    0.7190 C   0  0  0  0  0  0  0  0  0  0  0  0
   -5.0160    1.6420    1.6410 C   0  0  0  0  0  0  0  0  0  0  0  0
   -5.5280    3.0040    1.7230 C   0  0  0  0  0  0  0  0  0  0  0  0
   -4.5640    3.9740    1.7720 F   0  0  0  0  0  0  0  0  0  0  0  0
   -2.4890    0.3110    0.1950 C   0  0  0  0  0  0  0  0  0  0  0  0
   -1.2370    0.1310   -0.6100 C   0  0  0  0  0  0  0  0  0  0  0  0
    5.1670   -1.7050    0.4630 C   0  0  0  0  0  0  0  0  0  0  0  0
    6.4440   -1.1030   -0.0250 C   0  0  0  0  0  0  0  0  0  0  0  0
  1  2  1  0
  2  3  1  0
  3  4  1  0
  3 29  1  0
  4  5  1  0
  5  6  1  0
  6  7  1  0
  6 28  1  0
  7  8  2  0
  7  9  1  0
  9 10  1  0
 11 10  1  1
 11 12  1  0
 11 27  1  0
 12 13  1  0
 14 13  1  1
 14 15  1  0
 14 26  1  0
 15 16  1  6
 15 22  1  0
 16 17  1  0
 17 18  1  0
 18 19  2  3
 18 22  1  0
 19 20  1  0
 19 21  1  0
 22 23  2  3
 23 24  1  0
 24 25  1  0
 26 27  1  0
 28 29  1  0
M  CHG  2  10   1  15   1
M  END
