
     RDKit          3D

 29 31  0  0  0  0  0  0  0  0999 V2000
   -6.3600    2.2770   -1.0280 C   0  0  0  0  0  0  0  0  0  0  0  0
   -7.1800    1.1140   -0.5690 C   0  0  2  0  0  0  0  0  0  0  0  0
   -8.5190    1.7570    0.0670 C   0  0  0  0  0  0  0  0  0  0  0  0
   -6.6080    0.4150    0.6070 C   0  0  0  0  0  0  0  0  0  0  0  0
   -5.4490   -0.0860    0.6370 O   0  0  0  0  0  0  0  0  0  0  0  0
   -4.2420   -0.5900    0.6590 C   0  0  0  0  0  0  0  0  0  0  0  0
   -3.1550   -0.0030   -0.0090 C   0  0  0  0  0  0  0  0  0  0  0  0
   -1.9010   -0.5480    0.0400 C   0  0  0  0  0  0  0  0  0  0  0  0
   -0.8890    0.0100   -0.8160 C   0  0  0  0  0  0  0  0  0  0  0  0
    0.4570   -0.1150   -0.6230 N   0  0  0  0  0  0  0  0  0  0  0  0
    1.0700    0.6670    0.3540 C   0  0  0  0  0  0  0  0  0  0  0  0
    2.3930    0.3300    0.8790 C   0  0  0  0  0  0  0  0  0  0  0  0
    3.0190   -0.7210    0.0980 N   0  0  1  0  0  0  0  0  0  0  0  0
    4.2600   -1.2100    0.6550 C   0  0  0  0  0  0  0  0  0  0  0  0
    5.4350   -0.5910    0.0260 C   0  0  0  0  0  0  0  0  0  0  0  0
    5.4830   -0.5440   -1.3560 C   0  0  0  0  0  0  0  0  0  0  0  0
    6.5820    0.0410   -1.9990 C   0  0  0  0  0  0  0  0  0  0  0  0
    7.5690    0.5450   -1.1830 C   0  0  0  0  0  0  0  0  0  0  0  0
    7.5130    0.4910    0.1910 C   0  0  0  0  0  0  0  0  0  0  0  0
    8.6250    1.0540    1.0310 C   0  0  2  0  0  0  0  0  0  0  0  0
    8.2420    1.0490    2.3670 F   0  0  0  0  0  0  0  0  0  0  0  0
    8.8940    2.3890    0.6880 F   0  0  0  0  0  0  0  0  0  0  0  0
    9.8020    0.3300    0.8580 F   0  0  0  0  0  0  0  0  0  0  0  0
    6.4190   -0.0910    0.7390 N   0  0  0  0  0  0  0  0  0  0  0  0
    2.0350   -1.7970    0.1120 C   0  0  0  0  0  0  0  0  0  0  0  0
    1.0340   -1.3850   -0.9220 C   0  0  0  0  0  0  0  0  0  0  0  0
   -1.7230   -1.7040    0.7730 C   0  0  0  0  0  0  0  0  0  0  0  0
   -2.8110   -2.2850    1.4360 C   0  0  0  0  0  0  0  0  0  0  0  0
   -4.0160   -1.7550    1.3830 N   0  0  0  0  0  0  0  0  0  0  0  0
  2  1  1  1
  2  3  1  0
  2  4  1  0
  4  5  1  0
  5  6  1  0
  6  7  2  0
  6 29  1  0
  7  8  1  0
  8  9  1  0
  8 27  2  0
  9 10  1  0
 10 11  1  0
 10 26  1  0
 11 12  1  0
 12 13  1  0
 13 14  1  1
 13 25  1  0
 14 15  1  0
 15 16  2  0
 15 24  1  0
 16 17  1  0
 17 18  2  0
 18 19  1  0
 19 20  1  0
 19 24  2  0
 20 21  1  1
 20 22  1  0
 20 23  1  0
 25 26  1  0
 27 28  1  0
 28 29  2  0
M  CHG  2  13   1  29   1
M  END
