
     RDKit          3D

 30 33  0  0  0  0  0  0  0  0999 V2000
   -5.5940   -0.9930   -1.6520 C   0  0  0  0  0  0  0  0  0  0  0  0
   -4.8230    0.0980   -0.8950 C   0  0  1  0  0  0  0  0  0  0  0  0
   -5.7480    0.6590    0.1400 C   0  0  0  0  0  0  0  0  0  0  0  0
   -5.3320    0.0550    1.4690 C   0  0  0  0  0  0  0  0  0  0  0  0
   -3.9270    0.5150    1.8080 C   0  0  1  0  0  0  0  0  0  0  0  0
   -3.9860    1.9690    2.2520 C   0  0  0  0  0  0  0  0  0  0  0  0
   -3.2900   -0.3160    2.8620 C   0  0  0  0  0  0  0  0  0  0  0  0
   -1.8060   -0.1160    2.5300 C   0  0  0  0  0  0  0  0  0  0  0  0
   -1.8050   -0.3750    0.9930 C   0  0  2  0  0  0  0  0  0  0  0  0
   -0.5000    0.0540    0.4170 C   0  0  1  0  0  0  0  0  0  0  0  0
    0.4420   -0.7480    1.1740 O   0  0  0  0  0  0  0  0  0  0  0  0
   -0.2770   -0.3830   -0.9720 C   0  0  1  0  0  0  0  0  0  0  0  0
   -1.1680    0.0670   -2.0340 C   0  0  0  0  0  0  0  0  0  0  0  0
   -1.8520    1.0930   -2.1380 O   0  0  0  0  0  0  0  0  0  0  0  0
   -1.2360   -0.8530   -3.1200 O   0  0  0  0  0  0  0  0  0  0  0  0
   -0.0830   -1.7210   -3.1780 C   0  0  0  0  0  0  0  0  0  0  0  0
    1.1840   -1.0400   -2.7900 C   0  0  0  0  0  0  0  0  0  0  0  0
    1.1170   -0.2110   -1.5240 C   0  0  1  0  0  0  0  0  0  0  0  0
    1.2940    1.2360   -1.9400 C   0  0  0  0  0  0  0  0  0  0  0  0
    2.2250   -0.5470   -0.5900 C   0  0  0  0  0  0  0  0  0  0  0  0
    3.5640   -0.3270   -1.3090 C   0  0  0  0  0  0  0  0  0  0  0  0
    4.7140   -0.6710   -0.3480 C   0  0  1  0  0  0  0  0  0  0  0  0
    6.0390   -0.4800   -0.9840 C   0  0  0  0  0  0  0  0  0  0  0  0
    7.0750   -0.1390   -0.1800 O   0  0  0  0  0  0  0  0  0  0  0  0
    6.8170    0.7880    0.7880 C   0  0  0  0  0  0  0  0  0  0  0  0
    5.7990    0.1980    1.7380 C   0  0  1  0  0  0  0  0  0  0  0  0
    5.6650    1.0190    2.8280 O   0  0  0  0  0  0  0  0  0  0  0  0
    4.5290   -0.0160    0.9770 C   0  0  0  0  0  0  0  0  0  0  0  0
   -3.0400    0.3340    0.5880 C   0  0  1  0  0  0  0  0  0  0  0  0
   -3.7140   -0.4780   -0.3130 O   0  0  0  0  0  0  0  0  0  0  0  0
  2  1  1  1
  2  3  1  0
  2 30  1  0
  3  4  1  0
  4  5  1  0
  5  6  1  1
  5  7  1  0
  5 29  1  0
  7  8  1  0
  9  8  1  1
  9 10  1  0
  9 29  1  0
 10 11  1  1
 10 12  1  0
 12 13  1  6
 12 18  1  0
 13 14  2  0
 13 15  1  0
 15 16  1  0
 16 17  1  0
 17 18  1  0
 18 19  1  6
 18 20  1  0
 20 21  1  0
 22 21  1  6
 22 23  1  0
 22 28  1  0
 23 24  1  0
 24 25  1  0
 25 26  1  0
 26 27  1  1
 26 28  1  0
 29 30  1  6
M  END
