
     RDKit          3D

 29 30  0  0  0  0  0  0  0  0999 V2000
   -1.9590    4.8950   -1.4340 C   0  0  0  0  0  0  0  0  0  0  0  0
   -0.7270    4.5910   -0.6060 C   0  0  0  0  0  0  0  0  0  0  0  0
   -0.7670    3.1530   -0.2220 N   0  0  0  0  0  0  0  0  0  0  0  0
    0.2790    2.4790   -0.1560 C   0  0  0  0  0  0  0  0  0  0  0  0
    0.5700    1.0940    0.1740 C   0  0  0  0  0  0  0  0  0  0  0  0
    1.8950    0.8100    0.1910 C   0  0  0  0  0  0  0  0  0  0  0  0
    2.5790   -0.3810    0.4570 C   0  0  0  0  0  0  0  0  0  0  0  0
    3.9500   -0.5240    0.4520 C   0  0  0  0  0  0  0  0  0  0  0  0
    4.6700    0.7110    0.1430 C   0  0  0  0  0  0  0  0  0  0  0  0
    4.5410   -1.7740    0.7910 C   0  0  0  0  0  0  0  0  0  0  0  0
    3.5080   -2.8440    1.2230 C   0  0  0  0  0  0  0  0  0  0  0  0
    5.7790   -2.1290    0.7980 C   0  0  0  0  0  0  0  0  0  0  0  0
    6.0820   -3.5680    1.2340 C   0  0  0  0  0  0  0  0  0  0  0  0
    6.9310   -1.3300    0.3870 C   0  0  1  0  0  0  0  0  0  0  0  0
    7.5850   -0.6540    1.3680 F   0  0  0  0  0  0  0  0  0  0  0  0
    7.9160   -2.3510    0.0320 F   0  0  0  0  0  0  0  0  0  0  0  0
    6.7790   -0.7010   -0.8180 F   0  0  0  0  0  0  0  0  0  0  0  0
   -0.3730    0.0370    0.3700 C   0  0  0  0  0  0  0  0  0  0  0  0
    0.1420   -1.1120    0.7600 O   0  0  0  0  0  0  0  0  0  0  0  0
   -1.7570   -0.0580    0.2330 N   0  0  0  0  0  0  0  0  0  0  0  0
   -2.6550   -1.2220    0.5670 C   0  0  0  0  0  0  0  0  0  0  0  0
   -3.4620   -0.8150   -0.5860 C   0  0  1  0  0  0  0  0  0  0  0  0
   -4.8830   -1.0390   -0.6810 C   0  0  0  0  0  0  0  0  0  0  0  0
   -5.4380   -1.7840   -1.6930 N   0  0  0  0  0  0  0  0  0  0  0  0
   -6.7550   -1.8500   -1.5870 C   0  0  0  0  0  0  0  0  0  0  0  0
   -7.0690   -1.1200   -0.4630 C   0  0  0  0  0  0  0  0  0  0  0  0
   -5.9070   -0.6330    0.0740 N   0  0  0  0  0  0  0  0  0  0  0  0
   -5.8230    0.1790    1.2430 C   0  0  0  0  0  0  0  0  0  0  0  0
   -2.9520    0.5640   -0.2180 C   0  0  0  0  0  0  0  0  0  0  0  0
  1  2  1  0
  2  3  1  0
  3  4  2  3
  4  5  1  0
  5  6  2  3
  5 18  1  0
  6  7  1  0
  7  8  2  3
  8  9  1  0
  8 10  1  0
 10 11  1  0
 10 12  2  3
 12 13  1  0
 12 14  1  0
 14 15  1  1
 14 16  1  0
 14 17  1  0
 18 19  2  0
 18 20  1  0
 20 21  1  0
 20 29  1  0
 21 22  1  0
 22 23  1  1
 22 29  1  0
 23 24  2  0
 23 27  1  0
 24 25  1  0
 25 26  2  0
 26 27  1  0
 27 28  1  0
M  CHG  2   3   1  24   1
M  END
