
     RDKit          3D

 29 31  0  0  0  0  0  0  0  0999 V2000
   -8.1120    1.4680   -1.2160 C   0  0  0  0  0  0  0  0  0  0  0  0
   -7.1920    0.6680   -0.7270 C   0  0  0  0  0  0  0  0  0  0  0  0
   -6.1900   -0.1000   -1.5300 C   0  0  0  0  0  0  0  0  0  0  0  0
   -5.0930   -0.1580   -0.5660 N   0  0  0  0  0  0  0  0  0  0  0  0
   -3.6860   -0.0030   -0.8710 C   0  0  0  0  0  0  0  0  0  0  0  0
   -3.4070    0.1790   -2.0670 O   0  0  0  0  0  0  0  0  0  0  0  0
   -2.7490   -0.0810    0.2650 C   0  0  0  0  0  0  0  0  0  0  0  0
   -1.3430   -0.0160   -0.1080 N   0  0  0  0  0  0  0  0  0  0  0  0
   -0.6670    0.3380    1.1840 C   0  0  0  0  0  0  0  0  0  0  0  0
    0.8110    0.2250    1.1170 C   0  0  0  0  0  0  0  0  0  0  0  0
    1.4080   -0.2690   -0.0510 N   0  0  0  0  0  0  0  0  0  0  0  0
    2.6520   -0.9400    0.2170 C   0  0  0  0  0  0  0  0  0  0  0  0
    3.7830   -0.0510    0.6550 C   0  0  0  0  0  0  0  0  0  0  0  0
    4.0170    0.9450   -0.4370 C   0  0  0  0  0  0  0  0  0  0  0  0
    5.1590    1.8880   -0.1990 C   0  0  0  0  0  0  0  0  0  0  0  0
    6.4440    1.1680   -0.0940 C   0  0  0  0  0  0  0  0  0  0  0  0
    7.2830    1.1400    0.8910 C   0  0  0  0  0  0  0  0  0  0  0  0
    8.3860    0.3080    0.5340 N   0  0  0  0  0  0  0  0  0  0  0  0
    8.1190   -0.1640   -0.7740 C   0  0  0  0  0  0  0  0  0  0  0  0
    6.9770    0.3270   -1.1760 C   0  0  0  0  0  0  0  0  0  0  0  0
    0.6100   -1.1220   -0.8430 C   0  0  0  0  0  0  0  0  0  0  0  0
   -0.8040   -1.3460   -0.3500 C   0  0  2  0  0  0  0  0  0  0  0  0
   -1.4700   -2.2120   -1.3320 C   0  0  1  0  0  0  0  0  0  0  0  0
   -0.7290   -3.4310   -1.3280 F   0  0  0  0  0  0  0  0  0  0  0  0
   -2.7540   -2.5640   -1.1310 F   0  0  0  0  0  0  0  0  0  0  0  0
   -1.3250   -1.7850   -2.6610 F   0  0  0  0  0  0  0  0  0  0  0  0
   -5.6980   -0.4200    0.7160 C   0  0  0  0  0  0  0  0  0  0  0  0
   -6.9520    0.3610    0.6750 C   0  0  0  0  0  0  0  0  0  0  0  0
   -7.6830    0.6910    1.7240 C   0  0  0  0  0  0  0  0  0  0  0  0
  1  2  2  0
  2  3  1  0
  2 28  1  0
  3  4  1  0
  4  5  1  0
  4 27  1  0
  5  6  2  0
  5  7  1  0
  7  8  1  0
  8  9  1  0
  8 22  1  0
  9 10  1  0
 10 11  1  0
 11 12  1  0
 11 21  1  0
 12 13  1  0
 13 14  1  0
 14 15  1  0
 15 16  1  0
 16 17  2  0
 16 20  1  0
 17 18  1  0
 18 19  1  0
 19 20  2  0
 22 21  1  6
 22 23  1  0
 23 24  1  6
 23 25  1  0
 23 26  1  0
 27 28  1  0
 28 29  2  0
M  CHG  1  18   1
M  END
