
     RDKit          3D

 29 31  0  0  0  0  0  0  0  0999 V2000
   -2.9380   -1.0980    2.2590 C   0  0  0  0  0  0  0  0  0  0  0  0
   -2.5970    0.1380    1.4850 C   0  0  1  0  0  0  0  0  0  0  0  0
   -2.4120    1.2960    2.4450 C   0  0  0  0  0  0  0  0  0  0  0  0
   -1.3510    0.0010    0.6720 C   0  0  0  0  0  0  0  0  0  0  0  0
   -1.4270    0.1210   -0.6030 O   0  0  0  0  0  0  0  0  0  0  0  0
   -0.1130   -0.2530    1.2820 N   0  0  0  0  0  0  0  0  0  0  0  0
    0.1930   -0.4360    2.6740 C   0  0  0  0  0  0  0  0  0  0  0  0
    1.0320   -1.7100    2.6460 C   0  0  0  0  0  0  0  0  0  0  0  0
    1.6240   -1.6990    1.2280 C   0  0  0  0  0  0  0  0  0  0  0  0
    1.1650   -0.3840    0.6290 C   0  0  1  0  0  0  0  0  0  0  0  0
    1.1570   -0.3160   -0.8460 C   0  0  0  0  0  0  0  0  0  0  0  0
    2.4200   -0.4300   -1.4010 N   0  0  0  0  0  0  0  0  0  0  0  0
    3.1860   -1.5920   -1.4050 C   0  0  0  0  0  0  0  0  0  0  0  0
    4.5850   -1.1780   -0.9100 C   0  0  0  0  0  0  0  0  0  0  0  0
    5.1190   -0.1600   -1.7850 N   0  0  2  0  0  0  0  0  0  0  0  0
    6.2860    0.3780   -1.1160 C   0  0  0  0  0  0  0  0  0  0  0  0
    7.3210    0.8860   -2.0610 C   0  0  1  0  0  0  0  0  0  0  0  0
    6.8680    1.8880   -2.8610 F   0  0  0  0  0  0  0  0  0  0  0  0
    8.3910    1.3600   -1.3030 F   0  0  0  0  0  0  0  0  0  0  0  0
    7.7470   -0.1650   -2.8640 F   0  0  0  0  0  0  0  0  0  0  0  0
    4.2290    0.9100   -2.0750 C   0  0  0  0  0  0  0  0  0  0  0  0
    2.8130    0.4450   -2.4480 C   0  0  0  0  0  0  0  0  0  0  0  0
   -3.6910    0.4340    0.5740 N   0  0  2  0  0  0  0  0  0  0  0  0
   -3.9670   -0.6220   -0.3460 C   0  0  0  0  0  0  0  0  0  0  0  0
   -5.4730   -0.8250   -0.4350 C   0  0  0  0  0  0  0  0  0  0  0  0
   -6.0740    0.5320   -0.7050 C   0  0  0  0  0  0  0  0  0  0  0  0
   -5.3760    1.2830   -1.7860 C   0  0  0  0  0  0  0  0  0  0  0  0
   -4.0290    1.8150   -1.4560 C   0  0  0  0  0  0  0  0  0  0  0  0
   -3.6050    1.7300   -0.0350 C   0  0  0  0  0  0  0  0  0  0  0  0
  2  1  1  1
  2  3  1  0
  2  4  1  0
  2 23  1  0
  4  5  2  0
  4  6  1  0
  6  7  1  0
  6 10  1  0
  7  8  1  0
  8  9  1  0
  9 10  1  0
 10 11  1  6
 11 12  1  0
 12 13  1  0
 12 22  1  0
 13 14  1  0
 14 15  1  0
 15 16  1  1
 15 21  1  0
 16 17  1  0
 17 18  1  6
 17 19  1  0
 17 20  1  0
 21 22  1  0
 23 24  1  6
 23 29  1  0
 24 25  1  0
 25 26  1  0
 26 27  1  0
 27 28  1  0
 28 29  1  0
M  CHG  2  15   1  23   1
M  END
