
     RDKit          3D

 31 33  0  0  0  0  0  0  0  0999 V2000
    5.7840   -1.0290    2.4880 C   0  0  0  0  0  0  0  0  0  0  0  0
    5.3130   -0.1370    1.5270 O   0  0  0  0  0  0  0  0  0  0  0  0
    4.3380   -0.7170    0.7180 C   0  0  2  0  0  0  0  0  0  0  0  0
    4.8460   -0.6230   -0.7130 C   0  0  0  0  0  0  0  0  0  0  0  0
    4.0170    0.4430   -1.3960 C   0  0  0  0  0  0  0  0  0  0  0  0
    2.5900   -0.1380   -1.4650 C   0  0  2  0  0  0  0  0  0  0  0  0
    1.8500    0.7140   -2.4350 C   0  0  0  0  0  0  0  0  0  0  0  0
    0.3940    0.8540   -2.1910 C   0  0  0  0  0  0  0  0  0  0  0  0
    0.0740    1.2080   -0.7310 C   0  0  1  0  0  0  0  0  0  0  0  0
    0.7190    2.5460   -0.4900 C   0  0  0  0  0  0  0  0  0  0  0  0
   -1.2490    1.1250   -0.6500 O   0  0  0  0  0  0  0  0  0  0  0  0
   -2.1130    2.0520   -0.3120 C   0  0  2  0  0  0  0  0  0  0  0  0
   -2.1380    3.3200   -1.1740 C   0  0  0  0  0  0  0  0  0  0  0  0
   -2.1270    2.5340    1.1100 C   0  0  0  0  0  0  0  0  0  0  0  0
   -3.5060    1.4200   -0.5440 C   0  0  0  0  0  0  0  0  0  0  0  0
   -3.8770    0.4500    0.5150 C   0  0  1  0  0  0  0  0  0  0  0  0
   -5.3780    0.6070    0.7930 C   0  0  0  0  0  0  0  0  0  0  0  0
   -3.7100   -0.9620   -0.0120 C   0  0  0  0  0  0  0  0  0  0  0  0
   -3.1150   -1.8200    1.0350 C   0  0  0  0  0  0  0  0  0  0  0  0
   -3.6980   -1.8220    2.2910 O   0  0  0  0  0  0  0  0  0  0  0  0
   -2.0560   -2.5900    0.8480 C   0  0  0  0  0  0  0  0  0  0  0  0
   -1.5700   -3.3470    1.8530 F   0  0  0  0  0  0  0  0  0  0  0  0
   -1.3960   -2.6280   -0.4690 C   0  0  2  0  0  0  0  0  0  0  0  0
   -0.5120   -3.8370   -0.6030 C   0  0  0  0  0  0  0  0  0  0  0  0
   -1.2980   -4.9710   -0.4190 O   0  0  0  0  0  0  0  0  0  0  0  0
   -0.7060   -1.4400   -0.6370 O   0  0  0  0  0  0  0  0  0  0  0  0
   -0.3100   -0.8650    0.5420 C   0  0  0  0  0  0  0  0  0  0  0  0
    0.7190    0.2320    0.2220 C   0  0  2  0  0  0  0  0  0  0  0  0
    0.8300    0.9410    1.4460 O   0  0  0  0  0  0  0  0  0  0  0  0
    2.0090   -0.3370   -0.1360 C   0  0  2  0  0  0  0  0  0  0  0  0
    3.0750    0.0780    0.9030 C   0  0  0  0  0  0  0  0  0  0  0  0
  1  2  1  0
  3  2  1  1
  3  4  1  0
  3 31  1  0
  4  5  1  0
  6  5  1  1
  6  7  1  0
  6 30  1  0
  7  8  1  0
  8  9  1  0
  9 10  1  1
  9 11  1  0
  9 28  1  0
 11 12  1  0
 12 13  1  6
 12 14  1  0
 12 15  1  0
 15 16  1  0
 16 17  1  6
 16 18  1  0
 18 19  1  0
 19 20  1  0
 19 21  2  0
 21 22  1  0
 21 23  1  0
 23 24  1  1
 23 26  1  0
 24 25  1  0
 26 27  1  0
 27 28  1  0
 28 29  1  1
 28 30  1  0
 30 31  1  1
M  END
