
     RDKit          3D

 28 30  0  0  0  0  0  0  0  0999 V2000
    4.8740   -4.2300    0.1450 C   0  0  0  0  0  0  0  0  0  0  0  0
    4.4350   -2.9210   -0.3550 N   0  0  1  0  0  0  0  0  0  0  0  0
    3.0390   -2.9040   -0.6300 C   0  0  0  0  0  0  0  0  0  0  0  0
    2.6980   -1.4280   -0.4340 C   0  0  0  0  0  0  0  0  0  0  0  0
    1.9200   -0.7400   -1.1080 N   0  0  0  0  0  0  0  0  0  0  0  0
    1.4390    0.5340   -1.1720 C   0  0  0  0  0  0  0  0  0  0  0  0
    0.2550    0.8780   -0.6300 C   0  0  0  0  0  0  0  0  0  0  0  0
   -0.4700   -0.2100    0.0330 C   0  0  0  0  0  0  0  0  0  0  0  0
   -1.7350   -0.5740   -0.5220 N   0  0  2  0  0  0  0  0  0  0  0  0
   -2.7960   -0.0760    0.3100 C   0  0  0  0  0  0  0  0  0  0  0  0
   -4.1260   -0.7640    0.0740 C   0  0  0  0  0  0  0  0  0  0  0  0
   -4.2980   -1.7970    1.1690 C   0  0  0  0  0  0  0  0  0  0  0  0
   -3.5750   -3.0470    0.7530 C   0  0  0  0  0  0  0  0  0  0  0  0
   -2.0900   -2.6910    0.6970 C   0  0  0  0  0  0  0  0  0  0  0  0
   -1.8410   -2.0490   -0.6290 C   0  0  0  0  0  0  0  0  0  0  0  0
   -0.1310    2.2330   -0.6980 N   0  0  0  0  0  0  0  0  0  0  0  0
   -1.2820    2.6830   -1.4360 C   0  0  0  0  0  0  0  0  0  0  0  0
   -2.0730    3.6500   -0.5570 C   0  0  0  0  0  0  0  0  0  0  0  0
   -1.6210    5.0660   -0.6810 C   0  0  0  0  0  0  0  0  0  0  0  0
   -0.1550    5.2860   -0.5100 C   0  0  0  0  0  0  0  0  0  0  0  0
    0.4130    4.4340    0.6120 C   0  0  0  0  0  0  0  0  0  0  0  0
    0.7600    3.1360    0.0180 C   0  0  0  0  0  0  0  0  0  0  0  0
    1.9410    2.7650    0.1360 O   0  0  0  0  0  0  0  0  0  0  0  0
    3.5250   -1.0880    0.7210 C   0  0  0  0  0  0  0  0  0  0  0  0
    3.2220   -0.2940    1.7310 C   0  0  0  0  0  0  0  0  0  0  0  0
    4.1560   -0.1250    2.6960 F   0  0  0  0  0  0  0  0  0  0  0  0
    2.0580    0.3540    1.9030 F   0  0  0  0  0  0  0  0  0  0  0  0
    4.7850   -1.8650    0.5280 C   0  0  0  0  0  0  0  0  0  0  0  0
  2  1  1  1
  2  3  1  0
  2 28  1  0
  3  4  1  0
  4  5  2  3
  4 24  1  0
  5  6  1  0
  6  7  2  3
  7  8  1  0
  7 16  1  0
  9  8  1  1
  9 10  1  0
  9 15  1  0
 10 11  1  0
 11 12  1  0
 12 13  1  0
 13 14  1  0
 14 15  1  0
 16 17  1  0
 16 22  1  0
 17 18  1  0
 18 19  1  0
 19 20  1  0
 20 21  1  0
 21 22  1  0
 22 23  2  0
 24 25  2  3
 24 28  1  0
 25 26  1  0
 25 27  1  0
M  CHG  2   2   1   9   1
M  END
