
     RDKit          3D

 31 35  0  0  0  0  0  0  0  0999 V2000
   -1.7900    0.9100   -3.2560 C   0  0  0  0  0  0  0  0  0  0  0  0
   -1.1640    0.7450   -1.9990 O   0  0  0  0  0  0  0  0  0  0  0  0
   -1.1030    1.8430   -1.1510 C   0  0  0  0  0  0  0  0  0  0  0  0
   -1.6430    3.0720   -1.5290 C   0  0  0  0  0  0  0  0  0  0  0  0
   -1.5820    4.1600   -0.6870 C   0  0  0  0  0  0  0  0  0  0  0  0
   -0.9790    4.0030    0.5260 C   0  0  0  0  0  0  0  0  0  0  0  0
   -0.4400    2.7770    0.9030 C   0  0  0  0  0  0  0  0  0  0  0  0
   -0.4910    1.6770    0.0740 C   0  0  0  0  0  0  0  0  0  0  0  0
    0.0680    0.4000    0.3910 N   0  0  0  0  0  0  0  0  0  0  0  0
   -0.5320   -0.7730    0.6410 C   0  0  0  0  0  0  0  0  0  0  0  0
   -1.9700   -1.0190    0.6020 C   0  0  0  0  0  0  0  0  0  0  0  0
   -2.8960    0.0020    0.7990 C   0  0  0  0  0  0  0  0  0  0  0  0
   -4.2630   -0.1620    0.7040 C   0  0  0  0  0  0  0  0  0  0  0  0
   -5.1620    0.8650    0.9020 O   0  0  0  0  0  0  0  0  0  0  0  0
   -4.7480   -1.4090    0.3980 C   0  0  0  0  0  0  0  0  0  0  0  0
   -3.8730   -2.4540    0.1940 C   0  0  0  0  0  0  0  0  0  0  0  0
   -2.4810   -2.2620    0.2940 C   0  0  0  0  0  0  0  0  0  0  0  0
   -1.6640   -3.4720   -0.0160 C   0  0  0  0  0  0  0  0  0  0  0  0
    0.4220   -1.7430    0.8650 C   0  0  0  0  0  0  0  0  0  0  0  0
    1.6190   -1.1090    0.7390 N   0  0  0  0  0  0  0  0  0  0  0  0
    2.9470   -1.3280    0.8010 C   0  0  0  0  0  0  0  0  0  0  0  0
    3.7240   -2.4300    1.0510 C   0  0  0  0  0  0  0  0  0  0  0  0
    3.1340   -3.5170    1.2830 O   0  0  0  0  0  0  0  0  0  0  0  0
    5.0650   -2.3300    1.0440 N   0  0  0  0  0  0  0  0  0  0  0  0
    5.5930   -1.1270    0.7870 C   0  0  0  0  0  0  0  0  0  0  0  0
    6.8470   -1.0170    0.7770 O   0  0  0  0  0  0  0  0  0  0  0  0
    4.8790   -0.0250    0.5380 N   0  0  0  0  0  0  0  0  0  0  0  0
    5.5250    1.2640    0.2630 C   0  0  0  0  0  0  0  0  0  0  0  0
    3.5440   -0.1130    0.5420 C   0  0  0  0  0  0  0  0  0  0  0  0
    2.5940    0.8250    0.3260 N   0  0  0  0  0  0  0  0  0  0  0  0
    1.4140    0.1650    0.4580 C   0  0  0  0  0  0  0  0  0  0  0  0
  1  2  1  0
  2  3  1  0
  3  4  2  0
  3  8  1  0
  4  5  1  0
  5  6  2  0
  6  7  1  0
  7  8  2  0
  8  9  1  0
  9 10  1  0
  9 31  1  0
 10 11  1  0
 10 19  2  0
 11 12  2  0
 11 17  1  0
 12 13  1  0
 13 14  1  0
 13 15  2  0
 15 16  1  0
 16 17  2  0
 17 18  1  0
 19 20  1  0
 20 21  1  0
 20 31  1  0
 21 22  1  0
 21 29  2  0
 22 23  2  0
 22 24  1  0
 24 25  1  0
 25 26  2  0
 25 27  1  0
 27 28  1  0
 27 29  1  0
 29 30  1  0
 30 31  2  0
M  END
