
     RDKit          3D

 29 32  0  0  0  0  0  0  0  0999 V2000
   -3.3440    0.4700    2.2250 C   0  0  0  0  0  0  0  0  0  0  0  0
   -3.5370    0.7700    0.8160 N   0  0  0  0  0  0  0  0  0  0  0  0
   -4.3110    1.8270    0.2870 C   0  0  0  0  0  0  0  0  0  0  0  0
   -4.9470    2.6920    0.9840 N   0  0  0  0  0  0  0  0  0  0  0  0
   -4.2360    1.7030   -1.1650 C   0  0  0  0  0  0  0  0  0  0  0  0
   -4.8730    2.5540   -1.9750 C   0  0  0  0  0  0  0  0  0  0  0  0
   -5.6340    3.5990   -1.4660 O   0  0  0  0  0  0  0  0  0  0  0  0
   -3.4340    0.5940   -1.4130 N   0  0  0  0  0  0  0  0  0  0  0  0
   -3.0160    0.0360   -0.3010 C   0  0  0  0  0  0  0  0  0  0  0  0
   -2.1780   -1.1460   -0.1700 C   0  0  1  0  0  0  0  0  0  0  0  0
   -2.3610   -2.0920   -1.3580 C   0  0  0  0  0  0  0  0  0  0  0  0
   -1.7050   -3.3970   -1.0820 C   0  0  0  0  0  0  0  0  0  0  0  0
   -0.2760   -3.2240   -0.5580 C   0  0  0  0  0  0  0  0  0  0  0  0
   -0.3550   -2.2960    0.6010 C   0  0  0  0  0  0  0  0  0  0  0  0
   -0.7640   -0.9840    0.0090 N   0  0  2  0  0  0  0  0  0  0  0  0
   -0.3430    0.0740    0.8470 C   0  0  0  0  0  0  0  0  0  0  0  0
    0.9120    0.7430    0.5430 C   0  0  0  0  0  0  0  0  0  0  0  0
    1.0690    2.1410    0.5460 C   0  0  0  0  0  0  0  0  0  0  0  0
    2.3790    2.4020    0.3360 N   0  0  0  0  0  0  0  0  0  0  0  0
    3.0710    1.3020    0.1960 N   0  0  0  0  0  0  0  0  0  0  0  0
    4.4560    1.0640   -0.0340 C   0  0  0  0  0  0  0  0  0  0  0  0
    5.0300    1.1100   -1.2810 C   0  0  0  0  0  0  0  0  0  0  0  0
    6.3870    0.8460   -1.4160 C   0  0  0  0  0  0  0  0  0  0  0  0
    7.1770    0.5330   -0.3110 C   0  0  0  0  0  0  0  0  0  0  0  0
    8.5000    0.2600   -0.3960 F   0  0  0  0  0  0  0  0  0  0  0  0
    6.6050    0.4880    0.9330 C   0  0  0  0  0  0  0  0  0  0  0  0
    5.2600    0.7550    1.0430 C   0  0  0  0  0  0  0  0  0  0  0  0
    2.1810    0.2720    0.3180 C   0  0  0  0  0  0  0  0  0  0  0  0
    2.5360   -1.0890    0.1860 N   0  0  0  0  0  0  0  0  0  0  0  0
  1  2  1  0
  2  3  1  0
  2  9  1  0
  3  4  2  0
  3  5  1  0
  5  6  2  3
  5  8  1  0
  6  7  1  0
  8  9  2  0
 10  9  1  6
 10 11  1  0
 10 15  1  0
 11 12  1  0
 12 13  1  0
 13 14  1  0
 14 15  1  0
 15 16  1  1
 16 17  1  0
 17 18  1  0
 17 28  2  0
 18 19  2  0
 19 20  1  0
 20 21  1  0
 20 28  1  0
 21 22  2  0
 21 27  1  0
 22 23  1  0
 23 24  2  0
 24 25  1  0
 24 26  1  0
 26 27  2  0
 28 29  1  0
M  CHG  1  15   1
M  END
