
     RDKit          3D

 29 31  0  0  0  0  0  0  0  0999 V2000
    7.6300   -2.5950    0.6000 C   0  0  0  0  0  0  0  0  0  0  0  0
    6.6050   -1.8290    1.9000 S   0  0  0  0  0  0  0  0  0  0  0  0
    6.3120   -0.0930    1.5240 C   0  0  0  0  0  0  0  0  0  0  0  0
    5.4720    0.0310    0.2920 C   0  0  0  0  0  0  0  0  0  0  0  0
    5.8940    0.1150   -0.9670 N   0  0  0  0  0  0  0  0  0  0  0  0
    4.8080    0.2160   -1.7960 C   0  0  0  0  0  0  0  0  0  0  0  0
    4.9390    0.3470   -3.5300 Cl  0  0  0  0  0  0  0  0  0  0  0  0
    3.6780    0.1940   -1.0290 C   0  0  0  0  0  0  0  0  0  0  0  0
    2.3010    0.2620   -1.3060 N   0  0  0  0  0  0  0  0  0  0  0  0
    1.7380    0.3810   -2.5690 C   0  0  0  0  0  0  0  0  0  0  0  0
    2.3980    0.4410   -3.6060 O   0  0  0  0  0  0  0  0  0  0  0  0
    0.2440    0.4480   -2.7760 C   0  0  0  0  0  0  0  0  0  0  0  0
   -0.4300    0.3740   -1.5430 O   0  0  0  0  0  0  0  0  0  0  0  0
   -1.8450    0.4280   -1.6050 C   0  0  0  0  0  0  0  0  0  0  0  0
   -2.4010    0.5350   -2.7110 O   0  0  0  0  0  0  0  0  0  0  0  0
   -2.6220    0.3620   -0.4320 N   0  0  0  0  0  0  0  0  0  0  0  0
   -4.0360    0.4050   -0.3480 C   0  0  0  0  0  0  0  0  0  0  0  0
   -4.8570    0.5230   -1.4490 C   0  0  0  0  0  0  0  0  0  0  0  0
   -6.2580    0.5660   -1.3540 C   0  0  0  0  0  0  0  0  0  0  0  0
   -6.8470    0.4870   -0.1240 C   0  0  0  0  0  0  0  0  0  0  0  0
   -8.5910    0.5380    0.0170 Cl  0  0  0  0  0  0  0  0  0  0  0  0
   -6.0770    0.3690    0.9900 C   0  0  0  0  0  0  0  0  0  0  0  0
   -6.7290    0.2930    2.2120 C   0  0  0  0  0  0  0  0  0  0  0  0
   -5.9940    0.1730    3.3630 C   0  0  0  0  0  0  0  0  0  0  0  0
   -4.6270    0.1320    3.2700 C   0  0  0  0  0  0  0  0  0  0  0  0
   -3.9540    0.2080    2.0360 C   0  0  0  0  0  0  0  0  0  0  0  0
   -4.6770    0.3270    0.8930 C   0  0  0  0  0  0  0  0  0  0  0  0
    4.1310    0.0780    0.2640 N   0  0  0  0  0  0  0  0  0  0  0  0
    3.3520    0.0170    1.3860 O   0  0  0  0  0  0  0  0  0  0  0  0
  1  2  1  0
  2  3  1  0
  3  4  1  0
  4  5  1  0
  4 28  2  0
  5  6  1  0
  6  7  1  0
  6  8  2  0
  8  9  1  0
  8 28  1  0
  9 10  1  0
 10 11  2  0
 10 12  1  0
 12 13  1  0
 13 14  1  0
 14 15  2  0
 14 16  1  0
 16 17  1  0
 17 18  2  0
 17 27  1  0
 18 19  1  0
 19 20  2  0
 20 21  1  0
 20 22  1  0
 22 23  2  0
 22 27  1  0
 23 24  1  0
 24 25  2  0
 25 26  1  0
 26 27  2  0
 28 29  1  0
M  CHG  2  28   1  29  -1
M  END
