
     RDKit          3D

 28 30  0  0  0  0  0  0  0  0999 V2000
    5.4800    1.5740    0.5240 C   0  0  0  0  0  0  0  0  0  0  0  0
    5.5660    0.1560    1.0830 C   0  0  0  0  0  0  0  0  0  0  0  0
    5.4510   -0.8580    0.0180 C   0  0  0  0  0  0  0  0  0  0  0  0
    6.9110   -1.6420   -0.7110 S   0  0  0  0  0  0  0  0  0  0  0  0
    6.0290   -2.6210   -1.8770 C   0  0  0  0  0  0  0  0  0  0  0  0
    6.7450   -3.7260   -3.0330 Cl  0  0  0  0  0  0  0  0  0  0  0  0
    4.7350   -2.3100   -1.6550 C   0  0  0  0  0  0  0  0  0  0  0  0
    4.4050   -1.4180   -0.6970 C   0  0  0  0  0  0  0  0  0  0  0  0
    2.9880   -1.0990   -0.3850 C   0  0  0  0  0  0  0  0  0  0  0  0
    2.0720   -1.4180   -1.2310 O   0  0  0  0  0  0  0  0  0  0  0  0
    2.5240   -0.4470    0.8250 C   0  0  0  0  0  0  0  0  0  0  0  0
    1.0970   -0.3120    0.8480 O   0  0  0  0  0  0  0  0  0  0  0  0
    0.4800    0.4430   -0.1200 C   0  0  0  0  0  0  0  0  0  0  0  0
    1.1750    1.0000   -1.0000 O   0  0  0  0  0  0  0  0  0  0  0  0
   -0.9630    0.6360   -0.1840 C   0  0  0  0  0  0  0  0  0  0  0  0
   -1.8220    0.0740    0.7260 C   0  0  0  0  0  0  0  0  0  0  0  0
   -3.2030    0.2400    0.6910 C   0  0  0  0  0  0  0  0  0  0  0  0
   -3.7700    1.0000   -0.2960 C   0  0  0  0  0  0  0  0  0  0  0  0
   -5.1380    1.2560   -0.3600 N   0  0  0  0  0  0  0  0  0  0  0  0
   -6.2050    0.5830    0.2430 C   0  0  0  0  0  0  0  0  0  0  0  0
   -6.3230   -0.5830    0.9490 C   0  0  0  0  0  0  0  0  0  0  0  0
   -7.6110   -0.7790    1.3730 N   0  0  0  0  0  0  0  0  0  0  0  0
   -8.2670    0.2620    0.9240 N   0  0  0  0  0  0  0  0  0  0  0  0
   -9.6190    0.4600    1.1340 O   0  0  0  0  0  0  0  0  0  0  0  0
   -7.5090    1.0770    0.2680 N   0  0  0  0  0  0  0  0  0  0  0  0
   -2.9050    1.5920   -1.2470 C   0  0  0  0  0  0  0  0  0  0  0  0
   -3.6180    2.5710   -2.5190 Cl  0  0  0  0  0  0  0  0  0  0  0  0
   -1.5580    1.3990   -1.1680 C   0  0  0  0  0  0  0  0  0  0  0  0
  1  2  1  0
  2  3  1  0
  3  4  1  0
  3  8  2  0
  4  5  1  0
  5  6  1  0
  5  7  2  0
  7  8  1  0
  8  9  1  0
  9 10  2  0
  9 11  1  0
 11 12  1  0
 12 13  1  0
 13 14  2  0
 13 15  1  0
 15 16  2  0
 15 28  1  0
 16 17  1  0
 17 18  2  0
 18 19  1  0
 18 26  1  0
 19 20  1  0
 20 21  1  0
 20 25  2  0
 21 22  2  0
 22 23  1  0
 23 24  1  0
 23 25  1  0
 26 27  1  0
 26 28  2  0
M  CHG  2  22   1  24  -1
M  END
