
     RDKit          3D

 29 31  0  0  0  0  0  0  0  0999 V2000
   -4.1650   -0.5640   -1.5890 O   0  0  0  0  0  0  0  0  0  0  0  0
   -3.7650   -1.0840   -0.4990 C   0  0  0  0  0  0  0  0  0  0  0  0
   -2.3990   -0.8450    0.0240 C   0  0  0  0  0  0  0  0  0  0  0  0
   -1.7060    0.0220   -0.8970 N   0  0  0  0  0  0  0  0  0  0  0  0
   -0.3800    0.3880   -0.5920 N   0  0  0  0  0  0  0  0  0  0  0  0
    0.5420   -0.4640   -0.8330 C   0  0  0  0  0  0  0  0  0  0  0  0
    1.9550   -0.1710   -0.5480 C   0  0  0  0  0  0  0  0  0  0  0  0
    3.3410   -1.2830   -0.8480 S   0  0  0  0  0  0  0  0  0  0  0  0
    4.5760   -0.2040   -0.2610 C   0  0  0  0  0  0  0  0  0  0  0  0
    5.9680   -0.3760   -0.1740 C   0  0  0  0  0  0  0  0  0  0  0  0
    6.7690    0.6130    0.3260 C   0  0  0  0  0  0  0  0  0  0  0  0
    8.1990    0.4930    0.4390 C   0  0  0  0  0  0  0  0  0  0  0  0
    8.9900   -0.4800    0.1310 C   0  0  0  0  0  0  0  0  0  0  0  0
    8.5820   -2.0260   -0.5460 Cl  0  0  0  0  0  0  0  0  0  0  0  0
    6.0930    1.7690    0.7250 C   0  0  0  0  0  0  0  0  0  0  0  0
    7.1140    3.0650    1.3760 Cl  0  0  0  0  0  0  0  0  0  0  0  0
    4.7420    1.9360    0.6400 C   0  0  0  0  0  0  0  0  0  0  0  0
    3.9120    0.9080    0.1220 C   0  0  0  0  0  0  0  0  0  0  0  0
    2.5690    0.9360   -0.0200 C   0  0  0  0  0  0  0  0  0  0  0  0
    1.7190    2.0690    0.3500 N   0  0  0  0  0  0  0  0  0  0  0  0
    1.7850    3.0430   -0.4000 O   0  0  0  0  0  0  0  0  0  0  0  0
    0.9200    2.0390    1.4440 O   0  0  0  0  0  0  0  0  0  0  0  0
   -4.6540   -1.9160    0.2350 N   0  0  0  0  0  0  0  0  0  0  0  0
   -5.9850   -2.1430   -0.2830 C   0  0  0  0  0  0  0  0  0  0  0  0
   -6.7200   -0.8440   -0.4040 C   0  0  0  0  0  0  0  0  0  0  0  0
   -7.9850   -0.6950   -0.8910 C   0  0  0  0  0  0  0  0  0  0  0  0
   -8.2690    0.6460   -0.8250 C   0  0  0  0  0  0  0  0  0  0  0  0
   -7.1540    1.2650   -0.2950 C   0  0  0  0  0  0  0  0  0  0  0  0
   -6.2600    0.3230   -0.0630 O   0  0  0  0  0  0  0  0  0  0  0  0
  1  2  2  0
  2  3  1  0
  2 23  1  0
  3  4  1  0
  4  5  1  0
  5  6  2  3
  6  7  1  0
  7  8  1  0
  7 19  2  0
  8  9  1  0
  9 10  2  0
  9 18  1  0
 10 11  1  0
 11 12  1  0
 11 15  2  0
 12 13  2  3
 13 14  1  0
 15 16  1  0
 15 17  1  0
 17 18  2  0
 18 19  1  0
 19 20  1  0
 20 21  2  0
 20 22  1  0
 23 24  1  0
 24 25  1  0
 25 26  2  0
 25 29  1  0
 26 27  1  0
 27 28  2  0
 28 29  1  0
M  CHG  2  20   1  22  -1
M  END
