
     RDKit          3D

 29 31  0  0  0  0  0  0  0  0999 V2000
   -7.0720    1.6080   -0.4650 C   0  0  0  0  0  0  0  0  0  0  0  0
   -6.9970    0.2030    0.5920 S   0  0  0  0  0  0  0  0  0  0  0  0
   -5.6220    0.0160    1.7090 C   0  0  0  0  0  0  0  0  0  0  0  0
   -4.3020    0.0880    0.9870 C   0  0  0  0  0  0  0  0  0  0  0  0
   -3.3900    1.0670    1.3320 C   0  0  0  0  0  0  0  0  0  0  0  0
   -2.1110    0.9630    0.7770 C   0  0  0  0  0  0  0  0  0  0  0  0
   -0.8900    2.1540    1.1810 Cl  0  0  0  0  0  0  0  0  0  0  0  0
   -1.7330   -0.0660   -0.0940 C   0  0  0  0  0  0  0  0  0  0  0  0
   -0.4050   -0.1890   -0.5120 N   0  0  0  0  0  0  0  0  0  0  0  0
    0.0960   -0.9810   -1.5910 C   0  0  0  0  0  0  0  0  0  0  0  0
   -0.6840   -1.6100   -2.2800 O   0  0  0  0  0  0  0  0  0  0  0  0
    1.5620   -1.0000   -1.8260 C   0  0  0  0  0  0  0  0  0  0  0  0
    2.4400   -0.5860   -0.8540 N   0  0  0  0  0  0  0  0  0  0  0  0
    3.7070   -0.6830   -1.2770 C   0  0  0  0  0  0  0  0  0  0  0  0
    4.8800   -0.3480   -0.4460 C   0  0  0  0  0  0  0  0  0  0  0  0
    4.6010    0.0120    0.8840 C   0  0  0  0  0  0  0  0  0  0  0  0
    5.6210    0.3340    1.7530 C   0  0  0  0  0  0  0  0  0  0  0  0
    5.3010    0.7860    3.4250 Cl  0  0  0  0  0  0  0  0  0  0  0  0
    6.9050    0.2980    1.2860 C   0  0  0  0  0  0  0  0  0  0  0  0
    7.2150   -0.0530   -0.0090 C   0  0  0  0  0  0  0  0  0  0  0  0
    8.5780   -0.1010   -0.4560 N   0  0  0  0  0  0  0  0  0  0  0  0
    8.8250   -0.5220   -1.6180 O   0  0  0  0  0  0  0  0  0  0  0  0
    9.5430    0.3220    0.3850 O   0  0  0  0  0  0  0  0  0  0  0  0
    6.1460   -0.3680   -0.8380 C   0  0  0  0  0  0  0  0  0  0  0  0
    3.5970   -1.1580   -2.5270 N   0  0  0  0  0  0  0  0  0  0  0  0
    2.3030   -1.3270   -2.7940 O   0  0  0  0  0  0  0  0  0  0  0  0
   -2.6980   -1.0090   -0.3900 C   0  0  0  0  0  0  0  0  0  0  0  0
   -3.9630   -0.9310    0.1440 C   0  0  0  0  0  0  0  0  0  0  0  0
   -5.0160   -1.9220   -0.2180 C   0  0  0  0  0  0  0  0  0  0  0  0
  1  2  1  0
  2  3  1  0
  3  4  1  0
  4  5  2  0
  4 28  1  0
  5  6  1  0
  6  7  1  0
  6  8  2  0
  8  9  1  0
  8 27  1  0
  9 10  1  0
 10 11  2  0
 10 12  1  0
 12 13  2  0
 12 26  1  0
 13 14  1  0
 14 15  1  0
 14 25  2  0
 15 16  2  0
 15 24  1  0
 16 17  1  0
 17 18  1  0
 17 19  2  0
 19 20  1  0
 20 21  1  0
 20 24  2  0
 21 22  2  0
 21 23  1  0
 25 26  1  0
 27 28  2  0
 28 29  1  0
M  CHG  2  21   1  23  -1
M  END
