
     RDKit          3D

 29 32  0  0  0  0  0  0  0  0999 V2000
    8.3110    1.1120    0.3740 C   0  0  0  0  0  0  0  0  0  0  0  0
    7.5890   -0.2210   -0.6190 S   0  0  0  0  0  0  0  0  0  0  0  0
    5.8500   -0.4490   -0.2320 C   0  0  0  0  0  0  0  0  0  0  0  0
    5.4990   -1.3290    0.7650 C   0  0  0  0  0  0  0  0  0  0  0  0
    4.1690   -1.5050    1.0620 C   0  0  0  0  0  0  0  0  0  0  0  0
    3.2110   -0.7770    0.3340 C   0  0  0  0  0  0  0  0  0  0  0  0
    3.5600    0.0920   -0.6510 C   0  0  0  0  0  0  0  0  0  0  0  0
    2.6320    0.8360   -1.3990 N   0  0  0  0  0  0  0  0  0  0  0  0
    1.2290    0.8460   -1.3030 C   0  0  0  0  0  0  0  0  0  0  0  0
    0.4550    1.6310   -2.1070 N   0  0  0  0  0  0  0  0  0  0  0  0
   -0.8810    1.6540   -2.0290 C   0  0  0  0  0  0  0  0  0  0  0  0
   -1.5090    0.8510   -1.0980 C   0  0  0  0  0  0  0  0  0  0  0  0
   -2.8650    0.8500   -0.9920 C   0  0  0  0  0  0  0  0  0  0  0  0
   -3.4580    0.0380   -0.0530 C   0  0  0  0  0  0  0  0  0  0  0  0
   -4.9100    0.0170    0.0820 C   0  0  0  0  0  0  0  0  0  0  0  0
   -5.6960   -0.8700   -0.6470 C   0  0  0  0  0  0  0  0  0  0  0  0
   -4.9470   -1.9980   -1.7600 Cl  0  0  0  0  0  0  0  0  0  0  0  0
   -7.0670   -0.8830   -0.5140 C   0  0  0  0  0  0  0  0  0  0  0  0
   -7.6860   -0.0060    0.3550 C   0  0  0  0  0  0  0  0  0  0  0  0
   -6.9020    0.8730    1.0760 C   0  0  0  0  0  0  0  0  0  0  0  0
   -5.5280    0.9000    0.9560 C   0  0  0  0  0  0  0  0  0  0  0  0
   -4.6050    2.0310    1.8940 Cl  0  0  0  0  0  0  0  0  0  0  0  0
   -2.6520   -0.7440    0.7470 C   0  0  0  0  0  0  0  0  0  0  0  0
   -3.1780   -1.4950    1.6130 O   0  0  0  0  0  0  0  0  0  0  0  0
   -1.3140   -0.7530    0.6540 N   0  0  0  0  0  0  0  0  0  0  0  0
   -0.4900   -1.5850    1.5060 C   0  0  0  0  0  0  0  0  0  0  0  0
   -0.7350    0.0430   -0.2670 C   0  0  0  0  0  0  0  0  0  0  0  0
    0.5770    0.0990   -0.4290 N   0  0  0  0  0  0  0  0  0  0  0  0
    4.9120    0.2600   -0.9410 C   0  0  0  0  0  0  0  0  0  0  0  0
  1  2  1  0
  2  3  1  0
  3  4  2  0
  3 29  1  0
  4  5  1  0
  5  6  2  0
  6  7  1  0
  7  8  1  0
  7 29  2  0
  8  9  1  0
  9 10  2  0
  9 28  1  0
 10 11  1  0
 11 12  2  0
 12 13  1  0
 12 27  1  0
 13 14  2  0
 14 15  1  0
 14 23  1  0
 15 16  2  0
 15 21  1  0
 16 17  1  0
 16 18  1  0
 18 19  2  0
 19 20  1  0
 20 21  2  0
 21 22  1  0
 23 24  2  0
 23 25  1  0
 25 26  1  0
 25 27  1  0
 27 28  2  0
M  END
