
     RDKit          3D

 29 31  0  0  0  0  0  0  0  0999 V2000
    8.0230    2.1750   -0.6600 C   0  0  0  0  0  0  0  0  0  0  0  0
    6.9330    1.2240   -0.2980 C   0  0  0  0  0  0  0  0  0  0  0  0
    7.1620   -0.3080    0.5620 S   0  0  0  0  0  0  0  0  0  0  0  0
    5.4000   -0.7640    0.5630 C   0  0  0  0  0  0  0  0  0  0  0  0
    4.8120    0.2920   -0.0890 C   0  0  0  0  0  0  0  0  0  0  0  0
    3.3720    0.2910   -0.2880 N   0  0  0  0  0  0  0  0  0  0  0  0
    2.5140   -0.7300    0.1420 C   0  0  0  0  0  0  0  0  0  0  0  0
    2.9700   -1.7030    0.7280 O   0  0  0  0  0  0  0  0  0  0  0  0
    1.1110   -0.6710   -0.0840 N   0  0  0  0  0  0  0  0  0  0  0  0
    0.1660   -1.6340    0.3020 C   0  0  0  0  0  0  0  0  0  0  0  0
    0.4270   -2.7850    0.9550 C   0  0  0  0  0  0  0  0  0  0  0  0
   -0.6220   -3.6520    1.2750 C   0  0  0  0  0  0  0  0  0  0  0  0
   -0.2300   -5.1310    2.1220 Cl  0  0  0  0  0  0  0  0  0  0  0  0
   -1.9310   -3.3860    0.9530 C   0  0  0  0  0  0  0  0  0  0  0  0
   -2.1920   -2.2100    0.2860 C   0  0  0  0  0  0  0  0  0  0  0  0
   -1.1760   -1.3450   -0.0380 C   0  0  0  0  0  0  0  0  0  0  0  0
   -1.4770   -0.1750   -0.7070 O   0  0  0  0  0  0  0  0  0  0  0  0
   -2.7920    0.0970   -1.0330 C   0  0  0  0  0  0  0  0  0  0  0  0
   -3.6490    0.6940   -0.1310 C   0  0  0  0  0  0  0  0  0  0  0  0
   -4.9570    0.9840   -0.4040 C   0  0  0  0  0  0  0  0  0  0  0  0
   -5.8320    1.6320    0.6190 C   0  0  0  0  0  0  0  0  0  0  0  0
   -5.7980    3.0660    0.5280 N   0  0  0  0  0  0  0  0  0  0  0  0
   -6.8500    3.6930    0.3010 O   0  0  0  0  0  0  0  0  0  0  0  0
   -4.6450    3.7940    0.6800 O   0  0  0  0  0  0  0  0  0  0  0  0
   -5.4480    0.6620   -1.6520 C   0  0  0  0  0  0  0  0  0  0  0  0
   -4.5900    0.0610   -2.5670 C   0  0  0  0  0  0  0  0  0  0  0  0
   -3.3210   -0.1980   -2.2420 N   0  0  0  0  0  0  0  0  0  0  0  0
    5.6150    1.2920   -0.5180 C   0  0  0  0  0  0  0  0  0  0  0  0
    4.9680    2.7370   -1.3890 Cl  0  0  0  0  0  0  0  0  0  0  0  0
  1  2  1  0
  2  3  1  0
  2 28  2  0
  3  4  1  0
  4  5  2  0
  5  6  1  0
  5 28  1  0
  6  7  1  0
  7  8  2  0
  7  9  1  0
  9 10  1  0
 10 11  2  0
 10 16  1  0
 11 12  1  0
 12 13  1  0
 12 14  2  0
 14 15  1  0
 15 16  2  0
 16 17  1  0
 17 18  1  0
 18 19  2  0
 18 27  1  0
 19 20  1  0
 20 21  1  0
 20 25  2  0
 21 22  1  0
 22 23  2  0
 22 24  1  0
 25 26  1  0
 26 27  2  0
 28 29  1  0
M  CHG  2  22   1  24  -1
M  END
