
     RDKit          3D

 28 32  0  0  0  0  0  0  0  0999 V2000
   -2.1300   -2.7550    1.9220 N   0  0  0  0  0  0  0  0  0  0  0  0
   -1.7060   -1.7960    0.9700 C   0  0  0  0  0  0  0  0  0  0  0  0
   -2.5000   -1.1030    0.0530 C   0  0  0  0  0  0  0  0  0  0  0  0
   -3.8980   -1.2690   -0.0580 N   0  0  0  0  0  0  0  0  0  0  0  0
   -4.6860   -0.5350   -1.0190 C   0  0  2  0  0  0  0  0  0  0  0  0
   -4.5210    0.9380   -0.7270 C   0  0  0  0  0  0  0  0  0  0  0  0
   -5.8950    1.5150   -0.4540 C   0  0  0  0  0  0  0  0  0  0  0  0
   -6.5160    0.8070    0.6410 N   0  0  0  0  0  0  0  0  0  0  0  0
   -6.7230   -0.5870    0.3840 C   0  0  0  0  0  0  0  0  0  0  0  0
   -6.1260   -0.9260   -0.9740 C   0  0  0  0  0  0  0  0  0  0  0  0
   -1.6860   -0.2910   -0.6570 N   0  0  0  0  0  0  0  0  0  0  0  0
   -0.4200   -0.4280   -0.2450 C   0  0  0  0  0  0  0  0  0  0  0  0
    0.7910    0.1600   -0.6300 C   0  0  0  0  0  0  0  0  0  0  0  0
    1.9760   -0.1810   -0.0130 C   0  0  0  0  0  0  0  0  0  0  0  0
    3.2240    0.4450   -0.4320 C   0  0  0  0  0  0  0  0  0  0  0  0
    3.3580    1.3660   -1.4030 N   0  0  0  0  0  0  0  0  0  0  0  0
    4.6260    1.7020   -1.5030 O   0  0  0  0  0  0  0  0  0  0  0  0
    5.3430    1.0350   -0.6290 C   0  0  0  0  0  0  0  0  0  0  0  0
    6.7860    1.1240   -0.4250 C   0  0  0  0  0  0  0  0  0  0  0  0
    7.4030    0.3550    0.5390 C   0  0  0  0  0  0  0  0  0  0  0  0
    8.7620    0.4040    0.7700 C   0  0  0  0  0  0  0  0  0  0  0  0
    9.5220    1.2550    0.0040 C   0  0  0  0  0  0  0  0  0  0  0  0
    8.9490    2.0420   -0.9700 C   0  0  0  0  0  0  0  0  0  0  0  0
    7.5860    1.9620   -1.1670 C   0  0  0  0  0  0  0  0  0  0  0  0
    4.4690    0.2560    0.0330 N   0  0  0  0  0  0  0  0  0  0  0  0
    1.9190   -1.1200    0.9940 C   0  0  0  0  0  0  0  0  0  0  0  0
    0.7530   -1.7190    1.4000 C   0  0  0  0  0  0  0  0  0  0  0  0
   -0.4150   -1.3520    0.7580 C   0  0  0  0  0  0  0  0  0  0  0  0
  1  2  1  0
  2  3  2  0
  2 28  1  0
  3  4  1  0
  3 11  1  0
  5  4  1  1
  5  6  1  0
  5 10  1  0
  6  7  1  0
  7  8  1  0
  8  9  1  0
  9 10  1  0
 11 12  1  0
 12 13  2  0
 12 28  1  0
 13 14  1  0
 14 15  1  0
 14 26  2  0
 15 16  2  0
 15 25  1  0
 16 17  1  0
 17 18  1  0
 18 19  1  0
 18 25  2  0
 19 20  2  0
 19 24  1  0
 20 21  1  0
 21 22  2  0
 22 23  1  0
 23 24  2  0
 26 27  1  0
 27 28  2  0
M  CHG  1   8   1
M  END
