
     RDKit          3D

 41 43  0  0  0  0  0  0  0  0999 V2000
    6.0610   -0.7800    2.5620 C   0  0  0  0  0  0  0  0  0  0  0  0
    5.7170    0.0470    1.3800 C   0  0  0  0  0  0  0  0  0  0  0  0
    4.7160    0.9730    1.2760 N   0  0  0  0  0  0  0  0  0  0  0  0
    4.7560    1.4870    0.0430 C   0  0  0  0  0  0  0  0  0  0  0  0
    3.9340    2.5120   -0.6410 C   0  0  1  0  0  0  0  0  0  0  0  0
    3.6180    2.0190   -1.9350 O   0  0  0  0  0  0  0  0  0  0  0  0
    2.7330    2.8900    0.0990 C   0  0  0  0  0  0  0  0  0  0  0  0
    1.8150    2.0080    0.4260 C   0  0  0  0  0  0  0  0  0  0  0  0
    0.6000    2.4440    1.1820 C   0  0  0  0  0  0  0  0  0  0  0  0
   -0.5730    2.1650    0.2540 C   0  0  0  0  0  0  0  0  0  0  0  0
   -0.5980    0.6510    0.0420 C   0  0  1  0  0  0  0  0  0  0  0  0
   -1.6840    0.3070   -0.8750 N   0  0  0  0  0  0  0  0  0  0  0  0
   -2.9430   -0.1360   -0.3390 C   0  0  0  0  0  0  0  0  0  0  0  0
   -2.9840   -0.1580    0.9010 O   0  0  0  0  0  0  0  0  0  0  0  0
   -4.0570   -0.5380   -1.1690 C   0  0  0  0  0  0  0  0  0  0  0  0
   -5.3490   -0.9220   -0.7310 C   0  0  0  0  0  0  0  0  0  0  0  0
   -6.0620   -0.8310    0.3320 C   0  0  0  0  0  0  0  0  0  0  0  0
   -5.7520   -0.2140    1.6170 C   0  0  0  0  0  0  0  0  0  0  0  0
   -6.7010   -0.2680    2.6010 C   0  0  0  0  0  0  0  0  0  0  0  0
   -6.5020    0.3080    3.9080 C   0  0  0  0  0  0  0  0  0  0  0  0
   -5.4230    0.8900    4.1940 O   0  0  0  0  0  0  0  0  0  0  0  0
   -7.5610    0.2290    4.9390 C   0  0  2  0  0  0  0  0  0  0  0  0
   -7.9050   -1.1080    5.1340 F   0  0  0  0  0  0  0  0  0  0  0  0
   -8.6820    0.9540    4.6030 F   0  0  0  0  0  0  0  0  0  0  0  0
   -7.0960    0.7550    6.1520 F   0  0  0  0  0  0  0  0  0  0  0  0
   -7.7240   -1.6060    0.2940 S   0  0  0  0  0  0  0  0  0  0  0  0
   -8.1340   -2.2730   -1.2850 C   0  0  2  0  0  0  0  0  0  0  0  0
   -7.3000   -3.4330   -1.7620 C   0  0  0  0  0  0  0  0  0  0  0  0
   -8.2810   -1.2340   -2.3470 C   0  0  0  0  0  0  0  0  0  0  0  0
   -3.7020   -0.7700   -2.4630 C   0  0  0  0  0  0  0  0  0  0  0  0
   -4.5710   -1.1700   -3.5200 C   0  0  0  0  0  0  0  0  0  0  0  0
   -4.0890   -1.3710   -4.7070 O   0  0  0  0  0  0  0  0  0  0  0  0
    0.6620    0.1420   -0.5650 C   0  0  0  0  0  0  0  0  0  0  0  0
    1.9330    0.5890    0.0770 C   0  0  0  0  0  0  0  0  0  0  0  0
    5.7440    0.8970   -0.5780 O   0  0  0  0  0  0  0  0  0  0  0  0
    6.3610    0.0220    0.1710 C   0  0  0  0  0  0  0  0  0  0  0  0
    7.5110   -0.7840   -0.2910 C   0  0  1  0  0  0  0  0  0  0  0  0
    8.0650   -0.4180   -1.7040 C   0  0  0  0  0  0  0  0  0  0  0  0
    8.8600   -0.1550   -0.4700 C   0  0  2  0  0  0  0  0  0  0  0  0
   10.0910   -1.0470   -0.3400 C   0  0  0  0  0  0  0  0  0  0  0  0
    9.0750    1.2490    0.0460 C   0  0  0  0  0  0  0  0  0  0  0  0
  1  2  1  0
  2  3  1  0
  2 36  2  0
  3  4  2  0
  4  5  1  0
  4 35  1  0
  5  6  1  6
  5  7  1  0
  7  8  2  3
  8  9  1  0
  8 34  1  0
  9 10  1  0
 10 11  1  0
 11 12  1  6
 11 33  1  0
 12 13  1  0
 13 14  2  0
 13 15  1  0
 15 16  1  0
 15 30  2  3
 16 17  2  3
 17 18  1  0
 17 26  1  0
 18 19  2  3
 19 20  1  0
 20 21  2  0
 20 22  1  0
 22 23  1  1
 22 24  1  0
 22 25  1  0
 26 27  1  0
 27 28  1  6
 27 29  1  0
 30 31  1  0
 31 32  2  0
 33 34  1  0
 35 36  1  0
 37 36  1  1
 37 38  1  0
 37 39  1  0
 38 39  1  0
 39 40  1  6
 39 41  1  0
M  END
