
     RDKit          3D

 42 45  0  0  0  0  0  0  0  0999 V2000
   -4.9590    1.9310   -4.3810 C   0  0  0  0  0  0  0  0  0  0  0  0
   -3.6920    2.7100   -4.0710 C   0  0  0  0  0  0  0  0  0  0  0  0
   -3.0830    2.1150   -2.8630 C   0  0  0  0  0  0  0  0  0  0  0  0
   -3.4190    2.5850   -1.6210 C   0  0  0  0  0  0  0  0  0  0  0  0
   -2.8370    2.0150   -0.4780 C   0  0  0  0  0  0  0  0  0  0  0  0
   -1.9360    0.9910   -0.5780 C   0  0  0  0  0  0  0  0  0  0  0  0
   -1.3480    0.4180    0.6130 C   0  0  0  0  0  0  0  0  0  0  0  0
   -2.0830   -0.5270    1.3440 C   0  0  0  0  0  0  0  0  0  0  0  0
   -3.3760   -0.8590    0.8570 N   0  0  0  0  0  0  0  0  0  0  0  0
   -4.2980   -1.7580    1.3960 C   0  0  0  0  0  0  0  0  0  0  0  0
   -3.9530   -2.3630    2.4610 O   0  0  0  0  0  0  0  0  0  0  0  0
   -5.6090   -2.0940    0.8980 C   0  0  0  0  0  0  0  0  0  0  0  0
   -6.4900   -2.8350    1.6820 C   0  0  0  0  0  0  0  0  0  0  0  0
   -7.7540   -3.1730    1.2720 C   0  0  0  0  0  0  0  0  0  0  0  0
   -8.1860   -2.7670    0.0270 C   0  0  0  0  0  0  0  0  0  0  0  0
   -9.5490   -3.1140   -0.4490 C   0  0  0  0  0  0  0  0  0  0  0  0
   -7.3520   -2.0400   -0.7680 C   0  0  0  0  0  0  0  0  0  0  0  0
   -7.7860   -1.6450   -1.9910 F   0  0  0  0  0  0  0  0  0  0  0  0
   -6.0570   -1.7050   -0.3250 C   0  0  0  0  0  0  0  0  0  0  0  0
   -5.3330   -0.9960   -1.2130 F   0  0  0  0  0  0  0  0  0  0  0  0
   -1.5000   -1.0290    2.4320 N   0  0  0  0  0  0  0  0  0  0  0  0
   -0.2520   -0.6820    2.8670 C   0  0  0  0  0  0  0  0  0  0  0  0
    0.4880    0.2380    2.1740 C   0  0  0  0  0  0  0  0  0  0  0  0
    1.8290    0.6550    2.5860 C   0  0  0  0  0  0  0  0  0  0  0  0
    2.9300    0.0560    1.7510 C   0  0  0  0  0  0  0  0  0  0  0  0
    4.2260    0.5530    2.2770 C   0  0  0  0  0  0  0  0  0  0  0  0
    4.2640    1.3260    3.2640 O   0  0  0  0  0  0  0  0  0  0  0  0
    5.4470    0.2030    1.7230 O   0  0  0  0  0  0  0  0  0  0  0  0
    6.7020    0.6530    2.1970 C   0  0  1  0  0  0  0  0  0  0  0  0
    7.4200   -0.5000    2.8300 C   0  0  0  0  0  0  0  0  0  0  0  0
    7.4670    1.4860    1.2600 C   0  0  0  0  0  0  0  0  0  0  0  0
    7.8390    0.8760   -0.0660 C   0  0  0  0  0  0  0  0  0  0  0  0
    7.5680   -0.2950   -0.4940 C   0  0  0  0  0  0  0  0  0  0  0  0
    6.8510   -1.2360    0.2370 F   0  0  0  0  0  0  0  0  0  0  0  0
    8.0390   -0.7040   -1.8440 C   0  0  0  0  0  0  0  0  0  0  0  0
    9.3780    0.5160   -2.0700 S   0  0  0  0  0  0  0  0  0  0  0  0
   10.6790    0.0050   -1.5100 O   0  0  0  0  0  0  0  0  0  0  0  0
    8.6270    1.7640   -1.0160 C   0  0  0  0  0  0  0  0  0  0  0  0
   -0.0820    0.7750    1.0490 C   0  0  0  0  0  0  0  0  0  0  0  0
    0.5290    1.6310    0.3470 O   0  0  0  0  0  0  0  0  0  0  0  0
   -1.5990    0.5190   -1.8250 C   0  0  0  0  0  0  0  0  0  0  0  0
   -2.1780    1.0870   -2.9660 C   0  0  0  0  0  0  0  0  0  0  0  0
  1  2  1  0
  2  3  1  0
  3  4  2  0
  3 42  1  0
  4  5  1  0
  5  6  2  0
  6  7  1  0
  6 41  1  0
  7  8  2  0
  7 39  1  0
  8  9  1  0
  8 21  1  0
  9 10  1  0
 10 11  2  0
 10 12  1  0
 12 13  2  0
 12 19  1  0
 13 14  1  0
 14 15  2  0
 15 16  1  0
 15 17  1  0
 17 18  1  0
 17 19  2  0
 19 20  1  0
 21 22  1  0
 22 23  2  0
 23 24  1  0
 23 39  1  0
 24 25  1  0
 25 26  1  0
 26 27  2  0
 26 28  1  0
 28 29  1  0
 29 30  1  6
 29 31  1  0
 31 32  1  0
 32 33  2  0
 32 38  1  0
 33 34  1  0
 33 35  1  0
 36 35  1  1
 36 37  2  0
 36 38  1  0
 39 40  2  0
 41 42  2  0
M  END
