
     RDKit          3D

 42 45  0  0  0  0  0  0  0  0999 V2000
   -6.4640    0.9910    1.4490 C   0  0  0  0  0  0  0  0  0  0  0  0
   -5.3030    1.8990    1.8230 C   0  0  0  0  0  0  0  0  0  0  0  0
   -4.3170    1.9430    0.6540 C   0  0  1  0  0  0  0  0  0  0  0  0
   -3.8160    0.6110    0.3660 N   0  0  0  0  0  0  0  0  0  0  0  0
   -2.8630    0.3360   -0.6560 C   0  0  0  0  0  0  0  0  0  0  0  0
   -2.4850    1.3850   -1.2840 O   0  0  0  0  0  0  0  0  0  0  0  0
   -2.3720   -0.9880   -0.9470 C   0  0  0  0  0  0  0  0  0  0  0  0
   -3.2250   -2.0700   -0.6970 C   0  0  0  0  0  0  0  0  0  0  0  0
   -4.5090   -1.9020   -0.2160 O   0  0  0  0  0  0  0  0  0  0  0  0
   -5.4010   -2.9360    0.0510 C   0  0  0  0  0  0  0  0  0  0  0  0
   -2.7450   -3.3450   -0.9530 C   0  0  0  0  0  0  0  0  0  0  0  0
   -1.4890   -3.5530   -1.4320 C   0  0  0  0  0  0  0  0  0  0  0  0
   -1.0230   -4.9390   -1.6880 C   0  0  0  0  0  0  0  0  0  0  0  0
   -0.6600   -2.4810   -1.6730 C   0  0  0  0  0  0  0  0  0  0  0  0
   -1.1100   -1.1770   -1.4250 C   0  0  0  0  0  0  0  0  0  0  0  0
   -0.1580   -0.0560   -1.6400 C   0  0  2  0  0  0  0  0  0  0  0  0
   -0.2610    0.5360   -2.8480 O   0  0  0  0  0  0  0  0  0  0  0  0
    1.1910   -0.5040   -1.2270 C   0  0  0  0  0  0  0  0  0  0  0  0
    2.2760   -0.6450   -1.9060 C   0  0  0  0  0  0  0  0  0  0  0  0
    3.5720   -1.0880   -1.4560 C   0  0  0  0  0  0  0  0  0  0  0  0
    4.4800   -1.0810   -2.4140 O   0  0  0  0  0  0  0  0  0  0  0  0
    4.0830   -1.5210   -0.2430 N   0  0  0  0  0  0  0  0  0  0  0  0
    3.3440   -1.7320    0.9560 C   0  0  0  0  0  0  0  0  0  0  0  0
    3.2270   -0.5150    1.8090 C   0  0  0  0  0  0  0  0  0  0  0  0
    3.1120    0.7750    1.5200 C   0  0  0  0  0  0  0  0  0  0  0  0
    3.0240    1.6850    2.5060 C   0  0  0  0  0  0  0  0  0  0  0  0
    3.0580    1.2260    3.7990 C   0  0  0  0  0  0  0  0  0  0  0  0
    3.2200   -0.5450    3.5600 S   0  0  0  0  0  0  0  0  0  0  0  0
    5.5300   -1.7910   -0.1930 C   0  0  0  0  0  0  0  0  0  0  0  0
    6.3820   -0.6810    0.2310 C   0  0  1  0  0  0  0  0  0  0  0  0
    6.4300    0.5330   -0.6670 C   0  0  0  0  0  0  0  0  0  0  0  0
    7.2180    1.4930    0.2190 C   0  0  0  0  0  0  0  0  0  0  0  0
    6.8760    1.0150    1.5890 C   0  0  0  0  0  0  0  0  0  0  0  0
    6.1800   -0.1800    1.5110 O   0  0  0  0  0  0  0  0  0  0  0  0
    2.1860   -0.3030   -3.3830 C   0  0  2  0  0  0  0  0  0  0  0  0
    3.3640   -0.6740   -4.0470 F   0  0  0  0  0  0  0  0  0  0  0  0
    2.0660    1.0420   -3.5950 F   0  0  0  0  0  0  0  0  0  0  0  0
    1.1910   -1.0230   -3.9790 F   0  0  0  0  0  0  0  0  0  0  0  0
   -4.9810    2.6230   -0.4920 C   0  0  0  0  0  0  0  0  0  0  0  0
   -5.0630    4.0750   -0.0150 C   0  0  0  0  0  0  0  0  0  0  0  0
   -3.9560    4.2460    0.9970 C   0  0  0  0  0  0  0  0  0  0  0  0
   -3.2390    2.9110    1.0700 C   0  0  0  0  0  0  0  0  0  0  0  0
  1  2  1  0
  3  2  1  1
  3  4  1  0
  3 39  1  0
  3 42  1  0
  4  5  1  0
  5  6  2  0
  5  7  1  0
  7  8  2  0
  7 15  1  0
  8  9  1  0
  8 11  1  0
  9 10  1  0
 11 12  2  0
 12 13  1  0
 12 14  1  0
 14 15  2  0
 15 16  1  0
 16 17  1  6
 16 18  1  0
 18 19  2  3
 19 20  1  0
 19 35  1  0
 20 21  2  0
 20 22  1  0
 22 23  1  0
 22 29  1  0
 23 24  1  0
 24 25  2  0
 24 28  1  0
 25 26  1  0
 26 27  2  0
 27 28  1  0
 30 29  1  6
 30 31  1  0
 30 34  1  0
 31 32  1  0
 32 33  1  0
 33 34  1  0
 35 36  1  6
 35 37  1  0
 35 38  1  0
 39 40  1  0
 40 41  1  0
 41 42  1  0
M  END
