
     RDKit          3D

 42 45  0  0  0  0  0  0  0  0999 V2000
    5.6020   -3.1480   -1.2690 C   0  0  0  0  0  0  0  0  0  0  0  0
    6.2180   -1.8360   -1.6850 C   0  0  0  0  0  0  0  0  0  0  0  0
    6.4410   -0.9930   -0.4870 C   0  0  0  0  0  0  0  0  0  0  0  0
    5.5180   -0.2740    0.2470 C   0  0  0  0  0  0  0  0  0  0  0  0
    4.0760   -0.2000   -0.0290 C   0  0  0  0  0  0  0  0  0  0  0  0
    3.5530   -0.8160   -0.9890 O   0  0  0  0  0  0  0  0  0  0  0  0
    3.3050    0.5680    0.7980 O   0  0  0  0  0  0  0  0  0  0  0  0
    1.8820    0.7310    0.6490 C   0  0  0  0  0  0  0  0  0  0  0  0
    1.3580    1.6220    1.6910 C   0  0  0  0  0  0  0  0  0  0  0  0
    2.1850    1.9940    2.5520 O   0  0  0  0  0  0  0  0  0  0  0  0
   -0.0110    2.1190    1.8250 C   0  0  0  0  0  0  0  0  0  0  0  0
   -0.9470    1.7070    0.7430 C   0  0  1  0  0  0  0  0  0  0  0  0
   -1.1670    0.2570    0.5870 C   0  0  0  0  0  0  0  0  0  0  0  0
   -2.5700   -0.1810    0.3820 C   0  0  0  0  0  0  0  0  0  0  0  0
   -3.5260    0.6020   -0.0470 C   0  0  0  0  0  0  0  0  0  0  0  0
   -4.8310    0.0350   -0.1960 C   0  0  0  0  0  0  0  0  0  0  0  0
   -5.8770    0.6790   -0.6090 O   0  0  0  0  0  0  0  0  0  0  0  0
   -4.9380   -1.3710    0.1560 C   0  0  0  0  0  0  0  0  0  0  0  0
   -6.0000   -2.1630    0.1230 C   0  0  0  0  0  0  0  0  0  0  0  0
   -7.2920   -1.5810   -0.3300 C   0  0  0  0  0  0  0  0  0  0  0  0
   -5.9540   -3.5200    0.4970 N   0  0  0  0  0  0  0  0  0  0  0  0
   -5.0200   -4.4090   -0.1340 C   0  0  0  0  0  0  0  0  0  0  0  0
   -6.8430   -4.0140    1.5110 C   0  0  0  0  0  0  0  0  0  0  0  0
   -6.6460   -5.3620    1.7360 F   0  0  0  0  0  0  0  0  0  0  0  0
   -3.2700   -1.7920    0.6530 S   0  0  0  0  0  0  0  0  0  0  0  0
   -3.1070    2.0460   -0.3230 C   0  0  1  0  0  0  0  0  0  0  0  0
   -4.2520    2.9210   -0.5590 C   0  0  0  0  0  0  0  0  0  0  0  0
   -4.3730    3.5430   -1.7950 C   0  0  0  0  0  0  0  0  0  0  0  0
   -5.4010    4.3840   -2.1250 C   0  0  0  0  0  0  0  0  0  0  0  0
   -6.3680    4.6170   -1.1580 C   0  0  0  0  0  0  0  0  0  0  0  0
   -7.4180    5.4370   -1.4070 F   0  0  0  0  0  0  0  0  0  0  0  0
   -6.2920    4.0230    0.0850 C   0  0  0  0  0  0  0  0  0  0  0  0
   -7.2550    4.2790    0.9940 F   0  0  0  0  0  0  0  0  0  0  0  0
   -5.2360    3.1810    0.3720 C   0  0  0  0  0  0  0  0  0  0  0  0
   -2.2870    2.4250    0.8760 C   0  0  0  0  0  0  0  0  0  0  0  0
    6.2030    0.3200    1.2280 N   0  0  0  0  0  0  0  0  0  0  0  0
    7.5020    0.0380    1.1830 C   0  0  0  0  0  0  0  0  0  0  0  0
    8.5190    0.5380    2.1260 C   0  0  0  0  0  0  0  0  0  0  0  0
    7.6900   -0.7940    0.1070 C   0  0  0  0  0  0  0  0  0  0  0  0
    8.9750   -1.3260   -0.2810 C   0  0  0  0  0  0  0  0  0  0  0  0
    9.8110   -0.5550   -1.2380 C   0  0  0  0  0  0  0  0  0  0  0  0
    9.3680   -2.4210    0.1880 O   0  0  0  0  0  0  0  0  0  0  0  0
  1  2  1  0
  2  3  1  0
  3  4  2  0
  3 39  1  0
  4  5  1  0
  4 36  1  0
  5  6  2  0
  5  7  1  0
  7  8  1  0
  8  9  1  0
  9 10  2  0
  9 11  1  0
 12 11  1  1
 12 13  1  0
 12 35  1  0
 13 14  1  0
 14 15  2  0
 14 25  1  0
 15 16  1  0
 15 26  1  0
 16 17  2  0
 16 18  1  0
 18 19  2  3
 18 25  1  0
 19 20  1  0
 19 21  1  0
 21 22  1  0
 21 23  1  0
 23 24  1  0
 26 27  1  1
 26 35  1  0
 27 28  2  0
 27 34  1  0
 28 29  1  0
 29 30  2  0
 30 31  1  0
 30 32  1  0
 32 33  1  0
 32 34  2  0
 36 37  1  0
 37 38  1  0
 37 39  2  0
 39 40  1  0
 40 41  1  0
 40 42  2  0
M  END
