
     RDKit          3D

 42 45  0  0  0  0  0  0  0  0999 V2000
    3.6320    2.6920    1.7590 C   0  0  0  0  0  0  0  0  0  0  0  0
    3.4930    1.7100    1.0090 O   0  0  0  0  0  0  0  0  0  0  0  0
    3.3570    0.7540    0.2780 C   0  0  0  0  0  0  0  0  0  0  0  0
    2.8700   -0.6640    0.5720 C   0  0  0  0  0  0  0  0  0  0  0  0
    3.1050   -1.6830   -0.3980 C   0  0  0  0  0  0  0  0  0  0  0  0
    3.9620   -1.5910   -1.6100 C   0  0  0  0  0  0  0  0  0  0  0  0
    3.6880   -2.2430   -2.6020 O   0  0  0  0  0  0  0  0  0  0  0  0
    5.1080   -0.7850   -1.6120 N   0  0  0  0  0  0  0  0  0  0  0  0
    6.0380   -0.4980   -2.6140 C   0  0  0  0  0  0  0  0  0  0  0  0
    5.8740   -0.4320   -3.9580 C   0  0  0  0  0  0  0  0  0  0  0  0
    6.8500   -0.0450   -4.8460 C   0  0  0  0  0  0  0  0  0  0  0  0
    6.5950   -0.0110   -6.1910 F   0  0  0  0  0  0  0  0  0  0  0  0
    8.0840    0.3090   -4.4190 C   0  0  0  0  0  0  0  0  0  0  0  0
    8.3180    0.2630   -3.0310 C   0  0  0  0  0  0  0  0  0  0  0  0
    7.3500   -0.1220   -2.1380 C   0  0  0  0  0  0  0  0  0  0  0  0
    7.5950   -0.1620   -0.8210 O   0  0  0  0  0  0  0  0  0  0  0  0
    8.7250    0.0800   -0.1070 C   0  0  2  0  0  0  0  0  0  0  0  0
    9.0740   -1.1420    0.5330 F   0  0  0  0  0  0  0  0  0  0  0  0
    8.5160    1.0330    0.9020 F   0  0  0  0  0  0  0  0  0  0  0  0
    2.1530   -3.0100    0.0840 S   0  0  0  0  0  0  0  0  0  0  0  0
    1.4460   -2.2550    1.5790 C   0  0  0  0  0  0  0  0  0  0  0  0
    0.5500   -2.9770    2.4860 C   0  0  0  0  0  0  0  0  0  0  0  0
    2.0070   -1.0180    1.5610 C   0  0  0  0  0  0  0  0  0  0  0  0
    1.4770    0.0290    2.5050 C   0  0  0  0  0  0  0  0  0  0  0  0
    0.0670    0.0680    2.8030 C   0  0  0  0  0  0  0  0  0  0  0  0
   -0.9100    0.1340    1.6520 C   0  0  0  0  0  0  0  0  0  0  0  0
   -0.4740    0.2620    0.5360 O   0  0  0  0  0  0  0  0  0  0  0  0
   -2.2830    0.0450    1.9320 N   0  0  0  0  0  0  0  0  0  0  0  0
   -3.3680    0.0940    1.0570 C   0  0  0  0  0  0  0  0  0  0  0  0
   -4.0920    1.2600    0.9210 C   0  0  0  0  0  0  0  0  0  0  0  0
   -3.6190    2.4620    1.6170 C   0  0  0  0  0  0  0  0  0  0  0  0
   -5.2180    1.3230    0.1380 C   0  0  0  0  0  0  0  0  0  0  0  0
   -5.6420    0.2010   -0.5340 C   0  0  0  0  0  0  0  0  0  0  0  0
   -4.9230   -0.9680   -0.4100 C   0  0  0  0  0  0  0  0  0  0  0  0
   -5.3640   -2.1070   -1.1040 O   0  0  0  0  0  0  0  0  0  0  0  0
   -6.2260   -3.0630   -0.5610 C   0  0  0  0  0  0  0  0  0  0  0  0
   -3.7760   -1.0640    0.3770 C   0  0  0  0  0  0  0  0  0  0  0  0
   -2.9450   -2.2700    0.4990 C   0  0  0  0  0  0  0  0  0  0  0  0
   -6.8990    0.4810   -1.2810 C   0  0  0  0  0  0  0  0  0  0  0  0
   -7.3530    1.8570   -0.8810 C   0  0  1  0  0  0  0  0  0  0  0  0
   -8.5950    1.8580   -0.0170 C   0  0  0  0  0  0  0  0  0  0  0  0
   -6.1750    2.4500   -0.1660 C   0  0  0  0  0  0  0  0  0  0  0  0
  1  2  1  0
  2  3  1  0
  3  4  1  0
  4  5  2  0
  4 23  1  0
  5  6  1  0
  5 20  1  0
  6  7  2  0
  6  8  1  0
  8  9  1  0
  9 10  2  0
  9 15  1  0
 10 11  1  0
 11 12  1  0
 11 13  2  0
 13 14  1  0
 14 15  2  0
 15 16  1  0
 16 17  1  0
 17 18  1  1
 17 19  1  0
 20 21  1  0
 21 22  1  0
 21 23  2  0
 23 24  1  0
 24 25  1  0
 25 26  1  0
 26 27  2  0
 26 28  1  0
 28 29  1  0
 29 30  2  0
 29 37  1  0
 30 31  1  0
 30 32  1  0
 32 33  2  0
 32 42  1  0
 33 34  1  0
 33 39  1  0
 34 35  1  0
 34 37  2  0
 35 36  1  0
 37 38  1  0
 39 40  1  0
 40 41  1  1
 40 42  1  0
M  END
