
     RDKit          3D

 41 46  0  0  0  0  0  0  0  0999 V2000
   -9.3060    1.1490   -0.3300 C   0  0  0  0  0  0  0  0  0  0  0  0
   -8.0520    1.9160   -0.6900 C   0  0  1  0  0  0  0  0  0  0  0  0
   -7.6780    2.7340    0.5280 C   0  0  0  0  0  0  0  0  0  0  0  0
   -6.9460    1.0340   -1.1710 C   0  0  0  0  0  0  0  0  0  0  0  0
   -6.5330    0.0450   -0.1740 N   0  0  0  0  0  0  0  0  0  0  0  0
   -5.4900    0.3690    0.7510 C   0  0  0  0  0  0  0  0  0  0  0  0
   -4.9600    1.4910    0.6690 O   0  0  0  0  0  0  0  0  0  0  0  0
   -5.0490   -0.5360    1.7430 N   0  0  0  0  0  0  0  0  0  0  0  0
   -3.9830   -0.2540    2.7010 C   0  0  0  0  0  0  0  0  0  0  0  0
   -2.6460   -0.3870    2.0560 C   0  0  0  0  0  0  0  0  0  0  0  0
   -2.0770   -1.6270    1.9400 C   0  0  0  0  0  0  0  0  0  0  0  0
   -0.8500   -1.7620    1.3340 C   0  0  0  0  0  0  0  0  0  0  0  0
   -0.1770   -0.6740    0.8380 C   0  0  0  0  0  0  0  0  0  0  0  0
    0.9790   -0.4420    0.2080 N   0  0  0  0  0  0  0  0  0  0  0  0
    1.1260    0.8580   -0.0550 C   0  0  0  0  0  0  0  0  0  0  0  0
    2.2160    1.5260   -0.7200 C   0  0  0  0  0  0  0  0  0  0  0  0
    2.1670    2.7740   -0.8670 O   0  0  0  0  0  0  0  0  0  0  0  0
    3.3280    0.8200   -1.2070 N   0  0  0  0  0  0  0  0  0  0  0  0
    3.4940   -0.6120   -1.0990 C   0  0  0  0  0  0  0  0  0  0  0  0
    4.4260   -1.1000   -2.2070 C   0  0  0  0  0  0  0  0  0  0  0  0
    5.6600   -0.3900   -2.2750 N   0  0  2  0  0  0  0  0  0  0  0  0
    6.8250   -1.2050   -2.1400 C   0  0  0  0  0  0  0  0  0  0  0  0
    6.8390   -2.1150   -0.9650 C   0  0  0  0  0  0  0  0  0  0  0  0
    7.4950   -1.3520    0.1630 C   0  0  1  0  0  0  0  0  0  0  0  0
    8.8710   -0.8430   -0.2090 C   0  0  0  0  0  0  0  0  0  0  0  0
    6.6810   -0.1950    0.6020 C   0  0  0  0  0  0  0  0  0  0  0  0
    6.7950   -0.1370    1.9970 C   0  0  0  0  0  0  0  0  0  0  0  0
    6.1760    0.8280    2.7160 C   0  0  0  0  0  0  0  0  0  0  0  0
    5.4190    1.7690    2.0540 C   0  0  0  0  0  0  0  0  0  0  0  0
    5.3130    1.7010    0.6670 C   0  0  0  0  0  0  0  0  0  0  0  0
    5.9340    0.7270   -0.0920 C   0  0  0  0  0  0  0  0  0  0  0  0
    5.6930    0.8530   -1.5180 C   0  0  2  0  0  0  0  0  0  0  0  0
    4.3860    1.5340   -1.8720 C   0  0  0  0  0  0  0  0  0  0  0  0
    0.0240    1.4980    0.4230 N   0  0  0  0  0  0  0  0  0  0  0  0
   -0.7670    0.5650    0.9650 C   0  0  0  0  0  0  0  0  0  0  0  0
   -2.0090    0.7180    1.5770 C   0  0  0  0  0  0  0  0  0  0  0  0
   -7.1500   -1.2220   -0.1140 C   0  0  0  0  0  0  0  0  0  0  0  0
   -8.0490   -1.6340    0.8330 C   0  0  0  0  0  0  0  0  0  0  0  0
   -8.4040   -2.9350    0.5240 C   0  0  0  0  0  0  0  0  0  0  0  0
   -7.7500   -3.2890   -0.5570 O   0  0  0  0  0  0  0  0  0  0  0  0
   -6.9820   -2.2810   -0.9710 C   0  0  0  0  0  0  0  0  0  0  0  0
  2  1  1  1
  2  3  1  0
  2  4  1  0
  4  5  1  0
  5  6  1  0
  5 37  1  0
  6  7  2  0
  6  8  1  0
  8  9  1  0
  9 10  1  0
 10 11  2  0
 10 36  1  0
 11 12  1  0
 12 13  2  0
 13 14  1  0
 13 35  1  0
 14 15  2  0
 15 16  1  0
 15 34  1  0
 16 17  2  0
 16 18  1  0
 18 19  1  0
 18 33  1  0
 19 20  1  0
 21 20  1  1
 21 22  1  0
 21 32  1  0
 22 23  1  0
 23 24  1  0
 24 25  1  6
 24 26  1  0
 26 27  2  0
 26 31  1  0
 27 28  1  0
 28 29  2  0
 29 30  1  0
 30 31  2  0
 31 32  1  0
 32 33  1  1
 34 35  1  0
 35 36  2  0
 37 38  1  0
 37 41  2  0
 38 39  2  0
 39 40  1  0
 40 41  1  0
M  CHG  1  21   1
M  END
