
     RDKit          3D

 42 45  0  0  0  0  0  0  0  0999 V2000
  -10.3400    0.3780    1.0730 C   0  0  0  0  0  0  0  0  0  0  0  0
   -8.8380    0.2400    1.1880 C   0  0  0  0  0  0  0  0  0  0  0  0
   -8.2490   -0.4430   -0.0380 C   0  0  2  0  0  0  0  0  0  0  0  0
   -8.5260    0.3130   -1.2790 C   0  0  0  0  0  0  0  0  0  0  0  0
   -8.9610   -1.8100   -0.2050 C   0  0  0  0  0  0  0  0  0  0  0  0
   -6.8310   -0.7570    0.2430 C   0  0  0  0  0  0  0  0  0  0  0  0
   -5.9250    0.3730    0.5880 C   0  0  2  0  0  0  0  0  0  0  0  0
   -5.8040    1.4040   -0.4930 C   0  0  0  0  0  0  0  0  0  0  0  0
   -4.4230    2.5270    0.0100 S   0  0  0  0  0  0  0  0  0  0  0  0
   -4.0960    2.1180    1.7650 C   0  0  0  0  0  0  0  0  0  0  0  0
   -3.8240    0.6870    1.9570 C   0  0  2  0  0  0  0  0  0  0  0  0
   -2.4610    0.1840    2.0190 C   0  0  0  0  0  0  0  0  0  0  0  0
   -2.0090   -0.3500    3.1060 O   0  0  0  0  0  0  0  0  0  0  0  0
   -1.5030    0.2100    0.9280 C   0  0  0  0  0  0  0  0  0  0  0  0
   -1.0720   -1.0040    0.3760 C   0  0  0  0  0  0  0  0  0  0  0  0
   -0.1980   -1.0520   -0.6810 C   0  0  0  0  0  0  0  0  0  0  0  0
    0.2970    0.1000   -1.2480 C   0  0  0  0  0  0  0  0  0  0  0  0
    1.1700   -0.0010   -2.3080 O   0  0  0  0  0  0  0  0  0  0  0  0
    2.5260   -0.0920   -2.0450 C   0  0  0  0  0  0  0  0  0  0  0  0
    3.2710    1.0640   -1.9710 C   0  0  0  0  0  0  0  0  0  0  0  0
    4.6340    1.0090   -1.7090 C   0  0  0  0  0  0  0  0  0  0  0  0
    5.3010   -0.1960   -1.5130 C   0  0  0  0  0  0  0  0  0  0  0  0
    6.7300   -0.2310   -1.2450 C   0  0  0  0  0  0  0  0  0  0  0  0
    7.3680    0.8660   -1.2520 O   0  0  0  0  0  0  0  0  0  0  0  0
    7.4640   -1.4100   -0.9740 N   0  0  0  0  0  0  0  0  0  0  0  0
    8.8600   -1.3320   -0.7270 N   0  0  0  0  0  0  0  0  0  0  0  0
    9.3960   -0.5010    0.2900 C   0  0  0  0  0  0  0  0  0  0  0  0
    8.5890    0.1750    0.9750 O   0  0  0  0  0  0  0  0  0  0  0  0
   10.8420   -0.4220    0.5450 C   0  0  0  0  0  0  0  0  0  0  0  0
   11.8270   -1.1130   -0.1240 C   0  0  0  0  0  0  0  0  0  0  0  0
   13.0440   -0.7500    0.4270 C   0  0  0  0  0  0  0  0  0  0  0  0
   12.7310    0.1530    1.4120 C   0  0  0  0  0  0  0  0  0  0  0  0
   13.7260    0.8340    2.2950 C   0  0  1  0  0  0  0  0  0  0  0  0
   13.6190    2.2090    2.0670 F   0  0  0  0  0  0  0  0  0  0  0  0
   13.4300    0.5780    3.6200 F   0  0  0  0  0  0  0  0  0  0  0  0
   11.4300    0.3060    1.4350 O   0  0  0  0  0  0  0  0  0  0  0  0
    4.5450   -1.3420   -1.5900 C   0  0  0  0  0  0  0  0  0  0  0  0
    3.1690   -1.2970   -1.8530 C   0  0  0  0  0  0  0  0  0  0  0  0
   -0.1000    1.3080   -0.7360 C   0  0  0  0  0  0  0  0  0  0  0  0
   -1.0010    1.3360    0.3540 C   0  0  0  0  0  0  0  0  0  0  0  0
   -1.2970    2.5800    0.8090 F   0  0  0  0  0  0  0  0  0  0  0  0
   -4.5310   -0.1590    0.8840 C   0  0  0  0  0  0  0  0  0  0  0  0
  1  2  1  0
  2  3  1  0
  3  4  1  6
  3  5  1  0
  3  6  1  0
  7  6  1  6
  7  8  1  0
  7 42  1  0
  8  9  1  0
  9 10  1  0
 10 11  1  0
 11 12  1  6
 11 42  1  0
 12 13  2  0
 12 14  1  0
 14 15  2  0
 14 40  1  0
 15 16  1  0
 16 17  2  0
 17 18  1  0
 17 39  1  0
 18 19  1  0
 19 20  2  0
 19 38  1  0
 20 21  1  0
 21 22  2  0
 22 23  1  0
 22 37  1  0
 23 24  2  0
 23 25  1  0
 25 26  1  0
 26 27  1  0
 27 28  2  0
 27 29  1  0
 29 30  2  0
 29 36  1  0
 30 31  1  0
 31 32  2  0
 32 33  1  0
 32 36  1  0
 33 34  1  1
 33 35  1  0
 37 38  2  0
 39 40  2  0
 40 41  1  0
M  END
