
     RDKit          3D

 42 45  0  0  0  0  0  0  0  0999 V2000
    1.2770   -0.0670   -2.0400 C   0  0  0  0  0  0  0  0  0  0  0  0
    1.9020   -0.7650   -0.9920 O   0  0  0  0  0  0  0  0  0  0  0  0
    3.1240   -1.3640   -1.1960 C   0  0  0  0  0  0  0  0  0  0  0  0
    3.6750   -1.2400   -2.4910 C   0  0  0  0  0  0  0  0  0  0  0  0
    4.8800   -1.8120   -2.7990 C   0  0  0  0  0  0  0  0  0  0  0  0
    5.4160   -1.6960   -4.0440 F   0  0  0  0  0  0  0  0  0  0  0  0
    5.5260   -2.5070   -1.8030 C   0  0  0  0  0  0  0  0  0  0  0  0
    6.7200   -3.0830   -2.0880 F   0  0  0  0  0  0  0  0  0  0  0  0
    4.9950   -2.6320   -0.5340 C   0  0  0  0  0  0  0  0  0  0  0  0
    3.7550   -2.0430   -0.2110 C   0  0  0  0  0  0  0  0  0  0  0  0
    3.2760   -2.1180    1.1910 C   0  0  0  0  0  0  0  0  0  0  0  0
    3.8680   -1.1850    2.1360 C   0  0  0  0  0  0  0  0  0  0  0  0
    4.7940   -1.6070    3.0320 C   0  0  0  0  0  0  0  0  0  0  0  0
    5.3210   -2.9070    3.2250 C   0  0  0  0  0  0  0  0  0  0  0  0
    6.3750   -3.1470    4.2830 C   0  0  0  0  0  0  0  0  0  0  0  0
    4.9890   -3.9100    2.5880 O   0  0  0  0  0  0  0  0  0  0  0  0
    3.5600    0.2270    2.2730 C   0  0  0  0  0  0  0  0  0  0  0  0
    4.2820    0.9080    3.1080 O   0  0  0  0  0  0  0  0  0  0  0  0
    2.5660    0.9750    1.6320 N   0  0  0  0  0  0  0  0  0  0  0  0
    2.3960    2.3630    1.8250 C   0  0  0  0  0  0  0  0  0  0  0  0
    3.4440    3.2060    2.1470 C   0  0  0  0  0  0  0  0  0  0  0  0
    3.3210    4.5810    2.2540 C   0  0  0  0  0  0  0  0  0  0  0  0
    2.0880    5.1220    2.0240 C   0  0  0  0  0  0  0  0  0  0  0  0
    1.9040    6.4700    2.1130 F   0  0  0  0  0  0  0  0  0  0  0  0
    1.0140    4.2850    1.6960 C   0  0  0  0  0  0  0  0  0  0  0  0
    1.1260    2.9150    1.5890 C   0  0  0  0  0  0  0  0  0  0  0  0
    0.0450    2.0580    1.3060 N   0  0  0  0  0  0  0  0  0  0  0  0
   -1.3130    2.4110    1.1540 C   0  0  0  0  0  0  0  0  0  0  0  0
   -1.6620    3.5970    1.2720 O   0  0  0  0  0  0  0  0  0  0  0  0
   -2.4050    1.4190    0.8480 C   0  0  1  0  0  0  0  0  0  0  0  0
   -3.7590    2.0420    1.1720 C   0  0  0  0  0  0  0  0  0  0  0  0
   -4.1720    2.5920   -0.1680 C   0  0  0  0  0  0  0  0  0  0  0  0
   -3.5850    1.8350   -1.1390 O   0  0  0  0  0  0  0  0  0  0  0  0
   -2.5240    1.1510   -0.6000 C   0  0  2  0  0  0  0  0  0  0  0  0
   -2.5990   -0.3300   -0.9290 C   0  0  0  0  0  0  0  0  0  0  0  0
   -2.7240   -0.4930   -2.4080 C   0  0  0  0  0  0  0  0  0  0  0  0
   -4.1010    0.2640   -3.2030 S   0  0  0  0  0  0  0  0  0  0  0  0
   -5.7240   -0.3420   -2.9080 C   0  0  1  0  0  0  0  0  0  0  0  0
   -5.8760   -1.7740   -3.4410 C   0  0  0  0  0  0  0  0  0  0  0  0
   -6.4300   -2.5620   -2.2920 C   0  0  0  0  0  0  0  0  0  0  0  0
   -7.2360   -1.5480   -1.5170 C   0  0  0  0  0  0  0  0  0  0  0  0
   -6.2320   -0.3740   -1.5110 C   0  0  0  0  0  0  0  0  0  0  0  0
  1  2  1  0
  2  3  1  0
  3  4  2  0
  3 10  1  0
  4  5  1  0
  5  6  1  0
  5  7  2  0
  7  8  1  0
  7  9  1  0
  9 10  2  0
 10 11  1  0
 11 12  1  0
 12 13  2  3
 12 17  1  0
 13 14  1  0
 14 15  1  0
 14 16  2  0
 17 18  2  0
 17 19  1  0
 19 20  1  0
 20 21  2  0
 20 26  1  0
 21 22  1  0
 22 23  2  0
 23 24  1  0
 23 25  1  0
 25 26  2  0
 26 27  1  0
 27 28  1  0
 28 29  2  0
 30 28  1  6
 30 31  1  0
 30 34  1  0
 31 32  1  0
 32 33  1  0
 33 34  1  0
 34 35  1  1
 35 36  1  0
 36 37  1  0
 38 37  1  1
 38 39  1  0
 38 42  1  0
 39 40  1  0
 40 41  1  0
 41 42  1  0
M  END
