
     RDKit          3D

 29 32  0  0  0  0  0  0  0  0999 V2000
    8.5080    0.3720   -1.5560 C   0  0  0  0  0  0  0  0  0  0  0  0
    7.7980   -0.6820   -0.7480 C   0  0  0  0  0  0  0  0  0  0  0  0
    6.5360   -0.1300   -0.2690 N   0  0  0  0  0  0  0  0  0  0  0  0
    6.3840    0.5560    0.9650 C   0  0  0  0  0  0  0  0  0  0  0  0
    7.3250    0.7820    1.8170 N   0  0  0  0  0  0  0  0  0  0  0  0
    4.9810    0.9240    1.0310 C   0  0  0  0  0  0  0  0  0  0  0  0
    4.3240    0.5230   -0.0270 C   0  0  0  0  0  0  0  0  0  0  0  0
    2.8540    0.7360   -0.2860 C   0  0  0  0  0  0  0  0  0  0  0  0
    2.2850   -0.6040   -0.4100 N   0  0  0  0  0  0  0  0  0  0  0  0
    0.9920   -0.6070   -1.0220 C   0  0  0  0  0  0  0  0  0  0  0  0
   -0.0450   -1.0060    0.0240 C   0  0  1  0  0  0  0  0  0  0  0  0
    0.0050   -0.0090    1.1270 C   0  0  0  0  0  0  0  0  0  0  0  0
   -1.1160   -0.1320    2.1260 C   0  0  0  0  0  0  0  0  0  0  0  0
   -2.3360   -0.8070    1.5160 C   0  0  0  0  0  0  0  0  0  0  0  0
   -2.3970   -0.3700    0.0820 C   0  0  2  0  0  0  0  0  0  0  0  0
   -3.7280   -0.4750   -0.5030 N   0  0  0  0  0  0  0  0  0  0  0  0
   -4.7470    0.3060    0.0780 C   0  0  0  0  0  0  0  0  0  0  0  0
   -4.5050    1.1270    1.1270 N   0  0  0  0  0  0  0  0  0  0  0  0
   -5.4680    1.8750    1.6820 C   0  0  0  0  0  0  0  0  0  0  0  0
   -6.7240    1.8510    1.2270 N   0  0  0  0  0  0  0  0  0  0  0  0
   -7.0350    1.0610    0.1900 C   0  0  0  0  0  0  0  0  0  0  0  0
   -8.3370    1.0570   -0.2580 C   0  0  0  0  0  0  0  0  0  0  0  0
   -8.6680    0.2390   -1.3340 C   0  0  0  0  0  0  0  0  0  0  0  0
   -7.7020   -0.5450   -1.9300 C   0  0  0  0  0  0  0  0  0  0  0  0
   -6.3870   -0.5270   -1.4610 C   0  0  0  0  0  0  0  0  0  0  0  0
   -6.0340    0.2700   -0.4030 C   0  0  0  0  0  0  0  0  0  0  0  0
   -1.3530   -1.1100   -0.6850 C   0  0  0  0  0  0  0  0  0  0  0  0
    5.2760   -0.1580   -0.8900 C   0  0  0  0  0  0  0  0  0  0  0  0
    5.0550   -0.6920   -2.0020 O   0  0  0  0  0  0  0  0  0  0  0  0
  1  2  1  0
  2  3  1  0
  3  4  1  0
  3 28  1  0
  4  5  2  0
  4  6  1  0
  6  7  2  0
  7  8  1  0
  7 28  1  0
  8  9  1  0
  9 10  1  0
 11 10  1  6
 11 12  1  0
 11 27  1  0
 12 13  1  0
 13 14  1  0
 14 15  1  0
 15 16  1  6
 15 27  1  0
 16 17  1  0
 17 18  2  0
 17 26  1  0
 18 19  1  0
 19 20  2  0
 20 21  1  0
 21 22  2  0
 21 26  1  0
 22 23  1  0
 23 24  2  0
 24 25  1  0
 25 26  2  0
 28 29  2  0
M  CHG  1   9   1
M  END
