
     RDKit          3D

 29 31  0  0  0  0  0  0  0  0999 V2000
    5.2050   -1.9710   -2.1210 C   0  0  0  0  0  0  0  0  0  0  0  0
    5.7180   -0.5980   -2.1710 C   0  0  0  0  0  0  0  0  0  0  0  0
    6.5990   -0.2510   -3.1920 C   0  0  0  0  0  0  0  0  0  0  0  0
    7.1110    1.0230   -3.2990 C   0  0  0  0  0  0  0  0  0  0  0  0
    6.7270    1.9660   -2.3580 C   0  0  0  0  0  0  0  0  0  0  0  0
    5.8540    1.6010   -1.3560 C   0  0  0  0  0  0  0  0  0  0  0  0
    5.3300    0.3310   -1.2300 C   0  0  0  0  0  0  0  0  0  0  0  0
    4.4020    0.0050   -0.1240 C   0  0  0  0  0  0  0  0  0  0  0  0
    4.5620   -1.1270    0.6460 C   0  0  0  0  0  0  0  0  0  0  0  0
    3.6680   -1.3980    1.6690 C   0  0  0  0  0  0  0  0  0  0  0  0
    2.6020   -0.5740    1.9650 C   0  0  0  0  0  0  0  0  0  0  0  0
    1.7400   -0.8390    2.9600 N   0  0  0  0  0  0  0  0  0  0  0  0
    0.6810   -0.0300    3.2650 C   0  0  0  0  0  0  0  0  0  0  0  0
   -0.1310   -0.3550    4.4040 N   0  0  0  0  0  0  0  0  0  0  0  0
    0.4690    1.1080    2.5310 C   0  0  0  0  0  0  0  0  0  0  0  0
   -0.6750    2.0250    2.6810 C   0  0  0  0  0  0  0  0  0  0  0  0
   -1.8230    1.8610    1.7770 C   0  0  0  0  0  0  0  0  0  0  0  0
   -2.5020    0.5760    1.7980 C   0  0  0  0  0  0  0  0  0  0  0  0
   -2.1820   -0.4350    2.4390 O   0  0  0  0  0  0  0  0  0  0  0  0
   -3.7070    0.4980    0.9470 N   0  0  0  0  0  0  0  0  0  0  0  0
   -4.3840   -0.7560    0.9550 C   0  0  0  0  0  0  0  0  0  0  0  0
   -5.5890   -0.8860    0.1160 C   0  0  0  0  0  0  0  0  0  0  0  0
   -5.4730   -0.7100   -1.3420 C   0  0  2  0  0  0  0  0  0  0  0  0
   -4.5260   -1.6750   -2.0120 C   0  0  0  0  0  0  0  0  0  0  0  0
   -5.2560    0.7190   -1.7730 C   0  0  0  0  0  0  0  0  0  0  0  0
   -6.8660   -1.0720   -1.9200 C   0  0  0  0  0  0  0  0  0  0  0  0
    1.3830    1.3770    1.4900 C   0  0  0  0  0  0  0  0  0  0  0  0
    2.4430    0.5580    1.1950 C   0  0  0  0  0  0  0  0  0  0  0  0
    3.3380    0.8250    0.1740 C   0  0  0  0  0  0  0  0  0  0  0  0
  1  2  1  0
  2  3  2  0
  2  7  1  0
  3  4  1  0
  4  5  2  0
  5  6  1  0
  6  7  2  0
  7  8  1  0
  8  9  2  0
  8 29  1  0
  9 10  1  0
 10 11  2  0
 11 12  1  0
 11 28  1  0
 12 13  2  0
 13 14  1  0
 13 15  1  0
 15 16  1  0
 15 27  2  0
 16 17  1  0
 17 18  1  0
 18 19  2  0
 18 20  1  0
 20 21  1  0
 21 22  1  0
 22 23  1  0
 23 24  1  6
 23 25  1  0
 23 26  1  0
 27 28  1  0
 28 29  2  0
M  END
