
     RDKit          3D

 29 32  0  0  0  0  0  0  0  0999 V2000
    0.3960    3.0290    0.0970 C   0  0  0  0  0  0  0  0  0  0  0  0
    0.5400    1.9270   -0.8920 C   0  0  1  0  0  0  0  0  0  0  0  0
    1.7550    1.1460   -0.5640 C   0  0  0  0  0  0  0  0  0  0  0  0
    2.7270    1.7930   -0.0520 O   0  0  0  0  0  0  0  0  0  0  0  0
    1.9140   -0.2380   -0.7760 N   0  0  0  0  0  0  0  0  0  0  0  0
    3.0330   -1.0380   -0.4900 C   0  0  0  0  0  0  0  0  0  0  0  0
    2.8660   -2.4180   -0.5840 C   0  0  0  0  0  0  0  0  0  0  0  0
    3.9030   -3.2940   -0.3410 C   0  0  0  0  0  0  0  0  0  0  0  0
    5.1440   -2.7970    0.0050 C   0  0  0  0  0  0  0  0  0  0  0  0
    5.3410   -1.4250    0.1070 C   0  0  0  0  0  0  0  0  0  0  0  0
    6.6220   -0.8540    0.4610 C   0  0  0  0  0  0  0  0  0  0  0  0
    7.7530   -1.5410    0.7320 N   0  0  0  0  0  0  0  0  0  0  0  0
    8.7110   -0.6670    1.0110 C   0  0  0  0  0  0  0  0  0  0  0  0
    8.1870    0.5660    0.9170 N   0  0  0  0  0  0  0  0  0  0  0  0
    6.9050    0.4430    0.5800 N   0  0  0  0  0  0  0  0  0  0  0  0
    4.2730   -0.5910   -0.1460 C   0  0  0  0  0  0  0  0  0  0  0  0
   -0.5820    1.0680   -1.0720 N   0  0  0  0  0  0  0  0  0  0  0  0
   -1.7280    1.7480   -1.6410 C   0  0  0  0  0  0  0  0  0  0  0  0
   -3.0160    0.9460   -1.3870 C   0  0  0  0  0  0  0  0  0  0  0  0
   -3.3000    1.1300    0.0710 C   0  0  1  0  0  0  0  0  0  0  0  0
   -3.4560    2.6780    0.2140 C   0  0  0  0  0  0  0  0  0  0  0  0
   -4.5250    0.5670    0.6210 C   0  0  0  0  0  0  0  0  0  0  0  0
   -4.8110   -0.8580    0.5810 C   0  0  0  0  0  0  0  0  0  0  0  0
   -4.1500   -1.8940    0.1510 C   0  0  0  0  0  0  0  0  0  0  0  0
   -4.8870   -3.0740    0.3480 N   0  0  0  0  0  0  0  0  0  0  0  0
   -6.0890   -2.6750    0.9500 C   0  0  0  0  0  0  0  0  0  0  0  0
   -6.0930   -1.3770    1.1090 C   0  0  0  0  0  0  0  0  0  0  0  0
   -2.0600    0.7310    0.8220 C   0  0  0  0  0  0  0  0  0  0  0  0
   -0.9260    0.2250    0.0150 C   0  0  0  0  0  0  0  0  0  0  0  0
  2  1  1  1
  2  3  1  0
  2 17  1  0
  3  4  2  0
  3  5  1  0
  5  6  1  0
  6  7  2  0
  6 16  1  0
  7  8  1  0
  8  9  2  0
  9 10  1  0
 10 11  1  0
 10 16  2  0
 11 12  1  0
 11 15  2  0
 12 13  2  0
 13 14  1  0
 14 15  1  0
 17 18  1  0
 17 29  1  0
 18 19  1  0
 19 20  1  0
 20 21  1  6
 20 22  1  0
 20 28  1  0
 22 23  1  0
 23 24  2  0
 23 27  1  0
 24 25  1  0
 25 26  1  0
 26 27  2  0
 28 29  1  0
M  CHG  1  25   1
M  END
