
     RDKit          3D

 29 32  0  0  0  0  0  0  0  0999 V2000
    6.8580    2.2260   -0.7800 N   0  0  0  0  0  0  0  0  0  0  0  0
    6.0700    1.2100   -1.3630 C   0  0  0  0  0  0  0  0  0  0  0  0
    5.2670    0.4160   -0.3000 C   0  0  0  0  0  0  0  0  0  0  0  0
    4.3920    1.3470    0.4100 C   0  0  0  0  0  0  0  0  0  0  0  0
    4.9290    2.5350    0.6990 O   0  0  0  0  0  0  0  0  0  0  0  0
    3.0440    1.1930    0.8430 C   0  0  0  0  0  0  0  0  0  0  0  0
    2.0860    0.4020    0.9010 C   0  0  0  0  0  0  0  0  0  0  0  0
    1.6910   -0.9620    0.5520 C   0  0  0  0  0  0  0  0  0  0  0  0
    2.6220   -1.9310    0.2720 C   0  0  0  0  0  0  0  0  0  0  0  0
    2.1850   -3.2260    0.0270 C   0  0  0  0  0  0  0  0  0  0  0  0
    2.8510   -4.3480   -0.2660 N   0  0  0  0  0  0  0  0  0  0  0  0
    1.9570   -5.3710   -0.4180 C   0  0  0  0  0  0  0  0  0  0  0  0
    0.7400   -4.8380   -0.2100 N   0  0  0  0  0  0  0  0  0  0  0  0
    0.8210   -3.5020    0.0720 C   0  0  0  0  0  0  0  0  0  0  0  0
   -0.0640   -2.5410    0.3450 N   0  0  0  0  0  0  0  0  0  0  0  0
    0.3320   -1.3020    0.5780 C   0  0  0  0  0  0  0  0  0  0  0  0
   -0.6510   -0.1720    0.6320 C   0  0  2  0  0  0  0  0  0  0  0  0
   -1.5250   -0.2600    1.8120 C   0  0  0  0  0  0  0  0  0  0  0  0
   -2.7880   -1.0180    1.7540 C   0  0  0  0  0  0  0  0  0  0  0  0
   -3.7290   -0.4330    0.6890 C   0  0  0  0  0  0  0  0  0  0  0  0
   -2.9000    0.2640   -0.3290 C   0  0  2  0  0  0  0  0  0  0  0  0
   -3.6160    0.6180   -1.5520 N   0  0  0  0  0  0  0  0  0  0  0  0
   -4.7410    1.4500   -1.4830 C   0  0  0  0  0  0  0  0  0  0  0  0
   -5.8570    1.2250   -0.7280 C   0  0  0  0  0  0  0  0  0  0  0  0
   -6.8940    2.1380   -0.6150 C   0  0  0  0  0  0  0  0  0  0  0  0
   -6.8350    3.3590   -1.2960 C   0  0  0  0  0  0  0  0  0  0  0  0
   -5.7510    3.5550   -2.0200 N   0  0  0  0  0  0  0  0  0  0  0  0
   -4.7430    2.7080   -2.1500 C   0  0  0  0  0  0  0  0  0  0  0  0
   -1.6320   -0.4410   -0.5850 C   0  0  0  0  0  0  0  0  0  0  0  0
  1  2  1  0
  2  3  1  0
  3  4  1  0
  4  5  2  0
  4  6  1  0
  6  7  2  3
  7  8  1  0
  8  9  2  0
  8 16  1  0
  9 10  1  0
 10 11  1  0
 10 14  2  0
 11 12  1  0
 12 13  2  0
 13 14  1  0
 14 15  1  0
 15 16  2  0
 17 16  1  1
 17 18  1  0
 17 29  1  0
 18 19  1  0
 19 20  1  0
 20 21  1  0
 21 22  1  6
 21 29  1  0
 22 23  1  0
 23 24  2  0
 23 28  1  0
 24 25  1  0
 25 26  2  0
 26 27  1  0
 27 28  2  0
M  CHG  1   1   1
M  END
