
     RDKit          3D

 29 32  0  0  0  0  0  0  0  0999 V2000
    7.4280   -1.1460    0.5320 C   0  0  0  0  0  0  0  0  0  0  0  0
    6.1930   -1.3920   -0.3070 C   0  0  0  0  0  0  0  0  0  0  0  0
    5.2240   -0.2570   -0.2540 C   0  0  2  0  0  0  0  0  0  0  0  0
    4.7090    0.0530    1.1100 C   0  0  0  0  0  0  0  0  0  0  0  0
    3.3780   -0.5990    1.4130 C   0  0  0  0  0  0  0  0  0  0  0  0
    2.2430    0.1760    0.8340 C   0  0  0  0  0  0  0  0  0  0  0  0
    1.1970    0.2860    1.7130 C   0  0  0  0  0  0  0  0  0  0  0  0
    0.0750    0.9920    1.2780 C   0  0  0  0  0  0  0  0  0  0  0  0
   -0.0190    1.5680    0.0360 C   0  0  0  0  0  0  0  0  0  0  0  0
   -1.2110    2.3170   -0.4300 C   0  0  0  0  0  0  0  0  0  0  0  0
   -2.2700    2.2380    0.4260 O   0  0  0  0  0  0  0  0  0  0  0  0
   -2.7710    1.0680    0.6900 N   0  0  0  0  0  0  0  0  0  0  0  0
   -3.3270    0.3220   -0.3850 C   0  0  1  0  0  0  0  0  0  0  0  0
   -3.8330   -0.9630    0.1360 C   0  0  0  0  0  0  0  0  0  0  0  0
   -3.0940   -1.7230    1.0100 C   0  0  0  0  0  0  0  0  0  0  0  0
   -3.5940   -2.9400    1.4920 C   0  0  0  0  0  0  0  0  0  0  0  0
   -4.8390   -3.3620    1.0740 C   0  0  0  0  0  0  0  0  0  0  0  0
   -5.5580   -2.6110    0.2160 N   0  0  0  0  0  0  0  0  0  0  0  0
   -5.0660   -1.4290   -0.2490 C   0  0  0  0  0  0  0  0  0  0  0  0
   -4.4700    1.0920   -0.9000 N   0  0  0  0  0  0  0  0  0  0  0  0
   -4.8910    1.2020   -2.1430 N   0  0  0  0  0  0  0  0  0  0  0  0
   -5.9560    1.9940   -2.1690 C   0  0  0  0  0  0  0  0  0  0  0  0
   -6.1950    2.3820   -0.9020 N   0  0  0  0  0  0  0  0  0  0  0  0
   -5.2800    1.8290   -0.1050 C   0  0  0  0  0  0  0  0  0  0  0  0
   -5.2150    2.0140    1.3050 N   0  0  0  0  0  0  0  0  0  0  0  0
    1.0760    1.4260   -0.8220 C   0  0  0  0  0  0  0  0  0  0  0  0
    2.2010    0.7340   -0.4270 C   0  0  0  0  0  0  0  0  0  0  0  0
    3.2590    0.6940   -1.4800 C   0  0  0  0  0  0  0  0  0  0  0  0
    4.1290   -0.5010   -1.2630 C   0  0  0  0  0  0  0  0  0  0  0  0
  1  2  1  0
  3  2  1  1
  3  4  1  0
  3 29  1  0
  4  5  1  0
  5  6  1  0
  6  7  2  0
  6 27  1  0
  7  8  1  0
  8  9  2  0
  9 10  1  0
  9 26  1  0
 10 11  1  0
 11 12  1  0
 13 12  1  1
 13 14  1  0
 13 20  1  0
 14 15  2  0
 14 19  1  0
 15 16  1  0
 16 17  2  0
 17 18  1  0
 18 19  2  0
 20 21  1  0
 20 24  1  0
 21 22  2  0
 22 23  1  0
 23 24  2  0
 24 25  1  0
 26 27  2  0
 27 28  1  0
 28 29  1  0
M  CHG  1  18   1
M  END
