
     RDKit          3D

 29 32  0  0  0  0  0  0  0  0999 V2000
   -2.4120   -0.9330    4.2230 C   0  0  0  0  0  0  0  0  0  0  0  0
   -2.4380    0.0750    3.2000 N   0  0  0  0  0  0  0  0  0  0  0  0
   -3.5690   -0.0860    2.3040 C   0  0  0  0  0  0  0  0  0  0  0  0
   -3.2600   -1.1130    1.2290 C   0  0  0  0  0  0  0  0  0  0  0  0
   -2.1220   -0.7780    0.3920 C   0  0  0  0  0  0  0  0  0  0  0  0
   -0.9130   -1.3160    0.6810 N   0  0  0  0  0  0  0  0  0  0  0  0
    0.1930   -1.0050   -0.0200 C   0  0  0  0  0  0  0  0  0  0  0  0
    1.5040   -1.6000    0.2950 C   0  0  0  0  0  0  0  0  0  0  0  0
    2.4480   -1.5500   -0.5760 N   0  0  0  0  0  0  0  0  0  0  0  0
    3.7460   -2.0910   -0.3770 C   0  0  0  0  0  0  0  0  0  0  0  0
    4.8090   -2.0030   -1.4170 C   0  0  0  0  0  0  0  0  0  0  0  0
    5.0960   -0.6470   -1.7280 O   0  0  0  0  0  0  0  0  0  0  0  0
    5.5540    0.2320   -0.7400 C   0  0  0  0  0  0  0  0  0  0  0  0
    6.5040    0.0260    0.1520 C   0  0  0  0  0  0  0  0  0  0  0  0
    6.7180    1.1740    1.0340 C   0  0  0  0  0  0  0  0  0  0  0  0
    5.9120    2.2780    0.4340 C   0  0  0  0  0  0  0  0  0  0  0  0
    5.0110    1.5930   -0.5450 C   0  0  0  0  0  0  0  0  0  0  0  0
    4.0480   -2.6930    0.7600 C   0  0  0  0  0  0  0  0  0  0  0  0
    3.0430   -2.7850    1.7760 N   0  0  0  0  0  0  0  0  0  0  0  0
    1.7720   -2.2360    1.5380 N   0  0  0  0  0  0  0  0  0  0  0  0
    0.0810   -0.1170   -1.0530 C   0  0  0  0  0  0  0  0  0  0  0  0
   -1.0870    0.4250   -1.3610 N   0  0  0  0  0  0  0  0  0  0  0  0
   -2.2120    0.1060   -0.6470 C   0  0  0  0  0  0  0  0  0  0  0  0
   -3.4820    0.7300   -1.1220 C   0  0  1  0  0  0  0  0  0  0  0  0
   -3.0940    1.9040   -2.0260 C   0  0  0  0  0  0  0  0  0  0  0  0
   -4.3580    2.6740   -2.3160 C   0  0  0  0  0  0  0  0  0  0  0  0
   -5.4330    1.7690   -2.8810 C   0  0  0  0  0  0  0  0  0  0  0  0
   -4.9280    0.3940   -3.1700 C   0  0  0  0  0  0  0  0  0  0  0  0
   -4.1590   -0.2570   -2.0700 C   0  0  0  0  0  0  0  0  0  0  0  0
  1  2  1  0
  2  3  1  0
  3  4  1  0
  4  5  1  0
  5  6  2  0
  5 23  1  0
  6  7  1  0
  7  8  1  0
  7 21  2  0
  8  9  2  0
  8 20  1  0
  9 10  1  0
 10 11  1  0
 10 18  2  0
 11 12  1  0
 12 13  1  0
 13 14  2  0
 13 17  1  0
 14 15  1  0
 15 16  1  0
 16 17  1  0
 18 19  1  0
 19 20  1  0
 21 22  1  0
 22 23  2  0
 24 23  1  6
 24 25  1  0
 24 29  1  0
 25 26  1  0
 26 27  1  0
 27 28  1  0
 28 29  1  0
M  CHG  1   2   1
M  END
