
     RDKit          3D

 29 32  0  0  0  0  0  0  0  0999 V2000
   -4.1670   -2.8790   -1.3730 C   0  0  0  0  0  0  0  0  0  0  0  0
   -4.5650   -2.1680   -0.1560 C   0  0  0  0  0  0  0  0  0  0  0  0
   -3.6470   -1.1660    0.4400 C   0  0  0  0  0  0  0  0  0  0  0  0
   -2.4620   -0.7560    0.0840 C   0  0  0  0  0  0  0  0  0  0  0  0
   -1.5900   -1.1060   -1.0080 N   0  0  0  0  0  0  0  0  0  0  0  0
   -0.3070   -0.4830   -1.1680 C   0  0  0  0  0  0  0  0  0  0  0  0
    0.1850    0.4260   -0.3790 C   0  0  0  0  0  0  0  0  0  0  0  0
    1.4820    1.0660   -0.5280 C   0  0  0  0  0  0  0  0  0  0  0  0
    1.7560    1.9730    0.3850 N   0  0  0  0  0  0  0  0  0  0  0  0
    2.8990    2.7800    0.5400 N   0  0  0  0  0  0  0  0  0  0  0  0
    3.5780    3.2830   -0.4480 C   0  0  0  0  0  0  0  0  0  0  0  0
    4.7330    4.0980   -0.0680 C   0  0  0  0  0  0  0  0  0  0  0  0
    3.2720    3.0800   -1.8730 C   0  0  0  0  0  0  0  0  0  0  0  0
    2.7660    1.9680   -2.3710 C   0  0  0  0  0  0  0  0  0  0  0  0
    2.4070    0.7060   -1.6040 C   0  0  1  0  0  0  0  0  0  0  0  0
    3.6740    0.3360   -0.9630 N   0  0  0  0  0  0  0  0  0  0  0  0
    3.8290   -0.8030   -0.1470 C   0  0  0  0  0  0  0  0  0  0  0  0
    2.9460   -1.8430   -0.1400 C   0  0  0  0  0  0  0  0  0  0  0  0
    3.1320   -2.9260    0.6950 C   0  0  0  0  0  0  0  0  0  0  0  0
    4.2010   -2.9830    1.5310 C   0  0  0  0  0  0  0  0  0  0  0  0
    5.0960   -1.9370    1.5290 C   0  0  0  0  0  0  0  0  0  0  0  0
    4.9280   -0.8660    0.7160 C   0  0  0  0  0  0  0  0  0  0  0  0
   -0.6760    0.8130    0.7510 C   0  0  0  0  0  0  0  0  0  0  0  0
   -0.2380    1.6910    1.5420 O   0  0  0  0  0  0  0  0  0  0  0  0
   -1.9510    0.2310    0.9580 N   0  0  0  0  0  0  0  0  0  0  0  0
   -2.9150    0.4790    1.9870 C   0  0  0  0  0  0  0  0  0  0  0  0
   -4.0480   -0.4220    1.6860 C   0  0  1  0  0  0  0  0  0  0  0  0
   -5.2390    0.3660    1.4560 N   0  0  0  0  0  0  0  0  0  0  0  0
   -5.3590    0.8590    0.1240 C   0  0  0  0  0  0  0  0  0  0  0  0
  1  2  1  0
  2  3  1  0
  3  4  2  0
  3 27  1  0
  4  5  1  0
  4 25  1  0
  5  6  1  0
  6  7  2  0
  7  8  1  0
  7 23  1  0
  8  9  2  0
  8 15  1  0
  9 10  1  0
 10 11  2  0
 11 12  1  0
 11 13  1  0
 13 14  2  0
 14 15  1  0
 15 16  1  1
 16 17  1  0
 17 18  2  0
 17 22  1  0
 18 19  1  0
 19 20  2  0
 20 21  1  0
 21 22  2  0
 23 24  2  0
 23 25  1  0
 25 26  1  0
 26 27  1  0
 27 28  1  6
 28 29  1  0
M  CHG  1  28   1
M  END
