
     RDKit          3D

 29 32  0  0  0  0  0  0  0  0999 V2000
   -6.5990    2.9040   -0.8020 C   0  0  0  0  0  0  0  0  0  0  0  0
   -5.2260    2.4570   -0.8750 N   0  0  0  0  0  0  0  0  0  0  0  0
   -4.2880    3.2130   -1.4380 N   0  0  0  0  0  0  0  0  0  0  0  0
   -3.1260    2.5820   -1.4230 C   0  0  0  0  0  0  0  0  0  0  0  0
   -3.3370    1.3660   -0.8160 C   0  0  0  0  0  0  0  0  0  0  0  0
   -2.3170    0.4450   -0.5530 N   0  0  0  0  0  0  0  0  0  0  0  0
   -0.9870    0.5190   -1.0740 C   0  0  0  0  0  0  0  0  0  0  0  0
   -0.6600    1.4400   -1.8260 O   0  0  0  0  0  0  0  0  0  0  0  0
    0.0010   -0.4770   -0.7350 N   0  0  0  0  0  0  0  0  0  0  0  0
    1.3440   -0.4210   -1.2630 C   0  0  0  0  0  0  0  0  0  0  0  0
    2.1270   -1.6030   -0.6800 C   0  0  0  0  0  0  0  0  0  0  0  0
    2.1900   -1.4620    0.8380 C   0  0  0  0  0  0  0  0  0  0  0  0
    2.9000   -0.2080    1.1530 N   0  0  0  0  0  0  0  0  0  0  0  0
    4.2770   -0.0410    0.8540 C   0  0  0  0  0  0  0  0  0  0  0  0
    4.8870    1.1960    0.8280 C   0  0  0  0  0  0  0  0  0  0  0  0
    6.2450    1.3350    0.5600 C   0  0  0  0  0  0  0  0  0  0  0  0
    7.0460    0.2430    0.3070 C   0  0  0  0  0  0  0  0  0  0  0  0
    8.4040    0.3600    0.0460 C   0  0  0  0  0  0  0  0  0  0  0  0
    9.2230   -0.7300   -0.2000 C   0  0  0  0  0  0  0  0  0  0  0  0
    8.6240   -1.9770   -0.1760 C   0  0  0  0  0  0  0  0  0  0  0  0
    7.2710   -2.0850    0.0840 C   0  0  0  0  0  0  0  0  0  0  0  0
    6.4590   -1.0020    0.3290 C   0  0  0  0  0  0  0  0  0  0  0  0
    5.1020   -1.1410    0.5970 C   0  0  0  0  0  0  0  0  0  0  0  0
   -4.6520    1.2940   -0.4770 C   0  0  0  0  0  0  0  0  0  0  0  0
   -5.4470    0.1870    0.0920 C   0  0  2  0  0  0  0  0  0  0  0  0
   -6.6380    0.5840    0.8870 C   0  0  0  0  0  0  0  0  0  0  0  0
   -6.8310   -0.6180    1.8090 C   0  0  0  0  0  0  0  0  0  0  0  0
   -5.9130   -1.6240    1.4290 N   0  0  0  0  0  0  0  0  0  0  0  0
   -4.7710   -0.8600    0.8680 C   0  0  0  0  0  0  0  0  0  0  0  0
  1  2  1  0
  2  3  1  0
  2 24  1  0
  3  4  2  0
  4  5  1  0
  5  6  1  0
  5 24  2  0
  6  7  1  0
  7  8  2  0
  7  9  1  0
  9 10  1  0
 10 11  1  0
 11 12  1  0
 12 13  1  0
 13 14  1  0
 14 15  2  0
 14 23  1  0
 15 16  1  0
 16 17  2  0
 17 18  1  0
 17 22  1  0
 18 19  2  0
 19 20  1  0
 20 21  2  0
 21 22  1  0
 22 23  2  0
 25 24  1  1
 25 26  1  0
 25 29  1  0
 26 27  1  0
 27 28  1  0
 28 29  1  0
M  CHG  1  28   1
M  END
