
     RDKit          3D

 29 32  0  0  0  0  0  0  0  0999 V2000
    8.4770   -1.9020   -1.6490 C   0  0  0  0  0  0  0  0  0  0  0  0
    7.1390   -1.8920   -1.0020 C   0  0  0  0  0  0  0  0  0  0  0  0
    6.4840   -0.6930   -0.7310 C   0  0  0  0  0  0  0  0  0  0  0  0
    5.2630   -0.6230   -0.1420 C   0  0  0  0  0  0  0  0  0  0  0  0
    4.4760    0.5540    0.1640 C   0  0  0  0  0  0  0  0  0  0  0  0
    3.1210    0.3770    0.5460 C   0  0  0  0  0  0  0  0  0  0  0  0
    2.2990    1.4190    0.8740 C   0  0  0  0  0  0  0  0  0  0  0  0
    0.9220    1.1320    1.2540 C   0  0  0  0  0  0  0  0  0  0  0  0
    0.5170   -0.0690    1.3460 O   0  0  0  0  0  0  0  0  0  0  0  0
   -0.0470    2.1180    1.5410 N   0  0  0  0  0  0  0  0  0  0  0  0
   -1.4200    1.8210    1.9200 C   0  0  0  0  0  0  0  0  0  0  0  0
   -2.1640    1.0370    0.8470 C   0  0  0  0  0  0  0  0  0  0  0  0
   -3.5670    0.8240    1.4030 C   0  0  0  0  0  0  0  0  0  0  0  0
   -4.4200    0.0950    0.5230 N   0  0  0  0  0  0  0  0  0  0  0  0
   -4.2680   -1.3030    0.1790 C   0  0  0  0  0  0  0  0  0  0  0  0
   -5.6230   -1.7780   -0.2830 C   0  0  1  0  0  0  0  0  0  0  0  0
   -6.3110   -2.4940    0.8440 C   0  0  0  0  0  0  0  0  0  0  0  0
   -6.3360   -0.5480   -0.7000 C   0  0  0  0  0  0  0  0  0  0  0  0
   -7.3810   -0.1220   -1.3460 C   0  0  0  0  0  0  0  0  0  0  0  0
   -7.3670    1.3600   -1.2980 C   0  0  0  0  0  0  0  0  0  0  0  0
   -6.1490    1.6850   -0.5240 C   0  0  0  0  0  0  0  0  0  0  0  0
   -5.5570    0.5750   -0.1800 C   0  0  0  0  0  0  0  0  0  0  0  0
    2.8500    2.6740    0.8170 C   0  0  0  0  0  0  0  0  0  0  0  0
    4.1280    2.8820    0.4610 N   0  0  0  0  0  0  0  0  0  0  0  0
    4.9550    1.8270    0.1320 C   0  0  0  0  0  0  0  0  0  0  0  0
    6.2970    2.1190   -0.2100 N   0  0  0  0  0  0  0  0  0  0  0  0
    4.7000   -1.8320    0.1760 N   0  0  0  0  0  0  0  0  0  0  0  0
    5.2980   -3.0050   -0.0690 C   0  0  0  0  0  0  0  0  0  0  0  0
    6.5200   -3.0280   -0.6590 N   0  0  0  0  0  0  0  0  0  0  0  0
  1  2  1  0
  2  3  2  0
  2 29  1  0
  3  4  1  0
  4  5  1  0
  4 27  2  0
  5  6  2  0
  5 25  1  0
  6  7  1  0
  7  8  1  0
  7 23  2  0
  8  9  2  0
  8 10  1  0
 10 11  1  0
 11 12  1  0
 12 13  1  0
 13 14  1  0
 14 15  1  0
 14 22  1  0
 15 16  1  0
 16 17  1  1
 16 18  1  0
 18 19  2  0
 18 22  1  0
 19 20  1  0
 20 21  1  0
 21 22  2  0
 23 24  1  0
 24 25  2  0
 25 26  1  0
 27 28  1  0
 28 29  2  0
M  CHG  1  29   1
M  END
