
     RDKit          3D

 14 14  0  0  0  0  0  0  0  0999 V2000
    2.2790    2.2130    0.4430 C   0  0  0  0  0  0  0  0  0  0  0  0
    1.4090    1.2680    0.9140 O   0  0  0  0  0  0  0  0  0  0  0  0
    1.3340    0.0940    0.2200 C   0  0  2  0  0  0  0  0  0  0  0  0
    2.6160   -0.6570    0.1480 C   0  0  0  0  0  0  0  0  0  0  0  0
    2.4890   -1.8620   -0.5720 O   0  0  0  0  0  0  0  0  0  0  0  0
    0.7180    0.3720   -1.1430 C   0  0  0  0  0  0  0  0  0  0  0  0
   -0.5050    0.8960   -0.7170 O   0  0  0  0  0  0  0  0  0  0  0  0
   -1.0000   -0.0640    0.1660 C   0  0  2  0  0  0  0  0  0  0  0  0
   -1.8180   -1.0210   -0.6590 C   0  0  0  0  0  0  0  0  0  0  0  0
   -2.8980   -0.2930   -1.3000 N   0  0  0  0  0  0  0  0  0  0  0  0
   -1.8330    0.5360    1.2590 C   0  0  0  0  0  0  0  0  0  0  0  0
   -2.9370    1.2260    0.8340 O   0  0  0  0  0  0  0  0  0  0  0  0
    0.1970   -0.7180    0.8130 C   0  0  1  0  0  0  0  0  0  0  0  0
    0.2980   -2.0590    0.5950 O   0  0  0  0  0  0  0  0  0  0  0  0
  1  2  1  0
  2  3  1  0
  3  4  1  6
  3  6  1  0
  3 13  1  0
  4  5  1  0
  6  7  1  0
  7  8  1  0
  8  9  1  6
  8 11  1  0
  8 13  1  0
  9 10  1  0
 11 12  1  0
 13 14  1  6
M  CHG  1  10   1
M  END
