
     RDKit          3D

 14 14  0  0  0  0  0  0  0  0999 V2000
    1.6040    2.0040    1.0910 C   0  0  0  0  0  0  0  0  0  0  0  0
    0.5260    1.6870    0.4120 C   0  0  0  0  0  0  0  0  0  0  0  0
   -0.4030    2.7320    0.2030 O   0  0  0  0  0  0  0  0  0  0  0  0
    0.1810    0.3870   -0.1440 C   0  0  2  0  0  0  0  0  0  0  0  0
    1.2520   -0.6460   -0.1950 C   0  0  1  0  0  0  0  0  0  0  0  0
    0.5540   -1.8730   -0.4730 O   0  0  0  0  0  0  0  0  0  0  0  0
    2.1300   -0.5290   -1.2690 O   0  0  0  0  0  0  0  0  0  0  0  0
    3.4150   -0.7480   -0.8110 C   0  0  0  0  0  0  0  0  0  0  0  0
   -0.4160    0.4290   -1.4010 O   0  0  0  0  0  0  0  0  0  0  0  0
   -1.7790    0.4460   -1.2480 C   0  0  0  0  0  0  0  0  0  0  0  0
   -1.9450   -0.6540   -0.1890 C   0  0  2  0  0  0  0  0  0  0  0  0
   -3.2540   -0.5540    0.4380 N   0  0  0  0  0  0  0  0  0  0  0  0
   -0.8890   -0.2190    0.7940 C   0  0  1  0  0  0  0  0  0  0  0  0
   -0.3850   -1.2360    1.5630 O   0  0  0  0  0  0  0  0  0  0  0  0
  1  2  2  0
  2  3  1  0
  4  2  1  1
  4  5  1  0
  4  9  1  0
  4 13  1  0
  5  6  1  6
  5  7  1  0
  7  8  1  0
  9 10  1  0
 10 11  1  0
 11 12  1  1
 11 13  1  0
 13 14  1  6
M  CHG  1  12   1
M  END
