
     RDKit          3D

 14 14  0  0  0  0  0  0  0  0999 V2000
    3.6970   -0.1970   -0.5290 C   0  0  0  0  0  0  0  0  0  0  0  0
    2.6690   -0.3030    0.3920 O   0  0  0  0  0  0  0  0  0  0  0  0
    1.5040    0.3350   -0.0300 C   0  0  2  0  0  0  0  0  0  0  0  0
    1.2490    1.3160    0.9580 O   0  0  0  0  0  0  0  0  0  0  0  0
    0.2320    2.1680    0.5700 C   0  0  0  0  0  0  0  0  0  0  0  0
   -0.8430    1.4500   -0.1670 C   0  0  2  0  0  0  0  0  0  0  0  0
   -2.0810    2.0680   -0.0150 O   0  0  0  0  0  0  0  0  0  0  0  0
   -0.9510   -0.0220    0.2390 C   0  0  2  0  0  0  0  0  0  0  0  0
   -2.1010   -0.5800   -0.5540 C   0  0  0  0  0  0  0  0  0  0  0  0
   -2.3630   -1.9070   -0.3270 O   0  0  0  0  0  0  0  0  0  0  0  0
   -1.3600   -0.0780    1.7040 C   0  0  0  0  0  0  0  0  0  0  0  0
   -1.4910   -1.3550    2.1840 O   0  0  0  0  0  0  0  0  0  0  0  0
    0.3550   -0.6870   -0.0120 C   0  0  1  0  0  0  0  0  0  0  0  0
    0.4060   -1.4960   -1.1960 N   0  0  0  0  0  0  0  0  0  0  0  0
  1  2  1  0
  3  2  1  1
  3  4  1  0
  3 13  1  0
  4  5  1  0
  5  6  1  0
  6  7  1  1
  6  8  1  0
  8  9  1  6
  8 11  1  0
  8 13  1  0
  9 10  1  0
 11 12  1  0
 13 14  1  6
M  CHG  1  14   1
M  END
