
     RDKit          3D

  6  5  0  0  0  0  0  0  0  0999 V2000
   -1.0880    0.4250    1.2790 O   0  0  0  0  0  0  0  0  0  0  0  0
   -0.7140   -0.0010    0.1620 C   0  0  0  0  0  0  0  0  0  0  0  0
   -1.6840   -0.2270   -0.8010 O   0  0  0  0  0  0  0  0  0  0  0  0
    0.6990   -0.2420   -0.0890 C   0  0  0  0  0  0  0  0  0  0  0  0
    1.0840   -0.6690   -1.2040 O   0  0  0  0  0  0  0  0  0  0  0  0
    1.6510   -0.0110    0.8850 O   0  0  0  0  0  0  0  0  0  0  0  0
  1  2  2  0
  2  3  1  0
  2  4  1  0
  4  5  2  0
  4  6  1  0
M  END
