
     RDKit          3D

 14 14  0  0  0  0  0  0  0  0999 V2000
   -2.8680   -0.8470   -0.1790 N   0  0  0  0  0  0  0  0  0  0  0  0
   -1.6720   -0.1580    0.2280 C   0  0  2  0  0  0  0  0  0  0  0  0
   -1.4490    1.1210   -0.5830 C   0  0  1  0  0  0  0  0  0  0  0  0
   -2.3960    2.2100   -0.1470 C   0  0  0  0  0  0  0  0  0  0  0  0
   -2.3500    2.4330    1.2190 O   0  0  0  0  0  0  0  0  0  0  0  0
   -0.1340    1.3990   -0.2870 O   0  0  0  0  0  0  0  0  0  0  0  0
    0.5210    0.1940   -0.5380 C   0  0  1  0  0  0  0  0  0  0  0  0
    1.6990    0.2040    0.1660 O   0  0  0  0  0  0  0  0  0  0  0  0
    2.7520    0.1700   -0.7440 C   0  0  0  0  0  0  0  0  0  0  0  0
    4.0960    0.1790   -0.0490 C   0  0  0  0  0  0  0  0  0  0  0  0
    4.2220   -0.9250    0.7840 O   0  0  0  0  0  0  0  0  0  0  0  0
   -0.4140   -0.9160   -0.1310 C   0  0  1  0  0  0  0  0  0  0  0  0
    0.1130   -1.7380    1.0110 C   0  0  0  0  0  0  0  0  0  0  0  0
   -0.8870   -2.6520    1.3600 O   0  0  0  0  0  0  0  0  0  0  0  0
  2  1  1  6
  2  3  1  0
  2 12  1  0
  3  4  1  1
  3  6  1  0
  4  5  1  0
  6  7  1  0
  7  8  1  1
  7 12  1  0
  8  9  1  0
  9 10  1  0
 10 11  1  0
 12 13  1  1
 13 14  1  0
M  CHG  1   1   1
M  END
