
     RDKit          3D

 14 14  0  0  0  0  0  0  0  0999 V2000
   -1.3830   -1.9720   -0.9260 N   0  0  0  0  0  0  0  0  0  0  0  0
   -1.3780   -1.1260    0.2300 C   0  0  2  0  0  0  0  0  0  0  0  0
   -2.7260   -0.3910    0.2600 C   0  0  2  0  0  0  0  0  0  0  0  0
   -3.4030   -0.5600   -0.9370 O   0  0  0  0  0  0  0  0  0  0  0  0
   -2.5120    1.0540    0.6240 C   0  0  0  0  0  0  0  0  0  0  0  0
   -1.5300    1.7600   -0.2540 C   0  0  0  0  0  0  0  0  0  0  0  0
   -0.5540    0.8950   -0.7440 O   0  0  0  0  0  0  0  0  0  0  0  0
   -0.3180   -0.0810    0.2260 C   0  0  2  0  0  0  0  0  0  0  0  0
    1.0740   -0.6310    0.0610 C   0  0  0  0  0  0  0  0  0  0  0  0
    2.0720    0.5130    0.0710 C   0  0  2  0  0  0  0  0  0  0  0  0
    1.8370    1.4110   -0.9530 O   0  0  0  0  0  0  0  0  0  0  0  0
    3.4930   -0.0390    0.0430 C   0  0  1  0  0  0  0  0  0  0  0  0
    4.4270    0.9800    0.1720 O   0  0  0  0  0  0  0  0  0  0  0  0
    3.6250   -0.9090    1.1210 O   0  0  0  0  0  0  0  0  0  0  0  0
  2  1  1  6
  2  3  1  0
  2  8  1  0
  3  4  1  6
  3  5  1  0
  5  6  1  0
  6  7  1  0
  7  8  1  0
  8  9  1  6
  9 10  1  0
 10 11  1  6
 10 12  1  0
 12 13  1  1
 12 14  1  0
M  CHG  1   1   1
M  END
