
     RDKit          3D

 14 14  0  0  0  0  0  0  0  0999 V2000
    2.3380    1.4590   -0.6530 N   0  0  0  0  0  0  0  0  0  0  0  0
    2.0350    0.0940   -0.8060 C   0  0  0  0  0  0  0  0  0  0  0  0
    1.2040   -0.5680    0.2490 C   0  0  2  0  0  0  0  0  0  0  0  0
    1.0550   -2.0110   -0.2140 C   0  0  0  0  0  0  0  0  0  0  0  0
    2.3450   -2.6020   -0.3290 O   0  0  0  0  0  0  0  0  0  0  0  0
    0.0660    0.0830    0.8350 C   0  0  2  0  0  0  0  0  0  0  0  0
   -0.4390   -0.8310    1.8190 O   0  0  0  0  0  0  0  0  0  0  0  0
   -1.1220    0.6100    0.1890 C   0  0  1  0  0  0  0  0  0  0  0  0
   -1.0330    1.6750   -0.8560 C   0  0  0  0  0  0  0  0  0  0  0  0
   -0.4230    1.3460   -2.0380 O   0  0  0  0  0  0  0  0  0  0  0  0
   -2.1310   -0.3880   -0.2890 C   0  0  0  0  0  0  0  0  0  0  0  0
   -2.7720   -0.7700    0.8790 O   0  0  0  0  0  0  0  0  0  0  0  0
   -2.6790    0.2970    1.7440 C   0  0  0  0  0  0  0  0  0  0  0  0
   -1.8680    1.2490    1.2220 O   0  0  0  0  0  0  0  0  0  0  0  0
  1  2  1  0
  3  2  1  6
  3  4  1  0
  3  6  1  0
  4  5  1  0
  6  7  1  1
  6  8  1  0
  8  9  1  6
  8 11  1  0
  8 14  1  0
  9 10  1  0
 11 12  1  0
 12 13  1  0
 13 14  1  0
M  CHG  1   1   1
M  END
