
     RDKit          3D

 14 14  0  0  0  0  0  0  0  0999 V2000
   -2.8230   -0.6280    1.5550 N   0  0  0  0  0  0  0  0  0  0  0  0
   -1.5140   -0.7560    0.9610 C   0  0  0  0  0  0  0  0  0  0  0  0
   -1.3700    0.2600   -0.1280 C   0  0  1  0  0  0  0  0  0  0  0  0
   -2.3340    0.0570   -1.0960 O   0  0  0  0  0  0  0  0  0  0  0  0
   -1.4670    1.6810    0.4030 C   0  0  0  0  0  0  0  0  0  0  0  0
   -1.2580    2.5290   -0.7020 O   0  0  0  0  0  0  0  0  0  0  0  0
    0.0250    0.1440   -0.7570 C   0  0  2  0  0  0  0  0  0  0  0  0
    0.2490   -1.2430   -1.3270 C   0  0  0  0  0  0  0  0  0  0  0  0
    1.6250   -1.1350   -1.9930 C   0  0  0  0  0  0  0  0  0  0  0  0
    2.5570   -0.6860   -1.1040 O   0  0  0  0  0  0  0  0  0  0  0  0
    2.1340   -0.2820    0.1140 C   0  0  1  0  0  0  0  0  0  0  0  0
    3.2040    0.6080    0.7240 C   0  0  0  0  0  0  0  0  0  0  0  0
    2.7310    1.0020    1.9740 O   0  0  0  0  0  0  0  0  0  0  0  0
    0.9410    0.3480    0.2240 O   0  0  0  0  0  0  0  0  0  0  0  0
  1  2  1  0
  2  3  1  0
  3  4  1  6
  3  5  1  0
  3  7  1  0
  5  6  1  0
  7  8  1  1
  7 14  1  0
  8  9  1  0
  9 10  1  0
 10 11  1  0
 11 12  1  6
 11 14  1  0
 12 13  1  0
M  CHG  1   1   1
M  END
