
     RDKit          3D

 14 14  0  0  0  0  0  0  0  0999 V2000
    1.0490   -0.5360   -1.6260 N   0  0  0  0  0  0  0  0  0  0  0  0
    0.9560   -0.5680   -0.1960 C   0  0  1  0  0  0  0  0  0  0  0  0
    1.8120    0.4690    0.4480 C   0  0  2  0  0  0  0  0  0  0  0  0
    1.4810    1.7650    0.0700 O   0  0  0  0  0  0  0  0  0  0  0  0
    3.2850    0.2720    0.1710 C   0  0  0  0  0  0  0  0  0  0  0  0
    4.0610    1.1770    0.8900 O   0  0  0  0  0  0  0  0  0  0  0  0
   -0.4490   -0.4790    0.3260 C   0  0  2  0  0  0  0  0  0  0  0  0
   -0.3540   -0.5250    1.7360 O   0  0  0  0  0  0  0  0  0  0  0  0
   -1.2430   -1.7260   -0.0590 C   0  0  0  0  0  0  0  0  0  0  0  0
   -2.7180   -1.5380    0.1130 C   0  0  0  0  0  0  0  0  0  0  0  0
   -2.9260   -0.4270    0.9250 O   0  0  0  0  0  0  0  0  0  0  0  0
   -2.6240    0.6980    0.1360 C   0  0  1  0  0  0  0  0  0  0  0  0
   -3.1390    1.7980    0.8500 O   0  0  0  0  0  0  0  0  0  0  0  0
   -1.1430    0.7860   -0.0450 C   0  0  0  0  0  0  0  0  0  0  0  0
  2  1  1  6
  2  3  1  0
  2  7  1  0
  3  4  1  6
  3  5  1  0
  5  6  1  0
  7  8  1  1
  7  9  1  0
  7 14  1  0
  9 10  1  0
 10 11  1  0
 11 12  1  0
 12 13  1  1
 12 14  1  0
M  CHG  1   1   1
M  END
