
     RDKit          3D

 28 30  0  0  0  0  0  0  0  0999 V2000
    2.5550    4.5420    2.0000 C   0  0  0  0  0  0  0  0  0  0  0  0
    3.6310    4.1660    1.0070 C   0  0  0  0  0  0  0  0  0  0  0  0
    3.9520    2.7820    1.0710 O   0  0  0  0  0  0  0  0  0  0  0  0
    2.9640    1.8090    0.8220 C   0  0  0  0  0  0  0  0  0  0  0  0
    1.8440    2.2400    0.5550 O   0  0  0  0  0  0  0  0  0  0  0  0
    3.3140    0.4460    0.8940 N   0  0  0  0  0  0  0  0  0  0  0  0
    2.4230   -0.5880    0.6680 C   0  0  0  0  0  0  0  0  0  0  0  0
    1.0930   -0.4850    0.3460 C   0  0  0  0  0  0  0  0  0  0  0  0
    0.2630   -1.5730    0.1340 C   0  0  0  0  0  0  0  0  0  0  0  0
   -1.1610   -1.4200   -0.2100 C   0  0  0  0  0  0  0  0  0  0  0  0
   -1.9420   -2.5580   -0.4100 C   0  0  0  0  0  0  0  0  0  0  0  0
   -3.2780   -2.4900   -0.7340 C   0  0  0  0  0  0  0  0  0  0  0  0
   -3.9050   -1.2730   -0.8740 C   0  0  0  0  0  0  0  0  0  0  0  0
   -5.3580   -1.1840   -1.2250 C   0  0  0  0  0  0  0  0  0  0  0  0
   -3.1530   -0.1370   -0.6810 C   0  0  0  0  0  0  0  0  0  0  0  0
   -3.7870    1.1270   -0.8230 N   0  0  0  0  0  0  0  0  0  0  0  0
   -2.9410    2.6020   -0.5910 S   0  0  1  0  0  0  0  0  0  0  0  0
   -1.6110    2.8250   -1.7180 C   0  0  0  0  0  0  0  0  0  0  0  0
   -3.8690    3.7760   -0.7190 O   0  0  0  0  0  0  0  0  0  0  0  0
   -2.3560    2.6400    0.8100 O   0  0  0  0  0  0  0  0  0  0  0  0
   -1.7920   -0.2150   -0.3510 C   0  0  0  0  0  0  0  0  0  0  0  0
    0.8130   -2.7940    0.2560 N   0  0  0  0  0  0  0  0  0  0  0  0
    2.0930   -2.9540    0.5650 N   0  0  0  0  0  0  0  0  0  0  0  0
    2.7980   -4.0910    0.7250 C   0  0  0  0  0  0  0  0  0  0  0  0
    2.3370   -5.4980    0.6000 C   0  0  0  0  0  0  0  0  0  0  0  0
    4.0460   -3.6960    1.0320 N   0  0  0  0  0  0  0  0  0  0  0  0
    4.1170   -2.3830    1.0620 N   0  0  0  0  0  0  0  0  0  0  0  0
    2.8980   -1.9040    0.7710 C   0  0  0  0  0  0  0  0  0  0  0  0
  1  2  1  0
  2  3  1  0
  3  4  1  0
  4  5  2  0
  4  6  1  0
  6  7  1  0
  7  8  2  0
  7 28  1  0
  8  9  1  0
  9 10  1  0
  9 22  2  0
 10 11  2  0
 10 21  1  0
 11 12  1  0
 12 13  2  0
 13 14  1  0
 13 15  1  0
 15 16  1  0
 15 21  2  0
 16 17  1  0
 17 18  1  6
 17 19  2  0
 17 20  2  0
 22 23  1  0
 23 24  1  0
 23 28  1  0
 24 25  1  0
 24 26  2  0
 26 27  1  0
 27 28  2  0
M  END
