
     RDKit          3D

 28 30  0  0  0  0  0  0  0  0999 V2000
   -3.6170   -1.1030    2.7040 C   0  0  0  0  0  0  0  0  0  0  0  0
   -3.8750    0.1330    2.3560 C   0  0  0  0  0  0  0  0  0  0  0  0
   -3.0860    0.8890    1.3570 C   0  0  0  0  0  0  0  0  0  0  0  0
   -3.4670    2.1060    1.1110 C   0  0  0  0  0  0  0  0  0  0  0  0
   -2.8260    3.0400    0.1710 C   0  0  0  0  0  0  0  0  0  0  0  0
   -2.0400    0.1920    0.6290 C   0  0  0  0  0  0  0  0  0  0  0  0
   -1.0680   -0.5720    1.2450 N   0  0  0  0  0  0  0  0  0  0  0  0
   -0.2750   -1.1590    0.4070 N   0  0  0  0  0  0  0  0  0  0  0  0
    0.8410   -2.0220    0.7340 C   0  0  0  0  0  0  0  0  0  0  0  0
    0.8170   -3.1830    1.4140 N   0  0  0  0  0  0  0  0  0  0  0  0
    2.0550   -3.6820    1.5110 C   0  0  0  0  0  0  0  0  0  0  0  0
    2.3390   -4.7550    2.0910 O   0  0  0  0  0  0  0  0  0  0  0  0
    2.8730   -2.8150    0.8770 N   0  0  0  0  0  0  0  0  0  0  0  0
    4.2970   -2.9530    0.7330 C   0  0  0  0  0  0  0  0  0  0  0  0
    2.1530   -1.7920    0.3940 C   0  0  0  0  0  0  0  0  0  0  0  0
    2.6540   -0.6460   -0.3530 C   0  0  0  0  0  0  0  0  0  0  0  0
    1.9500    0.3890   -0.8450 N   0  0  0  0  0  0  0  0  0  0  0  0
    2.7630    1.2210   -1.4570 O   0  0  0  0  0  0  0  0  0  0  0  0
    3.9910    0.7740   -1.3900 C   0  0  0  0  0  0  0  0  0  0  0  0
    5.4050    1.6050   -2.0960 S   0  0  0  0  0  0  0  0  0  0  0  0
    6.1370    2.7560   -0.9080 C   0  0  0  0  0  0  0  0  0  0  0  0
    3.9340   -0.3830   -0.7070 N   0  0  0  0  0  0  0  0  0  0  0  0
   -0.6890   -0.8090   -0.8120 C   0  0  0  0  0  0  0  0  0  0  0  0
   -1.8140    0.0460   -0.7060 C   0  0  0  0  0  0  0  0  0  0  0  0
   -2.6050    0.4660   -1.8470 C   0  0  0  0  0  0  0  0  0  0  0  0
   -2.1440    0.3240   -3.0340 O   0  0  0  0  0  0  0  0  0  0  0  0
   -3.8510    1.0090   -1.7440 O   0  0  0  0  0  0  0  0  0  0  0  0
   -4.6530    1.4190   -2.8370 C   0  0  0  0  0  0  0  0  0  0  0  0
  1  2  2  0
  2  3  1  0
  3  4  2  3
  3  6  1  0
  4  5  1  0
  6  7  2  0
  6 24  1  0
  7  8  1  0
  8  9  1  0
  8 23  1  0
  9 10  1  0
  9 15  2  0
 10 11  1  0
 11 12  2  0
 11 13  1  0
 13 14  1  0
 13 15  1  0
 15 16  1  0
 16 17  2  0
 16 22  1  0
 17 18  1  0
 18 19  1  0
 19 20  1  0
 19 22  2  0
 20 21  1  0
 23 24  2  0
 24 25  1  0
 25 26  2  0
 25 27  1  0
 27 28  1  0
M  END
