
     RDKit          3D

 28 30  0  0  0  0  0  0  0  0999 V2000
    9.3650    2.3270   -0.8780 C   0  0  0  0  0  0  0  0  0  0  0  0
    8.0130    2.0330   -1.2020 O   0  0  0  0  0  0  0  0  0  0  0  0
    7.4100    1.0200   -0.4820 C   0  0  0  0  0  0  0  0  0  0  0  0
    7.9720    0.3620    0.4150 O   0  0  0  0  0  0  0  0  0  0  0  0
    6.0370    0.6710   -0.7610 N   0  0  0  0  0  0  0  0  0  0  0  0
    5.3890   -0.3610   -0.0440 C   0  0  0  0  0  0  0  0  0  0  0  0
    5.8450   -1.1510    0.9370 N   0  0  0  0  0  0  0  0  0  0  0  0
    4.9160   -1.9750    1.3240 O   0  0  0  0  0  0  0  0  0  0  0  0
    3.8580   -1.7320    0.6070 N   0  0  0  0  0  0  0  0  0  0  0  0
    4.0780   -0.7530   -0.2550 C   0  0  0  0  0  0  0  0  0  0  0  0
    3.1730   -0.1910   -1.2610 C   0  0  0  0  0  0  0  0  0  0  0  0
    1.5610   -0.9170   -1.2060 S   0  0  0  0  0  0  0  0  0  0  0  0
    0.5130   -0.4780    0.1690 C   0  0  2  0  0  0  0  0  0  0  0  0
    0.9880   -0.9950    1.4800 C   0  0  0  0  0  0  0  0  0  0  0  0
   -0.8890   -0.8870   -0.1290 C   0  0  0  0  0  0  0  0  0  0  0  0
   -1.1240   -1.4350   -1.2270 O   0  0  0  0  0  0  0  0  0  0  0  0
   -1.9590   -0.6790    0.7840 N   0  0  0  0  0  0  0  0  0  0  0  0
   -3.3000   -1.0750    0.4930 C   0  0  0  0  0  0  0  0  0  0  0  0
   -3.9170   -2.2740    0.7510 C   0  0  0  0  0  0  0  0  0  0  0  0
   -3.2670   -3.4450    1.4160 C   0  0  0  0  0  0  0  0  0  0  0  0
   -5.1540   -2.1490    0.2950 N   0  0  0  0  0  0  0  0  0  0  0  0
   -5.3510   -0.9210   -0.2430 N   0  0  0  0  0  0  0  0  0  0  0  0
   -4.2200   -0.2430   -0.1310 C   0  0  0  0  0  0  0  0  0  0  0  0
   -4.1230    1.1440   -0.6080 C   0  0  0  0  0  0  0  0  0  0  0  0
   -5.1580    1.7450   -1.1550 C   0  0  0  0  0  0  0  0  0  0  0  0
   -5.1110    3.1450   -1.6550 C   0  0  0  0  0  0  0  0  0  0  0  0
   -6.4480    1.0350   -1.2720 C   0  0  0  0  0  0  0  0  0  0  0  0
   -6.5220   -0.3600   -0.8630 C   0  0  0  0  0  0  0  0  0  0  0  0
  1  2  1  0
  2  3  1  0
  3  4  2  0
  3  5  1  0
  5  6  1  0
  6  7  2  0
  6 10  1  0
  7  8  1  0
  8  9  1  0
  9 10  2  0
 10 11  1  0
 11 12  1  0
 12 13  1  0
 13 14  1  1
 13 15  1  0
 15 16  2  0
 15 17  1  0
 17 18  1  0
 18 19  1  0
 18 23  2  0
 19 20  1  0
 19 21  2  0
 21 22  1  0
 22 23  1  0
 22 28  1  0
 23 24  1  0
 24 25  2  0
 25 26  1  0
 25 27  1  0
 27 28  1  0
M  END
