
     RDKit          3D

 28 30  0  0  0  0  0  0  0  0999 V2000
   -6.5560    0.6260    1.6540 C   0  0  0  0  0  0  0  0  0  0  0  0
   -5.3750    0.1790    0.8550 C   0  0  0  0  0  0  0  0  0  0  0  0
   -5.4790   -0.0790   -0.3860 N   0  0  0  0  0  0  0  0  0  0  0  0
   -4.3970   -0.5090   -1.2090 N   0  0  0  0  0  0  0  0  0  0  0  0
   -4.6770   -0.7540   -2.5920 C   0  0  0  0  0  0  0  0  0  0  0  0
   -3.1340   -0.6600   -0.6190 C   0  0  0  0  0  0  0  0  0  0  0  0
   -2.0560   -1.0650   -1.2150 C   0  0  0  0  0  0  0  0  0  0  0  0
   -1.6390   -1.4830   -2.5010 C   0  0  0  0  0  0  0  0  0  0  0  0
   -2.2940   -1.5840   -3.5240 O   0  0  0  0  0  0  0  0  0  0  0  0
   -0.2660   -1.8480   -2.6760 O   0  0  0  0  0  0  0  0  0  0  0  0
   -3.0250   -0.3550    0.8240 C   0  0  0  0  0  0  0  0  0  0  0  0
   -1.7790   -0.4680    1.5430 N   0  0  0  0  0  0  0  0  0  0  0  0
   -0.6770    0.3890    1.3010 C   0  0  0  0  0  0  0  0  0  0  0  0
   -0.7430    1.3250    0.4340 O   0  0  0  0  0  0  0  0  0  0  0  0
    0.5400    0.2540    2.0010 N   0  0  0  0  0  0  0  0  0  0  0  0
    1.6450    1.1220    1.7510 C   0  0  1  0  0  0  0  0  0  0  0  0
    2.0430    1.9330    2.9650 C   0  0  0  0  0  0  0  0  0  0  0  0
    2.8470    0.3750    1.2730 C   0  0  0  0  0  0  0  0  0  0  0  0
    3.6590    0.7130    0.2450 N   0  0  0  0  0  0  0  0  0  0  0  0
    4.6290   -0.2080    0.1280 C   0  0  0  0  0  0  0  0  0  0  0  0
    5.7160   -0.2070   -0.8710 C   0  0  0  0  0  0  0  0  0  0  0  0
    6.7140   -1.0500   -1.0800 C   0  0  0  0  0  0  0  0  0  0  0  0
    7.6010   -0.8460   -2.0650 C   0  0  0  0  0  0  0  0  0  0  0  0
    7.4010    0.3080   -2.8510 C   0  0  0  0  0  0  0  0  0  0  0  0
    5.9440    1.0270   -2.1160 S   0  0  0  0  0  0  0  0  0  0  0  0
    4.4010   -1.1080    1.0920 N   0  0  0  0  0  0  0  0  0  0  0  0
    3.3280   -0.7400    1.7680 O   0  0  0  0  0  0  0  0  0  0  0  0
   -4.0840    0.0350    1.4970 C   0  0  0  0  0  0  0  0  0  0  0  0
  1  2  1  0
  2  3  2  0
  2 28  1  0
  3  4  1  0
  4  5  1  0
  4  6  1  0
  6  7  2  3
  6 11  1  0
  7  8  1  0
  8  9  2  0
  8 10  1  0
 11 12  1  0
 11 28  2  0
 12 13  1  0
 13 14  2  0
 13 15  1  0
 15 16  1  0
 16 17  1  1
 16 18  1  0
 18 19  2  0
 18 27  1  0
 19 20  1  0
 20 21  1  0
 20 26  2  0
 21 22  2  0
 21 25  1  0
 22 23  1  0
 23 24  2  0
 24 25  1  0
 26 27  1  0
M  END
