
     RDKit          3D

 28 30  0  0  0  0  0  0  0  0999 V2000
   -3.6440   -0.3740   -1.8300 C   0  0  0  0  0  0  0  0  0  0  0  0
   -4.6640   -0.2480   -0.7440 C   0  0  0  0  0  0  0  0  0  0  0  0
   -4.3370    0.3620    0.4150 C   0  0  0  0  0  0  0  0  0  0  0  0
   -3.0420    0.8570    0.8390 C   0  0  0  0  0  0  0  0  0  0  0  0
   -3.0700    1.8190    1.6880 O   0  0  0  0  0  0  0  0  0  0  0  0
   -1.7680    0.4340    0.4580 N   0  0  0  0  0  0  0  0  0  0  0  0
   -0.5340    1.0230    0.9500 C   0  0  0  0  0  0  0  0  0  0  0  0
   -0.3490    2.0520    1.8310 C   0  0  0  0  0  0  0  0  0  0  0  0
    1.0100    2.2360    1.9750 C   0  0  0  0  0  0  0  0  0  0  0  0
    1.5980    1.2970    1.1620 C   0  0  0  0  0  0  0  0  0  0  0  0
    3.0630    1.1660    1.0330 C   0  0  0  0  0  0  0  0  0  0  0  0
    3.5720    0.2390    0.2430 C   0  0  0  0  0  0  0  0  0  0  0  0
    5.0040    0.0660    0.0790 C   0  0  0  0  0  0  0  0  0  0  0  0
    5.8520    0.7790    0.6700 O   0  0  0  0  0  0  0  0  0  0  0  0
    5.4790   -0.9520   -0.7850 N   0  0  0  0  0  0  0  0  0  0  0  0
    4.5530   -1.8200   -1.4880 C   0  0  0  0  0  0  0  0  0  0  0  0
    6.8950   -1.1430   -0.9770 C   0  0  0  0  0  0  0  0  0  0  0  0
    7.8650   -0.2080   -1.0560 N   0  0  0  0  0  0  0  0  0  0  0  0
    9.0590   -0.8010   -1.2390 C   0  0  0  0  0  0  0  0  0  0  0  0
    8.7940   -2.1170   -1.2690 N   0  0  0  0  0  0  0  0  0  0  0  0
    7.4990   -2.2880   -1.1110 O   0  0  0  0  0  0  0  0  0  0  0  0
    0.6730    0.6180    0.5890 O   0  0  0  0  0  0  0  0  0  0  0  0
   -5.3860    0.4770    1.3560 C   0  0  0  0  0  0  0  0  0  0  0  0
   -6.6430    0.0070    1.1190 C   0  0  0  0  0  0  0  0  0  0  0  0
   -7.6530    0.1640    2.1320 N   0  0  0  0  0  0  0  0  0  0  0  0
   -6.9050   -0.5880   -0.0440 N   0  0  0  0  0  0  0  0  0  0  0  0
   -5.9580   -0.7270   -0.9760 C   0  0  0  0  0  0  0  0  0  0  0  0
   -6.2650   -1.5160   -2.5520 S   0  0  0  0  0  0  0  0  0  0  0  0
  1  2  1  0
  2  3  2  0
  2 27  1  0
  3  4  1  0
  3 23  1  0
  4  5  2  0
  4  6  1  0
  6  7  1  0
  7  8  2  0
  7 22  1  0
  8  9  1  0
  9 10  2  0
 10 11  1  0
 10 22  1  0
 11 12  2  3
 12 13  1  0
 13 14  2  0
 13 15  1  0
 15 16  1  0
 15 17  1  0
 17 18  2  0
 17 21  1  0
 18 19  1  0
 19 20  2  0
 20 21  1  0
 23 24  2  0
 24 25  1  0
 24 26  1  0
 26 27  2  0
 27 28  1  0
M  END
