
     RDKit          3D

 28 30  0  0  0  0  0  0  0  0999 V2000
   -4.9050   -3.0500   -0.7280 C   0  0  0  0  0  0  0  0  0  0  0  0
   -4.1750   -4.3310   -0.6950 C   0  0  0  0  0  0  0  0  0  0  0  0
   -2.9540   -4.5000   -0.2890 C   0  0  0  0  0  0  0  0  0  0  0  0
   -2.2440   -5.7940   -0.2690 C   0  0  0  0  0  0  0  0  0  0  0  0
   -2.6660   -6.9170   -0.6250 O   0  0  0  0  0  0  0  0  0  0  0  0
   -0.9890   -5.4910    0.2380 O   0  0  0  0  0  0  0  0  0  0  0  0
   -0.9070   -4.1700    0.5090 N   0  0  0  0  0  0  0  0  0  0  0  0
   -2.0030   -3.5510    0.2280 C   0  0  0  0  0  0  0  0  0  0  0  0
   -2.1910   -2.1360    0.4420 N   0  0  0  0  0  0  0  0  0  0  0  0
   -1.1150   -1.2150    0.2370 C   0  0  0  0  0  0  0  0  0  0  0  0
    0.0140   -1.6730    0.0230 N   0  0  0  0  0  0  0  0  0  0  0  0
    1.2730   -1.0970   -0.2170 C   0  0  0  0  0  0  0  0  0  0  0  0
    1.8450   -0.6800   -1.2470 N   0  0  0  0  0  0  0  0  0  0  0  0
    3.1160   -0.1480   -1.2030 C   0  0  0  0  0  0  0  0  0  0  0  0
    3.7090    0.2820   -2.2550 O   0  0  0  0  0  0  0  0  0  0  0  0
    3.7160   -0.1130    0.0980 C   0  0  0  0  0  0  0  0  0  0  0  0
    4.8660    0.3030    0.5430 C   0  0  0  0  0  0  0  0  0  0  0  0
    5.9440    0.9050   -0.2780 C   0  0  0  0  0  0  0  0  0  0  0  0
    6.2210    2.3120    0.2040 C   0  0  0  0  0  0  0  0  0  0  0  0
    2.4450   -0.8400    1.1350 S   0  0  0  0  0  0  0  0  0  0  0  0
   -1.4170    0.1580    0.2950 N   0  0  0  0  0  0  0  0  0  0  0  0
   -0.5440    1.1680   -0.2650 C   0  0  0  0  0  0  0  0  0  0  0  0
   -1.1710    2.5050   -0.0760 C   0  0  0  0  0  0  0  0  0  0  0  0
   -2.0610    3.1600   -0.8960 C   0  0  0  0  0  0  0  0  0  0  0  0
   -2.3670    4.3110   -0.3710 O   0  0  0  0  0  0  0  0  0  0  0  0
   -1.7120    4.4290    0.7550 C   0  0  0  0  0  0  0  0  0  0  0  0
   -1.8120    5.6360    1.6510 C   0  0  0  0  0  0  0  0  0  0  0  0
   -0.9710    3.3300    0.9560 N   0  0  0  0  0  0  0  0  0  0  0  0
  1  2  1  0
  2  3  2  3
  3  4  1  0
  3  8  1  0
  4  5  2  0
  4  6  1  0
  6  7  1  0
  7  8  2  0
  8  9  1  0
  9 10  1  0
 10 11  2  3
 10 21  1  0
 11 12  1  0
 12 13  2  0
 12 20  1  0
 13 14  1  0
 14 15  2  0
 14 16  1  0
 16 17  2  3
 16 20  1  0
 17 18  1  0
 18 19  1  0
 21 22  1  0
 22 23  1  0
 23 24  2  0
 23 28  1  0
 24 25  1  0
 25 26  1  0
 26 27  1  0
 26 28  2  0
M  END
