
     RDKit          3D

 28 30  0  0  0  0  0  0  0  0999 V2000
    7.3260   -0.9750   -0.7060 C   0  0  0  0  0  0  0  0  0  0  0  0
    6.6210    0.1310   -0.6190 C   0  0  0  0  0  0  0  0  0  0  0  0
    5.1980    0.0700   -0.3260 C   0  0  0  0  0  0  0  0  0  0  0  0
    4.5530    1.2180   -0.2540 C   0  0  0  0  0  0  0  0  0  0  0  0
    3.1440    1.4850    0.0190 C   0  0  0  0  0  0  0  0  0  0  0  0
    2.5910    0.6850    1.1660 C   0  0  0  0  0  0  0  0  0  0  0  0
    2.5700   -0.7270    0.9300 N   0  0  0  0  0  0  0  0  0  0  0  0
    3.3970   -1.5430    0.3880 C   0  0  0  0  0  0  0  0  0  0  0  0
    3.0750   -2.9450    0.3000 C   0  0  0  0  0  0  0  0  0  0  0  0
    1.9550   -3.3560    0.7720 N   0  0  0  0  0  0  0  0  0  0  0  0
    1.0280   -2.4760    1.3750 C   0  0  0  0  0  0  0  0  0  0  0  0
    1.1420   -2.1580    2.7460 N   0  0  0  0  0  0  0  0  0  0  0  0
    0.0720   -1.9660    0.6550 C   0  0  0  0  0  0  0  0  0  0  0  0
   -1.2270   -0.8270    1.1820 S   0  0  0  0  0  0  0  0  0  0  0  0
   -2.0140   -0.7070   -0.4220 C   0  0  0  0  0  0  0  0  0  0  0  0
   -3.1860    0.1000   -0.6960 N   0  0  0  0  0  0  0  0  0  0  0  0
   -2.9690    1.3550   -1.3310 C   0  0  0  0  0  0  0  0  0  0  0  0
   -4.1810    2.2510   -1.3510 C   0  0  0  0  0  0  0  0  0  0  0  0
   -5.2970    1.7320   -0.6170 N   0  0  0  0  0  0  0  0  0  0  0  0
   -6.0610    2.5670    0.2160 C   0  0  0  0  0  0  0  0  0  0  0  0
   -5.7770    3.7950    0.3360 O   0  0  0  0  0  0  0  0  0  0  0  0
   -7.1500    2.0670    0.9330 O   0  0  0  0  0  0  0  0  0  0  0  0
   -5.6290    0.3420   -0.7450 C   0  0  0  0  0  0  0  0  0  0  0  0
   -4.4370   -0.4630   -0.2930 C   0  0  0  0  0  0  0  0  0  0  0  0
   -1.3540   -1.4370   -1.2020 N   0  0  0  0  0  0  0  0  0  0  0  0
   -0.2550   -2.1350   -0.7510 C   0  0  0  0  0  0  0  0  0  0  0  0
    0.4510   -2.8930   -1.5070 O   0  0  0  0  0  0  0  0  0  0  0  0
    4.6270   -1.1800   -0.1460 O   0  0  0  0  0  0  0  0  0  0  0  0
  1  2  2  0
  2  3  1  0
  3  4  2  0
  3 28  1  0
  4  5  1  0
  5  6  1  0
  6  7  1  0
  7  8  2  0
  8  9  1  0
  8 28  1  0
  9 10  2  3
 10 11  1  0
 11 12  1  0
 11 13  2  3
 13 14  1  0
 13 26  1  0
 14 15  1  0
 15 16  1  0
 15 25  2  0
 16 17  1  0
 16 24  1  0
 17 18  1  0
 18 19  1  0
 19 20  1  0
 19 23  1  0
 20 21  2  0
 20 22  1  0
 23 24  1  0
 25 26  1  0
 26 27  2  0
M  END
