
     RDKit          3D

 28 30  0  0  0  0  0  0  0  0999 V2000
   -6.1050    3.0210   -0.5500 C   0  0  0  0  0  0  0  0  0  0  0  0
   -5.0360    2.1810   -0.5340 O   0  0  0  0  0  0  0  0  0  0  0  0
   -4.9460    0.8070   -0.3660 C   0  0  0  0  0  0  0  0  0  0  0  0
   -5.9820   -0.0100   -0.2390 N   0  0  0  0  0  0  0  0  0  0  0  0
   -5.9290   -1.3360   -0.0930 C   0  0  0  0  0  0  0  0  0  0  0  0
   -4.7160   -1.9630   -0.0650 N   0  0  0  0  0  0  0  0  0  0  0  0
   -3.6110   -1.1610   -0.1890 C   0  0  0  0  0  0  0  0  0  0  0  0
   -3.6840    0.1990   -0.3360 C   0  0  0  0  0  0  0  0  0  0  0  0
   -2.6210    1.2220   -0.4300 C   0  0  0  0  0  0  0  0  0  0  0  0
   -1.5480    0.9060    0.4470 O   0  0  0  0  0  0  0  0  0  0  0  0
   -0.6220   -0.1900    0.4460 C   0  0  0  0  0  0  0  0  0  0  0  0
    0.7390    0.1620    0.7230 C   0  0  0  0  0  0  0  0  0  0  0  0
    0.8330    1.4360    1.1140 O   0  0  0  0  0  0  0  0  0  0  0  0
    1.9570   -0.4810    0.6700 N   0  0  0  0  0  0  0  0  0  0  0  0
    3.2390    0.0450    1.0060 C   0  0  0  0  0  0  0  0  0  0  0  0
    3.4410    1.1660    1.7380 C   0  0  0  0  0  0  0  0  0  0  0  0
    4.7080    1.6160    2.0410 C   0  0  0  0  0  0  0  0  0  0  0  0
    5.8300    0.8980    1.5780 C   0  0  0  0  0  0  0  0  0  0  0  0
    7.0670    1.4360    1.9320 O   0  0  0  0  0  0  0  0  0  0  0  0
    5.5850   -0.1580    0.8870 N   0  0  0  0  0  0  0  0  0  0  0  0
    4.3880   -0.6770    0.5430 C   0  0  0  0  0  0  0  0  0  0  0  0
    4.2090   -2.1440   -0.4610 S   0  0  0  0  0  0  0  0  0  0  0  0
    4.2000   -1.5100   -2.2380 C   0  0  0  0  0  0  0  0  0  0  0  0
    5.4190   -1.0370   -2.5750 C   0  0  0  0  0  0  0  0  0  0  0  0
    6.6180   -0.5870   -2.8860 N   0  0  0  0  0  0  0  0  0  0  0  0
   -1.0740   -1.3920    0.1860 C   0  0  0  0  0  0  0  0  0  0  0  0
   -0.0820   -2.4990    0.2080 C   0  0  0  0  0  0  0  0  0  0  0  0
   -2.4000   -1.8990   -0.1300 N   0  0  0  0  0  0  0  0  0  0  0  0
  1  2  1  0
  2  3  1  0
  3  4  2  0
  3  8  1  0
  4  5  1  0
  5  6  2  0
  6  7  1  0
  7  8  2  0
  7 28  1  0
  8  9  1  0
  9 10  1  0
 10 11  1  0
 11 12  1  0
 11 26  2  0
 12 13  2  0
 12 14  1  0
 14 15  1  0
 15 16  2  0
 15 21  1  0
 16 17  1  0
 17 18  2  0
 18 19  1  0
 18 20  1  0
 20 21  2  0
 21 22  1  0
 22 23  1  0
 23 24  1  0
 24 25  3  0
 26 27  1  0
 26 28  1  0
M  END
