
     RDKit          3D

 28 30  0  0  0  0  0  0  0  0999 V2000
    9.2320    0.3880   -0.4690 C   0  0  0  0  0  0  0  0  0  0  0  0
    7.7840    0.0610   -0.5050 C   0  0  0  0  0  0  0  0  0  0  0  0
    6.9420    0.5330    0.3940 C   0  0  0  0  0  0  0  0  0  0  0  0
    5.5370    0.1900    0.3220 C   0  0  0  0  0  0  0  0  0  0  0  0
    5.1250   -0.5530   -0.5900 O   0  0  0  0  0  0  0  0  0  0  0  0
    4.6440    0.6950    1.2830 N   0  0  0  0  0  0  0  0  0  0  0  0
    3.2260    0.3920    1.2710 C   0  0  0  0  0  0  0  0  0  0  0  0
    2.2560    0.5920    1.8290 N   0  0  0  0  0  0  0  0  0  0  0  0
    1.0300    0.1550    1.5770 C   0  0  0  0  0  0  0  0  0  0  0  0
    0.8960   -0.6390    0.5130 C   0  0  0  0  0  0  0  0  0  0  0  0
   -0.2630   -1.3050   -0.0760 C   0  0  0  0  0  0  0  0  0  0  0  0
   -0.1280   -2.0270   -1.1200 O   0  0  0  0  0  0  0  0  0  0  0  0
   -1.5150   -1.1780    0.4680 N   0  0  0  0  0  0  0  0  0  0  0  0
   -2.3990   -0.2720    0.3860 C   0  0  0  0  0  0  0  0  0  0  0  0
   -2.1280    0.8860   -0.4100 N   0  0  0  0  0  0  0  0  0  0  0  0
   -1.4790    0.8490   -1.6760 C   0  0  0  0  0  0  0  0  0  0  0  0
   -2.2020   -0.0510   -2.6460 C   0  0  0  0  0  0  0  0  0  0  0  0
   -1.8460   -0.3040   -3.9510 C   0  0  0  0  0  0  0  0  0  0  0  0
   -2.7940   -1.1820   -4.4530 C   0  0  0  0  0  0  0  0  0  0  0  0
   -3.6540   -1.4080   -3.4480 N   0  0  0  0  0  0  0  0  0  0  0  0
   -3.2910   -0.7330   -2.3870 O   0  0  0  0  0  0  0  0  0  0  0  0
   -3.6490   -0.3590    1.0580 N   0  0  0  0  0  0  0  0  0  0  0  0
   -4.2530   -1.6180    1.3600 C   0  0  0  0  0  0  0  0  0  0  0  0
   -5.0700   -1.5540    2.6290 C   0  0  0  0  0  0  0  0  0  0  0  0
   -5.9090   -0.4840    2.7160 O   0  0  0  0  0  0  0  0  0  0  0  0
   -5.7830    0.4390    1.6960 C   0  0  0  0  0  0  0  0  0  0  0  0
   -4.3240    0.8380    1.4460 C   0  0  0  0  0  0  0  0  0  0  0  0
    2.5980   -0.7370   -0.1160 S   0  0  0  0  0  0  0  0  0  0  0  0
  1  2  1  0
  2  3  2  3
  3  4  1  0
  4  5  2  0
  4  6  1  0
  6  7  1  0
  7  8  2  0
  7 28  1  0
  8  9  1  0
  9 10  2  0
 10 11  1  0
 10 28  1  0
 11 12  2  0
 11 13  1  0
 13 14  2  3
 14 15  1  0
 14 22  1  0
 15 16  1  0
 16 17  1  0
 17 18  2  0
 17 21  1  0
 18 19  1  0
 19 20  2  0
 20 21  1  0
 22 23  1  0
 22 27  1  0
 23 24  1  0
 24 25  1  0
 25 26  1  0
 26 27  1  0
M  END
