
     RDKit          3D

 28 30  0  0  0  0  0  0  0  0999 V2000
   -2.1670    0.8330    3.5530 C   0  0  0  0  0  0  0  0  0  0  0  0
   -1.5070    0.5610    2.3380 O   0  0  0  0  0  0  0  0  0  0  0  0
   -2.2200    0.4060    1.1650 C   0  0  0  0  0  0  0  0  0  0  0  0
   -3.5910    0.5070    1.1290 C   0  0  0  0  0  0  0  0  0  0  0  0
   -4.2690    0.3450   -0.0610 C   0  0  0  0  0  0  0  0  0  0  0  0
   -5.6560    0.4500   -0.0840 O   0  0  0  0  0  0  0  0  0  0  0  0
   -6.4200    0.7160    1.0570 C   0  0  0  0  0  0  0  0  0  0  0  0
   -3.5910    0.0800   -1.2300 C   0  0  0  0  0  0  0  0  0  0  0  0
   -4.2670   -0.0820   -2.4220 O   0  0  0  0  0  0  0  0  0  0  0  0
   -3.5520   -0.3530   -3.6130 C   0  0  0  0  0  0  0  0  0  0  0  0
   -2.1930   -0.0180   -1.1670 C   0  0  0  0  0  0  0  0  0  0  0  0
   -1.4860    0.1370   -0.0040 C   0  0  0  0  0  0  0  0  0  0  0  0
   -0.0870    0.0490    0.1170 N   0  0  0  0  0  0  0  0  0  0  0  0
    0.8360   -0.2120   -0.9230 C   0  0  0  0  0  0  0  0  0  0  0  0
    0.3950   -0.3840   -2.0680 O   0  0  0  0  0  0  0  0  0  0  0  0
    2.2290   -0.2810   -0.7000 N   0  0  0  0  0  0  0  0  0  0  0  0
    3.2350   -0.5410   -1.7010 C   0  0  0  0  0  0  0  0  0  0  0  0
    2.9370   -0.7520   -2.9960 C   0  0  0  0  0  0  0  0  0  0  0  0
    3.9540   -0.9910   -3.8800 C   0  0  0  0  0  0  0  0  0  0  0  0
    5.4250   -0.9180   -2.8360 S   0  0  0  0  0  0  0  0  0  0  0  0
    4.5420   -0.5770   -1.3340 C   0  0  0  0  0  0  0  0  0  0  0  0
    5.1910   -0.3920   -0.0280 C   0  0  0  0  0  0  0  0  0  0  0  0
    4.6850   -0.1350    1.1770 N   0  0  0  0  0  0  0  0  0  0  0  0
    5.6230   -0.0410    2.1030 N   0  0  0  0  0  0  0  0  0  0  0  0
    6.7920   -0.2470    1.4700 C   0  0  0  0  0  0  0  0  0  0  0  0
    8.0920   -0.2390    2.0820 C   0  0  0  0  0  0  0  0  0  0  0  0
    9.1350   -0.2150    2.5630 N   0  0  0  0  0  0  0  0  0  0  0  0
    6.5250   -0.4610    0.1700 N   0  0  0  0  0  0  0  0  0  0  0  0
  1  2  1  0
  2  3  1  0
  3  4  2  0
  3 12  1  0
  4  5  1  0
  5  6  1  0
  5  8  2  0
  6  7  1  0
  8  9  1  0
  8 11  1  0
  9 10  1  0
 11 12  2  0
 12 13  1  0
 13 14  1  0
 14 15  2  0
 14 16  1  0
 16 17  1  0
 17 18  1  0
 17 21  2  0
 18 19  2  0
 19 20  1  0
 20 21  1  0
 21 22  1  0
 22 23  2  0
 22 28  1  0
 23 24  1  0
 24 25  1  0
 25 26  1  0
 25 28  2  0
 26 27  3  0
M  END
