
     RDKit          3D

 23 26  0  0  0  0  0  0  0  0999 V2000
   -7.9440   -0.3560    0.8120 C   0  0  0  0  0  0  0  0  0  0  0  0
   -6.4610   -0.2440    0.6570 C   0  0  0  0  0  0  0  0  0  0  0  0
   -5.5720   -0.0620    1.6970 C   0  0  0  0  0  0  0  0  0  0  0  0
   -4.2770   -0.0020    1.1920 C   0  0  0  0  0  0  0  0  0  0  0  0
   -3.0430    0.1640    1.7840 C   0  0  0  0  0  0  0  0  0  0  0  0
   -1.9350    0.1730    0.9530 C   0  0  0  0  0  0  0  0  0  0  0  0
   -2.0550    0.0240   -0.4120 C   0  0  0  0  0  0  0  0  0  0  0  0
   -0.9100    0.0430   -1.2580 N   0  0  0  0  0  0  0  0  0  0  0  0
    0.4080    0.2510   -0.7690 C   0  0  2  0  0  0  0  0  0  0  0  0
    0.6860    1.5990   -0.1840 C   0  0  0  0  0  0  0  0  0  0  0  0
    1.7820    1.4320    0.7140 O   0  0  0  0  0  0  0  0  0  0  0  0
    2.8810    0.7450    0.1630 C   0  0  0  0  0  0  0  0  0  0  0  0
    4.1100    0.7890    0.8230 C   0  0  0  0  0  0  0  0  0  0  0  0
    5.2060    0.1360    0.3240 C   0  0  0  0  0  0  0  0  0  0  0  0
    6.5150    0.1910    1.0380 C   0  0  0  0  0  0  0  0  0  0  0  0
    5.1310   -0.5850   -0.8440 C   0  0  0  0  0  0  0  0  0  0  0  0
    6.2790   -1.2650   -1.3610 N   0  0  0  0  0  0  0  0  0  0  0  0
    3.9150   -0.6220   -1.4860 C   0  0  0  0  0  0  0  0  0  0  0  0
    2.7900    0.0270   -1.0080 C   0  0  0  0  0  0  0  0  0  0  0  0
    1.4880   -0.0550   -1.7610 C   0  0  0  0  0  0  0  0  0  0  0  0
   -3.2960   -0.1340   -0.9090 N   0  0  0  0  0  0  0  0  0  0  0  0
   -4.4180   -0.1540   -0.1710 C   0  0  0  0  0  0  0  0  0  0  0  0
   -5.7340   -0.2970   -0.4670 N   0  0  0  0  0  0  0  0  0  0  0  0
  1  2  1  0
  2  3  2  0
  2 23  1  0
  3  4  1  0
  4  5  2  0
  4 22  1  0
  5  6  1  0
  6  7  2  0
  7  8  1  0
  7 21  1  0
  9  8  1  6
  9 10  1  0
  9 20  1  0
 10 11  1  0
 11 12  1  0
 12 13  2  0
 12 19  1  0
 13 14  1  0
 14 15  1  0
 14 16  2  0
 16 17  1  0
 16 18  1  0
 18 19  2  0
 19 20  1  0
 21 22  2  0
 22 23  1  0
M  END
