
     RDKit          3D

 23 26  0  0  0  0  0  0  0  0999 V2000
   -2.7080    3.3810   -1.9240 N   0  0  0  0  0  0  0  0  0  0  0  0
   -2.8410    2.1470   -1.2040 C   0  0  0  0  0  0  0  0  0  0  0  0
   -4.1020    1.6200   -0.9310 C   0  0  0  0  0  0  0  0  0  0  0  0
   -4.2860    0.4400   -0.2490 C   0  0  0  0  0  0  0  0  0  0  0  0
   -3.1870   -0.2680    0.1930 C   0  0  0  0  0  0  0  0  0  0  0  0
   -1.9300    0.2650   -0.0860 C   0  0  0  0  0  0  0  0  0  0  0  0
   -1.7440    1.4440   -0.7650 C   0  0  0  0  0  0  0  0  0  0  0  0
   -0.6410   -0.3570    0.2600 C   0  0  0  0  0  0  0  0  0  0  0  0
    0.3910   -0.1270   -0.5080 C   0  0  0  0  0  0  0  0  0  0  0  0
    1.7150   -0.7060   -0.2320 C   0  0  0  0  0  0  0  0  0  0  0  0
    1.8310   -1.9750    0.1450 N   0  0  0  0  0  0  0  0  0  0  0  0
    3.0290   -2.5120    0.4090 C   0  0  0  0  0  0  0  0  0  0  0  0
    4.1750   -1.7390    0.2920 C   0  0  0  0  0  0  0  0  0  0  0  0
    4.0530   -0.4210   -0.0990 C   0  0  0  0  0  0  0  0  0  0  0  0
    2.8000    0.1080   -0.3670 C   0  0  0  0  0  0  0  0  0  0  0  0
    2.9800    1.5190   -0.7560 C   0  0  0  0  0  0  0  0  0  0  0  0
    4.2630    1.8110   -0.7210 C   0  0  0  0  0  0  0  0  0  0  0  0
    5.0770    0.6290   -0.3040 C   0  0  0  0  0  0  0  0  0  0  0  0
   -0.4550   -1.2320    1.3840 N   0  0  0  0  0  0  0  0  0  0  0  0
   -1.3740   -2.1810    1.9100 C   0  0  0  0  0  0  0  0  0  0  0  0
   -0.8240   -3.2510    2.3820 O   0  0  0  0  0  0  0  0  0  0  0  0
   -2.8380   -2.1070    1.9860 C   0  0  0  0  0  0  0  0  0  0  0  0
   -3.5110   -1.4500    0.9040 N   0  0  0  0  0  0  0  0  0  0  0  0
  1  2  1  0
  2  3  2  0
  2  7  1  0
  3  4  1  0
  4  5  2  0
  5  6  1  0
  5 23  1  0
  6  7  2  0
  6  8  1  0
  8  9  2  3
  8 19  1  0
  9 10  1  0
 10 11  2  0
 10 15  1  0
 11 12  1  0
 12 13  2  0
 13 14  1  0
 14 15  2  0
 14 18  1  0
 15 16  1  0
 16 17  2  0
 17 18  1  0
 19 20  1  0
 20 21  2  0
 20 22  1  0
 22 23  1  0
M  END
