
     RDKit          3D

 23 26  0  0  0  0  0  0  0  0999 V2000
    6.4510    1.1510   -0.5690 C   0  0  0  0  0  0  0  0  0  0  0  0
    5.8020    0.9740    0.8030 C   0  0  0  0  0  0  0  0  0  0  0  0
    4.3660    0.5690    0.6150 C   0  0  0  0  0  0  0  0  0  0  0  0
    4.0430   -0.7220    0.2550 C   0  0  0  0  0  0  0  0  0  0  0  0
    5.0870   -1.6640    0.0780 N   0  0  0  0  0  0  0  0  0  0  0  0
    2.7410   -1.0200    0.0930 N   0  0  0  0  0  0  0  0  0  0  0  0
    1.7630   -0.1130    0.2690 C   0  0  0  0  0  0  0  0  0  0  0  0
    0.3630   -0.4620    0.0830 C   0  0  0  0  0  0  0  0  0  0  0  0
    0.0570   -1.7510   -0.2890 C   0  0  0  0  0  0  0  0  0  0  0  0
   -1.2540   -2.1370   -0.4920 C   0  0  0  0  0  0  0  0  0  0  0  0
   -2.2270   -1.1810   -0.3050 C   0  0  0  0  0  0  0  0  0  0  0  0
   -3.5430   -1.5490   -0.5050 C   0  0  0  0  0  0  0  0  0  0  0  0
   -4.5640   -0.6450   -0.3380 C   0  0  0  0  0  0  0  0  0  0  0  0
   -4.2620    0.6450    0.0360 C   0  0  0  0  0  0  0  0  0  0  0  0
   -2.9510    1.0230    0.2380 C   0  0  0  0  0  0  0  0  0  0  0  0
   -1.9190    0.1170    0.0700 C   0  0  0  0  0  0  0  0  0  0  0  0
   -0.6170    0.4370    0.2540 N   0  0  0  0  0  0  0  0  0  0  0  0
   -5.5490    1.3780    0.1470 C   0  0  0  0  0  0  0  0  0  0  0  0
   -6.4340    0.6410   -0.8220 C   0  0  0  0  0  0  0  0  0  0  0  0
   -6.0290   -0.8070   -0.5050 C   0  0  0  0  0  0  0  0  0  0  0  0
    2.1220    1.1310    0.6190 N   0  0  0  0  0  0  0  0  0  0  0  0
    3.3840    1.5320    0.8060 C   0  0  0  0  0  0  0  0  0  0  0  0
    3.6950    2.7020    1.1340 O   0  0  0  0  0  0  0  0  0  0  0  0
  1  2  1  0
  2  3  1  0
  3  4  2  0
  3 22  1  0
  4  5  1  0
  4  6  1  0
  6  7  2  0
  7  8  1  0
  7 21  1  0
  8  9  2  0
  8 17  1  0
  9 10  1  0
 10 11  2  0
 11 12  1  0
 11 16  1  0
 12 13  2  0
 13 14  1  0
 13 20  1  0
 14 15  2  0
 14 18  1  0
 15 16  1  0
 16 17  2  0
 18 19  1  0
 19 20  1  0
 21 22  1  0
 22 23  2  0
M  END
