
     RDKit          3D

 23 26  0  0  0  0  0  0  0  0999 V2000
   -2.1010   -2.9930    0.2950 N   0  0  0  0  0  0  0  0  0  0  0  0
   -1.9440   -1.6170    0.0310 C   0  0  0  0  0  0  0  0  0  0  0  0
   -0.6600   -1.0640   -0.0570 C   0  0  0  0  0  0  0  0  0  0  0  0
   -0.5050    0.2670   -0.3130 C   0  0  0  0  0  0  0  0  0  0  0  0
    0.8240    0.8800   -0.4100 C   0  0  0  0  0  0  0  0  0  0  0  0
    0.8990    2.0920   -0.7190 O   0  0  0  0  0  0  0  0  0  0  0  0
    2.0030    0.1780   -0.1740 N   0  0  0  0  0  0  0  0  0  0  0  0
    3.3350    0.6650   -0.2380 C   0  0  0  0  0  0  0  0  0  0  0  0
    3.6910    1.9490   -0.5540 C   0  0  0  0  0  0  0  0  0  0  0  0
    5.0400    2.3530   -0.5960 C   0  0  0  0  0  0  0  0  0  0  0  0
    6.0460    1.4570   -0.3170 C   0  0  0  0  0  0  0  0  0  0  0  0
    5.7210    0.1480    0.0060 C   0  0  0  0  0  0  0  0  0  0  0  0
    6.4910   -0.9230    0.3190 N   0  0  0  0  0  0  0  0  0  0  0  0
    5.6930   -1.9520    0.5480 N   0  0  0  0  0  0  0  0  0  0  0  0
    4.4010   -1.5520    0.3850 C   0  0  0  0  0  0  0  0  0  0  0  0
    4.4010   -0.2010    0.0350 C   0  0  0  0  0  0  0  0  0  0  0  0
   -1.6310    1.0780   -0.4870 C   0  0  0  0  0  0  0  0  0  0  0  0
   -2.8840    0.5190   -0.3980 C   0  0  0  0  0  0  0  0  0  0  0  0
   -3.0580   -0.8210   -0.1400 C   0  0  0  0  0  0  0  0  0  0  0  0
   -4.4510   -1.3250   -0.0640 C   0  0  0  0  0  0  0  0  0  0  0  0
   -5.2220   -0.4010    0.8390 C   0  0  0  0  0  0  0  0  0  0  0  0
   -5.0290    1.0480    0.5630 C   0  0  0  0  0  0  0  0  0  0  0  0
   -4.0860    1.3570   -0.5780 C   0  0  0  0  0  0  0  0  0  0  0  0
  1  2  1  0
  2  3  2  0
  2 19  1  0
  3  4  1  0
  4  5  1  0
  4 17  2  0
  5  6  2  0
  5  7  1  0
  7  8  1  0
  8  9  2  0
  8 16  1  0
  9 10  1  0
 10 11  2  0
 11 12  1  0
 12 13  1  0
 12 16  2  0
 13 14  1  0
 14 15  2  0
 15 16  1  0
 17 18  1  0
 18 19  2  0
 18 23  1  0
 19 20  1  0
 20 21  1  0
 21 22  1  0
 22 23  1  0
M  END
