
     RDKit          3D

 23 26  0  0  0  0  0  0  0  0999 V2000
    2.0090    2.2800   -1.4480 O   0  0  0  0  0  0  0  0  0  0  0  0
    2.2430    1.5970   -0.2590 C   0  0  0  0  0  0  0  0  0  0  0  0
    2.7280    2.3220    0.8380 C   0  0  0  0  0  0  0  0  0  0  0  0
    2.9820    1.7070    2.0400 C   0  0  0  0  0  0  0  0  0  0  0  0
    2.7410    0.3540    2.1260 C   0  0  0  0  0  0  0  0  0  0  0  0
    2.2650   -0.3640    1.0570 C   0  0  0  0  0  0  0  0  0  0  0  0
    2.0030    0.2490   -0.1700 C   0  0  0  0  0  0  0  0  0  0  0  0
    1.4850   -0.5220   -1.2900 C   0  0  0  0  0  0  0  0  0  0  0  0
    1.9390   -0.5510   -2.5920 C   0  0  0  0  0  0  0  0  0  0  0  0
    1.1890   -1.3910   -3.3110 N   0  0  0  0  0  0  0  0  0  0  0  0
    0.2760   -1.8980   -2.5180 N   0  0  0  0  0  0  0  0  0  0  0  0
    0.4050   -1.4000   -1.2530 C   0  0  0  0  0  0  0  0  0  0  0  0
   -0.4370   -1.7940   -0.1540 C   0  0  0  0  0  0  0  0  0  0  0  0
   -0.3250   -3.1130    0.3350 C   0  0  0  0  0  0  0  0  0  0  0  0
   -1.0790   -3.5610    1.3940 C   0  0  0  0  0  0  0  0  0  0  0  0
   -1.9650   -2.7010    1.9940 C   0  0  0  0  0  0  0  0  0  0  0  0
   -2.1010   -1.4070    1.5430 C   0  0  0  0  0  0  0  0  0  0  0  0
   -1.3170   -0.9640    0.4520 C   0  0  0  0  0  0  0  0  0  0  0  0
   -1.5250    0.3590    0.0020 N   0  0  0  0  0  0  0  0  0  0  0  0
   -2.0810    1.4610    0.8240 C   0  0  0  0  0  0  0  0  0  0  0  0
   -3.1080    1.9950   -0.1140 C   0  0  0  0  0  0  0  0  0  0  0  0
   -2.6530    1.6550   -1.4410 N   0  0  0  0  0  0  0  0  0  0  0  0
   -1.3330    1.0080   -1.2770 C   0  0  0  0  0  0  0  0  0  0  0  0
  1  2  1  0
  2  3  2  0
  2  7  1  0
  3  4  1  0
  4  5  2  0
  5  6  1  0
  6  7  2  0
  7  8  1  0
  8  9  2  0
  8 12  1  0
  9 10  1  0
 10 11  1  0
 11 12  2  0
 12 13  1  0
 13 14  2  0
 13 18  1  0
 14 15  1  0
 15 16  2  0
 16 17  1  0
 17 18  2  0
 18 19  1  0
 19 20  1  0
 19 23  1  0
 20 21  1  0
 21 22  1  0
 22 23  1  0
M  END
