
     RDKit          3D

 23 26  0  0  0  0  0  0  0  0999 V2000
   -0.8850    3.5380    0.5370 C   0  0  0  0  0  0  0  0  0  0  0  0
   -0.4300    2.7190    1.7090 C   0  0  0  0  0  0  0  0  0  0  0  0
    0.1410    1.4540    1.3190 N   0  0  0  0  0  0  0  0  0  0  0  0
   -0.6580    0.5470    0.5750 C   0  0  0  0  0  0  0  0  0  0  0  0
   -2.0570    0.7420    0.5640 C   0  0  0  0  0  0  0  0  0  0  0  0
   -2.8950   -0.1800   -0.0060 C   0  0  0  0  0  0  0  0  0  0  0  0
   -4.2590    0.0230   -0.0080 C   0  0  0  0  0  0  0  0  0  0  0  0
   -5.1030   -0.9160   -0.5860 C   0  0  0  0  0  0  0  0  0  0  0  0
   -4.5450   -2.0370   -1.1480 C   0  0  0  0  0  0  0  0  0  0  0  0
   -3.1730   -2.2220   -1.1350 C   0  0  0  0  0  0  0  0  0  0  0  0
   -2.3140   -1.2970   -0.5630 C   0  0  0  0  0  0  0  0  0  0  0  0
   -0.9550   -1.4990   -0.5630 C   0  0  0  0  0  0  0  0  0  0  0  0
   -0.0800   -0.5540    0.0190 C   0  0  0  0  0  0  0  0  0  0  0  0
    1.3510   -0.7450   -0.1530 C   0  0  0  0  0  0  0  0  0  0  0  0
    1.8970   -2.0400   -0.1630 C   0  0  0  0  0  0  0  0  0  0  0  0
    3.2460   -2.2850   -0.2500 C   0  0  0  0  0  0  0  0  0  0  0  0
    4.1100   -1.2180   -0.3320 C   0  0  0  0  0  0  0  0  0  0  0  0
    5.4770   -1.0760   -0.4270 C   0  0  0  0  0  0  0  0  0  0  0  0
    6.2670   -2.0400   -0.4600 O   0  0  0  0  0  0  0  0  0  0  0  0
    5.7320    0.2450   -0.4730 N   0  0  0  0  0  0  0  0  0  0  0  0
    4.5990    0.9460   -0.4120 N   0  0  0  0  0  0  0  0  0  0  0  0
    3.5510    0.1190   -0.3230 C   0  0  0  0  0  0  0  0  0  0  0  0
    2.2080    0.2560   -0.2350 N   0  0  0  0  0  0  0  0  0  0  0  0
  1  2  1  0
  2  3  1  0
  3  4  1  0
  4  5  2  0
  4 13  1  0
  5  6  1  0
  6  7  2  0
  6 11  1  0
  7  8  1  0
  8  9  2  0
  9 10  1  0
 10 11  2  0
 11 12  1  0
 12 13  2  0
 13 14  1  0
 14 15  2  0
 14 23  1  0
 15 16  1  0
 16 17  2  0
 17 18  1  0
 17 22  1  0
 18 19  2  0
 18 20  1  0
 20 21  1  0
 21 22  2  0
 22 23  1  0
M  END
