
     RDKit          3D

 23 26  0  0  0  0  0  0  0  0999 V2000
   -1.5000   -1.3630    0.5480 N   0  0  0  0  0  0  0  0  0  0  0  0
   -1.3050   -0.0560    0.0370 C   0  0  0  0  0  0  0  0  0  0  0  0
   -2.3900    0.7710   -0.1440 C   0  0  0  0  0  0  0  0  0  0  0  0
   -3.7380    0.2810    0.1970 C   0  0  0  0  0  0  0  0  0  0  0  0
   -4.8720    1.0380    0.0490 C   0  0  0  0  0  0  0  0  0  0  0  0
   -6.1350    0.5220    0.3900 C   0  0  0  0  0  0  0  0  0  0  0  0
   -6.2440   -0.7440    0.8750 C   0  0  0  0  0  0  0  0  0  0  0  0
   -5.0820   -1.4830    1.0140 C   0  0  0  0  0  0  0  0  0  0  0  0
   -3.8820   -0.9650    0.6790 N   0  0  0  0  0  0  0  0  0  0  0  0
   -2.1470    2.0270   -0.6410 C   0  0  0  0  0  0  0  0  0  0  0  0
   -0.8780    2.4600   -0.9520 C   0  0  0  0  0  0  0  0  0  0  0  0
    0.1230    1.6000   -0.7490 N   0  0  0  0  0  0  0  0  0  0  0  0
    0.0060    0.3510   -0.2690 C   0  0  0  0  0  0  0  0  0  0  0  0
    1.0750   -0.5410   -0.0520 N   0  0  0  0  0  0  0  0  0  0  0  0
    2.4460   -0.3320   -0.2990 C   0  0  0  0  0  0  0  0  0  0  0  0
    2.9190    0.7620   -0.9630 C   0  0  0  0  0  0  0  0  0  0  0  0
    4.2930    0.9100   -1.1570 C   0  0  0  0  0  0  0  0  0  0  0  0
    5.1770   -0.0320   -0.6880 C   0  0  0  0  0  0  0  0  0  0  0  0
    6.5650   -0.1430   -0.7350 C   0  0  0  0  0  0  0  0  0  0  0  0
    6.8690   -1.3160   -0.0870 C   0  0  0  0  0  0  0  0  0  0  0  0
    5.7660   -1.8760    0.3210 O   0  0  0  0  0  0  0  0  0  0  0  0
    4.7290   -1.1450   -0.0150 C   0  0  0  0  0  0  0  0  0  0  0  0
    3.3800   -1.2790    0.1690 C   0  0  0  0  0  0  0  0  0  0  0  0
  1  2  1  0
  2  3  2  0
  2 13  1  0
  3  4  1  0
  3 10  1  0
  4  5  2  0
  4  9  1  0
  5  6  1  0
  6  7  2  0
  7  8  1  0
  8  9  2  0
 10 11  2  0
 11 12  1  0
 12 13  2  0
 13 14  1  0
 14 15  1  0
 15 16  2  0
 15 23  1  0
 16 17  1  0
 17 18  2  0
 18 19  1  0
 18 22  1  0
 19 20  2  0
 20 21  1  0
 21 22  1  0
 22 23  2  0
M  END
