
     RDKit          3D

 28 30  0  0  0  0  0  0  0  0999 V2000
    7.6120   -0.7380    2.1530 C   0  0  0  0  0  0  0  0  0  0  0  0
    6.1030   -0.6790    2.1300 C   0  0  0  0  0  0  0  0  0  0  0  0
    5.6120   -0.4580    0.8210 O   0  0  0  0  0  0  0  0  0  0  0  0
    4.1950   -0.3890    0.6900 C   0  0  0  0  0  0  0  0  0  0  0  0
    3.4770   -0.5240    1.6990 O   0  0  0  0  0  0  0  0  0  0  0  0
    3.6260   -0.1720   -0.5680 N   0  0  0  0  0  0  0  0  0  0  0  0
    2.2650   -0.0800   -0.8690 C   0  0  0  0  0  0  0  0  0  0  0  0
    1.2760   -0.2060    0.0580 C   0  0  0  0  0  0  0  0  0  0  0  0
   -0.0810   -0.1100   -0.2800 C   0  0  0  0  0  0  0  0  0  0  0  0
   -1.1390   -0.2460    0.7170 C   0  0  0  0  0  0  0  0  0  0  0  0
   -0.9220   -0.4740    2.0440 C   0  0  0  0  0  0  0  0  0  0  0  0
   -1.9830   -0.5960    2.9550 C   0  0  0  0  0  0  0  0  0  0  0  0
   -3.2790   -0.4920    2.5440 C   0  0  0  0  0  0  0  0  0  0  0  0
   -4.4090   -0.6210    3.5060 C   0  0  0  0  0  0  0  0  0  0  0  0
   -3.5230   -0.2600    1.1980 C   0  0  0  0  0  0  0  0  0  0  0  0
   -4.8760   -0.1530    0.7700 N   0  0  0  0  0  0  0  0  0  0  0  0
   -5.2680    0.1680   -0.8890 S   0  0  1  0  0  0  0  0  0  0  0  0
   -4.6070    1.7370   -1.3870 C   0  0  0  0  0  0  0  0  0  0  0  0
   -4.6690   -0.8840   -1.7850 O   0  0  0  0  0  0  0  0  0  0  0  0
   -6.7530    0.1920   -1.0880 O   0  0  0  0  0  0  0  0  0  0  0  0
   -2.4740   -0.1410    0.3060 C   0  0  0  0  0  0  0  0  0  0  0  0
   -0.3840    0.1160   -1.5780 N   0  0  0  0  0  0  0  0  0  0  0  0
    0.5380    0.2440   -2.5080 N   0  0  0  0  0  0  0  0  0  0  0  0
    0.4200    0.4700   -3.8400 C   0  0  0  0  0  0  0  0  0  0  0  0
   -0.8150    0.6410   -4.6460 C   0  0  0  0  0  0  0  0  0  0  0  0
    1.6760    0.5110   -4.3060 N   0  0  0  0  0  0  0  0  0  0  0  0
    2.5430    0.3180   -3.3000 N   0  0  0  0  0  0  0  0  0  0  0  0
    1.8400    0.1530   -2.1890 C   0  0  0  0  0  0  0  0  0  0  0  0
  1  2  1  0
  2  3  1  0
  3  4  1  0
  4  5  2  0
  4  6  1  0
  6  7  1  0
  7  8  2  0
  7 28  1  0
  8  9  1  0
  9 10  1  0
  9 22  2  0
 10 11  2  0
 10 21  1  0
 11 12  1  0
 12 13  2  0
 13 14  1  0
 13 15  1  0
 15 16  1  0
 15 21  2  0
 16 17  1  0
 17 18  1  6
 17 19  2  0
 17 20  2  0
 22 23  1  0
 23 24  1  0
 23 28  2  0
 24 25  1  0
 24 26  2  0
 26 27  1  0
 27 28  1  0
M  CHG  1  23   1
M  END
