
     RDKit          3D

 23 25  0  0  0  0  0  0  0  0999 V2000
   -5.5590    1.7760   -0.7840 C   0  0  0  0  0  0  0  0  0  0  0  0
   -4.9350    0.5140   -0.3280 C   0  0  0  0  0  0  0  0  0  0  0  0
   -3.6610    0.4760    0.0250 C   0  0  0  0  0  0  0  0  0  0  0  0
   -2.9270    1.7300   -0.0640 C   0  0  0  0  0  0  0  0  0  0  0  0
   -1.6170    1.8350   -0.2040 C   0  0  0  0  0  0  0  0  0  0  0  0
   -0.5130    0.9100   -0.3140 C   0  0  0  0  0  0  0  0  0  0  0  0
   -0.6970   -0.4030    0.3120 C   0  0  0  0  0  0  0  0  0  0  0  0
    0.5380   -0.9510    0.5980 C   0  0  0  0  0  0  0  0  0  0  0  0
    1.7290   -0.2330    0.2770 N   0  0  0  0  0  0  0  0  0  0  0  0
    2.8340   -0.7850   -0.0150 C   0  0  0  0  0  0  0  0  0  0  0  0
    3.9910    0.0420   -0.3270 C   0  0  0  0  0  0  0  0  0  0  0  0
    3.9120    1.4230   -0.3120 C   0  0  0  0  0  0  0  0  0  0  0  0
    4.9920    2.2280   -0.6040 C   0  0  0  0  0  0  0  0  0  0  0  0
    6.1820    1.6210   -0.9190 C   0  0  0  0  0  0  0  0  0  0  0  0
    6.2730    0.2470   -0.9360 C   0  0  0  0  0  0  0  0  0  0  0  0
    7.3870   -0.2900   -1.2310 O   0  0  0  0  0  0  0  0  0  0  0  0
    5.1920   -0.4870   -0.6450 N   0  0  0  0  0  0  0  0  0  0  0  0
    0.6610   -2.1890    1.1940 C   0  0  0  0  0  0  0  0  0  0  0  0
   -0.4700   -2.9070    1.5160 C   0  0  0  0  0  0  0  0  0  0  0  0
   -1.7320   -2.3910    1.2440 C   0  0  0  0  0  0  0  0  0  0  0  0
   -2.9280   -3.0880    1.5550 N   0  0  0  0  0  0  0  0  0  0  0  0
   -1.8080   -1.1470    0.6470 C   0  0  0  0  0  0  0  0  0  0  0  0
   -3.1640   -0.7840    0.4460 N   0  0  0  0  0  0  0  0  0  0  0  0
  1  2  1  0
  2  3  2  3
  3  4  1  0
  3 23  1  0
  4  5  2  0
  5  6  1  0
  6  7  1  0
  7  8  2  0
  7 22  1  0
  8  9  1  0
  8 18  1  0
  9 10  2  3
 10 11  1  0
 11 12  2  0
 11 17  1  0
 12 13  1  0
 13 14  2  0
 14 15  1  0
 15 16  2  0
 15 17  1  0
 18 19  2  0
 19 20  1  0
 20 21  1  0
 20 22  2  0
 22 23  1  0
M  END
