
     RDKit          3D

 23 26  0  0  0  0  0  0  0  0999 V2000
    4.6130   -1.2720    2.5940 N   0  0  0  0  0  0  0  0  0  0  0  0
    4.7510    0.0100    2.0250 C   0  0  0  0  0  0  0  0  0  0  0  0
    5.8570    0.8610    2.0930 C   0  0  0  0  0  0  0  0  0  0  0  0
    5.4890    1.9810    1.3750 C   0  0  0  0  0  0  0  0  0  0  0  0
    4.2720    1.7930    0.9300 O   0  0  0  0  0  0  0  0  0  0  0  0
    3.7770    0.6470    1.2800 C   0  0  0  0  0  0  0  0  0  0  0  0
    2.4310    0.1710    0.9270 C   0  0  0  0  0  0  0  0  0  0  0  0
    1.9370    0.3320   -0.2910 C   0  0  0  0  0  0  0  0  0  0  0  0
    2.5530    0.9360   -1.4100 N   0  0  0  0  0  0  0  0  0  0  0  0
    1.6520    0.9370   -2.5510 C   0  0  0  0  0  0  0  0  0  0  0  0
    0.4400    0.2800   -2.0020 C   0  0  0  0  0  0  0  0  0  0  0  0
   -0.7690    0.0060   -2.6010 C   0  0  0  0  0  0  0  0  0  0  0  0
   -1.8040   -0.6090   -1.9080 C   0  0  0  0  0  0  0  0  0  0  0  0
   -1.6520   -0.9690   -0.5890 C   0  0  0  0  0  0  0  0  0  0  0  0
   -2.7150   -1.5380    0.2010 N   0  0  0  0  0  0  0  0  0  0  0  0
   -4.0440   -1.0560    0.0970 C   0  0  0  0  0  0  0  0  0  0  0  0
   -5.0990   -1.7660    0.6220 C   0  0  0  0  0  0  0  0  0  0  0  0
   -6.4050   -1.2630    0.5520 C   0  0  0  0  0  0  0  0  0  0  0  0
   -6.6320   -0.0440   -0.0490 C   0  0  0  0  0  0  0  0  0  0  0  0
   -5.5910    0.6450   -0.5620 N   0  0  0  0  0  0  0  0  0  0  0  0
   -4.3230    0.1580   -0.4930 C   0  0  0  0  0  0  0  0  0  0  0  0
   -0.4540   -0.7000    0.0010 C   0  0  0  0  0  0  0  0  0  0  0  0
    0.6020   -0.0770   -0.6840 C   0  0  0  0  0  0  0  0  0  0  0  0
  1  2  1  0
  2  3  1  0
  2  6  2  0
  3  4  2  0
  4  5  1  0
  5  6  1  0
  6  7  1  0
  7  8  2  3
  8  9  1  0
  8 23  1  0
  9 10  1  0
 10 11  1  0
 11 12  2  0
 11 23  1  0
 12 13  1  0
 13 14  2  0
 14 15  1  0
 14 22  1  0
 15 16  1  0
 16 17  2  0
 16 21  1  0
 17 18  1  0
 18 19  2  0
 19 20  1  0
 20 21  2  0
 22 23  2  0
M  END
