
     RDKit          3D

 23 26  0  0  0  0  0  0  0  0999 V2000
    7.5440    0.4230   -1.1070 C   0  0  0  0  0  0  0  0  0  0  0  0
    6.3020    0.3920   -0.2730 C   0  0  0  0  0  0  0  0  0  0  0  0
    6.3530    0.5380    1.0980 C   0  0  0  0  0  0  0  0  0  0  0  0
    5.2240    0.5130    1.8870 C   0  0  0  0  0  0  0  0  0  0  0  0
    3.9860    0.3310    1.2600 C   0  0  0  0  0  0  0  0  0  0  0  0
    2.8490    0.2980    1.9750 N   0  0  0  0  0  0  0  0  0  0  0  0
    1.6280    0.1250    1.4130 C   0  0  0  0  0  0  0  0  0  0  0  0
    0.3750    0.0580    1.9110 N   0  0  0  0  0  0  0  0  0  0  0  0
   -0.5190   -0.1280    0.9280 C   0  0  0  0  0  0  0  0  0  0  0  0
   -2.0070   -0.2560    1.0470 C   0  0  1  0  0  0  0  0  0  0  0  0
   -2.6050    0.9500    0.3410 C   0  0  0  0  0  0  0  0  0  0  0  0
   -4.1030    0.8320    0.4750 C   0  0  0  0  0  0  0  0  0  0  0  0
   -4.5620   -0.3440   -0.3140 C   0  0  1  0  0  0  0  0  0  0  0  0
   -5.7150   -0.9310    0.3860 N   0  0  0  0  0  0  0  0  0  0  0  0
   -5.1150    0.1680   -1.6500 C   0  0  0  0  0  0  0  0  0  0  0  0
   -6.0980    1.1130   -1.4710 O   0  0  0  0  0  0  0  0  0  0  0  0
   -3.5240   -1.3560   -0.6170 C   0  0  0  0  0  0  0  0  0  0  0  0
   -2.4990   -1.5490    0.4660 C   0  0  0  0  0  0  0  0  0  0  0  0
    0.1900   -0.1790   -0.2140 N   0  0  0  0  0  0  0  0  0  0  0  0
    1.5000   -0.0280    0.0500 C   0  0  0  0  0  0  0  0  0  0  0  0
    2.6540    0.0030   -0.7030 C   0  0  0  0  0  0  0  0  0  0  0  0
    3.8950    0.1820   -0.1080 C   0  0  0  0  0  0  0  0  0  0  0  0
    5.0580    0.2160   -0.8400 C   0  0  0  0  0  0  0  0  0  0  0  0
  1  2  1  0
  2  3  2  0
  2 23  1  0
  3  4  1  0
  4  5  2  0
  5  6  1  0
  5 22  1  0
  6  7  2  0
  7  8  1  0
  7 20  1  0
  8  9  2  0
 10  9  1  6
  9 19  1  0
 10 11  1  0
 10 18  1  0
 11 12  1  0
 12 13  1  0
 13 14  1  1
 13 15  1  0
 13 17  1  0
 15 16  1  0
 17 18  1  0
 19 20  1  0
 20 21  2  0
 21 22  1  0
 22 23  2  0
M  END
