
     RDKit          3D

 33 36  0  0  0  0  0  0  0  0999 V2000
   -2.0780    1.0500   -3.4960 C   0  0  0  0  0  0  0  0  0  0  0  0
   -1.5950    1.8080   -2.3180 C   0  0  0  0  0  0  0  0  0  0  0  0
   -0.8820    1.0370   -1.3230 N   0  0  2  0  0  0  0  0  0  0  0  0
    0.0490    0.0870   -1.9490 C   0  0  0  0  0  0  0  0  0  0  0  0
   -0.0350   -1.2470   -1.2910 C   0  0  0  0  0  0  0  0  0  0  0  0
   -1.0320   -2.2060   -1.4220 C   0  0  0  0  0  0  0  0  0  0  0  0
   -0.9980   -3.2790   -0.5650 C   0  0  0  0  0  0  0  0  0  0  0  0
    0.0280   -3.4090    0.3940 C   0  0  0  0  0  0  0  0  0  0  0  0
    1.0270   -2.4740    0.5290 C   0  0  0  0  0  0  0  0  0  0  0  0
    0.9850   -1.3900   -0.3190 C   0  0  0  0  0  0  0  0  0  0  0  0
    1.9680   -0.3930   -0.0730 N   0  0  0  0  0  0  0  0  0  0  0  0
    3.2310   -0.5730    0.5210 C   0  0  0  0  0  0  0  0  0  0  0  0
    3.5780   -1.7110    0.8830 O   0  0  0  0  0  0  0  0  0  0  0  0
    4.1940    0.5120    0.7510 C   0  0  0  0  0  0  0  0  0  0  0  0
    5.2890    0.3690    1.6160 C   0  0  0  0  0  0  0  0  0  0  0  0
    5.9690    1.5190    1.6500 N   0  0  0  0  0  0  0  0  0  0  0  0
    7.1830    1.7490    2.4520 C   0  0  0  0  0  0  0  0  0  0  0  0
    5.3520    2.3520    0.8580 N   0  0  0  0  0  0  0  0  0  0  0  0
    4.2660    1.7830    0.2870 C   0  0  0  0  0  0  0  0  0  0  0  0
    3.3290    2.4090   -0.6800 C   0  0  0  0  0  0  0  0  0  0  0  0
   -2.0280   -4.2770   -0.2870 N   0  0  0  0  0  0  0  0  0  0  0  0
   -3.4220   -3.9890   -0.0350 C   0  0  0  0  0  0  0  0  0  0  0  0
   -4.2640   -4.6020   -0.7330 O   0  0  0  0  0  0  0  0  0  0  0  0
   -3.9620   -3.0490    0.9590 C   0  0  0  0  0  0  0  0  0  0  0  0
   -4.3310   -1.6760    0.5090 C   0  0  0  0  0  0  0  0  0  0  0  0
   -3.5660   -1.1700   -0.5340 N   0  0  0  0  0  0  0  0  0  0  0  0
   -3.1310    0.1870   -0.5860 C   0  0  0  0  0  0  0  0  0  0  0  0
   -1.7090    0.4880   -0.2930 C   0  0  2  0  0  0  0  0  0  0  0  0
   -1.6990    1.4480    0.8740 C   0  0  0  0  0  0  0  0  0  0  0  0
   -0.7070    2.1010    1.4590 C   0  0  0  0  0  0  0  0  0  0  0  0
   -0.9520    2.9140    2.5020 C   0  0  0  0  0  0  0  0  0  0  0  0
   -2.2450    3.0450    2.9370 C   0  0  0  0  0  0  0  0  0  0  0  0
   -3.1530    1.9510    1.7970 S   0  0  0  0  0  0  0  0  0  0  0  0
  1  2  1  0
  3  2  1  6
  3  4  1  0
  3 28  1  0
  4  5  1  0
  5  6  1  0
  5 10  2  0
  6  7  2  0
  7  8  1  0
  7 21  1  0
  8  9  2  0
  9 10  1  0
 10 11  1  0
 11 12  1  0
 12 13  2  0
 12 14  1  0
 14 15  2  0
 14 19  1  0
 15 16  1  0
 16 17  1  0
 16 18  1  0
 18 19  2  0
 19 20  1  0
 21 22  1  0
 22 23  2  0
 22 24  1  0
 24 25  1  0
 25 26  1  0
 26 27  1  0
 27 28  1  0
 28 29  1  1
 29 30  2  0
 29 33  1  0
 30 31  1  0
 31 32  2  0
 32 33  1  0
M  CHG  1   3   1
M  END
