
     RDKit          3D

 31 33  0  0  0  0  0  0  0  0999 V2000
   -7.1170    0.6210   -0.1770 C   0  0  0  0  0  0  0  0  0  0  0  0
   -6.2930    1.2090    0.7920 O   0  0  0  0  0  0  0  0  0  0  0  0
   -5.4020    0.5040    1.5800 C   0  0  0  0  0  0  0  0  0  0  0  0
   -5.7570   -0.1060    2.7140 N   0  0  0  0  0  0  0  0  0  0  0  0
   -4.7280   -0.6860    3.2430 N   0  0  0  0  0  0  0  0  0  0  0  0
   -3.6450   -0.4570    2.4380 C   0  0  0  0  0  0  0  0  0  0  0  0
   -2.3170   -0.9750    2.7460 C   0  0  0  0  0  0  0  0  0  0  0  0
   -4.0330    0.2880    1.3840 C   0  0  0  0  0  0  0  0  0  0  0  0
   -3.3310    0.8360    0.2140 C   0  0  0  0  0  0  0  0  0  0  0  0
   -4.0160    1.4920   -0.6010 O   0  0  0  0  0  0  0  0  0  0  0  0
   -1.9330    0.6560   -0.0260 N   0  0  0  0  0  0  0  0  0  0  0  0
   -1.2030    1.1640   -1.1420 C   0  0  0  0  0  0  0  0  0  0  0  0
    0.0750    0.9330   -1.2530 C   0  0  0  0  0  0  0  0  0  0  0  0
    0.8000    0.1300   -0.2150 C   0  0  0  0  0  0  0  0  0  0  0  0
    0.3090   -0.3690    0.7860 O   0  0  0  0  0  0  0  0  0  0  0  0
    2.2180   -0.0990   -0.3780 N   0  0  0  0  0  0  0  0  0  0  0  0
    3.0500   -0.8280    0.4930 C   0  0  0  0  0  0  0  0  0  0  0  0
    2.6940   -1.4740    1.6380 C   0  0  0  0  0  0  0  0  0  0  0  0
    3.6150   -2.1770    2.4220 C   0  0  0  0  0  0  0  0  0  0  0  0
    3.1220   -2.9920    3.8860 Cl  0  0  0  0  0  0  0  0  0  0  0  0
    4.9360   -2.2450    2.0610 C   0  0  0  0  0  0  0  0  0  0  0  0
    5.8250   -2.9270    2.8230 F   0  0  0  0  0  0  0  0  0  0  0  0
    5.3130   -1.5980    0.9060 C   0  0  0  0  0  0  0  0  0  0  0  0
    6.7540   -1.6700    0.4960 C   0  0  0  0  0  0  0  0  0  0  0  0
    4.4040   -0.9060    0.1370 C   0  0  0  0  0  0  0  0  0  0  0  0
    4.8790   -0.2360   -1.0800 C   0  0  0  0  0  0  0  0  0  0  0  0
    0.9040    1.4440   -2.3710 C   0  0  0  0  0  0  0  0  0  0  0  0
    0.2130    2.1590   -3.4280 C   0  0  0  0  0  0  0  0  0  0  0  0
   -1.2050    2.3830   -3.2420 C   0  0  0  0  0  0  0  0  0  0  0  0
   -1.9220    3.1040   -4.1910 F   0  0  0  0  0  0  0  0  0  0  0  0
   -1.8680    1.9300   -2.1950 C   0  0  0  0  0  0  0  0  0  0  0  0
  1  2  1  0
  2  3  1  0
  3  4  1  0
  3  8  2  0
  4  5  1  0
  5  6  2  0
  6  7  1  0
  6  8  1  0
  8  9  1  0
  9 10  2  0
  9 11  1  0
 11 12  1  0
 12 13  2  0
 12 31  1  0
 13 14  1  0
 13 27  1  0
 14 15  2  0
 14 16  1  0
 16 17  1  0
 17 18  2  0
 17 25  1  0
 18 19  1  0
 19 20  1  0
 19 21  2  0
 21 22  1  0
 21 23  1  0
 23 24  1  0
 23 25  2  0
 25 26  1  0
 27 28  1  0
 28 29  1  0
 29 30  1  0
 29 31  2  0
M  END
