
     RDKit          3D

 33 36  0  0  0  0  0  0  0  0999 V2000
    8.6110    2.0700   -1.7750 C   0  0  0  0  0  0  0  0  0  0  0  0
    8.1880    0.7330   -1.1700 C   0  0  2  0  0  0  0  0  0  0  0  0
    9.1110   -0.3350   -1.7090 C   0  0  0  0  0  0  0  0  0  0  0  0
    6.7790    0.4840   -1.5150 C   0  0  0  0  0  0  0  0  0  0  0  0
    6.3330    0.3200   -2.7870 N   0  0  0  0  0  0  0  0  0  0  0  0
    5.0200    0.1170   -2.7440 N   0  0  0  0  0  0  0  0  0  0  0  0
    4.6060    0.1450   -1.4730 C   0  0  0  0  0  0  0  0  0  0  0  0
    3.3340   -0.0140   -0.9090 C   0  0  0  0  0  0  0  0  0  0  0  0
    3.1840    0.0620    0.4460 C   0  0  0  0  0  0  0  0  0  0  0  0
    1.8570   -0.1080    1.0720 C   0  0  0  0  0  0  0  0  0  0  0  0
    1.8290    0.0540    2.3320 O   0  0  0  0  0  0  0  0  0  0  0  0
    0.7160   -0.4250    0.3350 N   0  0  0  0  0  0  0  0  0  0  0  0
   -0.5710   -0.5820    0.9700 C   0  0  0  0  0  0  0  0  0  0  0  0
   -0.8940   -0.0610    2.1900 C   0  0  0  0  0  0  0  0  0  0  0  0
   -2.1560   -0.3090    2.7200 C   0  0  0  0  0  0  0  0  0  0  0  0
   -3.0900   -1.0660    2.0420 C   0  0  0  0  0  0  0  0  0  0  0  0
   -2.8090   -1.6160    0.8000 C   0  0  0  0  0  0  0  0  0  0  0  0
   -1.5410   -1.3370    0.3250 C   0  0  0  0  0  0  0  0  0  0  0  0
   -3.6960   -2.4200    0.0390 N   0  0  0  0  0  0  0  0  0  0  0  0
   -5.0900   -2.5470    0.0810 C   0  0  0  0  0  0  0  0  0  0  0  0
   -5.6230   -3.6830    0.3220 O   0  0  0  0  0  0  0  0  0  0  0  0
   -6.1300   -1.5080   -0.1220 C   0  0  0  0  0  0  0  0  0  0  0  0
   -5.6190   -0.2770   -0.6220 N   0  0  1  0  0  0  0  0  0  0  0  0
   -5.4460   -0.3930   -2.0770 C   0  0  0  0  0  0  0  0  0  0  0  0
   -6.4990    0.8010   -0.4070 C   0  0  0  0  0  0  0  0  0  0  0  0
   -6.2810    1.8290    0.3990 C   0  0  0  0  0  0  0  0  0  0  0  0
   -5.1170    2.0680    1.2230 C   0  0  0  0  0  0  0  0  0  0  0  0
   -4.7520    1.4460    2.3250 C   0  0  0  0  0  0  0  0  0  0  0  0
   -5.4480    0.3440    3.0010 C   0  0  0  0  0  0  0  0  0  0  0  0
   -4.6350   -1.2620    2.9030 S   0  0  0  0  0  0  0  0  0  0  0  0
    4.3150    0.2950    1.1980 C   0  0  0  0  0  0  0  0  0  0  0  0
    5.5710    0.4510    0.6310 C   0  0  0  0  0  0  0  0  0  0  0  0
    5.6920    0.3710   -0.7250 N   0  0  0  0  0  0  0  0  0  0  0  0
  2  1  1  6
  2  3  1  0
  2  4  1  0
  4  5  2  0
  4 33  1  0
  5  6  1  0
  6  7  2  0
  7  8  1  0
  7 33  1  0
  8  9  2  0
  9 10  1  0
  9 31  1  0
 10 11  2  0
 10 12  1  0
 12 13  1  0
 13 14  2  0
 13 18  1  0
 14 15  1  0
 15 16  2  0
 16 17  1  0
 16 30  1  0
 17 18  2  0
 17 19  1  0
 19 20  1  0
 20 21  2  0
 20 22  1  0
 22 23  1  0
 23 24  1  6
 23 25  1  0
 25 26  2  0
 26 27  1  0
 27 28  2  0
 28 29  1  0
 29 30  1  0
 31 32  2  0
 32 33  1  0
M  CHG  1  23   1
M  END
