
     RDKit          3D

 32 36  0  0  0  0  0  0  0  0999 V2000
    9.4310   -0.6990   -1.4600 C   0  0  0  0  0  0  0  0  0  0  0  0
    8.0800   -0.3150   -1.1910 N   0  0  2  0  0  0  0  0  0  0  0  0
    7.2440   -0.2680   -2.3760 C   0  0  0  0  0  0  0  0  0  0  0  0
    5.8080   -0.2280   -1.9660 C   0  0  0  0  0  0  0  0  0  0  0  0
    5.5790    0.3490   -0.6740 N   0  0  0  0  0  0  0  0  0  0  0  0
    4.2880    0.2440   -0.0930 C   0  0  0  0  0  0  0  0  0  0  0  0
    3.9860    0.7650    1.1480 C   0  0  0  0  0  0  0  0  0  0  0  0
    2.7070    0.6260    1.6510 C   0  0  0  0  0  0  0  0  0  0  0  0
    1.7050   -0.0170    0.9610 C   0  0  0  0  0  0  0  0  0  0  0  0
    0.4040   -0.1400    1.5110 N   0  0  0  0  0  0  0  0  0  0  0  0
   -0.5130    0.8400    1.6730 C   0  0  0  0  0  0  0  0  0  0  0  0
   -1.6650    0.3410    2.2430 C   0  0  0  0  0  0  0  0  0  0  0  0
   -2.8750    1.0680    2.5760 C   0  0  0  0  0  0  0  0  0  0  0  0
   -2.8930    2.2840    3.2080 C   0  0  0  0  0  0  0  0  0  0  0  0
   -4.0670    2.9340    3.5030 C   0  0  0  0  0  0  0  0  0  0  0  0
   -5.2500    2.3910    3.1790 N   0  0  0  0  0  0  0  0  0  0  0  0
   -5.2630    1.1870    2.5520 C   0  0  0  0  0  0  0  0  0  0  0  0
   -4.1170    0.4910    2.2320 C   0  0  0  0  0  0  0  0  0  0  0  0
   -4.0550   -0.7180    1.6090 O   0  0  0  0  0  0  0  0  0  0  0  0
   -5.0600   -1.5200    1.1280 C   0  0  0  0  0  0  0  0  0  0  0  0
   -5.8410   -0.9400   -0.0000 C   0  0  2  0  0  0  0  0  0  0  0  0
   -6.9400   -1.8920   -0.4760 C   0  0  0  0  0  0  0  0  0  0  0  0
   -7.8870   -1.0670   -1.3210 C   0  0  0  0  0  0  0  0  0  0  0  0
   -7.2260    0.0840   -1.8730 N   0  0  0  0  0  0  0  0  0  0  0  0
   -5.8820   -0.1870   -2.3220 C   0  0  0  0  0  0  0  0  0  0  0  0
   -4.9790   -0.6900   -1.2260 C   0  0  0  0  0  0  0  0  0  0  0  0
   -1.3990   -1.0180    2.4230 C   0  0  0  0  0  0  0  0  0  0  0  0
   -0.1600   -1.2560    1.9740 N   0  0  0  0  0  0  0  0  0  0  0  0
    1.9980   -0.5400   -0.2780 C   0  0  0  0  0  0  0  0  0  0  0  0
    3.2770   -0.3980   -0.7760 C   0  0  0  0  0  0  0  0  0  0  0  0
    6.5920    1.0440    0.0910 C   0  0  0  0  0  0  0  0  0  0  0  0
    7.9610    0.9820   -0.5510 C   0  0  0  0  0  0  0  0  0  0  0  0
  2  1  1  6
  2  3  1  0
  2 32  1  0
  3  4  1  0
  4  5  1  0
  5  6  1  0
  5 31  1  0
  6  7  2  0
  6 30  1  0
  7  8  1  0
  8  9  2  0
  9 10  1  0
  9 29  1  0
 10 11  1  0
 10 28  1  0
 11 12  2  0
 12 13  1  0
 12 27  1  0
 13 14  2  0
 13 18  1  0
 14 15  1  0
 15 16  2  0
 16 17  1  0
 17 18  2  0
 18 19  1  0
 19 20  1  0
 21 20  1  1
 21 22  1  0
 21 26  1  0
 22 23  1  0
 23 24  1  0
 24 25  1  0
 25 26  1  0
 27 28  2  0
 29 30  2  0
 31 32  1  0
M  CHG  2   2   1  24   1
M  END
