
     RDKit          3D

 32 36  0  0  0  0  0  0  0  0999 V2000
   -4.4410    2.1740    0.9080 C   0  0  0  0  0  0  0  0  0  0  0  0
   -5.0260    0.8820    0.4410 C   0  0  2  0  0  0  0  0  0  0  0  0
   -6.3660    0.7080    1.1260 C   0  0  0  0  0  0  0  0  0  0  0  0
   -6.8320   -0.6540    0.9680 N   0  0  0  0  0  0  0  0  0  0  0  0
   -7.3690   -0.9200   -0.3310 C   0  0  0  0  0  0  0  0  0  0  0  0
   -6.5670   -1.9650   -1.0670 C   0  0  0  0  0  0  0  0  0  0  0  0
   -5.2850   -2.2210   -0.3060 C   0  0  0  0  0  0  0  0  0  0  0  0
   -4.2760   -1.0990   -0.5430 C   0  0  2  0  0  0  0  0  0  0  0  0
   -2.9740   -1.7960   -0.9140 C   0  0  0  0  0  0  0  0  0  0  0  0
   -1.8890   -0.7900   -1.0630 C   0  0  0  0  0  0  0  0  0  0  0  0
   -0.9870   -0.7850   -2.1210 C   0  0  0  0  0  0  0  0  0  0  0  0
   -0.0740    0.2030   -2.0900 N   0  0  0  0  0  0  0  0  0  0  0  0
    0.0060    1.1410   -1.1320 C   0  0  0  0  0  0  0  0  0  0  0  0
    1.0660    2.1900   -1.2090 C   0  0  0  0  0  0  0  0  0  0  0  0
    2.3000    1.7720   -0.6210 N   0  0  0  0  0  0  0  0  0  0  0  0
    2.5130    1.7100    0.7870 C   0  0  0  0  0  0  0  0  0  0  0  0
    1.5960    2.0310    1.5860 O   0  0  0  0  0  0  0  0  0  0  0  0
    3.8290    1.2640    1.3240 C   0  0  0  0  0  0  0  0  0  0  0  0
    4.7020    0.9570    0.2530 O   0  0  0  0  0  0  0  0  0  0  0  0
    6.0020    0.5120    0.5200 C   0  0  0  0  0  0  0  0  0  0  0  0
    6.4130    0.3790    1.8290 C   0  0  0  0  0  0  0  0  0  0  0  0
    7.7030   -0.0630    2.1040 C   0  0  0  0  0  0  0  0  0  0  0  0
    8.5470   -0.3600    1.0570 C   0  0  0  0  0  0  0  0  0  0  0  0
    8.1890   -0.2440   -0.2570 C   0  0  0  0  0  0  0  0  0  0  0  0
    6.8770    0.2060   -0.4850 C   0  0  0  0  0  0  0  0  0  0  0  0
    9.1990   -0.5830   -1.2460 C   0  0  0  0  0  0  0  0  0  0  0  0
   10.1360   -1.6380   -0.7010 C   0  0  0  0  0  0  0  0  0  0  0  0
   10.2510   -0.9750    1.0250 S   0  0  0  0  0  0  0  0  0  0  0  0
   -0.8950    1.0970   -0.1200 N   0  0  0  0  0  0  0  0  0  0  0  0
   -1.8370    0.1560   -0.0650 C   0  0  0  0  0  0  0  0  0  0  0  0
   -2.8340    0.0750    1.0210 C   0  0  0  0  0  0  0  0  0  0  0  0
   -4.1550   -0.2540    0.6240 N   0  0  1  0  0  0  0  0  0  0  0  0
  2  1  1  1
  2  3  1  0
  2 32  1  0
  3  4  1  0
  4  5  1  0
  5  6  1  0
  6  7  1  0
  8  7  1  1
  8  9  1  0
  8 32  1  0
  9 10  1  0
 10 11  2  0
 10 30  1  0
 11 12  1  0
 12 13  2  0
 13 14  1  0
 13 29  1  0
 14 15  1  0
 15 16  1  0
 16 17  2  0
 16 18  1  0
 18 19  1  0
 19 20  1  0
 20 21  2  0
 20 25  1  0
 21 22  1  0
 22 23  2  0
 23 24  1  0
 23 28  1  0
 24 25  2  0
 24 26  1  0
 26 27  1  0
 27 28  1  0
 29 30  2  0
 30 31  1  0
 32 31  1  6
M  CHG  1  32   1
M  END
