
     RDKit          3D

 17 19  0  0  0  0  0  0  0  0999 V2000
    3.6110    1.9010   -0.3290 N   0  0  0  0  0  0  0  0  0  0  0  0
    2.8710    0.6880   -0.2730 C   0  0  0  0  0  0  0  0  0  0  0  0
    3.2800   -0.5630   -0.1220 N   0  0  0  0  0  0  0  0  0  0  0  0
    2.2520   -1.4420   -0.1190 C   0  0  0  0  0  0  0  0  0  0  0  0
    2.2960   -2.7190    0.0060 N   0  0  0  0  0  0  0  0  0  0  0  0
    1.0930   -0.7240   -0.2800 C   0  0  0  0  0  0  0  0  0  0  0  0
   -0.2050   -1.2500   -0.3330 C   0  0  0  0  0  0  0  0  0  0  0  0
   -1.3630   -0.5910   -0.1500 N   0  0  0  0  0  0  0  0  0  0  0  0
   -2.3780   -1.4230    0.1460 C   0  0  0  0  0  0  0  0  0  0  0  0
   -3.6280   -0.9360    0.3650 N   0  0  0  0  0  0  0  0  0  0  0  0
   -3.8560    0.3940    0.2850 C   0  0  0  0  0  0  0  0  0  0  0  0
   -5.1460    0.9000    0.5110 O   0  0  0  0  0  0  0  0  0  0  0  0
   -2.8350    1.2050   -0.0100 N   0  0  0  0  0  0  0  0  0  0  0  0
   -1.5860    0.7410   -0.2320 C   0  0  0  0  0  0  0  0  0  0  0  0
   -0.7030    1.7870   -0.5210 C   0  0  0  0  0  0  0  0  0  0  0  0
    0.6740    1.7520   -0.5470 C   0  0  0  0  0  0  0  0  0  0  0  0
    1.5040    0.6620   -0.3790 C   0  0  0  0  0  0  0  0  0  0  0  0
  1  2  1  0
  2  3  2  0
  2 17  1  0
  3  4  1  0
  4  5  2  0
  4  6  1  0
  6  7  2  0
  6 17  1  0
  7  8  1  0
  8  9  1  0
  8 14  1  0
  9 10  2  0
 10 11  1  0
 11 12  1  0
 11 13  2  0
 13 14  1  0
 14 15  2  0
 15 16  1  0
 16 17  2  0
M  CHG  1   5   1
M  END
