
     RDKit          3D

 17 18  0  0  0  0  0  0  0  0999 V2000
   -2.7130   -1.0280   -0.1840 C   0  0  0  0  0  0  0  0  0  0  0  0
   -1.5840   -0.3040   -0.0830 C   0  0  0  0  0  0  0  0  0  0  0  0
   -0.3050   -0.6080    0.4960 C   0  0  0  0  0  0  0  0  0  0  0  0
    0.0860   -1.7140    1.0920 C   0  0  0  0  0  0  0  0  0  0  0  0
   -0.7790   -2.8810    1.2680 C   0  0  0  0  0  0  0  0  0  0  0  0
    0.5560    0.5590    0.3190 N   0  0  0  0  0  0  0  0  0  0  0  0
    1.7890    1.0370    0.5580 C   0  0  0  0  0  0  0  0  0  0  0  0
    2.8300    0.3340    1.2180 N   0  0  0  0  0  0  0  0  0  0  0  0
    3.8080   -0.1150    0.5210 C   0  0  0  0  0  0  0  0  0  0  0  0
    3.8450    0.0850   -0.8650 N   0  0  0  0  0  0  0  0  0  0  0  0
    4.8250   -0.8050    1.1900 O   0  0  0  0  0  0  0  0  0  0  0  0
    1.8710    2.2860    0.0710 N   0  0  0  0  0  0  0  0  0  0  0  0
    0.7090    2.5830   -0.4640 N   0  0  0  0  0  0  0  0  0  0  0  0
   -0.1220    1.5030   -0.3120 C   0  0  0  0  0  0  0  0  0  0  0  0
   -1.4910    1.0840   -0.6240 C   0  0  1  0  0  0  0  0  0  0  0  0
   -1.8020    1.1250   -2.0980 C   0  0  0  0  0  0  0  0  0  0  0  0
   -2.3850    1.9390    0.1390 N   0  0  0  0  0  0  0  0  0  0  0  0
  1  2  2  0
  2  3  1  0
  2 15  1  0
  3  4  2  3
  3  6  1  0
  4  5  1  0
  6  7  1  0
  6 14  1  0
  7  8  1  0
  7 12  2  0
  8  9  2  3
  9 10  1  0
  9 11  1  0
 12 13  1  0
 13 14  2  0
 14 15  1  0
 15 16  1  6
 15 17  1  0
M  CHG  1  17   1
M  END
