
     RDKit          3D

 17 19  0  0  0  0  0  0  0  0999 V2000
   -2.7510   -1.8410    1.7720 N   0  0  0  0  0  0  0  0  0  0  0  0
   -2.0170   -0.9570    0.9370 C   0  0  0  0  0  0  0  0  0  0  0  0
   -0.6620   -0.8120    0.7830 C   0  0  0  0  0  0  0  0  0  0  0  0
   -0.4320    0.1710   -0.1390 C   0  0  0  0  0  0  0  0  0  0  0  0
    0.8690    0.6720   -0.6150 C   0  0  0  0  0  0  0  0  0  0  0  0
    1.0430    1.6620   -1.5260 N   0  0  0  0  0  0  0  0  0  0  0  0
    2.3270    1.8580   -1.7190 N   0  0  0  0  0  0  0  0  0  0  0  0
    3.0140    1.0040   -0.9420 C   0  0  0  0  0  0  0  0  0  0  0  0
    2.1150    0.2830   -0.2710 N   0  0  0  0  0  0  0  0  0  0  0  0
    2.8170   -0.6610    0.5910 C   0  0  0  0  0  0  0  0  0  0  0  0
    4.1250   -0.8670   -0.1330 C   0  0  0  0  0  0  0  0  0  0  0  0
    4.4200    0.5770   -0.5670 C   0  0  0  0  0  0  0  0  0  0  0  0
   -1.6150    0.6390   -0.5590 N   0  0  0  0  0  0  0  0  0  0  0  0
   -2.5930   -0.0270    0.0770 C   0  0  0  0  0  0  0  0  0  0  0  0
   -4.0120    0.2130   -0.1270 C   0  0  0  0  0  0  0  0  0  0  0  0
   -4.4420    1.2000   -1.0410 N   0  0  0  0  0  0  0  0  0  0  0  0
   -4.8510   -0.4610    0.5140 O   0  0  0  0  0  0  0  0  0  0  0  0
  1  2  1  0
  2  3  1  0
  2 14  2  0
  3  4  2  0
  4  5  1  0
  4 13  1  0
  5  6  2  0
  5  9  1  0
  6  7  1  0
  7  8  2  0
  8  9  1  0
  8 12  1  0
  9 10  1  0
 10 11  1  0
 11 12  1  0
 13 14  1  0
 14 15  1  0
 15 16  1  0
 15 17  2  0
M  CHG  1  16   1
M  END
