
     RDKit          3D

 22 24  0  0  0  0  0  0  0  0999 V2000
    5.7280    0.6050   -1.6450 C   0  0  0  0  0  0  0  0  0  0  0  0
    4.3360    0.6000   -1.7940 O   0  0  0  0  0  0  0  0  0  0  0  0
    3.4680    0.3200   -0.7500 C   0  0  0  0  0  0  0  0  0  0  0  0
    3.9860    0.0350    0.4840 C   0  0  0  0  0  0  0  0  0  0  0  0
    3.0980   -0.2460    1.5290 C   0  0  0  0  0  0  0  0  0  0  0  0
    3.6740   -0.5220    2.7300 O   0  0  0  0  0  0  0  0  0  0  0  0
    1.7350   -0.2270    1.2870 C   0  0  0  0  0  0  0  0  0  0  0  0
    0.8280   -0.4950    2.2790 C   0  0  0  0  0  0  0  0  0  0  0  0
    1.1930   -0.7670    3.4380 O   0  0  0  0  0  0  0  0  0  0  0  0
   -0.5350   -0.4600    1.9740 C   0  0  0  0  0  0  0  0  0  0  0  0
   -0.9940   -0.1690    0.7230 C   0  0  0  0  0  0  0  0  0  0  0  0
   -2.4190   -0.1320    0.4010 C   0  0  0  0  0  0  0  0  0  0  0  0
   -3.3840   -0.3860    1.3280 C   0  0  0  0  0  0  0  0  0  0  0  0
   -4.7440   -0.3430    0.9890 C   0  0  0  0  0  0  0  0  0  0  0  0
   -5.1590   -0.0430   -0.2900 C   0  0  0  0  0  0  0  0  0  0  0  0
   -6.5360   -0.0120   -0.5810 O   0  0  0  0  0  0  0  0  0  0  0  0
   -4.1960    0.2160   -1.2380 C   0  0  0  0  0  0  0  0  0  0  0  0
   -4.5380    0.5240   -2.5450 O   0  0  0  0  0  0  0  0  0  0  0  0
   -2.8450    0.1680   -0.8800 C   0  0  0  0  0  0  0  0  0  0  0  0
   -0.0910    0.0830   -0.2040 O   0  0  0  0  0  0  0  0  0  0  0  0
    1.1950    0.0630    0.0340 C   0  0  0  0  0  0  0  0  0  0  0  0
    2.1160    0.3360   -0.9740 C   0  0  0  0  0  0  0  0  0  0  0  0
  1  2  1  0
  2  3  1  0
  3  4  2  0
  3 22  1  0
  4  5  1  0
  5  6  1  0
  5  7  2  0
  7  8  1  0
  7 21  1  0
  8  9  2  0
  8 10  1  0
 10 11  2  0
 11 12  1  0
 11 20  1  0
 12 13  2  0
 12 19  1  0
 13 14  1  0
 14 15  2  0
 15 16  1  0
 15 17  1  0
 17 18  1  0
 17 19  2  0
 20 21  1  0
 21 22  2  0
M  END
