
     RDKit          3D

 17 18  0  0  0  0  0  0  0  0999 V2000
   -1.9820    1.0390   -1.6520 N   0  0  0  0  0  0  0  0  0  0  0  0
   -0.7410    1.2820   -1.5740 C   0  0  0  0  0  0  0  0  0  0  0  0
   -0.2720    2.3570   -2.3500 O   0  0  0  0  0  0  0  0  0  0  0  0
    0.2250    0.5740   -0.7760 C   0  0  0  0  0  0  0  0  0  0  0  0
    1.4710    1.0570   -0.8930 C   0  0  0  0  0  0  0  0  0  0  0  0
    2.8270    0.8310   -0.4040 C   0  0  0  0  0  0  0  0  0  0  0  0
    3.1410   -0.4920    0.0160 N   0  0  0  0  0  0  0  0  0  0  0  0
    2.7800   -0.7410    1.4040 C   0  0  0  0  0  0  0  0  0  0  0  0
    1.5320   -1.5730    1.4220 C   0  0  0  0  0  0  0  0  0  0  0  0
    0.3440   -1.4680    0.8670 C   0  0  0  0  0  0  0  0  0  0  0  0
   -0.2840   -0.4970   -0.0090 N   0  0  0  0  0  0  0  0  0  0  0  0
   -1.6850   -0.7080   -0.0770 C   0  0  0  0  0  0  0  0  0  0  0  0
   -2.3830   -1.4890   -0.9170 N   0  0  0  0  0  0  0  0  0  0  0  0
   -3.6730   -1.4110   -0.5920 N   0  0  0  0  0  0  0  0  0  0  0  0
   -3.8520   -0.5860    0.4560 C   0  0  0  0  0  0  0  0  0  0  0  0
   -2.5800   -0.1260    0.7970 C   0  0  0  0  0  0  0  0  0  0  0  0
   -2.3510    0.7740    1.8660 N   0  0  0  0  0  0  0  0  0  0  0  0
  1  2  2  0
  2  3  1  0
  2  4  1  0
  4  5  2  0
  4 11  1  0
  5  6  1  0
  6  7  1  0
  7  8  1  0
  8  9  1  0
  9 10  2  0
 10 11  1  0
 11 12  1  0
 12 13  1  0
 12 16  2  0
 13 14  1  0
 14 15  2  0
 15 16  1  0
 16 17  1  0
M  CHG  1   7   1
M  END
