
     RDKit          3D

 17 18  0  0  0  0  0  0  0  0999 V2000
   -3.6440    2.0910    0.9820 C   0  0  0  0  0  0  0  0  0  0  0  0
   -2.2960    1.6750    0.5150 C   0  0  0  0  0  0  0  0  0  0  0  0
   -2.1060    0.3770    0.2890 C   0  0  0  0  0  0  0  0  0  0  0  0
   -2.9940   -0.6230    0.4330 N   0  0  0  0  0  0  0  0  0  0  0  0
   -2.3710   -1.7760    0.0940 C   0  0  0  0  0  0  0  0  0  0  0  0
   -2.9320   -3.0820    0.0980 N   0  0  0  0  0  0  0  0  0  0  0  0
   -1.0950   -1.4690   -0.2590 N   0  0  0  0  0  0  0  0  0  0  0  0
   -0.8910   -0.1450   -0.1510 C   0  0  0  0  0  0  0  0  0  0  0  0
    0.1950    0.5260   -0.3990 C   0  0  0  0  0  0  0  0  0  0  0  0
    1.4080   -0.1370   -0.8570 C   0  0  0  0  0  0  0  0  0  0  0  0
    1.5320   -1.1920   -1.6880 N   0  0  0  0  0  0  0  0  0  0  0  0
    2.8140   -1.4840   -1.8480 N   0  0  0  0  0  0  0  0  0  0  0  0
    3.5570   -0.6280   -1.1260 C   0  0  0  0  0  0  0  0  0  0  0  0
    4.8240   -0.6060   -1.0370 O   0  0  0  0  0  0  0  0  0  0  0  0
    2.6710    0.1880   -0.5270 N   0  0  0  0  0  0  0  0  0  0  0  0
    3.0690    1.2750    0.3590 C   0  0  0  0  0  0  0  0  0  0  0  0
    3.1540    0.8010    1.7960 C   0  0  0  0  0  0  0  0  0  0  0  0
  1  2  1  0
  2  3  2  3
  3  4  1  0
  3  8  1  0
  4  5  2  0
  5  6  1  0
  5  7  1  0
  7  8  1  0
  8  9  2  3
  9 10  1  0
 10 11  2  0
 10 15  1  0
 11 12  1  0
 12 13  1  0
 13 14  2  0
 13 15  1  0
 15 16  1  0
 16 17  1  0
M  CHG  1   4   1
M  END
