
     RDKit          3D

 21 22  0  0  0  0  0  0  0  0999 V2000
    3.0790    0.2720    1.8990 O   0  0  0  0  0  0  0  0  0  0  0  0
    2.3750    0.2550    0.8680 C   0  0  0  0  0  0  0  0  0  0  0  0
    2.9290    0.6620   -0.3140 O   0  0  0  0  0  0  0  0  0  0  0  0
    4.2500    1.1100   -0.5140 C   0  0  0  0  0  0  0  0  0  0  0  0
    5.1910   -0.0060   -0.1520 C   0  0  0  0  0  0  0  0  0  0  0  0
    6.5290    0.3540   -0.3230 O   0  0  0  0  0  0  0  0  0  0  0  0
    0.9740   -0.2040    0.9700 C   0  0  0  0  0  0  0  0  0  0  0  0
    0.5320   -0.5890    2.2230 O   0  0  0  0  0  0  0  0  0  0  0  0
    0.2000   -0.2320   -0.1120 C   0  0  0  0  0  0  0  0  0  0  0  0
   -1.1700   -0.6820   -0.0170 C   0  0  0  0  0  0  0  0  0  0  0  0
   -1.4500   -1.9120    0.5930 C   0  0  0  0  0  0  0  0  0  0  0  0
   -0.3920   -2.6830    1.0750 O   0  0  0  0  0  0  0  0  0  0  0  0
   -2.7380   -2.3840    0.7280 C   0  0  0  0  0  0  0  0  0  0  0  0
   -3.7940   -1.6420    0.2580 C   0  0  0  0  0  0  0  0  0  0  0  0
   -3.5610   -0.4210   -0.3510 C   0  0  0  0  0  0  0  0  0  0  0  0
   -4.6540    0.2840   -0.7970 C   0  0  0  0  0  0  0  0  0  0  0  0
   -4.4330    1.4910   -1.3910 C   0  0  0  0  0  0  0  0  0  0  0  0
   -3.1730    1.9880   -1.5390 C   0  0  0  0  0  0  0  0  0  0  0  0
   -2.0810    1.2520   -1.0770 C   0  0  0  0  0  0  0  0  0  0  0  0
   -0.7940    1.7620   -1.2270 O   0  0  0  0  0  0  0  0  0  0  0  0
   -2.2680    0.0370   -0.4780 C   0  0  0  0  0  0  0  0  0  0  0  0
  1  2  2  0
  2  3  1  0
  2  7  1  0
  3  4  1  0
  4  5  1  0
  5  6  1  0
  7  8  1  0
  7  9  2  3
  9 10  1  0
 10 11  2  0
 10 21  1  0
 11 12  1  0
 11 13  1  0
 13 14  2  0
 14 15  1  0
 15 16  2  0
 15 21  1  0
 16 17  1  0
 17 18  2  0
 18 19  1  0
 19 20  1  0
 19 21  2  0
M  END
