
     RDKit          3D

 21 22  0  0  0  0  0  0  0  0999 V2000
   -4.4520    1.6550    1.5850 C   0  0  0  0  0  0  0  0  0  0  0  0
   -3.4040    0.8990    0.8540 C   0  0  0  0  0  0  0  0  0  0  0  0
   -2.0710    1.2140    1.0900 C   0  0  0  0  0  0  0  0  0  0  0  0
   -1.0670    0.5190    0.4170 C   0  0  0  0  0  0  0  0  0  0  0  0
   -1.4300   -0.4660   -0.4680 C   0  0  0  0  0  0  0  0  0  0  0  0
   -2.7510   -0.7860   -0.7100 C   0  0  0  0  0  0  0  0  0  0  0  0
   -3.7410   -0.0910   -0.0360 C   0  0  0  0  0  0  0  0  0  0  0  0
   -5.1730   -0.4460   -0.3050 C   0  0  0  0  0  0  0  0  0  0  0  0
   -5.2500   -1.4690   -1.2360 O   0  0  0  0  0  0  0  0  0  0  0  0
   -0.2070   -1.0380   -1.0390 C   0  0  2  0  0  0  0  0  0  0  0  0
   -0.1400   -2.3910   -0.7190 O   0  0  0  0  0  0  0  0  0  0  0  0
    0.9020   -0.2930   -0.4010 C   0  0  0  0  0  0  0  0  0  0  0  0
    2.3110   -0.5300   -0.6730 C   0  0  0  0  0  0  0  0  0  0  0  0
    2.7080   -1.4050   -1.4870 O   0  0  0  0  0  0  0  0  0  0  0  0
    3.3010    0.2160   -0.0290 O   0  0  0  0  0  0  0  0  0  0  0  0
    4.6550   -0.0270   -0.3040 C   0  0  1  0  0  0  0  0  0  0  0  0
    5.2410    1.2080   -0.9500 C   0  0  0  0  0  0  0  0  0  0  0  0
    5.3720   -0.4430    0.8990 C   0  0  0  0  0  0  0  0  0  0  0  0
    4.7410   -0.5340    1.9840 O   0  0  0  0  0  0  0  0  0  0  0  0
    6.7220   -0.7530    0.9420 O   0  0  0  0  0  0  0  0  0  0  0  0
    0.3840    0.5890    0.4240 C   0  0  0  0  0  0  0  0  0  0  0  0
  1  2  1  0
  2  3  2  0
  2  7  1  0
  3  4  1  0
  4  5  2  0
  4 21  1  0
  5  6  1  0
  5 10  1  0
  6  7  2  0
  7  8  1  0
  8  9  1  0
 10 11  1  1
 10 12  1  0
 12 13  1  0
 12 21  2  0
 13 14  2  0
 13 15  1  0
 15 16  1  0
 16 17  1  1
 16 18  1  0
 18 19  2  0
 18 20  1  0
M  END
