
     RDKit          3D

 23 26  0  0  0  0  0  0  0  0999 V2000
    2.1860    1.9720   -2.2650 O   0  0  0  0  0  0  0  0  0  0  0  0
    2.5570    1.2630   -1.2620 C   0  0  0  0  0  0  0  0  0  0  0  0
    3.8590    1.3680   -0.9340 N   0  0  0  0  0  0  0  0  0  0  0  0
    4.2950    0.6340    0.1250 C   0  0  0  0  0  0  0  0  0  0  0  0
    5.6250    0.7120    0.5120 C   0  0  0  0  0  0  0  0  0  0  0  0
    6.7260    1.7500   -0.3540 Cl  0  0  0  0  0  0  0  0  0  0  0  0
    6.0830   -0.0370    1.6100 C   0  0  0  0  0  0  0  0  0  0  0  0
    5.1960   -0.8290    2.2710 C   0  0  0  0  0  0  0  0  0  0  0  0
    5.7140   -1.7720    3.6590 Cl  0  0  0  0  0  0  0  0  0  0  0  0
    3.8710   -0.8910    1.8680 C   0  0  0  0  0  0  0  0  0  0  0  0
    3.4110   -0.1510    0.7810 C   0  0  0  0  0  0  0  0  0  0  0  0
    2.0780   -0.2760    0.4650 C   0  0  0  0  0  0  0  0  0  0  0  0
    1.6430    0.4650   -0.6000 C   0  0  0  0  0  0  0  0  0  0  0  0
    0.2320    0.4220   -0.9860 C   0  0  0  0  0  0  0  0  0  0  0  0
   -0.8170   -0.1150   -0.2850 C   0  0  0  0  0  0  0  0  0  0  0  0
   -1.9850    0.0970   -0.9790 C   0  0  0  0  0  0  0  0  0  0  0  0
   -3.3020   -0.3040   -0.5770 N   0  0  0  0  0  0  0  0  0  0  0  0
   -4.0690    0.4420    0.4170 C   0  0  0  0  0  0  0  0  0  0  0  0
   -5.4790    0.2900   -0.1050 C   0  0  0  0  0  0  0  0  0  0  0  0
   -5.4940   -1.1850   -0.4880 C   0  0  0  0  0  0  0  0  0  0  0  0
   -4.1100   -1.4040   -0.9990 C   0  0  0  0  0  0  0  0  0  0  0  0
   -1.6100    0.7600   -2.0900 N   0  0  0  0  0  0  0  0  0  0  0  0
   -0.3090    0.9590   -2.1080 N   0  0  0  0  0  0  0  0  0  0  0  0
  1  2  2  0
  2  3  1  0
  2 13  1  0
  3  4  1  0
  4  5  2  0
  4 11  1  0
  5  6  1  0
  5  7  1  0
  7  8  2  0
  8  9  1  0
  8 10  1  0
 10 11  2  0
 11 12  1  0
 12 13  2  0
 13 14  1  0
 14 15  1  0
 14 23  2  0
 15 16  2  0
 16 17  1  0
 16 22  1  0
 17 18  1  0
 17 21  1  0
 18 19  1  0
 19 20  1  0
 20 21  1  0
 22 23  1  0
M  END
