
     RDKit          3D

 20 22  0  0  0  0  0  0  0  0999 V2000
    5.8710    1.0180   -1.6830 O   0  0  0  0  0  0  0  0  0  0  0  0
    5.4200    0.9500   -0.3470 C   0  0  0  0  0  0  0  0  0  0  0  0
    4.0310    0.3640   -0.3210 C   0  0  0  0  0  0  0  0  0  0  0  0
    3.8220   -0.9590   -0.4680 C   0  0  0  0  0  0  0  0  0  0  0  0
    2.5720   -1.4550   -0.3570 C   0  0  0  0  0  0  0  0  0  0  0  0
    1.4310   -0.6760   -0.0860 C   0  0  0  0  0  0  0  0  0  0  0  0
    0.2930   -1.2470   -0.0050 O   0  0  0  0  0  0  0  0  0  0  0  0
   -1.0020   -1.3150    0.1030 C   0  0  0  0  0  0  0  0  0  0  0  0
   -1.7370   -2.4900    0.1400 C   0  0  0  0  0  0  0  0  0  0  0  0
   -3.1240   -2.4390    0.2780 C   0  0  0  0  0  0  0  0  0  0  0  0
   -3.8370   -1.3240    0.3700 C   0  0  0  0  0  0  0  0  0  0  0  0
   -3.1270   -0.1130    0.3370 C   0  0  0  0  0  0  0  0  0  0  0  0
   -1.7600   -0.1560    0.2130 C   0  0  0  0  0  0  0  0  0  0  0  0
   -4.1030    1.0020    0.2930 C   0  0  1  0  0  0  0  0  0  0  0  0
   -3.7310    1.9040   -0.7140 O   0  0  0  0  0  0  0  0  0  0  0  0
   -5.3850    0.2790   -0.1290 C   0  0  0  0  0  0  0  0  0  0  0  0
   -5.2110   -0.9590    0.5160 O   0  0  0  0  0  0  0  0  0  0  0  0
    1.6890    0.6920    0.0640 C   0  0  0  0  0  0  0  0  0  0  0  0
    2.9830    1.2010   -0.0600 C   0  0  0  0  0  0  0  0  0  0  0  0
    3.2260    2.5500    0.0680 O   0  0  0  0  0  0  0  0  0  0  0  0
  1  2  1  0
  2  3  1  0
  3  4  2  0
  3 19  1  0
  4  5  1  0
  5  6  2  0
  6  7  1  0
  6 18  1  0
  7  8  1  0
  8  9  2  0
  8 13  1  0
  9 10  1  0
 10 11  2  0
 11 12  1  0
 11 17  1  0
 12 13  2  0
 12 14  1  0
 14 15  1  6
 14 16  1  0
 16 17  1  0
 18 19  2  0
 19 20  1  0
M  END
