
     RDKit          3D

 21 22  0  0  0  0  0  0  0  0999 V2000
   -4.2910    3.8580    0.9960 O   0  0  0  0  0  0  0  0  0  0  0  0
   -2.9690    3.4900    0.9490 C   0  0  0  0  0  0  0  0  0  0  0  0
   -2.6480    2.2850    0.5280 C   0  0  0  0  0  0  0  0  0  0  0  0
   -3.6730    1.4070    0.1370 O   0  0  0  0  0  0  0  0  0  0  0  0
   -1.2630    1.8230    0.4520 C   0  0  0  0  0  0  0  0  0  0  0  0
   -1.0250    0.6170    0.0240 C   0  0  0  0  0  0  0  0  0  0  0  0
   -2.1030   -0.2170   -0.3560 O   0  0  0  0  0  0  0  0  0  0  0  0
   -1.8420   -1.6190   -0.2580 C   0  0  1  0  0  0  0  0  0  0  0  0
   -3.0610   -2.3680   -0.7530 C   0  0  0  0  0  0  0  0  0  0  0  0
   -3.2850   -2.0110   -2.0680 O   0  0  0  0  0  0  0  0  0  0  0  0
   -0.6590   -1.9250   -1.1560 C   0  0  0  0  0  0  0  0  0  0  0  0
    0.4680   -1.3050   -0.5820 O   0  0  0  0  0  0  0  0  0  0  0  0
    0.2890    0.0180   -0.1070 C   0  0  0  0  0  0  0  0  0  0  0  0
    1.3500    0.7210    0.2250 C   0  0  0  0  0  0  0  0  0  0  0  0
    2.7170    0.1610    0.1130 C   0  0  0  0  0  0  0  0  0  0  0  0
    3.0970   -0.6150   -0.9640 C   0  0  0  0  0  0  0  0  0  0  0  0
    4.3870   -1.1490   -1.0580 C   0  0  0  0  0  0  0  0  0  0  0  0
    5.2880   -0.8880   -0.0490 C   0  0  0  0  0  0  0  0  0  0  0  0
    4.9500   -0.1220    1.0360 C   0  0  0  0  0  0  0  0  0  0  0  0
    3.6660    0.3860    1.0900 C   0  0  0  0  0  0  0  0  0  0  0  0
    3.3210    1.1600    2.1870 O   0  0  0  0  0  0  0  0  0  0  0  0
  1  2  1  0
  2  3  2  3
  3  4  1  0
  3  5  1  0
  5  6  2  3
  6  7  1  0
  6 13  1  0
  7  8  1  0
  8  9  1  6
  8 11  1  0
  9 10  1  0
 11 12  1  0
 12 13  1  0
 13 14  2  3
 14 15  1  0
 15 16  2  0
 15 20  1  0
 16 17  1  0
 17 18  2  0
 18 19  1  0
 19 20  2  0
 20 21  1  0
M  END
