
     RDKit          3D

 21 23  0  0  0  0  0  0  0  0999 V2000
    4.8880    0.5910   -0.6870 C   0  0  0  0  0  0  0  0  0  0  0  0
    4.2230   -0.7060   -1.0960 C   0  0  2  0  0  0  0  0  0  0  0  0
    4.5760   -0.9850   -2.4030 O   0  0  0  0  0  0  0  0  0  0  0  0
    2.7160   -0.5630   -0.9400 C   0  0  0  0  0  0  0  0  0  0  0  0
    2.3810   -0.2790    0.3970 O   0  0  0  0  0  0  0  0  0  0  0  0
    1.0640   -0.1090    0.7620 C   0  0  0  0  0  0  0  0  0  0  0  0
    0.0620   -0.2150   -0.1760 C   0  0  0  0  0  0  0  0  0  0  0  0
   -1.2710   -0.0420    0.2010 C   0  0  0  0  0  0  0  0  0  0  0  0
   -1.5440    0.2320    1.5150 C   0  0  0  0  0  0  0  0  0  0  0  0
   -0.5090    0.3380    2.4630 C   0  0  0  0  0  0  0  0  0  0  0  0
    0.8010    0.1670    2.0870 C   0  0  0  0  0  0  0  0  0  0  0  0
    1.8440    0.2710    3.0280 O   0  0  0  0  0  0  0  0  0  0  0  0
   -3.0120    0.3670    1.6420 C   0  0  1  0  0  0  0  0  0  0  0  0
   -3.2960    1.6950    1.9860 O   0  0  0  0  0  0  0  0  0  0  0  0
   -3.5090    0.1400    0.2730 C   0  0  0  0  0  0  0  0  0  0  0  0
   -4.8220    0.1440   -0.2140 C   0  0  0  0  0  0  0  0  0  0  0  0
   -4.9860   -0.1030   -1.5540 C   0  0  0  0  0  0  0  0  0  0  0  0
   -3.9220   -0.3460   -2.3960 C   0  0  0  0  0  0  0  0  0  0  0  0
   -4.1760   -0.5610   -3.6060 O   0  0  0  0  0  0  0  0  0  0  0  0
   -2.7370   -0.3350   -1.8810 O   0  0  0  0  0  0  0  0  0  0  0  0
   -2.4810   -0.1080   -0.6070 C   0  0  0  0  0  0  0  0  0  0  0  0
  2  1  1  6
  2  3  1  0
  2  4  1  0
  4  5  1  0
  5  6  1  0
  6  7  2  0
  6 11  1  0
  7  8  1  0
  8  9  2  0
  8 21  1  0
  9 10  1  0
  9 13  1  0
 10 11  2  0
 11 12  1  0
 13 14  1  6
 13 15  1  0
 15 16  1  0
 15 21  2  0
 16 17  2  0
 17 18  1  0
 18 19  2  0
 18 20  1  0
 20 21  1  0
M  END
