
     RDKit          3D

 21 23  0  0  0  0  0  0  0  0999 V2000
   -1.7200   -2.4660    1.9230 O   0  0  0  0  0  0  0  0  0  0  0  0
   -1.3610   -1.5000    1.1930 C   0  0  0  0  0  0  0  0  0  0  0  0
   -0.0280   -1.2170    1.0130 C   0  0  0  0  0  0  0  0  0  0  0  0
    0.3820   -0.1690    0.2210 C   0  0  0  0  0  0  0  0  0  0  0  0
    1.7910    0.1610    0.0070 C   0  0  0  0  0  0  0  0  0  0  0  0
    2.0940    1.2230   -0.7980 C   0  0  0  0  0  0  0  0  0  0  0  0
    3.4050    1.5900   -1.0440 C   0  0  0  0  0  0  0  0  0  0  0  0
    4.4110    0.8400   -0.4420 C   0  0  0  0  0  0  0  0  0  0  0  0
    5.7310    1.2320   -0.7070 O   0  0  0  0  0  0  0  0  0  0  0  0
    4.1240   -0.2340    0.3720 C   0  0  0  0  0  0  0  0  0  0  0  0
    5.1690   -0.9340    0.9360 O   0  0  0  0  0  0  0  0  0  0  0  0
    2.7900   -0.5520    0.5800 C   0  0  0  0  0  0  0  0  0  0  0  0
   -0.5520    0.5450   -0.3500 O   0  0  0  0  0  0  0  0  0  0  0  0
   -1.8330    0.3210   -0.2140 C   0  0  0  0  0  0  0  0  0  0  0  0
   -2.7380    1.1680   -0.8860 C   0  0  0  0  0  0  0  0  0  0  0  0
   -4.0850    0.9810   -0.7790 C   0  0  0  0  0  0  0  0  0  0  0  0
   -4.9660    1.8260   -1.4490 O   0  0  0  0  0  0  0  0  0  0  0  0
   -4.5190   -0.0500   -0.0020 C   0  0  0  0  0  0  0  0  0  0  0  0
   -3.6600   -0.9230    0.6900 C   0  0  0  0  0  0  0  0  0  0  0  0
   -4.1690   -1.9210    1.4400 O   0  0  0  0  0  0  0  0  0  0  0  0
   -2.3050   -0.7190    0.5700 C   0  0  0  0  0  0  0  0  0  0  0  0
  1  2  2  0
  2  3  1  0
  2 21  1  0
  3  4  2  0
  4  5  1  0
  4 13  1  0
  5  6  2  0
  5 12  1  0
  6  7  1  0
  7  8  2  0
  8  9  1  0
  8 10  1  0
 10 11  1  0
 10 12  2  0
 13 14  1  0
 14 15  2  0
 14 21  1  0
 15 16  1  0
 16 17  1  0
 16 18  2  0
 18 19  1  0
 19 20  1  0
 19 21  2  0
M  END
