
     RDKit          3D

 20 22  0  0  0  0  0  0  0  0999 V2000
    5.4660    1.1600    0.2160 C   0  0  0  0  0  0  0  0  0  0  0  0
    4.8630    0.0440   -0.3940 O   0  0  0  0  0  0  0  0  0  0  0  0
    3.4800   -0.0660   -0.3450 C   0  0  0  0  0  0  0  0  0  0  0  0
    2.7260    0.8930    0.2840 C   0  0  0  0  0  0  0  0  0  0  0  0
    1.3570    0.7570    0.3160 C   0  0  0  0  0  0  0  0  0  0  0  0
    0.3950    1.5090    0.8400 O   0  0  0  0  0  0  0  0  0  0  0  0
   -0.7870    0.9610    0.6130 C   0  0  0  0  0  0  0  0  0  0  0  0
   -2.0710    1.3210    0.9320 C   0  0  0  0  0  0  0  0  0  0  0  0
   -3.1300    0.4910    0.5290 C   0  0  0  0  0  0  0  0  0  0  0  0
   -4.4850    0.8980    0.8810 C   0  0  0  0  0  0  0  0  0  0  0  0
   -5.4550    0.1970    0.5460 O   0  0  0  0  0  0  0  0  0  0  0  0
   -4.7430    2.0630    1.5900 O   0  0  0  0  0  0  0  0  0  0  0  0
   -2.9190   -0.6700   -0.1750 C   0  0  0  0  0  0  0  0  0  0  0  0
   -4.0400   -1.5380   -0.5950 C   0  0  0  0  0  0  0  0  0  0  0  0
   -1.5950   -1.0050   -0.4820 C   0  0  0  0  0  0  0  0  0  0  0  0
   -0.5730   -0.2020   -0.0920 C   0  0  0  0  0  0  0  0  0  0  0  0
    0.8020   -0.3480   -0.2910 C   0  0  0  0  0  0  0  0  0  0  0  0
    1.5500   -1.3180   -0.9260 C   0  0  0  0  0  0  0  0  0  0  0  0
    2.9220   -1.1790   -0.9560 C   0  0  0  0  0  0  0  0  0  0  0  0
    3.7580   -2.0980   -1.5680 O   0  0  0  0  0  0  0  0  0  0  0  0
  1  2  1  0
  2  3  1  0
  3  4  2  0
  3 19  1  0
  4  5  1  0
  5  6  1  0
  5 17  2  0
  6  7  1  0
  7  8  2  0
  7 16  1  0
  8  9  1  0
  9 10  1  0
  9 13  2  0
 10 11  2  0
 10 12  1  0
 13 14  1  0
 13 15  1  0
 15 16  2  0
 16 17  1  0
 17 18  1  0
 18 19  2  0
 19 20  1  0
M  END
