
     RDKit          3D

 21 22  0  0  0  0  0  0  0  0999 V2000
    4.2310   -1.3390    1.5170 C   0  0  0  0  0  0  0  0  0  0  0  0
    4.5210   -0.4050    0.6450 C   0  0  0  0  0  0  0  0  0  0  0  0
    5.8300    0.0560    0.6030 O   0  0  0  0  0  0  0  0  0  0  0  0
    3.5370    0.1330   -0.2430 C   0  0  0  0  0  0  0  0  0  0  0  0
    3.8660    1.0860   -1.0900 C   0  0  0  0  0  0  0  0  0  0  0  0
    2.1540   -0.3150   -0.2610 C   0  0  0  0  0  0  0  0  0  0  0  0
    1.1420    0.6140    0.0130 C   0  0  0  0  0  0  0  0  0  0  0  0
   -0.1610    0.2030   -0.0310 C   0  0  0  0  0  0  0  0  0  0  0  0
   -1.1840    1.0810    0.2320 C   0  0  0  0  0  0  0  0  0  0  0  0
   -0.9340    2.3880    0.5440 O   0  0  0  0  0  0  0  0  0  0  0  0
   -2.5000    0.6010    0.1720 C   0  0  0  0  0  0  0  0  0  0  0  0
   -3.5560    1.4760    0.4350 O   0  0  0  0  0  0  0  0  0  0  0  0
   -4.1760    2.2310   -0.5680 C   0  0  0  0  0  0  0  0  0  0  0  0
   -2.8030   -0.7040   -0.1370 C   0  0  0  0  0  0  0  0  0  0  0  0
   -4.2330   -1.1770   -0.1910 C   0  0  0  0  0  0  0  0  0  0  0  0
   -4.1860   -2.5280   -0.5270 O   0  0  0  0  0  0  0  0  0  0  0  0
   -1.7530   -1.5530   -0.3940 C   0  0  0  0  0  0  0  0  0  0  0  0
   -0.4230   -1.1210   -0.3470 C   0  0  0  0  0  0  0  0  0  0  0  0
    0.5210   -1.9840   -0.6020 O   0  0  0  0  0  0  0  0  0  0  0  0
    1.7670   -1.5940   -0.5610 C   0  0  0  0  0  0  0  0  0  0  0  0
    2.6980   -2.4370   -0.8160 O   0  0  0  0  0  0  0  0  0  0  0  0
  1  2  2  0
  2  3  1  0
  2  4  1  0
  4  5  2  0
  4  6  1  0
  6  7  2  0
  6 20  1  0
  7  8  1  0
  8  9  2  0
  8 18  1  0
  9 10  1  0
  9 11  1  0
 11 12  1  0
 11 14  2  0
 12 13  1  0
 14 15  1  0
 14 17  1  0
 15 16  1  0
 17 18  2  0
 18 19  1  0
 19 20  1  0
 20 21  2  0
M  END
