
     RDKit          3D

 15 15  0  0  0  0  0  0  0  0999 V2000
   -1.9300    1.8160    1.0710 C   0  0  0  0  0  0  0  0  0  0  0  0
   -2.0490    0.5220    0.7080 O   0  0  0  0  0  0  0  0  0  0  0  0
   -1.7420    0.1230   -0.5420 C   0  0  2  0  0  0  0  0  0  0  0  0
   -2.9550   -0.2990   -1.3660 C   0  0  0  0  0  0  0  0  0  0  0  0
   -2.5430   -0.6940   -2.6380 O   0  0  0  0  0  0  0  0  0  0  0  0
   -0.6960   -0.9500   -0.5390 C   0  0  2  0  0  0  0  0  0  0  0  0
   -1.1680   -2.1160    0.1920 N   0  0  0  0  0  0  0  0  0  0  0  0
    0.6030   -0.4600    0.0600 C   0  0  1  0  0  0  0  0  0  0  0  0
    1.5640   -1.6540   -0.0820 C   0  0  0  0  0  0  0  0  0  0  0  0
    1.1320    0.6230   -0.8130 C   0  0  0  0  0  0  0  0  0  0  0  0
    2.6350    0.7170   -0.8590 C   0  0  0  0  0  0  0  0  0  0  0  0
    3.1250    0.5920    0.4290 O   0  0  0  0  0  0  0  0  0  0  0  0
    2.3700    1.2260    1.3900 C   0  0  0  0  0  0  0  0  0  0  0  0
    1.4600    0.2390    2.1070 C   0  0  0  0  0  0  0  0  0  0  0  0
    0.3940   -0.1510    1.3640 O   0  0  0  0  0  0  0  0  0  0  0  0
  1  2  1  0
  2  3  1  0
  3  4  1  1
  3  6  1  0
  4  5  1  0
  6  7  1  1
  6  8  1  0
  8  9  1  1
  8 10  1  0
  8 15  1  0
 10 11  1  0
 11 12  1  0
 12 13  1  0
 13 14  1  0
 14 15  1  0
M  CHG  1   7   1
M  END
