
     RDKit          3D

 15 15  0  0  0  0  0  0  0  0999 V2000
    3.4820    2.0420   -0.2150 C   0  0  0  0  0  0  0  0  0  0  0  0
    3.0020    0.8520   -0.7040 O   0  0  0  0  0  0  0  0  0  0  0  0
    2.9040   -0.1390    0.2390 C   0  0  0  0  0  0  0  0  0  0  0  0
    2.3750   -1.4380   -0.3180 C   0  0  0  0  0  0  0  0  0  0  0  0
    1.1430   -1.3990   -0.8650 O   0  0  0  0  0  0  0  0  0  0  0  0
    0.0910   -1.0300   -0.0720 C   0  0  1  0  0  0  0  0  0  0  0  0
   -0.5160    0.1960   -0.7160 C   0  0  0  0  0  0  0  0  0  0  0  0
   -1.6800    0.7520    0.0640 C   0  0  2  0  0  0  0  0  0  0  0  0
   -2.6500    1.5020   -0.8240 C   0  0  0  0  0  0  0  0  0  0  0  0
   -1.1240    1.7300    1.0750 C   0  0  0  0  0  0  0  0  0  0  0  0
   -0.4660    2.7400    0.3760 O   0  0  0  0  0  0  0  0  0  0  0  0
   -2.3550   -0.2950    0.6450 O   0  0  0  0  0  0  0  0  0  0  0  0
   -2.3190   -1.3630   -0.2480 C   0  0  0  0  0  0  0  0  0  0  0  0
   -1.0060   -2.0820   -0.0170 C   0  0  2  0  0  0  0  0  0  0  0  0
   -1.1150   -2.6540    1.3240 N   0  0  0  0  0  0  0  0  0  0  0  0
  1  2  1  0
  2  3  1  0
  3  4  1  0
  4  5  1  0
  6  5  1  6
  6  7  1  0
  6 14  1  0
  7  8  1  0
  8  9  1  6
  8 10  1  0
  8 12  1  0
 10 11  1  0
 12 13  1  0
 13 14  1  0
 14 15  1  1
M  CHG  1  15   1
M  END
