
     RDKit          3D

 15 15  0  0  0  0  0  0  0  0999 V2000
   -3.7700    2.1500   -0.0080 C   0  0  0  0  0  0  0  0  0  0  0  0
   -2.3640    1.6190   -0.3130 C   0  0  0  0  0  0  0  0  0  0  0  0
   -2.3220    0.3060    0.0440 O   0  0  0  0  0  0  0  0  0  0  0  0
   -1.1050   -0.3410   -0.1720 C   0  0  2  0  0  0  0  0  0  0  0  0
   -1.4400   -1.8290    0.0440 C   0  0  0  0  0  0  0  0  0  0  0  0
   -1.9350   -2.0510    1.3840 N   0  0  0  0  0  0  0  0  0  0  0  0
   -0.0060    0.1130    0.6980 C   0  0  0  0  0  0  0  0  0  0  0  0
    1.3830    0.0190    0.1280 C   0  0  2  0  0  0  0  0  0  0  0  0
    1.9590   -1.1870    0.4950 O   0  0  0  0  0  0  0  0  0  0  0  0
    2.2280    1.1390    0.6690 C   0  0  0  0  0  0  0  0  0  0  0  0
    3.4920    1.1290    0.1670 O   0  0  0  0  0  0  0  0  0  0  0  0
    4.2870    0.0560    0.4100 C   0  0  0  0  0  0  0  0  0  0  0  0
    1.4140    0.1230   -1.3730 C   0  0  0  0  0  0  0  0  0  0  0  0
    0.3240   -0.7440   -1.9520 C   0  0  0  0  0  0  0  0  0  0  0  0
   -0.8780   -0.2380   -1.5430 O   0  0  0  0  0  0  0  0  0  0  0  0
  1  2  1  0
  2  3  1  0
  3  4  1  0
  4  5  1  6
  4  7  1  0
  4 15  1  0
  5  6  1  0
  7  8  1  0
  8  9  1  6
  8 10  1  0
  8 13  1  0
 10 11  1  0
 11 12  1  0
 13 14  1  0
 14 15  1  0
M  CHG  1   6   1
M  END
