
     RDKit          3D

 15 15  0  0  0  0  0  0  0  0999 V2000
    4.5240    0.6420    0.5790 C   0  0  0  0  0  0  0  0  0  0  0  0
    3.6690   -0.0650    1.2980 O   0  0  0  0  0  0  0  0  0  0  0  0
    2.8980   -1.0640    0.9340 C   0  0  0  0  0  0  0  0  0  0  0  0
    1.8140   -0.9080   -0.0190 C   0  0  2  0  0  0  0  0  0  0  0  0
    2.2140   -0.4180   -1.3790 C   0  0  0  0  0  0  0  0  0  0  0  0
    0.8760   -0.4230   -1.9460 O   0  0  0  0  0  0  0  0  0  0  0  0
    0.1760    0.2760   -0.9420 C   0  0  1  0  0  0  0  0  0  0  0  0
   -1.2440   -0.2090   -0.9600 C   0  0  2  0  0  0  0  0  0  0  0  0
   -1.8400    0.0490   -2.2630 N   0  0  0  0  0  0  0  0  0  0  0  0
   -2.0710    0.3600    0.1580 C   0  0  2  0  0  0  0  0  0  0  0  0
   -2.1510    1.8610    0.1230 C   0  0  0  0  0  0  0  0  0  0  0  0
   -1.4800   -0.1020    1.4700 C   0  0  0  0  0  0  0  0  0  0  0  0
   -3.4740   -0.1810    0.0770 C   0  0  0  0  0  0  0  0  0  0  0  0
   -3.5430   -1.5490    0.1770 O   0  0  0  0  0  0  0  0  0  0  0  0
    0.8040    0.0100    0.2790 O   0  0  0  0  0  0  0  0  0  0  0  0
  1  2  1  0
  2  3  1  0
  4  3  1  1
  4  5  1  0
  4 15  1  0
  5  6  1  0
  7  6  1  6
  7  8  1  0
  7 15  1  0
  8  9  1  6
  8 10  1  0
 10 11  1  1
 10 12  1  0
 10 13  1  0
 13 14  1  0
M  CHG  1   9   1
M  END
