
     RDKit          3D

 15 15  0  0  0  0  0  0  0  0999 V2000
    5.1430   -0.4090   -1.0420 C   0  0  0  0  0  0  0  0  0  0  0  0
    4.0930   -0.7090   -1.8490 O   0  0  0  0  0  0  0  0  0  0  0  0
    2.8630   -0.3810   -1.3470 C   0  0  0  0  0  0  0  0  0  0  0  0
    2.7340    1.0800   -1.1010 C   0  0  0  0  0  0  0  0  0  0  0  0
    1.4470    1.4360   -0.5890 O   0  0  0  0  0  0  0  0  0  0  0  0
    1.0020    0.9470    0.6040 C   0  0  0  0  0  0  0  0  0  0  0  0
    1.6990    0.1790    1.2870 O   0  0  0  0  0  0  0  0  0  0  0  0
   -0.3350    1.3320    1.1010 C   0  0  0  0  0  0  0  0  0  0  0  0
   -1.3630    0.2440    0.8050 C   0  0  1  0  0  0  0  0  0  0  0  0
   -0.9290   -0.9130    1.4510 O   0  0  0  0  0  0  0  0  0  0  0  0
   -2.7410    0.6520    1.2000 C   0  0  0  0  0  0  0  0  0  0  0  0
   -3.6490    0.3880    0.0200 C   0  0  0  0  0  0  0  0  0  0  0  0
   -2.8470   -0.5030   -0.8680 C   0  0  2  0  0  0  0  0  0  0  0  0
   -3.0390   -1.8880   -0.4830 N   0  0  0  0  0  0  0  0  0  0  0  0
   -1.4440   -0.0340   -0.6710 C   0  0  0  0  0  0  0  0  0  0  0  0
  1  2  1  0
  2  3  1  0
  3  4  1  0
  4  5  1  0
  5  6  1  0
  6  7  2  0
  6  8  1  0
  8  9  1  0
  9 10  1  1
  9 11  1  0
  9 15  1  0
 11 12  1  0
 12 13  1  0
 13 14  1  1
 13 15  1  0
M  CHG  1  14   1
M  END
