
     RDKit          3D

 15 15  0  0  0  0  0  0  0  0999 V2000
   -1.5340    0.4190   -3.2530 C   0  0  0  0  0  0  0  0  0  0  0  0
   -1.8560   -0.3750   -2.2600 C   0  0  0  0  0  0  0  0  0  0  0  0
   -2.4660   -1.5990   -2.6110 O   0  0  0  0  0  0  0  0  0  0  0  0
   -1.6130   -0.0510   -0.8600 C   0  0  0  0  0  0  0  0  0  0  0  0
   -1.9950   -0.9130    0.0540 C   0  0  0  0  0  0  0  0  0  0  0  0
   -1.7740   -0.6250    1.4830 C   0  0  0  0  0  0  0  0  0  0  0  0
   -3.1200   -0.6450    2.0920 N   0  0  0  0  0  0  0  0  0  0  0  0
   -1.0020    1.1100   -0.4550 O   0  0  0  0  0  0  0  0  0  0  0  0
    0.3480    1.3160   -0.6480 C   0  0  0  0  0  0  0  0  0  0  0  0
    1.3070    0.3570   -0.0060 C   0  0  1  0  0  0  0  0  0  0  0  0
    2.6860    0.7490   -0.5480 C   0  0  0  0  0  0  0  0  0  0  0  0
    3.7000    0.0350    0.0440 O   0  0  0  0  0  0  0  0  0  0  0  0
    3.6010    0.0630    1.4350 C   0  0  0  0  0  0  0  0  0  0  0  0
    2.2700   -0.5770    1.7770 C   0  0  0  0  0  0  0  0  0  0  0  0
    1.2820    0.3080    1.3580 O   0  0  0  0  0  0  0  0  0  0  0  0
  1  2  2  0
  2  3  1  0
  2  4  1  0
  4  5  2  3
  4  8  1  0
  5  6  1  0
  6  7  1  0
  8  9  1  0
 10  9  1  1
 10 11  1  0
 10 15  1  0
 11 12  1  0
 12 13  1  0
 13 14  1  0
 14 15  1  0
M  CHG  1   7   1
M  END
