
     RDKit          3D

 15 15  0  0  0  0  0  0  0  0999 V2000
    4.8810    1.3600   -0.2910 C   0  0  0  0  0  0  0  0  0  0  0  0
    4.1530    0.2080    0.0310 O   0  0  0  0  0  0  0  0  0  0  0  0
    2.7490    0.2350    0.2570 C   0  0  0  0  0  0  0  0  0  0  0  0
    2.2810    1.3760    0.1330 O   0  0  0  0  0  0  0  0  0  0  0  0
    2.0740   -1.0170    0.5880 C   0  0  0  0  0  0  0  0  0  0  0  0
    0.7810   -1.1020    0.8440 O   0  0  0  0  0  0  0  0  0  0  0  0
   -0.2050   -0.7290   -0.0020 C   0  0  1  0  0  0  0  0  0  0  0  0
   -0.1020   -1.2850   -1.3780 C   0  0  0  0  0  0  0  0  0  0  0  0
   -0.1470   -2.6790   -1.2930 O   0  0  0  0  0  0  0  0  0  0  0  0
   -1.4700   -1.5110    0.5300 C   0  0  0  0  0  0  0  0  0  0  0  0
   -2.6600   -1.2080   -0.3630 C   0  0  0  0  0  0  0  0  0  0  0  0
   -2.8720    0.2680   -0.5380 C   0  0  0  0  0  0  0  0  0  0  0  0
   -2.0380    0.9600    0.4720 C   0  0  2  0  0  0  0  0  0  0  0  0
   -2.2140    2.4020    0.4660 N   0  0  0  0  0  0  0  0  0  0  0  0
   -0.5540    0.7000    0.1630 C   0  0  0  0  0  0  0  0  0  0  0  0
  1  2  1  0
  2  3  1  0
  3  4  2  0
  3  5  1  0
  5  6  1  0
  6  7  1  0
  7  8  1  6
  7 10  1  0
  7 15  1  0
  8  9  1  0
 10 11  1  0
 11 12  1  0
 12 13  1  0
 13 14  1  6
 13 15  1  0
M  CHG  1  14   1
M  END
