
     RDKit          3D

 22 24  0  0  0  0  0  0  0  0999 V2000
    4.1650    2.4460    0.0390 C   0  0  0  0  0  0  0  0  0  0  0  0
    4.3330    1.0060    0.4930 C   0  0  0  0  0  0  0  0  0  0  0  0
    3.0620    0.4720    0.6890 O   0  0  0  0  0  0  0  0  0  0  0  0
    2.1050    0.3870   -0.3450 C   0  0  0  0  0  0  0  0  0  0  0  0
    2.5160    0.8370   -1.4400 O   0  0  0  0  0  0  0  0  0  0  0  0
    0.7970   -0.1880   -0.0500 C   0  0  2  0  0  0  0  0  0  0  0  0
    0.9610   -1.6410    0.3730 C   0  0  2  0  0  0  0  0  0  0  0  0
    1.7810   -1.5910    1.6520 C   0  0  0  0  0  0  0  0  0  0  0  0
    1.7640   -2.4330   -0.6280 C   0  0  0  0  0  0  0  0  0  0  0  0
   -0.3330   -2.3040    0.7180 C   0  0  0  0  0  0  0  0  0  0  0  0
   -1.4940   -1.9120   -0.1390 C   0  0  1  0  0  0  0  0  0  0  0  0
   -2.2200   -3.1860   -0.5470 C   0  0  0  0  0  0  0  0  0  0  0  0
   -2.4980   -1.0550    0.6060 C   0  0  0  0  0  0  0  0  0  0  0  0
   -2.0020    0.3290    0.8480 C   0  0  2  0  0  0  0  0  0  0  0  0
   -3.1200    1.3810    0.9730 C   0  0  0  0  0  0  0  0  0  0  0  0
   -2.2790    2.6000    0.6360 C   0  0  0  0  0  0  0  0  0  0  0  0
   -2.5760    3.9450    1.2070 C   0  0  0  0  0  0  0  0  0  0  0  0
   -1.3080    2.2440   -0.2020 C   0  0  0  0  0  0  0  0  0  0  0  0
   -1.4500    0.8380   -0.4530 C   0  0  1  0  0  0  0  0  0  0  0  0
   -0.3030    0.0660   -0.9970 C   0  0  1  0  0  0  0  0  0  0  0  0
    0.1420    0.7650   -2.2640 C   0  0  0  0  0  0  0  0  0  0  0  0
   -0.9740   -1.2680   -1.3750 C   0  0  0  0  0  0  0  0  0  0  0  0
  1  2  1  0
  2  3  1  0
  3  4  1  0
  4  5  2  0
  6  4  1  6
  6  7  1  0
  6 20  1  0
  7  8  1  1
  7  9  1  0
  7 10  1  0
 10 11  1  0
 11 12  1  6
 11 13  1  0
 11 22  1  0
 14 13  1  6
 14 15  1  0
 14 19  1  0
 15 16  1  0
 16 17  1  0
 16 18  2  0
 19 18  1  1
 19 20  1  0
 20 21  1  6
 20 22  1  0
M  END
