
     RDKit          3D

 10  9  0  0  0  0  0  0  0  0999 V2000
    3.2820   -0.5160    1.0840 O   0  0  0  0  0  0  0  0  0  0  0  0
    3.1380   -0.0490   -0.2230 C   0  0  0  0  0  0  0  0  0  0  0  0
    2.3070   -1.0140   -1.0090 C   0  0  0  0  0  0  0  0  0  0  0  0
    1.0650   -1.1710   -0.4570 O   0  0  0  0  0  0  0  0  0  0  0  0
    0.3530   -0.0010   -0.4190 C   0  0  0  0  0  0  0  0  0  0  0  0
   -0.8870   -0.3130    0.1530 O   0  0  0  0  0  0  0  0  0  0  0  0
   -1.7030    0.8150    0.2430 C   0  0  0  0  0  0  0  0  0  0  0  0
   -3.0110    0.3290    0.8800 C   0  0  2  0  0  0  0  0  0  0  0  0
   -3.6150   -0.6530    0.0980 O   0  0  0  0  0  0  0  0  0  0  0  0
   -3.9290    1.3760    0.9840 O   0  0  0  0  0  0  0  0  0  0  0  0
  1  2  1  0
  2  3  1  0
  3  4  1  0
  4  5  1  0
  5  6  1  0
  6  7  1  0
  7  8  1  0
  8  9  1  6
  8 10  1  0
M  END
