
     RDKit          3D

 10  9  0  0  0  0  0  0  0  0999 V2000
    0.3970   -1.3080   -1.5200 O   0  0  0  0  0  0  0  0  0  0  0  0
    0.5550   -0.3920   -0.6760 C   0  0  0  0  0  0  0  0  0  0  0  0
    1.6210    0.6210   -0.9060 C   0  0  0  0  0  0  0  0  0  0  0  0
    2.7170    0.5250    0.1370 C   0  0  0  0  0  0  0  0  0  0  0  0
    2.1800    0.7510    1.4260 O   0  0  0  0  0  0  0  0  0  0  0  0
   -0.2570   -0.3650    0.4170 O   0  0  0  0  0  0  0  0  0  0  0  0
   -1.2850   -1.2630    0.7240 C   0  0  0  0  0  0  0  0  0  0  0  0
   -2.2990   -1.2600   -0.2470 O   0  0  0  0  0  0  0  0  0  0  0  0
   -2.8380    0.0390   -0.3130 C   0  0  0  0  0  0  0  0  0  0  0  0
   -1.8690    0.9590   -0.6620 O   0  0  0  0  0  0  0  0  0  0  0  0
  1  2  2  0
  2  3  1  0
  2  6  1  0
  3  4  1  0
  4  5  1  0
  6  7  1  0
  7  8  1  0
  8  9  1  0
  9 10  1  0
M  END
