
     RDKit          3D

 22 24  0  0  0  0  0  0  0  0999 V2000
    4.2630   -0.3870   -2.0680 C   0  0  0  0  0  0  0  0  0  0  0  0
    3.3620   -0.6110   -0.8640 C   0  0  0  0  0  0  0  0  0  0  0  0
    4.0520   -0.8610    0.4210 C   0  0  0  0  0  0  0  0  0  0  0  0
    2.0690   -0.5840   -1.0350 C   0  0  0  0  0  0  0  0  0  0  0  0
    1.0850   -0.7780    0.0170 C   0  0  2  0  0  0  0  0  0  0  0  0
    0.3180   -2.0440   -0.3500 C   0  0  0  0  0  0  0  0  0  0  0  0
   -0.9300   -1.8790    0.4210 C   0  0  0  0  0  0  0  0  0  0  0  0
   -1.1890   -0.3870    0.5240 C   0  0  2  0  0  0  0  0  0  0  0  0
   -1.4450   -0.1450    1.9080 O   0  0  0  0  0  0  0  0  0  0  0  0
   -2.4180   -0.0600   -0.1840 C   0  0  1  0  0  0  0  0  0  0  0  0
   -2.5810   -0.4250   -1.6130 C   0  0  0  0  0  0  0  0  0  0  0  0
   -3.9870   -1.0220   -1.7670 C   0  0  0  0  0  0  0  0  0  0  0  0
   -4.6890   -0.5190   -0.5520 C   0  0  0  0  0  0  0  0  0  0  0  0
   -3.5950   -0.7150    0.5120 C   0  0  0  0  0  0  0  0  0  0  0  0
    0.0850    0.3320    0.2270 C   0  0  2  0  0  0  0  0  0  0  0  0
   -0.0220    1.1170   -1.0440 C   0  0  0  0  0  0  0  0  0  0  0  0
    1.0030    2.1830   -1.2190 C   0  0  0  0  0  0  0  0  0  0  0  0
    0.9980    2.9690   -0.0680 O   0  0  0  0  0  0  0  0  0  0  0  0
    1.6310    2.1630    0.9080 C   0  0  0  0  0  0  0  0  0  0  0  0
    0.5740    1.1750    1.3820 C   0  0  2  0  0  0  0  0  0  0  0  0
    1.2390    0.3940    2.4900 C   0  0  0  0  0  0  0  0  0  0  0  0
   -0.4900    2.0250    2.0270 C   0  0  0  0  0  0  0  0  0  0  0  0
  1  2  1  0
  2  3  1  0
  2  4  2  3
  5  4  1  6
  5  6  1  0
  5 15  1  0
  6  7  1  0
  7  8  1  0
  8  9  1  1
  8 10  1  0
  8 15  1  0
 10 11  1  6
 10 14  1  0
 11 12  1  0
 12 13  1  0
 13 14  1  0
 15 16  1  6
 15 20  1  0
 16 17  1  0
 17 18  1  0
 18 19  1  0
 19 20  1  0
 20 21  1  1
 20 22  1  0
M  END
