
     RDKit          3D

 22 24  0  0  0  0  0  0  0  0999 V2000
   -3.8290    1.9290   -0.3590 C   0  0  0  0  0  0  0  0  0  0  0  0
   -3.1820    1.3280    0.8440 C   0  0  1  0  0  0  0  0  0  0  0  0
   -3.7040    0.0120    1.2610 C   0  0  0  0  0  0  0  0  0  0  0  0
   -3.1610   -1.1780    0.5480 C   0  0  1  0  0  0  0  0  0  0  0  0
   -3.2130   -2.3570    1.5200 C   0  0  0  0  0  0  0  0  0  0  0  0
   -4.0850   -1.5740   -0.5880 C   0  0  0  0  0  0  0  0  0  0  0  0
   -1.7510   -1.0690    0.0810 C   0  0  0  0  0  0  0  0  0  0  0  0
   -1.3450    0.3010   -0.3760 C   0  0  2  0  0  0  0  0  0  0  0  0
   -2.1070    0.5690   -1.5390 O   0  0  0  0  0  0  0  0  0  0  0  0
    0.0920    0.2980   -0.8160 C   0  0  1  0  0  0  0  0  0  0  0  0
    0.4240    1.7080   -1.2590 C   0  0  0  0  0  0  0  0  0  0  0  0
    1.4950    2.3220   -0.3670 C   0  0  0  0  0  0  0  0  0  0  0  0
    2.7210    1.4460   -0.5190 C   0  0  0  0  0  0  0  0  0  0  0  0
    2.4470    0.0950    0.0470 C   0  0  2  0  0  0  0  0  0  0  0  0
    3.0870    0.0540    1.4400 C   0  0  0  0  0  0  0  0  0  0  0  0
    4.5770   -0.0550    1.3570 C   0  0  0  0  0  0  0  0  0  0  0  0
    4.9340   -1.2600    0.7670 O   0  0  0  0  0  0  0  0  0  0  0  0
    3.8770   -1.9180    0.1880 C   0  0  0  0  0  0  0  0  0  0  0  0
    3.0840   -1.0220   -0.7410 C   0  0  2  0  0  0  0  0  0  0  0  0
    4.0140   -0.5400   -1.8130 C   0  0  0  0  0  0  0  0  0  0  0  0
    0.9910   -0.2230    0.2480 C   0  0  0  0  0  0  0  0  0  0  0  0
   -1.6550    1.2700    0.7180 C   0  0  0  0  0  0  0  0  0  0  0  0
  2  1  1  6
  2  3  1  0
  2 22  1  0
  3  4  1  0
  4  5  1  1
  4  6  1  0
  4  7  1  0
  7  8  1  0
  8  9  1  6
  8 10  1  0
  8 22  1  0
 10 11  1  1
 10 21  1  0
 11 12  1  0
 12 13  1  0
 14 13  1  6
 14 15  1  0
 14 19  1  0
 14 21  1  0
 15 16  1  0
 16 17  1  0
 17 18  1  0
 18 19  1  0
 19 20  1  6
M  END
