
     RDKit          3D

 10  9  0  0  0  0  0  0  0  0999 V2000
    2.8120    1.3610    0.1470 O   0  0  0  0  0  0  0  0  0  0  0  0
    2.3010    0.2120    0.1090 C   0  0  0  0  0  0  0  0  0  0  0  0
    3.1800   -0.9350   -0.1260 C   0  0  0  0  0  0  0  0  0  0  0  0
    2.5290   -2.1470   -0.1500 O   0  0  0  0  0  0  0  0  0  0  0  0
    0.9290    0.1400    0.2990 O   0  0  0  0  0  0  0  0  0  0  0  0
    0.1550    1.3300    0.5230 C   0  0  0  0  0  0  0  0  0  0  0  0
   -1.1900    1.0080    0.6840 O   0  0  0  0  0  0  0  0  0  0  0  0
   -1.6250    0.3660   -0.4980 C   0  0  0  0  0  0  0  0  0  0  0  0
   -3.0900   -0.0110   -0.3830 C   0  0  0  0  0  0  0  0  0  0  0  0
   -3.4560   -0.6330   -1.5660 O   0  0  0  0  0  0  0  0  0  0  0  0
  1  2  2  0
  2  3  1  0
  2  5  1  0
  3  4  1  0
  5  6  1  0
  6  7  1  0
  7  8  1  0
  8  9  1  0
  9 10  1  0
M  END
