
     RDKit          3D

 22 24  0  0  0  0  0  0  0  0999 V2000
    5.3080    0.8370   -1.7910 C   0  0  0  0  0  0  0  0  0  0  0  0
    3.8610    0.9000   -1.5150 C   0  0  0  0  0  0  0  0  0  0  0  0
    3.3580    1.0420   -0.2890 C   0  0  0  0  0  0  0  0  0  0  0  0
    4.4230    1.1290    0.7560 C   0  0  0  0  0  0  0  0  0  0  0  0
    4.6580   -0.2000    1.4260 C   0  0  0  0  0  0  0  0  0  0  0  0
    3.6080   -1.2130    1.0160 C   0  0  0  0  0  0  0  0  0  0  0  0
    2.2340   -0.7190    1.4410 C   0  0  0  0  0  0  0  0  0  0  0  0
    1.4120   -0.2590    0.2560 C   0  0  1  0  0  0  0  0  0  0  0  0
   -0.0580   -0.3880    0.4970 C   0  0  2  0  0  0  0  0  0  0  0  0
   -0.3930   -1.8400    0.7660 C   0  0  0  0  0  0  0  0  0  0  0  0
   -1.3480   -2.2750   -0.3300 C   0  0  0  0  0  0  0  0  0  0  0  0
   -2.5220   -1.5640   -0.1470 O   0  0  0  0  0  0  0  0  0  0  0  0
   -2.3630   -0.1930   -0.3260 C   0  0  2  0  0  0  0  0  0  0  0  0
   -2.8080    0.5580    0.8960 C   0  0  0  0  0  0  0  0  0  0  0  0
   -4.2500    0.8740    0.9550 C   0  0  0  0  0  0  0  0  0  0  0  0
   -4.8390    1.3700   -0.3330 C   0  0  0  0  0  0  0  0  0  0  0  0
   -4.5950    0.2890   -1.3760 C   0  0  2  0  0  0  0  0  0  0  0  0
   -5.2520   -0.9950   -0.9540 C   0  0  0  0  0  0  0  0  0  0  0  0
   -3.1230    0.1850   -1.5700 C   0  0  0  0  0  0  0  0  0  0  0  0
   -0.9090    0.1840   -0.5750 C   0  0  0  0  0  0  0  0  0  0  0  0
    1.8720    1.0920   -0.1510 C   0  0  1  0  0  0  0  0  0  0  0  0
    1.4810    2.1160    0.6760 O   0  0  0  0  0  0  0  0  0  0  0  0
  1  2  1  0
  2  3  2  3
  3  4  1  0
  3 21  1  0
  4  5  1  0
  5  6  1  0
  6  7  1  0
  8  7  1  1
  8  9  1  0
  8 21  1  0
  9 10  1  6
  9 20  1  0
 10 11  1  0
 11 12  1  0
 12 13  1  0
 13 14  1  1
 13 19  1  0
 13 20  1  0
 14 15  1  0
 15 16  1  0
 16 17  1  0
 17 18  1  1
 17 19  1  0
 21 22  1  1
M  END
