
     RDKit          3D

 10  9  0  0  0  0  0  0  0  0999 V2000
    0.6180    0.6020   -1.3110 O   0  0  0  0  0  0  0  0  0  0  0  0
    0.3740   -0.3060   -0.4870 C   0  0  0  0  0  0  0  0  0  0  0  0
    1.4560   -1.1570    0.0280 C   0  0  0  0  0  0  0  0  0  0  0  0
    2.6910   -0.8300   -0.4320 O   0  0  0  0  0  0  0  0  0  0  0  0
    3.1780    0.4150   -0.1170 C   0  0  0  0  0  0  0  0  0  0  0  0
    3.2500    0.5470    1.2760 O   0  0  0  0  0  0  0  0  0  0  0  0
   -0.9520   -0.5010   -0.0610 O   0  0  0  0  0  0  0  0  0  0  0  0
   -1.9250    0.3550   -0.6010 C   0  0  0  0  0  0  0  0  0  0  0  0
   -3.3020    0.0720   -0.0900 C   0  0  0  0  0  0  0  0  0  0  0  0
   -3.4020    0.2080    1.2870 O   0  0  0  0  0  0  0  0  0  0  0  0
  1  2  2  0
  2  3  1  0
  2  7  1  0
  3  4  1  0
  4  5  1  0
  5  6  1  0
  7  8  1  0
  8  9  1  0
  9 10  1  0
M  END
