
     RDKit          3D

 33 36  0  0  0  0  0  0  0  0999 V2000
    6.7500    2.9840   -0.9140 C   0  0  0  0  0  0  0  0  0  0  0  0
    6.1720    2.6530    0.2210 C   0  0  0  0  0  0  0  0  0  0  0  0
    5.2970    1.4660    0.2650 C   0  0  0  0  0  0  0  0  0  0  0  0
    5.7940    0.2060    0.4880 C   0  0  0  0  0  0  0  0  0  0  0  0
    7.2630    0.0030    0.6730 C   0  0  0  0  0  0  0  0  0  0  0  0
    4.9100   -0.7930    0.5360 N   0  0  0  0  0  0  0  0  0  0  0  0
    3.5940   -0.6650    0.3930 C   0  0  0  0  0  0  0  0  0  0  0  0
    3.0890    0.5900    0.1740 C   0  0  0  0  0  0  0  0  0  0  0  0
    3.9620    1.7010    0.1050 C   0  0  0  0  0  0  0  0  0  0  0  0
    3.3870    3.0570   -0.1340 C   0  0  0  0  0  0  0  0  0  0  0  0
    1.6750    0.8680   -0.0210 C   0  0  0  0  0  0  0  0  0  0  0  0
    0.8370   -0.3170    0.1220 C   0  0  0  0  0  0  0  0  0  0  0  0
   -0.5740   -0.1280    0.0070 C   0  0  0  0  0  0  0  0  0  0  0  0
   -1.4490   -1.1750    0.1200 C   0  0  0  0  0  0  0  0  0  0  0  0
   -2.8720   -0.9760    0.0210 C   0  0  0  0  0  0  0  0  0  0  0  0
   -3.5780   -1.2570    1.0790 O   0  0  0  0  0  0  0  0  0  0  0  0
   -3.5260   -0.5110   -1.1240 N   0  0  0  0  0  0  0  0  0  0  0  0
   -4.9400   -0.2960   -1.1090 C   0  0  0  0  0  0  0  0  0  0  0  0
   -5.7980   -0.5840   -2.1250 C   0  0  0  0  0  0  0  0  0  0  0  0
   -7.1640   -0.2920   -2.0210 C   0  0  0  0  0  0  0  0  0  0  0  0
   -7.6720    0.2980   -0.9010 C   0  0  0  0  0  0  0  0  0  0  0  0
   -6.8190    0.6070    0.1420 C   0  0  0  0  0  0  0  0  0  0  0  0
   -7.3290    1.2690    1.3610 C   0  0  1  0  0  0  0  0  0  0  0  0
   -7.7350    2.5320    1.0260 F   0  0  0  0  0  0  0  0  0  0  0  0
   -8.3670    0.5300    1.9420 F   0  0  0  0  0  0  0  0  0  0  0  0
   -6.3030    1.3770    2.2980 F   0  0  0  0  0  0  0  0  0  0  0  0
   -5.4810    0.3070    0.0270 C   0  0  0  0  0  0  0  0  0  0  0  0
   -0.9210   -2.4260    0.3480 C   0  0  0  0  0  0  0  0  0  0  0  0
    0.4340   -2.6340    0.4530 C   0  0  0  0  0  0  0  0  0  0  0  0
    0.9370   -3.9240    0.6600 O   0  0  0  0  0  0  0  0  0  0  0  0
   -0.0810   -4.9630    0.8200 C   0  0  0  0  0  0  0  0  0  0  0  0
    1.3270   -1.5700    0.3450 C   0  0  0  0  0  0  0  0  0  0  0  0
    2.6850   -1.7540    0.4720 O   0  0  0  0  0  0  0  0  0  0  0  0
  1  2  2  0
  2  3  1  0
  3  4  2  0
  3  9  1  0
  4  5  1  0
  4  6  1  0
  6  7  2  0
  7  8  1  0
  7 33  1  0
  8  9  2  0
  8 11  1  0
  9 10  1  0
 11 12  1  0
 12 13  2  0
 12 32  1  0
 13 14  1  0
 14 15  1  0
 14 28  2  0
 15 16  2  0
 15 17  1  0
 17 18  1  0
 18 19  2  0
 18 27  1  0
 19 20  1  0
 20 21  2  0
 21 22  1  0
 22 23  1  0
 22 27  2  0
 23 24  1  6
 23 25  1  0
 23 26  1  0
 28 29  1  0
 29 30  1  0
 29 32  2  0
 30 31  1  0
 32 33  1  0
M  END
