
     RDKit          3D

 32 35  0  0  0  0  0  0  0  0999 V2000
   -6.6210   -3.7610   -0.8920 C   0  0  0  0  0  0  0  0  0  0  0  0
   -6.0180   -2.4750   -0.6900 N   0  0  0  0  0  0  0  0  0  0  0  0
   -4.5940   -2.3050   -0.6050 C   0  0  0  0  0  0  0  0  0  0  0  0
   -3.7730   -3.3710   -0.7150 N   0  0  0  0  0  0  0  0  0  0  0  0
   -2.4320   -3.2930   -0.6500 C   0  0  0  0  0  0  0  0  0  0  0  0
   -1.8660   -2.0490   -0.4600 C   0  0  0  0  0  0  0  0  0  0  0  0
   -0.4980   -1.8600   -0.3820 C   0  0  0  0  0  0  0  0  0  0  0  0
   -0.0270   -0.5640   -0.1910 C   0  0  0  0  0  0  0  0  0  0  0  0
    1.4100   -0.3620   -0.1230 C   0  0  0  0  0  0  0  0  0  0  0  0
    2.0220    0.6290   -0.8790 C   0  0  0  0  0  0  0  0  0  0  0  0
    3.3890    0.8140   -0.8310 C   0  0  0  0  0  0  0  0  0  0  0  0
    4.1770    0.0070   -0.0200 C   0  0  0  0  0  0  0  0  0  0  0  0
    5.6030    0.1860    0.0310 N   0  0  0  0  0  0  0  0  0  0  0  0
    6.3960   -0.8670   -0.2820 C   0  0  0  0  0  0  0  0  0  0  0  0
    7.7760   -0.7350   -0.2480 C   0  0  0  0  0  0  0  0  0  0  0  0
    8.3310    0.4480    0.0980 N   0  0  0  0  0  0  0  0  0  0  0  0
    7.5560    1.5080    0.4130 C   0  0  0  0  0  0  0  0  0  0  0  0
    8.1320    2.8340    0.8000 C   0  0  0  0  0  0  0  0  0  0  0  0
    6.1860    1.3350    0.3680 C   0  0  0  0  0  0  0  0  0  0  0  0
    5.4020    2.2970    0.6540 O   0  0  0  0  0  0  0  0  0  0  0  0
    3.5670   -0.9750    0.7300 C   0  0  0  0  0  0  0  0  0  0  0  0
    2.1800   -1.1670    0.6840 C   0  0  0  0  0  0  0  0  0  0  0  0
    1.4540   -2.4050    1.6500 Cl  0  0  0  0  0  0  0  0  0  0  0  0
   -0.9080    0.5030   -0.0830 C   0  0  0  0  0  0  0  0  0  0  0  0
   -0.4710    1.6900    0.0920 O   0  0  0  0  0  0  0  0  0  0  0  0
   -2.2370    0.2920   -0.1620 N   0  0  0  0  0  0  0  0  0  0  0  0
   -3.1270    1.3890   -0.0560 C   0  0  0  0  0  0  0  0  0  0  0  0
   -3.6010    1.7530    1.3040 C   0  0  0  0  0  0  0  0  0  0  0  0
   -4.5420    2.9580    1.1430 C   0  0  0  0  0  0  0  0  0  0  0  0
   -5.6240    2.5060    0.2890 N   0  0  0  0  0  0  0  0  0  0  0  0
   -2.7100   -0.9490   -0.3460 C   0  0  0  0  0  0  0  0  0  0  0  0
   -4.0430   -1.0930   -0.4200 N   0  0  0  0  0  0  0  0  0  0  0  0
  1  2  1  0
  2  3  1  0
  3  4  2  0
  3 32  1  0
  4  5  1  0
  5  6  2  0
  6  7  1  0
  6 31  1  0
  7  8  2  0
  8  9  1  0
  8 24  1  0
  9 10  2  0
  9 22  1  0
 10 11  1  0
 11 12  2  0
 12 13  1  0
 12 21  1  0
 13 14  1  0
 13 19  1  0
 14 15  2  0
 15 16  1  0
 16 17  2  0
 17 18  1  0
 17 19  1  0
 19 20  2  0
 21 22  2  0
 22 23  1  0
 24 25  2  0
 24 26  1  0
 26 27  1  0
 26 31  1  0
 27 28  1  0
 28 29  1  0
 29 30  1  0
 31 32  2  0
M  CHG  1  30   1
M  END
