
     RDKit          3D

 33 36  0  0  0  0  0  0  0  0999 V2000
   -3.3140   -2.3650   -2.1700 C   0  0  0  0  0  0  0  0  0  0  0  0
   -1.8670   -2.6400   -1.9800 C   0  0  0  0  0  0  0  0  0  0  0  0
   -1.5750   -3.1490   -0.6490 C   0  0  0  0  0  0  0  0  0  0  0  0
   -1.5310   -4.5450   -0.5230 C   0  0  0  0  0  0  0  0  0  0  0  0
   -1.2660   -5.1240    0.6770 C   0  0  0  0  0  0  0  0  0  0  0  0
   -1.0350   -4.3700    1.7900 C   0  0  0  0  0  0  0  0  0  0  0  0
   -1.0760   -3.0130    1.6740 C   0  0  0  0  0  0  0  0  0  0  0  0
   -1.3510   -2.3680    0.4350 C   0  0  0  0  0  0  0  0  0  0  0  0
   -1.3840   -0.9320    0.4220 C   0  0  0  0  0  0  0  0  0  0  0  0
   -2.4400   -0.1640    0.1210 C   0  0  0  0  0  0  0  0  0  0  0  0
   -2.3930    1.2490    0.2030 C   0  0  0  0  0  0  0  0  0  0  0  0
   -3.4560    1.9990   -0.1020 N   0  0  0  0  0  0  0  0  0  0  0  0
   -3.4090    3.3290   -0.0220 C   0  0  0  0  0  0  0  0  0  0  0  0
   -4.4340    4.0340   -0.3170 O   0  0  0  0  0  0  0  0  0  0  0  0
   -2.2500    3.9670    0.3810 C   0  0  0  0  0  0  0  0  0  0  0  0
   -2.2080    5.4560    0.4680 C   0  0  2  0  0  0  0  0  0  0  0  0
   -2.4710    6.0100   -0.7690 F   0  0  0  0  0  0  0  0  0  0  0  0
   -0.9480    5.7960    0.9250 F   0  0  0  0  0  0  0  0  0  0  0  0
   -3.1600    5.9270    1.3790 F   0  0  0  0  0  0  0  0  0  0  0  0
   -1.1490    3.1800    0.6960 C   0  0  0  0  0  0  0  0  0  0  0  0
   -1.2030    1.7980    0.6110 C   0  0  0  0  0  0  0  0  0  0  0  0
   -0.1600    1.0430    0.9100 O   0  0  0  0  0  0  0  0  0  0  0  0
   -0.2130   -0.2650    0.8310 C   0  0  0  0  0  0  0  0  0  0  0  0
    0.8380   -0.9480    1.1350 N   0  0  0  0  0  0  0  0  0  0  0  0
    2.0710   -0.4370    1.5540 C   0  0  0  0  0  0  0  0  0  0  0  0
    2.4250   -0.4220    2.7740 O   0  0  0  0  0  0  0  0  0  0  0  0
    3.0230    0.1100    0.5930 C   0  0  0  0  0  0  0  0  0  0  0  0
    2.6800    0.1290   -0.7460 C   0  0  0  0  0  0  0  0  0  0  0  0
    3.5550    0.6330   -1.7080 C   0  0  0  0  0  0  0  0  0  0  0  0
    4.7870    1.1210   -1.3100 C   0  0  0  0  0  0  0  0  0  0  0  0
    5.1420    1.1060    0.0350 C   0  0  0  0  0  0  0  0  0  0  0  0
    6.4590    1.6210    0.4570 C   0  0  0  0  0  0  0  0  0  0  0  0
    4.2570    0.6030    0.9590 C   0  0  0  0  0  0  0  0  0  0  0  0
  1  2  1  0
  2  3  1  0
  3  4  2  0
  3  8  1  0
  4  5  1  0
  5  6  2  0
  6  7  1  0
  7  8  2  0
  8  9  1  0
  9 10  2  0
  9 23  1  0
 10 11  1  0
 11 12  1  0
 11 21  2  0
 12 13  1  0
 13 14  2  0
 13 15  1  0
 15 16  1  0
 15 20  2  0
 16 17  1  6
 16 18  1  0
 16 19  1  0
 20 21  1  0
 21 22  1  0
 22 23  1  0
 23 24  2  3
 24 25  1  0
 25 26  2  0
 25 27  1  0
 27 28  2  0
 27 33  1  0
 28 29  1  0
 29 30  2  0
 30 31  1  0
 31 32  1  0
 31 33  2  0
M  END
