
     RDKit          3D

 33 36  0  0  0  0  0  0  0  0999 V2000
    5.2100   -0.9970    1.7380 C   0  0  0  0  0  0  0  0  0  0  0  0
    5.9680   -0.5470    0.5520 C   0  0  0  0  0  0  0  0  0  0  0  0
    7.3600   -0.5720    0.6280 C   0  0  0  0  0  0  0  0  0  0  0  0
    8.0810   -0.1600   -0.4600 C   0  0  0  0  0  0  0  0  0  0  0  0
    9.4400   -0.1640   -0.4410 F   0  0  0  0  0  0  0  0  0  0  0  0
    7.4540    0.2740   -1.6160 C   0  0  0  0  0  0  0  0  0  0  0  0
    8.2140    0.6830   -2.6950 F   0  0  0  0  0  0  0  0  0  0  0  0
    6.0940    0.2870   -1.6570 C   0  0  0  0  0  0  0  0  0  0  0  0
    5.3460   -0.1160   -0.5960 C   0  0  0  0  0  0  0  0  0  0  0  0
    3.9030   -0.0910   -0.6630 N   0  0  0  0  0  0  0  0  0  0  0  0
    3.2550   -1.0200   -1.5430 C   0  0  0  0  0  0  0  0  0  0  0  0
    3.1460    0.8120    0.1050 C   0  0  0  0  0  0  0  0  0  0  0  0
    3.6850    1.6590    0.8740 O   0  0  0  0  0  0  0  0  0  0  0  0
    1.6930    0.7720    0.0160 C   0  0  0  0  0  0  0  0  0  0  0  0
    0.9310   -0.0190    0.8470 C   0  0  0  0  0  0  0  0  0  0  0  0
   -0.4390   -0.0090    0.7210 C   0  0  0  0  0  0  0  0  0  0  0  0
   -1.0630    0.7910   -0.2360 C   0  0  0  0  0  0  0  0  0  0  0  0
   -0.2640    1.5390   -1.0160 N   0  0  0  0  0  0  0  0  0  0  0  0
    1.0810    1.5660   -0.9340 C   0  0  0  0  0  0  0  0  0  0  0  0
    1.7690    2.3070   -1.7150 O   0  0  0  0  0  0  0  0  0  0  0  0
   -2.5210    0.6080   -0.1470 C   0  0  0  0  0  0  0  0  0  0  0  0
   -3.5610    1.1650   -0.8600 C   0  0  0  0  0  0  0  0  0  0  0  0
   -3.3380    2.1470   -1.9530 C   0  0  0  0  0  0  0  0  0  0  0  0
   -4.8800    0.8110   -0.5620 C   0  0  0  0  0  0  0  0  0  0  0  0
   -5.1980   -0.0900    0.4320 C   0  0  0  0  0  0  0  0  0  0  0  0
   -6.6130   -0.4490    0.7440 C   0  0  2  0  0  0  0  0  0  0  0  0
   -6.9580   -0.2430    2.1890 C   0  0  0  0  0  0  0  0  0  0  0  0
   -6.9280   -1.8770    0.3520 C   0  0  0  0  0  0  0  0  0  0  0  0
   -6.7250   -2.0370   -1.0240 F   0  0  0  0  0  0  0  0  0  0  0  0
   -4.1450   -0.6370    1.1320 C   0  0  0  0  0  0  0  0  0  0  0  0
   -2.8230   -0.2950    0.8490 C   0  0  0  0  0  0  0  0  0  0  0  0
   -1.5380   -0.6960    1.4080 C   0  0  0  0  0  0  0  0  0  0  0  0
   -1.3860   -1.5220    2.3550 O   0  0  0  0  0  0  0  0  0  0  0  0
  1  2  1  0
  2  3  2  0
  2  9  1  0
  3  4  1  0
  4  5  1  0
  4  6  2  0
  6  7  1  0
  6  8  1  0
  8  9  2  0
  9 10  1  0
 10 11  1  0
 10 12  1  0
 12 13  2  0
 12 14  1  0
 14 15  2  0
 14 19  1  0
 15 16  1  0
 16 17  2  0
 16 32  1  0
 17 18  1  0
 17 21  1  0
 18 19  1  0
 19 20  2  0
 21 22  2  0
 21 31  1  0
 22 23  1  0
 22 24  1  0
 24 25  2  0
 25 26  1  0
 25 30  1  0
 26 27  1  1
 26 28  1  0
 28 29  1  0
 30 31  2  0
 31 32  1  0
 32 33  2  0
M  END
