
     RDKit          3D

 33 36  0  0  0  0  0  0  0  0999 V2000
   -1.9940   -3.4970    0.9090 C   0  0  0  0  0  0  0  0  0  0  0  0
   -1.6460   -2.0780    0.9150 N   0  0  0  0  0  0  0  0  0  0  0  0
   -2.1830   -1.2450    0.0450 C   0  0  0  0  0  0  0  0  0  0  0  0
   -3.2780   -1.5310   -0.9040 C   0  0  0  0  0  0  0  0  0  0  0  0
   -4.0820   -2.5470   -0.8970 C   0  0  0  0  0  0  0  0  0  0  0  0
   -5.0710   -2.4750   -2.0520 C   0  0  0  0  0  0  0  0  0  0  0  0
   -4.6470   -1.2270   -2.6960 C   0  0  0  0  0  0  0  0  0  0  0  0
   -3.6340   -0.6880   -2.0510 C   0  0  0  0  0  0  0  0  0  0  0  0
   -1.7030    0.0760    0.1100 C   0  0  0  0  0  0  0  0  0  0  0  0
   -0.7480    0.5340    0.9920 C   0  0  0  0  0  0  0  0  0  0  0  0
   -0.4280    1.8760    0.9000 C   0  0  0  0  0  0  0  0  0  0  0  0
   -1.5510    2.5750    0.7620 O   0  0  0  0  0  0  0  0  0  0  0  0
    0.6630    2.5790    0.9200 N   0  0  0  0  0  0  0  0  0  0  0  0
    1.7050    2.8430    0.1140 C   0  0  0  0  0  0  0  0  0  0  0  0
    2.3330    4.0700    0.2930 C   0  0  0  0  0  0  0  0  0  0  0  0
    3.3880    4.5550   -0.4360 C   0  0  0  0  0  0  0  0  0  0  0  0
    3.9500    5.7700   -0.1970 F   0  0  0  0  0  0  0  0  0  0  0  0
    3.8700    3.7550   -1.4370 C   0  0  0  0  0  0  0  0  0  0  0  0
    3.2610    2.5250   -1.6350 C   0  0  0  0  0  0  0  0  0  0  0  0
    2.1950    2.0330   -0.8970 C   0  0  0  0  0  0  0  0  0  0  0  0
    1.7430    0.8650   -1.2030 O   0  0  0  0  0  0  0  0  0  0  0  0
    1.8160   -0.3590   -0.8260 C   0  0  0  0  0  0  0  0  0  0  0  0
    0.8650   -1.3240   -1.5390 C   0  0  0  0  0  0  0  0  0  0  0  0
    1.5720   -2.0480   -2.4820 F   0  0  0  0  0  0  0  0  0  0  0  0
    2.6020   -0.9570    0.1070 C   0  0  0  0  0  0  0  0  0  0  0  0
    2.6940   -2.3430    0.0210 F   0  0  0  0  0  0  0  0  0  0  0  0
    3.3360   -0.4210    1.1270 C   0  0  0  0  0  0  0  0  0  0  0  0
    3.0010    0.5260    2.0470 C   0  0  0  0  0  0  0  0  0  0  0  0
    1.8650    0.6650    2.7850 C   0  0  0  0  0  0  0  0  0  0  0  0
    0.7420   -0.0690    2.8460 C   0  0  0  0  0  0  0  0  0  0  0  0
   -0.2200   -0.3660    1.8790 C   0  0  0  0  0  0  0  0  0  0  0  0
   -0.6960   -1.6570    1.8060 C   0  0  0  0  0  0  0  0  0  0  0  0
   -0.2570   -2.5660    2.6020 O   0  0  0  0  0  0  0  0  0  0  0  0
  1  2  1  0
  2  3  1  0
  2 32  1  0
  3  4  1  0
  3  9  2  0
  4  5  2  0
  4  8  1  0
  5  6  1  0
  6  7  1  0
  7  8  2  0
  9 10  1  0
 10 11  1  0
 10 31  2  0
 11 12  2  0
 11 13  1  0
 13 14  1  0
 14 15  2  0
 14 20  1  0
 15 16  1  0
 16 17  1  0
 16 18  2  0
 18 19  1  0
 19 20  2  0
 20 21  1  0
 21 22  1  0
 22 23  1  0
 22 25  2  0
 23 24  1  0
 25 26  1  0
 25 27  1  0
 27 28  2  0
 28 29  1  0
 29 30  2  0
 30 31  1  0
 31 32  1  0
 32 33  2  0
M  END
