
     RDKit          3D

 33 36  0  0  0  0  0  0  0  0999 V2000
   -6.3020    0.9330   -2.4420 C   0  0  0  0  0  0  0  0  0  0  0  0
   -5.8960    0.0040   -1.3230 C   0  0  0  0  0  0  0  0  0  0  0  0
   -6.8220   -0.9220   -0.8100 C   0  0  0  0  0  0  0  0  0  0  0  0
   -6.4760   -1.7710    0.2110 C   0  0  0  0  0  0  0  0  0  0  0  0
   -5.1870   -1.6800    0.7110 C   0  0  0  0  0  0  0  0  0  0  0  0
   -4.2870   -0.8280    0.2600 C   0  0  0  0  0  0  0  0  0  0  0  0
   -4.6380    0.0530   -0.7950 C   0  0  0  0  0  0  0  0  0  0  0  0
   -2.9690   -0.7940    0.7760 N   0  0  0  0  0  0  0  0  0  0  0  0
   -2.3400    0.4280    1.0850 C   0  0  0  0  0  0  0  0  0  0  0  0
   -2.9120    1.4230    1.5090 O   0  0  0  0  0  0  0  0  0  0  0  0
   -0.8600    0.4750    0.8770 C   0  0  0  0  0  0  0  0  0  0  0  0
   -0.0670    1.2850    1.6090 C   0  0  0  0  0  0  0  0  0  0  0  0
    1.2780    1.3870    1.3350 C   0  0  0  0  0  0  0  0  0  0  0  0
    1.8060    0.6370    0.2810 C   0  0  0  0  0  0  0  0  0  0  0  0
    1.0140   -0.1830   -0.4690 C   0  0  0  0  0  0  0  0  0  0  0  0
   -0.3590   -0.2980   -0.2000 C   0  0  0  0  0  0  0  0  0  0  0  0
    1.8650   -0.7780   -1.4860 C   0  0  0  0  0  0  0  0  0  0  0  0
    1.3990   -1.6680   -2.4450 F   0  0  0  0  0  0  0  0  0  0  0  0
    3.1000   -0.3630   -1.3820 C   0  0  0  0  0  0  0  0  0  0  0  0
    3.2030    0.5820   -0.2350 C   0  0  0  0  0  0  0  0  0  0  0  0
    4.2480    1.1250    0.3090 C   0  0  0  0  0  0  0  0  0  0  0  0
    5.6000    1.0810   -0.1930 C   0  0  0  0  0  0  0  0  0  0  0  0
    6.5800    1.5750    0.5910 C   0  0  0  0  0  0  0  0  0  0  0  0
    6.2550    2.0740    1.8630 C   0  0  0  0  0  0  0  0  0  0  0  0
    5.9810    2.5340    3.0000 N   0  0  0  0  0  0  0  0  0  0  0  0
    7.9530    1.5940    0.1310 C   0  0  0  0  0  0  0  0  0  0  0  0
    8.7940    2.0670    1.0050 O   0  0  0  0  0  0  0  0  0  0  0  0
    8.4420    1.1430   -1.1660 C   0  0  1  0  0  0  0  0  0  0  0  0
    9.8490    1.2220   -1.2010 F   0  0  0  0  0  0  0  0  0  0  0  0
    8.0980   -0.1670   -1.4890 F   0  0  0  0  0  0  0  0  0  0  0  0
   -2.3960   -2.0810    1.1120 C   0  0  0  0  0  0  0  0  0  0  0  0
   -3.4000   -3.0260    1.6980 C   0  0  0  0  0  0  0  0  0  0  0  0
   -4.7160   -2.5130    1.7620 O   0  0  0  0  0  0  0  0  0  0  0  0
  1  2  1  0
  2  3  2  0
  2  7  1  0
  3  4  1  0
  4  5  2  0
  5  6  1  0
  5 33  1  0
  6  7  2  0
  6  8  1  0
  8  9  1  0
  8 31  1  0
  9 10  2  0
  9 11  1  0
 11 12  2  0
 11 16  1  0
 12 13  1  0
 13 14  2  0
 14 15  1  0
 14 20  1  0
 15 16  2  0
 15 17  1  0
 17 18  1  0
 17 19  2  0
 19 20  1  0
 20 21  2  3
 21 22  1  0
 22 23  2  3
 23 24  1  0
 23 26  1  0
 24 25  3  0
 26 27  2  0
 26 28  1  0
 28 29  1  1
 28 30  1  0
 31 32  1  0
 32 33  1  0
M  END
