
     RDKit          3D

 28 30  0  0  0  0  0  0  0  0999 V2000
   -5.4050   -1.9110   -2.3000 N   0  0  0  0  0  0  0  0  0  0  0  0
   -5.2290   -1.1360   -1.1350 C   0  0  0  0  0  0  0  0  0  0  0  0
   -4.0390   -0.5280   -0.9010 N   0  0  0  0  0  0  0  0  0  0  0  0
   -3.8140    0.2230    0.1920 C   0  0  0  0  0  0  0  0  0  0  0  0
   -4.8560    0.3700    1.1070 C   0  0  0  0  0  0  0  0  0  0  0  0
   -4.3520    1.1570    2.0790 N   0  0  0  0  0  0  0  0  0  0  0  0
   -3.0780    1.4730    1.7780 C   0  0  0  0  0  0  0  0  0  0  0  0
   -2.7340    0.9000    0.6100 N   0  0  0  0  0  0  0  0  0  0  0  0
   -1.4460    1.0270   -0.0130 C   0  0  2  0  0  0  0  0  0  0  0  0
   -0.7280   -0.1670   -0.0220 O   0  0  0  0  0  0  0  0  0  0  0  0
    0.5740    0.1700   -0.2940 C   0  0  2  0  0  0  0  0  0  0  0  0
    1.5680   -0.7590    0.3880 C   0  0  0  0  0  0  0  0  0  0  0  0
    2.8420   -0.3110    0.0330 O   0  0  0  0  0  0  0  0  0  0  0  0
    4.0510   -1.2650    0.7300 P   0  0  2  0  0  0  0  0  0  0  0  0
    3.4020   -2.4020    1.5050 O   0  0  0  0  0  0  0  0  0  0  0  0
    5.0010   -0.4000    1.7980 O   0  0  0  0  0  0  0  0  0  0  0  0
    5.0320   -1.9670   -0.4440 O   0  0  0  0  0  0  0  0  0  0  0  0
    6.6070   -1.4140   -0.4070 P   0  0  1  0  0  0  0  0  0  0  0  0
    6.9910   -0.8680   -1.7790 O   0  0  0  0  0  0  0  0  0  0  0  0
    6.8760   -0.2130    0.7210 O   0  0  0  0  0  0  0  0  0  0  0  0
    7.6940   -2.6850   -0.0730 O   0  0  0  0  0  0  0  0  0  0  0  0
    0.8270    1.5540    0.2090 C   0  0  1  0  0  0  0  0  0  0  0  0
    1.1060    2.3740   -0.8990 O   0  0  0  0  0  0  0  0  0  0  0  0
   -0.5380    1.9220    0.8030 C   0  0  1  0  0  0  0  0  0  0  0  0
   -0.8210    3.2590    0.6680 O   0  0  0  0  0  0  0  0  0  0  0  0
   -6.0770   -0.2430    0.8860 C   0  0  0  0  0  0  0  0  0  0  0  0
   -6.9840   -0.0800    1.7420 O   0  0  0  0  0  0  0  0  0  0  0  0
   -6.2140   -0.9720   -0.2270 N   0  0  0  0  0  0  0  0  0  0  0  0
  1  2  1  0
  2  3  2  0
  2 28  1  0
  3  4  1  0
  4  5  2  0
  4  8  1  0
  5  6  1  0
  5 26  1  0
  6  7  2  0
  7  8  1  0
  9  8  1  1
  9 10  1  0
  9 24  1  0
 10 11  1  0
 11 12  1  1
 11 22  1  0
 12 13  1  0
 13 14  1  0
 14 15  2  0
 14 16  1  1
 14 17  1  0
 17 18  1  0
 18 19  2  0
 18 20  1  1
 18 21  1  0
 22 23  1  6
 22 24  1  0
 24 25  1  6
 26 27  2  0
 26 28  1  0
M  END
