
     RDKit          3D

 20 19  0  0  0  0  0  0  0  0999 V2000
   -0.3840    3.7990    1.0700 C   0  0  0  0  0  0  0  0  0  0  0  0
   -1.1340    2.5490    0.6740 C   0  0  0  0  0  0  0  0  0  0  0  0
   -0.5550    1.9850   -0.4600 O   0  0  0  0  0  0  0  0  0  0  0  0
   -1.3220    0.5710   -0.9920 P   0  0  0  0  0  0  0  0  0  0  0  0
   -2.4170   -0.2180    0.2670 C   0  0  0  0  0  0  0  0  0  0  0  0
   -3.4140   -1.0920   -0.4600 C   0  0  0  0  0  0  0  0  0  0  0  0
   -4.2890   -1.7450    0.3730 O   0  0  0  0  0  0  0  0  0  0  0  0
   -5.0700   -0.9210    1.1520 C   0  0  0  0  0  0  0  0  0  0  0  0
   -0.3810   -0.5130   -1.8720 O   0  0  0  0  0  0  0  0  0  0  0  0
    0.8610   -0.7880   -1.4000 C   0  0  2  0  0  0  0  0  0  0  0  0
    0.9000   -1.3890   -0.0210 C   0  0  0  0  0  0  0  0  0  0  0  0
    1.8860    0.7330   -1.3310 S   0  0  0  0  0  0  0  0  0  0  0  0
    3.4590    0.2850   -0.7150 O   0  0  0  0  0  0  0  0  0  0  0  0
    3.8220    0.5270    0.5920 C   0  0  0  0  0  0  0  0  0  0  0  0
    5.1390    0.1690    1.1670 C   0  0  0  0  0  0  0  0  0  0  0  0
    2.9800    1.0860    1.3400 O   0  0  0  0  0  0  0  0  0  0  0  0
    1.5560   -1.7160   -2.3180 C   0  0  0  0  0  0  0  0  0  0  0  0
    0.9610   -2.1090   -3.3460 O   0  0  0  0  0  0  0  0  0  0  0  0
    2.8480   -2.1740   -2.0900 O   0  0  0  0  0  0  0  0  0  0  0  0
    3.3760   -3.0100   -2.9890 O   0  0  0  0  0  0  0  0  0  0  0  0
  1  2  1  0
  2  3  1  0
  3  4  1  0
  4  5  1  0
  4  9  1  0
  5  6  1  0
  6  7  1  0
  7  8  1  0
  9 10  1  0
 10 11  1  1
 10 12  1  0
 10 17  1  0
 12 13  1  0
 13 14  1  0
 14 15  1  0
 14 16  2  0
 17 18  2  0
 17 19  1  0
 19 20  1  0
M  END
