
     RDKit          3D

 19 19  0  0  0  0  0  0  0  0999 V2000
   -2.4250    3.9670    0.5210 C   0  0  0  0  0  0  0  0  0  0  0  0
   -1.8170    2.9170    0.0600 C   0  0  0  0  0  0  0  0  0  0  0  0
   -2.3460    2.0690   -0.9410 O   0  0  0  0  0  0  0  0  0  0  0  0
   -1.3520    1.3060   -1.4800 O   0  0  0  0  0  0  0  0  0  0  0  0
   -1.1680    0.1230   -0.7040 C   0  0  2  0  0  0  0  0  0  0  0  0
   -0.3530   -0.7900   -1.5820 C   0  0  0  0  0  0  0  0  0  0  0  0
   -2.4580   -0.3280   -0.5290 O   0  0  0  0  0  0  0  0  0  0  0  0
   -2.7500   -1.4330    0.1390 C   0  0  0  0  0  0  0  0  0  0  0  0
   -2.2080   -2.7550   -0.3800 C   0  0  0  0  0  0  0  0  0  0  0  0
   -0.4510    0.4590    0.5440 C   0  0  1  0  0  0  0  0  0  0  0  0
   -1.2030    0.2950    1.7240 O   0  0  0  0  0  0  0  0  0  0  0  0
   -2.2520    1.1000    1.6950 O   0  0  0  0  0  0  0  0  0  0  0  0
    0.8130   -0.0680    0.7600 O   0  0  0  0  0  0  0  0  0  0  0  0
    1.9640    0.1620    0.0680 C   0  0  0  0  0  0  0  0  0  0  0  0
    1.9340    0.9610   -0.8910 O   0  0  0  0  0  0  0  0  0  0  0  0
    3.2540   -0.5150    0.4280 C   0  0  0  0  0  0  0  0  0  0  0  0
    4.2220   -0.0680   -0.4620 O   0  0  0  0  0  0  0  0  0  0  0  0
    5.4570   -0.6290   -0.2240 C   0  0  0  0  0  0  0  0  0  0  0  0
   -0.2080    2.3360    0.5890 S   0  0  0  0  0  0  0  0  0  0  0  0
  1  2  2  0
  2  3  1  0
  2 19  1  0
  3  4  1  0
  4  5  1  0
  5  6  1  6
  5  7  1  0
  5 10  1  0
  7  8  1  0
  8  9  1  0
 10 11  1  1
 10 13  1  0
 10 19  1  0
 11 12  1  0
 13 14  1  0
 14 15  2  0
 14 16  1  0
 16 17  1  0
 17 18  1  0
M  END
