
     RDKit          3D

 20 19  0  0  0  0  0  0  0  0999 V2000
   -1.7650    2.2600   -0.9730 C   0  0  0  0  0  0  0  0  0  0  0  0
   -1.3740    0.5440   -0.5620 P   0  0  0  0  0  0  0  0  0  0  0  0
   -2.6850   -0.5240   -0.4650 O   0  0  0  0  0  0  0  0  0  0  0  0
   -3.5760   -0.0670    0.5080 C   0  0  2  0  0  0  0  0  0  0  0  0
   -4.0630    1.1910    0.2190 O   0  0  0  0  0  0  0  0  0  0  0  0
   -2.9310   -0.0110    1.8500 C   0  0  0  0  0  0  0  0  0  0  0  0
   -2.8610    0.9750    2.5370 O   0  0  0  0  0  0  0  0  0  0  0  0
   -4.7230   -1.0780    0.6260 C   0  0  0  0  0  0  0  0  0  0  0  0
   -5.3600   -1.1690   -0.6250 O   0  0  0  0  0  0  0  0  0  0  0  0
    0.4390   -0.2510   -1.3860 P   0  0  0  0  0  0  0  0  0  0  0  0
    0.1600   -2.0200   -1.9000 C   0  0  0  0  0  0  0  0  0  0  0  0
    1.7460   -0.2740   -0.0920 C   0  0  0  0  0  0  0  0  0  0  0  0
    1.4830   -0.8630    0.9910 O   0  0  0  0  0  0  0  0  0  0  0  0
    2.9720    0.3120   -0.2500 O   0  0  0  0  0  0  0  0  0  0  0  0
    3.9490    0.2830    0.7440 C   0  0  0  0  0  0  0  0  0  0  0  0
    3.6940   -0.3060    1.8330 O   0  0  0  0  0  0  0  0  0  0  0  0
    5.2690    0.9120    0.5760 C   0  0  1  0  0  0  0  0  0  0  0  0
    6.0480    0.7370    1.7140 O   0  0  0  0  0  0  0  0  0  0  0  0
    6.0130    0.3190   -0.5810 C   0  0  0  0  0  0  0  0  0  0  0  0
    7.4230    0.5240   -0.6800 S   0  0  0  0  0  0  0  0  0  0  0  0
  1  2  1  0
  2  3  1  0
  2 10  1  0
  3  4  1  0
  4  5  1  6
  4  6  1  0
  4  8  1  0
  6  7  2  0
  8  9  1  0
 10 11  1  0
 10 12  1  0
 12 13  2  0
 12 14  1  0
 14 15  1  0
 15 16  2  0
 15 17  1  0
 17 18  1  1
 17 19  1  0
 19 20  2  0
M  END
