
     RDKit          3D

 20 21  0  0  0  0  0  0  0  0999 V2000
   -4.1320    1.0560   -0.8000 C   0  0  0  0  0  0  0  0  0  0  0  0
   -3.4360    0.7450    0.4170 O   0  0  0  0  0  0  0  0  0  0  0  0
   -2.2120    0.0470    0.2100 C   0  0  0  0  0  0  0  0  0  0  0  0
   -2.1960   -1.1930    0.6630 C   0  0  0  0  0  0  0  0  0  0  0  0
   -3.4200   -1.7440    1.3330 C   0  0  0  0  0  0  0  0  0  0  0  0
   -4.4480   -0.8370    1.3890 O   0  0  0  0  0  0  0  0  0  0  0  0
   -1.1300   -2.0740    0.5830 O   0  0  0  0  0  0  0  0  0  0  0  0
    0.1870   -1.6390   -0.4950 P   0  0  0  0  0  0  0  0  0  0  0  0
    1.6750   -1.7720    0.4800 O   0  0  0  0  0  0  0  0  0  0  0  0
    2.0840   -0.4540    0.7280 C   0  0  0  0  0  0  0  0  0  0  0  0
    3.3540   -0.1330    0.9070 C   0  0  0  0  0  0  0  0  0  0  0  0
    3.7640    1.5760    1.2150 S   0  0  0  0  0  0  0  0  0  0  0  0
    4.4590   -1.1520    0.8610 C   0  0  0  0  0  0  0  0  0  0  0  0
    5.3070   -0.7400   -0.1830 O   0  0  0  0  0  0  0  0  0  0  0  0
    0.9520    0.4720    0.7580 C   0  0  0  0  0  0  0  0  0  0  0  0
    0.1420    0.2510   -0.5290 C   0  0  1  0  0  0  0  0  0  0  0  0
    1.0240    0.8960   -2.0030 P   0  0  0  0  0  0  0  0  0  0  0  0
   -0.1630    1.4370   -3.1520 O   0  0  0  0  0  0  0  0  0  0  0  0
    1.9840    2.2800   -1.5550 O   0  0  0  0  0  0  0  0  0  0  0  0
   -1.1660    0.6890   -0.4270 O   0  0  0  0  0  0  0  0  0  0  0  0
  1  2  1  0
  2  3  1  0
  3  4  2  0
  3 20  1  0
  4  5  1  0
  4  7  1  0
  5  6  1  0
  7  8  1  0
  8  9  1  0
  8 16  1  0
  9 10  1  0
 10 11  2  3
 10 15  1  0
 11 12  1  0
 11 13  1  0
 13 14  1  0
 15 16  1  0
 16 17  1  6
 16 20  1  0
 17 18  1  0
 17 19  1  0
M  END
