
     RDKit          3D

 19 19  0  0  0  0  0  0  0  0999 V2000
    0.6760   -2.3730   -0.5970 O   0  0  0  0  0  0  0  0  0  0  0  0
    0.4730   -1.1260   -0.5050 C   0  0  0  0  0  0  0  0  0  0  0  0
   -0.7930   -0.6940   -0.2170 O   0  0  0  0  0  0  0  0  0  0  0  0
   -1.8890   -1.5710   -0.0160 C   0  0  0  0  0  0  0  0  0  0  0  0
   -3.0060   -0.8020    0.2540 O   0  0  0  0  0  0  0  0  0  0  0  0
   -3.3090    0.0590   -0.7760 C   0  0  0  0  0  0  0  0  0  0  0  0
   -4.5570    0.8390   -0.3430 C   0  0  2  0  0  0  0  0  0  0  0  0
   -4.2660    1.5330    0.8220 O   0  0  0  0  0  0  0  0  0  0  0  0
   -5.6180   -0.2220   -0.0610 C   0  0  0  0  0  0  0  0  0  0  0  0
   -6.7920    0.3150    0.4090 O   0  0  0  0  0  0  0  0  0  0  0  0
    1.5690   -0.1480   -0.7020 C   0  0  2  0  0  0  0  0  0  0  0  0
    2.7760   -0.7710   -0.9850 O   0  0  0  0  0  0  0  0  0  0  0  0
    3.7130    0.1710   -0.6370 C   0  0  2  0  0  0  0  0  0  0  0  0
    5.1100   -0.4070   -0.6120 C   0  0  0  0  0  0  0  0  0  0  0  0
    6.0860    0.6720   -0.2260 C   0  0  0  0  0  0  0  0  0  0  0  0
    5.7190    1.1320    1.0460 O   0  0  0  0  0  0  0  0  0  0  0  0
    3.2860    0.5590    0.6620 O   0  0  0  0  0  0  0  0  0  0  0  0
    1.8820    0.5770    0.5650 C   0  0  0  0  0  0  0  0  0  0  0  0
    1.0430    1.0720    1.3330 O   0  0  0  0  0  0  0  0  0  0  0  0
  1  2  2  0
  2  3  1  0
 11  2  1  1
  3  4  1  0
  4  5  1  0
  5  6  1  0
  6  7  1  0
  7  8  1  1
  7  9  1  0
  9 10  1  0
 11 12  1  0
 11 18  1  0
 12 13  1  0
 13 14  1  1
 13 17  1  0
 14 15  1  0
 15 16  1  0
 17 18  1  0
 18 19  2  0
M  END
