
     RDKit          3D

 17 18  0  0  0  0  0  0  0  0999 V2000
    5.1280    0.2480    1.0230 C   0  0  0  0  0  0  0  0  0  0  0  0
    3.7460    0.1320    1.0320 O   0  0  0  0  0  0  0  0  0  0  0  0
    3.2600   -0.1840   -0.2480 C   0  0  0  0  0  0  0  0  0  0  0  0
    1.7800   -0.2930   -0.1690 C   0  0  0  0  0  0  0  0  0  0  0  0
    1.2520   -1.4930    0.1120 N   0  0  0  0  0  0  0  0  0  0  0  0
   -0.0710   -1.7110    0.2090 C   0  0  0  0  0  0  0  0  0  0  0  0
   -0.5810   -2.9910    0.5070 N   0  0  0  0  0  0  0  0  0  0  0  0
   -0.8960   -0.6060    0.0000 C   0  0  0  0  0  0  0  0  0  0  0  0
   -0.3940    0.6440   -0.2910 C   0  0  0  0  0  0  0  0  0  0  0  0
    0.9570    0.7560   -0.3660 N   0  0  0  0  0  0  0  0  0  0  0  0
   -1.5110    1.5960   -0.4560 C   0  0  1  0  0  0  0  0  0  0  0  0
   -1.5110    2.2300   -1.6850 O   0  0  0  0  0  0  0  0  0  0  0  0
   -1.4290    3.5390   -1.4820 O   0  0  0  0  0  0  0  0  0  0  0  0
   -2.7030    0.7580   -0.2290 C   0  0  0  0  0  0  0  0  0  0  0  0
   -4.0470    1.2120   -0.2770 N   0  0  0  0  0  0  0  0  0  0  0  0
   -2.3440   -0.4850    0.0280 C   0  0  0  0  0  0  0  0  0  0  0  0
   -3.2290   -1.5820    0.3000 N   0  0  0  0  0  0  0  0  0  0  0  0
  1  2  1  0
  2  3  1  0
  3  4  1  0
  4  5  2  0
  4 10  1  0
  5  6  1  0
  6  7  1  0
  6  8  2  0
  8  9  1  0
  8 16  1  0
  9 10  2  0
  9 11  1  0
 11 12  1  6
 11 14  1  0
 12 13  1  0
 14 15  1  0
 14 16  2  0
 16 17  1  0
M  END
