
     RDKit          3D

 16 17  0  0  0  0  0  0  0  0999 V2000
    4.4260    0.3050    0.4020 N   0  0  0  0  0  0  0  0  0  0  0  0
    3.7250   -0.0770   -0.7450 N   0  0  0  0  0  0  0  0  0  0  0  0
    2.4730    0.1860   -0.8140 C   0  0  0  0  0  0  0  0  0  0  0  0
    1.7420   -0.1900   -1.9640 N   0  0  0  0  0  0  0  0  0  0  0  0
    1.7640    0.8760    0.2830 C   0  0  0  0  0  0  0  0  0  0  0  0
    0.6850    0.0840    0.8370 N   0  0  0  0  0  0  0  0  0  0  0  0
    0.8150   -0.7750    1.8600 C   0  0  0  0  0  0  0  0  0  0  0  0
    1.8850   -1.0130    2.4770 O   0  0  0  0  0  0  0  0  0  0  0  0
   -0.4020   -1.2980    2.0640 N   0  0  0  0  0  0  0  0  0  0  0  0
   -1.2910   -0.7820    1.1890 C   0  0  0  0  0  0  0  0  0  0  0  0
   -0.6080    0.1090    0.3910 C   0  0  0  0  0  0  0  0  0  0  0  0
   -1.1820    0.7900   -0.5710 C   0  0  0  0  0  0  0  0  0  0  0  0
   -2.5940    0.6750   -0.8960 C   0  0  1  0  0  0  0  0  0  0  0  0
   -2.6950    0.2800   -2.2790 O   0  0  0  0  0  0  0  0  0  0  0  0
   -3.3560   -0.2690   -0.0630 C   0  0  0  0  0  0  0  0  0  0  0  0
   -2.5820   -0.9550    0.9700 C   0  0  0  0  0  0  0  0  0  0  0  0
  1  2  1  0
  2  3  2  3
  3  4  1  0
  3  5  1  0
  5  6  1  0
  6  7  1  0
  6 11  1  0
  7  8  2  0
  7  9  1  0
  9 10  1  0
 10 11  1  0
 10 16  2  0
 11 12  2  0
 12 13  1  0
 13 14  1  6
 13 15  1  0
 15 16  1  0
M  END
