
     RDKit          3D

 14 15  0  0  0  0  0  0  0  0999 V2000
    0.8720   -0.4420    1.5060 O   0  0  0  0  0  0  0  0  0  0  0  0
    1.0080    0.0220    0.3450 C   0  0  0  0  0  0  0  0  0  0  0  0
   -0.0120   -0.2510   -0.5960 N   0  0  0  0  0  0  0  0  0  0  0  0
   -1.1870   -1.0160   -0.3290 C   0  0  0  0  0  0  0  0  0  0  0  0
   -2.0520   -0.4320    0.7720 C   0  0  1  0  0  0  0  0  0  0  0  0
   -2.4720    0.9440    0.3450 C   0  0  0  0  0  0  0  0  0  0  0  0
   -3.8980    0.8700   -0.0920 C   0  0  0  0  0  0  0  0  0  0  0  0
   -4.4590   -0.3960    0.4910 C   0  0  0  0  0  0  0  0  0  0  0  0
   -3.3080   -1.2510    0.9120 C   0  0  0  0  0  0  0  0  0  0  0  0
    2.2100    0.8440   -0.0430 C   0  0  1  0  0  0  0  0  0  0  0  0
    3.1540    1.0060    1.1000 C   0  0  0  0  0  0  0  0  0  0  0  0
    4.2200   -0.0580    0.8820 C   0  0  0  0  0  0  0  0  0  0  0  0
    4.3070   -0.2380   -0.6100 C   0  0  0  0  0  0  0  0  0  0  0  0
    2.9350    0.0590   -1.1150 C   0  0  0  0  0  0  0  0  0  0  0  0
  1  2  2  0
  2  3  1  0
 10  2  1  1
  3  4  1  0
  5  4  1  6
  5  6  1  0
  5  9  1  0
  6  7  1  0
  7  8  1  0
  8  9  1  0
 10 11  1  0
 10 14  1  0
 11 12  1  0
 12 13  1  0
 13 14  1  0
M  END
