
     RDKit          3D

 17 18  0  0  0  0  0  0  0  0999 V2000
   -4.2810   -0.0980   -1.4020 N   0  0  0  0  0  0  0  0  0  0  0  0
   -3.3340   -0.6670   -0.4310 C   0  0  1  0  0  0  0  0  0  0  0  0
   -1.9730   -0.3490   -0.9120 C   0  0  0  0  0  0  0  0  0  0  0  0
   -1.0630    0.3110   -0.2140 C   0  0  0  0  0  0  0  0  0  0  0  0
    0.2640    0.5970   -0.7380 C   0  0  2  0  0  0  0  0  0  0  0  0
    0.3240    0.0500   -2.0400 O   0  0  0  0  0  0  0  0  0  0  0  0
    1.3690    0.1910    0.0380 N   0  0  0  0  0  0  0  0  0  0  0  0
    1.2970   -0.4610    1.2620 N   0  0  0  0  0  0  0  0  0  0  0  0
    2.2650   -1.1370    1.7820 C   0  0  0  0  0  0  0  0  0  0  0  0
    3.4580   -1.2080    1.0560 O   0  0  0  0  0  0  0  0  0  0  0  0
    3.4960   -0.8340   -0.3230 C   0  0  0  0  0  0  0  0  0  0  0  0
    2.7080    0.4500   -0.4350 C   0  0  2  0  0  0  0  0  0  0  0  0
    3.2920    1.3540    0.4710 O   0  0  0  0  0  0  0  0  0  0  0  0
   -1.4680    0.7400    1.1290 C   0  0  0  0  0  0  0  0  0  0  0  0
   -0.5050    1.4320    1.8520 O   0  0  0  0  0  0  0  0  0  0  0  0
   -2.6650    0.4760    1.5860 C   0  0  0  0  0  0  0  0  0  0  0  0
   -3.6120   -0.2130    0.8550 O   0  0  0  0  0  0  0  0  0  0  0  0
  2  1  1  6
  2  3  1  0
  2 17  1  0
  3  4  2  0
  4  5  1  0
  4 14  1  0
  5  6  1  6
  5  7  1  0
  7  8  1  0
  7 12  1  0
  8  9  2  0
  9 10  1  0
 10 11  1  0
 11 12  1  0
 12 13  1  1
 14 15  1  0
 14 16  2  0
 16 17  1  0
M  END
