
     RDKit          3D

 42 43  0  0  0  0  0  0  0  0999 V2000
   -3.4760   -3.0610    5.1510 C   0  0  0  0  0  0  0  0  0  0  0  0
   -3.3540   -1.5820    4.8970 C   0  0  0  0  0  0  0  0  0  0  0  0
   -2.9710   -1.1000    3.7410 C   0  0  0  0  0  0  0  0  0  0  0  0
   -2.8400    0.6950    3.4800 P   0  0  0  0  0  0  0  0  0  0  0  0
   -1.9980    1.4680    4.9140 C   0  0  0  0  0  0  0  0  0  0  0  0
   -2.0990    1.1470    1.9320 C   0  0  0  0  0  0  0  0  0  0  0  0
   -2.2820    1.4460    0.7120 C   0  0  0  0  0  0  0  0  0  0  0  0
   -0.8530    1.7300    0.0190 C   0  0  0  0  0  0  0  0  0  0  0  0
   -0.4700    0.5430   -0.7590 C   0  0  0  0  0  0  0  0  0  0  0  0
    0.6470    0.5260   -1.4910 O   0  0  0  0  0  0  0  0  0  0  0  0
    1.8980    0.6710   -0.9510 C   0  0  2  0  0  0  0  0  0  0  0  0
    2.2060   -0.1690    0.2050 C   0  0  0  0  0  0  0  0  0  0  0  0
    2.0110    2.1650   -0.5070 C   0  0  0  0  0  0  0  0  0  0  0  0
    2.7840    0.5790   -2.0000 O   0  0  0  0  0  0  0  0  0  0  0  0
    2.8640   -0.4950   -2.7700 C   0  0  0  0  0  0  0  0  0  0  0  0
    3.5070   -1.7720   -2.3350 C   0  0  0  0  0  0  0  0  0  0  0  0
    4.8780   -1.7310   -2.0190 N   0  0  0  0  0  0  0  0  0  0  0  0
    5.7610   -1.4850   -3.1130 C   0  0  0  0  0  0  0  0  0  0  0  0
    5.3490   -1.4080   -0.7240 C   0  0  1  0  0  0  0  0  0  0  0  0
    4.9280   -2.3530    0.3350 C   0  0  0  0  0  0  0  0  0  0  0  0
    5.2190   -2.0450    1.5940 O   0  0  0  0  0  0  0  0  0  0  0  0
    6.4150   -1.8140    2.1190 C   0  0  0  0  0  0  0  0  0  0  0  0
    6.8580   -1.6420   -0.8480 C   0  0  0  0  0  0  0  0  0  0  0  0
    7.7220   -0.9650   -0.3140 O   0  0  0  0  0  0  0  0  0  0  0  0
    7.3090   -2.7230   -1.6340 O   0  0  0  0  0  0  0  0  0  0  0  0
    8.7050   -2.9710   -1.7690 C   0  0  0  0  0  0  0  0  0  0  0  0
   -3.3700    1.6100   -0.2080 C   0  0  0  0  0  0  0  0  0  0  0  0
   -3.0880    1.9620   -1.4780 C   0  0  0  0  0  0  0  0  0  0  0  0
   -4.0450    2.1690   -2.5820 C   0  0  1  0  0  0  0  0  0  0  0  0
   -4.0070    1.0070   -3.4210 O   0  0  0  0  0  0  0  0  0  0  0  0
   -3.6430    1.3240   -4.7210 C   0  0  0  0  0  0  0  0  0  0  0  0
   -4.5740    2.2720   -5.4020 C   0  0  0  0  0  0  0  0  0  0  0  0
   -5.3300    2.2350   -2.1170 O   0  0  0  0  0  0  0  0  0  0  0  0
   -5.7140    1.8640   -0.8640 C   0  0  0  0  0  0  0  0  0  0  0  0
   -6.9790    1.8060   -0.5900 N   0  0  0  0  0  0  0  0  0  0  0  0
   -7.4920    1.4420    0.6390 C   0  0  0  0  0  0  0  0  0  0  0  0
   -6.6600    1.1280    1.6120 C   0  0  0  0  0  0  0  0  0  0  0  0
   -7.2330    0.7430    2.9140 C   0  0  0  0  0  0  0  0  0  0  0  0
   -8.4760    0.7370    3.0390 O   0  0  0  0  0  0  0  0  0  0  0  0
   -6.2500    0.2940    4.2840 S   0  0  0  0  0  0  0  0  0  0  0  0
   -5.2020    1.1520    1.4290 C   0  0  0  0  0  0  0  0  0  0  0  0
   -4.7610    1.5430    0.1340 N   0  0  0  0  0  0  0  0  0  0  0  0
  1  2  1  0
  2  3  2  3
  3  4  1  0
  4  5  1  0
  4  6  1  0
  6  7  2  3
  7  8  1  0
  7 27  1  0
  8  9  1  0
  9 10  1  0
 10 11  1  0
 11 12  1  1
 11 13  1  0
 11 14  1  0
 14 15  1  0
 15 16  1  0
 16 17  1  0
 17 18  1  0
 17 19  1  0
 19 20  1  1
 19 23  1  0
 20 21  1  0
 21 22  1  0
 23 24  2  0
 23 25  1  0
 25 26  1  0
 27 28  2  0
 27 42  1  0
 28 29  1  0
 29 30  1  6
 29 33  1  0
 30 31  1  0
 31 32  1  0
 33 34  1  0
 34 35  2  0
 34 42  1  0
 35 36  1  0
 36 37  2  0
 37 38  1  0
 37 41  1  0
 38 39  2  0
 38 40  1  0
 41 42  1  0
M  END
