
     RDKit          3D

 42 44  0  0  0  0  0  0  0  0999 V2000
   -9.6930    2.7680   -3.5910 C   0  0  0  0  0  0  0  0  0  0  0  0
   -8.8280    1.4020   -3.2910 P   0  0  0  0  0  0  0  0  0  0  0  0
   -7.5430    1.3320   -2.0470 C   0  0  0  0  0  0  0  0  0  0  0  0
   -6.2430    1.6530   -2.1580 C   0  0  0  0  0  0  0  0  0  0  0  0
   -5.5610    0.7270   -1.4800 C   0  0  0  0  0  0  0  0  0  0  0  0
   -4.3960    0.1010   -1.7990 O   0  0  0  0  0  0  0  0  0  0  0  0
   -4.3680   -1.1090   -2.5250 C   0  0  0  0  0  0  0  0  0  0  0  0
   -5.4890   -1.5640   -2.8540 O   0  0  0  0  0  0  0  0  0  0  0  0
   -3.1640   -1.7280   -2.8380 O   0  0  0  0  0  0  0  0  0  0  0  0
   -6.3880    0.5330   -0.2900 C   0  0  0  0  0  0  0  0  0  0  0  0
   -6.0430   -0.0730    0.9380 N   0  0  0  0  0  0  0  0  0  0  0  0
   -7.2290   -0.6540    1.6640 C   0  0  0  0  0  0  0  0  0  0  0  0
   -4.8160   -0.2370    1.5660 C   0  0  0  0  0  0  0  0  0  0  0  0
   -4.8820   -1.0330    2.6260 O   0  0  0  0  0  0  0  0  0  0  0  0
   -3.4980    0.2760    1.3190 C   0  0  0  0  0  0  0  0  0  0  0  0
   -3.1750    1.3920    0.5920 C   0  0  0  0  0  0  0  0  0  0  0  0
   -1.8890    1.7860    0.3650 C   0  0  0  0  0  0  0  0  0  0  0  0
   -0.8070    1.0540    0.8780 C   0  0  0  0  0  0  0  0  0  0  0  0
    0.5260    1.6920    0.8030 C   0  0  0  0  0  0  0  0  0  0  0  0
    1.4800    1.3500    1.5110 O   0  0  0  0  0  0  0  0  0  0  0  0
    0.7470    2.7280   -0.1000 O   0  0  0  0  0  0  0  0  0  0  0  0
    2.0050    3.3290   -0.1730 C   0  0  0  0  0  0  0  0  0  0  0  0
   -1.0720   -0.0630    1.6000 C   0  0  0  0  0  0  0  0  0  0  0  0
   -0.0730   -1.0350    1.9690 C   0  0  0  0  0  0  0  0  0  0  0  0
    1.0200   -1.4290    1.4250 C   0  0  0  0  0  0  0  0  0  0  0  0
    1.6630   -1.0570    0.2300 N   0  0  0  0  0  0  0  0  0  0  0  0
    3.1200   -1.0650    0.1380 C   0  0  0  0  0  0  0  0  0  0  0  0
    3.7580   -2.1830    0.1600 C   0  0  0  0  0  0  0  0  0  0  0  0
    5.2230   -2.2640    0.0730 C   0  0  0  0  0  0  0  0  0  0  0  0
    5.7580   -3.4950    0.1070 C   0  0  0  0  0  0  0  0  0  0  0  0
    7.1620   -3.8020    0.0370 C   0  0  0  0  0  0  0  0  0  0  0  0
    8.1600   -2.5190   -0.0960 S   0  0  0  0  0  0  0  0  0  0  0  0
    9.9580   -2.6440   -0.2010 C   0  0  0  0  0  0  0  0  0  0  0  0
    7.3070   -0.9360   -0.1300 C   0  0  0  0  0  0  0  0  0  0  0  0
    8.0450    0.3030   -0.2430 C   0  0  0  0  0  0  0  0  0  0  0  0
    9.2780    0.3250   -0.3190 O   0  0  0  0  0  0  0  0  0  0  0  0
    7.3600    1.5080   -0.2670 O   0  0  0  0  0  0  0  0  0  0  0  0
    7.9830    2.7670   -0.3730 C   0  0  0  0  0  0  0  0  0  0  0  0
    5.9970   -1.0410   -0.0430 C   0  0  0  0  0  0  0  0  0  0  0  0
   -2.4110   -0.4420    1.8180 C   0  0  0  0  0  0  0  0  0  0  0  0
   -7.6550    0.9080   -0.6290 C   0  0  0  0  0  0  0  0  0  0  0  0
   -8.8290    0.9260    0.1430 N   0  0  0  0  0  0  0  0  0  0  0  0
  1  2  2  0
  2  3  1  0
  3  4  2  0
  3 41  1  0
  4  5  2  0
  5  6  1  0
  5 10  1  0
  6  7  1  0
  7  8  2  0
  7  9  1  0
 10 11  1  0
 10 41  2  0
 11 12  1  0
 11 13  1  0
 13 14  2  0
 13 15  1  0
 15 16  2  0
 15 40  1  0
 16 17  1  0
 17 18  2  0
 18 19  1  0
 18 23  1  0
 19 20  2  0
 19 21  1  0
 21 22  1  0
 23 24  1  0
 23 40  2  0
 24 25  2  3
 25 26  1  0
 26 27  1  0
 27 28  2  3
 28 29  1  0
 29 30  2  0
 29 39  1  0
 30 31  1  0
 31 32  2  0
 32 33  1  0
 32 34  1  0
 34 35  1  0
 34 39  2  0
 35 36  2  0
 35 37  1  0
 37 38  1  0
 41 42  1  0
M  END
