
     RDKit          3D

 42 45  0  0  0  0  0  0  0  0999 V2000
   -2.5650   -4.7080    4.6590 C   0  0  0  0  0  0  0  0  0  0  0  0
   -2.7420   -4.2280    3.2590 C   0  0  0  0  0  0  0  0  0  0  0  0
   -1.8380   -3.1440    2.9550 N   0  0  0  0  0  0  0  0  0  0  0  0
   -1.8640   -2.5440    1.6860 C   0  0  0  0  0  0  0  0  0  0  0  0
   -2.6610   -2.9610    0.8520 O   0  0  0  0  0  0  0  0  0  0  0  0
   -0.9660   -1.4380    1.3860 C   0  0  0  0  0  0  0  0  0  0  0  0
    0.0280   -1.4680    2.1130 O   0  0  0  0  0  0  0  0  0  0  0  0
   -1.4160   -0.1450    0.0050 S   0  0  0  0  0  0  0  0  0  0  0  0
   -1.8400    0.7610    1.6350 C   0  0  0  0  0  0  0  0  0  0  0  0
   -0.9000   -1.6600   -1.0220 C   0  0  0  0  0  0  0  0  0  0  0  0
   -3.2780   -0.3790   -0.5370 C   0  0  0  0  0  0  0  0  0  0  0  0
   -3.9030   -1.0250    0.4300 O   0  0  0  0  0  0  0  0  0  0  0  0
   -5.2150   -1.2180    0.3140 C   0  0  0  0  0  0  0  0  0  0  0  0
   -5.8500   -2.1430   -1.1140 P   0  0  0  0  0  0  0  0  0  0  0  0
   -4.8110   -3.6140   -1.4630 C   0  0  0  0  0  0  0  0  0  0  0  0
   -1.3370    1.3210   -1.0130 N   0  0  2  0  0  0  0  0  0  0  0  0
   -2.3950    2.2010   -1.0720 C   0  0  0  0  0  0  0  0  0  0  0  0
   -3.2860    3.0460   -0.3740 C   0  0  0  0  0  0  0  0  0  0  0  0
   -4.1660    3.6850   -1.3190 O   0  0  0  0  0  0  0  0  0  0  0  0
   -1.2450    0.9490   -2.4520 C   0  0  0  0  0  0  0  0  0  0  0  0
    0.1060    0.9590   -2.9730 C   0  0  0  0  0  0  0  0  0  0  0  0
    0.7830    0.6460   -1.6980 C   0  0  0  0  0  0  0  0  0  0  0  0
    0.2210    0.8540   -0.3980 C   0  0  0  0  0  0  0  0  0  0  0  0
    0.1980    2.2490    0.0240 C   0  0  0  0  0  0  0  0  0  0  0  0
    1.3020    3.1350   -0.3480 C   0  0  0  0  0  0  0  0  0  0  0  0
    2.3620    3.6980    0.2690 C   0  0  0  0  0  0  0  0  0  0  0  0
    3.0700    4.4480   -0.6430 C   0  0  0  0  0  0  0  0  0  0  0  0
    2.4020    4.3210   -1.8240 C   0  0  0  0  0  0  0  0  0  0  0  0
    2.8020    4.9640   -3.1040 C   0  0  0  0  0  0  0  0  0  0  0  0
    1.3980    3.5660   -1.6210 O   0  0  0  0  0  0  0  0  0  0  0  0
    1.2010    0.1900    0.4810 C   0  0  0  0  0  0  0  0  0  0  0  0
    2.5240    0.2300    0.7970 N   0  0  0  0  0  0  0  0  0  0  0  0
    2.9770    0.9060    2.0380 C   0  0  0  0  0  0  0  0  0  0  0  0
    4.3290    1.5350    1.8960 C   0  0  0  0  0  0  0  0  0  0  0  0
    5.3620    0.5830    2.2260 O   0  0  0  0  0  0  0  0  0  0  0  0
    5.5900   -0.5200    1.3990 C   0  0  0  0  0  0  0  0  0  0  0  0
    4.8370   -1.0270    0.4470 C   0  0  0  0  0  0  0  0  0  0  0  0
    5.3980   -2.2190   -0.2420 C   0  0  1  0  0  0  0  0  0  0  0  0
    5.5630   -1.9980   -1.7240 C   0  0  0  0  0  0  0  0  0  0  0  0
    6.5250   -2.7000    0.3750 O   0  0  0  0  0  0  0  0  0  0  0  0
    3.5240   -0.5180    0.0570 C   0  0  0  0  0  0  0  0  0  0  0  0
    3.2860   -0.8190   -1.1250 O   0  0  0  0  0  0  0  0  0  0  0  0
  1  2  1  0
  2  3  1  0
  3  4  1  0
  4  5  2  0
  4  6  1  0
  6  7  2  0
  6  8  1  0
  8  9  1  0
  8 10  1  0
  8 11  1  0
  8 16  1  0
  8 23  1  0
 11 12  1  0
 12 13  1  0
 13 14  1  0
 14 15  1  0
 16 17  1  6
 16 20  1  0
 17 18  1  0
 18 19  1  0
 20 21  1  0
 21 22  1  0
 22 23  1  0
 23 24  1  0
 23 31  1  0
 24 25  1  0
 25 26  2  0
 25 30  1  0
 26 27  1  0
 27 28  2  0
 28 29  1  0
 28 30  1  0
 31 32  1  0
 32 33  1  0
 32 41  1  0
 33 34  1  0
 34 35  1  0
 35 36  1  0
 36 37  2  0
 37 38  1  0
 37 41  1  0
 38 39  1  6
 38 40  1  0
 41 42  2  0
 23 16  1  0
M  CHG  1  16   1
M  END
