
     RDKit          3D

 42 43  0  0  0  0  0  0  0  0999 V2000
   -3.2470    3.9600   -1.9780 C   0  0  0  0  0  0  0  0  0  0  0  0
   -2.6790    2.9960   -2.6650 C   0  0  0  0  0  0  0  0  0  0  0  0
   -2.1840    2.0020   -3.3670 C   0  0  0  0  0  0  0  0  0  0  0  0
   -2.8840    0.7670   -3.2790 C   0  0  0  0  0  0  0  0  0  0  0  0
   -3.2940    0.2120   -4.3940 C   0  0  0  0  0  0  0  0  0  0  0  0
   -3.0570    0.8180   -5.7050 C   0  0  0  0  0  0  0  0  0  0  0  0
   -3.4870    0.2090   -6.7290 O   0  0  0  0  0  0  0  0  0  0  0  0
   -2.4050    1.9980   -5.9230 O   0  0  0  0  0  0  0  0  0  0  0  0
   -3.2860    0.2050   -1.9910 C   0  0  0  0  0  0  0  0  0  0  0  0
   -4.4480   -0.6120   -1.9400 C   0  0  0  0  0  0  0  0  0  0  0  0
   -4.6260   -0.8880   -0.6210 C   0  0  0  0  0  0  0  0  0  0  0  0
   -3.6470   -0.2940    0.1220 C   0  0  0  0  0  0  0  0  0  0  0  0
   -3.4220   -0.3460    1.5500 C   0  0  0  0  0  0  0  0  0  0  0  0
   -3.2530   -1.4290    2.2180 C   0  0  0  0  0  0  0  0  0  0  0  0
   -3.0350   -1.3750    3.6760 N   0  0  0  0  0  0  0  0  0  0  0  0
   -4.4550   -1.3560    4.4470 S   0  0  1  0  0  0  0  0  0  0  0  0
   -5.4360   -1.3940    3.1890 C   0  0  0  0  0  0  0  0  0  0  0  0
   -4.6280   -2.8500    5.3740 C   0  0  0  0  0  0  0  0  0  0  0  0
   -3.1940   -2.7410    1.6680 C   0  0  0  0  0  0  0  0  0  0  0  0
   -3.0440   -3.7900    2.3890 O   0  0  0  0  0  0  0  0  0  0  0  0
   -3.2900   -2.9850    0.3210 O   0  0  0  0  0  0  0  0  0  0  0  0
   -2.8140    0.3810   -0.7700 N   0  0  0  0  0  0  0  0  0  0  0  0
   -1.7280    1.1620   -0.3080 C   0  0  0  0  0  0  0  0  0  0  0  0
   -1.9280    1.7390    0.8780 O   0  0  0  0  0  0  0  0  0  0  0  0
   -0.4770    1.4550   -0.8080 N   0  0  0  0  0  0  0  0  0  0  0  0
    0.3450    2.4590   -0.0960 C   0  0  0  0  0  0  0  0  0  0  0  0
    1.7220    1.9650    0.1770 C   0  0  0  0  0  0  0  0  0  0  0  0
    1.9530    0.5240   -0.1030 C   0  0  2  0  0  0  0  0  0  0  0  0
    1.3640   -0.2910    1.0570 C   0  0  0  0  0  0  0  0  0  0  0  0
    2.0260    0.1120    2.2070 O   0  0  0  0  0  0  0  0  0  0  0  0
    3.7910    0.1210   -0.0520 P   0  0  0  0  0  0  0  0  0  0  0  0
    4.1500   -1.2880   -1.2130 C   0  0  0  0  0  0  0  0  0  0  0  0
    5.0500   -2.3280   -0.5790 C   0  0  0  0  0  0  0  0  0  0  0  0
    4.4350   -2.9320    0.6560 C   0  0  0  0  0  0  0  0  0  0  0  0
    4.8160    1.5620   -0.4400 C   0  0  0  0  0  0  0  0  0  0  0  0
    4.5230    2.2900   -1.4110 O   0  0  0  0  0  0  0  0  0  0  0  0
    5.9690    1.8710    0.3700 C   0  0  0  0  0  0  0  0  0  0  0  0
    6.2780    1.1040    1.3870 C   0  0  0  0  0  0  0  0  0  0  0  0
    7.4650    1.4360    2.2100 C   0  0  0  0  0  0  0  0  0  0  0  0
    5.5310   -0.0090    1.7220 O   0  0  0  0  0  0  0  0  0  0  0  0
    1.4280   -0.0040   -1.3760 C   0  0  0  0  0  0  0  0  0  0  0  0
    0.2020    0.7590   -1.8520 C   0  0  0  0  0  0  0  0  0  0  0  0
  1  2  2  0
  2  3  2  0
  3  4  1  0
  4  5  2  3
  4  9  1  0
  5  6  1  0
  6  7  2  0
  6  8  1  0
  9 10  2  0
  9 22  1  0
 10 11  1  0
 11 12  2  0
 12 13  1  0
 12 22  1  0
 13 14  2  3
 14 15  1  0
 14 19  1  0
 15 16  2  0
 16 17  2  0
 16 18  1  1
 19 20  2  0
 19 21  1  0
 22 23  1  0
 23 24  2  0
 23 25  1  0
 25 26  1  0
 25 42  1  0
 26 27  1  0
 27 28  1  0
 28 29  1  1
 28 31  1  0
 28 41  1  0
 29 30  1  0
 31 32  1  0
 31 35  1  0
 32 33  1  0
 33 34  1  0
 35 36  2  0
 35 37  1  0
 37 38  2  3
 38 39  1  0
 38 40  1  0
 41 42  1  0
M  END
