
     RDKit          3D

 15 15  0  0  0  0  0  0  0  0999 V2000
   -2.6130    0.7010    1.8710 C   0  0  0  0  0  0  0  0  0  0  0  0
   -2.0300    0.2340    0.7160 O   0  0  0  0  0  0  0  0  0  0  0  0
   -2.6270   -0.1680   -0.4240 C   0  0  0  0  0  0  0  0  0  0  0  0
   -2.0090   -0.5610   -1.6660 C   0  0  0  0  0  0  0  0  0  0  0  0
   -0.8190   -0.6480   -2.0530 C   0  0  0  0  0  0  0  0  0  0  0  0
    0.5080   -0.4540   -1.6070 C   0  0  0  0  0  0  0  0  0  0  0  0
    1.5270   -0.6670   -2.3730 O   0  0  0  0  0  0  0  0  0  0  0  0
    0.9310   -0.0400   -0.3700 N   0  0  0  0  0  0  0  0  0  0  0  0
    2.3180    0.1480   -0.1620 C   0  0  0  0  0  0  0  0  0  0  0  0
    2.7230    0.1650    0.9650 N   0  0  0  0  0  0  0  0  0  0  0  0
    4.0570    0.3260    1.3190 C   0  0  0  0  0  0  0  0  0  0  0  0
    4.9710    0.0300    0.0850 C   0  0  0  0  0  0  0  0  0  0  0  0
    3.7880    0.7610   -1.0830 S   0  0  0  0  0  0  0  0  0  0  0  0
   -3.9950   -0.2140   -0.4190 C   0  0  0  0  0  0  0  0  0  0  0  0
   -4.6580    0.1400    0.7140 O   0  0  0  0  0  0  0  0  0  0  0  0
  1  2  1  0
  2  3  1  0
  3  4  1  0
  3 14  2  3
  4  5  2  3
  5  6  1  0
  6  7  2  0
  6  8  1  0
  8  9  1  0
  9 10  2  0
  9 13  1  0
 10 11  1  0
 11 12  1  0
 12 13  1  0
 14 15  1  0
M  END
