
     RDKit          3D

 16 16  0  0  0  0  0  0  0  0999 V2000
    3.5920   -1.3010   -0.4180 C   0  0  0  0  0  0  0  0  0  0  0  0
    3.3880    0.1470   -0.0400 C   0  0  1  0  0  0  0  0  0  0  0  0
    4.3060    0.5630    1.0810 C   0  0  0  0  0  0  0  0  0  0  0  0
    3.8180    0.9630   -1.2680 C   0  0  0  0  0  0  0  0  0  0  0  0
    2.0640    0.4370    0.3500 O   0  0  0  0  0  0  0  0  0  0  0  0
    0.9730    0.2820   -0.4800 C   0  0  0  0  0  0  0  0  0  0  0  0
    1.2100   -0.1370   -1.6490 O   0  0  0  0  0  0  0  0  0  0  0  0
   -0.4340    0.5670   -0.1120 C   0  0  0  0  0  0  0  0  0  0  0  0
   -1.3890   -0.9760    0.0100 S   0  0  0  0  0  0  0  0  0  0  0  0
   -3.1160   -0.6190    0.3050 C   0  0  0  0  0  0  0  0  0  0  0  0
   -3.5540    0.5650    0.4670 N   0  0  0  0  0  0  0  0  0  0  0  0
   -4.8580    0.9680    0.6990 N   0  0  0  0  0  0  0  0  0  0  0  0
   -5.9260    0.0360    0.7890 C   0  0  0  0  0  0  0  0  0  0  0  0
   -6.9920    0.3590    1.4160 O   0  0  0  0  0  0  0  0  0  0  0  0
   -5.9150   -1.3300    0.2010 C   0  0  0  0  0  0  0  0  0  0  0  0
   -4.2340   -2.0000    0.3710 S   0  0  0  0  0  0  0  0  0  0  0  0
  2  1  1  6
  2  3  1  0
  2  4  1  0
  2  5  1  0
  5  6  1  0
  6  7  2  0
  6  8  1  0
  8  9  1  0
  9 10  1  0
 10 11  2  0
 10 16  1  0
 11 12  1  0
 12 13  1  0
 13 14  2  0
 13 15  1  0
 15 16  1  0
M  END
