
     RDKit          3D

 27 30  0  0  0  0  0  0  0  0999 V2000
    4.4730   -2.4880    1.6770 C   0  0  0  0  0  0  0  0  0  0  0  0
    4.1310   -1.1520    2.3110 C   0  0  1  0  0  0  0  0  0  0  0  0
    5.3020   -0.4350    2.7260 N   0  0  0  0  0  0  0  0  0  0  0  0
    5.4070    0.7480    1.9610 C   0  0  0  0  0  0  0  0  0  0  0  0
    6.3170    1.6240    2.0570 O   0  0  0  0  0  0  0  0  0  0  0  0
    4.2840    0.7890    1.0370 C   0  0  0  0  0  0  0  0  0  0  0  0
    3.6900    1.5150    0.0430 C   0  0  0  0  0  0  0  0  0  0  0  0
    2.5270    0.8410   -0.3980 C   0  0  0  0  0  0  0  0  0  0  0  0
    1.6220    1.3880   -1.3970 C   0  0  0  0  0  0  0  0  0  0  0  0
    2.2380    2.2120   -2.3520 C   0  0  0  0  0  0  0  0  0  0  0  0
    1.4820    2.7980   -3.3370 C   0  0  0  0  0  0  0  0  0  0  0  0
    0.1240    2.5900   -3.4040 C   0  0  0  0  0  0  0  0  0  0  0  0
   -0.5140    1.7850   -2.4750 C   0  0  0  0  0  0  0  0  0  0  0  0
   -1.8620    1.5820   -2.4860 C   0  0  0  0  0  0  0  0  0  0  0  0
   -2.5670    2.1080   -3.3850 O   0  0  0  0  0  0  0  0  0  0  0  0
   -2.5020    0.8120   -1.5400 N   0  0  0  0  0  0  0  0  0  0  0  0
   -3.9530    0.7020   -1.6840 C   0  0  0  0  0  0  0  0  0  0  0  0
   -1.7660    0.2600   -0.5950 C   0  0  0  0  0  0  0  0  0  0  0  0
   -2.2670   -0.5510    0.4210 N   0  0  0  0  0  0  0  0  0  0  0  0
   -3.4790   -1.1170    0.8590 C   0  0  1  0  0  0  0  0  0  0  0  0
   -3.2110   -1.8370    2.2520 C   0  0  0  0  0  0  0  0  0  0  0  0
   -4.6330   -0.2460    1.1510 C   0  0  0  0  0  0  0  0  0  0  0  0
   -3.8550   -2.2830   -0.0310 C   0  0  0  0  0  0  0  0  0  0  0  0
   -0.3950    0.4760   -0.5990 N   0  0  0  0  0  0  0  0  0  0  0  0
    0.2710    1.2050   -1.4900 C   0  0  0  0  0  0  0  0  0  0  0  0
    2.4950   -0.2470    0.3550 N   0  0  0  0  0  0  0  0  0  0  0  0
    3.5420   -0.3150    1.2400 C   0  0  0  0  0  0  0  0  0  0  0  0
  2  1  1  6
  2  3  1  0
  2 27  1  0
  3  4  1  0
  4  5  2  0
  4  6  1  0
  6  7  1  0
  6 27  2  0
  7  8  2  0
  8  9  1  0
  8 26  1  0
  9 10  2  0
  9 25  1  0
 10 11  1  0
 11 12  2  0
 12 13  1  0
 13 14  1  0
 13 25  2  0
 14 15  2  0
 14 16  1  0
 16 17  1  0
 16 18  2  0
 18 19  1  0
 18 24  1  0
 19 20  1  0
 20 21  1  1
 20 22  1  0
 20 23  1  0
 24 25  1  0
 26 27  1  0
M  CHG  1  16   1
M  END
