
     RDKit          3D

 21 23  0  0  0  0  0  0  0  0999 V2000
    4.6290    0.6700   -1.5930 C   0  0  0  0  0  0  0  0  0  0  0  0
    3.8000   -0.2740   -0.7770 C   0  0  2  0  0  0  0  0  0  0  0  0
    2.5360    0.4190   -0.2410 C   0  0  0  0  0  0  0  0  0  0  0  0
    1.7160   -0.6720    0.2340 N   0  0  2  0  0  0  0  0  0  0  0  0
    0.3770   -0.3070    0.5480 C   0  0  1  0  0  0  0  0  0  0  0  0
    0.1510    1.1660    0.7200 C   0  0  0  0  0  0  0  0  0  0  0  0
   -1.0050    1.5750   -0.1330 C   0  0  2  0  0  0  0  0  0  0  0  0
   -1.3590    3.0300   -0.0170 C   0  0  0  0  0  0  0  0  0  0  0  0
   -1.7370    3.4330    1.3840 C   0  0  0  0  0  0  0  0  0  0  0  0
   -2.8430    2.7060    1.8210 O   0  0  0  0  0  0  0  0  0  0  0  0
   -2.1000    0.8040    0.2210 O   0  0  0  0  0  0  0  0  0  0  0  0
   -1.9820   -0.5090   -0.2930 C   0  0  2  0  0  0  0  0  0  0  0  0
   -2.6780   -0.5120   -1.6200 C   0  0  0  0  0  0  0  0  0  0  0  0
   -3.5750   -1.6740   -1.8510 C   0  0  0  0  0  0  0  0  0  0  0  0
   -4.2840   -2.0730   -0.7240 O   0  0  0  0  0  0  0  0  0  0  0  0
   -3.3200   -2.5830    0.1670 C   0  0  0  0  0  0  0  0  0  0  0  0
   -2.5630   -1.4280    0.7180 C   0  0  0  0  0  0  0  0  0  0  0  0
   -0.5400   -0.8710   -0.5160 C   0  0  0  0  0  0  0  0  0  0  0  0
    2.3840   -1.2820    1.3650 C   0  0  0  0  0  0  0  0  0  0  0  0
    3.8260   -1.5200    1.1750 C   0  0  0  0  0  0  0  0  0  0  0  0
    4.4970   -0.6970    0.3340 O   0  0  0  0  0  0  0  0  0  0  0  0
  2  1  1  1
  2  3  1  0
  2 21  1  0
  4  3  1  1
  4  5  1  0
  4 19  1  0
  5  6  1  6
  5 18  1  0
  6  7  1  0
  7  8  1  1
  7 11  1  0
  8  9  1  0
  9 10  1  0
 11 12  1  0
 12 13  1  6
 12 17  1  0
 12 18  1  0
 13 14  1  0
 14 15  1  0
 15 16  1  0
 16 17  1  0
 19 20  1  0
 20 21  1  0
M  CHG  1   4   1
M  END
