
     RDKit          3D

 16 17  0  0  0  0  0  0  0  0999 V2000
   -0.5230   -0.4480    2.0860 C   0  0  0  0  0  0  0  0  0  0  0  0
   -1.5870   -0.2290    1.3610 C   0  0  0  0  0  0  0  0  0  0  0  0
   -2.7100   -1.0400    1.3500 O   0  0  0  0  0  0  0  0  0  0  0  0
   -3.6380   -0.5060    0.4690 C   0  0  0  0  0  0  0  0  0  0  0  0
   -3.0170    0.6980   -0.0720 C   0  0  0  0  0  0  0  0  0  0  0  0
   -1.8140    0.8760    0.4400 C   0  0  0  0  0  0  0  0  0  0  0  0
   -0.7590    2.1960    0.0450 S   0  0  1  0  0  0  0  0  0  0  0  0
   -1.6220    3.3980   -0.2390 O   0  0  0  0  0  0  0  0  0  0  0  0
    0.0930    2.4550    1.2700 O   0  0  0  0  0  0  0  0  0  0  0  0
    0.2700    1.8710   -1.2710 N   0  0  0  0  0  0  0  0  0  0  0  0
    1.2310    0.8280   -1.2650 C   0  0  0  0  0  0  0  0  0  0  0  0
    1.6300   -0.0090   -0.5860 N   0  0  0  0  0  0  0  0  0  0  0  0
    2.5740   -0.8940   -0.8120 C   0  0  0  0  0  0  0  0  0  0  0  0
    2.9900   -1.9450    0.1900 C   0  0  0  0  0  0  0  0  0  0  0  0
    3.1730   -0.8170   -2.0230 C   0  0  0  0  0  0  0  0  0  0  0  0
    2.3380    0.5310   -2.7690 S   0  0  0  0  0  0  0  0  0  0  0  0
  1  2  2  0
  2  3  1  0
  2  6  1  0
  3  4  1  0
  4  5  1  0
  5  6  2  0
  6  7  1  0
  7  8  2  0
  7  9  2  0
  7 10  1  6
 10 11  1  0
 11 12  2  0
 11 16  1  0
 12 13  1  0
 13 14  1  0
 13 15  2  0
 15 16  1  0
M  END
