
     RDKit          3D

 37 38  0  0  0  0  0  0  0  0999 V2000
    0.6780   -2.3250    1.9880 C   0  0  0  0  0  0  0  0  0  0  0  0
    1.4630   -2.4300    0.7050 C   0  0  2  0  0  0  0  0  0  0  0  0
    2.9410   -2.1850    1.0640 C   0  0  0  0  0  0  0  0  0  0  0  0
    3.1640   -0.6850    1.1890 C   0  0  1  0  0  0  0  0  0  0  0  0
    4.4500   -0.4620    1.9130 C   0  0  0  0  0  0  0  0  0  0  0  0
    4.7580    0.8880    2.0660 O   0  0  0  0  0  0  0  0  0  0  0  0
    6.2410    1.1260    2.8940 P   0  0  0  0  0  0  0  0  0  0  0  0
    6.1780    0.6650    4.5590 O   0  0  0  0  0  0  0  0  0  0  0  0
    7.5340    0.2100    2.1460 O   0  0  0  0  0  0  0  0  0  0  0  0
    2.9420    0.0770   -0.0620 C   0  0  1  0  0  0  0  0  0  0  0  0
    4.0880    0.5690   -0.7330 N   0  0  0  0  0  0  0  0  0  0  0  0
    5.0040   -0.3360   -1.3040 C   0  0  0  0  0  0  0  0  0  0  0  0
    6.1120    0.5270   -1.9460 C   0  0  0  0  0  0  0  0  0  0  0  0
    5.5490    1.3560   -2.9180 O   0  0  0  0  0  0  0  0  0  0  0  0
    2.0790   -0.7720   -0.9950 C   0  0  0  0  0  0  0  0  0  0  0  0
    1.0590   -1.4610   -0.2920 N   0  0  0  0  0  0  0  0  0  0  0  0
   -0.3010   -1.2630   -0.5440 C   0  0  0  0  0  0  0  0  0  0  0  0
   -1.0650   -2.0020    0.1970 O   0  0  0  0  0  0  0  0  0  0  0  0
   -0.9760   -0.3800   -1.4900 C   0  0  1  0  0  0  0  0  0  0  0  0
   -0.5170   -0.6630   -2.9230 C   0  0  0  0  0  0  0  0  0  0  0  0
   -2.3850   -0.6590   -1.3960 O   0  0  0  0  0  0  0  0  0  0  0  0
   -2.9870   -0.4110   -0.1710 C   0  0  0  0  0  0  0  0  0  0  0  0
   -2.3470    0.0520    0.8350 O   0  0  0  0  0  0  0  0  0  0  0  0
   -4.3740   -0.6620    0.0400 N   0  0  0  0  0  0  0  0  0  0  0  0
   -4.9220   -0.3810    1.3320 C   0  0  0  0  0  0  0  0  0  0  0  0
   -6.1760   -1.1490    1.6360 C   0  0  0  0  0  0  0  0  0  0  0  0
   -6.1630   -2.3880    0.7450 C   0  0  1  0  0  0  0  0  0  0  0  0
   -7.1300   -3.2870    1.1310 O   0  0  0  0  0  0  0  0  0  0  0  0
   -6.3920   -1.8680   -0.6740 C   0  0  0  0  0  0  0  0  0  0  0  0
   -5.1110   -1.1830   -1.0760 C   0  0  0  0  0  0  0  0  0  0  0  0
   -0.8560    1.0680   -1.2670 C   0  0  0  0  0  0  0  0  0  0  0  0
    0.2020    1.7430   -1.2740 O   0  0  0  0  0  0  0  0  0  0  0  0
   -2.0080    1.8250   -1.0160 O   0  0  0  0  0  0  0  0  0  0  0  0
   -1.9730    3.2210   -0.7940 C   0  0  2  0  0  0  0  0  0  0  0  0
   -1.1210    3.5750    0.4070 C   0  0  0  0  0  0  0  0  0  0  0  0
   -3.3830    3.6610   -0.4590 C   0  0  0  0  0  0  0  0  0  0  0  0
   -1.5110    4.0230   -1.9640 C   0  0  0  0  0  0  0  0  0  0  0  0
  2  1  1  1
  2  3  1  0
  2 16  1  0
  3  4  1  0
  4  5  1  6
  4 10  1  0
  5  6  1  0
  6  7  1  0
  7  8  1  0
  7  9  1  0
 10 11  1  6
 10 15  1  0
 11 12  1  0
 12 13  1  0
 13 14  1  0
 15 16  1  0
 16 17  1  0
 17 18  2  0
 17 19  1  0
 19 20  1  6
 19 21  1  0
 19 31  1  0
 21 22  1  0
 22 23  2  0
 22 24  1  0
 24 25  1  0
 24 30  1  0
 25 26  1  0
 26 27  1  0
 27 28  1  1
 27 29  1  0
 29 30  1  0
 31 32  2  0
 31 33  1  0
 33 34  1  0
 34 35  1  1
 34 36  1  0
 34 37  1  0
M  END
