
     RDKit          3D

 32 34  0  0  0  0  0  0  0  0999 V2000
   -7.2480   -2.6040   -0.5590 N   0  0  0  0  0  0  0  0  0  0  0  0
   -6.7730   -1.3160   -0.1790 C   0  0  0  0  0  0  0  0  0  0  0  0
   -5.5190   -1.0480   -0.0360 N   0  0  0  0  0  0  0  0  0  0  0  0
   -5.0260    0.0690    0.4130 C   0  0  0  0  0  0  0  0  0  0  0  0
   -5.9350    1.1290    0.7360 C   0  0  0  0  0  0  0  0  0  0  0  0
   -5.2250    2.1400    1.2130 N   0  0  0  0  0  0  0  0  0  0  0  0
   -3.9140    1.8090    1.1970 C   0  0  0  0  0  0  0  0  0  0  0  0
   -3.8180    0.5550    0.7170 N   0  0  0  0  0  0  0  0  0  0  0  0
   -2.5930   -0.2010    0.4630 C   0  0  2  0  0  0  0  0  0  0  0  0
   -1.5180    0.5680    0.9340 O   0  0  0  0  0  0  0  0  0  0  0  0
   -0.5680    0.5130   -0.0180 C   0  0  2  0  0  0  0  0  0  0  0  0
    0.6410    1.3370    0.2070 C   0  0  0  0  0  0  0  0  0  0  0  0
    1.0980    0.8760    1.4710 O   0  0  0  0  0  0  0  0  0  0  0  0
    2.6660    0.4530    1.1710 P   0  0  0  0  0  0  0  0  0  0  0  0
    3.5730   -0.2770    2.2820 O   0  0  0  0  0  0  0  0  0  0  0  0
    3.1960    1.8050    1.2550 O   0  0  0  0  0  0  0  0  0  0  0  0
    3.0680    0.2870   -0.4690 O   0  0  0  0  0  0  0  0  0  0  0  0
    4.5060   -0.1700   -0.7110 P   0  0  0  0  0  0  0  0  0  0  0  0
    5.0250    1.2770   -0.1360 O   0  0  0  0  0  0  0  0  0  0  0  0
    4.2970   -1.4180    0.3640 O   0  0  0  0  0  0  0  0  0  0  0  0
    5.9380   -0.6680   -0.8920 O   0  0  0  0  0  0  0  0  0  0  0  0
    7.2690   -0.0620   -0.1860 P   0  0  0  0  0  0  0  0  0  0  0  0
    7.6620    1.5110   -0.2450 O   0  0  0  0  0  0  0  0  0  0  0  0
    8.2410   -0.5740   -1.2360 O   0  0  0  0  0  0  0  0  0  0  0  0
    8.3670   -1.2800    1.1900 S   0  0  0  0  0  0  0  0  0  0  0  0
   -1.3260    0.7600   -1.2930 C   0  0  1  0  0  0  0  0  0  0  0  0
   -0.5730    0.4320   -2.4170 O   0  0  0  0  0  0  0  0  0  0  0  0
   -2.4950   -0.2020   -1.0610 C   0  0  1  0  0  0  0  0  0  0  0  0
   -2.0540   -1.4840   -1.4320 O   0  0  0  0  0  0  0  0  0  0  0  0
   -7.2590    0.9070    0.5680 C   0  0  0  0  0  0  0  0  0  0  0  0
   -8.0960    1.7810    0.8540 O   0  0  0  0  0  0  0  0  0  0  0  0
   -7.6700   -0.3300    0.1250 N   0  0  0  0  0  0  0  0  0  0  0  0
  1  2  1  0
  2  3  1  0
  2 32  2  0
  3  4  1  0
  4  5  2  0
  4  8  1  0
  5  6  1  0
  5 30  1  0
  6  7  2  0
  7  8  1  0
  9  8  1  6
  9 10  1  0
  9 28  1  0
 10 11  1  0
 11 12  1  1
 11 26  1  0
 12 13  1  0
 13 14  1  0
 14 15  1  0
 14 16  1  0
 14 17  1  0
 17 18  1  0
 18 19  1  0
 18 20  1  0
 18 21  1  0
 21 22  1  0
 22 23  1  0
 22 24  1  0
 22 25  1  0
 26 27  1  6
 26 28  1  0
 28 29  1  1
 30 31  2  0
 30 32  1  0
M  CHG  1  32   1
M  END
