
     RDKit          3D

 36 37  0  0  0  0  0  0  0  0999 V2000
    0.0160    6.2630    2.5220 C   0  0  0  0  0  0  0  0  0  0  0  0
    0.4440    6.2060    1.0580 C   0  0  1  0  0  0  0  0  0  0  0  0
    0.1760    4.7920    0.6290 C   0  0  0  0  0  0  0  0  0  0  0  0
   -0.5840    4.4560   -0.3550 C   0  0  0  0  0  0  0  0  0  0  0  0
   -0.8530    3.1070   -0.7830 C   0  0  0  0  0  0  0  0  0  0  0  0
   -1.6870    3.0230   -1.8220 O   0  0  0  0  0  0  0  0  0  0  0  0
   -0.4440    1.8420   -0.3650 N   0  0  0  0  0  0  0  0  0  0  0  0
   -1.0490    0.7210   -1.1470 C   0  0  0  0  0  0  0  0  0  0  0  0
   -2.1160    0.1300   -0.2600 C   0  0  0  0  0  0  0  0  0  0  0  0
   -2.8480   -1.0380   -0.9120 C   0  0  2  0  0  0  0  0  0  0  0  0
   -4.0080   -1.3630   -0.2160 O   0  0  0  0  0  0  0  0  0  0  0  0
   -5.1740   -1.0340   -0.8540 C   0  0  0  0  0  0  0  0  0  0  0  0
   -6.3190   -1.4710    0.0660 C   0  0  0  0  0  0  0  0  0  0  0  0
   -6.2580   -2.8340    0.2910 O   0  0  0  0  0  0  0  0  0  0  0  0
   -2.0130   -2.1860   -1.2920 C   0  0  0  0  0  0  0  0  0  0  0  0
   -1.8640   -3.3360   -0.3800 C   0  0  2  0  0  0  0  0  0  0  0  0
   -2.7130   -4.4910   -0.9720 C   0  0  0  0  0  0  0  0  0  0  0  0
   -2.3430   -3.1920    1.0250 C   0  0  0  0  0  0  0  0  0  0  0  0
   -0.5460   -3.9040   -0.3360 N   0  0  0  0  0  0  0  0  0  0  0  0
    0.5710   -3.0580   -0.4710 C   0  0  0  0  0  0  0  0  0  0  0  0
    0.7050   -1.9750    0.5510 C   0  0  0  0  0  0  0  0  0  0  0  0
    0.9730   -0.7050   -0.0100 O   0  0  0  0  0  0  0  0  0  0  0  0
    0.9870    0.2280    0.9550 C   0  0  1  0  0  0  0  0  0  0  0  0
    2.4020    0.3250    1.4930 C   0  0  0  0  0  0  0  0  0  0  0  0
    2.6790    1.0610    2.4810 O   0  0  0  0  0  0  0  0  0  0  0  0
    3.4230   -0.4140    0.8840 N   0  0  0  0  0  0  0  0  0  0  0  0
    4.8170   -0.3660    1.3600 C   0  0  0  0  0  0  0  0  0  0  0  0
    5.6520   -1.2660    0.4920 C   0  0  0  0  0  0  0  0  0  0  0  0
    6.9880   -1.2450    0.9210 O   0  0  0  0  0  0  0  0  0  0  0  0
    7.9930   -2.2610   -0.0390 P   0  0  0  0  0  0  0  0  0  0  0  0
    9.4040   -1.3490   -0.4900 O   0  0  0  0  0  0  0  0  0  0  0  0
    8.5560   -3.6460    0.8810 O   0  0  0  0  0  0  0  0  0  0  0  0
    0.4530    1.6010    0.6740 C   0  0  0  0  0  0  0  0  0  0  0  0
   -1.2300    5.5650   -1.1000 C   0  0  0  0  0  0  0  0  0  0  0  0
   -1.0430    6.8050   -0.7810 C   0  0  0  0  0  0  0  0  0  0  0  0
   -0.2270    7.1310    0.2760 O   0  0  0  0  0  0  0  0  0  0  0  0
  2  1  1  1
  2  3  1  0
  2 36  1  0
  3  4  2  0
  4  5  1  0
  4 34  1  0
  5  6  2  0
  5  7  1  0
  7  8  1  0
  7 33  1  0
  8  9  1  0
  9 10  1  0
 10 11  1  1
 10 15  1  0
 11 12  1  0
 12 13  1  0
 13 14  1  0
 15 16  1  0
 16 17  1  6
 16 18  1  0
 16 19  1  0
 19 20  1  0
 20 21  1  0
 21 22  1  0
 22 23  1  0
 23 24  1  6
 23 33  1  0
 24 25  2  0
 24 26  1  0
 26 27  1  0
 27 28  1  0
 28 29  1  0
 29 30  1  0
 30 31  1  0
 30 32  1  0
 34 35  2  0
 35 36  1  0
M  END
