
     RDKit          3D

 37 39  0  0  0  0  0  0  0  0999 V2000
   -3.0770    1.4700    1.3690 C   0  0  0  0  0  0  0  0  0  0  0  0
   -2.3250    0.9990    0.1040 C   0  0  1  0  0  0  0  0  0  0  0  0
   -2.3080    2.1890   -0.7860 C   0  0  0  0  0  0  0  0  0  0  0  0
   -1.4210    3.3130   -0.4670 C   0  0  0  0  0  0  0  0  0  0  0  0
   -0.5790    3.1760    0.6140 O   0  0  0  0  0  0  0  0  0  0  0  0
    0.4960    4.0610    0.3860 C   0  0  0  0  0  0  0  0  0  0  0  0
    1.6380    3.5950    1.2130 C   0  0  0  0  0  0  0  0  0  0  0  0
    1.3060    2.5950    2.1930 N   0  0  0  0  0  0  0  0  0  0  0  0
    1.5990    1.2080    2.0830 C   0  0  0  0  0  0  0  0  0  0  0  0
    1.2860    0.4940    3.0730 O   0  0  0  0  0  0  0  0  0  0  0  0
    2.2330    0.5540    0.9230 C   0  0  0  0  0  0  0  0  0  0  0  0
    1.4710    0.3420   -0.2540 N   0  0  0  0  0  0  0  0  0  0  0  0
    2.1670   -0.2020   -1.3790 C   0  0  0  0  0  0  0  0  0  0  0  0
    1.4680   -0.3290   -2.4670 O   0  0  0  0  0  0  0  0  0  0  0  0
    3.5420   -0.6400   -1.4970 C   0  0  0  0  0  0  0  0  0  0  0  0
    4.5470   -0.7040   -0.6600 C   0  0  0  0  0  0  0  0  0  0  0  0
    5.7390   -1.2390   -1.3290 C   0  0  2  0  0  0  0  0  0  0  0  0
    7.1680   -0.0560   -1.2830 P   0  0  0  0  0  0  0  0  0  0  0  0
    6.7150    1.4900   -0.6540 O   0  0  0  0  0  0  0  0  0  0  0  0
    8.4900   -0.7130   -0.3740 O   0  0  0  0  0  0  0  0  0  0  0  0
    5.3170   -1.4950   -2.7010 C   0  0  0  0  0  0  0  0  0  0  0  0
    4.0470   -1.1490   -2.7990 C   0  0  0  0  0  0  0  0  0  0  0  0
    0.0850    0.6020   -0.4450 C   0  0  0  0  0  0  0  0  0  0  0  0
   -0.2410    1.0540   -1.5650 O   0  0  0  0  0  0  0  0  0  0  0  0
   -1.0290    0.4040    0.5080 C   0  0  2  0  0  0  0  0  0  0  0  0
   -1.0290   -0.9510    0.8940 N   0  0  0  0  0  0  0  0  0  0  0  0
   -1.7820   -2.0710    0.4970 C   0  0  0  0  0  0  0  0  0  0  0  0
   -1.1260   -3.1320    0.2080 O   0  0  0  0  0  0  0  0  0  0  0  0
   -3.2160   -2.2070    0.3640 C   0  0  2  0  0  0  0  0  0  0  0  0
   -3.6860   -2.9800    1.6250 C   0  0  0  0  0  0  0  0  0  0  0  0
   -3.3510   -2.2470    2.7620 O   0  0  0  0  0  0  0  0  0  0  0  0
   -3.7690   -2.8720   -0.8340 C   0  0  0  0  0  0  0  0  0  0  0  0
   -3.4330   -4.2480   -1.1130 C   0  0  0  0  0  0  0  0  0  0  0  0
   -2.7450   -4.9580   -0.3730 O   0  0  0  0  0  0  0  0  0  0  0  0
   -3.8970   -4.8600   -2.2900 O   0  0  0  0  0  0  0  0  0  0  0  0
   -3.9370   -0.8420    0.4480 C   0  0  0  0  0  0  0  0  0  0  0  0
   -3.2640    0.0090   -0.5630 C   0  0  0  0  0  0  0  0  0  0  0  0
  2  1  1  1
  2  3  1  0
  2 25  1  0
  2 37  1  0
  3  4  1  0
  4  5  1  0
  5  6  1  0
  6  7  1  0
  7  8  1  0
  8  9  1  0
  9 10  2  0
  9 11  1  0
 11 12  1  0
 12 13  1  0
 12 23  1  0
 13 14  2  0
 13 15  1  0
 15 16  2  0
 15 22  1  0
 16 17  1  0
 17 18  1  6
 17 21  1  0
 18 19  1  0
 18 20  1  0
 21 22  2  0
 23 24  2  0
 23 25  1  0
 25 26  1  6
 26 27  1  0
 27 28  2  0
 27 29  1  0
 29 30  1  1
 29 32  1  0
 29 36  1  0
 30 31  1  0
 32 33  1  0
 33 34  2  0
 33 35  1  0
 36 37  1  0
M  END
