
     RDKit          3D

 37 39  0  0  0  0  0  0  0  0999 V2000
   -3.0340    2.8520   -3.0310 C   0  0  0  0  0  0  0  0  0  0  0  0
   -2.5310    3.0500   -1.5980 C   0  0  2  0  0  0  0  0  0  0  0  0
   -2.1700    4.3890   -1.4910 O   0  0  0  0  0  0  0  0  0  0  0  0
   -3.2610    5.1810   -0.4080 P   0  0  0  0  0  0  0  0  0  0  0  0
   -2.7960    4.8160    1.2170 O   0  0  0  0  0  0  0  0  0  0  0  0
   -3.2830    6.9010   -0.6290 O   0  0  0  0  0  0  0  0  0  0  0  0
   -1.4100    2.1680   -1.3000 C   0  0  0  0  0  0  0  0  0  0  0  0
   -0.3020    2.6730   -0.9970 O   0  0  0  0  0  0  0  0  0  0  0  0
   -1.5110    0.7090   -1.3380 C   0  0  0  0  0  0  0  0  0  0  0  0
   -0.4450   -0.0340   -1.0550 C   0  0  0  0  0  0  0  0  0  0  0  0
   -0.4420   -1.4810   -1.0640 C   0  0  0  0  0  0  0  0  0  0  0  0
    0.6460   -2.1460   -0.7850 C   0  0  0  0  0  0  0  0  0  0  0  0
    1.9330   -1.7380   -0.4390 N   0  0  0  0  0  0  0  0  0  0  0  0
    2.6290   -0.5670   -0.2490 C   0  0  0  0  0  0  0  0  0  0  0  0
    2.1480    0.5240   -0.3820 O   0  0  0  0  0  0  0  0  0  0  0  0
    4.1040   -0.6770    0.1550 C   0  0  1  0  0  0  0  0  0  0  0  0
    4.7610   -1.4140   -0.9830 C   0  0  0  0  0  0  0  0  0  0  0  0
    4.3250   -0.7130   -2.2720 C   0  0  0  0  0  0  0  0  0  0  0  0
    4.7790    0.6280   -2.2110 O   0  0  0  0  0  0  0  0  0  0  0  0
    4.9160    1.3180   -1.0010 C   0  0  0  0  0  0  0  0  0  0  0  0
    5.2570    2.5490   -1.0250 O   0  0  0  0  0  0  0  0  0  0  0  0
    4.6730    0.6380    0.2130 N   0  0  0  0  0  0  0  0  0  0  0  0
    4.9890    1.2490    1.4700 C   0  0  0  0  0  0  0  0  0  0  0  0
    4.7710    0.3830    2.6640 C   0  0  0  0  0  0  0  0  0  0  0  0
    3.7110   -0.5080    2.4500 O   0  0  0  0  0  0  0  0  0  0  0  0
    4.2000   -1.3890    1.4580 C   0  0  0  0  0  0  0  0  0  0  0  0
    0.4990   -3.6220   -1.0090 C   0  0  0  0  0  0  0  0  0  0  0  0
   -0.5890   -4.1890   -1.4460 C   0  0  0  0  0  0  0  0  0  0  0  0
   -1.7320   -3.4470   -1.7530 N   0  0  0  0  0  0  0  0  0  0  0  0
   -1.7970   -2.0860   -1.3120 C   0  0  1  0  0  0  0  0  0  0  0  0
   -2.5980   -2.0800   -0.0530 C   0  0  0  0  0  0  0  0  0  0  0  0
   -3.0670   -3.1740    0.3560 O   0  0  0  0  0  0  0  0  0  0  0  0
   -2.8720   -0.9750    0.7100 O   0  0  0  0  0  0  0  0  0  0  0  0
   -3.6220   -0.9570    1.8940 C   0  0  1  0  0  0  0  0  0  0  0  0
   -3.0370   -1.8250    2.9800 C   0  0  0  0  0  0  0  0  0  0  0  0
   -3.7260    0.4570    2.4110 C   0  0  0  0  0  0  0  0  0  0  0  0
   -5.0470   -1.4500    1.6430 C   0  0  0  0  0  0  0  0  0  0  0  0
  2  1  1  6
  2  3  1  0
  2  7  1  0
  3  4  1  0
  4  5  1  0
  4  6  1  0
  7  8  2  0
  7  9  1  0
  9 10  2  3
 10 11  1  0
 11 12  2  0
 11 30  1  0
 12 13  1  0
 12 27  1  0
 13 14  1  0
 14 15  2  0
 16 14  1  6
 16 17  1  0
 16 22  1  0
 16 26  1  0
 17 18  1  0
 18 19  1  0
 19 20  1  0
 20 21  2  0
 20 22  1  0
 22 23  1  0
 23 24  1  0
 24 25  1  0
 25 26  1  0
 27 28  2  0
 28 29  1  0
 29 30  1  0
 30 31  1  1
 31 32  2  0
 31 33  1  0
 33 34  1  0
 34 35  1  1
 34 36  1  0
 34 37  1  0
M  END
