
     RDKit          3D

 37 38  0  0  0  0  0  0  0  0999 V2000
    5.1030   -0.4220    1.7670 C   0  0  0  0  0  0  0  0  0  0  0  0
    5.2350    0.3190    0.4060 C   0  0  0  0  0  0  0  0  0  0  0  0
    4.0630    0.1730   -0.2220 O   0  0  0  0  0  0  0  0  0  0  0  0
    3.5440   -1.0890   -1.0800 P   0  0  0  0  0  0  0  0  0  0  0  0
    4.1510   -2.1500   -2.1210 O   0  0  0  0  0  0  0  0  0  0  0  0
    5.4850   -2.3930   -2.2340 C   0  0  0  0  0  0  0  0  0  0  0  0
    5.9020   -3.1850   -0.9840 C   0  0  0  0  0  0  0  0  0  0  0  0
    1.7330   -1.5130   -0.6380 C   0  0  1  0  0  0  0  0  0  0  0  0
    1.7720   -2.3850    0.4880 O   0  0  0  0  0  0  0  0  0  0  0  0
    1.1830   -0.2260   -0.2760 C   0  0  0  0  0  0  0  0  0  0  0  0
   -0.1910    0.0600   -0.0810 N   0  0  0  0  0  0  0  0  0  0  0  0
   -1.0400   -0.6150    0.7500 C   0  0  0  0  0  0  0  0  0  0  0  0
   -2.4000   -1.0830    0.3880 C   0  0  0  0  0  0  0  0  0  0  0  0
   -3.1180   -1.2710    1.4380 N   0  0  0  0  0  0  0  0  0  0  0  0
   -3.1200   -1.2150    2.7840 C   0  0  0  0  0  0  0  0  0  0  0  0
   -3.3870   -0.0060    3.3370 C   0  0  0  0  0  0  0  0  0  0  0  0
   -3.4550    0.2290    4.7810 C   0  0  0  0  0  0  0  0  0  0  0  0
   -3.2090   -0.9060    5.5520 O   0  0  0  0  0  0  0  0  0  0  0  0
   -2.9530   -2.1310    4.9760 C   0  0  0  0  0  0  0  0  0  0  0  0
   -2.8930   -2.3370    3.6740 C   0  0  0  0  0  0  0  0  0  0  0  0
   -3.1520   -0.9340   -0.8100 C   0  0  0  0  0  0  0  0  0  0  0  0
   -2.8100   -0.8950   -2.0930 C   0  0  0  0  0  0  0  0  0  0  0  0
   -1.7190   -1.8530   -2.4790 C   0  0  0  0  0  0  0  0  0  0  0  0
   -2.1190   -2.7730   -3.3130 C   0  0  0  0  0  0  0  0  0  0  0  0
   -3.4720   -2.8510   -3.7780 O   0  0  0  0  0  0  0  0  0  0  0  0
   -3.4650   -0.2770   -3.1090 C   0  0  0  0  0  0  0  0  0  0  0  0
   -4.6680    0.4080   -2.8200 C   0  0  0  0  0  0  0  0  0  0  0  0
   -5.0630    0.3720   -1.5580 N   0  0  0  0  0  0  0  0  0  0  0  0
   -4.4110   -0.2280   -0.5700 C   0  0  0  0  0  0  0  0  0  0  0  0
   -4.8990   -0.1610    0.5740 O   0  0  0  0  0  0  0  0  0  0  0  0
   -0.5070    1.3720   -0.6390 C   0  0  0  0  0  0  0  0  0  0  0  0
   -1.1870    1.6200   -1.6110 O   0  0  0  0  0  0  0  0  0  0  0  0
    0.0560    2.4290    0.0990 O   0  0  0  0  0  0  0  0  0  0  0  0
   -0.0450    3.8000   -0.1850 C   0  0  2  0  0  0  0  0  0  0  0  0
    0.7880    3.9920   -1.4630 C   0  0  0  0  0  0  0  0  0  0  0  0
    0.6180    4.5590    0.9330 C   0  0  0  0  0  0  0  0  0  0  0  0
   -1.4420    4.3030   -0.4000 C   0  0  0  0  0  0  0  0  0  0  0  0
  1  2  1  0
  2  3  1  0
  3  4  1  0
  4  5  1  0
  4  8  1  0
  5  6  1  0
  6  7  1  0
  8  9  1  1
  8 10  1  0
 10 11  1  0
 11 12  1  0
 11 31  1  0
 12 13  1  0
 13 14  2  3
 13 21  1  0
 14 15  1  0
 15 16  2  0
 15 20  1  0
 16 17  1  0
 17 18  1  0
 18 19  1  0
 19 20  2  0
 21 22  2  0
 21 29  1  0
 22 23  1  0
 22 26  1  0
 23 24  2  3
 24 25  1  0
 26 27  2  0
 27 28  1  0
 28 29  1  0
 29 30  2  0
 31 32  2  0
 31 33  1  0
 33 34  1  0
 34 35  1  6
 34 36  1  0
 34 37  1  0
M  END
