
     RDKit          3D

 37 38  0  0  0  0  0  0  0  0999 V2000
    6.1260    0.5270    3.1350 C   0  0  0  0  0  0  0  0  0  0  0  0
    4.9140    0.7060    2.3080 C   0  0  0  0  0  0  0  0  0  0  0  0
    4.8250    0.1640    1.0720 C   0  0  0  0  0  0  0  0  0  0  0  0
    5.9600   -0.5730    0.6390 C   0  0  0  0  0  0  0  0  0  0  0  0
    6.2210   -1.2050   -0.4380 C   0  0  0  0  0  0  0  0  0  0  0  0
    5.3860   -1.3230   -1.5180 O   0  0  0  0  0  0  0  0  0  0  0  0
    7.4800   -1.8740   -0.6020 O   0  0  0  0  0  0  0  0  0  0  0  0
    3.6300    0.3590    0.2770 C   0  0  0  0  0  0  0  0  0  0  0  0
    3.5010   -0.1240   -0.8730 O   0  0  0  0  0  0  0  0  0  0  0  0
    2.4950    1.1170    0.7270 N   0  0  0  0  0  0  0  0  0  0  0  0
    1.2860    1.3020   -0.1000 C   0  0  1  0  0  0  0  0  0  0  0  0
    1.7680    1.9340   -1.3470 C   0  0  0  0  0  0  0  0  0  0  0  0
    2.9600    2.2980   -1.5530 O   0  0  0  0  0  0  0  0  0  0  0  0
    0.9060    2.1820   -2.4290 O   0  0  0  0  0  0  0  0  0  0  0  0
    0.6160   -0.0090   -0.4400 C   0  0  0  0  0  0  0  0  0  0  0  0
   -0.4610   -0.4040    0.4880 C   0  0  2  0  0  0  0  0  0  0  0  0
   -1.1050   -1.6670    0.3200 C   0  0  0  0  0  0  0  0  0  0  0  0
   -1.9710   -2.0010    1.2720 O   0  0  0  0  0  0  0  0  0  0  0  0
   -1.0190   -2.6450   -0.6520 N   0  0  0  0  0  0  0  0  0  0  0  0
   -0.2330   -2.5960   -1.8380 C   0  0  0  0  0  0  0  0  0  0  0  0
   -0.9910   -1.9640   -3.0110 C   0  0  0  0  0  0  0  0  0  0  0  0
   -1.7960   -3.9040   -0.4880 C   0  0  2  0  0  0  0  0  0  0  0  0
   -3.2250   -3.7690   -0.1480 C   0  0  0  0  0  0  0  0  0  0  0  0
   -2.9770   -4.4070    1.0920 O   0  0  0  0  0  0  0  0  0  0  0  0
   -1.6230   -4.5900    0.8190 C   0  0  0  0  0  0  0  0  0  0  0  0
   -1.2790    0.7120    0.7890 N   0  0  0  0  0  0  0  0  0  0  0  0
   -2.6310    0.5840    1.0770 C   0  0  0  0  0  0  0  0  0  0  0  0
   -3.5360    0.1940   -0.0790 C   0  0  0  0  0  0  0  0  0  0  0  0
   -4.9560    0.0680    0.4360 C   0  0  0  0  0  0  0  0  0  0  0  0
   -5.5210    1.6800    1.1490 P   0  0  0  0  0  0  0  0  0  0  0  0
   -7.2540    1.8020    1.1610 O   0  0  0  0  0  0  0  0  0  0  0  0
   -4.8590    2.9750    0.2110 O   0  0  0  0  0  0  0  0  0  0  0  0
   -0.5410    1.6440    1.5800 C   0  0  0  0  0  0  0  0  0  0  0  0
    0.4470    2.2930    0.6250 C   0  0  2  0  0  0  0  0  0  0  0  0
   -0.3500    3.2370   -0.2240 C   0  0  0  0  0  0  0  0  0  0  0  0
   -1.2270    2.5150   -1.0090 O   0  0  0  0  0  0  0  0  0  0  0  0
   -2.0170    3.3390   -1.8150 C   0  0  0  0  0  0  0  0  0  0  0  0
  1  2  1  0
  2  3  2  3
  3  4  1  0
  3  8  1  0
  4  5  2  3
  5  6  1  0
  5  7  1  0
  8  9  2  0
  8 10  1  0
 11 10  1  1
 11 12  1  0
 11 15  1  0
 11 34  1  0
 12 13  2  0
 12 14  1  0
 15 16  1  0
 16 17  1  6
 16 26  1  0
 17 18  2  0
 17 19  1  0
 19 20  1  0
 22 19  1  1
 20 21  1  0
 22 23  1  0
 22 25  1  0
 23 24  1  0
 24 25  1  0
 26 27  1  0
 26 33  1  0
 27 28  1  0
 28 29  1  0
 29 30  1  0
 30 31  1  0
 30 32  1  0
 33 34  1  0
 34 35  1  6
 35 36  1  0
 36 37  1  0
M  END
