
     RDKit          3D

 17 16  0  0  0  0  0  0  0  0999 V2000
    3.7320   -1.0980    2.5730 C   0  0  0  0  0  0  0  0  0  0  0  0
    2.9440   -0.4150    1.6520 O   0  0  0  0  0  0  0  0  0  0  0  0
    3.4150   -0.5050    0.3540 C   0  0  1  0  0  0  0  0  0  0  0  0
    2.4310   -1.2120   -0.5200 C   0  0  0  0  0  0  0  0  0  0  0  0
    1.1860   -0.7000   -0.6300 O   0  0  0  0  0  0  0  0  0  0  0  0
    1.0560    0.5510   -1.1520 C   0  0  0  0  0  0  0  0  0  0  0  0
   -0.3660    0.9910   -1.2480 C   0  0  0  0  0  0  0  0  0  0  0  0
   -0.6030    2.1310   -1.7160 O   0  0  0  0  0  0  0  0  0  0  0  0
   -1.4650    0.1980   -0.8420 N   0  0  0  0  0  0  0  0  0  0  0  0
   -2.8240    0.7400   -0.9850 C   0  0  0  0  0  0  0  0  0  0  0  0
   -3.8380   -0.2190   -0.5140 C   0  0  0  0  0  0  0  0  0  0  0  0
   -3.9540   -1.4940   -1.1130 N   0  0  0  0  0  0  0  0  0  0  0  0
   -4.6460    0.1060    0.4730 C   0  0  0  0  0  0  0  0  0  0  0  0
   -4.6090    1.3620    1.1380 N   0  0  0  0  0  0  0  0  0  0  0  0
    3.9290    0.7780   -0.1690 C   0  0  0  0  0  0  0  0  0  0  0  0
    4.3960    0.9160   -1.4900 N   0  0  0  0  0  0  0  0  0  0  0  0
    3.9560    1.8070    0.5910 O   0  0  0  0  0  0  0  0  0  0  0  0
  1  2  1  0
  2  3  1  0
  3  4  1  6
  3 15  1  0
  4  5  1  0
  5  6  1  0
  6  7  1  0
  7  8  2  0
  7  9  1  0
  9 10  1  0
 10 11  1  0
 11 12  1  0
 11 13  2  3
 13 14  1  0
 15 16  1  0
 15 17  2  0
M  CHG  2  12   1  14   1
M  END
