
     RDKit          3D

 17 16  0  0  0  0  0  0  0  0999 V2000
   -3.3150    0.5850   -1.4310 C   0  0  0  0  0  0  0  0  0  0  0  0
   -2.9410    0.3500   -0.0020 C   0  0  0  0  0  0  0  0  0  0  0  0
   -1.5200    0.3950    0.3790 C   0  0  1  0  0  0  0  0  0  0  0  0
   -1.5560    0.1860    1.8330 O   0  0  0  0  0  0  0  0  0  0  0  0
   -1.1250    1.2840    2.4480 N   0  0  0  0  0  0  0  0  0  0  0  0
   -0.6390   -0.7240   -0.0500 C   0  0  1  0  0  0  0  0  0  0  0  0
   -0.2420   -0.8240   -1.4810 C   0  0  0  0  0  0  0  0  0  0  0  0
   -1.2000   -1.0280   -2.4150 O   0  0  0  0  0  0  0  0  0  0  0  0
    0.6660   -0.5840    0.6610 N   0  0  0  0  0  0  0  0  0  0  0  0
    1.3240    0.6410    0.4010 C   0  0  0  0  0  0  0  0  0  0  0  0
    2.6850    0.3510   -0.1840 C   0  0  0  0  0  0  0  0  0  0  0  0
    3.0790   -0.8300   -0.3720 O   0  0  0  0  0  0  0  0  0  0  0  0
    3.5760    1.3980   -0.5470 N   0  0  0  0  0  0  0  0  0  0  0  0
    4.8980    1.1060   -1.1160 C   0  0  0  0  0  0  0  0  0  0  0  0
   -1.2030   -1.9990    0.4150 C   0  0  0  0  0  0  0  0  0  0  0  0
   -0.5710   -2.7790    1.4060 N   0  0  0  0  0  0  0  0  0  0  0  0
   -2.2770   -2.4140   -0.0770 O   0  0  0  0  0  0  0  0  0  0  0  0
  1  2  1  0
  3  2  1  6
  3  4  1  0
  3  6  1  0
  4  5  1  0
  6  7  1  6
  6  9  1  0
  6 15  1  0
  7  8  1  0
  9 10  1  0
 10 11  1  0
 11 12  2  0
 11 13  1  0
 13 14  1  0
 15 16  1  0
 15 17  2  0
M  CHG  2   5   1   9   1
M  END
