
     RDKit          3D

 17 16  0  0  0  0  0  0  0  0999 V2000
    6.8330   -0.0190   -0.0040 C   0  0  0  0  0  0  0  0  0  0  0  0
    5.9780    0.8610   -0.6100 O   0  0  0  0  0  0  0  0  0  0  0  0
    4.7620    0.3390   -0.9600 C   0  0  0  0  0  0  0  0  0  0  0  0
    3.9770   -0.1940    0.2160 C   0  0  0  0  0  0  0  0  0  0  0  0
    2.6990   -0.7360   -0.1940 N   0  0  0  0  0  0  0  0  0  0  0  0
    1.6070    0.1560    0.0250 C   0  0  0  0  0  0  0  0  0  0  0  0
    0.3340   -0.5860   -0.0400 C   0  0  0  0  0  0  0  0  0  0  0  0
    0.3630   -1.8200   -0.2650 O   0  0  0  0  0  0  0  0  0  0  0  0
   -0.9360    0.0390    0.1400 N   0  0  0  0  0  0  0  0  0  0  0  0
   -2.1170   -0.7650    0.0580 C   0  0  0  0  0  0  0  0  0  0  0  0
   -3.3850    0.0160    0.2670 C   0  0  2  0  0  0  0  0  0  0  0  0
   -3.4450    0.6330    1.4980 O   0  0  0  0  0  0  0  0  0  0  0  0
   -4.5320   -1.0040    0.2350 C   0  0  0  0  0  0  0  0  0  0  0  0
   -5.8090   -0.3820    0.4030 N   0  0  0  0  0  0  0  0  0  0  0  0
   -3.5700    0.9930   -0.8350 C   0  0  0  0  0  0  0  0  0  0  0  0
   -3.7780    2.3830   -0.5530 N   0  0  0  0  0  0  0  0  0  0  0  0
   -3.5430    0.5940   -2.0260 O   0  0  0  0  0  0  0  0  0  0  0  0
  1  2  1  0
  2  3  1  0
  3  4  1  0
  4  5  1  0
  5  6  1  0
  6  7  1  0
  7  8  2  0
  7  9  1  0
  9 10  1  0
 10 11  1  0
 11 12  1  1
 11 13  1  0
 11 15  1  0
 13 14  1  0
 15 16  1  0
 15 17  2  0
M  CHG  2   5   1  14   1
M  END
