
     RDKit          3D

 17 16  0  0  0  0  0  0  0  0999 V2000
    5.4130    2.7590    0.4160 N   0  0  0  0  0  0  0  0  0  0  0  0
    4.3060    1.8750    0.5270 C   0  0  0  0  0  0  0  0  0  0  0  0
    4.5580    0.6780    0.7990 O   0  0  0  0  0  0  0  0  0  0  0  0
    3.0010    2.2550    0.3550 O   0  0  0  0  0  0  0  0  0  0  0  0
    1.8670    1.4220    0.4510 C   0  0  0  0  0  0  0  0  0  0  0  0
    1.9290    0.3290   -0.5670 C   0  0  0  0  0  0  0  0  0  0  0  0
    0.7910   -0.6110   -0.5470 C   0  0  0  0  0  0  0  0  0  0  0  0
    1.0720   -1.9050   -0.3140 C   0  0  0  0  0  0  0  0  0  0  0  0
    0.0400   -2.9000   -0.2750 C   0  0  0  0  0  0  0  0  0  0  0  0
    0.3500   -4.2730   -0.0220 N   0  0  0  0  0  0  0  0  0  0  0  0
   -1.1780   -2.6420   -0.4560 O   0  0  0  0  0  0  0  0  0  0  0  0
   -0.5610   -0.2570   -0.7540 N   0  0  0  0  0  0  0  0  0  0  0  0
   -1.4700    0.2620    0.2170 C   0  0  0  0  0  0  0  0  0  0  0  0
   -2.8260    0.4920   -0.3720 C   0  0  0  0  0  0  0  0  0  0  0  0
   -3.0540    0.2450   -1.5430 O   0  0  0  0  0  0  0  0  0  0  0  0
   -3.9350    1.0310    0.4610 C   0  0  0  0  0  0  0  0  0  0  0  0
   -5.1460    1.1780   -0.2840 N   0  0  0  0  0  0  0  0  0  0  0  0
  1  2  1  0
  2  3  2  0
  2  4  1  0
  4  5  1  0
  5  6  1  0
  6  7  1  0
  7  8  2  3
  7 12  1  0
  8  9  1  0
  9 10  1  0
  9 11  2  0
 12 13  1  0
 13 14  1  0
 14 15  2  0
 14 16  1  0
 16 17  1  0
M  CHG  2  10   1  17   1
M  END
