
     RDKit          3D

 17 16  0  0  0  0  0  0  0  0999 V2000
    5.7000    2.2490    0.1970 N   0  0  0  0  0  0  0  0  0  0  0  0
    4.5260    1.4180    0.1080 C   0  0  0  0  0  0  0  0  0  0  0  0
    3.5220    1.9360   -0.4130 O   0  0  0  0  0  0  0  0  0  0  0  0
    4.5090    0.0420    0.6000 C   0  0  0  0  0  0  0  0  0  0  0  0
    3.2780   -0.5570    0.5370 O   0  0  0  0  0  0  0  0  0  0  0  0
    2.3830    0.0260    1.3660 C   0  0  0  0  0  0  0  0  0  0  0  0
    1.0060   -0.5950    1.3280 C   0  0  0  0  0  0  0  0  0  0  0  0
    0.4350   -0.5360    0.0720 O   0  0  0  0  0  0  0  0  0  0  0  0
   -0.8070   -1.1080    0.0830 C   0  0  2  0  0  0  0  0  0  0  0  0
   -0.8800   -2.2540   -0.8820 C   0  0  0  0  0  0  0  0  0  0  0  0
   -2.0590   -3.0190   -1.0640 N   0  0  0  0  0  0  0  0  0  0  0  0
    0.1200   -2.5280   -1.5290 O   0  0  0  0  0  0  0  0  0  0  0  0
   -1.8870   -0.1490   -0.3440 C   0  0  0  0  0  0  0  0  0  0  0  0
   -1.8180    0.4170   -1.6330 N   0  0  0  0  0  0  0  0  0  0  0  0
   -2.8690    0.1500    0.4690 C   0  0  0  0  0  0  0  0  0  0  0  0
   -3.9920    1.0490    0.2320 C   0  0  0  0  0  0  0  0  0  0  0  0
   -4.0710    1.7050   -1.0260 N   0  0  0  0  0  0  0  0  0  0  0  0
  1  2  1  0
  2  3  2  0
  2  4  1  0
  4  5  1  0
  5  6  1  0
  6  7  1  0
  7  8  1  0
  9  8  1  6
  9 10  1  0
  9 13  1  0
 10 11  1  0
 10 12  2  0
 13 14  1  0
 13 15  2  3
 15 16  1  0
 16 17  1  0
M  CHG  2  11   1  17   1
M  END
