
     RDKit          3D

 17 16  0  0  0  0  0  0  0  0999 V2000
   -0.1820    3.0060   -0.8150 N   0  0  0  0  0  0  0  0  0  0  0  0
   -0.7930    2.8350    0.4550 C   0  0  0  0  0  0  0  0  0  0  0  0
   -0.9770    3.9200    1.1090 O   0  0  0  0  0  0  0  0  0  0  0  0
   -1.1970    1.5620    1.0150 C   0  0  0  0  0  0  0  0  0  0  0  0
   -1.0080    0.4430    0.3550 C   0  0  0  0  0  0  0  0  0  0  0  0
   -0.4060    0.3880   -0.9320 N   0  0  0  0  0  0  0  0  0  0  0  0
    0.8280    0.1070   -1.0910 C   0  0  0  0  0  0  0  0  0  0  0  0
    1.3620    0.0710   -2.4310 N   0  0  0  0  0  0  0  0  0  0  0  0
    1.7220   -0.1890    0.0580 C   0  0  0  0  0  0  0  0  0  0  0  0
    2.9030    0.7540   -0.0190 C   0  0  0  0  0  0  0  0  0  0  0  0
    3.8770    0.5240    1.1160 C   0  0  0  0  0  0  0  0  0  0  0  0
    4.3760   -0.7770    1.0900 O   0  0  0  0  0  0  0  0  0  0  0  0
   -1.4390   -0.8620    0.9290 C   0  0  1  0  0  0  0  0  0  0  0  0
   -1.9740   -0.6130    2.1890 O   0  0  0  0  0  0  0  0  0  0  0  0
   -2.5300   -1.3770   -0.0130 C   0  0  0  0  0  0  0  0  0  0  0  0
   -3.0370   -2.5550    0.5360 O   0  0  0  0  0  0  0  0  0  0  0  0
   -4.0030   -3.0800   -0.2250 N   0  0  0  0  0  0  0  0  0  0  0  0
  1  2  1  0
  2  3  2  0
  2  4  1  0
  4  5  2  3
  5  6  1  0
  5 13  1  0
  6  7  2  3
  7  8  1  0
  7  9  1  0
  9 10  1  0
 10 11  1  0
 11 12  1  0
 13 14  1  1
 13 15  1  0
 15 16  1  0
 16 17  1  0
M  CHG  2   6   1  17   1
M  END
