
     RDKit          3D

 17 16  0  0  0  0  0  0  0  0999 V2000
   -3.0960    1.4630    0.9730 C   0  0  0  0  0  0  0  0  0  0  0  0
   -2.5570    1.1120   -0.3850 C   0  0  0  0  0  0  0  0  0  0  0  0
   -1.1910    0.5280   -0.3810 C   0  0  1  0  0  0  0  0  0  0  0  0
   -0.3510    1.4590    0.2070 O   0  0  0  0  0  0  0  0  0  0  0  0
    0.2760    2.1780   -0.7410 N   0  0  0  0  0  0  0  0  0  0  0  0
   -0.9860   -0.8840   -0.0310 C   0  0  1  0  0  0  0  0  0  0  0  0
   -1.8840   -1.8300   -0.8430 C   0  0  0  0  0  0  0  0  0  0  0  0
   -3.2110   -1.6110   -0.5350 O   0  0  0  0  0  0  0  0  0  0  0  0
    0.3710   -1.2830   -0.4510 N   0  0  0  0  0  0  0  0  0  0  0  0
    1.4050   -0.7560    0.3520 C   0  0  0  0  0  0  0  0  0  0  0  0
    2.5190   -0.1550   -0.4520 C   0  0  0  0  0  0  0  0  0  0  0  0
    2.4200   -0.1840   -1.7020 O   0  0  0  0  0  0  0  0  0  0  0  0
    3.6630    0.4360    0.1220 N   0  0  0  0  0  0  0  0  0  0  0  0
    4.7410    1.0170   -0.6560 C   0  0  0  0  0  0  0  0  0  0  0  0
   -1.1630   -1.2990    1.3630 C   0  0  0  0  0  0  0  0  0  0  0  0
   -0.0920   -2.0220    2.0020 N   0  0  0  0  0  0  0  0  0  0  0  0
   -2.1890   -1.0790    2.0680 O   0  0  0  0  0  0  0  0  0  0  0  0
  1  2  1  0
  3  2  1  1
  3  4  1  0
  3  6  1  0
  4  5  1  0
  6  7  1  6
  6  9  1  0
  6 15  1  0
  7  8  1  0
  9 10  1  0
 10 11  1  0
 11 12  2  0
 11 13  1  0
 13 14  1  0
 15 16  1  0
 15 17  2  0
M  CHG  2   5   1   9   1
M  END
