
     RDKit          3D

 17 16  0  0  0  0  0  0  0  0999 V2000
   -3.2770    0.3700   -1.5680 C   0  0  0  0  0  0  0  0  0  0  0  0
   -2.7550    0.0010   -0.1510 C   0  0  2  0  0  0  0  0  0  0  0  0
   -3.4670    0.8230    0.8690 C   0  0  0  0  0  0  0  0  0  0  0  0
   -3.3210    2.2340    0.7860 N   0  0  0  0  0  0  0  0  0  0  0  0
   -1.4060    0.0670   -0.1990 O   0  0  0  0  0  0  0  0  0  0  0  0
   -0.7630    1.2040   -0.5140 C   0  0  0  0  0  0  0  0  0  0  0  0
    0.7480    0.8450   -0.5100 C   0  0  0  0  0  0  0  0  0  0  0  0
    1.1040    0.3920    0.7500 O   0  0  0  0  0  0  0  0  0  0  0  0
    2.4310    0.0740    0.8390 C   0  0  0  0  0  0  0  0  0  0  0  0
    2.8800   -1.0060   -0.0970 C   0  0  0  0  0  0  0  0  0  0  0  0
    4.2890   -1.2940    0.0550 N   0  0  0  0  0  0  0  0  0  0  0  0
    5.2560   -0.2930   -0.1720 C   0  0  0  0  0  0  0  0  0  0  0  0
    6.6160   -0.6270   -0.0080 N   0  0  0  0  0  0  0  0  0  0  0  0
    4.9700    0.8900   -0.5160 O   0  0  0  0  0  0  0  0  0  0  0  0
   -3.1270   -1.4410   -0.0180 C   0  0  0  0  0  0  0  0  0  0  0  0
   -2.1300   -2.4360    0.0350 N   0  0  0  0  0  0  0  0  0  0  0  0
   -4.2980   -1.7270    0.0430 O   0  0  0  0  0  0  0  0  0  0  0  0
  2  1  1  6
  2  3  1  0
  2  5  1  0
  2 15  1  0
  3  4  1  0
  5  6  1  0
  6  7  1  0
  7  8  1  0
  8  9  1  0
  9 10  1  0
 10 11  1  0
 11 12  1  0
 12 13  1  0
 12 14  2  0
 15 16  1  0
 15 17  2  0
M  CHG  2   4   1  16   1
M  END
