
     RDKit          3D

 17 16  0  0  0  0  0  0  0  0999 V2000
   -6.1300   -0.7040    0.5860 C   0  0  0  0  0  0  0  0  0  0  0  0
   -5.3700    0.4400    0.0500 C   0  0  0  0  0  0  0  0  0  0  0  0
   -3.9430    0.3510    0.0090 N   0  0  0  0  0  0  0  0  0  0  0  0
   -3.3320   -0.6860    0.7570 C   0  0  0  0  0  0  0  0  0  0  0  0
   -1.9050   -0.8280    0.6580 C   0  0  0  0  0  0  0  0  0  0  0  0
   -1.1750   -1.6160    1.1350 O   0  0  0  0  0  0  0  0  0  0  0  0
   -1.1650    0.3670   -0.3360 N   0  0  0  0  0  0  0  0  0  0  0  0
    0.1460   -0.1860   -0.2680 C   0  0  0  0  0  0  0  0  0  0  0  0
    0.6430   -1.1520    0.1950 O   0  0  0  0  0  0  0  0  0  0  0  0
    1.0560    0.7510   -0.9850 N   0  0  0  0  0  0  0  0  0  0  0  0
    2.4340    0.6010   -1.1390 C   0  0  0  0  0  0  0  0  0  0  0  0
    3.3130    0.5750    0.0340 C   0  0  1  0  0  0  0  0  0  0  0  0
    3.0660    1.7710    0.7540 O   0  0  0  0  0  0  0  0  0  0  0  0
    3.3860   -0.5330    0.9720 C   0  0  0  0  0  0  0  0  0  0  0  0
    3.6580   -1.8350    0.4370 N   0  0  0  0  0  0  0  0  0  0  0  0
    4.7560    0.8610   -0.5150 C   0  0  0  0  0  0  0  0  0  0  0  0
    5.5990    1.0560    0.5640 O   0  0  0  0  0  0  0  0  0  0  0  0
  1  2  1  0
  2  3  1  0
  3  4  1  0
  4  5  1  0
  5  6  2  0
  5  7  1  0
  7  8  1  0
  8  9  2  0
  8 10  1  0
 10 11  1  0
 11 12  1  0
 12 13  1  1
 12 14  1  0
 12 16  1  0
 14 15  1  0
 16 17  1  0
M  CHG  2   3   1  15   1
M  END
