
     RDKit          3D

 17 16  0  0  0  0  0  0  0  0999 V2000
   -2.4370    0.3940    3.0360 N   0  0  0  0  0  0  0  0  0  0  0  0
   -1.4740   -0.2420    2.1970 C   0  0  0  0  0  0  0  0  0  0  0  0
   -0.6790   -1.0440    2.7200 O   0  0  0  0  0  0  0  0  0  0  0  0
   -1.4570    0.0650    0.7810 C   0  0  0  0  0  0  0  0  0  0  0  0
   -0.6210   -0.4480   -0.0910 C   0  0  0  0  0  0  0  0  0  0  0  0
    0.3550   -1.3860    0.3900 N   0  0  0  0  0  0  0  0  0  0  0  0
    1.4230   -1.0140    0.9670 C   0  0  0  0  0  0  0  0  0  0  0  0
    2.3350   -2.0400    1.4120 N   0  0  0  0  0  0  0  0  0  0  0  0
    1.8120    0.3900    1.2410 C   0  0  0  0  0  0  0  0  0  0  0  0
    3.2140    0.6610    0.8240 C   0  0  0  0  0  0  0  0  0  0  0  0
    3.5420    0.4740   -0.6040 C   0  0  0  0  0  0  0  0  0  0  0  0
    2.8590    1.2550   -1.4990 O   0  0  0  0  0  0  0  0  0  0  0  0
   -0.6060   -0.1490   -1.5290 C   0  0  1  0  0  0  0  0  0  0  0  0
   -0.7040   -1.3200   -2.3050 O   0  0  0  0  0  0  0  0  0  0  0  0
   -1.8160    0.6850   -1.8950 C   0  0  0  0  0  0  0  0  0  0  0  0
   -2.9810   -0.0050   -1.6290 O   0  0  0  0  0  0  0  0  0  0  0  0
   -4.0810    0.6840   -1.9330 N   0  0  0  0  0  0  0  0  0  0  0  0
  1  2  1  0
  2  3  2  0
  2  4  1  0
  4  5  2  3
  5  6  1  0
  5 13  1  0
  6  7  2  3
  7  8  1  0
  7  9  1  0
  9 10  1  0
 10 11  1  0
 11 12  1  0
 13 14  1  6
 13 15  1  0
 15 16  1  0
 16 17  1  0
M  CHG  2   6   1  17   1
M  END
