
     RDKit          3D

 26 28  0  0  0  0  0  0  0  0999 V2000
    4.7140   -2.3680    0.2920 C   0  0  0  0  0  0  0  0  0  0  0  0
    5.4000   -1.2930   -0.1170 C   0  0  0  0  0  0  0  0  0  0  0  0
    4.7260   -0.0220   -0.2300 C   0  0  0  0  0  0  0  0  0  0  0  0
    3.4020    0.0040   -0.1750 N   0  0  0  0  0  0  0  0  0  0  0  0
    2.6730    1.1620   -0.2480 C   0  0  0  0  0  0  0  0  0  0  0  0
    1.2610    1.0660   -0.1820 N   0  0  0  0  0  0  0  0  0  0  0  0
    0.3340    2.1120   -0.2430 C   0  0  0  0  0  0  0  0  0  0  0  0
    0.7060    3.2880   -0.3530 O   0  0  0  0  0  0  0  0  0  0  0  0
   -1.1190    1.7750   -0.1730 C   0  0  0  0  0  0  0  0  0  0  0  0
   -1.3190    0.3980    0.0380 O   0  0  0  0  0  0  0  0  0  0  0  0
   -2.5760   -0.1710    0.1150 C   0  0  0  0  0  0  0  0  0  0  0  0
   -3.6790    0.6440   -0.0340 C   0  0  0  0  0  0  0  0  0  0  0  0
   -4.9110    0.0330    0.0500 C   0  0  0  0  0  0  0  0  0  0  0  0
   -6.0950    0.9050   -0.1040 C   0  0  0  0  0  0  0  0  0  0  0  0
   -5.0730   -1.3390    0.2710 C   0  0  0  0  0  0  0  0  0  0  0  0
   -3.9490   -2.1150    0.4150 C   0  0  0  0  0  0  0  0  0  0  0  0
   -2.6950   -1.5360    0.3370 C   0  0  0  0  0  0  0  0  0  0  0  0
   -4.4430   -3.4990    0.6560 C   0  0  0  0  0  0  0  0  0  0  0  0
   -5.8130   -3.4480    0.0370 C   0  0  0  0  0  0  0  0  0  0  0  0
   -6.2280   -2.1140    0.3800 O   0  0  0  0  0  0  0  0  0  0  0  0
    3.3860    2.3220   -0.3820 C   0  0  0  0  0  0  0  0  0  0  0  0
    4.7890    2.3230   -0.4420 C   0  0  0  0  0  0  0  0  0  0  0  0
    5.4510    3.5720   -0.5330 C   0  0  0  0  0  0  0  0  0  0  0  0
    6.0250    4.6180   -0.6100 N   0  0  0  0  0  0  0  0  0  0  0  0
    5.4610    1.1490   -0.3670 C   0  0  0  0  0  0  0  0  0  0  0  0
    6.9400    1.0840   -0.4350 C   0  0  0  0  0  0  0  0  0  0  0  0
  1  2  2  0
  2  3  1  0
  3  4  2  0
  3 25  1  0
  4  5  1  0
  5  6  1  0
  5 21  2  0
  6  7  1  0
  7  8  2  0
  7  9  1  0
  9 10  1  0
 10 11  1  0
 11 12  2  0
 11 17  1  0
 12 13  1  0
 13 14  1  0
 13 15  2  0
 15 16  1  0
 15 20  1  0
 16 17  2  0
 16 18  1  0
 18 19  1  0
 19 20  1  0
 21 22  1  0
 22 23  1  0
 22 25  2  0
 23 24  3  0
 25 26  1  0
M  END
