
     RDKit          3D

 26 28  0  0  0  0  0  0  0  0999 V2000
    6.0810   -3.1160    0.2420 C   0  0  0  0  0  0  0  0  0  0  0  0
    6.4740   -1.8960    0.4430 C   0  0  0  0  0  0  0  0  0  0  0  0
    5.6760   -0.6880    0.5560 C   0  0  0  0  0  0  0  0  0  0  0  0
    6.3020    0.4490    0.7620 C   0  0  0  0  0  0  0  0  0  0  0  0
    7.7960    0.4700    0.8730 C   0  0  0  0  0  0  0  0  0  0  0  0
    4.2280   -0.7250    0.4460 C   0  0  0  0  0  0  0  0  0  0  0  0
    3.6350   -1.8410    0.2450 O   0  0  0  0  0  0  0  0  0  0  0  0
    3.3970    0.4100    0.5470 N   0  0  0  0  0  0  0  0  0  0  0  0
    1.9890    0.4370    0.4490 C   0  0  0  0  0  0  0  0  0  0  0  0
    1.2020   -0.6490    0.2380 C   0  0  0  0  0  0  0  0  0  0  0  0
   -0.2020   -0.5390    0.1520 C   0  0  0  0  0  0  0  0  0  0  0  0
   -0.8280    0.6900    0.2810 C   0  0  0  0  0  0  0  0  0  0  0  0
   -2.2930    0.7610    0.1850 C   0  0  0  0  0  0  0  0  0  0  0  0
   -3.0130    1.9190    0.2970 C   0  0  0  0  0  0  0  0  0  0  0  0
   -4.4000    1.9300    0.1980 C   0  0  0  0  0  0  0  0  0  0  0  0
   -5.0520    3.0010    0.3030 O   0  0  0  0  0  0  0  0  0  0  0  0
   -5.0350    0.7670   -0.0120 N   0  0  0  0  0  0  0  0  0  0  0  0
   -4.3450   -0.3780   -0.1250 C   0  0  0  0  0  0  0  0  0  0  0  0
   -3.0090   -0.3800   -0.0280 N   0  0  0  0  0  0  0  0  0  0  0  0
   -5.1180   -1.6230   -0.3570 C   0  0  0  0  0  0  0  0  0  0  0  0
   -6.1180   -1.4000   -1.4540 C   0  0  0  0  0  0  0  0  0  0  0  0
   -6.7690   -0.0560   -1.4210 C   0  0  0  0  0  0  0  0  0  0  0  0
   -6.4860    0.6930   -0.1280 C   0  0  0  0  0  0  0  0  0  0  0  0
   -0.0510    1.7920    0.4940 C   0  0  0  0  0  0  0  0  0  0  0  0
    1.3090    1.6620    0.5730 C   0  0  0  0  0  0  0  0  0  0  0  0
    2.0730    2.7800    0.7870 O   0  0  0  0  0  0  0  0  0  0  0  0
  1  2  2  0
  2  3  1  0
  3  4  2  3
  3  6  1  0
  4  5  1  0
  6  7  2  0
  6  8  1  0
  8  9  1  0
  9 10  2  0
  9 25  1  0
 10 11  1  0
 11 12  2  0
 12 13  1  0
 12 24  1  0
 13 14  2  0
 13 19  1  0
 14 15  1  0
 15 16  2  0
 15 17  1  0
 17 18  1  0
 17 23  1  0
 18 19  2  0
 18 20  1  0
 20 21  1  0
 21 22  1  0
 22 23  1  0
 24 25  2  0
 25 26  1  0
M  END
