
     RDKit          3D

 26 28  0  0  0  0  0  0  0  0999 V2000
    5.8090   -2.9260   -0.8330 C   0  0  0  0  0  0  0  0  0  0  0  0
    4.8480   -2.4990   -0.0330 C   0  0  0  0  0  0  0  0  0  0  0  0
    5.1160   -1.3080    0.8530 C   0  0  0  0  0  0  0  0  0  0  0  0
    4.2100   -0.2360    0.5680 N   0  0  0  0  0  0  0  0  0  0  0  0
    2.7860   -0.3200    0.6980 C   0  0  0  0  0  0  0  0  0  0  0  0
    2.3000   -1.4030    1.0920 O   0  0  0  0  0  0  0  0  0  0  0  0
    1.9370    0.8220    0.3810 C   0  0  0  0  0  0  0  0  0  0  0  0
    2.3430    2.0160   -0.0840 N   0  0  0  0  0  0  0  0  0  0  0  0
    1.2850    2.8280   -0.2690 C   0  0  0  0  0  0  0  0  0  0  0  0
    1.1840    4.1300   -0.7280 C   0  0  0  0  0  0  0  0  0  0  0  0
   -0.0650    4.6940   -0.8130 C   0  0  0  0  0  0  0  0  0  0  0  0
   -1.2200    4.0440   -0.4700 C   0  0  0  0  0  0  0  0  0  0  0  0
   -1.1200    2.7470   -0.0130 C   0  0  0  0  0  0  0  0  0  0  0  0
    0.1220    2.1570    0.0820 C   0  0  0  0  0  0  0  0  0  0  0  0
    0.5680    0.8940    0.4890 C   0  0  0  0  0  0  0  0  0  0  0  0
   -0.3710   -0.1100    0.9600 C   0  0  0  0  0  0  0  0  0  0  0  0
   -0.2190   -0.4590    2.1790 O   0  0  0  0  0  0  0  0  0  0  0  0
   -1.4200   -0.6940    0.1430 C   0  0  0  0  0  0  0  0  0  0  0  0
   -1.1980   -0.8230   -1.2170 C   0  0  0  0  0  0  0  0  0  0  0  0
   -2.1800   -1.3830   -1.9830 C   0  0  0  0  0  0  0  0  0  0  0  0
   -3.3480   -1.7970   -1.3930 C   0  0  0  0  0  0  0  0  0  0  0  0
   -3.5780   -1.6760   -0.0700 N   0  0  0  0  0  0  0  0  0  0  0  0
   -4.8450   -2.1250    0.4810 C   0  0  0  0  0  0  0  0  0  0  0  0
   -5.8550   -0.9950    0.4180 C   0  0  0  0  0  0  0  0  0  0  0  0
   -2.6250   -1.1290    0.7010 C   0  0  0  0  0  0  0  0  0  0  0  0
   -2.7780   -0.9910    1.9310 O   0  0  0  0  0  0  0  0  0  0  0  0
  1  2  2  0
  2  3  1  0
  3  4  1  0
  4  5  1  0
  5  6  2  0
  5  7  1  0
  7  8  1  0
  7 15  2  0
  8  9  1  0
  9 10  2  0
  9 14  1  0
 10 11  1  0
 11 12  2  0
 12 13  1  0
 13 14  2  0
 14 15  1  0
 15 16  1  0
 16 17  2  0
 16 18  1  0
 18 19  2  0
 18 25  1  0
 19 20  1  0
 20 21  2  0
 21 22  1  0
 22 23  1  0
 22 25  1  0
 23 24  1  0
 25 26  2  0
M  END
