
     RDKit          3D

 26 28  0  0  0  0  0  0  0  0999 V2000
    2.9920   -1.5980   -3.5130 C   0  0  0  0  0  0  0  0  0  0  0  0
    3.8560   -2.2580   -2.5130 C   0  0  0  0  0  0  0  0  0  0  0  0
    4.9910   -2.6560   -2.8390 O   0  0  0  0  0  0  0  0  0  0  0  0
    3.3910   -2.4580   -1.1170 C   0  0  0  0  0  0  0  0  0  0  0  0
    4.2130   -3.0080   -0.1890 C   0  0  0  0  0  0  0  0  0  0  0  0
    3.7960   -3.1990    1.1240 C   0  0  0  0  0  0  0  0  0  0  0  0
    2.4880   -2.8020    1.4580 C   0  0  0  0  0  0  0  0  0  0  0  0
    1.8620   -2.8750    2.6410 N   0  0  0  0  0  0  0  0  0  0  0  0
    0.6260   -2.3480    2.4180 C   0  0  0  0  0  0  0  0  0  0  0  0
    0.4710   -1.9520    1.1210 C   0  0  0  0  0  0  0  0  0  0  0  0
   -0.6830   -1.3330    0.5080 N   0  0  0  0  0  0  0  0  0  0  0  0
   -1.7690   -0.8740    1.2240 C   0  0  0  0  0  0  0  0  0  0  0  0
   -1.6370   -1.0780    2.5400 O   0  0  0  0  0  0  0  0  0  0  0  0
   -3.0130   -0.2210    0.8750 C   0  0  0  0  0  0  0  0  0  0  0  0
   -3.4190    0.0280   -0.3590 O   0  0  0  0  0  0  0  0  0  0  0  0
   -2.7410    0.9160   -1.1270 C   0  0  0  0  0  0  0  0  0  0  0  0
   -2.6560    2.3080   -0.6470 C   0  0  0  0  0  0  0  0  0  0  0  0
   -3.5150    2.9450    0.1900 C   0  0  0  0  0  0  0  0  0  0  0  0
   -3.3200    4.2280    0.6150 C   0  0  0  0  0  0  0  0  0  0  0  0
   -2.2200    5.0090    0.2360 C   0  0  0  0  0  0  0  0  0  0  0  0
   -2.0490    6.3190    0.7850 C   0  0  0  0  0  0  0  0  0  0  0  0
   -1.9280    7.3520    1.2340 N   0  0  0  0  0  0  0  0  0  0  0  0
   -1.3630    4.3500   -0.6170 C   0  0  0  0  0  0  0  0  0  0  0  0
   -1.5330    3.0730   -1.0580 C   0  0  0  0  0  0  0  0  0  0  0  0
    1.6850   -2.2530    0.4950 C   0  0  0  0  0  0  0  0  0  0  0  0
    2.1020   -2.0690   -0.7900 C   0  0  0  0  0  0  0  0  0  0  0  0
  1  2  1  0
  2  3  2  0
  2  4  1  0
  4  5  2  0
  4 26  1  0
  5  6  1  0
  6  7  2  0
  7  8  1  0
  7 25  1  0
  8  9  1  0
  9 10  2  0
 10 11  1  0
 10 25  1  0
 11 12  1  0
 12 13  2  0
 12 14  1  0
 14 15  1  0
 15 16  1  0
 16 17  1  0
 17 18  2  0
 17 24  1  0
 18 19  1  0
 19 20  2  0
 20 21  1  0
 20 23  1  0
 21 22  3  0
 23 24  2  0
 25 26  2  0
M  END
