
     RDKit          3D

 21 24  0  0  0  0  0  0  0  0999 V2000
   -6.4150    0.6990    0.5930 O   0  0  0  0  0  0  0  0  0  0  0  0
   -5.1510    0.2290    0.3290 C   0  0  0  0  0  0  0  0  0  0  0  0
   -4.2820    0.0620    1.3720 C   0  0  0  0  0  0  0  0  0  0  0  0
   -2.9860   -0.4250    1.0670 C   0  0  0  0  0  0  0  0  0  0  0  0
   -2.1170   -0.7070    2.1620 C   0  0  0  0  0  0  0  0  0  0  0  0
   -0.8540   -0.7750    2.3110 C   0  0  0  0  0  0  0  0  0  0  0  0
    0.2370   -0.5670    1.3960 C   0  0  0  0  0  0  0  0  0  0  0  0
    1.5120   -1.0440    1.6680 N   0  0  0  0  0  0  0  0  0  0  0  0
    2.3660   -0.6380    0.7250 C   0  0  0  0  0  0  0  0  0  0  0  0
    3.7240   -0.8220    0.5110 C   0  0  0  0  0  0  0  0  0  0  0  0
    4.3450   -0.2640   -0.5830 C   0  0  0  0  0  0  0  0  0  0  0  0
    5.6080   -0.2910   -1.0060 O   0  0  0  0  0  0  0  0  0  0  0  0
    5.7400    0.3930   -2.1150 C   0  0  0  0  0  0  0  0  0  0  0  0
    4.5360    0.9090   -2.4720 C   0  0  0  0  0  0  0  0  0  0  0  0
    3.6410    0.4910   -1.4950 C   0  0  0  0  0  0  0  0  0  0  0  0
    2.3010    0.6690   -1.2790 C   0  0  0  0  0  0  0  0  0  0  0  0
    1.6730    0.1150   -0.1870 C   0  0  0  0  0  0  0  0  0  0  0  0
    0.4060    0.1200    0.2710 N   0  0  0  0  0  0  0  0  0  0  0  0
   -2.6980   -0.6950   -0.2540 C   0  0  0  0  0  0  0  0  0  0  0  0
   -3.6100   -0.5090   -1.2750 C   0  0  0  0  0  0  0  0  0  0  0  0
   -4.8260   -0.0470   -0.9500 N   0  0  0  0  0  0  0  0  0  0  0  0
  1  2  1  0
  2  3  2  0
  2 21  1  0
  3  4  1  0
  4  5  1  0
  4 19  2  0
  5  6  2  3
  6  7  1  0
  7  8  2  0
  7 18  1  0
  8  9  1  0
  9 10  2  0
  9 17  1  0
 10 11  1  0
 11 12  1  0
 11 15  2  0
 12 13  1  0
 13 14  2  0
 14 15  1  0
 15 16  1  0
 16 17  2  0
 17 18  1  0
 19 20  1  0
 20 21  2  0
M  END
