
     RDKit          3D

 21 24  0  0  0  0  0  0  0  0999 V2000
   -4.0670    1.8390    0.3380 C   0  0  0  0  0  0  0  0  0  0  0  0
   -3.3590    1.1810   -0.8280 C   0  0  0  0  0  0  0  0  0  0  0  0
   -2.4860    0.0530   -0.3970 C   0  0  0  0  0  0  0  0  0  0  0  0
   -3.0560   -1.1730   -0.0490 C   0  0  0  0  0  0  0  0  0  0  0  0
   -4.4500   -1.3170   -0.1110 N   0  0  0  0  0  0  0  0  0  0  0  0
   -2.2770   -2.2450    0.3540 C   0  0  0  0  0  0  0  0  0  0  0  0
   -0.9030   -2.1170    0.4190 C   0  0  0  0  0  0  0  0  0  0  0  0
   -0.3320   -0.9100    0.0770 C   0  0  0  0  0  0  0  0  0  0  0  0
   -1.1180    0.1480   -0.3220 C   0  0  0  0  0  0  0  0  0  0  0  0
   -0.3330    1.1890   -0.5930 O   0  0  0  0  0  0  0  0  0  0  0  0
    0.9250    0.8680   -0.3930 C   0  0  0  0  0  0  0  0  0  0  0  0
    2.0680    1.6150   -0.5420 C   0  0  0  0  0  0  0  0  0  0  0  0
    3.2760    1.0130   -0.2570 C   0  0  0  0  0  0  0  0  0  0  0  0
    4.4030    1.7380   -0.4010 N   0  0  0  0  0  0  0  0  0  0  0  0
    5.5720    1.1510   -0.1230 C   0  0  0  0  0  0  0  0  0  0  0  0
    5.6710   -0.1250    0.2920 N   0  0  0  0  0  0  0  0  0  0  0  0
    4.5790   -0.8920    0.4510 C   0  0  0  0  0  0  0  0  0  0  0  0
    4.6660   -2.0730    0.8330 O   0  0  0  0  0  0  0  0  0  0  0  0
    3.3440   -0.3120    0.1700 C   0  0  0  0  0  0  0  0  0  0  0  0
    2.1800   -1.0500    0.3150 C   0  0  0  0  0  0  0  0  0  0  0  0
    0.9720   -0.4590    0.0340 C   0  0  0  0  0  0  0  0  0  0  0  0
  1  2  1  0
  2  3  1  0
  3  4  2  0
  3  9  1  0
  4  5  1  0
  4  6  1  0
  6  7  2  0
  7  8  1  0
  8  9  2  0
  8 21  1  0
  9 10  1  0
 10 11  1  0
 11 12  2  0
 11 21  1  0
 12 13  1  0
 13 14  1  0
 13 19  2  0
 14 15  2  0
 15 16  1  0
 16 17  1  0
 17 18  2  0
 17 19  1  0
 19 20  1  0
 20 21  2  0
M  END
