
     RDKit          3D

 21 23  0  0  0  0  0  0  0  0999 V2000
   -4.1200    2.0440    0.7140 C   0  0  0  0  0  0  0  0  0  0  0  0
   -4.8250    0.7570    0.5530 C   0  0  0  0  0  0  0  0  0  0  0  0
   -4.2050   -0.2870    0.0520 C   0  0  0  0  0  0  0  0  0  0  0  0
   -4.8890   -1.5870   -0.1200 C   0  0  0  0  0  0  0  0  0  0  0  0
   -2.8090   -0.1650   -0.3460 C   0  0  0  0  0  0  0  0  0  0  0  0
   -2.0120   -1.1770   -0.8930 C   0  0  0  0  0  0  0  0  0  0  0  0
   -0.7590   -0.6540   -1.1280 C   0  0  0  0  0  0  0  0  0  0  0  0
   -0.8370    0.6660   -0.7140 C   0  0  0  0  0  0  0  0  0  0  0  0
    0.2200    1.6660   -0.7470 C   0  0  0  0  0  0  0  0  0  0  0  0
    1.4760    1.3710   -0.4590 C   0  0  0  0  0  0  0  0  0  0  0  0
    1.7550    0.0980   -0.1280 N   0  0  0  0  0  0  0  0  0  0  0  0
    2.9900   -0.3020    0.1790 C   0  0  0  0  0  0  0  0  0  0  0  0
    3.9980    0.6350    0.1520 C   0  0  0  0  0  0  0  0  0  0  0  0
    3.7380    1.9560   -0.1870 C   0  0  0  0  0  0  0  0  0  0  0  0
    4.6410    2.8290   -0.2190 O   0  0  0  0  0  0  0  0  0  0  0  0
    2.4630    2.2780   -0.4840 N   0  0  0  0  0  0  0  0  0  0  0  0
    5.2220    0.2540    0.4530 C   0  0  0  0  0  0  0  0  0  0  0  0
    5.4960   -1.1290    0.8070 C   0  0  0  0  0  0  0  0  0  0  0  0
    4.5560   -2.0560    0.8450 C   0  0  0  0  0  0  0  0  0  0  0  0
    3.2230   -1.6760    0.5250 N   0  0  0  0  0  0  0  0  0  0  0  0
   -2.0440    0.9140   -0.2660 O   0  0  0  0  0  0  0  0  0  0  0  0
  1  2  1  0
  2  3  2  3
  3  4  1  0
  3  5  1  0
  5  6  2  0
  5 21  1  0
  6  7  1  0
  7  8  2  0
  8  9  1  0
  8 21  1  0
  9 10  2  3
 10 11  1  0
 10 16  1  0
 11 12  2  0
 12 13  1  0
 12 20  1  0
 13 14  1  0
 13 17  2  0
 14 15  2  0
 14 16  1  0
 17 18  1  0
 18 19  2  0
 19 20  1  0
M  END
