
     RDKit          3D

 21 24  0  0  0  0  0  0  0  0999 V2000
   -4.1520   -1.1880    0.0530 C   0  0  0  0  0  0  0  0  0  0  0  0
   -2.6760   -0.9090    0.0580 C   0  0  0  0  0  0  0  0  0  0  0  0
   -1.7650   -1.8970    0.2530 C   0  0  0  0  0  0  0  0  0  0  0  0
   -0.4340   -1.6310    0.2550 C   0  0  0  0  0  0  0  0  0  0  0  0
    0.5080   -2.6160    0.4500 C   0  0  0  0  0  0  0  0  0  0  0  0
    0.0680   -3.7970    0.6310 O   0  0  0  0  0  0  0  0  0  0  0  0
    1.7770   -2.3600    0.4510 O   0  0  0  0  0  0  0  0  0  0  0  0
    2.2620   -1.1550    0.2690 C   0  0  0  0  0  0  0  0  0  0  0  0
    1.3760   -0.0820    0.0600 C   0  0  0  0  0  0  0  0  0  0  0  0
    0.0210   -0.3170    0.0530 C   0  0  0  0  0  0  0  0  0  0  0  0
   -0.8840    0.7110   -0.1490 C   0  0  0  0  0  0  0  0  0  0  0  0
   -0.5010    2.0090   -0.3500 C   0  0  0  0  0  0  0  0  0  0  0  0
   -1.4690    2.9750   -0.5440 C   0  0  0  0  0  0  0  0  0  0  0  0
   -2.7750    2.6630   -0.5370 N   0  0  0  0  0  0  0  0  0  0  0  0
   -3.1590    1.3960   -0.3400 C   0  0  0  0  0  0  0  0  0  0  0  0
   -2.2440    0.3780   -0.1400 C   0  0  0  0  0  0  0  0  0  0  0  0
    1.6780    1.1240   -0.1290 N   0  0  0  0  0  0  0  0  0  0  0  0
    2.9310    1.7530   -0.1900 N   0  0  0  0  0  0  0  0  0  0  0  0
    4.2330    1.2120   -0.0560 C   0  0  0  0  0  0  0  0  0  0  0  0
    4.5470   -0.0620    0.1660 C   0  0  0  0  0  0  0  0  0  0  0  0
    3.5760   -1.1300    0.3100 C   0  0  0  0  0  0  0  0  0  0  0  0
  1  2  1  0
  2  3  2  0
  2 16  1  0
  3  4  1  0
  4  5  1  0
  4 10  2  0
  5  6  2  0
  5  7  1  0
  7  8  1  0
  8  9  1  0
  8 21  2  0
  9 10  1  0
  9 17  2  0
 10 11  1  0
 11 12  2  0
 11 16  1  0
 12 13  1  0
 13 14  2  0
 14 15  1  0
 15 16  2  0
 17 18  1  0
 18 19  1  0
 19 20  2  0
 20 21  1  0
M  END
