
     RDKit          3D

 15 16  0  0  0  0  0  0  0  0999 V2000
    4.7860   -0.2910   -0.2460 C   0  0  0  0  0  0  0  0  0  0  0  0
    3.5010    0.0230   -0.3880 C   0  0  0  0  0  0  0  0  0  0  0  0
    2.5790   -0.8440    0.0880 N   0  0  0  0  0  0  0  0  0  0  0  0
    1.2630   -0.5870   -0.0250 C   0  0  0  0  0  0  0  0  0  0  0  0
    0.9180    0.5980   -0.6470 C   0  0  0  0  0  0  0  0  0  0  0  0
    1.8770    1.4760   -1.1290 C   0  0  0  0  0  0  0  0  0  0  0  0
    1.5510    2.5520   -1.6930 O   0  0  0  0  0  0  0  0  0  0  0  0
    3.1810    1.1800   -0.9950 N   0  0  0  0  0  0  0  0  0  0  0  0
   -0.3760    0.8540   -0.7590 C   0  0  0  0  0  0  0  0  0  0  0  0
   -1.3840   -0.0290   -0.2720 N   0  0  0  0  0  0  0  0  0  0  0  0
   -2.7710    0.3070   -0.4260 C   0  0  0  0  0  0  0  0  0  0  0  0
   -3.2140    1.4770    0.3940 C   0  0  0  0  0  0  0  0  0  0  0  0
   -1.0350   -1.2450    0.3660 C   0  0  0  0  0  0  0  0  0  0  0  0
   -2.0640   -2.2000    0.8900 C   0  0  0  0  0  0  0  0  0  0  0  0
    0.2570   -1.5140    0.4850 C   0  0  0  0  0  0  0  0  0  0  0  0
  1  2  2  0
  2  3  1  0
  2  8  1  0
  3  4  2  0
  4  5  1  0
  4 15  1  0
  5  6  1  0
  5  9  2  0
  6  7  2  0
  6  8  1  0
  9 10  1  0
 10 11  1  0
 10 13  1  0
 11 12  1  0
 13 14  1  0
 13 15  2  0
M  END
