
     RDKit          3D

 21 24  0  0  0  0  0  0  0  0999 V2000
    3.3980   -2.3570   -0.9800 N   0  0  0  0  0  0  0  0  0  0  0  0
    3.7160   -1.0640   -0.4850 C   0  0  0  0  0  0  0  0  0  0  0  0
    2.7230   -0.1400   -0.1500 C   0  0  0  0  0  0  0  0  0  0  0  0
    3.0030    1.1140    0.3300 C   0  0  0  0  0  0  0  0  0  0  0  0
    4.3180    1.4520    0.4790 N   0  0  0  0  0  0  0  0  0  0  0  0
    5.2900    0.6090    0.1740 N   0  0  0  0  0  0  0  0  0  0  0  0
    5.0060   -0.6180   -0.2960 C   0  0  0  0  0  0  0  0  0  0  0  0
    5.9550   -1.3900   -0.5740 O   0  0  0  0  0  0  0  0  0  0  0  0
    1.7520    1.8690    0.5980 C   0  0  0  0  0  0  0  0  0  0  0  0
    0.6880    0.9260    0.2240 C   0  0  0  0  0  0  0  0  0  0  0  0
   -0.7030    1.0360    0.2440 C   0  0  0  0  0  0  0  0  0  0  0  0
   -1.5280    0.0230   -0.1530 C   0  0  0  0  0  0  0  0  0  0  0  0
   -2.9940    0.1130   -0.1420 C   0  0  0  0  0  0  0  0  0  0  0  0
   -3.5670    1.2200    0.2700 C   0  0  0  0  0  0  0  0  0  0  0  0
   -5.0360    1.3580    0.2990 C   0  0  0  0  0  0  0  0  0  0  0  0
   -5.7390    0.2480   -0.1320 O   0  0  0  0  0  0  0  0  0  0  0  0
   -5.1250   -0.9100   -0.5620 C   0  0  0  0  0  0  0  0  0  0  0  0
   -3.7870   -1.0230   -0.5840 C   0  0  0  0  0  0  0  0  0  0  0  0
   -0.9380   -1.1380   -0.5840 C   0  0  0  0  0  0  0  0  0  0  0  0
    0.4530   -1.2580   -0.6090 C   0  0  0  0  0  0  0  0  0  0  0  0
    1.2610   -0.2320   -0.2070 C   0  0  0  0  0  0  0  0  0  0  0  0
  1  2  1  0
  2  3  2  0
  2  7  1  0
  3  4  1  0
  3 21  1  0
  4  5  2  0
  4  9  1  0
  5  6  1  0
  6  7  1  0
  7  8  2  0
  9 10  1  0
 10 11  2  0
 10 21  1  0
 11 12  1  0
 12 13  1  0
 12 19  2  0
 13 14  2  0
 13 18  1  0
 14 15  1  0
 15 16  1  0
 16 17  1  0
 17 18  2  0
 19 20  1  0
 20 21  2  0
M  END
