
     RDKit          3D

 28 30  0  0  0  0  0  0  0  0999 V2000
   -5.3520    0.2310   -2.0670 C   0  0  0  0  0  0  0  0  0  0  0  0
   -5.0000    0.4090   -0.6130 C   0  0  2  0  0  0  0  0  0  0  0  0
   -3.5920    0.3510   -0.3700 N   0  0  0  0  0  0  0  0  0  0  0  0
   -2.8970    1.4440    0.1760 C   0  0  0  0  0  0  0  0  0  0  0  0
   -3.5310    2.4810    0.4500 O   0  0  0  0  0  0  0  0  0  0  0  0
   -1.4500    1.3720    0.4210 C   0  0  0  0  0  0  0  0  0  0  0  0
   -0.7660    2.4230    0.9490 C   0  0  0  0  0  0  0  0  0  0  0  0
    0.5830    2.3300    1.1670 C   0  0  0  0  0  0  0  0  0  0  0  0
    1.3000    1.1580    0.8550 C   0  0  0  0  0  0  0  0  0  0  0  0
    2.6870    1.1020    1.1370 N   0  0  0  0  0  0  0  0  0  0  0  0
    3.6630    0.4850    0.3380 C   0  0  0  0  0  0  0  0  0  0  0  0
    4.9900    0.4570    0.6970 N   0  0  0  0  0  0  0  0  0  0  0  0
    5.6690   -0.1570   -0.2630 C   0  0  0  0  0  0  0  0  0  0  0  0
    7.1030   -0.4410   -0.3580 C   0  0  0  0  0  0  0  0  0  0  0  0
    8.0540   -0.1470    0.5000 C   0  0  0  0  0  0  0  0  0  0  0  0
    9.3710   -0.5370    0.1660 C   0  0  0  0  0  0  0  0  0  0  0  0
    9.5340   -1.1640   -0.9810 C   0  0  0  0  0  0  0  0  0  0  0  0
    7.9280   -1.2610   -1.6670 S   0  0  2  0  0  0  0  0  0  0  0  0
    7.8030   -0.4500   -2.9220 O   0  0  0  0  0  0  0  0  0  0  0  0
    7.4720   -2.6670   -1.8370 O   0  0  0  0  0  0  0  0  0  0  0  0
    4.7550   -0.5120   -1.2270 C   0  0  0  0  0  0  0  0  0  0  0  0
    3.5080   -0.1090   -0.8450 N   0  0  0  0  0  0  0  0  0  0  0  0
    0.5630    0.1230    0.3240 C   0  0  0  0  0  0  0  0  0  0  0  0
   -0.7630    0.2620    0.1280 N   0  0  0  0  0  0  0  0  0  0  0  0
   -5.6740   -0.6060    0.2780 C   0  0  1  0  0  0  0  0  0  0  0  0
   -7.1680   -0.5290    0.1920 C   0  0  0  0  0  0  0  0  0  0  0  0
   -5.2620   -2.0220   -0.0730 C   0  0  0  0  0  0  0  0  0  0  0  0
   -5.2070   -0.3510    1.6950 C   0  0  0  0  0  0  0  0  0  0  0  0
  2  1  1  6
  2  3  1  0
  2 25  1  0
  3  4  1  0
  4  5  2  0
  4  6  1  0
  6  7  2  0
  6 24  1  0
  7  8  1  0
  8  9  2  0
  9 10  1  0
  9 23  1  0
 10 11  1  0
 11 12  2  0
 11 22  1  0
 12 13  1  0
 13 14  1  0
 13 21  2  0
 14 15  2  0
 14 18  1  0
 15 16  1  0
 16 17  2  0
 18 17  1  1
 18 19  2  0
 18 20  2  0
 21 22  1  0
 23 24  2  0
 25 26  1  1
 25 27  1  0
 25 28  1  0
M  END
