
     RDKit          3D

 28 30  0  0  0  0  0  0  0  0999 V2000
    7.9710    2.9020   -0.4450 C   0  0  0  0  0  0  0  0  0  0  0  0
    6.9220    2.2400   -0.8870 C   0  0  0  0  0  0  0  0  0  0  0  0
    5.5800    2.3880   -0.2770 C   0  0  0  0  0  0  0  0  0  0  0  0
    4.9930    0.8100    0.3540 S   0  0  2  0  0  0  0  0  0  0  0  0
    5.9690    0.4160    1.4420 O   0  0  0  0  0  0  0  0  0  0  0  0
    5.0890   -0.1540   -0.7790 O   0  0  0  0  0  0  0  0  0  0  0  0
    3.4600    0.9490    1.0570 N   0  0  0  0  0  0  0  0  0  0  0  0
    2.4000    1.3720    0.2120 C   0  0  2  0  0  0  0  0  0  0  0  0
    1.8460    2.6920    0.5830 C   0  0  0  0  0  0  0  0  0  0  0  0
    2.6180    3.5670    1.0490 O   0  0  0  0  0  0  0  0  0  0  0  0
    0.4590    2.9180    0.3990 N   0  0  0  0  0  0  0  0  0  0  0  0
   -0.2060    2.1400   -0.6160 C   0  0  0  0  0  0  0  0  0  0  0  0
    0.1290    0.7130   -0.4020 C   0  0  0  0  0  0  0  0  0  0  0  0
   -0.8300   -0.3280   -0.5960 N   0  0  0  0  0  0  0  0  0  0  0  0
   -1.9670   -0.3270    0.0230 C   0  0  0  0  0  0  0  0  0  0  0  0
   -2.2950    0.7190    0.9230 N   0  0  0  0  0  0  0  0  0  0  0  0
   -3.6940    1.0310    1.1330 C   0  0  0  0  0  0  0  0  0  0  0  0
   -4.3920   -0.2770    1.3460 C   0  0  0  0  0  0  0  0  0  0  0  0
   -5.2400   -0.3860    2.3400 C   0  0  0  0  0  0  0  0  0  0  0  0
   -4.0910   -1.3720    0.4310 C   0  0  0  0  0  0  0  0  0  0  0  0
   -2.9110   -1.4040   -0.2190 C   0  0  0  0  0  0  0  0  0  0  0  0
   -2.6030   -2.4600   -1.1200 N   0  0  0  0  0  0  0  0  0  0  0  0
   -1.2330   -2.7880   -1.3940 C   0  0  0  0  0  0  0  0  0  0  0  0
   -3.7290   -3.1520   -1.7170 C   0  0  0  0  0  0  0  0  0  0  0  0
   -4.6380   -3.5730   -0.5990 C   0  0  0  0  0  0  0  0  0  0  0  0
   -5.1150   -2.4270    0.2490 C   0  0  0  0  0  0  0  0  0  0  0  0
    1.3370    0.3720   -0.0200 C   0  0  0  0  0  0  0  0  0  0  0  0
    1.6620   -1.0900    0.1780 C   0  0  0  0  0  0  0  0  0  0  0  0
  1  2  2  0
  2  3  1  0
  4  3  1  6
  4  5  2  0
  4  6  2  0
  4  7  1  0
  8  7  1  1
  8  9  1  0
  8 27  1  0
  9 10  2  0
  9 11  1  0
 11 12  1  0
 12 13  1  0
 13 14  1  0
 13 27  2  0
 14 15  2  3
 15 16  1  0
 15 21  1  0
 16 17  1  0
 17 18  1  0
 18 19  2  0
 18 20  1  0
 20 21  2  0
 20 26  1  0
 21 22  1  0
 22 23  1  0
 22 24  1  0
 24 25  1  0
 25 26  1  0
 27 28  1  0
M  END
