
     RDKit          3D

 28 30  0  0  0  0  0  0  0  0999 V2000
    8.7260   -3.0160   -0.5270 C   0  0  0  0  0  0  0  0  0  0  0  0
    7.6300   -2.0420   -0.0390 C   0  0  0  0  0  0  0  0  0  0  0  0
    6.3830   -2.2050   -0.3760 C   0  0  0  0  0  0  0  0  0  0  0  0
    5.4550   -1.2160    0.1250 C   0  0  0  0  0  0  0  0  0  0  0  0
    4.1030   -1.2220   -0.2220 C   0  0  0  0  0  0  0  0  0  0  0  0
    3.9090    0.1650    0.5020 O   0  0  0  0  0  0  0  0  0  0  0  0
    2.8130   -1.2290   -0.5520 N   0  0  0  0  0  0  0  0  0  0  0  0
    1.7800   -0.3580   -0.4890 C   0  0  0  0  0  0  0  0  0  0  0  0
    0.6600   -1.4960   -1.1090 N   0  0  0  0  0  0  0  0  0  0  0  0
   -0.5420   -1.0800   -1.2280 C   0  0  0  0  0  0  0  0  0  0  0  0
   -1.1680    0.1260   -0.9620 C   0  0  0  0  0  0  0  0  0  0  0  0
   -2.5120    0.3600   -1.0380 N   0  0  0  0  0  0  0  0  0  0  0  0
   -3.2670    0.8860    0.0710 C   0  0  0  0  0  0  0  0  0  0  0  0
   -2.6120    1.2090    1.0920 O   0  0  0  0  0  0  0  0  0  0  0  0
   -4.6630    1.0360    0.0790 N   0  0  0  0  0  0  0  0  0  0  0  0
   -5.4570    1.5290    1.1840 C   0  0  0  0  0  0  0  0  0  0  0  0
   -6.9180    1.4800    0.8550 C   0  0  1  0  0  0  0  0  0  0  0  0
   -7.3650    2.3680   -0.2380 C   0  0  0  0  0  0  0  0  0  0  0  0
   -8.5460    1.5620   -0.7990 C   0  0  0  0  0  0  0  0  0  0  0  0
   -8.0040    0.1530   -0.6150 C   0  0  0  0  0  0  0  0  0  0  0  0
   -7.3520    0.1940    0.5850 O   0  0  0  0  0  0  0  0  0  0  0  0
   -0.2770    1.1600   -0.4370 C   0  0  0  0  0  0  0  0  0  0  0  0
    0.8780    0.3940   -0.4380 C   0  0  0  0  0  0  0  0  0  0  0  0
    1.8560    1.7010    0.1760 C   0  0  0  0  0  0  0  0  0  0  0  0
    2.4990    2.5500    0.5560 N   0  0  0  0  0  0  0  0  0  0  0  0
    6.5410   -0.1750    1.0370 S   0  0  0  0  0  0  0  0  0  0  0  0
    8.0220   -1.0060    0.7430 C   0  0  0  0  0  0  0  0  0  0  0  0
    9.3550   -0.6180    1.2420 C   0  0  0  0  0  0  0  0  0  0  0  0
  1  2  1  0
  2  3  1  0
  2 27  2  0
  3  4  2  0
  4  5  1  0
  4 26  1  0
  5  6  2  0
  5  7  1  0
  7  8  1  0
  8  9  2  0
  8 23  1  0
  9 10  1  0
 10 11  2  0
 11 12  1  0
 11 22  1  0
 12 13  1  0
 13 14  2  0
 13 15  1  0
 15 16  1  0
 17 16  1  6
 17 18  1  0
 17 21  1  0
 18 19  1  0
 19 20  1  0
 20 21  1  0
 22 23  2  0
 23 24  1  0
 24 25  3  0
 26 27  1  0
 27 28  1  0
M  END
