
     RDKit          3D

 28 30  0  0  0  0  0  0  0  0999 V2000
   -9.7660    1.3830   -1.1900 O   0  0  0  0  0  0  0  0  0  0  0  0
   -8.8450    0.7060   -0.6270 C   0  0  0  0  0  0  0  0  0  0  0  0
   -7.6850    0.4660   -1.2860 N   0  0  0  0  0  0  0  0  0  0  0  0
   -6.7130   -0.2330   -0.7240 N   0  0  0  0  0  0  0  0  0  0  0  0
   -6.8320   -0.7280    0.5060 C   0  0  0  0  0  0  0  0  0  0  0  0
   -5.5500   -1.6830    1.3180 S   0  0  0  0  0  0  0  0  0  0  0  0
   -4.1310   -1.8170    0.1590 C   0  0  0  0  0  0  0  0  0  0  0  0
   -3.5880   -0.4390   -0.0030 C   0  0  0  0  0  0  0  0  0  0  0  0
   -2.4060   -0.3250   -0.9330 C   0  0  2  0  0  0  0  0  0  0  0  0
   -1.2810   -1.1650   -0.4130 C   0  0  0  0  0  0  0  0  0  0  0  0
   -0.5510   -0.3720    0.6810 C   0  0  0  0  0  0  0  0  0  0  0  0
   -0.0700    0.8560    0.0140 C   0  0  0  0  0  0  0  0  0  0  0  0
    0.9160    1.5230    0.4630 N   0  0  0  0  0  0  0  0  0  0  0  0
    1.6560    1.2110    1.5990 N   0  0  0  0  0  0  0  0  0  0  0  0
    3.0710    1.2600    1.4950 C   0  0  0  0  0  0  0  0  0  0  0  0
    3.6530    0.5390    0.5520 C   0  0  0  0  0  0  0  0  0  0  0  0
    5.1000    0.5620    0.4120 C   0  0  0  0  0  0  0  0  0  0  0  0
    5.6990   -0.1480   -0.5200 C   0  0  0  0  0  0  0  0  0  0  0  0
    7.1450   -0.0970   -0.6250 C   0  0  0  0  0  0  0  0  0  0  0  0
    7.8770   -0.7520   -1.5050 C   0  0  0  0  0  0  0  0  0  0  0  0
    9.2920   -0.4430   -1.2930 C   0  0  0  0  0  0  0  0  0  0  0  0
    9.2830    0.4980   -0.1490 C   0  0  0  0  0  0  0  0  0  0  0  0
    8.0340    0.6820    0.2190 C   0  0  0  0  0  0  0  0  0  0  0  0
   -0.7660    1.3060   -1.2100 C   0  0  0  0  0  0  0  0  0  0  0  0
   -2.1090    1.0260   -1.0310 O   0  0  0  0  0  0  0  0  0  0  0  0
   -8.0180   -0.4820    1.1780 C   0  0  0  0  0  0  0  0  0  0  0  0
   -8.1570   -0.9370    2.3380 O   0  0  0  0  0  0  0  0  0  0  0  0
   -9.0030    0.2260    0.6090 N   0  0  0  0  0  0  0  0  0  0  0  0
  1  2  2  0
  2  3  1  0
  2 28  1  0
  3  4  1  0
  4  5  2  0
  5  6  1  0
  5 26  1  0
  6  7  1  0
  7  8  1  0
  9  8  1  1
  9 10  1  0
  9 25  1  0
 10 11  1  0
 11 12  1  0
 12 13  2  3
 12 24  1  0
 13 14  1  0
 14 15  1  0
 15 16  2  3
 16 17  1  0
 17 18  2  3
 18 19  1  0
 19 20  2  0
 19 23  1  0
 20 21  1  0
 21 22  1  0
 22 23  2  0
 24 25  1  0
 26 27  2  0
 26 28  1  0
M  END
