
     RDKit          3D

 28 30  0  0  0  0  0  0  0  0999 V2000
   -5.0730   -2.7440    1.3550 C   0  0  0  0  0  0  0  0  0  0  0  0
   -3.9480   -3.5410    0.8050 C   0  0  0  0  0  0  0  0  0  0  0  0
   -4.0480   -4.9420    0.7930 O   0  0  0  0  0  0  0  0  0  0  0  0
   -2.8720   -2.9320    0.3350 C   0  0  0  0  0  0  0  0  0  0  0  0
   -1.7800   -3.7940   -0.2050 C   0  0  0  0  0  0  0  0  0  0  0  0
   -2.7290   -1.4990    0.3440 C   0  0  0  0  0  0  0  0  0  0  0  0
   -1.6810   -0.8910   -0.1160 N   0  0  0  0  0  0  0  0  0  0  0  0
   -1.6240    0.5520   -0.0650 C   0  0  0  0  0  0  0  0  0  0  0  0
   -2.8580    1.6720   -0.7260 S   0  0  0  0  0  0  0  0  0  0  0  0
   -2.0560    3.1510   -0.1830 C   0  0  0  0  0  0  0  0  0  0  0  0
   -2.5890    4.4860   -0.4400 C   0  0  0  0  0  0  0  0  0  0  0  0
   -2.0390    5.6240   -0.0560 N   0  0  0  0  0  0  0  0  0  0  0  0
   -2.8170    6.6750   -0.4880 C   0  0  0  0  0  0  0  0  0  0  0  0
   -3.8810    6.1220   -1.1610 C   0  0  0  0  0  0  0  0  0  0  0  0
   -3.7030    4.7870   -1.1070 N   0  0  0  0  0  0  0  0  0  0  0  0
   -0.9680    2.7150    0.4270 C   0  0  0  0  0  0  0  0  0  0  0  0
   -0.6970    1.3960    0.5160 C   0  0  0  0  0  0  0  0  0  0  0  0
    0.5660    0.8630    1.1120 C   0  0  0  0  0  0  0  0  0  0  0  0
    0.7780    1.0160    2.3260 O   0  0  0  0  0  0  0  0  0  0  0  0
    1.5190    0.2040    0.3160 N   0  0  0  0  0  0  0  0  0  0  0  0
    2.7820   -0.3370    0.7130 C   0  0  1  0  0  0  0  0  0  0  0  0
    3.0590   -1.7470    0.3180 C   0  0  0  0  0  0  0  0  0  0  0  0
    4.3530   -2.1500    1.0160 C   0  0  0  0  0  0  0  0  0  0  0  0
    5.5180   -1.3340    0.5140 C   0  0  0  0  0  0  0  0  0  0  0  0
    5.0680   -0.2140   -0.2970 N   0  0  0  0  0  0  0  0  0  0  0  0
    5.8330    0.1640   -1.4570 C   0  0  0  0  0  0  0  0  0  0  0  0
    3.8990    0.4580    0.0590 C   0  0  0  0  0  0  0  0  0  0  0  0
    3.7800    1.6840   -0.1560 O   0  0  0  0  0  0  0  0  0  0  0  0
  1  2  1  0
  2  3  1  0
  2  4  2  3
  4  5  1  0
  4  6  1  0
  6  7  2  3
  7  8  1  0
  8  9  1  0
  8 17  2  0
  9 10  1  0
 10 11  1  0
 10 16  2  0
 11 12  2  0
 11 15  1  0
 12 13  1  0
 13 14  2  0
 14 15  1  0
 16 17  1  0
 17 18  1  0
 18 19  2  0
 18 20  1  0
 21 20  1  6
 21 22  1  0
 21 27  1  0
 22 23  1  0
 23 24  1  0
 24 25  1  0
 25 26  1  0
 25 27  1  0
 27 28  2  0
M  END
