
     RDKit          3D

 28 30  0  0  0  0  0  0  0  0999 V2000
   -2.7590    0.8040    4.7670 C   0  0  0  0  0  0  0  0  0  0  0  0
   -2.1430    0.5650    3.4430 C   0  0  0  0  0  0  0  0  0  0  0  0
   -0.8580    0.5450    3.1650 C   0  0  0  0  0  0  0  0  0  0  0  0
   -0.6490    0.2790    1.7580 C   0  0  0  0  0  0  0  0  0  0  0  0
    0.4650    0.1950    1.1710 N   0  0  0  0  0  0  0  0  0  0  0  0
    0.7430   -0.0510   -0.1470 N   0  0  0  0  0  0  0  0  0  0  0  0
    0.6380    1.0240   -1.1180 C   0  0  0  0  0  0  0  0  0  0  0  0
    1.9990    1.5560   -1.5360 C   0  0  0  0  0  0  0  0  0  0  0  0
    2.4740    0.7930   -2.6540 N   0  0  0  0  0  0  0  0  0  0  0  0
    3.7800    0.2610   -2.7110 C   0  0  0  0  0  0  0  0  0  0  0  0
    4.1280   -0.4810   -3.6560 O   0  0  0  0  0  0  0  0  0  0  0  0
    4.7880    0.5640   -1.6530 C   0  0  0  0  0  0  0  0  0  0  0  0
    4.7670   -0.4920   -0.6120 C   0  0  0  0  0  0  0  0  0  0  0  0
    4.4710   -0.0020    0.7240 N   0  0  0  0  0  0  0  0  0  0  0  0
    3.4560   -0.4630    1.5860 C   0  0  0  0  0  0  0  0  0  0  0  0
    3.2480    0.2700    2.6220 O   0  0  0  0  0  0  0  0  0  0  0  0
    2.6580   -1.6300    1.4300 N   0  0  0  0  0  0  0  0  0  0  0  0
    2.0300   -2.1010    0.2790 C   0  0  0  0  0  0  0  0  0  0  0  0
    2.2130   -3.3280   -0.0580 O   0  0  0  0  0  0  0  0  0  0  0  0
    1.1450   -1.3500   -0.6460 C   0  0  0  0  0  0  0  0  0  0  0  0
   -2.0180    0.1330    1.1840 C   0  0  0  0  0  0  0  0  0  0  0  0
   -2.2640   -0.1840   -0.5160 S   0  0  0  0  0  0  0  0  0  0  0  0
   -3.9000   -0.4680   -1.0600 C   0  0  0  0  0  0  0  0  0  0  0  0
   -4.1710   -0.6220   -2.3770 C   0  0  0  0  0  0  0  0  0  0  0  0
   -5.6020   -0.8470   -2.5940 C   0  0  0  0  0  0  0  0  0  0  0  0
   -6.1730   -0.8090   -1.2550 C   0  0  0  0  0  0  0  0  0  0  0  0
   -5.1750   -0.5930   -0.4110 C   0  0  0  0  0  0  0  0  0  0  0  0
   -2.8600    0.3040    2.1830 C   0  0  0  0  0  0  0  0  0  0  0  0
  1  2  1  0
  2  3  2  0
  2 28  1  0
  3  4  1  0
  4  5  2  3
  4 21  1  0
  5  6  1  0
  6  7  1  0
  6 20  1  0
  7  8  1  0
  8  9  1  0
  9 10  1  0
 10 11  2  0
 10 12  1  0
 12 13  1  0
 13 14  1  0
 14 15  1  0
 15 16  2  0
 15 17  1  0
 17 18  1  0
 18 19  2  0
 18 20  1  0
 21 22  1  0
 21 28  2  0
 22 23  1  0
 23 24  2  0
 23 27  1  0
 24 25  1  0
 25 26  1  0
 26 27  2  0
M  END
