
     RDKit          3D

 13 12  0  0  0  0  0  0  0  0999 V2000
   -1.3250   -3.0050    1.0450 C   0  0  0  0  0  0  0  0  0  0  0  0
   -1.7130   -2.1810    0.1050 C   0  0  0  0  0  0  0  0  0  0  0  0
   -1.3780   -0.8120   -0.1270 C   0  0  0  0  0  0  0  0  0  0  0  0
   -0.4590   -0.0890    0.6230 N   0  0  0  0  0  0  0  0  0  0  0  0
    0.8180   -0.5490    1.0630 C   0  0  0  0  0  0  0  0  0  0  0  0
    1.6470    0.6820    1.4330 C   0  0  0  0  0  0  0  0  0  0  0  0
    1.0260    1.7040    2.6950 Cl  0  0  0  0  0  0  0  0  0  0  0  0
    2.7740    0.9010    0.7870 C   0  0  0  0  0  0  0  0  0  0  0  0
    3.6270    2.0750    1.0890 C   0  0  0  0  0  0  0  0  0  0  0  0
    3.7960    2.8960   -0.0250 O   0  0  0  0  0  0  0  0  0  0  0  0
   -1.9150   -0.1440   -1.1700 C   0  0  0  0  0  0  0  0  0  0  0  0
   -1.5680    1.2910   -1.4120 C   0  0  0  0  0  0  0  0  0  0  0  0
   -2.8250   -0.8030   -2.1190 C   0  0  0  0  0  0  0  0  0  0  0  0
  1  2  2  0
  2  3  1  0
  3  4  1  0
  3 11  2  3
  4  5  1  0
  5  6  1  0
  6  7  1  0
  6  8  2  3
  8  9  1  0
  9 10  1  0
 11 12  1  0
 11 13  1  0
M  END
