
     RDKit          3D

 28 30  0  0  0  0  0  0  0  0999 V2000
   -4.5890   -1.3080    1.7180 C   0  0  0  0  0  0  0  0  0  0  0  0
   -4.7630    0.1510    1.5010 C   0  0  0  0  0  0  0  0  0  0  0  0
   -5.5980    0.8510    2.3800 C   0  0  0  0  0  0  0  0  0  0  0  0
   -5.7900    2.1700    2.2320 N   0  0  0  0  0  0  0  0  0  0  0  0
   -5.1900    2.8810    1.2320 C   0  0  0  0  0  0  0  0  0  0  0  0
   -4.3740    2.2200    0.3660 C   0  0  0  0  0  0  0  0  0  0  0  0
   -4.1490    0.8410    0.4900 C   0  0  0  0  0  0  0  0  0  0  0  0
   -3.2750    0.1490   -0.4580 C   0  0  2  0  0  0  0  0  0  0  0  0
   -1.8740    0.4650   -0.2630 N   0  0  0  0  0  0  0  0  0  0  0  0
   -0.9420   -0.5870    0.0710 C   0  0  0  0  0  0  0  0  0  0  0  0
   -1.4140   -1.7270    0.1740 O   0  0  0  0  0  0  0  0  0  0  0  0
    0.4200   -0.3440    0.2700 N   0  0  0  0  0  0  0  0  0  0  0  0
    1.3570   -1.3490    0.6010 C   0  0  0  0  0  0  0  0  0  0  0  0
    1.0940   -2.6590    0.7780 N   0  0  0  0  0  0  0  0  0  0  0  0
    2.2310   -3.3380    1.0930 C   0  0  0  0  0  0  0  0  0  0  0  0
    2.3620   -4.5670    1.3260 O   0  0  0  0  0  0  0  0  0  0  0  0
    3.2140   -2.4400    1.1120 N   0  0  0  0  0  0  0  0  0  0  0  0
    2.7180   -1.2260    0.8180 C   0  0  0  0  0  0  0  0  0  0  0  0
    3.4950   -0.0100    0.7420 C   0  0  0  0  0  0  0  0  0  0  0  0
    2.9650    1.0990    0.4490 O   0  0  0  0  0  0  0  0  0  0  0  0
    4.9660   -0.0650    1.0160 C   0  0  0  0  0  0  0  0  0  0  0  0
    5.7790   -0.1390   -0.2580 C   0  0  2  0  0  0  0  0  0  0  0  0
    7.2370   -0.1880    0.1640 C   0  0  0  0  0  0  0  0  0  0  0  0
    5.5330    1.1140   -1.0710 C   0  0  0  0  0  0  0  0  0  0  0  0
   -3.6010    0.4350   -1.8900 C   0  0  0  0  0  0  0  0  0  0  0  0
   -3.5920    1.8260   -2.3600 C   0  0  2  0  0  0  0  0  0  0  0  0
   -2.4160    2.0270   -3.3100 C   0  0  0  0  0  0  0  0  0  0  0  0
   -3.5070    2.9830   -0.9750 S   0  0  0  0  0  0  0  0  0  0  0  0
  1  2  1  0
  2  3  2  0
  2  7  1  0
  3  4  1  0
  4  5  2  0
  5  6  1  0
  6  7  2  0
  6 28  1  0
  7  8  1  0
  8  9  1  1
  8 25  1  0
  9 10  1  0
 10 11  2  0
 10 12  1  0
 12 13  1  0
 13 14  1  0
 13 18  2  0
 14 15  1  0
 15 16  2  0
 15 17  1  0
 17 18  1  0
 18 19  1  0
 19 20  2  0
 19 21  1  0
 21 22  1  0
 22 23  1  1
 22 24  1  0
 25 26  1  0
 26 27  1  6
 26 28  1  0
M  END
