
     RDKit          3D

 20 21  0  0  0  0  0  0  0  0999 V2000
   -0.7030    0.3940   -1.6840 O   0  0  0  0  0  0  0  0  0  0  0  0
   -0.6350    0.0760   -0.4820 C   0  0  0  0  0  0  0  0  0  0  0  0
    0.7090   -0.1090    0.1300 C   0  0  0  0  0  0  0  0  0  0  0  0
    1.7640    0.1470   -0.9090 C   0  0  0  0  0  0  0  0  0  0  0  0
    3.1490   -0.0180   -0.2900 C   0  0  0  0  0  0  0  0  0  0  0  0
    3.9740    1.0010   -0.2810 C   0  0  0  0  0  0  0  0  0  0  0  0
    5.3370    1.1310    0.2340 C   0  0  0  0  0  0  0  0  0  0  0  0
    5.9040    0.0390    0.8180 O   0  0  0  0  0  0  0  0  0  0  0  0
    3.4100   -1.3830    0.2310 C   0  0  0  0  0  0  0  0  0  0  0  0
    3.2000   -2.4810   -1.1750 Cl  0  0  0  0  0  0  0  0  0  0  0  0
   -1.8170   -0.1060    0.2820 N   0  0  0  0  0  0  0  0  0  0  0  0
   -1.9090   -0.4440    1.5680 N   0  0  0  0  0  0  0  0  0  0  0  0
   -3.1860   -0.5270    1.9650 C   0  0  0  0  0  0  0  0  0  0  0  0
   -3.6430   -0.8200    3.1040 O   0  0  0  0  0  0  0  0  0  0  0  0
   -3.9730   -0.2270    0.8840 C   0  0  0  0  0  0  0  0  0  0  0  0
   -5.3420   -0.1670    0.7430 C   0  0  0  0  0  0  0  0  0  0  0  0
   -5.8390    0.1700   -0.4970 C   0  0  0  0  0  0  0  0  0  0  0  0
   -4.9720    0.4350   -1.5570 C   0  0  0  0  0  0  0  0  0  0  0  0
   -3.6190    0.3660   -1.3870 C   0  0  0  0  0  0  0  0  0  0  0  0
   -3.0830    0.0300   -0.1500 C   0  0  0  0  0  0  0  0  0  0  0  0
  1  2  2  0
  2  3  1  0
  2 11  1  0
  3  4  1  0
  4  5  1  0
  5  6  2  3
  5  9  1  0
  6  7  1  0
  7  8  1  0
  9 10  1  0
 11 12  1  0
 11 20  1  0
 12 13  1  0
 13 14  2  0
 13 15  1  0
 15 16  2  0
 15 20  1  0
 16 17  1  0
 17 18  2  0
 18 19  1  0
 19 20  2  0
M  END
