
     RDKit          3D

 20 21  0  0  0  0  0  0  0  0999 V2000
   -5.1650   -1.8460    1.2900 C   0  0  0  0  0  0  0  0  0  0  0  0
   -4.4370   -0.6700    0.7440 C   0  0  0  0  0  0  0  0  0  0  0  0
   -4.9430    0.4610    0.3270 O   0  0  0  0  0  0  0  0  0  0  0  0
   -4.0450    1.2830   -0.0900 C   0  0  0  0  0  0  0  0  0  0  0  0
   -4.3640    2.6550   -0.6220 C   0  0  0  0  0  0  0  0  0  0  0  0
   -2.7830    0.7120    0.0300 C   0  0  0  0  0  0  0  0  0  0  0  0
   -1.5420    1.3630   -0.3480 C   0  0  0  0  0  0  0  0  0  0  0  0
   -1.6280    2.5510   -0.8290 O   0  0  0  0  0  0  0  0  0  0  0  0
   -0.2510    0.7810   -0.2230 N   0  0  0  0  0  0  0  0  0  0  0  0
    0.8540    1.5880   -0.6540 C   0  0  0  0  0  0  0  0  0  0  0  0
    2.1810    0.9700   -0.5180 C   0  0  0  0  0  0  0  0  0  0  0  0
    3.1430    1.7200   -0.9120 O   0  0  0  0  0  0  0  0  0  0  0  0
    2.4830   -0.2980   -0.0230 N   0  0  0  0  0  0  0  0  0  0  0  0
    3.7910   -0.8470    0.0860 C   0  0  0  0  0  0  0  0  0  0  0  0
    4.9480   -0.3060   -0.2390 C   0  0  0  0  0  0  0  0  0  0  0  0
    6.0560   -1.2530    0.0520 C   0  0  0  0  0  0  0  0  0  0  0  0
    5.3660   -2.4400    0.6010 C   0  0  0  0  0  0  0  0  0  0  0  0
    4.0770   -2.1870    0.6120 C   0  0  0  0  0  0  0  0  0  0  0  0
   -3.0540   -0.5260    0.5610 C   0  0  0  0  0  0  0  0  0  0  0  0
   -1.8860   -1.7470    0.9550 Cl  0  0  0  0  0  0  0  0  0  0  0  0
  1  2  1  0
  2  3  1  0
  2 19  2  0
  3  4  1  0
  4  5  1  0
  4  6  2  0
  6  7  1  0
  6 19  1  0
  7  8  2  0
  7  9  1  0
  9 10  1  0
 10 11  1  0
 11 12  2  0
 11 13  1  0
 13 14  1  0
 14 15  2  0
 14 18  1  0
 15 16  1  0
 16 17  1  0
 17 18  2  0
 19 20  1  0
M  END
