
     RDKit          3D

 20 21  0  0  0  0  0  0  0  0999 V2000
   -0.5370   -0.2800   -1.0650 O   0  0  0  0  0  0  0  0  0  0  0  0
   -0.2810   -0.0040    0.1110 C   0  0  0  0  0  0  0  0  0  0  0  0
   -1.4490    0.1350    1.0270 C   0  0  0  0  0  0  0  0  0  0  0  0
   -2.7320   -0.0910    0.3260 C   0  0  0  0  0  0  0  0  0  0  0  0
   -3.3230   -1.3290    0.2250 C   0  0  0  0  0  0  0  0  0  0  0  0
   -4.5200   -1.4270   -0.4520 C   0  0  0  0  0  0  0  0  0  0  0  0
   -5.1480   -0.3470   -1.0280 C   0  0  0  0  0  0  0  0  0  0  0  0
   -6.6680   -0.4670   -1.8880 Cl  0  0  0  0  0  0  0  0  0  0  0  0
   -4.5600    0.8970   -0.9300 C   0  0  0  0  0  0  0  0  0  0  0  0
   -3.3510    0.9980   -0.2460 C   0  0  0  0  0  0  0  0  0  0  0  0
    1.0510    0.1640    0.5390 N   0  0  0  0  0  0  0  0  0  0  0  0
    2.2350    0.0610   -0.2220 C   0  0  0  0  0  0  0  0  0  0  0  0
    2.1440   -0.1890   -1.5990 C   0  0  0  0  0  0  0  0  0  0  0  0
    3.2640   -0.2850   -2.3780 N   0  0  0  0  0  0  0  0  0  0  0  0
    4.4730   -0.1360   -1.8130 C   0  0  0  0  0  0  0  0  0  0  0  0
    4.6030    0.1090   -0.4700 C   0  0  0  0  0  0  0  0  0  0  0  0
    3.4590    0.2130    0.3600 C   0  0  0  0  0  0  0  0  0  0  0  0
    3.6610    0.4630    1.7550 C   0  0  0  0  0  0  0  0  0  0  0  0
    2.8120    0.5790    2.6390 O   0  0  0  0  0  0  0  0  0  0  0  0
    5.0030    0.6050    2.2420 O   0  0  0  0  0  0  0  0  0  0  0  0
  1  2  2  0
  2  3  1  0
  2 11  1  0
  3  4  1  0
  4  5  2  0
  4 10  1  0
  5  6  1  0
  6  7  2  0
  7  8  1  0
  7  9  1  0
  9 10  2  0
 11 12  1  0
 12 13  2  0
 12 17  1  0
 13 14  1  0
 14 15  2  0
 15 16  1  0
 16 17  2  0
 17 18  1  0
 18 19  2  0
 18 20  1  0
M  END
