
     RDKit          3D

 20 21  0  0  0  0  0  0  0  0999 V2000
    3.9600    0.3830    2.0470 O   0  0  0  0  0  0  0  0  0  0  0  0
    3.6310    0.0100    0.8970 C   0  0  0  0  0  0  0  0  0  0  0  0
    4.6480   -0.0140   -0.1830 C   0  0  0  0  0  0  0  0  0  0  0  0
    5.9990    0.4450    0.3200 C   0  0  0  0  0  0  0  0  0  0  0  0
    6.9560    0.4290   -0.6710 O   0  0  0  0  0  0  0  0  0  0  0  0
    2.2870   -0.3770    0.6740 N   0  0  0  0  0  0  0  0  0  0  0  0
    1.9150   -0.8060   -0.6580 C   0  0  0  0  0  0  0  0  0  0  0  0
    0.5520   -0.2620   -1.0000 C   0  0  0  0  0  0  0  0  0  0  0  0
   -0.4550   -0.5080    0.1030 C   0  0  2  0  0  0  0  0  0  0  0  0
   -0.5040   -1.8560    0.4620 O   0  0  0  0  0  0  0  0  0  0  0  0
   -1.7790   -0.0460   -0.4160 C   0  0  0  0  0  0  0  0  0  0  0  0
   -2.8480   -0.1810    0.5460 N   0  0  0  0  0  0  0  0  0  0  0  0
   -4.1470    0.2340    0.1410 C   0  0  0  0  0  0  0  0  0  0  0  0
   -5.2470    0.2280    0.8950 C   0  0  0  0  0  0  0  0  0  0  0  0
   -6.4100    0.7260    0.1470 C   0  0  0  0  0  0  0  0  0  0  0  0
   -5.8550    1.0350   -1.1750 C   0  0  0  0  0  0  0  0  0  0  0  0
   -4.5760    0.7490   -1.1540 C   0  0  0  0  0  0  0  0  0  0  0  0
   -3.5300    0.9790   -2.5600 Cl  0  0  0  0  0  0  0  0  0  0  0  0
    0.0100    0.2800    1.3040 C   0  0  0  0  0  0  0  0  0  0  0  0
    1.3260   -0.3400    1.7560 C   0  0  0  0  0  0  0  0  0  0  0  0
  1  2  2  0
  2  3  1  0
  2  6  1  0
  3  4  1  0
  4  5  1  0
  6  7  1  0
  6 20  1  0
  7  8  1  0
  8  9  1  0
  9 10  1  1
  9 11  1  0
  9 19  1  0
 11 12  1  0
 12 13  1  0
 13 14  2  0
 13 17  1  0
 14 15  1  0
 15 16  1  0
 16 17  2  0
 17 18  1  0
 19 20  1  0
M  END
