
     RDKit          3D

 20 21  0  0  0  0  0  0  0  0999 V2000
   -4.2390   -0.9080    1.9550 C   0  0  0  0  0  0  0  0  0  0  0  0
   -4.3310   -0.3390    0.6260 N   0  0  0  0  0  0  0  0  0  0  0  0
   -5.5930   -0.3120   -0.0800 C   0  0  0  0  0  0  0  0  0  0  0  0
   -3.1840    0.2060   -0.0140 C   0  0  0  0  0  0  0  0  0  0  0  0
   -3.3390    1.1320   -0.9390 C   0  0  0  0  0  0  0  0  0  0  0  0
   -2.2280    1.6610   -1.5610 O   0  0  0  0  0  0  0  0  0  0  0  0
   -0.9040    1.3030   -1.3020 C   0  0  0  0  0  0  0  0  0  0  0  0
   -0.7540    0.2640   -0.2630 C   0  0  0  0  0  0  0  0  0  0  0  0
    0.5950   -0.2220    0.1220 C   0  0  0  0  0  0  0  0  0  0  0  0
    0.7280   -1.0990    0.9980 O   0  0  0  0  0  0  0  0  0  0  0  0
    1.7570    0.3010   -0.4980 N   0  0  0  0  0  0  0  0  0  0  0  0
    3.0910   -0.0460   -0.2520 C   0  0  0  0  0  0  0  0  0  0  0  0
    3.5250   -0.9730    0.6520 C   0  0  0  0  0  0  0  0  0  0  0  0
    4.8790   -1.2740    0.8500 C   0  0  0  0  0  0  0  0  0  0  0  0
    5.8100   -0.5980    0.0940 C   0  0  0  0  0  0  0  0  0  0  0  0
    5.4220    0.3490   -0.8330 C   0  0  0  0  0  0  0  0  0  0  0  0
    6.3820    1.0120   -1.5790 O   0  0  0  0  0  0  0  0  0  0  0  0
    4.0780    0.6080   -0.9900 C   0  0  0  0  0  0  0  0  0  0  0  0
    3.6230    1.8180   -2.1780 Cl  0  0  0  0  0  0  0  0  0  0  0  0
   -1.8280   -0.2230    0.3130 C   0  0  0  0  0  0  0  0  0  0  0  0
  1  2  1  0
  2  3  1  0
  2  4  1  0
  4  5  2  0
  4 20  1  0
  5  6  1  0
  6  7  1  0
  7  8  1  0
  8  9  1  0
  8 20  2  0
  9 10  2  0
  9 11  1  0
 11 12  1  0
 12 13  2  0
 12 18  1  0
 13 14  1  0
 14 15  2  0
 15 16  1  0
 16 17  1  0
 16 18  2  0
 18 19  1  0
M  END
