
     RDKit          3D

 20 21  0  0  0  0  0  0  0  0999 V2000
    6.6820    0.4320   -0.0570 N   0  0  0  0  0  0  0  0  0  0  0  0
    5.2820    0.2360   -0.0010 C   0  0  0  0  0  0  0  0  0  0  0  0
    4.6930   -0.9580    0.3230 C   0  0  0  0  0  0  0  0  0  0  0  0
    3.3050   -1.1310    0.3720 C   0  0  0  0  0  0  0  0  0  0  0  0
    2.4770   -0.0840    0.0900 C   0  0  0  0  0  0  0  0  0  0  0  0
    1.0710   -0.1910    0.1340 N   0  0  0  0  0  0  0  0  0  0  0  0
    0.3510   -1.2800    0.6300 C   0  0  0  0  0  0  0  0  0  0  0  0
    0.8910   -2.2900    1.0970 O   0  0  0  0  0  0  0  0  0  0  0  0
   -1.1330   -1.2380    0.6000 C   0  0  0  0  0  0  0  0  0  0  0  0
   -1.6080   -0.0130    0.0340 O   0  0  0  0  0  0  0  0  0  0  0  0
   -2.9840    0.1300   -0.0410 C   0  0  0  0  0  0  0  0  0  0  0  0
   -3.7950   -0.7950   -0.5420 C   0  0  0  0  0  0  0  0  0  0  0  0
   -5.2280   -0.6260   -0.6110 C   0  0  0  0  0  0  0  0  0  0  0  0
   -5.9900   -1.5350   -1.1000 O   0  0  0  0  0  0  0  0  0  0  0  0
   -5.8940    0.5780   -0.1330 C   0  0  0  0  0  0  0  0  0  0  0  0
   -4.9340    1.5550    0.4070 C   0  0  0  0  0  0  0  0  0  0  0  0
   -3.6370    1.3420    0.4420 C   0  0  0  0  0  0  0  0  0  0  0  0
   -2.6620    2.6550    1.1360 Cl  0  0  0  0  0  0  0  0  0  0  0  0
    3.0690    1.1460   -0.2440 C   0  0  0  0  0  0  0  0  0  0  0  0
    4.4300    1.2780   -0.2820 C   0  0  0  0  0  0  0  0  0  0  0  0
  1  2  1  0
  2  3  2  0
  2 20  1  0
  3  4  1  0
  4  5  2  0
  5  6  1  0
  5 19  1  0
  6  7  1  0
  7  8  2  0
  7  9  1  0
  9 10  1  0
 10 11  1  0
 11 12  2  0
 11 17  1  0
 12 13  1  0
 13 14  2  0
 13 15  1  0
 15 16  1  0
 16 17  2  0
 17 18  1  0
 19 20  2  0
M  END
