
     RDKit          3D

 20 21  0  0  0  0  0  0  0  0999 V2000
   -2.9120    2.3770   -0.8790 C   0  0  0  0  0  0  0  0  0  0  0  0
   -2.8180    1.0650   -1.4030 O   0  0  0  0  0  0  0  0  0  0  0  0
   -3.2610    0.0300   -0.6010 C   0  0  0  0  0  0  0  0  0  0  0  0
   -2.4090   -0.7250    0.0700 C   0  0  0  0  0  0  0  0  0  0  0  0
   -0.9620   -0.4980   -0.0070 C   0  0  0  0  0  0  0  0  0  0  0  0
   -0.0960   -1.2200    0.6390 C   0  0  0  0  0  0  0  0  0  0  0  0
    1.3430   -1.0670    0.6200 C   0  0  0  0  0  0  0  0  0  0  0  0
    2.0830   -1.8430    1.3010 O   0  0  0  0  0  0  0  0  0  0  0  0
    1.9420   -0.0480   -0.1590 N   0  0  0  0  0  0  0  0  0  0  0  0
    3.3090    0.2170   -0.2670 C   0  0  0  0  0  0  0  0  0  0  0  0
    3.7550    1.0900   -1.2650 C   0  0  0  0  0  0  0  0  0  0  0  0
    5.0840    1.4110   -1.4240 C   0  0  0  0  0  0  0  0  0  0  0  0
    6.0150    0.8590   -0.5780 C   0  0  0  0  0  0  0  0  0  0  0  0
    5.6370    0.0040    0.4090 C   0  0  0  0  0  0  0  0  0  0  0  0
    6.8300   -0.6990    1.4870 Cl  0  0  0  0  0  0  0  0  0  0  0  0
    4.2690   -0.3010    0.5430 C   0  0  0  0  0  0  0  0  0  0  0  0
   -2.9690   -1.7610    0.8630 N   0  0  0  0  0  0  0  0  0  0  0  0
   -4.2900   -1.6430    1.3830 C   0  0  0  0  0  0  0  0  0  0  0  0
   -5.0570   -0.6630    0.8200 O   0  0  0  0  0  0  0  0  0  0  0  0
   -4.7020   -0.2860   -0.4510 C   0  0  0  0  0  0  0  0  0  0  0  0
  1  2  1  0
  2  3  1  0
  3  4  2  0
  3 20  1  0
  4  5  1  0
  4 17  1  0
  5  6  2  3
  6  7  1  0
  7  8  2  0
  7  9  1  0
  9 10  1  0
 10 11  2  0
 10 16  1  0
 11 12  1  0
 12 13  2  0
 13 14  1  0
 14 15  1  0
 14 16  2  0
 17 18  1  0
 18 19  1  0
 19 20  1  0
M  END
