
     RDKit          3D

 13 13  0  0  0  0  0  0  0  0999 V2000
    2.3200   -0.1070   -2.6340 N   0  0  0  0  0  0  0  0  0  0  0  0
    0.9120   -0.4860   -2.5240 C   0  0  0  0  0  0  0  0  0  0  0  0
    0.5830   -0.7740   -1.0810 C   0  0  0  0  0  0  0  0  0  0  0  0
   -0.3300   -0.0720   -0.4920 C   0  0  0  0  0  0  0  0  0  0  0  0
   -1.0600    0.9750   -1.1240 O   0  0  0  0  0  0  0  0  0  0  0  0
   -1.1850    2.1620   -0.3850 C   0  0  0  0  0  0  0  0  0  0  0  0
   -1.7430    1.9250    0.9710 C   0  0  0  0  0  0  0  0  0  0  0  0
   -1.7360    0.5880    1.3420 O   0  0  0  0  0  0  0  0  0  0  0  0
   -0.7300   -0.2770    0.9150 C   0  0  0  0  0  0  0  0  0  0  0  0
   -0.1860   -1.1790    1.6640 C   0  0  0  0  0  0  0  0  0  0  0  0
    0.8060   -2.0850    1.3630 O   0  0  0  0  0  0  0  0  0  0  0  0
   -0.6880   -1.2860    3.0850 C   0  0  0  0  0  0  0  0  0  0  0  0
    0.6890   -0.9890    4.1440 Cl  0  0  0  0  0  0  0  0  0  0  0  0
  1  2  1  0
  2  3  1  0
  3  4  2  3
  4  5  1  0
  4  9  1  0
  5  6  1  0
  6  7  1  0
  7  8  1  0
  8  9  1  0
  9 10  2  3
 10 11  1  0
 10 12  1  0
 12 13  1  0
M  CHG  1   1   1
M  END
