
     RDKit          3D

 13 13  0  0  0  0  0  0  0  0999 V2000
    3.3580    0.7380   -0.7870 O   0  0  0  0  0  0  0  0  0  0  0  0
    2.4460    1.2160    0.1250 C   0  0  0  0  0  0  0  0  0  0  0  0
    1.6460    0.1870    0.8340 C   0  0  0  0  0  0  0  0  0  0  0  0
    0.8070   -0.6930   -0.0560 C   0  0  1  0  0  0  0  0  0  0  0  0
    1.7170   -1.3440   -0.9260 O   0  0  0  0  0  0  0  0  0  0  0  0
    0.1520   -1.8140    0.7210 C   0  0  0  0  0  0  0  0  0  0  0  0
   -1.0180   -1.3670    1.4470 N   0  0  0  0  0  0  0  0  0  0  0  0
   -2.0220   -1.0310    0.4620 C   0  0  0  0  0  0  0  0  0  0  0  0
   -1.5550    0.1670   -0.3000 C   0  0  1  0  0  0  0  0  0  0  0  0
   -2.6920    0.3510   -1.6910 Cl  0  0  0  0  0  0  0  0  0  0  0  0
   -1.7840    1.3900    0.5420 C   0  0  0  0  0  0  0  0  0  0  0  0
   -1.3780    2.5640   -0.0880 O   0  0  0  0  0  0  0  0  0  0  0  0
   -0.1890    0.0550   -0.8720 C   0  0  0  0  0  0  0  0  0  0  0  0
  1  2  1  0
  2  3  1  0
  3  4  1  0
  4  5  1  6
  4  6  1  0
  4 13  1  0
  6  7  1  0
  7  8  1  0
  8  9  1  0
  9 10  1  6
  9 11  1  0
  9 13  1  0
 11 12  1  0
M  CHG  1   7   1
M  END
