
     RDKit          3D

 13 12  0  0  0  0  0  0  0  0999 V2000
   -2.0430    0.1720    1.5560 C   0  0  0  0  0  0  0  0  0  0  0  0
   -1.7340    0.2000    0.0780 C   0  0  2  0  0  0  0  0  0  0  0  0
   -1.8480    1.6110   -0.4270 C   0  0  0  0  0  0  0  0  0  0  0  0
   -2.7810   -0.6600   -0.6070 C   0  0  0  0  0  0  0  0  0  0  0  0
   -2.6500   -1.9440   -0.0570 O   0  0  0  0  0  0  0  0  0  0  0  0
   -0.4590   -0.4080   -0.2240 N   0  0  0  0  0  0  0  0  0  0  0  0
    0.6440    0.2020    0.4630 C   0  0  0  0  0  0  0  0  0  0  0  0
    1.8810   -0.0780   -0.3650 C   0  0  1  0  0  0  0  0  0  0  0  0
    1.6980    0.4750   -1.6110 O   0  0  0  0  0  0  0  0  0  0  0  0
    3.1380    0.4220    0.2920 C   0  0  0  0  0  0  0  0  0  0  0  0
    3.1420    1.7890    0.4680 O   0  0  0  0  0  0  0  0  0  0  0  0
    1.9930   -1.6030   -0.4670 C   0  0  0  0  0  0  0  0  0  0  0  0
    3.4410   -1.9390   -1.4380 Cl  0  0  0  0  0  0  0  0  0  0  0  0
  2  1  1  1
  2  3  1  0
  2  4  1  0
  2  6  1  0
  4  5  1  0
  6  7  1  0
  7  8  1  0
  8  9  1  6
  8 10  1  0
  8 12  1  0
 10 11  1  0
 12 13  1  0
M  CHG  1   6   1
M  END
