
     RDKit          3D

 13 13  0  0  0  0  0  0  0  0999 V2000
    3.0410   -0.9900   -0.6790 O   0  0  0  0  0  0  0  0  0  0  0  0
    2.6460   -0.7170    0.6120 C   0  0  1  0  0  0  0  0  0  0  0  0
    3.7090   -0.4230    1.4580 O   0  0  0  0  0  0  0  0  0  0  0  0
    1.6820    0.4760    0.5880 C   0  0  2  0  0  0  0  0  0  0  0  0
    1.1850    0.8130    2.2510 Cl  0  0  0  0  0  0  0  0  0  0  0  0
    0.4610    0.1030   -0.2350 C   0  0  1  0  0  0  0  0  0  0  0  0
    0.9740   -0.1950   -1.5230 O   0  0  0  0  0  0  0  0  0  0  0  0
   -0.1710   -1.1510    0.2700 C   0  0  0  0  0  0  0  0  0  0  0  0
   -1.5150   -1.3090   -0.3760 C   0  0  0  0  0  0  0  0  0  0  0  0
   -2.5610   -0.3940    0.1330 C   0  0  0  0  0  0  0  0  0  0  0  0
   -2.1310    0.4630    1.2140 N   0  0  0  0  0  0  0  0  0  0  0  0
   -1.3840    1.5640    0.7010 C   0  0  0  0  0  0  0  0  0  0  0  0
   -0.4550    1.2580   -0.4150 C   0  0  0  0  0  0  0  0  0  0  0  0
  2  1  1  6
  2  3  1  0
  2  4  1  0
  4  5  1  1
  4  6  1  0
  6  7  1  6
  6  8  1  0
  6 13  1  0
  8  9  1  0
  9 10  1  0
 10 11  1  0
 11 12  1  0
 12 13  1  0
M  CHG  1  11   1
M  END
