
     RDKit          3D

 13 12  0  0  0  0  0  0  0  0999 V2000
    4.2620   -0.5200   -0.4190 C   0  0  0  0  0  0  0  0  0  0  0  0
    3.0530    0.1150   -0.1400 O   0  0  0  0  0  0  0  0  0  0  0  0
    2.0970   -0.4180   -0.9660 C   0  0  0  0  0  0  0  0  0  0  0  0
    0.7250    0.1750   -0.7790 C   0  0  0  0  0  0  0  0  0  0  0  0
    0.2180    0.0060    0.5110 O   0  0  0  0  0  0  0  0  0  0  0  0
   -1.0460    0.5220    0.7780 C   0  0  0  0  0  0  0  0  0  0  0  0
   -2.1460   -0.2010    0.6560 C   0  0  0  0  0  0  0  0  0  0  0  0
   -2.0870   -1.6230    0.2200 C   0  0  0  0  0  0  0  0  0  0  0  0
   -2.8360   -1.8420   -1.0070 N   0  0  0  0  0  0  0  0  0  0  0  0
   -1.1480    1.9000    1.2050 C   0  0  0  0  0  0  0  0  0  0  0  0
   -2.4040    2.4710    1.4880 O   0  0  0  0  0  0  0  0  0  0  0  0
   -0.0820    2.6710    1.3450 C   0  0  0  0  0  0  0  0  0  0  0  0
   -0.1930    4.3230    1.8550 Cl  0  0  0  0  0  0  0  0  0  0  0  0
  1  2  1  0
  2  3  1  0
  3  4  1  0
  4  5  1  0
  5  6  1  0
  6  7  2  3
  6 10  1  0
  7  8  1  0
  8  9  1  0
 10 11  1  0
 10 12  2  3
 12 13  1  0
M  CHG  1   9   1
M  END
