
     RDKit          3D

 23 25  0  0  0  0  0  0  0  0999 V2000
    0.6960   -3.3990    1.5110 N   0  0  0  0  0  0  0  0  0  0  0  0
   -0.3920   -2.5450    1.1170 C   0  0  0  0  0  0  0  0  0  0  0  0
   -1.6830   -3.0130    1.0930 C   0  0  0  0  0  0  0  0  0  0  0  0
   -2.6980   -2.1690    0.7110 C   0  0  0  0  0  0  0  0  0  0  0  0
   -2.4840   -0.8630    0.3480 C   0  0  0  0  0  0  0  0  0  0  0  0
   -3.5580    0.0370   -0.0590 C   0  0  0  0  0  0  0  0  0  0  0  0
   -4.6550   -0.4560   -0.7090 C   0  0  0  0  0  0  0  0  0  0  0  0
   -5.7090    0.3550   -1.1210 C   0  0  0  0  0  0  0  0  0  0  0  0
   -5.6370    1.7050   -0.8600 C   0  0  0  0  0  0  0  0  0  0  0  0
   -6.6680    2.5210   -1.2580 F   0  0  0  0  0  0  0  0  0  0  0  0
   -4.5460    2.2330   -0.2070 C   0  0  0  0  0  0  0  0  0  0  0  0
   -3.5170    1.3940    0.1870 C   0  0  0  0  0  0  0  0  0  0  0  0
   -1.1580   -0.4100    0.3810 C   0  0  0  0  0  0  0  0  0  0  0  0
   -0.1170   -1.2180    0.7550 C   0  0  0  0  0  0  0  0  0  0  0  0
    1.2370   -0.7960    0.8010 N   0  0  0  0  0  0  0  0  0  0  0  0
    1.7420    0.4790    0.4850 C   0  0  0  0  0  0  0  0  0  0  0  0
    0.9730    1.3820    0.1180 O   0  0  0  0  0  0  0  0  0  0  0  0
    3.2160    0.7930    0.5790 C   0  0  2  0  0  0  0  0  0  0  0  0
    3.4950    2.2070    0.1950 C   0  0  0  0  0  0  0  0  0  0  0  0
    4.4410    2.2630   -1.0130 C   0  0  0  0  0  0  0  0  0  0  0  0
    3.8430    1.5250   -2.0040 O   0  0  0  0  0  0  0  0  0  0  0  0
    3.8360    0.1640   -1.7170 C   0  0  0  0  0  0  0  0  0  0  0  0
    4.0050   -0.1540   -0.2680 C   0  0  0  0  0  0  0  0  0  0  0  0
  1  2  1  0
  2  3  2  0
  2 14  1  0
  3  4  1  0
  4  5  2  0
  5  6  1  0
  5 13  1  0
  6  7  2  0
  6 12  1  0
  7  8  1  0
  8  9  2  0
  9 10  1  0
  9 11  1  0
 11 12  2  0
 13 14  2  0
 14 15  1  0
 15 16  1  0
 16 17  2  0
 18 16  1  6
 18 19  1  0
 18 23  1  0
 19 20  1  0
 20 21  1  0
 21 22  1  0
 22 23  1  0
M  END
