
     RDKit          3D

 13 12  0  0  0  0  0  0  0  0999 V2000
    0.5060   -0.5670   -2.6800 C   0  0  0  0  0  0  0  0  0  0  0  0
   -0.4140   -0.4750   -1.7250 C   0  0  0  0  0  0  0  0  0  0  0  0
   -0.1160   -0.8550   -0.4360 O   0  0  0  0  0  0  0  0  0  0  0  0
    1.0080   -0.1990    0.1730 C   0  0  0  0  0  0  0  0  0  0  0  0
    1.2310   -0.6960    1.5710 C   0  0  0  0  0  0  0  0  0  0  0  0
    2.3050   -0.0580    2.1320 O   0  0  0  0  0  0  0  0  0  0  0  0
    3.5040   -0.2140    1.4900 C   0  0  0  0  0  0  0  0  0  0  0  0
    4.4830    0.5080    2.2090 O   0  0  0  0  0  0  0  0  0  0  0  0
   -1.7180    0.0250   -2.0550 C   0  0  0  0  0  0  0  0  0  0  0  0
   -1.9450    0.4770   -3.7760 Cl  0  0  0  0  0  0  0  0  0  0  0  0
   -2.7220    0.1790   -1.2590 C   0  0  0  0  0  0  0  0  0  0  0  0
   -2.8190   -0.1010    0.1610 C   0  0  0  0  0  0  0  0  0  0  0  0
   -3.1430    1.1440    0.8870 N   0  0  0  0  0  0  0  0  0  0  0  0
  1  2  2  0
  2  3  1  0
  2  9  1  0
  3  4  1  0
  4  5  1  0
  5  6  1  0
  6  7  1  0
  7  8  1  0
  9 10  1  0
  9 11  2  3
 11 12  1  0
 12 13  1  0
M  CHG  1  13   1
M  END
