
     RDKit          3D

 25 27  0  0  0  0  0  0  0  0999 V2000
   -1.4070   -2.1830    1.8080 C   0  0  0  0  0  0  0  0  0  0  0  0
   -1.6650   -0.7390    2.0510 C   0  0  0  0  0  0  0  0  0  0  0  0
   -1.7410    0.2080    1.1630 C   0  0  0  0  0  0  0  0  0  0  0  0
   -2.0210    1.6190    1.6410 C   0  0  1  0  0  0  0  0  0  0  0  0
   -1.1300    2.5180    1.1490 F   0  0  0  0  0  0  0  0  0  0  0  0
   -3.4310    1.9480    1.1890 C   0  0  0  0  0  0  0  0  0  0  0  0
   -3.9600    1.1310    0.0430 C   0  0  0  0  0  0  0  0  0  0  0  0
   -2.8250    0.7570   -0.8840 C   0  0  0  0  0  0  0  0  0  0  0  0
   -2.9220    0.9430   -2.1450 C   0  0  0  0  0  0  0  0  0  0  0  0
   -4.1780    1.5190   -2.7750 C   0  0  0  0  0  0  0  0  0  0  0  0
   -1.7670    0.8090   -2.9620 N   0  0  0  0  0  0  0  0  0  0  0  0
   -0.5240    0.4710   -2.3150 C   0  0  0  0  0  0  0  0  0  0  0  0
    0.6630    0.3790   -3.2130 C   0  0  0  0  0  0  0  0  0  0  0  0
   -0.4040    0.2580   -1.0170 C   0  0  0  0  0  0  0  0  0  0  0  0
    0.8470   -0.0480   -0.3550 C   0  0  0  0  0  0  0  0  0  0  0  0
    0.6880   -0.1760    0.9460 O   0  0  0  0  0  0  0  0  0  0  0  0
    2.1820   -0.2380   -0.7920 C   0  0  0  0  0  0  0  0  0  0  0  0
    3.2010   -0.5020    0.0490 C   0  0  0  0  0  0  0  0  0  0  0  0
    3.0180   -0.6140    1.4970 C   0  0  0  0  0  0  0  0  0  0  0  0
    4.3330   -0.8040    2.2450 C   0  0  0  0  0  0  0  0  0  0  0  0
    5.2200   -1.8460    1.6360 C   0  0  0  0  0  0  0  0  0  0  0  0
    5.4140   -1.5890    0.1680 C   0  0  0  0  0  0  0  0  0  0  0  0
    6.3620   -2.1630   -0.3980 O   0  0  0  0  0  0  0  0  0  0  0  0
    4.4940   -0.6940   -0.5000 N   0  0  0  0  0  0  0  0  0  0  0  0
   -1.6700    0.0680   -0.2820 C   0  0  1  0  0  0  0  0  0  0  0  0
  1  2  1  0
  2  3  2  3
  3  4  1  0
 25  3  1  1
  4  5  1  6
  4  6  1  0
  6  7  1  0
  7  8  1  0
  8  9  2  0
  8 25  1  0
  9 10  1  0
  9 11  1  0
 11 12  1  0
 12 13  1  0
 12 14  2  0
 14 15  1  0
 14 25  1  0
 15 16  2  0
 15 17  1  0
 17 18  2  3
 18 19  1  0
 18 24  1  0
 19 20  1  0
 20 21  1  0
 21 22  1  0
 22 23  2  0
 22 24  1  0
M  END
