
     RDKit          3D

 25 28  0  0  0  0  0  0  0  0999 V2000
    6.9270    1.1020    0.8180 N   0  0  0  0  0  0  0  0  0  0  0  0
    5.9520    0.4390   -0.0000 C   0  0  0  0  0  0  0  0  0  0  0  0
    4.7230    0.0920    0.2840 C   0  0  0  0  0  0  0  0  0  0  0  0
    4.1310    0.3170    1.4790 F   0  0  0  0  0  0  0  0  0  0  0  0
    4.0940   -0.5670   -0.8670 C   0  0  0  0  0  0  0  0  0  0  0  0
    2.6920   -1.0940   -0.8980 C   0  0  0  0  0  0  0  0  0  0  0  0
    1.7100   -0.0050   -0.6490 C   0  0  0  0  0  0  0  0  0  0  0  0
    0.3360   -0.5600   -0.6860 C   0  0  0  0  0  0  0  0  0  0  0  0
    0.1800   -1.7730   -0.9050 O   0  0  0  0  0  0  0  0  0  0  0  0
   -0.8380    0.3170   -0.4670 C   0  0  0  0  0  0  0  0  0  0  0  0
   -0.6250    1.6020   -0.2400 C   0  0  0  0  0  0  0  0  0  0  0  0
   -1.7340    2.4630   -0.0280 N   0  0  0  0  0  0  0  0  0  0  0  0
   -2.8600    1.9500    0.7200 C   0  0  1  0  0  0  0  0  0  0  0  0
   -4.1530    2.6140    0.3040 C   0  0  0  0  0  0  0  0  0  0  0  0
   -5.2150    1.5540    0.3360 C   0  0  0  0  0  0  0  0  0  0  0  0
   -4.5260    0.2260    0.3500 C   0  0  0  0  0  0  0  0  0  0  0  0
   -3.0570    0.4810    0.6130 C   0  0  1  0  0  0  0  0  0  0  0  0
   -2.2270   -0.1700   -0.4910 C   0  0  2  0  0  0  0  0  0  0  0  0
   -2.3580   -1.6320   -0.4130 C   0  0  0  0  0  0  0  0  0  0  0  0
   -1.9900   -2.4350    0.6400 C   0  0  0  0  0  0  0  0  0  0  0  0
   -2.2950   -3.7260    0.2730 C   0  0  0  0  0  0  0  0  0  0  0  0
   -2.8350   -3.6680   -0.9820 C   0  0  0  0  0  0  0  0  0  0  0  0
   -2.8470   -2.4200   -1.3340 O   0  0  0  0  0  0  0  0  0  0  0  0
    4.9800   -0.6010   -1.8390 C   0  0  0  0  0  0  0  0  0  0  0  0
    6.2380    0.0260   -1.3970 C   0  0  0  0  0  0  0  0  0  0  0  0
  1  2  1  0
  2  3  2  0
  2 25  1  0
  3  4  1  0
  3  5  1  0
  5  6  1  0
  5 24  2  0
  6  7  1  0
  7  8  1  0
  8  9  2  0
  8 10  1  0
 10 11  2  0
 10 18  1  0
 11 12  1  0
 12 13  1  0
 13 14  1  6
 13 17  1  0
 14 15  1  0
 15 16  1  0
 17 16  1  6
 17 18  1  0
 18 19  1  1
 19 20  2  0
 19 23  1  0
 20 21  1  0
 21 22  2  0
 22 23  1  0
 24 25  1  0
M  END
