
     RDKit          3D

 25 28  0  0  0  0  0  0  0  0999 V2000
    0.1330   -3.6890   -0.7030 N   0  0  0  0  0  0  0  0  0  0  0  0
    1.1840   -2.7550   -0.4830 C   0  0  0  0  0  0  0  0  0  0  0  0
    2.4950   -3.1440   -0.4240 C   0  0  0  0  0  0  0  0  0  0  0  0
    3.4720   -2.2190   -0.2110 C   0  0  0  0  0  0  0  0  0  0  0  0
    3.1960   -0.8980   -0.0510 C   0  0  0  0  0  0  0  0  0  0  0  0
    4.2370    0.0930    0.1770 C   0  0  0  0  0  0  0  0  0  0  0  0
    4.0140    1.2210    0.9250 C   0  0  0  0  0  0  0  0  0  0  0  0
    5.0170    2.1690    1.1410 C   0  0  0  0  0  0  0  0  0  0  0  0
    6.2690    1.9750    0.5900 C   0  0  0  0  0  0  0  0  0  0  0  0
    7.2590    2.8830    0.7870 F   0  0  0  0  0  0  0  0  0  0  0  0
    6.5010    0.8370   -0.1670 C   0  0  0  0  0  0  0  0  0  0  0  0
    5.4950   -0.0920   -0.3700 C   0  0  0  0  0  0  0  0  0  0  0  0
    1.8500   -0.5030   -0.1110 C   0  0  0  0  0  0  0  0  0  0  0  0
    0.8400   -1.4020   -0.3240 C   0  0  0  0  0  0  0  0  0  0  0  0
   -0.5210   -1.0580   -0.3920 N   0  0  0  0  0  0  0  0  0  0  0  0
   -1.0590    0.2370   -0.2620 C   0  0  0  0  0  0  0  0  0  0  0  0
   -0.3240    1.2230   -0.0650 O   0  0  0  0  0  0  0  0  0  0  0  0
   -2.5640    0.4390   -0.3610 C   0  0  1  0  0  0  0  0  0  0  0  0
   -3.1810   -0.3670    0.7330 C   0  0  0  0  0  0  0  0  0  0  0  0
   -4.5330    0.2140    1.0920 C   0  0  2  0  0  0  0  0  0  0  0  0
   -5.3730    0.1980   -0.1560 C   0  0  0  0  0  0  0  0  0  0  0  0
   -5.3440    1.6470   -0.5770 C   0  0  0  0  0  0  0  0  0  0  0  0
   -4.2280    2.2110    0.2470 C   0  0  2  0  0  0  0  0  0  0  0  0
   -2.8610    1.8970   -0.3150 C   0  0  0  0  0  0  0  0  0  0  0  0
   -4.3580    1.5300    1.4550 O   0  0  0  0  0  0  0  0  0  0  0  0
  1  2  1  0
  2  3  2  0
  2 14  1  0
  3  4  1  0
  4  5  2  0
  5  6  1  0
  5 13  1  0
  6  7  2  0
  6 12  1  0
  7  8  1  0
  8  9  2  0
  9 10  1  0
  9 11  1  0
 11 12  2  0
 13 14  2  0
 14 15  1  0
 15 16  1  0
 16 17  2  0
 18 16  1  1
 18 19  1  0
 18 24  1  0
 20 19  1  6
 20 21  1  0
 20 25  1  0
 21 22  1  0
 23 22  1  6
 23 24  1  0
 23 25  1  0
M  END
