
     RDKit          3D

 25 27  0  0  0  0  0  0  0  0999 V2000
   -6.1570    0.8170    0.4800 C   0  0  0  0  0  0  0  0  0  0  0  0
   -5.9440   -0.5010   -0.2130 C   0  0  0  0  0  0  0  0  0  0  0  0
   -4.5720   -0.8340   -0.4220 N   0  0  0  0  0  0  0  0  0  0  0  0
   -3.8620   -1.1180    0.8110 C   0  0  0  0  0  0  0  0  0  0  0  0
   -2.5120   -1.6960    0.3610 C   0  0  0  0  0  0  0  0  0  0  0  0
   -1.6540   -0.5710   -0.2280 C   0  0  1  0  0  0  0  0  0  0  0  0
   -2.5800    0.5870   -0.5930 C   0  0  0  0  0  0  0  0  0  0  0  0
   -3.8570    0.1110   -1.2470 C   0  0  0  0  0  0  0  0  0  0  0  0
   -0.6920   -0.0500    0.7780 C   0  0  0  0  0  0  0  0  0  0  0  0
    0.7690   -0.3020    0.4840 C   0  0  2  0  0  0  0  0  0  0  0  0
    1.4120    0.7990   -0.2730 C   0  0  2  0  0  0  0  0  0  0  0  0
    0.8560    1.0470   -1.5200 O   0  0  0  0  0  0  0  0  0  0  0  0
    2.8730    0.6430   -0.3150 C   0  0  0  0  0  0  0  0  0  0  0  0
    3.6110    1.5750    0.3290 C   0  0  0  0  0  0  0  0  0  0  0  0
    5.0820    1.6360    0.4320 C   0  0  0  0  0  0  0  0  0  0  0  0
    5.6870    2.9790    0.6080 C   0  0  0  0  0  0  0  0  0  0  0  0
    5.9100    0.6170    0.3890 C   0  0  0  0  0  0  0  0  0  0  0  0
    5.6150   -0.8210    0.2310 C   0  0  0  0  0  0  0  0  0  0  0  0
    4.5720   -1.0800   -0.7850 C   0  0  0  0  0  0  0  0  0  0  0  0
    4.8230   -2.1270   -1.6360 F   0  0  0  0  0  0  0  0  0  0  0  0
    3.4300   -0.5000   -1.0420 C   0  0  0  0  0  0  0  0  0  0  0  0
    0.9190   -1.6810   -0.0510 C   0  0  0  0  0  0  0  0  0  0  0  0
    0.1780   -1.8120   -1.3320 C   0  0  0  0  0  0  0  0  0  0  0  0
    0.6420   -2.5110   -2.2530 O   0  0  0  0  0  0  0  0  0  0  0  0
   -1.0490   -1.1100   -1.4260 N   0  0  0  0  0  0  0  0  0  0  0  0
  1  2  1  0
  2  3  1  0
  3  4  1  0
  3  8  1  0
  4  5  1  0
  6  5  1  1
  6  7  1  0
  6  9  1  0
  6 25  1  0
  7  8  1  0
 10  9  1  6
 10 11  1  0
 10 22  1  0
 11 12  1  6
 11 13  1  0
 13 14  2  0
 13 21  1  0
 14 15  1  0
 15 16  1  0
 15 17  2  0
 17 18  1  0
 18 19  1  0
 19 20  1  0
 19 21  2  0
 22 23  1  0
 23 24  2  0
 23 25  1  0
M  END
