
     RDKit          3D

 24 27  0  0  0  0  0  0  0  0999 V2000
   -1.0420   -0.9530   -1.7110 C   0  0  0  0  0  0  0  0  0  0  0  0
   -1.4680    0.1020   -0.7110 C   0  0  1  0  0  0  0  0  0  0  0  0
   -2.9030    0.4330   -1.0610 C   0  0  1  0  0  0  0  0  0  0  0  0
   -3.7380   -0.7060   -1.5190 C   0  0  0  0  0  0  0  0  0  0  0  0
   -5.1290   -0.1430   -1.3710 C   0  0  0  0  0  0  0  0  0  0  0  0
   -5.1180    0.8560   -0.4990 C   0  0  0  0  0  0  0  0  0  0  0  0
   -3.7090    1.0480    0.0140 C   0  0  1  0  0  0  0  0  0  0  0  0
   -3.5680    0.3970    1.3540 C   0  0  0  0  0  0  0  0  0  0  0  0
   -2.4830   -0.5970    1.4570 C   0  0  0  0  0  0  0  0  0  0  0  0
   -1.2840   -0.2570    0.6500 N   0  0  0  0  0  0  0  0  0  0  0  0
   -0.0680   -0.3290    1.3230 C   0  0  0  0  0  0  0  0  0  0  0  0
   -0.1850   -0.7110    2.6110 O   0  0  0  0  0  0  0  0  0  0  0  0
    1.3020   -0.0970    0.9960 C   0  0  0  0  0  0  0  0  0  0  0  0
    1.7630    0.2840   -0.1510 C   0  0  0  0  0  0  0  0  0  0  0  0
    3.2070    0.5130   -0.4430 C   0  0  0  0  0  0  0  0  0  0  0  0
    3.6290    0.9000   -1.6250 C   0  0  0  0  0  0  0  0  0  0  0  0
    5.0600    1.1000   -1.8240 C   0  0  0  0  0  0  0  0  0  0  0  0
    5.4540    1.4700   -2.9540 O   0  0  0  0  0  0  0  0  0  0  0  0
    6.0390    0.8880   -0.7670 C   0  0  0  0  0  0  0  0  0  0  0  0
    5.6010    0.4960    0.4260 C   0  0  0  0  0  0  0  0  0  0  0  0
    4.1490    0.2940    0.6250 C   0  0  0  0  0  0  0  0  0  0  0  0
    3.6790   -0.0910    1.7820 C   0  0  0  0  0  0  0  0  0  0  0  0
    2.2920   -0.3260    2.1130 C   0  0  2  0  0  0  0  0  0  0  0  0
    2.1560   -1.6920    2.6110 N   0  0  0  0  0  0  0  0  0  0  0  0
  2  1  1  6
  2  3  1  0
  2 10  1  0
  3  4  1  1
  3  7  1  0
  4  5  1  0
  5  6  2  0
  6  7  1  0
  7  8  1  1
  8  9  1  0
  9 10  1  0
 10 11  1  0
 11 12  2  0
 11 13  1  0
 13 14  2  0
 13 23  1  0
 14 15  1  0
 15 16  2  0
 15 21  1  0
 16 17  1  0
 17 18  2  0
 17 19  1  0
 19 20  2  0
 20 21  1  0
 21 22  2  0
 22 23  1  0
 23 24  1  6
M  END
