
     RDKit          3D

 25 28  0  0  0  0  0  0  0  0999 V2000
   -0.1310   -2.0160    0.4170 O   0  0  0  0  0  0  0  0  0  0  0  0
   -0.2230   -0.8070    0.7520 C   0  0  0  0  0  0  0  0  0  0  0  0
    0.8780    0.0420    0.4460 N   0  0  0  0  0  0  0  0  0  0  0  0
    2.0630   -0.4560   -0.2250 C   0  0  0  0  0  0  0  0  0  0  0  0
    3.0200    0.6920   -0.3920 C   0  0  1  0  0  0  0  0  0  0  0  0
    3.4250    1.2950    0.9350 C   0  0  0  0  0  0  0  0  0  0  0  0
    4.6570    2.0970    0.4900 C   0  0  0  0  0  0  0  0  0  0  0  0
    5.2790    1.1230   -0.4770 C   0  0  0  0  0  0  0  0  0  0  0  0
    6.6090    1.0140   -0.8410 C   0  0  0  0  0  0  0  0  0  0  0  0
    6.9560    0.0350   -1.7540 C   0  0  0  0  0  0  0  0  0  0  0  0
    5.9880   -0.7970   -2.2720 C   0  0  0  0  0  0  0  0  0  0  0  0
    4.6660   -0.6780   -1.9010 C   0  0  0  0  0  0  0  0  0  0  0  0
    4.3010    0.3020   -0.9850 C   0  0  0  0  0  0  0  0  0  0  0  0
   -1.4000   -0.3600    1.4070 N   0  0  0  0  0  0  0  0  0  0  0  0
   -2.5300   -1.2020    1.7290 C   0  0  1  0  0  0  0  0  0  0  0  0
   -3.3840   -0.9100    2.9040 C   0  0  0  0  0  0  0  0  0  0  0  0
   -3.8910   -0.6590    1.4820 C   0  0  1  0  0  0  0  0  0  0  0  0
   -4.1170    0.7810    1.1740 C   0  0  0  0  0  0  0  0  0  0  0  0
   -3.9580    1.1020   -0.2960 C   0  0  0  0  0  0  0  0  0  0  0  0
   -5.3080    0.8880   -0.9150 C   0  0  0  0  0  0  0  0  0  0  0  0
   -5.7960    1.8440   -1.7300 F   0  0  0  0  0  0  0  0  0  0  0  0
   -6.0590   -0.1840   -0.7140 C   0  0  0  0  0  0  0  0  0  0  0  0
   -5.8700   -1.3910    0.0800 C   0  0  0  0  0  0  0  0  0  0  0  0
   -4.9410   -1.5650    1.0050 C   0  0  0  0  0  0  0  0  0  0  0  0
   -4.9410   -2.8110    1.6490 O   0  0  0  0  0  0  0  0  0  0  0  0
  1  2  2  0
  2  3  1  0
  2 14  1  0
  3  4  1  0
  5  4  1  1
  5  6  1  0
  5 13  1  0
  6  7  1  0
  7  8  1  0
  8  9  2  0
  8 13  1  0
  9 10  1  0
 10 11  2  0
 11 12  1  0
 12 13  2  0
 15 14  1  1
 15 16  1  0
 15 17  1  0
 17 16  1  1
 17 18  1  0
 17 24  1  0
 18 19  1  0
 19 20  1  0
 20 21  1  0
 20 22  2  0
 22 23  1  0
 23 24  2  0
 24 25  1  0
M  END
