
     RDKit          3D

 25 28  0  0  0  0  0  0  0  0999 V2000
   -2.9200   -2.1850   -0.1320 C   0  0  0  0  0  0  0  0  0  0  0  0
   -3.0300   -1.2410   -1.2480 C   0  0  0  0  0  0  0  0  0  0  0  0
   -2.4050   -0.1580   -1.5320 C   0  0  0  0  0  0  0  0  0  0  0  0
   -1.3700    0.3810   -0.6720 C   0  0  0  0  0  0  0  0  0  0  0  0
   -1.6990    0.6040    0.5960 C   0  0  0  0  0  0  0  0  0  0  0  0
   -3.0430    0.3520    1.0510 C   0  0  0  0  0  0  0  0  0  0  0  0
   -3.2640    0.4530    2.3470 C   0  0  0  0  0  0  0  0  0  0  0  0
   -2.2070    0.8120    3.2820 C   0  0  0  0  0  0  0  0  0  0  0  0
   -0.9620    1.0590    2.8970 C   0  0  0  0  0  0  0  0  0  0  0  0
   -0.5730    0.9800    1.5220 C   0  0  2  0  0  0  0  0  0  0  0  0
    0.3120    1.9870    0.9050 C   0  0  0  0  0  0  0  0  0  0  0  0
    0.9210    1.4690   -0.3880 C   0  0  1  0  0  0  0  0  0  0  0  0
    1.8850    0.4430   -0.0730 N   0  0  0  0  0  0  0  0  0  0  0  0
    3.2920    0.6500   -0.3070 C   0  0  0  0  0  0  0  0  0  0  0  0
    3.6850    1.7240   -0.7880 O   0  0  0  0  0  0  0  0  0  0  0  0
    4.2260   -0.4140    0.0260 C   0  0  0  0  0  0  0  0  0  0  0  0
    3.9330   -1.6620    0.5670 C   0  0  0  0  0  0  0  0  0  0  0  0
    5.1100   -2.3440    0.7190 C   0  0  0  0  0  0  0  0  0  0  0  0
    6.0940   -1.4870    0.2650 C   0  0  0  0  0  0  0  0  0  0  0  0
    5.5300   -0.3800   -0.1260 O   0  0  0  0  0  0  0  0  0  0  0  0
   -0.1290    0.9090   -1.2400 C   0  0  0  0  0  0  0  0  0  0  0  0
   -0.0140    0.8850   -2.5730 C   0  0  0  0  0  0  0  0  0  0  0  0
   -1.0500    0.3840   -3.3880 N   0  0  0  0  0  0  0  0  0  0  0  0
   -2.4730    0.4770   -2.9190 C   0  0  2  0  0  0  0  0  0  0  0  0
   -2.8080    1.7800   -2.8100 F   0  0  0  0  0  0  0  0  0  0  0  0
  1  2  1  0
  2  3  2  3
  3  4  1  0
  3 24  1  0
  4  5  2  0
  4 21  1  0
  5  6  1  0
  5 10  1  0
  6  7  2  0
  7  8  1  0
  8  9  2  0
  9 10  1  0
 10 11  1  6
 11 12  1  0
 12 13  1  1
 12 21  1  0
 13 14  1  0
 14 15  2  0
 14 16  1  0
 16 17  2  0
 16 20  1  0
 17 18  1  0
 18 19  2  0
 19 20  1  0
 21 22  2  0
 22 23  1  0
 23 24  1  0
 24 25  1  1
M  END
