
     RDKit          3D

 25 28  0  0  0  0  0  0  0  0999 V2000
   -1.0770   -2.2270   -1.5280 C   0  0  0  0  0  0  0  0  0  0  0  0
   -0.7650   -0.7800   -1.5130 C   0  0  1  0  0  0  0  0  0  0  0  0
   -1.9850   -0.0060   -2.0260 C   0  0  0  0  0  0  0  0  0  0  0  0
   -2.9670    0.1310   -1.0090 N   0  0  0  0  0  0  0  0  0  0  0  0
   -4.3070    0.6720   -0.9850 C   0  0  0  0  0  0  0  0  0  0  0  0
   -4.8090    1.4270   -1.8530 O   0  0  0  0  0  0  0  0  0  0  0  0
   -5.0240    0.1880    0.2590 C   0  0  0  0  0  0  0  0  0  0  0  0
   -3.8230    0.0770    1.1870 C   0  0  0  0  0  0  0  0  0  0  0  0
   -3.6300    0.0980    2.4830 C   0  0  0  0  0  0  0  0  0  0  0  0
   -2.3020   -0.0140    3.0350 C   0  0  0  0  0  0  0  0  0  0  0  0
   -2.1000   -0.0100    4.2640 O   0  0  0  0  0  0  0  0  0  0  0  0
   -1.1600   -0.1370    2.0980 C   0  0  0  0  0  0  0  0  0  0  0  0
    0.1400   -0.3110    2.6460 N   0  0  0  0  0  0  0  0  0  0  0  0
   -1.3690   -0.1520    0.8130 C   0  0  0  0  0  0  0  0  0  0  0  0
   -0.2820   -0.2340   -0.2190 C   0  0  0  0  0  0  0  0  0  0  0  0
    0.9240    0.1560    0.0870 C   0  0  0  0  0  0  0  0  0  0  0  0
    2.0270    0.0950   -0.8530 C   0  0  0  0  0  0  0  0  0  0  0  0
    3.2520    0.4800   -0.5800 C   0  0  0  0  0  0  0  0  0  0  0  0
    3.5800    1.0050    0.7210 C   0  0  0  0  0  0  0  0  0  0  0  0
    4.8050    1.4260    1.0840 C   0  0  0  0  0  0  0  0  0  0  0  0
    5.8370    1.3270    0.0690 C   0  0  0  0  0  0  0  0  0  0  0  0
    5.6180    0.8610   -1.1350 C   0  0  0  0  0  0  0  0  0  0  0  0
    6.7130    0.8390   -1.9720 F   0  0  0  0  0  0  0  0  0  0  0  0
    4.3210    0.3810   -1.6140 C   0  0  0  0  0  0  0  0  0  0  0  0
   -2.7290   -0.3360    0.3060 C   0  0  2  0  0  0  0  0  0  0  0  0
  2  1  1  1
  2  3  1  0
  2 15  1  0
  3  4  1  0
  4  5  1  0
 25  4  1  6
  5  6  2  0
  5  7  1  0
  7  8  1  0
  8  9  2  0
  8 25  1  0
  9 10  1  0
 10 11  2  0
 10 12  1  0
 12 13  1  0
 12 14  2  0
 14 15  1  0
 14 25  1  0
 15 16  2  3
 16 17  1  0
 17 18  2  3
 18 19  1  0
 18 24  1  0
 19 20  2  0
 20 21  1  0
 21 22  2  0
 22 23  1  0
 22 24  1  0
M  END
