
     RDKit          3D

 34 36  0  0  0  0  0  0  0  0999 V2000
   -4.0150   -2.9320    1.9600 C   0  0  0  0  0  0  0  0  0  0  0  0
   -3.1180   -2.5670    0.7820 C   0  0  1  0  0  0  0  0  0  0  0  0
   -3.4320   -3.4580   -0.3570 C   0  0  0  0  0  0  0  0  0  0  0  0
   -3.0840   -2.9180   -1.7020 C   0  0  1  0  0  0  0  0  0  0  0  0
   -4.2510   -2.3110   -2.4280 C   0  0  0  0  0  0  0  0  0  0  0  0
   -1.9650   -1.9260   -1.4920 C   0  0  0  0  0  0  0  0  0  0  0  0
   -2.5330   -0.7600   -0.7150 C   0  0  2  0  0  0  0  0  0  0  0  0
   -1.3830    0.1320   -0.3820 C   0  0  0  0  0  0  0  0  0  0  0  0
   -0.0560   -0.1540   -0.5310 N   0  0  0  0  0  0  0  0  0  0  0  0
    0.6970    0.8770   -0.1130 C   0  0  0  0  0  0  0  0  0  0  0  0
    2.1840    0.9230   -0.1270 C   0  0  0  0  0  0  0  0  0  0  0  0
    2.8340   -0.1280   -0.5910 C   0  0  0  0  0  0  0  0  0  0  0  0
    4.2830   -0.2220   -0.6640 C   0  0  2  0  0  0  0  0  0  0  0  0
    4.7750   -1.3990    0.0680 N   0  0  0  0  0  0  0  0  0  0  0  0
    6.1700   -1.5970    0.0650 C   0  0  0  0  0  0  0  0  0  0  0  0
    6.7750   -2.3180   -0.9820 N   0  0  0  0  0  0  0  0  0  0  0  0
    6.9100   -1.1140    1.0330 C   0  0  0  0  0  0  0  0  0  0  0  0
    8.3920   -1.3060    1.0590 C   0  0  0  0  0  0  0  0  0  0  0  0
    8.8020   -1.9850    2.1880 F   0  0  0  0  0  0  0  0  0  0  0  0
    4.9030    0.9310   -0.1810 O   0  0  0  0  0  0  0  0  0  0  0  0
    4.2370    2.0200    0.2990 C   0  0  0  0  0  0  0  0  0  0  0  0
    4.9410    3.1350    0.7610 O   0  0  0  0  0  0  0  0  0  0  0  0
    2.9120    2.0810    0.3530 C   0  0  0  0  0  0  0  0  0  0  0  0
    2.2700    3.1870    0.8390 O   0  0  0  0  0  0  0  0  0  0  0  0
   -0.1210    1.8560    0.3150 N   0  0  0  0  0  0  0  0  0  0  0  0
   -1.4030    1.4060    0.1530 C   0  0  0  0  0  0  0  0  0  0  0  0
   -2.5740    2.1950    0.4910 C   0  0  0  0  0  0  0  0  0  0  0  0
   -3.7160    1.7420    0.2660 O   0  0  0  0  0  0  0  0  0  0  0  0
   -2.4590    3.4780    1.0740 N   0  0  0  0  0  0  0  0  0  0  0  0
   -3.6460    4.2700    1.4130 C   0  0  0  0  0  0  0  0  0  0  0  0
   -4.4450    4.5300    0.2020 C   0  0  0  0  0  0  0  0  0  0  0  0
   -5.6350    5.2740    0.2860 N   0  0  0  0  0  0  0  0  0  0  0  0
   -4.0660    4.0860   -0.9200 O   0  0  0  0  0  0  0  0  0  0  0  0
   -3.1770   -1.1580    0.4970 N   0  0  0  0  0  0  0  0  0  0  0  0
  2  1  1  1
  2  3  1  0
  2 34  1  0
  3  4  1  0
  4  5  1  1
  4  6  1  0
  6  7  1  0
  7  8  1  1
  7 34  1  0
  8  9  1  0
  8 26  2  0
  9 10  2  0
 10 11  1  0
 10 25  1  0
 11 12  2  0
 11 23  1  0
 12 13  1  0
 13 14  1  1
 13 20  1  0
 14 15  1  0
 15 16  1  0
 15 17  2  3
 17 18  1  0
 18 19  1  0
 20 21  1  0
 21 22  1  0
 21 23  2  0
 23 24  1  0
 25 26  1  0
 26 27  1  0
 27 28  2  0
 27 29  1  0
 29 30  1  0
 30 31  1  0
 31 32  1  0
 31 33  2  0
M  CHG  2   9   1  34   1
M  END
