
     RDKit          3D

 35 38  0  0  0  0  0  0  0  0999 V2000
    6.2690    1.0390   -1.6830 C   0  0  0  0  0  0  0  0  0  0  0  0
    6.1590    1.7270   -0.3340 C   0  0  0  0  0  0  0  0  0  0  0  0
    5.7690    0.7230    0.6670 C   0  0  0  0  0  0  0  0  0  0  0  0
    6.7330    0.2390    1.5390 C   0  0  0  0  0  0  0  0  0  0  0  0
    6.3380   -0.6970    2.4610 C   0  0  0  0  0  0  0  0  0  0  0  0
    5.0410   -1.1360    2.5190 C   0  0  0  0  0  0  0  0  0  0  0  0
    4.1300   -0.6230    1.6320 N   0  0  0  0  0  0  0  0  0  0  0  0
    4.4820    0.2830    0.7290 C   0  0  0  0  0  0  0  0  0  0  0  0
    3.5210    0.8160   -0.2010 N   0  0  0  0  0  0  0  0  0  0  0  0
    2.1780    0.3550   -0.1260 C   0  0  0  0  0  0  0  0  0  0  0  0
    1.9710   -0.5200    0.8030 O   0  0  0  0  0  0  0  0  0  0  0  0
    1.0870    0.7630   -0.9580 C   0  0  0  0  0  0  0  0  0  0  0  0
   -0.2430    0.1510   -0.7100 C   0  0  0  0  0  0  0  0  0  0  0  0
   -0.6420   -0.7190    0.1420 C   0  0  0  0  0  0  0  0  0  0  0  0
    0.0070   -1.3810    1.1080 F   0  0  0  0  0  0  0  0  0  0  0  0
   -2.1000   -1.0710    0.0530 C   0  0  0  0  0  0  0  0  0  0  0  0
   -2.9660   -0.5600   -0.8180 N   0  0  0  0  0  0  0  0  0  0  0  0
   -4.1690   -1.0860   -0.6250 N   0  0  0  0  0  0  0  0  0  0  0  0
   -5.3320   -0.7460   -1.4020 C   0  0  0  0  0  0  0  0  0  0  0  0
   -6.0840    0.3930   -0.8150 C   0  0  0  0  0  0  0  0  0  0  0  0
   -5.8530    1.7150   -1.1230 C   0  0  0  0  0  0  0  0  0  0  0  0
   -6.7370    2.4850   -0.3910 C   0  0  0  0  0  0  0  0  0  0  0  0
   -7.4770    1.5780    0.3420 C   0  0  0  0  0  0  0  0  0  0  0  0
   -7.0520    0.3860    0.0530 O   0  0  0  0  0  0  0  0  0  0  0  0
   -4.1370   -1.9620    0.3790 C   0  0  0  0  0  0  0  0  0  0  0  0
   -5.0090   -2.7840    1.0200 C   0  0  0  0  0  0  0  0  0  0  0  0
   -4.6090   -3.5970    2.0760 C   0  0  0  0  0  0  0  0  0  0  0  0
   -3.3180   -3.5840    2.4950 C   0  0  0  0  0  0  0  0  0  0  0  0
   -2.4010   -2.7550    1.8620 C   0  0  0  0  0  0  0  0  0  0  0  0
   -2.8080   -1.9560    0.8190 C   0  0  0  0  0  0  0  0  0  0  0  0
    1.0950    1.6340   -1.9430 C   0  0  0  0  0  0  0  0  0  0  0  0
   -0.2090    1.7650   -2.5350 F   0  0  0  0  0  0  0  0  0  0  0  0
    2.0650    2.4820   -2.5730 C   0  0  1  0  0  0  0  0  0  0  0  0
    2.6740    3.4150   -1.7900 F   0  0  0  0  0  0  0  0  0  0  0  0
    3.2670    1.6700   -3.6010 Cl  0  0  0  0  0  0  0  0  0  0  0  0
  1  2  1  0
  2  3  1  0
  3  4  2  0
  3  8  1  0
  4  5  1  0
  5  6  2  0
  6  7  1  0
  7  8  2  0
  8  9  1  0
  9 10  1  0
 10 11  2  0
 10 12  1  0
 12 13  1  0
 12 31  2  3
 13 14  2  3
 14 15  1  0
 14 16  1  0
 16 17  2  0
 16 30  1  0
 17 18  1  0
 18 19  1  0
 18 25  1  0
 19 20  1  0
 20 21  2  0
 20 24  1  0
 21 22  1  0
 22 23  2  0
 23 24  1  0
 25 26  2  0
 25 30  1  0
 26 27  1  0
 27 28  2  0
 28 29  1  0
 29 30  2  0
 31 32  1  0
 31 33  1  0
 33 34  1  1
 33 35  1  0
M  END
