
     RDKit          3D

 35 38  0  0  0  0  0  0  0  0999 V2000
    0.7340    2.5760   -0.4370 C   0  0  0  0  0  0  0  0  0  0  0  0
    1.0900    1.1240   -0.6630 C   0  0  1  0  0  0  0  0  0  0  0  0
    1.8160    0.7060    0.4780 O   0  0  0  0  0  0  0  0  0  0  0  0
    3.1290    0.2270    0.3690 C   0  0  0  0  0  0  0  0  0  0  0  0
    3.5860    0.1990   -0.7750 O   0  0  0  0  0  0  0  0  0  0  0  0
    3.7890   -0.1750    1.6090 C   0  0  0  0  0  0  0  0  0  0  0  0
    3.1030   -0.3620    2.8270 C   0  0  0  0  0  0  0  0  0  0  0  0
    3.9750   -0.8580    3.6770 N   0  0  0  0  0  0  0  0  0  0  0  0
    5.1370   -1.0030    3.1280 N   0  0  0  0  0  0  0  0  0  0  0  0
    5.0760   -0.5830    1.8220 C   0  0  0  0  0  0  0  0  0  0  0  0
    6.2140   -0.6660    0.9070 C   0  0  0  0  0  0  0  0  0  0  0  0
    7.0730   -1.7660    1.0360 C   0  0  0  0  0  0  0  0  0  0  0  0
    6.7420   -2.7390    1.9280 F   0  0  0  0  0  0  0  0  0  0  0  0
    8.2200   -1.8850    0.2860 C   0  0  0  0  0  0  0  0  0  0  0  0
    8.5850   -0.9260   -0.6330 C   0  0  0  0  0  0  0  0  0  0  0  0
    7.7570    0.1560   -0.7700 C   0  0  0  0  0  0  0  0  0  0  0  0
    6.5870    0.2750   -0.0010 C   0  0  0  0  0  0  0  0  0  0  0  0
    5.9080    1.4350   -0.1630 F   0  0  0  0  0  0  0  0  0  0  0  0
   -0.1700    0.3490   -0.8150 C   0  0  0  0  0  0  0  0  0  0  0  0
   -0.1540   -1.0160   -0.6520 C   0  0  0  0  0  0  0  0  0  0  0  0
   -1.3340   -1.6970   -0.8010 C   0  0  0  0  0  0  0  0  0  0  0  0
   -2.4850   -1.0180   -1.1040 C   0  0  0  0  0  0  0  0  0  0  0  0
   -2.4800    0.3520   -1.2640 C   0  0  0  0  0  0  0  0  0  0  0  0
   -3.6670    1.0600   -1.5760 N   0  0  0  0  0  0  0  0  0  0  0  0
   -4.0870    1.1220   -2.9490 C   0  0  0  0  0  0  0  0  0  0  0  0
   -4.4070    1.7130   -0.5260 C   0  0  2  0  0  0  0  0  0  0  0  0
   -3.8340    1.5090    0.8470 C   0  0  0  0  0  0  0  0  0  0  0  0
   -4.4760    0.2680    1.3590 C   0  0  0  0  0  0  0  0  0  0  0  0
   -5.5830   -0.0680    0.4250 C   0  0  0  0  0  0  0  0  0  0  0  0
   -6.2530   -1.1760    0.2890 C   0  0  0  0  0  0  0  0  0  0  0  0
   -7.5380   -1.2900   -0.9300 Cl  0  0  0  0  0  0  0  0  0  0  0  0
   -6.0350   -2.3810    1.1060 C   0  0  0  0  0  0  0  0  0  0  0  0
   -5.0680   -2.2810    2.0560 F   0  0  0  0  0  0  0  0  0  0  0  0
   -5.8160    1.1940   -0.3780 C   0  0  0  0  0  0  0  0  0  0  0  0
   -1.2970    1.0000   -1.1110 N   0  0  0  0  0  0  0  0  0  0  0  0
  2  1  1  1
  2  3  1  0
  2 19  1  0
  3  4  1  0
  4  5  2  0
  4  6  1  0
  6  7  1  0
  6 10  2  0
  7  8  2  0
  8  9  1  0
  9 10  1  0
 10 11  1  0
 11 12  2  0
 11 17  1  0
 12 13  1  0
 12 14  1  0
 14 15  2  0
 15 16  1  0
 16 17  2  0
 17 18  1  0
 19 20  2  0
 19 35  1  0
 20 21  1  0
 21 22  2  0
 22 23  1  0
 23 24  1  0
 23 35  2  0
 24 25  1  0
 26 24  1  6
 26 27  1  0
 26 34  1  0
 27 28  1  0
 28 29  1  0
 29 30  2  3
 29 34  1  0
 30 31  1  0
 30 32  1  0
 32 33  1  0
M  END
