
     RDKit          3D

 35 38  0  0  0  0  0  0  0  0999 V2000
   -2.4010   -6.5460   -0.4640 C   0  0  0  0  0  0  0  0  0  0  0  0
   -2.3160   -5.1910   -1.1330 C   0  0  0  0  0  0  0  0  0  0  0  0
   -2.6500   -4.1090   -0.1520 C   0  0  0  0  0  0  0  0  0  0  0  0
   -3.8670   -3.8970    0.1100 O   0  0  0  0  0  0  0  0  0  0  0  0
   -1.6310   -3.3390    0.4670 N   0  0  0  0  0  0  0  0  0  0  0  0
   -0.2970   -3.7010    0.0660 C   0  0  0  0  0  0  0  0  0  0  0  0
    0.7830   -3.1350    0.9520 C   0  0  0  0  0  0  0  0  0  0  0  0
    0.8470   -1.7380    0.9210 O   0  0  0  0  0  0  0  0  0  0  0  0
   -0.1300   -0.7910    0.8120 C   0  0  0  0  0  0  0  0  0  0  0  0
   -1.4900   -1.0430    1.0190 C   0  0  0  0  0  0  0  0  0  0  0  0
   -2.3940   -0.0450    0.8900 C   0  0  0  0  0  0  0  0  0  0  0  0
   -1.9570    1.2030    0.5570 C   0  0  0  0  0  0  0  0  0  0  0  0
   -2.9020    2.3120    0.4070 C   0  0  0  0  0  0  0  0  0  0  0  0
   -4.1690    2.0920   -0.0410 C   0  0  0  0  0  0  0  0  0  0  0  0
   -5.0560    3.1350   -0.1810 C   0  0  0  0  0  0  0  0  0  0  0  0
   -6.3490    2.9210   -0.6360 O   0  0  0  0  0  0  0  0  0  0  0  0
   -7.2410    4.0260   -0.7690 C   0  0  0  0  0  0  0  0  0  0  0  0
   -4.6060    4.3940    0.1490 C   0  0  0  0  0  0  0  0  0  0  0  0
   -3.3300    4.6490    0.6040 C   0  0  0  0  0  0  0  0  0  0  0  0
   -2.9340    5.9420    0.9220 O   0  0  0  0  0  0  0  0  0  0  0  0
   -3.8600    7.0020    0.7720 C   0  0  0  0  0  0  0  0  0  0  0  0
   -2.4760    3.5780    0.7300 C   0  0  0  0  0  0  0  0  0  0  0  0
   -0.6160    1.4380    0.3550 C   0  0  0  0  0  0  0  0  0  0  0  0
    0.3570    0.4380    0.4770 C   0  0  0  0  0  0  0  0  0  0  0  0
    1.7230    0.7640    0.2540 C   0  0  0  0  0  0  0  0  0  0  0  0
    1.9990    1.9880   -0.0580 O   0  0  0  0  0  0  0  0  0  0  0  0
    2.8370   -0.0660    0.3230 N   0  0  0  0  0  0  0  0  0  0  0  0
    4.2020    0.3850    0.0720 C   0  0  1  0  0  0  0  0  0  0  0  0
    5.0100    0.0410    1.3060 C   0  0  0  0  0  0  0  0  0  0  0  0
    6.0060   -1.0800    1.0030 C   0  0  0  0  0  0  0  0  0  0  0  0
    6.9320   -0.7500   -0.1250 C   0  0  0  0  0  0  0  0  0  0  0  0
    6.2430    0.0590   -1.0830 N   0  0  1  0  0  0  0  0  0  0  0  0
    6.8380    0.0320   -2.4000 C   0  0  0  0  0  0  0  0  0  0  0  0
    4.8450   -0.3300   -1.0930 C   0  0  0  0  0  0  0  0  0  0  0  0
   -2.1330   -2.3340    1.3850 C   0  0  0  0  0  0  0  0  0  0  0  0
  1  2  1  0
  2  3  1  0
  3  4  2  0
  3  5  1  0
  5  6  1  0
  5 35  1  0
  6  7  1  0
  7  8  1  0
  8  9  1  0
  9 10  2  0
  9 24  1  0
 10 11  1  0
 10 35  1  0
 11 12  2  0
 12 13  1  0
 12 23  1  0
 13 14  2  0
 13 22  1  0
 14 15  1  0
 15 16  1  0
 15 18  2  0
 16 17  1  0
 18 19  1  0
 19 20  1  0
 19 22  2  0
 20 21  1  0
 23 24  2  0
 24 25  1  0
 25 26  2  0
 25 27  1  0
 28 27  1  1
 28 29  1  0
 28 34  1  0
 29 30  1  0
 30 31  1  0
 31 32  1  0
 32 33  1  6
 32 34  1  0
M  CHG  1  32   1
M  END
