
     RDKit          3D

 34 36  0  0  0  0  0  0  0  0999 V2000
   -4.1020   -4.3190   -0.0790 C   0  0  0  0  0  0  0  0  0  0  0  0
   -3.2670   -3.0980    0.1520 C   0  0  0  0  0  0  0  0  0  0  0  0
   -3.8960   -1.9550    0.6020 C   0  0  0  0  0  0  0  0  0  0  0  0
   -3.1060   -0.8360    0.8100 C   0  0  0  0  0  0  0  0  0  0  0  0
   -3.8130    0.3870    1.2980 C   0  0  0  0  0  0  0  0  0  0  0  0
   -4.2870    1.1960    0.1640 N   0  0  0  0  0  0  0  0  0  0  0  0
   -5.6230    0.8510   -0.2100 C   0  0  0  0  0  0  0  0  0  0  0  0
   -6.4250    2.0050   -0.7250 C   0  0  2  0  0  0  0  0  0  0  0  0
   -5.8610    2.5860   -1.8590 O   0  0  0  0  0  0  0  0  0  0  0  0
   -6.6540    3.0300    0.3410 C   0  0  0  0  0  0  0  0  0  0  0  0
   -6.1510    2.7890    1.5030 N   0  0  0  0  0  0  0  0  0  0  0  0
   -7.3960    4.2180    0.0740 N   0  0  0  0  0  0  0  0  0  0  0  0
   -1.7810   -0.8630    0.5820 N   0  0  0  0  0  0  0  0  0  0  0  0
   -1.1730   -1.9930    0.1390 C   0  0  0  0  0  0  0  0  0  0  0  0
    0.2900   -2.0490   -0.1200 C   0  0  1  0  0  0  0  0  0  0  0  0
    0.7050   -0.9420   -0.8030 O   0  0  0  0  0  0  0  0  0  0  0  0
    2.0920   -0.8410   -0.9120 C   0  0  1  0  0  0  0  0  0  0  0  0
    2.6090    0.2550   -0.0720 C   0  0  0  0  0  0  0  0  0  0  0  0
    1.8010    0.8620    0.6750 O   0  0  0  0  0  0  0  0  0  0  0  0
    3.9560    0.6540   -0.0650 N   0  0  0  0  0  0  0  0  0  0  0  0
    5.0260    0.0730   -0.8760 C   0  0  0  0  0  0  0  0  0  0  0  0
    5.9170    1.2840   -1.1580 C   0  0  0  0  0  0  0  0  0  0  0  0
    5.8470    2.1210    0.0750 C   0  0  1  0  0  0  0  0  0  0  0  0
    6.9580    1.8280    0.8670 O   0  0  0  0  0  0  0  0  0  0  0  0
    5.8740    3.6080   -0.2610 C   0  0  0  0  0  0  0  0  0  0  0  0
    7.1320    3.9870   -0.9880 C   0  0  0  0  0  0  0  0  0  0  0  0
    7.2950    3.3270   -2.1670 F   0  0  0  0  0  0  0  0  0  0  0  0
    4.5670    1.7290    0.7370 C   0  0  0  0  0  0  0  0  0  0  0  0
    2.7400   -2.1380   -0.4120 C   0  0  0  0  0  0  0  0  0  0  0  0
    2.4100   -2.2520    0.9170 O   0  0  0  0  0  0  0  0  0  0  0  0
    1.0620   -2.2250    1.1670 C   0  0  2  0  0  0  0  0  0  0  0  0
    0.6990   -3.5170    1.8640 C   0  0  0  0  0  0  0  0  0  0  0  0
    0.9930   -4.6850    1.0880 N   0  0  0  0  0  0  0  0  0  0  0  0
   -1.9490   -3.0720   -0.0590 N   0  0  0  0  0  0  0  0  0  0  0  0
  1  2  1  0
  2  3  2  0
  2 34  1  0
  3  4  1  0
  4  5  1  0
  4 13  2  0
  5  6  1  0
  6  7  1  0
  7  8  1  0
  8  9  1  6
  8 10  1  0
 10 11  2  0
 10 12  1  0
 13 14  1  0
 15 14  1  1
 14 34  2  0
 15 16  1  0
 15 31  1  0
 16 17  1  0
 17 18  1  1
 17 29  1  0
 18 19  2  0
 18 20  1  0
 20 21  1  0
 20 28  1  0
 21 22  1  0
 22 23  1  0
 23 24  1  1
 23 25  1  0
 23 28  1  0
 25 26  1  0
 26 27  1  0
 29 30  1  0
 30 31  1  0
 31 32  1  6
 32 33  1  0
M  CHG  2   6   1  33   1
M  END
