
     RDKit          3D

 33 35  0  0  0  0  0  0  0  0999 V2000
   -7.4640    0.7910    0.1900 C   0  0  0  0  0  0  0  0  0  0  0  0
   -6.2750    0.2760    0.3340 C   0  0  0  0  0  0  0  0  0  0  0  0
   -6.0970   -1.0720    0.8140 N   0  0  0  0  0  0  0  0  0  0  0  0
   -4.9700   -1.8810    0.5170 C   0  0  1  0  0  0  0  0  0  0  0  0
   -5.1780   -2.7260   -0.5740 O   0  0  0  0  0  0  0  0  0  0  0  0
   -4.5420   -2.1090   -1.6480 C   0  0  0  0  0  0  0  0  0  0  0  0
   -3.2240   -1.6830   -1.0380 C   0  0  0  0  0  0  0  0  0  0  0  0
   -3.6950   -1.1550    0.3200 C   0  0  1  0  0  0  0  0  0  0  0  0
   -3.8190    0.3350    0.2540 C   0  0  0  0  0  0  0  0  0  0  0  0
   -2.7510    1.0150    0.3940 N   0  0  0  0  0  0  0  0  0  0  0  0
   -1.4430    0.4940    0.6110 C   0  0  0  0  0  0  0  0  0  0  0  0
   -1.0870   -0.0500    1.7840 N   0  0  0  0  0  0  0  0  0  0  0  0
    0.1610   -0.5330    1.9560 C   0  0  0  0  0  0  0  0  0  0  0  0
    0.4680   -1.0420    3.0710 O   0  0  0  0  0  0  0  0  0  0  0  0
    1.1240   -0.4950    0.9590 C   0  0  0  0  0  0  0  0  0  0  0  0
    0.7940    0.0580   -0.2540 C   0  0  0  0  0  0  0  0  0  0  0  0
    1.7190    0.1170   -1.3640 C   0  0  0  0  0  0  0  0  0  0  0  0
    1.2620    0.5740   -2.4710 O   0  0  0  0  0  0  0  0  0  0  0  0
    3.1250   -0.3010   -1.3250 C   0  0  0  0  0  0  0  0  0  0  0  0
    3.8130    0.4310   -0.2990 N   0  0  0  0  0  0  0  0  0  0  0  0
    4.8780   -0.3860    0.3410 C   0  0  1  0  0  0  0  0  0  0  0  0
    5.8340   -0.8140   -0.7120 C   0  0  0  0  0  0  0  0  0  0  0  0
    6.9610   -1.6400   -0.2480 C   0  0  2  0  0  0  0  0  0  0  0  0
    7.9040   -0.9980    0.7170 C   0  0  0  0  0  0  0  0  0  0  0  0
    7.7020   -2.0500   -1.3840 O   0  0  0  0  0  0  0  0  0  0  0  0
    5.4140    0.4820    1.3880 C   0  0  0  0  0  0  0  0  0  0  0  0
    5.4970    1.8810    1.1680 N   0  0  0  0  0  0  0  0  0  0  0  0
    5.8020    0.0050    2.4760 O   0  0  0  0  0  0  0  0  0  0  0  0
   -0.5130    0.5500   -0.3990 C   0  0  0  0  0  0  0  0  0  0  0  0
   -0.8780    1.1480   -1.6430 N   0  0  0  0  0  0  0  0  0  0  0  0
   -5.0590    0.9990    0.0460 N   0  0  0  0  0  0  0  0  0  0  0  0
   -5.1690    2.3790   -0.3920 C   0  0  0  0  0  0  0  0  0  0  0  0
   -4.8490    3.3950    0.6590 C   0  0  0  0  0  0  0  0  0  0  0  0
  1  2  2  0
  2  3  1  0
  2 31  1  0
  4  3  1  6
  4  5  1  0
  4  8  1  0
  5  6  1  0
  6  7  1  0
  8  7  1  6
  8  9  1  0
  9 10  2  3
  9 31  1  0
 10 11  1  0
 11 12  1  0
 11 29  2  0
 12 13  1  0
 13 14  2  0
 13 15  1  0
 15 16  2  0
 16 17  1  0
 16 29  1  0
 17 18  2  0
 17 19  1  0
 19 20  1  0
 20 21  1  0
 21 22  1  6
 21 26  1  0
 22 23  1  0
 23 24  1  1
 23 25  1  0
 26 27  1  0
 26 28  2  0
 29 30  1  0
 31 32  1  0
 32 33  1  0
M  CHG  2  10   1  20   1
M  END
