
     RDKit          3D

 34 36  0  0  0  0  0  0  0  0999 V2000
   -2.2480    1.3680   -2.7870 C   0  0  0  0  0  0  0  0  0  0  0  0
   -3.0090    0.0670   -2.7720 C   0  0  0  0  0  0  0  0  0  0  0  0
   -2.8770   -0.6960   -1.4930 C   0  0  0  0  0  0  0  0  0  0  0  0
   -3.3970    0.1280   -0.3730 N   0  0  1  0  0  0  0  0  0  0  0  0
   -4.8090   -0.0510   -0.2730 C   0  0  0  0  0  0  0  0  0  0  0  0
   -5.5710    0.8310    0.6340 C   0  0  0  0  0  0  0  0  0  0  0  0
   -5.6230    2.2820    0.3950 C   0  0  0  0  0  0  0  0  0  0  0  0
   -4.4290    3.0420    0.4470 N   0  0  0  0  0  0  0  0  0  0  0  0
   -2.7160   -0.2880    0.8520 C   0  0  0  0  0  0  0  0  0  0  0  0
   -1.2520   -0.1480    0.7270 C   0  0  0  0  0  0  0  0  0  0  0  0
   -0.3760   -1.1520    0.8160 C   0  0  0  0  0  0  0  0  0  0  0  0
   -0.8520   -2.4850    1.0480 C   0  0  0  0  0  0  0  0  0  0  0  0
   -0.1350   -3.5780    1.1660 C   0  0  0  0  0  0  0  0  0  0  0  0
   -0.7320   -4.8850    1.4010 N   0  0  0  0  0  0  0  0  0  0  0  0
    0.3210   -5.8180    1.4750 C   0  0  0  0  0  0  0  0  0  0  0  0
    0.1280   -7.0470    1.6730 O   0  0  0  0  0  0  0  0  0  0  0  0
    1.5510   -5.1920    1.3030 N   0  0  0  0  0  0  0  0  0  0  0  0
    1.2740   -3.7990    1.1100 C   0  0  0  0  0  0  0  0  0  0  0  0
    2.1840   -2.9640    0.9260 O   0  0  0  0  0  0  0  0  0  0  0  0
    0.9620   -0.8570    0.6790 O   0  0  0  0  0  0  0  0  0  0  0  0
    1.4960    0.3830    0.4570 C   0  0  0  0  0  0  0  0  0  0  0  0
    2.7520    0.6350    0.3320 C   0  0  0  0  0  0  0  0  0  0  0  0
    3.9030   -0.2850    0.3890 C   0  0  2  0  0  0  0  0  0  0  0  0
    4.0530   -0.6950    1.7270 O   0  0  0  0  0  0  0  0  0  0  0  0
    5.1360    0.4080    0.0110 N   0  0  0  0  0  0  0  0  0  0  0  0
    5.6010    1.6040    0.6580 C   0  0  0  0  0  0  0  0  0  0  0  0
    7.0170    1.8120    0.1190 C   0  0  2  0  0  0  0  0  0  0  0  0
    7.1690    3.1930   -0.3270 N   0  0  0  0  0  0  0  0  0  0  0  0
    7.1280    0.9290   -1.0160 N   0  0  0  0  0  0  0  0  0  0  0  0
    6.0170    0.0180   -1.0070 C   0  0  0  0  0  0  0  0  0  0  0  0
    5.8510   -0.9650   -1.7750 O   0  0  0  0  0  0  0  0  0  0  0  0
    0.5100    1.4860    0.3610 C   0  0  0  0  0  0  0  0  0  0  0  0
    0.9550    2.7600    0.1400 F   0  0  0  0  0  0  0  0  0  0  0  0
   -0.7570    1.2220    0.4890 C   0  0  0  0  0  0  0  0  0  0  0  0
  1  2  1  0
  2  3  1  0
  4  3  1  6
  4  5  1  0
  4  9  1  0
  5  6  1  0
  6  7  1  0
  7  8  1  0
  9 10  1  0
 10 11  2  0
 10 34  1  0
 11 12  1  0
 11 20  1  0
 12 13  2  3
 13 14  1  0
 13 18  1  0
 14 15  1  0
 15 16  2  0
 15 17  1  0
 17 18  1  0
 18 19  2  0
 20 21  1  0
 21 22  2  3
 21 32  1  0
 22 23  1  0
 23 24  1  1
 23 25  1  0
 25 26  1  0
 25 30  1  0
 26 27  1  0
 27 28  1  6
 27 29  1  0
 29 30  1  0
 30 31  2  0
 32 33  1  0
 32 34  2  0
M  CHG  2   4   1   8   1
M  END
