
     RDKit          3D

 35 38  0  0  0  0  0  0  0  0999 V2000
    5.3980    0.4060   -4.0630 C   0  0  0  0  0  0  0  0  0  0  0  0
    6.4080    0.4050   -2.9720 C   0  0  0  0  0  0  0  0  0  0  0  0
    6.1440   -0.5020   -1.8220 C   0  0  1  0  0  0  0  0  0  0  0  0
    4.8880   -0.2360   -1.1060 C   0  0  0  0  0  0  0  0  0  0  0  0
    3.6550   -0.5040   -1.6440 C   0  0  0  0  0  0  0  0  0  0  0  0
    2.4810   -0.2320   -0.9340 C   0  0  0  0  0  0  0  0  0  0  0  0
    2.5320    0.3190    0.3370 C   0  0  0  0  0  0  0  0  0  0  0  0
    1.2700    0.6020    1.0630 C   0  0  0  0  0  0  0  0  0  0  0  0
    0.0400    0.3780    0.5480 N   0  0  0  0  0  0  0  0  0  0  0  0
   -0.9030    0.7280    1.4350 C   0  0  0  0  0  0  0  0  0  0  0  0
   -2.3560    0.6540    1.2970 C   0  0  0  0  0  0  0  0  0  0  0  0
   -3.1100    1.0330    2.2620 N   0  0  0  0  0  0  0  0  0  0  0  0
   -4.4990    0.9880    2.1950 N   0  0  0  0  0  0  0  0  0  0  0  0
   -5.1170   -0.1670    1.6500 C   0  0  0  0  0  0  0  0  0  0  0  0
   -4.4150   -1.1490    1.2280 O   0  0  0  0  0  0  0  0  0  0  0  0
   -6.6030   -0.1680    1.6000 C   0  0  0  0  0  0  0  0  0  0  0  0
   -7.0330   -1.3320    0.9610 O   0  0  0  0  0  0  0  0  0  0  0  0
   -6.7250   -1.6160   -0.3470 C   0  0  0  0  0  0  0  0  0  0  0  0
   -7.1610   -2.8030   -0.9380 C   0  0  0  0  0  0  0  0  0  0  0  0
   -6.8720   -3.1140   -2.2400 C   0  0  0  0  0  0  0  0  0  0  0  0
   -6.1310   -2.2390   -3.0010 C   0  0  0  0  0  0  0  0  0  0  0  0
   -5.7860   -2.6820   -4.6700 Cl  0  0  0  0  0  0  0  0  0  0  0  0
   -5.6870   -1.0670   -2.4620 C   0  0  0  0  0  0  0  0  0  0  0  0
   -5.9970   -0.7790   -1.1330 C   0  0  0  0  0  0  0  0  0  0  0  0
   -0.2180    1.1930    2.5580 C   0  0  0  0  0  0  0  0  0  0  0  0
    1.0970    1.1010    2.2970 N   0  0  0  0  0  0  0  0  0  0  0  0
    1.8710    1.5680    3.4370 C   0  0  0  0  0  0  0  0  0  0  0  0
    0.8610    1.8210    4.5310 C   0  0  0  0  0  0  0  0  0  0  0  0
   -0.4870    1.7410    3.9050 C   0  0  0  0  0  0  0  0  0  0  0  0
    3.7640    0.5860    0.8720 C   0  0  0  0  0  0  0  0  0  0  0  0
    4.9070    0.3080    0.1520 C   0  0  0  0  0  0  0  0  0  0  0  0
    6.2360   -1.9730   -2.1370 C   0  0  2  0  0  0  0  0  0  0  0  0
    5.3410   -2.3630   -3.1030 F   0  0  0  0  0  0  0  0  0  0  0  0
    5.9870   -2.7060   -0.9930 F   0  0  0  0  0  0  0  0  0  0  0  0
    7.5010   -2.3430   -2.5650 F   0  0  0  0  0  0  0  0  0  0  0  0
  1  2  1  0
  3  2  1  6
  3  4  1  0
  3 32  1  0
  4  5  2  0
  4 31  1  0
  5  6  1  0
  6  7  2  0
  7  8  1  0
  7 30  1  0
  8  9  2  0
  8 26  1  0
  9 10  1  0
 10 11  1  0
 10 25  2  0
 11 12  2  3
 12 13  1  0
 13 14  1  0
 14 15  2  0
 14 16  1  0
 16 17  1  0
 17 18  1  0
 18 19  2  0
 18 24  1  0
 19 20  1  0
 20 21  2  0
 21 22  1  0
 21 23  1  0
 23 24  2  0
 25 26  1  0
 25 29  1  0
 26 27  1  0
 27 28  1  0
 28 29  1  0
 30 31  2  0
 32 33  1  6
 32 34  1  0
 32 35  1  0
M  END
