
     RDKit          3D

 25 27  0  0  0  0  0  0  0  0999 V2000
    5.0970    1.4880    1.7010 N   0  0  0  0  0  0  0  0  0  0  0  0
    4.4170    0.8230    0.6670 C   0  0  0  0  0  0  0  0  0  0  0  0
    4.8030    1.0610   -0.6440 C   0  0  0  0  0  0  0  0  0  0  0  0
    4.1190    0.3960   -1.6290 C   0  0  0  0  0  0  0  0  0  0  0  0
    4.5780    0.6710   -3.2910 Cl  0  0  0  0  0  0  0  0  0  0  0  0
    3.0980   -0.4680   -1.3400 C   0  0  0  0  0  0  0  0  0  0  0  0
    2.7030   -0.7150   -0.0430 C   0  0  0  0  0  0  0  0  0  0  0  0
    1.6720   -1.5840    0.2690 O   0  0  0  0  0  0  0  0  0  0  0  0
    0.3600   -1.2210    0.3800 C   0  0  0  0  0  0  0  0  0  0  0  0
    0.0350   -0.0320    0.1950 O   0  0  0  0  0  0  0  0  0  0  0  0
   -0.7060   -2.1670    0.7120 C   0  0  0  0  0  0  0  0  0  0  0  0
   -0.5260   -3.8810    1.0190 S   0  0  0  0  0  0  0  0  0  0  0  0
   -2.2270   -4.2340    1.3240 C   0  0  0  0  0  0  0  0  0  0  0  0
   -2.8380   -2.9810    1.1660 C   0  0  0  0  0  0  0  0  0  0  0  0
   -4.7830   -2.8830    1.4170 Br  0  0  0  0  0  0  0  0  0  0  0  0
   -2.0460   -1.9530    0.8560 C   0  0  0  0  0  0  0  0  0  0  0  0
   -2.5630   -0.5950    0.6650 N   0  0  0  0  0  0  0  0  0  0  0  0
   -2.9850   -0.1490   -0.6140 C   0  0  0  0  0  0  0  0  0  0  0  0
   -2.9160   -0.9250   -1.5990 O   0  0  0  0  0  0  0  0  0  0  0  0
   -3.5020    1.2440   -0.7410 C   0  0  0  0  0  0  0  0  0  0  0  0
   -3.7260    2.2160   -0.1690 N   0  0  0  0  0  0  0  0  0  0  0  0
   -4.2170    3.3650   -0.5850 C   0  0  0  0  0  0  0  0  0  0  0  0
   -4.5060    3.4090   -1.9050 C   0  0  0  0  0  0  0  0  0  0  0  0
   -4.0480    1.7650   -2.4920 S   0  0  0  0  0  0  0  0  0  0  0  0
    3.3890   -0.0460    0.9680 C   0  0  0  0  0  0  0  0  0  0  0  0
  1  2  1  0
  2  3  2  0
  2 25  1  0
  3  4  1  0
  4  5  1  0
  4  6  2  0
  6  7  1  0
  7  8  1  0
  7 25  2  0
  8  9  1  0
  9 10  2  0
  9 11  1  0
 11 12  1  0
 11 16  2  0
 12 13  1  0
 13 14  2  0
 14 15  1  0
 14 16  1  0
 16 17  1  0
 17 18  1  0
 18 19  2  0
 18 20  1  0
 20 21  2  0
 20 24  1  0
 21 22  1  0
 22 23  2  0
 23 24  1  0
M  END
