
     RDKit          3D

 25 27  0  0  0  0  0  0  0  0999 V2000
   -1.7040    2.0940   -1.5040 C   0  0  0  0  0  0  0  0  0  0  0  0
   -2.3340    1.8900   -0.3840 C   0  0  0  0  0  0  0  0  0  0  0  0
   -2.5270    0.5390    0.1010 C   0  0  0  0  0  0  0  0  0  0  0  0
   -3.7670   -0.0130   -0.2440 C   0  0  0  0  0  0  0  0  0  0  0  0
   -4.0730   -1.2530    0.1150 N   0  0  0  0  0  0  0  0  0  0  0  0
   -3.1790   -1.9610    0.8090 C   0  0  0  0  0  0  0  0  0  0  0  0
   -3.5210   -3.1270    1.1200 O   0  0  0  0  0  0  0  0  0  0  0  0
   -1.9080   -1.4490    1.1840 C   0  0  0  0  0  0  0  0  0  0  0  0
   -1.0130   -2.1930    1.8880 C   0  0  0  0  0  0  0  0  0  0  0  0
   -1.0890   -3.5220    2.3850 N   0  0  0  0  0  0  0  0  0  0  0  0
    0.4040   -1.1270    2.1060 S   0  0  0  0  0  0  0  0  0  0  0  0
   -0.3480    0.2650    1.2080 C   0  0  0  0  0  0  0  0  0  0  0  0
    0.5310    1.7680    1.0130 S   0  0  2  0  0  0  0  0  0  0  0  0
    1.5310    1.8710    2.1840 O   0  0  0  0  0  0  0  0  0  0  0  0
   -0.3590    2.9410    1.2200 O   0  0  0  0  0  0  0  0  0  0  0  0
    1.3610    1.8970   -0.4630 N   0  0  0  0  0  0  0  0  0  0  0  0
    2.3950    1.0650   -0.9260 C   0  0  0  0  0  0  0  0  0  0  0  0
    3.0650    0.2270   -0.0660 C   0  0  0  0  0  0  0  0  0  0  0  0
    4.0900   -0.6000   -0.4840 C   0  0  0  0  0  0  0  0  0  0  0  0
    4.9660   -1.7350    0.7850 Br  0  0  0  0  0  0  0  0  0  0  0  0
    4.4840   -0.6120   -1.8030 C   0  0  0  0  0  0  0  0  0  0  0  0
    3.8280    0.2200   -2.6880 C   0  0  0  0  0  0  0  0  0  0  0  0
    2.7950    1.0470   -2.2460 C   0  0  0  0  0  0  0  0  0  0  0  0
    1.9940    2.0830   -3.3980 Cl  0  0  0  0  0  0  0  0  0  0  0  0
   -1.5740   -0.1880    0.8310 C   0  0  0  0  0  0  0  0  0  0  0  0
  1  2  2  0
  2  3  1  0
  3  4  2  0
  3 25  1  0
  4  5  1  0
  5  6  1  0
  6  7  2  0
  6  8  1  0
  8  9  2  0
  8 25  1  0
  9 10  1  0
  9 11  1  0
 11 12  1  0
 12 13  1  0
 12 25  2  0
 13 14  2  0
 13 15  2  0
 13 16  1  6
 16 17  1  0
 17 18  2  0
 17 23  1  0
 18 19  1  0
 19 20  1  0
 19 21  2  0
 21 22  1  0
 22 23  2  0
 23 24  1  0
M  END
