
     RDKit          3D

 25 27  0  0  0  0  0  0  0  0999 V2000
   -6.2950   -1.6640    0.7370 C   0  0  0  0  0  0  0  0  0  0  0  0
   -4.9270   -1.3300    0.6040 O   0  0  0  0  0  0  0  0  0  0  0  0
   -4.5540   -0.3760   -0.3370 C   0  0  0  0  0  0  0  0  0  0  0  0
   -5.4990    0.2460   -1.1370 C   0  0  0  0  0  0  0  0  0  0  0  0
   -5.1160    1.1880   -2.0640 C   0  0  0  0  0  0  0  0  0  0  0  0
   -3.7810    1.5090   -2.1880 C   0  0  0  0  0  0  0  0  0  0  0  0
   -3.2590    2.7020   -3.3560 Cl  0  0  0  0  0  0  0  0  0  0  0  0
   -2.8660    0.8650   -1.3690 C   0  0  0  0  0  0  0  0  0  0  0  0
   -3.2040   -0.0800   -0.4330 C   0  0  0  0  0  0  0  0  0  0  0  0
   -2.2660   -0.7400    0.4140 N   0  0  0  0  0  0  0  0  0  0  0  0
   -0.8740   -0.5010    0.3440 C   0  0  0  0  0  0  0  0  0  0  0  0
   -0.1980   -0.2950   -0.6780 N   0  0  0  0  0  0  0  0  0  0  0  0
    1.1650   -0.0790   -0.5830 C   0  0  0  0  0  0  0  0  0  0  0  0
    1.8700    0.1420   -1.6300 O   0  0  0  0  0  0  0  0  0  0  0  0
    1.7400   -0.1110    0.7390 C   0  0  0  0  0  0  0  0  0  0  0  0
    2.8930   -0.0280    1.2930 C   0  0  0  0  0  0  0  0  0  0  0  0
    4.1850    0.1450    0.6790 C   0  0  0  0  0  0  0  0  0  0  0  0
    5.3690    0.2630    1.2830 C   0  0  0  0  0  0  0  0  0  0  0  0
    6.5040    0.4290    0.4610 C   0  0  0  0  0  0  0  0  0  0  0  0
    7.8420    0.5710    1.0040 N   0  0  0  0  0  0  0  0  0  0  0  0
    6.3370    0.4550   -0.8280 C   0  0  0  0  0  0  0  0  0  0  0  0
    7.5870    0.6630   -2.2280 Br  0  0  0  0  0  0  0  0  0  0  0  0
    4.6010    0.1630   -1.0570 S   0  0  0  0  0  0  0  0  0  0  0  0
    4.4210   -1.2800   -1.5990 O   0  0  0  0  0  0  0  0  0  0  0  0
    0.2220   -0.4010    1.7420 S   0  0  0  0  0  0  0  0  0  0  0  0
  1  2  1  0
  2  3  1  0
  3  4  2  0
  3  9  1  0
  4  5  1  0
  5  6  2  0
  6  7  1  0
  6  8  1  0
  8  9  2  0
  9 10  1  0
 10 11  1  0
 11 12  2  0
 11 25  1  0
 12 13  1  0
 13 14  2  0
 13 15  1  0
 15 16  2  3
 15 25  1  0
 16 17  1  0
 17 18  2  0
 23 17  1  1
 18 19  1  0
 19 20  1  0
 19 21  2  0
 21 22  1  0
 21 23  1  0
 23 24  2  0
M  END
