
     RDKit          3D

 25 27  0  0  0  0  0  0  0  0999 V2000
   -1.4440   -0.7280   -1.1720 O   0  0  0  0  0  0  0  0  0  0  0  0
   -2.0860    0.0210   -0.3430 C   0  0  0  0  0  0  0  0  0  0  0  0
   -1.3290    0.6880    0.6040 N   0  0  0  0  0  0  0  0  0  0  0  0
    0.1050    0.6510    0.7840 C   0  0  0  0  0  0  0  0  0  0  0  0
    0.9640   -0.0620    0.0350 C   0  0  0  0  0  0  0  0  0  0  0  0
    2.3790   -0.0880    0.2250 C   0  0  0  0  0  0  0  0  0  0  0  0
    3.2900   -1.0890   -0.8740 S   0  0  0  0  0  0  0  0  0  0  0  0
    5.0140   -1.0820   -0.5950 C   0  0  0  0  0  0  0  0  0  0  0  0
    5.8990   -0.7260   -0.0130 N   0  0  0  0  0  0  0  0  0  0  0  0
    7.1920   -0.9440   -0.0800 C   0  0  0  0  0  0  0  0  0  0  0  0
    7.5700   -1.7660   -1.0410 C   0  0  0  0  0  0  0  0  0  0  0  0
    5.9510   -2.2080   -1.8440 S   0  0  0  0  0  0  0  0  0  0  0  0
    2.8550    0.6740    1.2460 C   0  0  0  0  0  0  0  0  0  0  0  0
    4.5650    0.7450    1.6040 Cl  0  0  0  0  0  0  0  0  0  0  0  0
    1.9660    1.4190    2.0310 C   0  0  0  0  0  0  0  0  0  0  0  0
    0.6140    1.4290    1.8310 C   0  0  0  0  0  0  0  0  0  0  0  0
   -0.5000    2.4830    2.9630 Br  0  0  0  0  0  0  0  0  0  0  0  0
   -3.5330    0.0770   -0.5010 C   0  0  0  0  0  0  0  0  0  0  0  0
   -4.1080   -0.6880   -1.5420 C   0  0  0  0  0  0  0  0  0  0  0  0
   -5.4630   -0.6830   -1.7500 C   0  0  0  0  0  0  0  0  0  0  0  0
   -6.0730   -1.4180   -2.7580 O   0  0  0  0  0  0  0  0  0  0  0  0
   -6.2570    0.0550   -0.9580 N   0  0  0  0  0  0  0  0  0  0  0  0
   -5.7880    0.7990    0.0400 C   0  0  0  0  0  0  0  0  0  0  0  0
   -4.4020    0.8000    0.2590 C   0  0  0  0  0  0  0  0  0  0  0  0
   -3.9020    1.5760    1.3020 O   0  0  0  0  0  0  0  0  0  0  0  0
  1  2  2  0
  2  3  1  0
  2 18  1  0
  3  4  1  0
  4  5  2  0
  4 16  1  0
  5  6  1  0
  6  7  1  0
  6 13  2  0
  7  8  1  0
  8  9  2  0
  8 12  1  0
  9 10  1  0
 10 11  2  0
 11 12  1  0
 13 14  1  0
 13 15  1  0
 15 16  2  0
 16 17  1  0
 18 19  2  0
 18 24  1  0
 19 20  1  0
 20 21  1  0
 20 22  2  0
 22 23  1  0
 23 24  2  0
 24 25  1  0
M  END
