
     RDKit          3D

 29 31  0  0  0  0  0  0  0  0999 V2000
    1.2480   -2.2350    0.4430 C   0  0  0  0  0  0  0  0  0  0  0  0
    0.4760   -0.9230    0.2260 C   0  0  1  0  0  0  0  0  0  0  0  0
    0.0820   -0.8290   -1.2210 C   0  0  0  0  0  0  0  0  0  0  0  0
   -0.8670   -1.8030   -1.6520 N   0  0  0  0  0  0  0  0  0  0  0  0
   -0.5310   -0.7970    1.1620 O   0  0  0  0  0  0  0  0  0  0  0  0
   -1.6420   -1.5350    1.4280 C   0  0  0  0  0  0  0  0  0  0  0  0
   -1.5430   -2.6870    2.2320 C   0  0  0  0  0  0  0  0  0  0  0  0
   -0.3230   -3.0140    2.7620 F   0  0  0  0  0  0  0  0  0  0  0  0
   -2.6570   -3.4120    2.4770 C   0  0  0  0  0  0  0  0  0  0  0  0
   -3.9050   -3.1060    1.9940 C   0  0  0  0  0  0  0  0  0  0  0  0
   -3.9900   -1.9740    1.2120 C   0  0  0  0  0  0  0  0  0  0  0  0
   -2.8760   -1.1870    0.9260 C   0  0  0  0  0  0  0  0  0  0  0  0
   -3.0770    0.0490    0.1440 C   0  0  0  0  0  0  0  0  0  0  0  0
   -4.2060    0.2720   -0.6070 C   0  0  0  0  0  0  0  0  0  0  0  0
   -4.3300    1.4610   -1.3360 C   0  0  0  0  0  0  0  0  0  0  0  0
   -3.3700    2.3950   -1.3220 N   0  0  0  0  0  0  0  0  0  0  0  0
   -2.2700    2.1640   -0.5850 C   0  0  0  0  0  0  0  0  0  0  0  0
   -1.2380    3.1670   -0.5700 N   0  0  0  0  0  0  0  0  0  0  0  0
   -2.1550    1.0240    0.1120 N   0  0  0  0  0  0  0  0  0  0  0  0
    1.5000    0.1570    0.5290 C   0  0  0  0  0  0  0  0  0  0  0  0
    1.3020    0.9500    1.4720 O   0  0  0  0  0  0  0  0  0  0  0  0
    2.6730    0.2730   -0.2440 N   0  0  0  0  0  0  0  0  0  0  0  0
    3.7100    1.2220   -0.0830 C   0  0  0  0  0  0  0  0  0  0  0  0
    3.7610    2.2100    0.8640 C   0  0  0  0  0  0  0  0  0  0  0  0
    4.8360    3.1070    0.9450 C   0  0  0  0  0  0  0  0  0  0  0  0
    5.8960    3.0370    0.0720 C   0  0  0  0  0  0  0  0  0  0  0  0
    5.8530    2.0480   -0.8830 C   0  0  0  0  0  0  0  0  0  0  0  0
    4.7840    1.1650   -0.9540 C   0  0  0  0  0  0  0  0  0  0  0  0
    4.7660    0.1940   -1.9090 F   0  0  0  0  0  0  0  0  0  0  0  0
  2  1  1  6
  2  3  1  0
  2  5  1  0
  2 20  1  0
  3  4  1  0
  5  6  1  0
  6  7  2  0
  6 12  1  0
  7  8  1  0
  7  9  1  0
  9 10  2  0
 10 11  1  0
 11 12  2  0
 12 13  1  0
 13 14  2  0
 13 19  1  0
 14 15  1  0
 15 16  2  0
 16 17  1  0
 17 18  1  0
 17 19  2  0
 20 21  2  0
 20 22  1  0
 22 23  1  0
 23 24  2  0
 23 28  1  0
 24 25  1  0
 25 26  2  0
 26 27  1  0
 27 28  2  0
 28 29  1  0
M  CHG  2   4   1  16   1
M  END
