
     RDKit          3D

 31 33  0  0  0  0  0  0  0  0999 V2000
   -7.7780    1.9380    2.3180 C   0  0  0  0  0  0  0  0  0  0  0  0
   -7.2420    2.3720    0.9950 C   0  0  0  0  0  0  0  0  0  0  0  0
   -6.2700    1.4510    0.4330 N   0  0  0  0  0  0  0  0  0  0  0  0
   -6.5900    0.1310    0.0500 C   0  0  0  0  0  0  0  0  0  0  0  0
   -7.9210   -0.2360    0.1620 C   0  0  0  0  0  0  0  0  0  0  0  0
   -8.3260   -1.4930   -0.1990 C   0  0  0  0  0  0  0  0  0  0  0  0
   -7.4080   -2.3880   -0.6730 C   0  0  0  0  0  0  0  0  0  0  0  0
   -6.0600   -1.9890   -0.7770 C   0  0  0  0  0  0  0  0  0  0  0  0
   -5.6370   -0.7340   -0.4190 C   0  0  0  0  0  0  0  0  0  0  0  0
   -4.2790   -0.3930   -0.5350 N   0  0  0  0  0  0  0  0  0  0  0  0
   -3.2190   -1.1680   -1.0200 C   0  0  0  0  0  0  0  0  0  0  0  0
   -3.3910   -2.3140   -1.4280 O   0  0  0  0  0  0  0  0  0  0  0  0
   -1.8620   -0.6710   -1.0730 N   0  0  0  0  0  0  0  0  0  0  0  0
   -0.8010   -1.5140   -1.5850 C   0  0  1  0  0  0  0  0  0  0  0  0
   -0.1170   -0.7670   -2.6860 C   0  0  0  0  0  0  0  0  0  0  0  0
    1.1520   -0.1260   -2.1690 C   0  0  0  0  0  0  0  0  0  0  0  0
    1.0300    0.2830   -0.8470 O   0  0  0  0  0  0  0  0  0  0  0  0
    1.0310   -0.8070   -0.0140 C   0  0  2  0  0  0  0  0  0  0  0  0
    0.4730   -0.4280    1.3500 C   0  0  0  0  0  0  0  0  0  0  0  0
    1.2600    0.6130    1.9730 N   0  0  0  0  0  0  0  0  0  0  0  0
    2.4450   -1.2260    0.2540 C   0  0  0  0  0  0  0  0  0  0  0  0
    2.6920   -2.2600    0.9500 O   0  0  0  0  0  0  0  0  0  0  0  0
    3.4910   -0.4460   -0.2830 N   0  0  0  0  0  0  0  0  0  0  0  0
    4.8550   -0.8480   -0.0300 C   0  0  0  0  0  0  0  0  0  0  0  0
    5.8680    0.0550   -0.6490 C   0  0  1  0  0  0  0  0  0  0  0  0
    5.8100    1.4740   -0.1890 C   0  0  0  0  0  0  0  0  0  0  0  0
    6.4370    1.7120    1.1530 C   0  0  0  0  0  0  0  0  0  0  0  0
    7.8090    1.2750    1.2220 N   0  0  0  0  0  0  0  0  0  0  0  0
    8.2240    0.6030   -0.0140 C   0  0  0  0  0  0  0  0  0  0  0  0
    7.2470   -0.4860   -0.3520 C   0  0  0  0  0  0  0  0  0  0  0  0
    0.1960   -1.9220   -0.5360 C   0  0  0  0  0  0  0  0  0  0  0  0
  1  2  1  0
  2  3  1  0
  3  4  1  0
  4  5  2  0
  4  9  1  0
  5  6  1  0
  6  7  2  0
  7  8  1  0
  8  9  2  0
  9 10  1  0
 10 11  1  0
 11 12  2  0
 11 13  1  0
 14 13  1  1
 14 15  1  0
 14 31  1  0
 15 16  1  0
 16 17  1  0
 17 18  1  0
 18 19  1  1
 18 21  1  0
 18 31  1  0
 19 20  1  0
 21 22  2  0
 21 23  1  0
 23 24  1  0
 25 24  1  1
 25 26  1  0
 25 30  1  0
 26 27  1  0
 27 28  1  0
 28 29  1  0
 29 30  1  0
M  CHG  2  20   1  28   1
M  END
