
     RDKit          3D

 31 33  0  0  0  0  0  0  0  0999 V2000
    9.6380   -1.7020    1.3870 N   0  0  0  0  0  0  0  0  0  0  0  0
    9.3910   -0.3370    1.1280 C   0  0  0  0  0  0  0  0  0  0  0  0
   10.3350    0.4790    1.1380 O   0  0  0  0  0  0  0  0  0  0  0  0
    8.0220    0.1210    0.8450 C   0  0  2  0  0  0  0  0  0  0  0  0
    7.5170   -0.5940   -0.4000 C   0  0  0  0  0  0  0  0  0  0  0  0
    6.6750    0.3680   -1.2070 C   0  0  0  0  0  0  0  0  0  0  0  0
    5.8020    1.0680   -0.2580 N   0  0  0  0  0  0  0  0  0  0  0  0
    4.3980    0.8260   -0.2640 C   0  0  0  0  0  0  0  0  0  0  0  0
    3.6890    1.4370    0.5600 O   0  0  0  0  0  0  0  0  0  0  0  0
    3.8100   -0.1300   -1.2290 C   0  0  0  0  0  0  0  0  0  0  0  0
    2.3700   -0.2020   -1.0300 N   0  0  0  0  0  0  0  0  0  0  0  0
    1.8810   -0.6230    0.2340 C   0  0  0  0  0  0  0  0  0  0  0  0
    2.7010   -0.9280    1.1760 O   0  0  0  0  0  0  0  0  0  0  0  0
    0.4520   -0.7400    0.5510 C   0  0  0  0  0  0  0  0  0  0  0  0
   -0.4390   -0.3980   -0.5310 N   0  0  0  0  0  0  0  0  0  0  0  0
   -1.7660   -0.9270   -0.2750 C   0  0  0  0  0  0  0  0  0  0  0  0
   -2.7930    0.1540   -0.4770 C   0  0  2  0  0  0  0  0  0  0  0  0
   -2.5930    1.3310    0.4360 C   0  0  0  0  0  0  0  0  0  0  0  0
   -3.9740    1.9500    0.4660 C   0  0  0  0  0  0  0  0  0  0  0  0
   -4.8530    0.7460    0.4650 C   0  0  0  0  0  0  0  0  0  0  0  0
   -4.1600   -0.3140   -0.0920 C   0  0  0  0  0  0  0  0  0  0  0  0
   -4.7630   -1.5450   -0.2070 C   0  0  0  0  0  0  0  0  0  0  0  0
   -6.0640   -1.7110    0.2390 C   0  0  0  0  0  0  0  0  0  0  0  0
   -6.7830   -0.6760    0.7990 C   0  0  0  0  0  0  0  0  0  0  0  0
   -8.1600   -0.9410    1.2500 C   0  0  0  0  0  0  0  0  0  0  0  0
   -9.2250   -0.4080    0.3440 C   0  0  0  0  0  0  0  0  0  0  0  0
   -9.1830   -0.9410   -0.9870 N   0  0  0  0  0  0  0  0  0  0  0  0
   -6.1650    0.5430    0.9050 C   0  0  0  0  0  0  0  0  0  0  0  0
   -6.8510    1.6360    1.4700 N   0  0  0  0  0  0  0  0  0  0  0  0
    6.4500    1.9910    0.6500 C   0  0  0  0  0  0  0  0  0  0  0  0
    7.9320    1.6150    0.6700 C   0  0  0  0  0  0  0  0  0  0  0  0
  1  2  1  0
  2  3  2  0
  4  2  1  6
  4  5  1  0
  4 31  1  0
  5  6  1  0
  6  7  1  0
  7  8  1  0
  7 30  1  0
  8  9  2  0
  8 10  1  0
 10 11  1  0
 11 12  1  0
 12 13  2  0
 12 14  1  0
 14 15  1  0
 15 16  1  0
 17 16  1  1
 17 18  1  0
 17 21  1  0
 18 19  1  0
 19 20  1  0
 20 21  2  0
 20 28  1  0
 21 22  1  0
 22 23  2  0
 23 24  1  0
 24 25  1  0
 24 28  2  0
 25 26  1  0
 26 27  1  0
 28 29  1  0
 30 31  1  0
M  CHG  2  15   1  27   1
M  END
