
     RDKit          3D

 31 34  0  0  0  0  0  0  0  0999 V2000
    2.5280    0.1760    2.1070 C   0  0  0  0  0  0  0  0  0  0  0  0
    2.9700    0.9200    0.9670 N   0  0  0  0  0  0  0  0  0  0  0  0
    4.3100    1.5480    1.1330 C   0  0  0  0  0  0  0  0  0  0  0  0
    5.3610    0.6090    0.6790 C   0  0  0  0  0  0  0  0  0  0  0  0
    5.2090   -0.6670    0.1700 C   0  0  0  0  0  0  0  0  0  0  0  0
    6.4570   -1.1510   -0.1110 C   0  0  0  0  0  0  0  0  0  0  0  0
    7.3360   -0.1460    0.2400 C   0  0  0  0  0  0  0  0  0  0  0  0
    6.6370    0.8670    0.6990 O   0  0  0  0  0  0  0  0  0  0  0  0
    2.3110    1.1090   -0.2310 C   0  0  0  0  0  0  0  0  0  0  0  0
    2.9690    1.8430   -1.0920 O   0  0  0  0  0  0  0  0  0  0  0  0
    1.0340    0.6540   -0.7230 C   0  0  0  0  0  0  0  0  0  0  0  0
    0.1560   -0.1380   -0.0110 C   0  0  0  0  0  0  0  0  0  0  0  0
   -1.0760   -0.5740   -0.4960 C   0  0  0  0  0  0  0  0  0  0  0  0
   -1.8610   -1.4290    0.3670 C   0  0  0  0  0  0  0  0  0  0  0  0
   -1.2880   -2.4580    1.1030 N   0  0  0  0  0  0  0  0  0  0  0  0
   -2.2340   -2.9700    1.8380 N   0  0  0  0  0  0  0  0  0  0  0  0
   -3.3820   -2.3240    1.6130 C   0  0  0  0  0  0  0  0  0  0  0  0
   -4.4920   -2.5540    2.1480 O   0  0  0  0  0  0  0  0  0  0  0  0
   -3.1510   -1.3570    0.6930 N   0  0  0  0  0  0  0  0  0  0  0  0
   -4.1510   -0.4520    0.2850 C   0  0  0  0  0  0  0  0  0  0  0  0
   -5.3960   -0.8580   -0.1390 C   0  0  0  0  0  0  0  0  0  0  0  0
   -6.3340    0.0650   -0.5220 C   0  0  0  0  0  0  0  0  0  0  0  0
   -6.0920    1.4230   -0.5080 C   0  0  0  0  0  0  0  0  0  0  0  0
   -4.8500    1.8320   -0.0860 C   0  0  0  0  0  0  0  0  0  0  0  0
   -3.8980    0.9140    0.3030 C   0  0  0  0  0  0  0  0  0  0  0  0
   -2.6930    1.3990    0.7120 F   0  0  0  0  0  0  0  0  0  0  0  0
   -1.4480   -0.2100   -1.7420 C   0  0  0  0  0  0  0  0  0  0  0  0
   -2.6140   -0.5660   -2.3820 O   0  0  0  0  0  0  0  0  0  0  0  0
   -0.5880    0.6070   -2.5240 C   0  0  0  0  0  0  0  0  0  0  0  0
    0.6060    1.0120   -2.0130 C   0  0  0  0  0  0  0  0  0  0  0  0
    1.4580    1.8090   -2.7600 O   0  0  0  0  0  0  0  0  0  0  0  0
  1  2  1  0
  2  3  1  0
  2  9  1  0
  3  4  1  0
  4  5  2  0
  4  8  1  0
  5  6  1  0
  6  7  2  0
  7  8  1  0
  9 10  2  0
  9 11  1  0
 11 12  2  0
 11 30  1  0
 12 13  1  0
 13 14  1  0
 13 27  2  0
 14 15  2  0
 14 19  1  0
 15 16  1  0
 16 17  1  0
 17 18  2  0
 17 19  1  0
 19 20  1  0
 20 21  2  0
 20 25  1  0
 21 22  1  0
 22 23  2  0
 23 24  1  0
 24 25  2  0
 25 26  1  0
 27 28  1  0
 27 29  1  0
 29 30  2  0
 30 31  1  0
M  END
