
     RDKit          3D

 28 30  0  0  0  0  0  0  0  0999 V2000
    8.0310    2.1740    0.5640 C   0  0  0  0  0  0  0  0  0  0  0  0
    7.0920    1.5900   -0.3750 N   0  0  0  0  0  0  0  0  0  0  0  0
    7.4000    1.4570   -1.7700 C   0  0  0  0  0  0  0  0  0  0  0  0
    6.5660    0.5040   -2.4330 N   0  0  0  0  0  0  0  0  0  0  0  0
    5.1600    0.7420   -2.2480 C   0  0  0  0  0  0  0  0  0  0  0  0
    4.8410    0.7010   -0.7980 C   0  0  0  0  0  0  0  0  0  0  0  0
    3.5960    0.2460   -0.3790 C   0  0  0  0  0  0  0  0  0  0  0  0
    3.3010    0.2090    0.9560 C   0  0  0  0  0  0  0  0  0  0  0  0
    2.0720   -0.2150    1.5150 N   0  0  0  0  0  0  0  0  0  0  0  0
    0.8890   -0.4370    0.7960 C   0  0  0  0  0  0  0  0  0  0  0  0
    0.8320   -0.2630   -0.4220 O   0  0  0  0  0  0  0  0  0  0  0  0
   -0.3220   -0.8780    1.4310 N   0  0  0  0  0  0  0  0  0  0  0  0
   -1.5450   -1.1080    0.6930 C   0  0  0  0  0  0  0  0  0  0  0  0
   -2.6070   -1.5550    1.6400 C   0  0  0  0  0  0  0  0  0  0  0  0
   -3.9020   -1.8210    0.9960 C   0  0  0  0  0  0  0  0  0  0  0  0
   -4.2250   -3.0800    0.5030 C   0  0  0  0  0  0  0  0  0  0  0  0
   -5.4220   -3.3630   -0.1030 C   0  0  0  0  0  0  0  0  0  0  0  0
   -6.3550   -2.3690   -0.2360 C   0  0  0  0  0  0  0  0  0  0  0  0
   -7.5370   -2.6530   -0.8360 F   0  0  0  0  0  0  0  0  0  0  0  0
   -6.0820   -1.0960    0.2390 C   0  0  0  0  0  0  0  0  0  0  0  0
   -7.1280   -0.0620    0.0680 C   0  0  2  0  0  0  0  0  0  0  0  0
   -7.5000    0.1490   -1.3070 N   0  0  0  0  0  0  0  0  0  0  0  0
   -6.6410    1.2570    0.6340 C   0  0  0  0  0  0  0  0  0  0  0  0
   -7.6810    2.1940    0.5450 O   0  0  0  0  0  0  0  0  0  0  0  0
   -4.8580   -0.8370    0.8500 C   0  0  0  0  0  0  0  0  0  0  0  0
    4.3070    0.6450    1.8360 C   0  0  0  0  0  0  0  0  0  0  0  0
    5.5220    1.0870    1.4030 C   0  0  0  0  0  0  0  0  0  0  0  0
    5.8190    1.1260    0.0770 C   0  0  0  0  0  0  0  0  0  0  0  0
  1  2  1  0
  2  3  1  0
  2 28  1  0
  3  4  1  0
  4  5  1  0
  5  6  1  0
  6  7  2  0
  6 28  1  0
  7  8  1  0
  8  9  1  0
  8 26  2  0
  9 10  1  0
 10 11  2  0
 10 12  1  0
 12 13  1  0
 13 14  1  0
 14 15  1  0
 15 16  2  0
 15 25  1  0
 16 17  1  0
 17 18  2  0
 18 19  1  0
 18 20  1  0
 20 21  1  0
 20 25  2  0
 21 22  1  6
 21 23  1  0
 23 24  1  0
 26 27  1  0
 27 28  2  0
M  CHG  2   4   1  22   1
M  END
