
     RDKit          3D

 28 30  0  0  0  0  0  0  0  0999 V2000
    7.3460    0.1670   -2.4270 C   0  0  0  0  0  0  0  0  0  0  0  0
    7.5460   -0.0730   -0.9460 C   0  0  0  0  0  0  0  0  0  0  0  0
    6.3490    0.4650   -0.2470 C   0  0  0  0  0  0  0  0  0  0  0  0
    6.1450    1.8100   -0.0510 C   0  0  0  0  0  0  0  0  0  0  0  0
    7.0740    2.6880   -0.5150 F   0  0  0  0  0  0  0  0  0  0  0  0
    5.0090    2.2480    0.6090 C   0  0  0  0  0  0  0  0  0  0  0  0
    4.0570    1.3710    1.0850 C   0  0  0  0  0  0  0  0  0  0  0  0
    4.2510    0.0270    0.8950 C   0  0  0  0  0  0  0  0  0  0  0  0
    3.4880   -1.0610    1.2530 C   0  0  0  0  0  0  0  0  0  0  0  0
    2.1930   -1.0410    1.9750 C   0  0  0  0  0  0  0  0  0  0  0  0
    1.0820   -0.6240    1.0470 C   0  0  0  0  0  0  0  0  0  0  0  0
    1.3500   -0.3590   -0.1430 O   0  0  0  0  0  0  0  0  0  0  0  0
   -0.2450   -0.5290    1.5010 N   0  0  0  0  0  0  0  0  0  0  0  0
   -1.3580   -0.1520    0.7230 C   0  0  0  0  0  0  0  0  0  0  0  0
   -1.2180    0.1440   -0.5130 N   0  0  0  0  0  0  0  0  0  0  0  0
   -2.6760   -0.0990    1.3280 N   0  0  0  0  0  0  0  0  0  0  0  0
   -3.8580    0.0320    0.5590 C   0  0  0  0  0  0  0  0  0  0  0  0
   -4.1400    1.2950    0.2670 C   0  0  0  0  0  0  0  0  0  0  0  0
   -5.1480    2.0720   -0.4470 C   0  0  0  0  0  0  0  0  0  0  0  0
   -5.7580    1.3760   -1.5520 N   0  0  0  0  0  0  0  0  0  0  0  0
   -6.4560    0.1880   -1.2360 C   0  0  0  0  0  0  0  0  0  0  0  0
   -6.7160   -0.0770    0.2050 C   0  0  0  0  0  0  0  0  0  0  0  0
   -5.9520   -1.3210    0.6090 C   0  0  0  0  0  0  0  0  0  0  0  0
   -4.5000   -1.2460    0.2600 C   0  0  2  0  0  0  0  0  0  0  0  0
   -3.8590   -2.2670    1.0020 O   0  0  0  0  0  0  0  0  0  0  0  0
    4.1770   -2.1680    0.8030 C   0  0  0  0  0  0  0  0  0  0  0  0
    5.3090   -1.7510    0.1980 N   0  0  0  0  0  0  0  0  0  0  0  0
    5.3850   -0.4060    0.2360 C   0  0  0  0  0  0  0  0  0  0  0  0
  1  2  1  0
  2  3  1  0
  3  4  2  0
  3 28  1  0
  4  5  1  0
  4  6  1  0
  6  7  2  0
  7  8  1  0
  8  9  1  0
  8 28  2  0
  9 10  1  0
  9 26  2  0
 10 11  1  0
 11 12  2  0
 11 13  1  0
 13 14  1  0
 14 15  2  0
 14 16  1  0
 16 17  1  0
 17 18  2  0
 17 24  1  0
 18 19  1  0
 19 20  1  0
 20 21  1  0
 21 22  1  0
 22 23  1  0
 23 24  1  0
 24 25  1  1
 26 27  1  0
 27 28  1  0
M  CHG  2  15   1  20   1
M  END
