
     RDKit          3D

 31 32  0  0  0  0  0  0  0  0999 V2000
   -5.7220   -1.5900   -1.8270 C   0  0  0  0  0  0  0  0  0  0  0  0
   -4.2760   -1.2950   -1.5320 C   0  0  0  0  0  0  0  0  0  0  0  0
   -3.2950   -1.8570   -2.3290 C   0  0  0  0  0  0  0  0  0  0  0  0
   -1.9690   -1.6610   -2.0740 C   0  0  0  0  0  0  0  0  0  0  0  0
   -0.9080   -2.2690   -2.9480 C   0  0  0  0  0  0  0  0  0  0  0  0
   -1.5000   -3.0410   -4.0100 N   0  0  0  0  0  0  0  0  0  0  0  0
   -1.5550   -0.8750   -0.9830 C   0  0  0  0  0  0  0  0  0  0  0  0
   -0.1660   -0.7200   -0.8020 N   0  0  0  0  0  0  0  0  0  0  0  0
    0.3890    0.0710    0.2190 C   0  0  0  0  0  0  0  0  0  0  0  0
   -0.2710    0.7030    1.0600 O   0  0  0  0  0  0  0  0  0  0  0  0
    1.9010    0.1800    0.3260 C   0  0  0  0  0  0  0  0  0  0  0  0
    2.2820    1.0910    1.4350 C   0  0  0  0  0  0  0  0  0  0  0  0
    3.7340    1.3280    1.6390 C   0  0  0  0  0  0  0  0  0  0  0  0
    4.5910    0.2720    1.9540 N   0  0  0  0  0  0  0  0  0  0  0  0
    4.9090   -0.7400    1.0390 C   0  0  0  0  0  0  0  0  0  0  0  0
    4.9800   -0.3500   -0.4130 C   0  0  0  0  0  0  0  0  0  0  0  0
    6.3850   -0.4550   -0.9620 C   0  0  0  0  0  0  0  0  0  0  0  0
    7.4590   -0.2010    0.0660 C   0  0  0  0  0  0  0  0  0  0  0  0
    7.1540    0.8600    0.9860 N   0  0  0  0  0  0  0  0  0  0  0  0
    7.0140    0.4470    2.3580 C   0  0  0  0  0  0  0  0  0  0  0  0
    5.6270    0.6490    2.8580 C   0  0  0  0  0  0  0  0  0  0  0  0
   -2.5450   -0.3390   -0.2220 C   0  0  0  0  0  0  0  0  0  0  0  0
   -3.9260   -0.5260   -0.4660 C   0  0  0  0  0  0  0  0  0  0  0  0
   -4.8710    0.1760    0.3880 C   0  0  0  0  0  0  0  0  0  0  0  0
   -4.5270    0.3210    1.6250 O   0  0  0  0  0  0  0  0  0  0  0  0
   -6.1020    0.7220    0.0440 N   0  0  0  0  0  0  0  0  0  0  0  0
   -6.9520    1.4000    1.0300 C   0  0  2  0  0  0  0  0  0  0  0  0
   -8.3720    0.9780    0.8890 C   0  0  0  0  0  0  0  0  0  0  0  0
   -6.7970    2.8890    0.8740 C   0  0  0  0  0  0  0  0  0  0  0  0
   -7.4970    3.8150    1.6790 N   0  0  0  0  0  0  0  0  0  0  0  0
   -6.0150    3.2990   -0.0050 O   0  0  0  0  0  0  0  0  0  0  0  0
  1  2  1  0
  2  3  2  0
  2 23  1  0
  3  4  1  0
  4  5  1  0
  4  7  2  0
  5  6  1  0
  7  8  1  0
  7 22  1  0
  8  9  1  0
  9 10  2  0
  9 11  1  0
 11 12  1  0
 12 13  1  0
 13 14  1  0
 14 15  1  0
 14 21  1  0
 15 16  1  0
 16 17  1  0
 17 18  1  0
 18 19  1  0
 19 20  1  0
 20 21  1  0
 22 23  2  0
 23 24  1  0
 24 25  2  0
 24 26  1  0
 26 27  1  0
 27 28  1  6
 27 29  1  0
 29 30  1  0
 29 31  2  0
M  CHG  2   6   1  19   1
M  END
