
     RDKit          3D

 30 32  0  0  0  0  0  0  0  0999 V2000
   -3.8710    2.9340    0.6150 C   0  0  0  0  0  0  0  0  0  0  0  0
   -3.7000    1.7670    0.0460 C   0  0  0  0  0  0  0  0  0  0  0  0
   -2.4050    1.0370    0.2800 C   0  0  0  0  0  0  0  0  0  0  0  0
   -2.4950   -0.3790    0.3270 N   0  0  0  0  0  0  0  0  0  0  0  0
   -1.9050   -0.8860    1.5440 C   0  0  2  0  0  0  0  0  0  0  0  0
   -0.4470   -0.8700    1.6330 C   0  0  0  0  0  0  0  0  0  0  0  0
    0.3610   -1.5750    0.6930 N   0  0  0  0  0  0  0  0  0  0  0  0
    0.8830   -0.7350   -0.3440 C   0  0  2  0  0  0  0  0  0  0  0  0
    0.2310   -0.8000   -1.6610 C   0  0  0  0  0  0  0  0  0  0  0  0
    2.3500   -0.5730   -0.3750 C   0  0  0  0  0  0  0  0  0  0  0  0
    2.9530    0.6090   -0.0110 C   0  0  0  0  0  0  0  0  0  0  0  0
    4.3380    0.7200    0.1230 C   0  0  0  0  0  0  0  0  0  0  0  0
    4.9020    1.9290    0.6110 N   0  0  0  0  0  0  0  0  0  0  0  0
    6.2310    2.3440    0.3910 C   0  0  0  0  0  0  0  0  0  0  0  0
    7.0420    1.6870   -0.2830 O   0  0  0  0  0  0  0  0  0  0  0  0
    6.7040    3.6430    1.0020 C   0  0  0  0  0  0  0  0  0  0  0  0
    8.0840    3.8350    0.6130 N   0  0  0  0  0  0  0  0  0  0  0  0
    5.0930   -0.4040   -0.1270 C   0  0  0  0  0  0  0  0  0  0  0  0
    4.5060   -1.6200   -0.5010 C   0  0  0  0  0  0  0  0  0  0  0  0
    3.1530   -1.6840   -0.6170 C   0  0  0  0  0  0  0  0  0  0  0  0
    2.5180   -2.8600   -0.9810 O   0  0  0  0  0  0  0  0  0  0  0  0
    3.2690   -4.0390   -1.2680 C   0  0  0  0  0  0  0  0  0  0  0  0
   -2.5760   -2.1460    2.0560 C   0  0  0  0  0  0  0  0  0  0  0  0
   -2.9020   -3.0310    0.8810 C   0  0  0  0  0  0  0  0  0  0  0  0
   -3.9980   -2.3330    0.0900 C   0  0  0  0  0  0  0  0  0  0  0  0
   -3.8250   -0.8610    0.1560 C   0  0  2  0  0  0  0  0  0  0  0  0
   -4.3410   -0.2720   -1.1690 C   0  0  0  0  0  0  0  0  0  0  0  0
   -4.6650    1.1530   -0.7950 C   0  0  0  0  0  0  0  0  0  0  0  0
   -5.7490    1.6590   -1.2680 C   0  0  0  0  0  0  0  0  0  0  0  0
   -6.3310    2.9260   -1.1300 N   0  0  0  0  0  0  0  0  0  0  0  0
  1  2  2  0
  2  3  1  0
  2 28  1  0
  3  4  1  0
  4  5  1  0
  4 26  1  0
  5  6  1  6
  5 23  1  0
  6  7  1  0
  7  8  1  0
  8  9  1  6
  8 10  1  0
 10 11  2  0
 10 20  1  0
 11 12  1  0
 12 13  1  0
 12 18  2  0
 13 14  1  0
 14 15  2  0
 14 16  1  0
 16 17  1  0
 18 19  1  0
 19 20  2  0
 20 21  1  0
 21 22  1  0
 23 24  1  0
 24 25  1  0
 26 25  1  6
 26 27  1  0
 27 28  1  0
 28 29  2  3
 29 30  1  0
M  CHG  2   7   1  30   1
M  END
