
     RDKit          3D

 30 32  0  0  0  0  0  0  0  0999 V2000
   -0.5270    4.4700    0.1330 C   0  0  0  0  0  0  0  0  0  0  0  0
   -1.1970    3.6810   -0.9450 C   0  0  0  0  0  0  0  0  0  0  0  0
   -0.5900    2.2510   -1.0460 C   0  0  0  0  0  0  0  0  0  0  0  0
   -0.8050    1.6330    0.2370 C   0  0  1  0  0  0  0  0  0  0  0  0
   -2.1640    1.4500    0.7650 C   0  0  0  0  0  0  0  0  0  0  0  0
   -2.3960   -0.0020    0.4100 C   0  0  2  0  0  0  0  0  0  0  0  0
   -2.6130   -0.0290   -1.0180 C   0  0  0  0  0  0  0  0  0  0  0  0
   -3.6920   -0.3900    1.0170 C   0  0  0  0  0  0  0  0  0  0  0  0
   -4.3470   -1.6610    0.5860 C   0  0  0  0  0  0  0  0  0  0  0  0
   -3.5100   -2.8070    0.1960 C   0  0  0  0  0  0  0  0  0  0  0  0
   -2.1910   -2.8600    0.9460 C   0  0  0  0  0  0  0  0  0  0  0  0
   -1.1360   -1.9600    0.3360 C   0  0  0  0  0  0  0  0  0  0  0  0
   -1.1140   -0.6220    1.0050 C   0  0  2  0  0  0  0  0  0  0  0  0
   -1.2940   -0.8860    2.4310 C   0  0  0  0  0  0  0  0  0  0  0  0
   -0.4230   -1.5580    3.3670 C   0  0  0  0  0  0  0  0  0  0  0  0
    0.8370   -1.1320    3.6720 O   0  0  0  0  0  0  0  0  0  0  0  0
   -0.0070    0.3210    0.5680 C   0  0  1  0  0  0  0  0  0  0  0  0
    0.6430   -0.1780   -0.7320 C   0  0  0  0  0  0  0  0  0  0  0  0
    2.0950   -0.3360   -0.8820 C   0  0  2  0  0  0  0  0  0  0  0  0
    2.8780    0.7660   -1.5070 C   0  0  0  0  0  0  0  0  0  0  0  0
    2.5430    1.1500   -2.9050 C   0  0  0  0  0  0  0  0  0  0  0  0
    3.4210    2.2280   -3.2160 O   0  0  0  0  0  0  0  0  0  0  0  0
    2.4430   -1.6310   -1.6660 C   0  0  2  0  0  0  0  0  0  0  0  0
    3.8970   -1.8240   -1.9030 C   0  0  0  0  0  0  0  0  0  0  0  0
    1.6600   -1.8160   -2.9090 C   0  0  0  0  0  0  0  0  0  0  0  0
    2.1190   -2.7550   -0.8370 O   0  0  0  0  0  0  0  0  0  0  0  0
    2.8050   -0.6490    0.4530 C   0  0  0  0  0  0  0  0  0  0  0  0
    2.4430    0.3880    1.4210 C   0  0  0  0  0  0  0  0  0  0  0  0
    1.0540    0.9120    1.3690 C   0  0  2  0  0  0  0  0  0  0  0  0
    0.8640    1.8500    2.5090 C   0  0  0  0  0  0  0  0  0  0  0  0
  1  2  1  0
  2  3  1  0
  4  3  1  6
  4  5  1  0
  4 17  1  0
  5  6  1  0
  6  7  1  6
  6  8  1  0
  6 13  1  0
  8  9  1  0
  9 10  1  0
 10 11  1  0
 11 12  1  0
 12 13  1  0
 13 14  1  1
 13 17  1  0
 14 15  1  0
 15 16  1  0
 17 18  1  6
 17 29  1  0
 18 19  1  0
 19 20  1  6
 19 23  1  0
 19 27  1  0
 20 21  1  0
 21 22  1  0
 23 24  1  6
 23 25  1  0
 23 26  1  0
 27 28  1  0
 28 29  1  0
 29 30  1  1
M  END
