
     RDKit          3D

 30 32  0  0  0  0  0  0  0  0999 V2000
    4.0970    0.3710   -4.4200 C   0  0  0  0  0  0  0  0  0  0  0  0
    4.0970   -0.7010   -3.3570 C   0  0  0  0  0  0  0  0  0  0  0  0
    4.6720   -0.2200   -2.0800 C   0  0  0  0  0  0  0  0  0  0  0  0
    3.9100   -0.1670   -0.9960 C   0  0  0  0  0  0  0  0  0  0  0  0
    2.5080   -0.5830   -1.0790 C   0  0  0  0  0  0  0  0  0  0  0  0
    1.6580   -0.2670    0.1680 C   0  0  1  0  0  0  0  0  0  0  0  0
    0.6370   -1.3030    0.2120 C   0  0  2  0  0  0  0  0  0  0  0  0
   -0.0860   -1.2030   -1.0160 O   0  0  0  0  0  0  0  0  0  0  0  0
   -0.4380   -1.3620    1.2390 C   0  0  1  0  0  0  0  0  0  0  0  0
   -1.1840   -2.6310    0.8660 C   0  0  0  0  0  0  0  0  0  0  0  0
    0.1480   -1.7470    2.6290 C   0  0  0  0  0  0  0  0  0  0  0  0
   -1.3230   -0.1930    1.3870 C   0  0  1  0  0  0  0  0  0  0  0  0
   -0.5580    0.9230    1.7440 O   0  0  0  0  0  0  0  0  0  0  0  0
   -2.3610    0.1160    0.3880 C   0  0  1  0  0  0  0  0  0  0  0  0
   -3.4110   -0.9430    0.2380 C   0  0  0  0  0  0  0  0  0  0  0  0
   -4.8420   -0.3380    0.2820 C   0  0  2  0  0  0  0  0  0  0  0  0
   -5.7910   -1.4910    0.0270 C   0  0  0  0  0  0  0  0  0  0  0  0
   -5.5840   -2.0960   -1.1940 O   0  0  0  0  0  0  0  0  0  0  0  0
   -4.9120    0.6640   -0.8190 C   0  0  0  0  0  0  0  0  0  0  0  0
   -3.9940    1.7970   -0.4640 C   0  0  1  0  0  0  0  0  0  0  0  0
   -3.2360    2.1950   -1.7000 C   0  0  0  0  0  0  0  0  0  0  0  0
   -4.8300    2.9800   -0.0260 C   0  0  0  0  0  0  0  0  0  0  0  0
   -3.0700    1.4510    0.6890 C   0  0  0  0  0  0  0  0  0  0  0  0
    2.5210   -0.1810    1.4160 C   0  0  0  0  0  0  0  0  0  0  0  0
    3.5630    0.9010    1.2070 C   0  0  1  0  0  0  0  0  0  0  0  0
    4.1560    1.3010    2.4900 C   0  0  0  0  0  0  0  0  0  0  0  0
    5.6010    1.1280    2.6050 C   0  0  0  0  0  0  0  0  0  0  0  0
    6.4140    0.6130    1.7100 C   0  0  0  0  0  0  0  0  0  0  0  0
    5.8050    0.1580    0.4390 C   0  0  0  0  0  0  0  0  0  0  0  0
    4.5210    0.2860    0.2480 C   0  0  0  0  0  0  0  0  0  0  0  0
  1  2  1  0
  2  3  1  0
  3  4  2  3
  4  5  1  0
  4 30  1  0
  6  5  1  6
  6  7  1  0
  6 24  1  0
  7  8  1  6
  7  9  1  0
  9 10  1  6
  9 11  1  0
  9 12  1  0
 12 13  1  6
 12 14  1  0
 14 15  1  1
 14 23  1  0
 15 16  1  0
 16 17  1  6
 16 19  1  0
 17 18  1  0
 19 20  1  0
 20 21  1  6
 20 22  1  0
 20 23  1  0
 25 24  1  1
 25 26  1  0
 25 30  1  0
 26 27  1  0
 27 28  2  0
 28 29  1  0
 29 30  2  0
M  END
