
     RDKit          3D

 30 32  0  0  0  0  0  0  0  0999 V2000
    5.1590   -1.3210   -2.7920 N   0  0  0  0  0  0  0  0  0  0  0  0
    4.7370   -0.3850   -1.9660 C   0  0  0  0  0  0  0  0  0  0  0  0
    3.3660   -0.5810   -1.5020 C   0  0  0  0  0  0  0  0  0  0  0  0
    2.7240    0.0810   -0.6200 C   0  0  0  0  0  0  0  0  0  0  0  0
    1.3910   -0.1830   -0.2480 N   0  0  0  0  0  0  0  0  0  0  0  0
    0.5080   -1.1600   -0.7360 C   0  0  0  0  0  0  0  0  0  0  0  0
    0.8830   -1.9360   -1.6280 O   0  0  0  0  0  0  0  0  0  0  0  0
   -0.8830   -1.2490   -0.1650 C   0  0  0  0  0  0  0  0  0  0  0  0
   -1.3310   -0.5440    0.6950 N   0  0  0  0  0  0  0  0  0  0  0  0
   -2.2180   -0.0520    1.5650 N   0  0  0  0  0  0  0  0  0  0  0  0
   -3.1010    1.0770    1.3920 C   0  0  0  0  0  0  0  0  0  0  0  0
   -2.9980    2.1050    2.4760 C   0  0  0  0  0  0  0  0  0  0  0  0
   -2.3290    2.3190    3.5690 C   0  0  0  0  0  0  0  0  0  0  0  0
   -2.9690    3.5730    3.8590 C   0  0  0  0  0  0  0  0  0  0  0  0
   -3.7620    3.3470    2.6630 C   0  0  0  0  0  0  0  0  0  0  0  0
   -3.9520    1.2280    0.3980 C   0  0  0  0  0  0  0  0  0  0  0  0
   -4.2230    0.3570   -0.7240 C   0  0  0  0  0  0  0  0  0  0  0  0
   -4.8660   -0.7990   -0.7550 C   0  0  0  0  0  0  0  0  0  0  0  0
   -5.4790   -1.4880    0.4070 C   0  0  0  0  0  0  0  0  0  0  0  0
   -4.7050   -2.5790    0.9400 N   0  0  0  0  0  0  0  0  0  0  0  0
   -3.8560   -3.2470    0.0060 C   0  0  0  0  0  0  0  0  0  0  0  0
   -2.3850   -3.0700    0.3250 C   0  0  0  0  0  0  0  0  0  0  0  0
   -1.6650   -2.3420   -0.8010 C   0  0  0  0  0  0  0  0  0  0  0  0
    5.6670    0.6310   -1.5640 C   0  0  0  0  0  0  0  0  0  0  0  0
    5.2500    1.9080   -1.1900 C   0  0  0  0  0  0  0  0  0  0  0  0
    6.1620    2.9540   -0.9590 C   0  0  0  0  0  0  0  0  0  0  0  0
    7.5110    2.7430   -1.1010 C   0  0  0  0  0  0  0  0  0  0  0  0
    7.9460    1.5110   -1.4650 C   0  0  0  0  0  0  0  0  0  0  0  0
    7.0270    0.4760   -1.6900 C   0  0  0  0  0  0  0  0  0  0  0  0
    7.6010   -0.7300   -2.0470 O   0  0  0  0  0  0  0  0  0  0  0  0
  1  2  2  0
  2  3  1  0
  2 24  1  0
  3  4  2  3
  4  5  1  0
  5  6  1  0
  6  7  2  0
  6  8  1  0
  8  9  2  0
  8 23  1  0
  9 10  1  0
 10 11  1  0
 11 12  1  0
 11 16  2  0
 12 13  2  0
 12 15  1  0
 13 14  1  0
 14 15  1  0
 16 17  1  0
 17 18  2  0
 18 19  1  0
 19 20  1  0
 20 21  1  0
 21 22  1  0
 22 23  1  0
 24 25  2  0
 24 29  1  0
 25 26  1  0
 26 27  2  0
 27 28  1  0
 28 29  2  0
 29 30  1  0
M  CHG  2   1   1  20   1
M  END
