
     RDKit          3D

 30 32  0  0  0  0  0  0  0  0999 V2000
    2.0330   -3.8570   -2.2390 C   0  0  0  0  0  0  0  0  0  0  0  0
    0.6910   -3.1760   -1.9520 C   0  0  0  0  0  0  0  0  0  0  0  0
    0.3240   -3.3070   -0.5560 N   0  0  0  0  0  0  0  0  0  0  0  0
   -0.2050   -2.0580   -0.0140 C   0  0  1  0  0  0  0  0  0  0  0  0
    0.8750   -1.0530    0.1040 C   0  0  0  0  0  0  0  0  0  0  0  0
    1.0230    0.0010   -0.7400 C   0  0  0  0  0  0  0  0  0  0  0  0
    2.0550    0.9070   -0.6130 C   0  0  0  0  0  0  0  0  0  0  0  0
    2.1790    1.9590   -1.4810 C   0  0  0  0  0  0  0  0  0  0  0  0
    3.2140    2.8230   -1.3150 C   0  0  0  0  0  0  0  0  0  0  0  0
    4.1010    2.6610   -0.3280 N   0  0  0  0  0  0  0  0  0  0  0  0
    4.0250    1.6390    0.5580 C   0  0  0  0  0  0  0  0  0  0  0  0
    4.9640    1.4940    1.6090 N   0  0  0  0  0  0  0  0  0  0  0  0
    4.4990    1.6400    2.9730 C   0  0  0  0  0  0  0  0  0  0  0  0
    6.3610    1.2050    1.3630 C   0  0  0  0  0  0  0  0  0  0  0  0
    2.9840    0.7500    0.4090 C   0  0  0  0  0  0  0  0  0  0  0  0
    2.8260   -0.3230    1.2600 C   0  0  0  0  0  0  0  0  0  0  0  0
    1.7850   -1.2470    1.1420 C   0  0  0  0  0  0  0  0  0  0  0  0
    1.7400   -2.3250    2.1170 C   0  0  0  0  0  0  0  0  0  0  0  0
   -1.3470   -1.5570   -0.8920 C   0  0  1  0  0  0  0  0  0  0  0  0
   -2.3810   -2.5970   -0.9250 N   0  0  0  0  0  0  0  0  0  0  0  0
   -2.0410   -0.4060   -0.1330 C   0  0  0  0  0  0  0  0  0  0  0  0
   -3.1100    0.1220   -0.8800 N   0  0  0  0  0  0  0  0  0  0  0  0
   -3.8390    1.2110   -0.3350 C   0  0  2  0  0  0  0  0  0  0  0  0
   -4.5070    0.7650    0.9120 C   0  0  0  0  0  0  0  0  0  0  0  0
   -4.4660   -0.3800    1.3950 O   0  0  0  0  0  0  0  0  0  0  0  0
   -5.2710    1.6920    1.6500 O   0  0  0  0  0  0  0  0  0  0  0  0
   -4.9440    1.6920   -1.2670 C   0  0  0  0  0  0  0  0  0  0  0  0
   -5.3280    3.0160   -0.6460 C   0  0  0  0  0  0  0  0  0  0  0  0
   -4.1360    3.5010    0.1100 C   0  0  0  0  0  0  0  0  0  0  0  0
   -3.0700    2.4430   -0.0620 C   0  0  0  0  0  0  0  0  0  0  0  0
  1  2  1  0
  2  3  1  0
  4  3  1  6
  4  5  1  0
  4 19  1  0
  5  6  2  0
  5 17  1  0
  6  7  1  0
  7  8  2  0
  7 15  1  0
  8  9  1  0
  9 10  2  0
 10 11  1  0
 11 12  1  0
 11 15  2  0
 12 13  1  0
 12 14  1  0
 15 16  1  0
 16 17  2  0
 17 18  1  0
 19 20  1  1
 19 21  1  0
 21 22  1  0
 23 22  1  6
 23 24  1  0
 23 27  1  0
 23 30  1  0
 24 25  2  0
 24 26  1  0
 27 28  1  0
 28 29  1  0
 29 30  1  0
M  CHG  2   3   1  20   1
M  END
