
     RDKit          3D

 30 32  0  0  0  0  0  0  0  0999 V2000
    1.0960   -3.6260   -2.5170 C   0  0  0  0  0  0  0  0  0  0  0  0
    0.0910   -2.8970   -1.5180 C   0  0  1  0  0  0  0  0  0  0  0  0
   -0.0150   -4.0140   -0.4470 C   0  0  0  0  0  0  0  0  0  0  0  0
    0.8460   -1.7320   -1.0390 C   0  0  0  0  0  0  0  0  0  0  0  0
    0.3220   -0.7210   -0.0760 C   0  0  2  0  0  0  0  0  0  0  0  0
   -0.0620   -1.5120    1.0200 O   0  0  0  0  0  0  0  0  0  0  0  0
   -0.8730   -0.0150   -0.5560 C   0  0  1  0  0  0  0  0  0  0  0  0
   -0.8020    0.6650   -1.8920 C   0  0  0  0  0  0  0  0  0  0  0  0
   -2.0410   -0.9330   -0.6850 C   0  0  0  0  0  0  0  0  0  0  0  0
   -3.4190   -0.4920   -0.3720 C   0  0  2  0  0  0  0  0  0  0  0  0
   -3.8310   -1.0320    0.9760 C   0  0  0  0  0  0  0  0  0  0  0  0
   -4.4050   -1.1620   -1.3510 C   0  0  0  0  0  0  0  0  0  0  0  0
   -3.7300    0.9540   -0.4240 C   0  0  0  0  0  0  0  0  0  0  0  0
   -2.6000    1.8100    0.0990 C   0  0  2  0  0  0  0  0  0  0  0  0
   -3.1270    2.3130    1.4810 C   0  0  0  0  0  0  0  0  0  0  0  0
   -2.3990    3.0840   -0.6620 C   0  0  0  0  0  0  0  0  0  0  0  0
   -1.3850    1.0250    0.4540 C   0  0  0  0  0  0  0  0  0  0  0  0
    1.5340    0.1420    0.4480 C   0  0  2  0  0  0  0  0  0  0  0  0
    2.0250    0.8710   -0.6890 C   0  0  0  0  0  0  0  0  0  0  0  0
    3.1820    1.8140   -0.7450 C   0  0  2  0  0  0  0  0  0  0  0  0
    3.1460    2.9320    0.0310 O   0  0  0  0  0  0  0  0  0  0  0  0
    3.0760    2.5000   -2.1520 C   0  0  0  0  0  0  0  0  0  0  0  0
    1.8710    3.1960   -2.1570 O   0  0  0  0  0  0  0  0  0  0  0  0
    2.7030   -0.8310    0.7650 C   0  0  1  0  0  0  0  0  0  0  0  0
    3.7360   -0.1490    1.6430 C   0  0  0  0  0  0  0  0  0  0  0  0
    3.2770   -0.1630    3.0680 C   0  0  0  0  0  0  0  0  0  0  0  0
    1.8470   -0.6390    2.7510 C   0  0  2  0  0  0  0  0  0  0  0  0
    2.2560   -1.7550    1.8410 C   0  0  0  0  0  0  0  0  0  0  0  0
    1.3560    0.5270    1.8380 C   0  0  1  0  0  0  0  0  0  0  0  0
    1.7080    1.8390    2.3720 C   0  0  0  0  0  0  0  0  0  0  0  0
  2  1  1  6
  2  3  1  0
  2  4  1  0
  4  5  1  0
  5  6  1  1
  5  7  1  0
  5 18  1  0
  7  8  1  6
  7  9  1  0
  7 17  1  0
  9 10  1  0
 10 11  1  1
 10 12  1  0
 10 13  1  0
 13 14  1  0
 14 15  1  1
 14 16  1  0
 14 17  1  0
 18 19  1  6
 18 24  1  0
 18 29  1  0
 19 20  1  0
 20 21  1  1
 20 22  1  0
 22 23  1  0
 24 25  1  1
 24 28  1  0
 25 26  1  0
 27 26  1  6
 27 28  1  0
 27 29  1  0
 29 30  1  1
M  END
