
     RDKit          3D

 22 24  0  0  0  0  0  0  0  0999 V2000
    5.8340    0.9540    0.9760 N   0  0  0  0  0  0  0  0  0  0  0  0
    4.5380    0.4270    0.9200 C   0  0  0  0  0  0  0  0  0  0  0  0
    4.0130   -0.0610    1.9530 O   0  0  0  0  0  0  0  0  0  0  0  0
    3.7210    0.4080   -0.3190 C   0  0  0  0  0  0  0  0  0  0  0  0
    2.3980   -0.1980   -0.1120 C   0  0  0  0  0  0  0  0  0  0  0  0
    1.2660    0.5210   -0.0160 N   0  0  0  0  0  0  0  0  0  0  0  0
    0.0610   -0.0370    0.1720 C   0  0  0  0  0  0  0  0  0  0  0  0
   -0.0570   -1.4080    0.2760 C   0  0  0  0  0  0  0  0  0  0  0  0
    1.0750   -2.1750    0.1840 C   0  0  0  0  0  0  0  0  0  0  0  0
    2.3080   -1.5690   -0.0110 C   0  0  0  0  0  0  0  0  0  0  0  0
    3.9000   -2.6280   -0.1410 Br  0  0  0  0  0  0  0  0  0  0  0  0
   -1.2130   -2.1750    0.4720 O   0  0  0  0  0  0  0  0  0  0  0  0
   -2.5320   -1.8160    0.1320 C   0  0  0  0  0  0  0  0  0  0  0  0
   -3.3530   -2.7350   -0.0540 O   0  0  0  0  0  0  0  0  0  0  0  0
   -3.1000   -0.4730   -0.0390 C   0  0  0  0  0  0  0  0  0  0  0  0
   -4.4580   -0.4660   -0.2720 C   0  0  0  0  0  0  0  0  0  0  0  0
   -5.1650    0.7210   -0.4590 C   0  0  0  0  0  0  0  0  0  0  0  0
   -6.5020    0.6940   -0.6870 F   0  0  0  0  0  0  0  0  0  0  0  0
   -4.4610    1.9100   -0.4030 C   0  0  0  0  0  0  0  0  0  0  0  0
   -3.1010    1.8800   -0.1690 C   0  0  0  0  0  0  0  0  0  0  0  0
   -2.4060    0.7150    0.0150 C   0  0  0  0  0  0  0  0  0  0  0  0
   -1.0050    0.9020    0.2440 N   0  0  0  0  0  0  0  0  0  0  0  0
  1  2  1  0
  2  3  2  0
  2  4  1  0
  4  5  1  0
  5  6  2  0
  5 10  1  0
  6  7  1  0
  7  8  2  0
  7 22  1  0
  8  9  1  0
  8 12  1  0
  9 10  2  0
 10 11  1  0
 12 13  1  0
 13 14  2  0
 13 15  1  0
 15 16  2  0
 15 21  1  0
 16 17  1  0
 17 18  1  0
 17 19  2  0
 19 20  1  0
 20 21  2  0
 21 22  1  0
M  END
