
     RDKit          3D

 22 24  0  0  0  0  0  0  0  0999 V2000
   -3.3370   -2.4700    0.6020 O   0  0  0  0  0  0  0  0  0  0  0  0
   -3.5110   -1.3350    0.1310 C   0  0  0  0  0  0  0  0  0  0  0  0
   -2.3250   -0.5650   -0.2610 N   0  0  0  0  0  0  0  0  0  0  0  0
   -1.0840   -1.1340   -0.0900 C   0  0  0  0  0  0  0  0  0  0  0  0
    0.1890   -0.5460   -0.4100 C   0  0  0  0  0  0  0  0  0  0  0  0
    0.3810    0.6330   -0.9380 C   0  0  0  0  0  0  0  0  0  0  0  0
   -1.1510    1.6890   -1.3320 Br  0  0  0  0  0  0  0  0  0  0  0  0
    1.6290    1.3210   -1.2840 N   0  0  0  0  0  0  0  0  0  0  0  0
    2.8790    1.1020   -0.6550 C   0  0  0  0  0  0  0  0  0  0  0  0
    3.6730    2.1520   -0.7060 C   0  0  0  0  0  0  0  0  0  0  0  0
    4.9130    2.1120   -0.1490 O   0  0  0  0  0  0  0  0  0  0  0  0
    5.4630    1.0140    0.5270 C   0  0  0  0  0  0  0  0  0  0  0  0
    4.5550   -0.1530    0.5690 C   0  0  0  0  0  0  0  0  0  0  0  0
    3.3590   -0.1150    0.0240 C   0  0  0  0  0  0  0  0  0  0  0  0
    2.5820   -1.3460    0.1260 C   0  0  0  0  0  0  0  0  0  0  0  0
    1.3100   -1.5100   -0.0500 C   0  0  0  0  0  0  0  0  0  0  0  0
    0.8800   -2.7950    0.1130 F   0  0  0  0  0  0  0  0  0  0  0  0
   -4.8030   -0.7120   -0.0590 C   0  0  0  0  0  0  0  0  0  0  0  0
   -5.1320    0.5280   -0.5690 C   0  0  0  0  0  0  0  0  0  0  0  0
   -6.4940    0.6590   -0.5450 C   0  0  0  0  0  0  0  0  0  0  0  0
   -6.9600   -0.4450   -0.0470 O   0  0  0  0  0  0  0  0  0  0  0  0
   -5.9930   -1.2670    0.2470 N   0  0  0  0  0  0  0  0  0  0  0  0
  1  2  2  0
  2  3  1  0
  2 18  1  0
  3  4  1  0
  4  5  1  0
  5  6  2  0
  5 16  1  0
  6  7  1  0
  6  8  1  0
  8  9  1  0
  9 10  2  0
  9 14  1  0
 10 11  1  0
 11 12  1  0
 12 13  1  0
 13 14  2  0
 14 15  1  0
 15 16  2  0
 16 17  1  0
 18 19  1  0
 18 22  2  0
 19 20  2  0
 20 21  1  0
 21 22  1  0
M  END
