
     RDKit          3D

 22 24  0  0  0  0  0  0  0  0999 V2000
    0.9750   -2.2340    1.2180 O   0  0  0  0  0  0  0  0  0  0  0  0
    0.2470   -1.5340    0.4160 C   0  0  0  0  0  0  0  0  0  0  0  0
    0.8800   -0.4580   -0.2200 N   0  0  0  0  0  0  0  0  0  0  0  0
    2.2040   -0.0170   -0.1010 C   0  0  0  0  0  0  0  0  0  0  0  0
    3.1670   -0.6410    0.6310 C   0  0  0  0  0  0  0  0  0  0  0  0
    4.4710   -0.1360    0.7070 C   0  0  0  0  0  0  0  0  0  0  0  0
    5.4340   -0.7540    1.4350 F   0  0  0  0  0  0  0  0  0  0  0  0
    4.8110    1.0180    0.0350 C   0  0  0  0  0  0  0  0  0  0  0  0
    3.8340    1.6520   -0.7090 C   0  0  0  0  0  0  0  0  0  0  0  0
    4.2400    3.2620   -1.6690 Br  0  0  0  0  0  0  0  0  0  0  0  0
    2.5630    1.1490   -0.7760 C   0  0  0  0  0  0  0  0  0  0  0  0
   -1.1400   -1.9340    0.2460 C   0  0  0  0  0  0  0  0  0  0  0  0
   -1.5240   -3.2210    0.3060 O   0  0  0  0  0  0  0  0  0  0  0  0
   -2.7950   -3.3350    0.1230 C   0  0  0  0  0  0  0  0  0  0  0  0
   -3.3350   -2.0900   -0.0710 C   0  0  0  0  0  0  0  0  0  0  0  0
   -2.2430   -1.2020    0.0170 C   0  0  0  0  0  0  0  0  0  0  0  0
   -2.4870    0.2360   -0.0160 C   0  0  0  0  0  0  0  0  0  0  0  0
   -3.5950    0.8620   -0.5930 C   0  0  0  0  0  0  0  0  0  0  0  0
   -3.4250    2.2080   -0.4450 C   0  0  0  0  0  0  0  0  0  0  0  0
   -4.2750    3.0620   -0.8730 O   0  0  0  0  0  0  0  0  0  0  0  0
   -2.2810    2.4150    0.1860 N   0  0  0  0  0  0  0  0  0  0  0  0
   -1.7240    1.2270    0.4410 N   0  0  0  0  0  0  0  0  0  0  0  0
  1  2  2  0
  2  3  1  0
  2 12  1  0
  3  4  1  0
  4  5  2  0
  4 11  1  0
  5  6  1  0
  6  7  1  0
  6  8  2  0
  8  9  1  0
  9 10  1  0
  9 11  2  0
 12 13  1  0
 12 16  2  0
 13 14  1  0
 14 15  2  0
 15 16  1  0
 16 17  1  0
 17 18  2  0
 17 22  1  0
 18 19  1  0
 19 20  2  0
 19 21  1  0
 21 22  1  0
M  END
