
     RDKit          3D

 22 24  0  0  0  0  0  0  0  0999 V2000
   -2.8840    2.8370    0.3190 O   0  0  0  0  0  0  0  0  0  0  0  0
   -1.6460    2.6460    0.3920 C   0  0  0  0  0  0  0  0  0  0  0  0
   -0.6520    3.5160    0.5930 N   0  0  0  0  0  0  0  0  0  0  0  0
    0.4780    2.8510    0.5920 N   0  0  0  0  0  0  0  0  0  0  0  0
    0.2410    1.5010    0.3860 C   0  0  0  0  0  0  0  0  0  0  0  0
    1.3520    0.5700    0.2900 C   0  0  0  0  0  0  0  0  0  0  0  0
    2.6130    1.0600   -0.1260 C   0  0  0  0  0  0  0  0  0  0  0  0
    3.7330    0.3070   -0.2100 C   0  0  0  0  0  0  0  0  0  0  0  0
    5.3650    1.0910   -0.7840 Br  0  0  0  0  0  0  0  0  0  0  0  0
    3.6810   -1.0300    0.1250 C   0  0  0  0  0  0  0  0  0  0  0  0
    4.7940   -1.8560    0.0610 O   0  0  0  0  0  0  0  0  0  0  0  0
    2.4710   -1.5320    0.5330 C   0  0  0  0  0  0  0  0  0  0  0  0
    1.3070   -0.7560    0.6220 C   0  0  0  0  0  0  0  0  0  0  0  0
    0.1480   -1.3500    1.0490 O   0  0  0  0  0  0  0  0  0  0  0  0
   -1.0600    1.3850    0.2620 N   0  0  0  0  0  0  0  0  0  0  0  0
   -1.8260    0.2320   -0.0150 C   0  0  0  0  0  0  0  0  0  0  0  0
   -2.7340   -0.2580    0.8900 C   0  0  0  0  0  0  0  0  0  0  0  0
   -3.5290   -1.3550    0.6280 C   0  0  0  0  0  0  0  0  0  0  0  0
   -3.3980   -1.9860   -0.6110 C   0  0  0  0  0  0  0  0  0  0  0  0
   -2.4910   -1.5010   -1.5220 C   0  0  0  0  0  0  0  0  0  0  0  0
   -1.7030   -0.3940   -1.2310 C   0  0  0  0  0  0  0  0  0  0  0  0
   -0.8370    0.0100   -2.1950 F   0  0  0  0  0  0  0  0  0  0  0  0
  1  2  2  0
  2  3  1  0
  2 15  1  0
  3  4  1  0
  4  5  2  0
  5  6  1  0
  5 15  1  0
  6  7  2  0
  6 13  1  0
  7  8  1  0
  8  9  1  0
  8 10  2  0
 10 11  1  0
 10 12  1  0
 12 13  2  0
 13 14  1  0
 15 16  1  0
 16 17  2  0
 16 21  1  0
 17 18  1  0
 18 19  2  0
 19 20  1  0
 20 21  2  0
 21 22  1  0
M  END
