
     RDKit          3D

 22 23  0  0  0  0  0  0  0  0999 V2000
    4.7260   -2.4130   -0.5120 C   0  0  0  0  0  0  0  0  0  0  0  0
    4.9850   -0.9200   -0.4500 C   0  0  0  0  0  0  0  0  0  0  0  0
    6.2690   -0.5830   -0.5570 F   0  0  0  0  0  0  0  0  0  0  0  0
    3.9610   -0.1230   -0.3040 C   0  0  0  0  0  0  0  0  0  0  0  0
    2.6350   -0.7140   -0.2090 N   0  0  0  0  0  0  0  0  0  0  0  0
    1.4910    0.1060   -0.0500 C   0  0  0  0  0  0  0  0  0  0  0  0
    1.6110    1.4740    0.0180 C   0  0  0  0  0  0  0  0  0  0  0  0
    0.5050    2.2520    0.1710 N   0  0  0  0  0  0  0  0  0  0  0  0
   -0.7360    1.6850    0.2590 C   0  0  0  0  0  0  0  0  0  0  0  0
   -0.9100    0.3260    0.1970 C   0  0  0  0  0  0  0  0  0  0  0  0
   -2.1440   -0.3490    0.2780 N   0  0  0  0  0  0  0  0  0  0  0  0
   -3.3920    0.2900    0.4370 C   0  0  0  0  0  0  0  0  0  0  0  0
   -3.5280    1.5240    0.5220 O   0  0  0  0  0  0  0  0  0  0  0  0
   -4.6640   -0.5360    0.5130 C   0  0  2  0  0  0  0  0  0  0  0  0
   -4.7400   -1.3170   -0.8030 C   0  0  0  0  0  0  0  0  0  0  0  0
   -5.8560    0.3910    0.5120 C   0  0  0  0  0  0  0  0  0  0  0  0
    0.2410   -0.4440    0.0400 C   0  0  0  0  0  0  0  0  0  0  0  0
    0.1120   -1.7110   -0.0210 O   0  0  0  0  0  0  0  0  0  0  0  0
    2.8630    2.0200   -0.0720 O   0  0  0  0  0  0  0  0  0  0  0  0
    4.0580    1.3130   -0.2300 C   0  0  0  0  0  0  0  0  0  0  0  0
    5.2130    1.9220   -0.3070 C   0  0  0  0  0  0  0  0  0  0  0  0
    5.1740    3.8540   -0.1910 Br  0  0  0  0  0  0  0  0  0  0  0  0
  1  2  1  0
  2  3  1  0
  2  4  2  3
  4  5  1  0
  4 20  1  0
  5  6  1  0
  6  7  2  0
  6 17  1  0
  7  8  1  0
  7 19  1  0
  8  9  1  0
  9 10  2  0
 10 11  1  0
 10 17  1  0
 11 12  1  0
 12 13  2  0
 12 14  1  0
 14 15  1  6
 14 16  1  0
 17 18  2  0
 19 20  1  0
 20 21  2  3
 21 22  1  0
M  END
