
     RDKit          3D

 22 24  0  0  0  0  0  0  0  0999 V2000
    5.0680    2.0930    0.1010 N   0  0  0  0  0  0  0  0  0  0  0  0
    4.1930    0.9850    0.0870 C   0  0  0  0  0  0  0  0  0  0  0  0
    4.5170   -0.2230    0.5640 N   0  0  0  0  0  0  0  0  0  0  0  0
    3.6680   -1.2470    0.5350 C   0  0  0  0  0  0  0  0  0  0  0  0
    3.9430   -2.3940    0.9750 O   0  0  0  0  0  0  0  0  0  0  0  0
    2.4020   -1.0760   -0.0030 C   0  0  0  0  0  0  0  0  0  0  0  0
    1.4760   -2.0730   -0.0690 C   0  0  0  0  0  0  0  0  0  0  0  0
    1.7680   -3.2090    0.3740 O   0  0  0  0  0  0  0  0  0  0  0  0
    0.2400   -1.8490   -0.6110 N   0  0  0  0  0  0  0  0  0  0  0  0
   -0.0930   -0.6440   -1.0910 C   0  0  0  0  0  0  0  0  0  0  0  0
   -1.4260   -0.4340   -1.6660 C   0  0  0  0  0  0  0  0  0  0  0  0
   -2.4320    0.0070   -0.6670 C   0  0  0  0  0  0  0  0  0  0  0  0
   -3.1880   -0.9110    0.0360 C   0  0  0  0  0  0  0  0  0  0  0  0
   -4.1250   -0.5200    0.9660 C   0  0  0  0  0  0  0  0  0  0  0  0
   -4.8450   -1.4670    1.6320 F   0  0  0  0  0  0  0  0  0  0  0  0
   -4.3480    0.8140    1.2360 C   0  0  0  0  0  0  0  0  0  0  0  0
   -3.6090    1.7370    0.5500 C   0  0  0  0  0  0  0  0  0  0  0  0
   -3.9140    3.5860    0.9200 Br  0  0  0  0  0  0  0  0  0  0  0  0
   -2.6610    1.3380   -0.3910 C   0  0  0  0  0  0  0  0  0  0  0  0
    0.8280    0.3640   -1.0300 C   0  0  0  0  0  0  0  0  0  0  0  0
    2.1020    0.1660   -0.4810 C   0  0  0  0  0  0  0  0  0  0  0  0
    2.9770    1.1210   -0.4220 O   0  0  0  0  0  0  0  0  0  0  0  0
  1  2  1  0
  2  3  2  0
  2 22  1  0
  3  4  1  0
  4  5  2  0
  4  6  1  0
  6  7  1  0
  6 21  2  0
  7  8  2  0
  7  9  1  0
  9 10  1  0
 10 11  1  0
 10 20  2  0
 11 12  1  0
 12 13  2  0
 12 19  1  0
 13 14  1  0
 14 15  1  0
 14 16  2  0
 16 17  1  0
 17 18  1  0
 17 19  2  0
 20 21  1  0
 21 22  1  0
M  END
