
     RDKit          3D

 21 23  0  0  0  0  0  0  0  0999 V2000
   -1.8190    0.8010    0.2880 O   0  0  0  0  0  0  0  0  0  0  0  0
   -1.4890   -0.4080    0.1920 C   0  0  0  0  0  0  0  0  0  0  0  0
   -2.4020   -1.5290    0.1830 C   0  0  0  0  0  0  0  0  0  0  0  0
   -3.6830   -1.5410    0.2650 C   0  0  0  0  0  0  0  0  0  0  0  0
   -4.6060   -0.4340    0.3930 C   0  0  0  0  0  0  0  0  0  0  0  0
   -5.9860   -0.5410    0.4770 C   0  0  0  0  0  0  0  0  0  0  0  0
   -6.4680    0.7350    0.5860 C   0  0  0  0  0  0  0  0  0  0  0  0
   -5.3750    1.5520    0.5660 C   0  0  0  0  0  0  0  0  0  0  0  0
   -4.3040    0.8200    0.4510 O   0  0  0  0  0  0  0  0  0  0  0  0
   -0.0590   -0.6100    0.0870 N   0  0  0  0  0  0  0  0  0  0  0  0
    0.8560    0.4690    0.0940 C   0  0  0  0  0  0  0  0  0  0  0  0
    0.3530    1.6420    0.1980 O   0  0  0  0  0  0  0  0  0  0  0  0
    2.2970    0.3120   -0.0100 C   0  0  0  0  0  0  0  0  0  0  0  0
    3.1290    1.3990    0.0030 N   0  0  0  0  0  0  0  0  0  0  0  0
    4.3970    0.9780   -0.1060 C   0  0  0  0  0  0  0  0  0  0  0  0
    5.7060    1.4280   -0.1630 C   0  0  0  0  0  0  0  0  0  0  0  0
    6.5130    0.3690   -0.2810 N   0  0  0  0  0  0  0  0  0  0  0  0
    5.7540   -0.7310   -0.2990 C   0  0  0  0  0  0  0  0  0  0  0  0
    4.4220   -0.3960   -0.1920 C   0  0  0  0  0  0  0  0  0  0  0  0
    3.0950   -0.7930   -0.1300 C   0  0  0  0  0  0  0  0  0  0  0  0
    2.5130   -2.5960   -0.2030 Br  0  0  0  0  0  0  0  0  0  0  0  0
  1  2  2  0
  2  3  1  0
  2 10  1  0
  3  4  2  3
  4  5  1  0
  5  6  2  0
  5  9  1  0
  6  7  1  0
  7  8  2  0
  8  9  1  0
 10 11  1  0
 11 12  2  0
 11 13  1  0
 13 14  1  0
 13 20  2  0
 14 15  1  0
 15 16  2  0
 15 19  1  0
 16 17  1  0
 17 18  1  0
 18 19  2  0
 19 20  1  0
 20 21  1  0
M  END
