
     RDKit          3D

 21 23  0  0  0  0  0  0  0  0999 V2000
   -2.3730   -1.8810    2.0550 N   0  0  0  0  0  0  0  0  0  0  0  0
   -2.8950   -0.8450    1.2590 C   0  0  0  0  0  0  0  0  0  0  0  0
   -4.1080   -0.2920    1.4280 N   0  0  0  0  0  0  0  0  0  0  0  0
   -4.5510    0.6970    0.6330 C   0  0  0  0  0  0  0  0  0  0  0  0
   -5.6900    1.2260    0.7810 O   0  0  0  0  0  0  0  0  0  0  0  0
   -3.7840    1.1670   -0.3670 N   0  0  0  0  0  0  0  0  0  0  0  0
   -2.5570    0.6720   -0.6080 C   0  0  0  0  0  0  0  0  0  0  0  0
   -1.7860    1.1670   -1.6370 C   0  0  0  0  0  0  0  0  0  0  0  0
   -0.5390    0.6170   -1.8310 C   0  0  0  0  0  0  0  0  0  0  0  0
   -0.0510   -0.4050   -1.0280 C   0  0  0  0  0  0  0  0  0  0  0  0
    1.1860   -0.9560   -1.2150 O   0  0  0  0  0  0  0  0  0  0  0  0
    2.3430   -0.4770   -0.5950 C   0  0  0  0  0  0  0  0  0  0  0  0
    3.5470   -1.1000   -0.8470 C   0  0  0  0  0  0  0  0  0  0  0  0
    4.7150   -0.6400   -0.2400 C   0  0  0  0  0  0  0  0  0  0  0  0
    4.6770    0.4420    0.6160 C   0  0  0  0  0  0  0  0  0  0  0  0
    5.8100    0.9140    1.2260 F   0  0  0  0  0  0  0  0  0  0  0  0
    3.4870    1.0750    0.8780 C   0  0  0  0  0  0  0  0  0  0  0  0
    3.4450    2.5760    2.0680 Br  0  0  0  0  0  0  0  0  0  0  0  0
    2.3450    0.5970    0.2630 C   0  0  0  0  0  0  0  0  0  0  0  0
   -0.8530   -0.8780   -0.0040 C   0  0  0  0  0  0  0  0  0  0  0  0
   -2.1070   -0.3480    0.2160 C   0  0  0  0  0  0  0  0  0  0  0  0
  1  2  1  0
  2  3  2  0
  2 21  1  0
  3  4  1  0
  4  5  2  0
  4  6  1  0
  6  7  1  0
  7  8  2  0
  7 21  1  0
  8  9  1  0
  9 10  2  0
 10 11  1  0
 10 20  1  0
 11 12  1  0
 12 13  2  0
 12 19  1  0
 13 14  1  0
 14 15  2  0
 15 16  1  0
 15 17  1  0
 17 18  1  0
 17 19  2  0
 20 21  2  0
M  END
