
     RDKit          3D

 37 38  0  0  0  0  0  0  0  0999 V2000
   -2.1990   -4.3590   -0.8370 C   0  0  0  0  0  0  0  0  0  0  0  0
   -3.1780   -3.8890   -1.5200 C   0  0  0  0  0  0  0  0  0  0  0  0
   -3.9720   -2.6800   -1.4790 C   0  0  0  0  0  0  0  0  0  0  0  0
   -4.9430   -2.5940   -2.4040 C   0  0  0  0  0  0  0  0  0  0  0  0
   -5.1720   -3.7000   -3.4110 C   0  0  0  0  0  0  0  0  0  0  0  0
   -5.8230   -1.4280   -2.5060 C   0  0  0  0  0  0  0  0  0  0  0  0
   -5.6400   -0.4620   -1.4870 N   0  0  0  0  0  0  0  0  0  0  0  0
   -4.6230   -0.5340   -0.5090 C   0  0  0  0  0  0  0  0  0  0  0  0
   -4.4820    0.4820    0.4210 O   0  0  0  0  0  0  0  0  0  0  0  0
   -5.1440    1.7090    0.2580 C   0  0  0  0  0  0  0  0  0  0  0  0
   -3.8210   -1.5800   -0.4940 C   0  0  0  0  0  0  0  0  0  0  0  0
   -2.7110   -1.6630    0.4400 C   0  0  0  0  0  0  0  0  0  0  0  0
   -2.3630   -0.4450    1.2400 C   0  0  0  0  0  0  0  0  0  0  0  0
   -1.9040    0.6320    0.3120 C   0  0  0  0  0  0  0  0  0  0  0  0
   -1.7510    0.3910   -0.9130 O   0  0  0  0  0  0  0  0  0  0  0  0
   -1.6270    1.9470    0.7680 N   0  0  0  0  0  0  0  0  0  0  0  0
   -1.1720    3.0130   -0.0880 C   0  0  0  0  0  0  0  0  0  0  0  0
    0.1550    2.6550   -0.6830 C   0  0  0  0  0  0  0  0  0  0  0  0
    1.2110    2.4240    0.3160 C   0  0  0  0  0  0  0  0  0  0  0  0
    1.7690    1.1860    0.4050 C   0  0  0  0  0  0  0  0  0  0  0  0
    2.8090    0.9220    1.3790 C   0  0  0  0  0  0  0  0  0  0  0  0
    3.4130   -0.2140    1.5550 C   0  0  0  0  0  0  0  0  0  0  0  0
    3.0190   -1.6050    0.5940 S   0  0  1  0  0  0  0  0  0  0  0  0
    1.5040   -1.7200    0.5360 O   0  0  0  0  0  0  0  0  0  0  0  0
    3.5360   -1.5220   -0.8060 O   0  0  0  0  0  0  0  0  0  0  0  0
    3.5680   -3.0170    1.4120 N   0  0  0  0  0  0  0  0  0  0  0  0
    4.9650   -3.0530    1.6210 C   0  0  0  0  0  0  0  0  0  0  0  0
    5.7850   -3.9160    0.7370 C   0  0  0  0  0  0  0  0  0  0  0  0
    5.0640   -4.9980    0.0100 C   0  0  0  0  0  0  0  0  0  0  0  0
    3.8510   -5.4000    0.8180 C   0  0  0  0  0  0  0  0  0  0  0  0
    2.9480   -4.2150    0.9340 C   0  0  0  0  0  0  0  0  0  0  0  0
    1.8220    3.6430    1.3780 S   0  0  0  0  0  0  0  0  0  0  0  0
    1.2260    5.3010    1.2500 C   0  0  0  0  0  0  0  0  0  0  0  0
    1.5790    6.0220   -0.0250 C   0  0  1  0  0  0  0  0  0  0  0  0
    1.0370    7.3200    0.0480 O   0  0  0  0  0  0  0  0  0  0  0  0
    3.0810    6.1380   -0.1620 C   0  0  0  0  0  0  0  0  0  0  0  0
    3.3930    6.8640   -1.4490 C   0  0  0  0  0  0  0  0  0  0  0  0
  1  2  2  0
  2  3  1  0
  3  4  2  0
  3 11  1  0
  4  5  1  0
  4  6  1  0
  6  7  1  0
  7  8  1  0
  8  9  1  0
  8 11  2  0
  9 10  1  0
 11 12  1  0
 12 13  1  0
 13 14  1  0
 14 15  2  0
 14 16  1  0
 16 17  1  0
 17 18  1  0
 18 19  1  0
 19 20  2  3
 19 32  1  0
 20 21  1  0
 21 22  2  3
 22 23  1  0
 23 24  2  0
 23 25  2  0
 23 26  1  1
 26 27  1  0
 26 31  1  0
 27 28  1  0
 28 29  1  0
 29 30  1  0
 30 31  1  0
 32 33  1  0
 33 34  1  0
 34 35  1  1
 34 36  1  0
 36 37  1  0
M  END
