
     RDKit          3D

 37 39  0  0  0  0  0  0  0  0999 V2000
    4.2080   -1.1550    0.6460 C   0  0  0  0  0  0  0  0  0  0  0  0
    5.2040   -1.3980   -0.4080 C   0  0  0  0  0  0  0  0  0  0  0  0
    6.4380   -0.6200   -0.4410 C   0  0  0  0  0  0  0  0  0  0  0  0
    6.7020    0.3140    0.4430 C   0  0  0  0  0  0  0  0  0  0  0  0
    7.9480    1.0770    0.3850 C   0  0  2  0  0  0  0  0  0  0  0  0
    9.2570    0.3580    0.3170 C   0  0  0  0  0  0  0  0  0  0  0  0
    8.8410    0.9590    1.6300 C   0  0  1  0  0  0  0  0  0  0  0  0
    9.5020    2.2690    2.0570 C   0  0  0  0  0  0  0  0  0  0  0  0
   10.5000    1.9410    3.5150 S   0  0  0  0  0  0  0  0  0  0  0  0
   11.4300    0.7740    3.3180 O   0  0  0  0  0  0  0  0  0  0  0  0
    4.9920   -2.3100   -1.3130 C   0  0  0  0  0  0  0  0  0  0  0  0
    3.5150   -3.2990   -1.3300 S   0  0  0  0  0  0  0  0  0  0  0  0
    2.1110   -2.4140   -2.0230 C   0  0  0  0  0  0  0  0  0  0  0  0
    1.8480   -2.4410   -3.3740 C   0  0  0  0  0  0  0  0  0  0  0  0
    0.7630   -1.7530   -3.8510 C   0  0  0  0  0  0  0  0  0  0  0  0
   -0.0420   -1.0520   -2.9780 C   0  0  0  0  0  0  0  0  0  0  0  0
    0.2010   -1.0110   -1.6250 C   0  0  0  0  0  0  0  0  0  0  0  0
   -0.6530   -0.2620   -0.6850 C   0  0  0  0  0  0  0  0  0  0  0  0
   -1.7640   -1.1880   -0.2070 C   0  0  1  0  0  0  0  0  0  0  0  0
   -1.1920   -2.4050    0.4870 C   0  0  0  0  0  0  0  0  0  0  0  0
   -2.6960   -0.5060    0.5750 O   0  0  0  0  0  0  0  0  0  0  0  0
   -4.0510   -0.3390    0.1910 C   0  0  0  0  0  0  0  0  0  0  0  0
   -4.3050   -0.8640   -0.9080 O   0  0  0  0  0  0  0  0  0  0  0  0
   -4.9390    0.3770    1.0600 C   0  0  0  0  0  0  0  0  0  0  0  0
   -4.5310    0.8960    2.2910 C   0  0  0  0  0  0  0  0  0  0  0  0
   -5.5880    1.4750    2.8620 N   0  0  0  0  0  0  0  0  0  0  0  0
   -6.6090    1.3280    2.0280 C   0  0  0  0  0  0  0  0  0  0  0  0
   -7.9850    1.8350    2.3800 C   0  0  0  0  0  0  0  0  0  0  0  0
   -8.1160    1.8810    3.7910 O   0  0  0  0  0  0  0  0  0  0  0  0
   -6.2380    0.6550    0.9060 N   0  0  0  0  0  0  0  0  0  0  0  0
   -7.1120    0.3500   -0.1730 C   0  0  2  0  0  0  0  0  0  0  0  0
   -7.2220   -1.1760   -0.3410 C   0  0  0  0  0  0  0  0  0  0  0  0
   -6.8810    1.0170   -1.4780 C   0  0  0  0  0  0  0  0  0  0  0  0
   -6.9400    2.4900   -1.4780 C   0  0  0  0  0  0  0  0  0  0  0  0
   -6.7500    3.2180   -2.6710 N   0  0  0  0  0  0  0  0  0  0  0  0
   -7.1540    3.1450   -0.4440 O   0  0  0  0  0  0  0  0  0  0  0  0
    1.3020   -1.7090   -1.1480 C   0  0  0  0  0  0  0  0  0  0  0  0
  1  2  1  0
  2  3  1  0
  2 11  2  3
  3  4  2  3
  5  4  1  1
  5  6  1  0
  5  7  1  0
  6  7  1  0
  7  8  1  6
  8  9  1  0
  9 10  2  0
 11 12  1  0
 12 13  1  0
 13 14  2  0
 13 37  1  0
 14 15  1  0
 15 16  2  0
 16 17  1  0
 17 18  1  0
 17 37  2  0
 18 19  1  0
 19 20  1  1
 19 21  1  0
 21 22  1  0
 22 23  2  0
 22 24  1  0
 24 25  2  0
 24 30  1  0
 25 26  1  0
 26 27  2  0
 27 28  1  0
 27 30  1  0
 28 29  1  0
 30 31  1  0
 31 32  1  6
 31 33  1  0
 33 34  1  0
 34 35  1  0
 34 36  2  0
M  END
