
     RDKit          3D

 37 39  0  0  0  0  0  0  0  0999 V2000
   -5.7300   -3.3800   -1.4040 C   0  0  0  0  0  0  0  0  0  0  0  0
   -4.7010   -2.5060   -0.8670 N   0  0  0  0  0  0  0  0  0  0  0  0
   -3.8350   -3.3350   -0.0310 C   0  0  1  0  0  0  0  0  0  0  0  0
   -3.2080   -4.3600   -0.9530 C   0  0  0  0  0  0  0  0  0  0  0  0
   -2.7870   -2.4870    0.5940 C   0  0  0  0  0  0  0  0  0  0  0  0
   -2.4930   -2.6210    1.9420 C   0  0  0  0  0  0  0  0  0  0  0  0
   -1.5280   -1.8460    2.5500 C   0  0  0  0  0  0  0  0  0  0  0  0
   -0.8120   -0.9020    1.8500 C   0  0  0  0  0  0  0  0  0  0  0  0
   -1.0860   -0.7490    0.5050 C   0  0  0  0  0  0  0  0  0  0  0  0
   -0.3810    0.2360   -0.3170 C   0  0  2  0  0  0  0  0  0  0  0  0
    1.0360    0.3260   -0.1090 N   0  0  0  0  0  0  0  0  0  0  0  0
    1.7310    1.2370    0.6910 C   0  0  0  0  0  0  0  0  0  0  0  0
    1.0100    2.0880    1.3270 O   0  0  0  0  0  0  0  0  0  0  0  0
    3.1710    1.3470    0.8990 C   0  0  0  0  0  0  0  0  0  0  0  0
    3.6550    2.3800    1.6840 C   0  0  0  0  0  0  0  0  0  0  0  0
    2.6910    3.2590    2.2200 O   0  0  0  0  0  0  0  0  0  0  0  0
    2.9330    4.3530    3.0290 C   0  0  0  0  0  0  0  0  0  0  0  0
    4.9700    2.5530    1.9340 C   0  0  0  0  0  0  0  0  0  0  0  0
    5.8770    1.6770    1.3950 C   0  0  0  0  0  0  0  0  0  0  0  0
    5.4340    0.6420    0.6120 C   0  0  0  0  0  0  0  0  0  0  0  0
    4.0840    0.4450    0.3430 C   0  0  0  0  0  0  0  0  0  0  0  0
    3.6590   -0.5860   -0.4390 O   0  0  0  0  0  0  0  0  0  0  0  0
    4.3020   -1.6130   -1.0820 C   0  0  0  0  0  0  0  0  0  0  0  0
    5.0020   -2.6200   -0.2170 C   0  0  0  0  0  0  0  0  0  0  0  0
    5.6010   -3.6030   -0.9700 O   0  0  0  0  0  0  0  0  0  0  0  0
    6.5830   -3.2250   -1.8470 C   0  0  0  0  0  0  0  0  0  0  0  0
   -1.0990    1.5330   -0.4050 C   0  0  0  0  0  0  0  0  0  0  0  0
   -0.5440    2.6390   -0.4690 O   0  0  0  0  0  0  0  0  0  0  0  0
   -2.5370    1.5600   -0.4170 N   0  0  0  0  0  0  0  0  0  0  0  0
   -3.2500    2.8010   -0.5020 C   0  0  0  0  0  0  0  0  0  0  0  0
   -4.0640    2.9510   -1.5110 C   0  0  0  0  0  0  0  0  0  0  0  0
   -4.9000    4.1180   -1.8170 C   0  0  1  0  0  0  0  0  0  0  0  0
   -6.6540    3.5950   -1.8520 S   0  0  0  0  0  0  0  0  0  0  0  0
   -4.7220    5.4570   -0.6410 S   0  0  0  0  0  0  0  0  0  0  0  0
   -3.5580    4.9520    0.5970 C   0  0  0  0  0  0  0  0  0  0  0  0
   -2.9960    3.7750    0.5350 C   0  0  0  0  0  0  0  0  0  0  0  0
   -2.0670   -1.5440   -0.0970 C   0  0  0  0  0  0  0  0  0  0  0  0
  1  2  1  0
  2  3  1  0
  3  4  1  6
  3  5  1  0
  5  6  2  0
  5 37  1  0
  6  7  1  0
  7  8  2  0
  8  9  1  0
  9 10  1  0
  9 37  2  0
 10 11  1  1
 10 27  1  0
 11 12  1  0
 12 13  2  0
 12 14  1  0
 14 15  2  0
 14 21  1  0
 15 16  1  0
 15 18  1  0
 16 17  1  0
 18 19  2  0
 19 20  1  0
 20 21  2  0
 21 22  1  0
 22 23  1  0
 23 24  1  0
 24 25  1  0
 25 26  1  0
 27 28  2  0
 27 29  1  0
 29 30  1  0
 30 31  2  0
 30 36  1  0
 31 32  1  0
 32 33  1  1
 32 34  1  0
 34 35  1  0
 35 36  2  0
M  END
