
     RDKit          3D

 37 39  0  0  0  0  0  0  0  0999 V2000
    6.6370    3.5270    2.9570 C   0  0  0  0  0  0  0  0  0  0  0  0
    6.4550    2.2520    2.1760 C   0  0  0  0  0  0  0  0  0  0  0  0
    7.3930    1.2660    2.1350 C   0  0  0  0  0  0  0  0  0  0  0  0
    7.1500    0.1130    1.3670 C   0  0  0  0  0  0  0  0  0  0  0  0
    6.0040   -0.0920    0.6380 C   0  0  0  0  0  0  0  0  0  0  0  0
    5.7430   -1.3260    0.0050 N   0  0  0  0  0  0  0  0  0  0  0  0
    6.6360   -2.3630   -0.3010 C   0  0  0  0  0  0  0  0  0  0  0  0
    7.8460   -2.2590   -0.0300 O   0  0  0  0  0  0  0  0  0  0  0  0
    6.1860   -3.5940   -0.9440 C   0  0  0  0  0  0  0  0  0  0  0  0
    5.0300   -4.1030   -1.3860 C   0  0  0  0  0  0  0  0  0  0  0  0
    4.9700   -5.3180   -1.9220 C   0  0  0  0  0  0  0  0  0  0  0  0
    6.0950   -6.1020   -2.0430 C   0  0  0  0  0  0  0  0  0  0  0  0
    7.3730   -4.9910   -1.3190 S   0  0  0  0  0  0  0  0  0  0  0  0
    5.0590    0.9200    0.6840 C   0  0  0  0  0  0  0  0  0  0  0  0
    3.9210    0.8850   -0.2190 C   0  0  0  0  0  0  0  0  0  0  0  0
    3.8780    0.1140   -1.1800 O   0  0  0  0  0  0  0  0  0  0  0  0
    2.8320    1.7510   -0.0070 N   0  0  0  0  0  0  0  0  0  0  0  0
    1.6490    1.8330   -0.8740 C   0  0  1  0  0  0  0  0  0  0  0  0
    1.3710    0.3540   -1.3270 C   0  0  0  0  0  0  0  0  0  0  0  0
    0.4550    2.2380   -0.1150 C   0  0  0  0  0  0  0  0  0  0  0  0
   -0.8250    2.4150   -0.8600 C   0  0  0  0  0  0  0  0  0  0  0  0
   -1.9620    2.6070    0.1160 C   0  0  0  0  0  0  0  0  0  0  0  0
   -1.6440    2.5050    1.3450 O   0  0  0  0  0  0  0  0  0  0  0  0
   -3.2800    2.8640   -0.2670 N   0  0  0  0  0  0  0  0  0  0  0  0
   -4.3530    2.9800    0.7180 C   0  0  0  0  0  0  0  0  0  0  0  0
   -4.4680    1.6260    1.4610 C   0  0  0  0  0  0  0  0  0  0  0  0
   -4.7390    0.6970    0.4730 O   0  0  0  0  0  0  0  0  0  0  0  0
   -4.8770   -0.5980    0.8970 C   0  0  2  0  0  0  0  0  0  0  0  0
   -3.9020   -1.4870    0.1050 C   0  0  0  0  0  0  0  0  0  0  0  0
   -4.0260   -1.0460   -1.3480 C   0  0  0  0  0  0  0  0  0  0  0  0
   -5.4100   -1.2640   -1.8790 C   0  0  0  0  0  0  0  0  0  0  0  0
   -6.4050   -0.5920   -0.9740 C   0  0  1  0  0  0  0  0  0  0  0  0
   -8.0740   -0.6060   -1.5820 S   0  0  0  0  0  0  0  0  0  0  0  0
   -8.6770   -2.2810   -1.8220 C   0  0  0  0  0  0  0  0  0  0  0  0
   -9.0070    0.1620   -0.6600 O   0  0  0  0  0  0  0  0  0  0  0  0
   -6.2680   -1.0870    0.4570 C   0  0  0  0  0  0  0  0  0  0  0  0
    5.2830    2.0850    1.4530 C   0  0  0  0  0  0  0  0  0  0  0  0
  1  2  1  0
  2  3  2  0
  2 37  1  0
  3  4  1  0
  4  5  2  0
  5  6  1  0
  5 14  1  0
  6  7  1  0
  7  8  2  0
  7  9  1  0
  9 10  2  0
  9 13  1  0
 10 11  1  0
 11 12  2  0
 12 13  1  0
 14 15  1  0
 14 37  2  0
 15 16  2  0
 15 17  1  0
 17 18  1  0
 18 19  1  1
 18 20  1  0
 20 21  1  0
 21 22  1  0
 22 23  2  0
 22 24  1  0
 24 25  1  0
 25 26  1  0
 26 27  1  0
 28 27  1  6
 28 29  1  0
 28 36  1  0
 29 30  1  0
 30 31  1  0
 32 31  1  6
 32 33  1  0
 32 36  1  0
 33 34  1  1
 33 35  2  0
M  END
