
     RDKit          3D

 37 39  0  0  0  0  0  0  0  0999 V2000
   -3.4830   -3.9380    0.9290 C   0  0  0  0  0  0  0  0  0  0  0  0
   -3.8320   -3.3200   -0.1550 C   0  0  0  0  0  0  0  0  0  0  0  0
   -3.3200   -1.9950   -0.6220 C   0  0  0  0  0  0  0  0  0  0  0  0
   -3.8210   -1.6130   -1.7670 C   0  0  0  0  0  0  0  0  0  0  0  0
   -3.6330   -0.4420   -2.6060 C   0  0  0  0  0  0  0  0  0  0  0  0
   -2.3260   -1.3230    0.2390 C   0  0  2  0  0  0  0  0  0  0  0  0
   -3.0090   -1.2490    1.6130 C   0  0  0  0  0  0  0  0  0  0  0  0
   -2.3740   -1.1490    2.7580 C   0  0  0  0  0  0  0  0  0  0  0  0
   -3.3570   -1.0970    3.8480 C   0  0  0  0  0  0  0  0  0  0  0  0
   -4.6550   -1.1590    3.1620 C   0  0  0  0  0  0  0  0  0  0  0  0
   -4.4130   -1.2510    1.8540 C   0  0  0  0  0  0  0  0  0  0  0  0
   -2.0130    0.0620   -0.1700 C   0  0  0  0  0  0  0  0  0  0  0  0
   -0.7200    0.4180   -0.4900 C   0  0  0  0  0  0  0  0  0  0  0  0
    0.3460   -0.5600   -0.6210 C   0  0  0  0  0  0  0  0  0  0  0  0
    0.1920   -1.7850   -1.2010 C   0  0  0  0  0  0  0  0  0  0  0  0
    1.2120   -2.6960   -1.2250 N   0  0  0  0  0  0  0  0  0  0  0  0
    2.4100   -2.4310   -0.6830 C   0  0  0  0  0  0  0  0  0  0  0  0
    3.3670   -3.2450   -0.6880 O   0  0  0  0  0  0  0  0  0  0  0  0
    2.6080   -1.2370   -0.1030 N   0  0  0  0  0  0  0  0  0  0  0  0
    3.8770   -0.9300    0.4810 C   0  0  0  0  0  0  0  0  0  0  0  0
    4.8240   -0.3040   -0.4340 C   0  0  0  0  0  0  0  0  0  0  0  0
    4.5090   -0.0760   -1.6230 O   0  0  0  0  0  0  0  0  0  0  0  0
    6.0910    0.0520   -0.0180 O   0  0  0  0  0  0  0  0  0  0  0  0
    7.0360    0.6510   -0.8480 C   0  0  1  0  0  0  0  0  0  0  0  0
    7.4610    2.0220   -0.3790 C   0  0  0  0  0  0  0  0  0  0  0  0
    8.2630   -0.2310   -1.0560 C   0  0  0  0  0  0  0  0  0  0  0  0
    9.0730   -0.5850    0.5130 S   0  0  0  0  0  0  0  0  0  0  0  0
    1.6140   -0.3270   -0.0690 C   0  0  0  0  0  0  0  0  0  0  0  0
    1.8310    0.7760    0.4830 O   0  0  0  0  0  0  0  0  0  0  0  0
   -0.3450    1.7340   -0.6740 N   0  0  0  0  0  0  0  0  0  0  0  0
   -1.2550    2.7020   -0.5430 C   0  0  0  0  0  0  0  0  0  0  0  0
   -0.8470    4.1030   -0.7400 C   0  0  0  0  0  0  0  0  0  0  0  0
   -2.5510    2.3960   -0.2300 C   0  0  0  0  0  0  0  0  0  0  0  0
   -3.7310    3.6990   -0.0670 S   0  0  0  0  0  0  0  0  0  0  0  0
   -5.3760    3.0870    0.3480 C   0  0  0  0  0  0  0  0  0  0  0  0
   -2.9580    1.0720   -0.0370 C   0  0  0  0  0  0  0  0  0  0  0  0
   -4.1410    0.8290    0.2480 O   0  0  0  0  0  0  0  0  0  0  0  0
  1  2  2  0
  2  3  1  0
  3  4  2  3
  6  3  1  6
  4  5  1  0
  6  7  1  0
  6 12  1  0
  7  8  2  0
  7 11  1  0
  8  9  1  0
  9 10  1  0
 10 11  2  0
 12 13  2  0
 12 36  1  0
 13 14  1  0
 13 30  1  0
 14 15  2  0
 14 28  1  0
 15 16  1  0
 16 17  1  0
 17 18  2  0
 17 19  1  0
 19 20  1  0
 19 28  1  0
 20 21  1  0
 21 22  2  0
 21 23  1  0
 23 24  1  0
 24 25  1  1
 24 26  1  0
 26 27  1  0
 28 29  2  0
 30 31  1  0
 31 32  1  0
 31 33  2  0
 33 34  1  0
 33 36  1  0
 34 35  1  0
 36 37  2  0
M  END
