
     RDKit          3D

 37 39  0  0  0  0  0  0  0  0999 V2000
   -4.7730    3.7570   -0.6760 C   0  0  0  0  0  0  0  0  0  0  0  0
   -5.0110    2.4700    0.1340 C   0  0  0  0  0  0  0  0  0  0  0  0
   -4.9700    1.3460   -0.8420 C   0  0  2  0  0  0  0  0  0  0  0  0
   -5.1710   -0.0180   -0.2890 C   0  0  0  0  0  0  0  0  0  0  0  0
   -6.4640   -0.2690    0.4040 C   0  0  2  0  0  0  0  0  0  0  0  0
   -6.5890    0.5910    1.4820 O   0  0  0  0  0  0  0  0  0  0  0  0
   -6.4080   -1.6960    0.9380 C   0  0  0  0  0  0  0  0  0  0  0  0
   -8.0440   -2.2680    1.4540 S   0  0  0  0  0  0  0  0  0  0  0  0
   -9.0630   -0.9070    2.0790 C   0  0  0  0  0  0  0  0  0  0  0  0
   -9.7370   -0.1310    0.9960 C   0  0  0  0  0  0  0  0  0  0  0  0
   -8.9810   -0.0700   -0.2370 N   0  0  0  0  0  0  0  0  0  0  0  0
   -7.6040   -0.2120   -0.5180 C   0  0  0  0  0  0  0  0  0  0  0  0
   -7.3260   -0.3000   -1.7310 O   0  0  0  0  0  0  0  0  0  0  0  0
   -3.5620    1.3880   -1.4500 C   0  0  0  0  0  0  0  0  0  0  0  0
   -3.3760    1.6390   -2.8250 C   0  0  0  0  0  0  0  0  0  0  0  0
   -1.5450    1.5580   -2.9090 S   0  0  0  0  0  0  0  0  0  0  0  0
   -1.3360    1.2080   -1.1180 C   0  0  0  0  0  0  0  0  0  0  0  0
    0.0520    1.0400   -0.6200 C   0  0  0  0  0  0  0  0  0  0  0  0
    0.4460   -0.3490   -0.4820 N   0  0  0  0  0  0  0  0  0  0  0  0
    0.4700   -1.2360   -1.5910 C   0  0  0  0  0  0  0  0  0  0  0  0
    0.1150   -0.7190   -2.7080 O   0  0  0  0  0  0  0  0  0  0  0  0
    0.8600   -2.6550   -1.5330 C   0  0  0  0  0  0  0  0  0  0  0  0
    1.3640   -3.0830   -0.3090 O   0  0  0  0  0  0  0  0  0  0  0  0
    2.5280   -2.5330    0.1920 C   0  0  0  0  0  0  0  0  0  0  0  0
    2.9930   -2.9720    1.4170 C   0  0  0  0  0  0  0  0  0  0  0  0
    4.1400   -2.4740    1.9720 C   0  0  0  0  0  0  0  0  0  0  0  0
    4.8930   -1.4930    1.3140 C   0  0  0  0  0  0  0  0  0  0  0  0
    6.0150   -1.0290    1.8990 O   0  0  0  0  0  0  0  0  0  0  0  0
    6.9480   -0.1250    1.4980 C   0  0  0  0  0  0  0  0  0  0  0  0
    7.7220   -0.5850    0.2920 C   0  0  0  0  0  0  0  0  0  0  0  0
    8.7390    0.4750   -0.1200 C   0  0  2  0  0  0  0  0  0  0  0  0
    9.6710    0.6860    1.0360 C   0  0  0  0  0  0  0  0  0  0  0  0
    8.0440    1.7360   -0.5580 C   0  0  0  0  0  0  0  0  0  0  0  0
    9.5400   -0.0850   -1.2780 C   0  0  0  0  0  0  0  0  0  0  0  0
    4.4200   -1.0710    0.1080 C   0  0  0  0  0  0  0  0  0  0  0  0
    3.2600   -1.5790   -0.4470 C   0  0  0  0  0  0  0  0  0  0  0  0
   -2.4860    1.2010   -0.7630 N   0  0  0  0  0  0  0  0  0  0  0  0
  1  2  1  0
  3  2  1  1
  3  4  1  0
  3 14  1  0
  4  5  1  0
  5  6  1  1
  5  7  1  0
  5 12  1  0
  7  8  1  0
  8  9  1  0
  9 10  1  0
 10 11  1  0
 11 12  1  0
 12 13  2  0
 14 15  2  0
 14 37  1  0
 15 16  1  0
 16 17  1  0
 17 18  1  0
 17 37  2  0
 18 19  1  0
 19 20  1  0
 20 21  2  0
 20 22  1  0
 22 23  1  0
 23 24  1  0
 24 25  2  0
 24 36  1  0
 25 26  1  0
 26 27  2  0
 27 28  1  0
 27 35  1  0
 28 29  1  0
 29 30  1  0
 30 31  1  0
 31 32  1  1
 31 33  1  0
 31 34  1  0
 35 36  2  0
M  END
