
     RDKit          3D

 37 39  0  0  0  0  0  0  0  0999 V2000
   -4.3960    3.5810    2.5940 C   0  0  0  0  0  0  0  0  0  0  0  0
   -3.9330    2.4880    1.7070 C   0  0  0  0  0  0  0  0  0  0  0  0
   -3.0980    1.5320    2.1970 C   0  0  0  0  0  0  0  0  0  0  0  0
   -2.6580    0.5080    1.3860 C   0  0  0  0  0  0  0  0  0  0  0  0
   -3.0520    0.4220    0.0480 C   0  0  0  0  0  0  0  0  0  0  0  0
   -2.5850   -0.6420   -0.7420 N   0  0  0  0  0  0  0  0  0  0  0  0
   -1.6610   -1.6890   -0.3340 C   0  0  2  0  0  0  0  0  0  0  0  0
   -2.1280   -2.5680    0.7640 C   0  0  0  0  0  0  0  0  0  0  0  0
   -1.1790   -2.8670    1.8540 C   0  0  0  0  0  0  0  0  0  0  0  0
    0.2550   -2.5840    1.6320 C   0  0  0  0  0  0  0  0  0  0  0  0
    0.6470   -2.3440    0.1950 C   0  0  2  0  0  0  0  0  0  0  0  0
    0.3720   -3.3400   -0.7070 N   0  0  0  0  0  0  0  0  0  0  0  0
    0.8180   -4.6420   -0.7300 C   0  0  1  0  0  0  0  0  0  0  0  0
    2.2610   -4.9780   -0.8610 C   0  0  0  0  0  0  0  0  0  0  0  0
    0.1660   -5.5890    0.3050 C   0  0  0  0  0  0  0  0  0  0  0  0
    1.9850   -1.6650    0.1150 C   0  0  0  0  0  0  0  0  0  0  0  0
    2.9550   -2.2860   -0.3090 O   0  0  0  0  0  0  0  0  0  0  0  0
    2.1370   -0.3440    0.5050 O   0  0  0  0  0  0  0  0  0  0  0  0
    3.3650    0.3780    0.4550 C   0  0  2  0  0  0  0  0  0  0  0  0
    3.7000    0.8650    1.7980 C   0  0  0  0  0  0  0  0  0  0  0  0
    3.2290    1.3920   -0.6430 C   0  0  0  0  0  0  0  0  0  0  0  0
    4.5750    2.4410   -0.9380 S   0  0  1  0  0  0  0  0  0  0  0  0
    5.7920    1.7080   -1.4690 O   0  0  0  0  0  0  0  0  0  0  0  0
    4.1790    3.3690   -2.0840 O   0  0  0  0  0  0  0  0  0  0  0  0
    5.0240    3.4890    0.4170 C   0  0  0  0  0  0  0  0  0  0  0  0
    6.2000    4.3360   -0.0440 C   0  0  0  0  0  0  0  0  0  0  0  0
    6.7440    5.4370    1.2660 S   0  0  0  0  0  0  0  0  0  0  0  0
    6.9560    4.5790    2.5300 O   0  0  0  0  0  0  0  0  0  0  0  0
   -0.2890   -1.1500   -0.1930 C   0  0  0  0  0  0  0  0  0  0  0  0
   -3.8930    1.3730   -0.4760 C   0  0  0  0  0  0  0  0  0  0  0  0
   -4.3870    1.3870   -1.8720 C   0  0  0  0  0  0  0  0  0  0  0  0
   -5.3490    2.2940   -2.2740 C   0  0  0  0  0  0  0  0  0  0  0  0
   -5.7930    2.2650   -3.6000 C   0  0  0  0  0  0  0  0  0  0  0  0
   -5.2880    1.3570   -4.4890 C   0  0  0  0  0  0  0  0  0  0  0  0
   -4.3140    0.4480   -4.0610 C   0  0  0  0  0  0  0  0  0  0  0  0
   -3.9520    0.5440   -2.7940 N   0  0  0  0  0  0  0  0  0  0  0  0
   -4.3100    2.3880    0.3900 C   0  0  0  0  0  0  0  0  0  0  0  0
  1  2  1  0
  2  3  2  0
  2 37  1  0
  3  4  1  0
  4  5  2  0
  5  6  1  0
  5 30  1  0
  7  6  1  1
  7  8  1  0
  7 29  1  0
  8  9  1  0
  9 10  1  0
 10 11  1  0
 11 12  1  6
 11 16  1  0
 11 29  1  0
 12 13  1  0
 13 14  1  1
 13 15  1  0
 16 17  2  0
 16 18  1  0
 18 19  1  0
 19 20  1  1
 19 21  1  0
 22 21  1  1
 22 23  2  0
 22 24  2  0
 22 25  1  0
 25 26  1  0
 26 27  1  0
 27 28  2  0
 30 31  1  0
 30 37  2  0
 31 32  2  0
 31 36  1  0
 32 33  1  0
 33 34  2  0
 34 35  1  0
 35 36  2  0
M  END
