
     RDKit          3D

 37 39  0  0  0  0  0  0  0  0999 V2000
   -8.1970   -0.3700   -0.5550 C   0  0  0  0  0  0  0  0  0  0  0  0
   -7.1990    0.1930   -1.2170 C   0  0  0  0  0  0  0  0  0  0  0  0
   -6.5060   -0.6160   -2.2740 C   0  0  0  0  0  0  0  0  0  0  0  0
   -4.7610   -0.8030   -1.8830 S   0  0  0  0  0  0  0  0  0  0  0  0
   -6.7680    1.5880   -0.9550 C   0  0  2  0  0  0  0  0  0  0  0  0
   -6.9720    2.4630   -2.1880 C   0  0  0  0  0  0  0  0  0  0  0  0
   -5.3800    1.7000   -0.5680 N   0  0  0  0  0  0  0  0  0  0  0  0
   -4.9370    1.1760    0.6930 C   0  0  0  0  0  0  0  0  0  0  0  0
   -5.7800    0.7900    1.7010 C   0  0  0  0  0  0  0  0  0  0  0  0
   -5.2350    0.2850    2.8620 C   0  0  0  0  0  0  0  0  0  0  0  0
   -3.8630    0.1630    3.0230 C   0  0  0  0  0  0  0  0  0  0  0  0
   -3.3390   -0.3430    4.1890 O   0  0  0  0  0  0  0  0  0  0  0  0
   -4.0440   -0.7810    5.3070 C   0  0  0  0  0  0  0  0  0  0  0  0
   -2.9790    0.5470    2.0190 C   0  0  0  0  0  0  0  0  0  0  0  0
   -1.5980    0.3930    2.2520 N   0  0  0  0  0  0  0  0  0  0  0  0
   -0.5360    0.7110    1.3970 C   0  0  0  0  0  0  0  0  0  0  0  0
   -0.7600    1.1940    0.2720 O   0  0  0  0  0  0  0  0  0  0  0  0
    0.9000    0.4960    1.7670 C   0  0  0  0  0  0  0  0  0  0  0  0
    1.3310   -1.2030    1.3300 S   0  0  0  0  0  0  0  0  0  0  0  0
    1.3100   -1.5130   -0.4460 C   0  0  2  0  0  0  0  0  0  0  0  0
   -0.0570   -1.4370   -1.0610 C   0  0  0  0  0  0  0  0  0  0  0  0
    1.8050   -2.9520   -0.6300 C   0  0  0  0  0  0  0  0  0  0  0  0
    2.2000   -0.5610   -1.1480 C   0  0  0  0  0  0  0  0  0  0  0  0
    1.7200    0.2030   -2.0080 O   0  0  0  0  0  0  0  0  0  0  0  0
    3.5950   -0.4910   -0.8710 N   0  0  0  0  0  0  0  0  0  0  0  0
    4.5080    0.4180   -1.5240 C   0  0  0  0  0  0  0  0  0  0  0  0
    5.8800    0.1970   -0.9710 C   0  0  1  0  0  0  0  0  0  0  0  0
    6.3800   -1.2120   -1.2120 C   0  0  0  0  0  0  0  0  0  0  0  0
    7.6070   -1.3540   -0.5250 O   0  0  0  0  0  0  0  0  0  0  0  0
    8.5270   -0.3090   -0.5440 C   0  0  0  0  0  0  0  0  0  0  0  0
    9.8180   -0.4830   -0.0440 C   0  0  0  0  0  0  0  0  0  0  0  0
   10.7380    0.5400   -0.0560 C   0  0  0  0  0  0  0  0  0  0  0  0
   10.3560    1.7570   -0.5780 C   0  0  0  0  0  0  0  0  0  0  0  0
    9.0810    1.9300   -1.0720 C   0  0  0  0  0  0  0  0  0  0  0  0
    8.1510    0.9090   -1.0640 C   0  0  0  0  0  0  0  0  0  0  0  0
    6.8590    1.0580   -1.5560 O   0  0  0  0  0  0  0  0  0  0  0  0
   -3.5470    1.0450    0.8760 C   0  0  0  0  0  0  0  0  0  0  0  0
  1  2  2  0
  2  3  1  0
  2  5  1  0
  3  4  1  0
  5  6  1  6
  5  7  1  0
  7  8  1  0
  8  9  2  0
  8 37  1  0
  9 10  1  0
 10 11  2  0
 11 12  1  0
 11 14  1  0
 12 13  1  0
 14 15  1  0
 14 37  2  0
 15 16  1  0
 16 17  2  0
 16 18  1  0
 18 19  1  0
 19 20  1  0
 20 21  1  6
 20 22  1  0
 20 23  1  0
 23 24  2  0
 23 25  1  0
 25 26  1  0
 27 26  1  6
 27 28  1  0
 27 36  1  0
 28 29  1  0
 29 30  1  0
 30 31  2  0
 30 35  1  0
 31 32  1  0
 32 33  2  0
 33 34  1  0
 34 35  2  0
 35 36  1  0
M  END
