
     RDKit          3D

 37 39  0  0  0  0  0  0  0  0999 V2000
   -7.9770   -0.4190    0.4060 C   0  0  0  0  0  0  0  0  0  0  0  0
   -6.5120   -0.1530    0.4740 C   0  0  0  0  0  0  0  0  0  0  0  0
   -6.0020    1.1080    0.1780 C   0  0  0  0  0  0  0  0  0  0  0  0
   -4.6600    1.3770    0.2380 C   0  0  0  0  0  0  0  0  0  0  0  0
   -3.7740    0.3920    0.5980 C   0  0  0  0  0  0  0  0  0  0  0  0
   -2.0270    0.6790    0.7110 S   0  0  2  0  0  0  0  0  0  0  0  0
   -1.4700   -0.2590    1.7290 O   0  0  0  0  0  0  0  0  0  0  0  0
   -1.8740    2.1230    1.1100 O   0  0  0  0  0  0  0  0  0  0  0  0
   -1.3520    0.3780   -0.9140 C   0  0  1  0  0  0  0  0  0  0  0  0
    0.1210    0.4070   -0.8640 C   0  0  0  0  0  0  0  0  0  0  0  0
    0.6220    1.7390   -0.3770 C   0  0  0  0  0  0  0  0  0  0  0  0
    2.1250    1.7620   -0.3390 C   0  0  0  0  0  0  0  0  0  0  0  0
    2.7340    0.7640   -0.7600 O   0  0  0  0  0  0  0  0  0  0  0  0
    2.8300    2.8720    0.1580 N   0  0  0  0  0  0  0  0  0  0  0  0
    4.2910    2.8410    0.1780 C   0  0  1  0  0  0  0  0  0  0  0  0
    4.7920    4.0730   -0.5160 C   0  0  0  0  0  0  0  0  0  0  0  0
    4.3260    4.0630   -1.8260 O   0  0  0  0  0  0  0  0  0  0  0  0
    4.6660    2.8000    1.6500 C   0  0  0  0  0  0  0  0  0  0  0  0
    6.4450    2.7530    1.9250 S   0  0  0  0  0  0  0  0  0  0  0  0
    7.1520    1.2070    1.2950 C   0  0  0  0  0  0  0  0  0  0  0  0
    6.6570    0.0180    2.0550 C   0  0  0  0  0  0  0  0  0  0  0  0
    7.3810   -0.3660    3.1620 C   0  0  0  0  0  0  0  0  0  0  0  0
    6.9520   -1.4680    3.8930 C   0  0  0  0  0  0  0  0  0  0  0  0
    5.8270   -2.1170    3.4720 C   0  0  0  0  0  0  0  0  0  0  0  0
    5.1140   -1.7320    2.3740 N   0  0  0  0  0  0  0  0  0  0  0  0
    5.5330   -0.6660    1.6710 C   0  0  0  0  0  0  0  0  0  0  0  0
   -1.8760   -0.9280   -1.4300 C   0  0  0  0  0  0  0  0  0  0  0  0
   -2.6540   -0.9240   -2.5520 C   0  0  0  0  0  0  0  0  0  0  0  0
   -3.1820   -2.1010   -3.0800 C   0  0  0  0  0  0  0  0  0  0  0  0
   -3.8940   -2.0880   -4.1070 O   0  0  0  0  0  0  0  0  0  0  0  0
   -2.9050   -3.3040   -2.4400 C   0  0  0  0  0  0  0  0  0  0  0  0
   -3.4590   -4.5840   -2.9760 C   0  0  0  0  0  0  0  0  0  0  0  0
   -2.1200   -3.2450   -1.3230 C   0  0  0  0  0  0  0  0  0  0  0  0
   -1.6160   -2.0890   -0.8260 N   0  0  0  0  0  0  0  0  0  0  0  0
   -4.2880   -0.8600    0.8910 C   0  0  0  0  0  0  0  0  0  0  0  0
   -5.6280   -1.1430    0.8350 C   0  0  0  0  0  0  0  0  0  0  0  0
   -6.1690   -2.4970    1.1560 C   0  0  0  0  0  0  0  0  0  0  0  0
  1  2  1  0
  2  3  2  0
  2 36  1  0
  3  4  1  0
  4  5  2  0
  6  5  1  6
  5 35  1  0
  6  7  2  0
  6  8  2  0
  6  9  1  0
  9 10  1  1
  9 27  1  0
 10 11  1  0
 11 12  1  0
 12 13  2  0
 12 14  1  0
 14 15  1  0
 15 16  1  1
 15 18  1  0
 16 17  1  0
 18 19  1  0
 19 20  1  0
 20 21  1  0
 21 22  2  0
 21 26  1  0
 22 23  1  0
 23 24  2  0
 24 25  1  0
 25 26  2  0
 27 28  2  0
 27 34  1  0
 28 29  1  0
 29 30  2  0
 29 31  1  0
 31 32  1  0
 31 33  2  0
 33 34  1  0
 35 36  2  0
 36 37  1  0
M  END
