
     RDKit          3D

 21 22  0  0  0  0  0  0  0  0999 V2000
    3.3310   -0.4460    1.0350 O   0  0  0  0  0  0  0  0  0  0  0  0
    3.1960   -1.0240   -0.1030 C   0  0  0  0  0  0  0  0  0  0  0  0
    4.3340   -1.8070   -0.6670 C   0  0  0  0  0  0  0  0  0  0  0  0
    5.4940   -1.6530    0.1540 O   0  0  0  0  0  0  0  0  0  0  0  0
    6.0300   -0.3650    0.3240 C   0  0  0  0  0  0  0  0  0  0  0  0
    7.0620   -0.1030    1.0890 C   0  0  0  0  0  0  0  0  0  0  0  0
    7.3590    1.3530    1.0370 C   0  0  0  0  0  0  0  0  0  0  0  0
    6.3200    1.8720    0.1110 C   0  0  0  0  0  0  0  0  0  0  0  0
    5.5630    0.8710   -0.2910 C   0  0  0  0  0  0  0  0  0  0  0  0
    1.9730   -0.8990   -0.7870 N   0  0  0  0  0  0  0  0  0  0  0  0
    0.8760   -0.1960   -0.3090 N   0  0  0  0  0  0  0  0  0  0  0  0
   -0.4080   -0.7730   -0.4090 C   0  0  0  0  0  0  0  0  0  0  0  0
   -0.5140   -1.9290   -0.9600 O   0  0  0  0  0  0  0  0  0  0  0  0
   -1.6240   -0.1970    0.0470 N   0  0  0  0  0  0  0  0  0  0  0  0
   -2.8850   -0.9070   -0.1390 C   0  0  0  0  0  0  0  0  0  0  0  0
   -4.0250   -0.1410    0.4380 C   0  0  2  0  0  0  0  0  0  0  0  0
   -5.2840   -0.9540    0.1740 C   0  0  0  0  0  0  0  0  0  0  0  0
   -6.5460   -0.1750    0.3730 C   0  0  0  0  0  0  0  0  0  0  0  0
   -6.4150    1.2410    0.2930 N   0  0  0  0  0  0  0  0  0  0  0  0
   -5.4270    1.5880   -0.6890 C   0  0  0  0  0  0  0  0  0  0  0  0
   -4.0760    1.2450   -0.1040 C   0  0  0  0  0  0  0  0  0  0  0  0
  1  2  2  0
  2  3  1  0
  2 10  1  0
  3  4  1  0
  4  5  1  0
  5  6  2  0
  5  9  1  0
  6  7  1  0
  7  8  1  0
  8  9  2  0
 10 11  1  0
 11 12  1  0
 12 13  2  0
 12 14  1  0
 14 15  1  0
 16 15  1  6
 16 17  1  0
 16 21  1  0
 17 18  1  0
 18 19  1  0
 19 20  1  0
 20 21  1  0
M  END
