
     RDKit          3D

 21 22  0  0  0  0  0  0  0  0999 V2000
    4.6680   -1.0310   -1.2110 C   0  0  0  0  0  0  0  0  0  0  0  0
    4.4260    0.4740   -1.0620 C   0  0  0  0  0  0  0  0  0  0  0  0
    3.0610    0.6190   -0.5080 C   0  0  0  0  0  0  0  0  0  0  0  0
    2.8660    1.2170    0.6480 C   0  0  0  0  0  0  0  0  0  0  0  0
    3.8510    1.7900    1.5080 N   0  0  0  0  0  0  0  0  0  0  0  0
    3.1470    2.3040    2.5950 N   0  0  0  0  0  0  0  0  0  0  0  0
    1.7400    2.0440    2.3960 C   0  0  0  0  0  0  0  0  0  0  0  0
    1.5690    1.4100    1.2630 C   0  0  0  0  0  0  0  0  0  0  0  0
    0.2750    1.0040    0.7570 N   0  0  0  0  0  0  0  0  0  0  0  0
   -0.0310   -0.3380    0.5680 C   0  0  0  0  0  0  0  0  0  0  0  0
    1.0110   -1.0900    0.9100 O   0  0  0  0  0  0  0  0  0  0  0  0
   -1.1630   -1.0710    0.1140 C   0  0  0  0  0  0  0  0  0  0  0  0
   -2.3670   -0.7350   -0.2660 C   0  0  0  0  0  0  0  0  0  0  0  0
   -2.6820    0.6470   -0.2430 N   0  0  0  0  0  0  0  0  0  0  0  0
   -3.9810    1.0780   -0.6510 C   0  0  0  0  0  0  0  0  0  0  0  0
   -4.3230    2.5520   -0.6280 C   0  0  0  0  0  0  0  0  0  0  0  0
   -4.9010    0.3480   -1.0390 O   0  0  0  0  0  0  0  0  0  0  0  0
   -3.4480   -1.6610   -0.7140 C   0  0  0  0  0  0  0  0  0  0  0  0
   -3.0860   -3.1020   -0.5850 C   0  0  0  0  0  0  0  0  0  0  0  0
   -1.6110   -3.2430   -0.9930 C   0  0  0  0  0  0  0  0  0  0  0  0
   -0.9490   -2.4970    0.0510 O   0  0  0  0  0  0  0  0  0  0  0  0
  1  2  1  0
  2  3  1  0
  3  4  2  3
  4  5  1  0
  4  8  1  0
  5  6  1  0
  6  7  1  0
  7  8  2  0
  8  9  1  0
  9 10  1  0
 10 11  2  0
 10 12  1  0
 12 13  2  0
 12 21  1  0
 13 14  1  0
 13 18  1  0
 14 15  1  0
 15 16  1  0
 15 17  2  0
 18 19  1  0
 19 20  1  0
 20 21  1  0
M  END
