
     RDKit          3D

 21 22  0  0  0  0  0  0  0  0999 V2000
    1.7480   -3.5220   -1.0670 C   0  0  0  0  0  0  0  0  0  0  0  0
    0.7170   -2.9650   -0.1200 C   0  0  0  0  0  0  0  0  0  0  0  0
    1.1030   -1.6140    0.3060 C   0  0  0  0  0  0  0  0  0  0  0  0
    2.1970   -1.0490   -0.1290 C   0  0  0  0  0  0  0  0  0  0  0  0
    2.6080    0.2890    0.2760 C   0  0  0  0  0  0  0  0  0  0  0  0
    3.7060    0.8460   -0.1680 C   0  0  0  0  0  0  0  0  0  0  0  0
    4.6370    0.2490   -1.0850 N   0  0  0  0  0  0  0  0  0  0  0  0
    5.7020    1.1530   -1.3360 C   0  0  0  0  0  0  0  0  0  0  0  0
    6.6690    0.9110   -2.0990 O   0  0  0  0  0  0  0  0  0  0  0  0
    5.4900    2.3370   -0.6000 N   0  0  0  0  0  0  0  0  0  0  0  0
    4.2690    2.1590    0.1190 C   0  0  0  0  0  0  0  0  0  0  0  0
    3.7430    2.9960    0.8890 O   0  0  0  0  0  0  0  0  0  0  0  0
    0.2940   -0.8440    1.2230 N   0  0  0  0  0  0  0  0  0  0  0  0
   -1.0510   -0.5370    0.8480 C   0  0  0  0  0  0  0  0  0  0  0  0
   -1.4550   -0.9500   -0.2470 O   0  0  0  0  0  0  0  0  0  0  0  0
   -1.9230    0.2070    1.6690 N   0  0  0  0  0  0  0  0  0  0  0  0
   -3.2670    0.5730    1.4040 C   0  0  0  0  0  0  0  0  0  0  0  0
   -3.5230    1.4160    0.2060 C   0  0  2  0  0  0  0  0  0  0  0  0
   -5.0210    1.7340    0.0780 C   0  0  0  0  0  0  0  0  0  0  0  0
   -4.9540    1.4260   -1.4010 C   0  0  0  0  0  0  0  0  0  0  0  0
   -3.7100    0.5850   -1.0640 C   0  0  0  0  0  0  0  0  0  0  0  0
  1  2  1  0
  2  3  1  0
  3  4  2  3
  3 13  1  0
  4  5  1  0
  5  6  2  3
  6  7  1  0
  6 11  1  0
  7  8  1  0
  8  9  2  0
  8 10  1  0
 10 11  1  0
 11 12  2  0
 13 14  1  0
 14 15  2  0
 14 16  1  0
 16 17  1  0
 18 17  1  1
 18 19  1  0
 18 21  1  0
 19 20  1  0
 20 21  1  0
M  END
