
     RDKit          3D

 21 22  0  0  0  0  0  0  0  0999 V2000
   -5.3390   -0.9410   -0.0100 C   0  0  0  0  0  0  0  0  0  0  0  0
   -4.6090    0.1580    0.7640 C   0  0  2  0  0  0  0  0  0  0  0  0
   -4.7390    1.4720    0.0750 C   0  0  0  0  0  0  0  0  0  0  0  0
   -3.1950   -0.2950    0.8800 C   0  0  0  0  0  0  0  0  0  0  0  0
   -2.7400   -0.4430    2.0380 O   0  0  0  0  0  0  0  0  0  0  0  0
   -2.3780   -0.5550   -0.2280 N   0  0  0  0  0  0  0  0  0  0  0  0
   -1.0070   -0.9830   -0.1940 C   0  0  0  0  0  0  0  0  0  0  0  0
   -0.2030    0.1920    0.5090 C   0  0  0  0  0  0  0  0  0  0  0  0
    1.1540   -0.3020    0.4870 C   0  0  0  0  0  0  0  0  0  0  0  0
    2.1320    0.5160    0.1380 C   0  0  0  0  0  0  0  0  0  0  0  0
    1.7150    1.8600   -0.1730 C   0  0  0  0  0  0  0  0  0  0  0  0
    0.5340    2.2040   -0.0430 O   0  0  0  0  0  0  0  0  0  0  0  0
    2.7160    2.7870   -0.6300 N   0  0  0  0  0  0  0  0  0  0  0  0
    3.9560    2.4540   -0.7640 C   0  0  0  0  0  0  0  0  0  0  0  0
    4.9000    3.4080   -1.2190 N   0  0  0  0  0  0  0  0  0  0  0  0
    4.3690    1.0900   -0.4430 C   0  0  0  0  0  0  0  0  0  0  0  0
    3.5750    0.1460   -0.0210 C   0  0  0  0  0  0  0  0  0  0  0  0
    4.1920   -1.0700    0.2190 O   0  0  0  0  0  0  0  0  0  0  0  0
    3.7540   -2.1960    0.9520 C   0  0  0  0  0  0  0  0  0  0  0  0
    2.3790   -2.6450    0.5150 C   0  0  0  0  0  0  0  0  0  0  0  0
    1.3570   -1.6920    0.8970 N   0  0  0  0  0  0  0  0  0  0  0  0
  2  1  1  6
  2  3  1  0
  2  4  1  0
  4  5  2  0
  4  6  1  0
  6  7  1  0
  7  8  1  0
  8  9  1  0
  9 10  2  0
  9 21  1  0
 10 11  1  0
 10 17  1  0
 11 12  2  0
 11 13  1  0
 13 14  2  0
 14 15  1  0
 14 16  1  0
 16 17  2  0
 17 18  1  0
 18 19  1  0
 19 20  1  0
 20 21  1  0
M  END
