
     RDKit          3D

 21 22  0  0  0  0  0  0  0  0999 V2000
   -1.4330   -3.0240    0.2750 C   0  0  0  0  0  0  0  0  0  0  0  0
   -2.5020   -2.1150    0.3170 O   0  0  0  0  0  0  0  0  0  0  0  0
   -2.4070   -0.7810    0.5580 C   0  0  0  0  0  0  0  0  0  0  0  0
   -1.1460   -0.2070    0.7930 C   0  0  0  0  0  0  0  0  0  0  0  0
   -1.0500    1.1430    1.0370 C   0  0  0  0  0  0  0  0  0  0  0  0
    0.2190    1.7840    1.2830 C   0  0  0  0  0  0  0  0  0  0  0  0
    1.3520    1.2870    1.3220 N   0  0  0  0  0  0  0  0  0  0  0  0
    1.7900    0.0280    1.1550 N   0  0  0  0  0  0  0  0  0  0  0  0
    2.3720   -0.3650   -0.0960 C   0  0  0  0  0  0  0  0  0  0  0  0
    2.4910    0.5130   -1.1280 C   0  0  0  0  0  0  0  0  0  0  0  0
    3.0500    0.1290   -2.3250 C   0  0  0  0  0  0  0  0  0  0  0  0
    3.4890   -1.1680   -2.4650 C   0  0  0  0  0  0  0  0  0  0  0  0
    4.0730   -1.6200   -3.6750 N   0  0  0  0  0  0  0  0  0  0  0  0
    3.3800   -2.0790   -1.4350 C   0  0  0  0  0  0  0  0  0  0  0  0
    2.8130   -1.6530   -0.2490 C   0  0  0  0  0  0  0  0  0  0  0  0
   -2.2210    1.9290    1.0450 C   0  0  0  0  0  0  0  0  0  0  0  0
   -2.0710    3.2820    1.2950 O   0  0  0  0  0  0  0  0  0  0  0  0
   -3.1760    4.1450    1.3250 C   0  0  0  0  0  0  0  0  0  0  0  0
   -3.4120    1.3620    0.8190 N   0  0  0  0  0  0  0  0  0  0  0  0
   -3.5180    0.0230    0.5760 C   0  0  0  0  0  0  0  0  0  0  0  0
   -4.7440   -0.5870    0.3380 O   0  0  0  0  0  0  0  0  0  0  0  0
  1  2  1  0
  2  3  1  0
  3  4  2  0
  3 20  1  0
  4  5  1  0
  5  6  1  0
  5 16  2  0
  6  7  2  3
  7  8  1  0
  8  9  1  0
  9 10  2  0
  9 15  1  0
 10 11  1  0
 11 12  2  0
 12 13  1  0
 12 14  1  0
 14 15  2  0
 16 17  1  0
 16 19  1  0
 17 18  1  0
 19 20  2  0
 20 21  1  0
M  END
