
     RDKit          3D

 21 24  0  0  0  0  0  0  0  0999 V2000
    2.4740   -0.8950   -2.1640 C   0  0  0  0  0  0  0  0  0  0  0  0
    1.9820   -0.3940   -0.8470 C   0  0  0  0  0  0  0  0  0  0  0  0
    0.7200   -0.8540   -0.4430 C   0  0  0  0  0  0  0  0  0  0  0  0
    0.2260   -0.4270    0.7490 N   0  0  0  0  0  0  0  0  0  0  0  0
   -0.8910   -0.6300    1.4570 C   0  0  0  0  0  0  0  0  0  0  0  0
   -2.0260   -1.5030    1.0320 C   0  0  0  0  0  0  0  0  0  0  0  0
   -3.0400   -0.7910    0.3150 N   0  0  0  0  0  0  0  0  0  0  0  0
   -2.9410   -0.7040   -1.0230 C   0  0  0  0  0  0  0  0  0  0  0  0
   -3.9330   -0.0100   -1.7130 C   0  0  0  0  0  0  0  0  0  0  0  0
   -4.9750    0.5640   -1.0220 C   0  0  0  0  0  0  0  0  0  0  0  0
   -5.0140    0.4400    0.3130 N   0  0  0  0  0  0  0  0  0  0  0  0
   -4.0620   -0.2260    0.9740 C   0  0  0  0  0  0  0  0  0  0  0  0
   -4.1720   -0.2960    2.2280 O   0  0  0  0  0  0  0  0  0  0  0  0
   -0.8110    0.0940    2.6160 N   0  0  0  0  0  0  0  0  0  0  0  0
    0.3680    0.7380    2.6020 C   0  0  0  0  0  0  0  0  0  0  0  0
    0.9810    0.4070    1.4600 C   0  0  0  0  0  0  0  0  0  0  0  0
    2.1780    0.8920    1.1590 C   0  0  0  0  0  0  0  0  0  0  0  0
    2.7210    0.4720   -0.0680 C   0  0  0  0  0  0  0  0  0  0  0  0
    4.0380    0.9220   -0.5420 C   0  0  0  0  0  0  0  0  0  0  0  0
    2.7920    1.8080    2.1390 C   0  0  0  0  0  0  0  0  0  0  0  0
    1.4930    1.8490    3.4340 S   0  0  0  0  0  0  0  0  0  0  0  0
  1  2  1  0
  2  3  2  0
  2 18  1  0
  3  4  1  0
  4  5  1  0
  4 16  1  0
  5  6  1  0
  5 14  2  0
  6  7  1  0
  7  8  1  0
  7 12  1  0
  8  9  2  0
  9 10  1  0
 10 11  2  0
 11 12  1  0
 12 13  2  0
 14 15  1  0
 15 16  2  0
 15 21  1  0
 16 17  1  0
 17 18  2  0
 17 20  1  0
 18 19  1  0
 20 21  1  0
M  END
