
     RDKit          3D

 21 21  0  0  0  0  0  0  0  0999 V2000
    8.6190    0.7030   -0.8420 C   0  0  0  0  0  0  0  0  0  0  0  0
    7.3490   -0.0330   -0.6410 C   0  0  0  0  0  0  0  0  0  0  0  0
    7.2550   -1.2090   -1.0510 O   0  0  0  0  0  0  0  0  0  0  0  0
    6.2430    0.5570    0.0040 N   0  0  0  0  0  0  0  0  0  0  0  0
    5.0190   -0.0630    0.2410 N   0  0  0  0  0  0  0  0  0  0  0  0
    3.7470    0.4810   -0.0600 C   0  0  0  0  0  0  0  0  0  0  0  0
    3.7250    1.6380   -0.5970 O   0  0  0  0  0  0  0  0  0  0  0  0
    2.4940   -0.2250    0.2260 C   0  0  0  0  0  0  0  0  0  0  0  0
    1.2490    0.6240    0.1010 C   0  0  0  0  0  0  0  0  0  0  0  0
    0.0650   -0.2470    0.4170 C   0  0  0  0  0  0  0  0  0  0  0  0
    0.1170   -1.5200    0.2970 O   0  0  0  0  0  0  0  0  0  0  0  0
   -1.1230    0.4030    0.8630 N   0  0  0  0  0  0  0  0  0  0  0  0
   -2.2590   -0.3170    1.1900 N   0  0  0  0  0  0  0  0  0  0  0  0
   -3.5100    0.0050    0.6110 C   0  0  0  0  0  0  0  0  0  0  0  0
   -3.8940    1.2770    0.6060 C   0  0  0  0  0  0  0  0  0  0  0  0
   -5.1650    1.8040    0.0510 C   0  0  0  0  0  0  0  0  0  0  0  0
   -6.3120    1.1800   -0.1170 C   0  0  0  0  0  0  0  0  0  0  0  0
   -6.6440   -0.2190    0.2060 C   0  0  0  0  0  0  0  0  0  0  0  0
   -5.5760   -1.1860   -0.0720 C   0  0  0  0  0  0  0  0  0  0  0  0
   -4.2750   -1.1420    0.0760 C   0  0  0  0  0  0  0  0  0  0  0  0
   -3.4600   -2.3220   -0.3150 C   0  0  0  0  0  0  0  0  0  0  0  0
  1  2  1  0
  2  3  2  0
  2  4  1  0
  4  5  1  0
  5  6  1  0
  6  7  2  0
  6  8  1  0
  8  9  1  0
  9 10  1  0
 10 11  2  0
 10 12  1  0
 12 13  1  0
 13 14  1  0
 14 15  2  0
 14 20  1  0
 15 16  1  0
 16 17  2  0
 17 18  1  0
 18 19  1  0
 19 20  2  0
 20 21  1  0
M  END
