
     RDKit          3D

 21 22  0  0  0  0  0  0  0  0999 V2000
    5.9740   -0.0190    0.5960 C   0  0  0  0  0  0  0  0  0  0  0  0
    4.5030   -0.3360    0.5260 C   0  0  1  0  0  0  0  0  0  0  0  0
    3.7010    0.4250    1.5620 C   0  0  0  0  0  0  0  0  0  0  0  0
    2.3900   -0.3380    1.7180 C   0  0  0  0  0  0  0  0  0  0  0  0
    1.7280   -0.3720    0.3620 C   0  0  1  0  0  0  0  0  0  0  0  0
    0.4300    0.2810    0.5070 N   0  0  0  0  0  0  0  0  0  0  0  0
   -0.7520   -0.4690    0.1270 C   0  0  0  0  0  0  0  0  0  0  0  0
   -0.6650   -1.6180   -0.3040 O   0  0  0  0  0  0  0  0  0  0  0  0
   -2.0000    0.1700    0.2700 N   0  0  0  0  0  0  0  0  0  0  0  0
   -3.2520   -0.4040   -0.0490 C   0  0  0  0  0  0  0  0  0  0  0  0
   -4.4090    0.2410    0.1040 C   0  0  0  0  0  0  0  0  0  0  0  0
   -4.6080    1.6180    0.6130 C   0  0  0  0  0  0  0  0  0  0  0  0
   -5.2810    2.4670   -0.4190 C   0  0  0  0  0  0  0  0  0  0  0  0
   -5.5950    2.0330   -1.4990 O   0  0  0  0  0  0  0  0  0  0  0  0
   -5.5390   -0.5860   -0.3020 C   0  0  0  0  0  0  0  0  0  0  0  0
   -6.7620   -0.2900   -0.2870 O   0  0  0  0  0  0  0  0  0  0  0  0
   -5.0320   -1.8300   -0.7350 N   0  0  0  0  0  0  0  0  0  0  0  0
   -3.5980   -1.7110   -0.5750 C   0  0  0  0  0  0  0  0  0  0  0  0
   -2.8090   -2.6560   -0.8720 N   0  0  0  0  0  0  0  0  0  0  0  0
    2.4970    0.4280   -0.6650 C   0  0  0  0  0  0  0  0  0  0  0  0
    3.9100   -0.0300   -0.8230 C   0  0  0  0  0  0  0  0  0  0  0  0
  2  1  1  6
  2  3  1  0
  2 21  1  0
  3  4  1  0
  4  5  1  0
  5  6  1  1
  5 20  1  0
  6  7  1  0
  7  8  2  0
  7  9  1  0
  9 10  1  0
 10 11  2  0
 10 18  1  0
 11 12  1  0
 11 15  1  0
 12 13  1  0
 13 14  2  0
 15 16  2  0
 15 17  1  0
 17 18  1  0
 18 19  2  0
 20 21  1  0
M  END
