
     RDKit          3D

 21 24  0  0  0  0  0  0  0  0999 V2000
    2.8400    0.4240    2.4180 C   0  0  0  0  0  0  0  0  0  0  0  0
    2.1440   -0.6830    2.8220 C   0  0  0  0  0  0  0  0  0  0  0  0
    1.3170   -1.3630    1.9600 C   0  0  0  0  0  0  0  0  0  0  0  0
    1.1490   -0.9640    0.6500 C   0  0  0  0  0  0  0  0  0  0  0  0
    0.3020   -1.7150   -0.1290 O   0  0  0  0  0  0  0  0  0  0  0  0
   -0.1340   -1.4450   -1.3970 C   0  0  0  0  0  0  0  0  0  0  0  0
    0.2250   -2.2850   -2.4280 C   0  0  0  0  0  0  0  0  0  0  0  0
   -0.2000   -2.0420   -3.7400 C   0  0  0  0  0  0  0  0  0  0  0  0
   -0.9870   -0.9420   -3.9820 C   0  0  0  0  0  0  0  0  0  0  0  0
   -1.3300   -0.1180   -2.9210 C   0  0  0  0  0  0  0  0  0  0  0  0
   -0.9190   -0.3510   -1.6380 C   0  0  0  0  0  0  0  0  0  0  0  0
   -1.3490    0.5260   -0.4980 C   0  0  0  0  0  0  0  0  0  0  0  0
   -1.2920    0.6140    0.6660 N   0  0  0  0  0  0  0  0  0  0  0  0
   -1.7950    1.5170    1.4370 N   0  0  0  0  0  0  0  0  0  0  0  0
   -1.8320    1.7810    2.7930 C   0  0  0  0  0  0  0  0  0  0  0  0
   -2.5370    2.9070    2.9630 N   0  0  0  0  0  0  0  0  0  0  0  0
   -2.9560    3.3790    1.7630 N   0  0  0  0  0  0  0  0  0  0  0  0
   -2.4780    2.4970    0.8740 C   0  0  0  0  0  0  0  0  0  0  0  0
   -2.3560    2.0380   -0.8910 S   0  0  0  0  0  0  0  0  0  0  0  0
    1.8420    0.1490    0.2260 C   0  0  0  0  0  0  0  0  0  0  0  0
    2.6650    0.8190    1.0990 C   0  0  0  0  0  0  0  0  0  0  0  0
  1  2  2  0
  1 21  1  0
  2  3  1  0
  3  4  2  0
  4  5  1  0
  4 20  1  0
  5  6  1  0
  6  7  2  0
  6 11  1  0
  7  8  1  0
  8  9  2  0
  9 10  1  0
 10 11  2  0
 11 12  1  0
 12 13  2  0
 12 19  1  0
 13 14  1  0
 14 15  1  0
 14 18  1  0
 15 16  2  0
 16 17  1  0
 17 18  2  0
 18 19  1  0
 20 21  2  0
M  END
