
     RDKit          3D

 21 21  0  0  0  0  0  0  0  0999 V2000
   -5.3140   -1.8490    0.0130 C   0  0  0  0  0  0  0  0  0  0  0  0
   -4.3490   -1.0000    0.2390 C   0  0  0  0  0  0  0  0  0  0  0  0
   -2.9600   -1.5170    0.5490 C   0  0  0  0  0  0  0  0  0  0  0  0
   -1.9300   -1.1420   -0.2530 N   0  0  0  0  0  0  0  0  0  0  0  0
   -1.6740   -1.5030   -1.5620 C   0  0  0  0  0  0  0  0  0  0  0  0
   -0.2610   -1.9790   -1.8220 C   0  0  0  0  0  0  0  0  0  0  0  0
    0.6030   -1.6390   -0.7720 O   0  0  0  0  0  0  0  0  0  0  0  0
    0.4080   -0.5120   -0.0390 C   0  0  0  0  0  0  0  0  0  0  0  0
    1.3760    0.2660    0.2930 C   0  0  0  0  0  0  0  0  0  0  0  0
    2.7290    0.0260   -0.0740 C   0  0  0  0  0  0  0  0  0  0  0  0
    3.8120    0.9150    0.3240 C   0  0  0  0  0  0  0  0  0  0  0  0
    4.9790    0.3790   -0.1890 C   0  0  0  0  0  0  0  0  0  0  0  0
    5.9400    1.5380    0.4940 C   0  0  0  0  0  0  0  0  0  0  0  0
    7.2660    1.2490    0.0980 C   0  0  0  0  0  0  0  0  0  0  0  0
    8.3510    2.0480    0.6140 N   0  0  0  0  0  0  0  0  0  0  0  0
    7.5680    0.3320   -0.6720 O   0  0  0  0  0  0  0  0  0  0  0  0
   -1.0150   -0.2460    0.3860 C   0  0  0  0  0  0  0  0  0  0  0  0
   -4.5470    0.3830    0.2090 N   0  0  0  0  0  0  0  0  0  0  0  0
   -5.7490    1.0350   -0.0510 C   0  0  0  0  0  0  0  0  0  0  0  0
   -5.7520    2.4550   -0.0570 N   0  0  0  0  0  0  0  0  0  0  0  0
   -6.8220    0.4140   -0.2820 O   0  0  0  0  0  0  0  0  0  0  0  0
  1  2  2  0
  2  3  1  0
  2 18  1  0
  3  4  1  0
  4  5  1  0
  4 17  1  0
  5  6  1  0
  6  7  1  0
  7  8  1  0
  8  9  2  3
  8 17  1  0
  9 10  1  0
 10 11  2  3
 11 12  1  0
 12 13  2  3
 13 14  1  0
 14 15  1  0
 14 16  2  0
 18 19  1  0
 19 20  1  0
 19 21  2  0
M  END
