
     RDKit          3D

 21 23  0  0  0  0  0  0  0  0999 V2000
    6.1410    1.1510   -0.3620 C   0  0  0  0  0  0  0  0  0  0  0  0
    4.9010    0.3870    0.0110 C   0  0  0  0  0  0  0  0  0  0  0  0
    3.6850    0.8210   -0.3250 N   0  0  0  0  0  0  0  0  0  0  0  0
    2.5490    0.1300    0.0120 C   0  0  0  0  0  0  0  0  0  0  0  0
    1.2870    0.6340   -0.3620 N   0  0  0  0  0  0  0  0  0  0  0  0
    0.0200    0.0820   -0.1200 C   0  0  0  0  0  0  0  0  0  0  0  0
   -0.1250   -1.1470    0.4610 C   0  0  0  0  0  0  0  0  0  0  0  0
   -1.4220   -1.6320    0.6820 C   0  0  0  0  0  0  0  0  0  0  0  0
   -2.5270   -0.8880    0.3220 C   0  0  0  0  0  0  0  0  0  0  0  0
   -3.8130   -1.3440    0.5290 C   0  0  0  0  0  0  0  0  0  0  0  0
   -4.9030   -0.5810    0.1610 C   0  0  0  0  0  0  0  0  0  0  0  0
   -6.1740   -1.0380    0.3680 F   0  0  0  0  0  0  0  0  0  0  0  0
   -4.7450    0.6570   -0.4250 C   0  0  0  0  0  0  0  0  0  0  0  0
   -5.9230    1.5000   -0.8320 C   0  0  0  0  0  0  0  0  0  0  0  0
   -3.4900    1.0910   -0.6210 N   0  0  0  0  0  0  0  0  0  0  0  0
   -2.4000    0.3550   -0.2660 C   0  0  0  0  0  0  0  0  0  0  0  0
   -1.1310    0.8230   -0.4780 C   0  0  0  0  0  0  0  0  0  0  0  0
    2.7720   -0.9940    0.6920 N   0  0  0  0  0  0  0  0  0  0  0  0
    3.9670   -1.4600    1.0460 C   0  0  0  0  0  0  0  0  0  0  0  0
    4.1100   -2.5480    1.7010 O   0  0  0  0  0  0  0  0  0  0  0  0
    5.0620   -0.7570    0.7000 N   0  0  0  0  0  0  0  0  0  0  0  0
  1  2  1  0
  2  3  2  0
  2 21  1  0
  3  4  1  0
  4  5  1  0
  4 18  2  0
  5  6  1  0
  6  7  2  0
  6 17  1  0
  7  8  1  0
  8  9  2  0
  9 10  1  0
  9 16  1  0
 10 11  2  0
 11 12  1  0
 11 13  1  0
 13 14  1  0
 13 15  2  0
 15 16  1  0
 16 17  2  0
 18 19  1  0
 19 20  2  0
 19 21  1  0
M  END
