
     RDKit          3D

 21 23  0  0  0  0  0  0  0  0999 V2000
    0.6630   -3.4630    1.1330 C   0  0  0  0  0  0  0  0  0  0  0  0
   -0.0200   -3.1530   -0.2050 C   0  0  0  0  0  0  0  0  0  0  0  0
   -0.9620   -2.0510    0.0680 N   0  0  0  0  0  0  0  0  0  0  0  0
   -2.2180   -2.1680    0.4400 N   0  0  0  0  0  0  0  0  0  0  0  0
   -2.7630   -0.9560    0.5970 C   0  0  0  0  0  0  0  0  0  0  0  0
   -1.8010   -0.0150    0.3090 C   0  0  0  0  0  0  0  0  0  0  0  0
   -1.9690    1.4180    0.3530 C   0  0  0  0  0  0  0  0  0  0  0  0
   -1.2990    2.2930    1.1820 C   0  0  0  0  0  0  0  0  0  0  0  0
   -1.7530    3.4800    0.8900 O   0  0  0  0  0  0  0  0  0  0  0  0
   -2.6480    3.4430   -0.0430 N   0  0  0  0  0  0  0  0  0  0  0  0
   -2.8460    2.1580   -0.4450 C   0  0  0  0  0  0  0  0  0  0  0  0
   -3.7340    1.6970   -1.4380 N   0  0  0  0  0  0  0  0  0  0  0  0
   -0.6800   -0.7420   -0.0200 C   0  0  0  0  0  0  0  0  0  0  0  0
    0.6170   -0.1410   -0.4040 C   0  0  0  0  0  0  0  0  0  0  0  0
    1.1030   -0.3600   -1.6690 C   0  0  0  0  0  0  0  0  0  0  0  0
    2.3070    0.1760   -2.0710 C   0  0  0  0  0  0  0  0  0  0  0  0
    2.7950   -0.0400   -3.3340 F   0  0  0  0  0  0  0  0  0  0  0  0
    3.0200    0.9410   -1.1730 C   0  0  0  0  0  0  0  0  0  0  0  0
    2.4910    1.1290    0.0770 C   0  0  0  0  0  0  0  0  0  0  0  0
    3.3140    1.9710    1.0120 C   0  0  0  0  0  0  0  0  0  0  0  0
    1.3220    0.6020    0.4520 N   0  0  0  0  0  0  0  0  0  0  0  0
  1  2  1  0
  2  3  1  0
  3  4  1  0
  3 13  1  0
  4  5  2  0
  5  6  1  0
  6  7  1  0
  6 13  2  0
  7  8  2  0
  7 11  1  0
  8  9  1  0
  9 10  1  0
 10 11  2  0
 11 12  1  0
 13 14  1  0
 14 15  2  0
 14 21  1  0
 15 16  1  0
 16 17  1  0
 16 18  2  0
 18 19  1  0
 19 20  1  0
 19 21  2  0
M  END
