
     RDKit          3D

 21 23  0  0  0  0  0  0  0  0999 V2000
    2.8000   -1.4180    1.5890 C   0  0  0  0  0  0  0  0  0  0  0  0
    1.5270   -0.8990    1.0170 C   0  0  0  0  0  0  0  0  0  0  0  0
    0.3650   -1.3190    1.5890 N   0  0  0  0  0  0  0  0  0  0  0  0
   -0.8330   -0.8800    1.1810 C   0  0  0  0  0  0  0  0  0  0  0  0
   -2.0340   -1.4160    1.8900 C   0  0  0  0  0  0  0  0  0  0  0  0
   -0.9520   -0.0030    0.1870 N   0  0  0  0  0  0  0  0  0  0  0  0
   -2.2170    0.4690   -0.2520 C   0  0  0  0  0  0  0  0  0  0  0  0
   -2.9580    1.3080    0.5540 C   0  0  0  0  0  0  0  0  0  0  0  0
   -4.1800    1.7450    0.0910 C   0  0  0  0  0  0  0  0  0  0  0  0
   -4.6550    1.3750   -1.1100 N   0  0  0  0  0  0  0  0  0  0  0  0
   -3.9610    0.5590   -1.9230 C   0  0  0  0  0  0  0  0  0  0  0  0
   -4.3960    0.1580   -3.1400 F   0  0  0  0  0  0  0  0  0  0  0  0
   -2.7440    0.1130   -1.4830 C   0  0  0  0  0  0  0  0  0  0  0  0
    0.1900    0.4340   -0.4050 C   0  0  0  0  0  0  0  0  0  0  0  0
    0.0840    1.2520   -1.3370 O   0  0  0  0  0  0  0  0  0  0  0  0
    1.4610   -0.0090    0.0010 C   0  0  0  0  0  0  0  0  0  0  0  0
    2.6500    0.4480   -0.7400 C   0  0  0  0  0  0  0  0  0  0  0  0
    2.6900    1.6280   -1.4680 C   0  0  0  0  0  0  0  0  0  0  0  0
    3.9630    1.7170   -1.9410 N   0  0  0  0  0  0  0  0  0  0  0  0
    4.6660    0.6710   -1.5380 C   0  0  0  0  0  0  0  0  0  0  0  0
    3.8600   -0.1260   -0.7920 N   0  0  0  0  0  0  0  0  0  0  0  0
  1  2  1  0
  2  3  1  0
  2 16  2  0
  3  4  2  0
  4  5  1  0
  4  6  1  0
  6  7  1  0
  6 14  1  0
  7  8  2  0
  7 13  1  0
  8  9  1  0
  9 10  2  0
 10 11  1  0
 11 12  1  0
 11 13  2  0
 14 15  2  0
 14 16  1  0
 16 17  1  0
 17 18  2  0
 17 21  1  0
 18 19  1  0
 19 20  2  0
 20 21  1  0
M  END
