
     RDKit          3D

 20 22  0  0  0  0  0  0  0  0999 V2000
    5.6030   -0.3880   -0.3670 C   0  0  0  0  0  0  0  0  0  0  0  0
    4.3950    0.5050   -0.4730 C   0  0  0  0  0  0  0  0  0  0  0  0
    3.1880   -0.3060   -0.1070 C   0  0  0  0  0  0  0  0  0  0  0  0
    3.3020   -1.5980    0.2410 N   0  0  0  0  0  0  0  0  0  0  0  0
    2.2240   -2.3220    0.5670 C   0  0  0  0  0  0  0  0  0  0  0  0
    0.9300   -1.7630    0.5600 C   0  0  0  0  0  0  0  0  0  0  0  0
    0.8230   -0.4570    0.2070 C   0  0  0  0  0  0  0  0  0  0  0  0
   -0.4290    0.3100    0.1320 C   0  0  0  0  0  0  0  0  0  0  0  0
   -0.4710    1.6140   -0.2370 N   0  0  0  0  0  0  0  0  0  0  0  0
   -1.6920    2.1060   -0.2320 C   0  0  0  0  0  0  0  0  0  0  0  0
   -2.1630    3.3500   -0.5350 N   0  0  0  0  0  0  0  0  0  0  0  0
   -3.4750    3.5690   -0.4430 C   0  0  0  0  0  0  0  0  0  0  0  0
   -4.3430    2.6220   -0.0670 N   0  0  0  0  0  0  0  0  0  0  0  0
   -3.8590    1.3810    0.2340 C   0  0  0  0  0  0  0  0  0  0  0  0
   -4.6670    0.4970    0.5850 O   0  0  0  0  0  0  0  0  0  0  0  0
   -2.5140    1.0810    0.1620 C   0  0  0  0  0  0  0  0  0  0  0  0
   -1.7240   -0.0480    0.3920 C   0  0  0  0  0  0  0  0  0  0  0  0
   -2.2540   -1.3350    0.8210 C   0  0  0  0  0  0  0  0  0  0  0  0
   -2.3880   -2.3720   -0.2620 C   0  0  0  0  0  0  0  0  0  0  0  0
    1.9650    0.2220   -0.1140 N   0  0  0  0  0  0  0  0  0  0  0  0
  1  2  1  0
  2  3  1  0
  3  4  2  0
  3 20  1  0
  4  5  1  0
  5  6  2  0
  6  7  1  0
  7  8  1  0
  7 20  2  0
  8  9  1  0
  8 17  2  0
  9 10  1  0
 10 11  1  0
 10 16  2  0
 11 12  2  0
 12 13  1  0
 13 14  1  0
 14 15  2  0
 14 16  1  0
 16 17  1  0
 17 18  1  0
 18 19  1  0
M  END
