
     RDKit          3D

 20 22  0  0  0  0  0  0  0  0999 V2000
   -5.4550   -2.1380   -0.1980 C   0  0  0  0  0  0  0  0  0  0  0  0
   -4.6240   -0.9120    0.0050 C   0  0  0  0  0  0  0  0  0  0  0  0
   -5.1250    0.2870   -0.4470 C   0  0  0  0  0  0  0  0  0  0  0  0
   -4.3780    1.4240   -0.2700 C   0  0  0  0  0  0  0  0  0  0  0  0
   -3.1560    1.3360    0.3500 C   0  0  0  0  0  0  0  0  0  0  0  0
   -2.3540    2.4590    0.5570 O   0  0  0  0  0  0  0  0  0  0  0  0
   -2.6660    0.1280    0.7980 C   0  0  0  0  0  0  0  0  0  0  0  0
   -1.3450    0.0230    1.4580 C   0  0  0  0  0  0  0  0  0  0  0  0
   -0.2030    0.0870    0.4870 C   0  0  0  0  0  0  0  0  0  0  0  0
    1.0550   -0.0180    1.1820 N   0  0  0  0  0  0  0  0  0  0  0  0
    2.3110   -0.0080    0.5100 C   0  0  0  0  0  0  0  0  0  0  0  0
    2.3760    0.0970   -0.8120 N   0  0  0  0  0  0  0  0  0  0  0  0
    3.5320    0.1160   -1.5210 C   0  0  0  0  0  0  0  0  0  0  0  0
    4.7170    0.0230   -0.8390 C   0  0  0  0  0  0  0  0  0  0  0  0
    6.0330    0.0110   -1.2180 C   0  0  0  0  0  0  0  0  0  0  0  0
    6.7870   -0.1060   -0.0720 C   0  0  0  0  0  0  0  0  0  0  0  0
    5.9470   -0.1640    0.9700 N   0  0  0  0  0  0  0  0  0  0  0  0
    4.6700   -0.0890    0.5540 C   0  0  0  0  0  0  0  0  0  0  0  0
    3.4740   -0.0990    1.1720 N   0  0  0  0  0  0  0  0  0  0  0  0
   -3.4220   -0.9710    0.6110 N   0  0  0  0  0  0  0  0  0  0  0  0
  1  2  1  0
  2  3  2  0
  2 20  1  0
  3  4  1  0
  4  5  2  0
  5  6  1  0
  5  7  1  0
  7  8  1  0
  7 20  2  0
  8  9  1  0
  9 10  1  0
 10 11  1  0
 11 12  2  0
 11 19  1  0
 12 13  1  0
 13 14  2  0
 14 15  1  0
 14 18  1  0
 15 16  2  0
 16 17  1  0
 17 18  1  0
 18 19  2  0
M  END
