
     RDKit          3D

 21 23  0  0  0  0  0  0  0  0999 V2000
   -5.2410    1.2290    0.3070 C   0  0  0  0  0  0  0  0  0  0  0  0
   -3.9430    0.4330    0.2740 C   0  0  2  0  0  0  0  0  0  0  0  0
   -3.9620   -0.4590   -0.9220 C   0  0  0  0  0  0  0  0  0  0  0  0
   -3.9250   -0.4300    1.5110 C   0  0  0  0  0  0  0  0  0  0  0  0
   -2.8160    1.4300    0.2550 C   0  0  0  0  0  0  0  0  0  0  0  0
   -1.5000    0.7190    0.2220 C   0  0  0  0  0  0  0  0  0  0  0  0
   -1.2790   -0.6090    0.2100 N   0  0  0  0  0  0  0  0  0  0  0  0
    0.0520   -0.8720    0.1790 C   0  0  0  0  0  0  0  0  0  0  0  0
    0.7660   -2.0520    0.1570 C   0  0  0  0  0  0  0  0  0  0  0  0
    2.1330   -1.9880    0.1270 C   0  0  0  0  0  0  0  0  0  0  0  0
    2.7450   -0.7520    0.1200 C   0  0  0  0  0  0  0  0  0  0  0  0
    4.2200   -0.6960    0.0870 C   0  0  0  0  0  0  0  0  0  0  0  0
    4.9840    0.4030    0.0760 N   0  0  0  0  0  0  0  0  0  0  0  0
    6.2700    0.0340    0.0460 C   0  0  0  0  0  0  0  0  0  0  0  0
    7.5050    0.8620    0.0230 C   0  0  0  0  0  0  0  0  0  0  0  0
    7.8980    1.1510   -1.2710 F   0  0  0  0  0  0  0  0  0  0  0  0
    6.2590   -1.3190    0.0390 N   0  0  0  0  0  0  0  0  0  0  0  0
    5.0320   -1.7060    0.0640 O   0  0  0  0  0  0  0  0  0  0  0  0
    2.0180    0.3770    0.1420 N   0  0  0  0  0  0  0  0  0  0  0  0
    0.6730    0.3640    0.1720 C   0  0  0  0  0  0  0  0  0  0  0  0
   -0.2950    1.3110    0.1980 N   0  0  0  0  0  0  0  0  0  0  0  0
  2  1  1  1
  2  3  1  0
  2  4  1  0
  2  5  1  0
  5  6  1  0
  6  7  2  0
  6 21  1  0
  7  8  1  0
  8  9  2  0
  8 20  1  0
  9 10  1  0
 10 11  2  0
 11 12  1  0
 11 19  1  0
 12 13  2  0
 12 18  1  0
 13 14  1  0
 14 15  1  0
 14 17  2  0
 15 16  1  0
 17 18  1  0
 19 20  2  0
 20 21  1  0
M  END
