
     RDKit          3D

 48 54  0  0  0  0  0  0  0  0999 V2000
   -2.3700   -0.1650    0.7630 O   0  0  0  0  0  0  0  0  0  0  0  0
   -2.4200   -0.1330   -0.4940 C   0  0  0  0  0  0  0  0  0  0  0  0
   -3.7500   -0.1860   -1.1440 C   0  0  0  0  0  0  0  0  0  0  0  0
   -4.8120   -0.2040   -0.1030 C   0  0  2  0  0  0  0  0  0  0  0  0
   -4.6070   -1.4110    0.7680 C   0  0  0  0  0  0  0  0  0  0  0  0
   -4.3830   -1.3250    1.9970 O   0  0  0  0  0  0  0  0  0  0  0  0
   -4.6760   -2.6740    0.1480 N   0  0  0  0  0  0  0  0  0  0  0  0
   -4.4920   -3.8910    0.9080 C   0  0  1  0  0  0  0  0  0  0  0  0
   -5.3290   -5.0820    0.6080 C   0  0  0  0  0  0  0  0  0  0  0  0
   -3.8700   -5.0930    0.2840 C   0  0  0  0  0  0  0  0  0  0  0  0
   -6.2000   -0.4230   -0.7220 C   0  0  0  0  0  0  0  0  0  0  0  0
   -7.1470   -0.7640    0.4020 C   0  0  0  0  0  0  0  0  0  0  0  0
   -7.1540    0.2350    1.5050 C   0  0  0  0  0  0  0  0  0  0  0  0
   -6.1560    1.2860    1.3540 N   0  0  0  0  0  0  0  0  0  0  0  0
   -6.3990    2.5930    1.8940 C   0  0  1  0  0  0  0  0  0  0  0  0
   -7.6170    3.2550    1.3140 C   0  0  0  0  0  0  0  0  0  0  0  0
   -8.6520    3.3710    2.3930 C   0  0  0  0  0  0  0  0  0  0  0  0
   -8.1290    2.6500    3.5100 N   0  0  0  0  0  0  0  0  0  0  0  0
   -6.7140    2.5120    3.3640 C   0  0  0  0  0  0  0  0  0  0  0  0
   -4.9390    1.0410    0.6770 C   0  0  0  0  0  0  0  0  0  0  0  0
   -4.0030    1.8590    0.7420 O   0  0  0  0  0  0  0  0  0  0  0  0
   -1.1840   -0.0440   -1.2700 C   0  0  0  0  0  0  0  0  0  0  0  0
    0.0120   -0.0060   -0.6030 C   0  0  0  0  0  0  0  0  0  0  0  0
    1.2070    0.0800   -1.3420 C   0  0  0  0  0  0  0  0  0  0  0  0
    1.2440    0.1290   -2.7010 C   0  0  0  0  0  0  0  0  0  0  0  0
    2.4230    0.2220   -3.4580 N   0  0  0  0  0  0  0  0  0  0  0  0
    3.7640    0.3520   -3.0250 C   0  0  0  0  0  0  0  0  0  0  0  0
    3.9070    0.3890   -1.7790 O   0  0  0  0  0  0  0  0  0  0  0  0
    4.9240    0.4400   -3.9010 C   0  0  0  0  0  0  0  0  0  0  0  0
    4.6540    0.5370   -5.2630 C   0  0  0  0  0  0  0  0  0  0  0  0
    5.6610    0.6950   -6.1880 C   0  0  0  0  0  0  0  0  0  0  0  0
    6.9370    0.7540   -5.7300 C   0  0  0  0  0  0  0  0  0  0  0  0
    7.2110    0.6570   -4.3810 C   0  0  0  0  0  0  0  0  0  0  0  0
    6.2040    0.4950   -3.4250 C   0  0  0  0  0  0  0  0  0  0  0  0
    6.4910    0.3180   -2.0620 N   0  0  0  0  0  0  0  0  0  0  0  0
    7.7360    0.5600   -1.4040 C   0  0  0  0  0  0  0  0  0  0  0  0
    8.6970    0.9800   -2.0740 O   0  0  0  0  0  0  0  0  0  0  0  0
    7.9060    0.3220    0.0500 C   0  0  0  0  0  0  0  0  0  0  0  0
    6.8250    0.4270    0.8850 C   0  0  0  0  0  0  0  0  0  0  0  0
    6.9720    0.1930    2.2620 C   0  0  0  0  0  0  0  0  0  0  0  0
    8.1950   -0.1430    2.8030 C   0  0  0  0  0  0  0  0  0  0  0  0
    9.2820   -0.2480    1.9550 C   0  0  0  0  0  0  0  0  0  0  0  0
    9.1170   -0.0150    0.6070 C   0  0  0  0  0  0  0  0  0  0  0  0
   10.4950   -0.6330    2.7590 C   0  0  0  0  0  0  0  0  0  0  0  0
   10.0890   -0.3310    4.1800 C   0  0  0  0  0  0  0  0  0  0  0  0
    8.5790   -0.4280    4.2110 C   0  0  0  0  0  0  0  0  0  0  0  0
    0.0140    0.0880   -3.3550 C   0  0  0  0  0  0  0  0  0  0  0  0
   -1.1670    0.0030   -2.6360 C   0  0  0  0  0  0  0  0  0  0  0  0
  1  2  2  0
  2  3  1  0
  2 22  1  0
  4  3  1  6
  4  5  1  0
  4 11  1  0
  4 20  1  0
  5  6  2  0
  5  7  1  0
  8  7  1  6
  8  9  1  0
  8 10  1  0
  9 10  1  0
 11 12  1  0
 12 13  1  0
 13 14  1  0
 15 14  1  6
 14 20  1  0
 15 16  1  0
 15 19  1  0
 16 17  1  0
 17 18  1  0
 18 19  1  0
 20 21  2  0
 22 23  2  0
 22 48  1  0
 23 24  1  0
 24 25  2  0
 25 26  1  0
 25 47  1  0
 26 27  1  0
 27 28  2  0
 27 29  1  0
 29 30  2  0
 29 34  1  0
 30 31  1  0
 31 32  2  0
 32 33  1  0
 33 34  2  0
 34 35  1  0
 35 36  1  0
 36 37  2  0
 36 38  1  0
 38 39  2  0
 38 43  1  0
 39 40  1  0
 40 41  2  0
 41 42  1  0
 41 46  1  0
 42 43  2  0
 42 44  1  0
 44 45  1  0
 45 46  1  0
 47 48  2  0
M  CHG  1  18   1
M  END
