
     RDKit          3D

 48 52  0  0  0  0  0  0  0  0999 V2000
   -4.7220    9.3690   -0.2470 N   0  0  0  0  0  0  0  0  0  0  0  0
   -3.9820    8.4360   -0.1230 C   0  0  0  0  0  0  0  0  0  0  0  0
   -3.0840    7.3330    0.0120 C   0  0  0  0  0  0  0  0  0  0  0  0
   -2.1770    7.1810    1.0190 C   0  0  0  0  0  0  0  0  0  0  0  0
   -1.3260    6.1020    1.1100 C   0  0  0  0  0  0  0  0  0  0  0  0
   -1.3700    5.0980    0.1400 C   0  0  0  0  0  0  0  0  0  0  0  0
   -0.4120    3.9630    0.2670 C   0  0  0  0  0  0  0  0  0  0  0  0
   -0.9730    3.0060    1.2380 C   0  0  0  0  0  0  0  0  0  0  0  0
   -0.2320    1.7780    1.5610 C   0  0  0  0  0  0  0  0  0  0  0  0
    0.0160    0.8470    0.5290 N   0  0  0  0  0  0  0  0  0  0  0  0
    1.3230    0.6150   -0.0970 C   0  0  0  0  0  0  0  0  0  0  0  0
    2.0450   -0.1950    1.0080 C   0  0  0  0  0  0  0  0  0  0  0  0
    3.2580   -0.7790    0.4620 C   0  0  0  0  0  0  0  0  0  0  0  0
    3.3750   -1.0380   -0.7370 O   0  0  0  0  0  0  0  0  0  0  0  0
    4.3220   -1.0640    1.3640 N   0  0  0  0  0  0  0  0  0  0  0  0
    5.5170   -1.7020    0.9980 C   0  0  0  0  0  0  0  0  0  0  0  0
    6.2450   -1.0860   -0.1620 C   0  0  1  0  0  0  0  0  0  0  0  0
    6.6280    0.2160   -0.0290 O   0  0  0  0  0  0  0  0  0  0  0  0
    7.4380   -2.0020   -0.3490 C   0  0  0  0  0  0  0  0  0  0  0  0
    7.3380   -3.0450   -1.2290 C   0  0  0  0  0  0  0  0  0  0  0  0
    8.4210   -3.9270   -1.3860 C   0  0  0  0  0  0  0  0  0  0  0  0
    9.5510   -3.6940   -0.6340 C   0  0  0  0  0  0  0  0  0  0  0  0
   10.6290   -4.6230   -0.7870 N   0  0  0  0  0  0  0  0  0  0  0  0
    9.6470   -2.6620    0.2370 N   0  0  0  0  0  0  0  0  0  0  0  0
    8.5900   -1.8340    0.3620 C   0  0  0  0  0  0  0  0  0  0  0  0
   -1.0020   -0.1180    0.1360 C   0  0  0  0  0  0  0  0  0  0  0  0
   -2.0490   -0.1470    0.7680 O   0  0  0  0  0  0  0  0  0  0  0  0
   -0.7260   -1.0110   -1.0140 C   0  0  0  0  0  0  0  0  0  0  0  0
   -1.8650   -2.0210   -1.1760 C   0  0  1  0  0  0  0  0  0  0  0  0
   -1.9110   -2.7650   -0.0010 O   0  0  0  0  0  0  0  0  0  0  0  0
   -3.1350   -1.2500   -1.4070 C   0  0  0  0  0  0  0  0  0  0  0  0
   -4.2040   -1.4330   -0.6800 C   0  0  0  0  0  0  0  0  0  0  0  0
   -4.3000   -2.4050    0.4200 C   0  0  0  0  0  0  0  0  0  0  0  0
   -4.2230   -3.7560    0.1560 C   0  0  0  0  0  0  0  0  0  0  0  0
   -4.3080   -4.6980    1.1750 C   0  0  0  0  0  0  0  0  0  0  0  0
   -4.4710   -4.3110    2.4700 C   0  0  0  0  0  0  0  0  0  0  0  0
   -4.5460   -2.9380    2.7390 C   0  0  0  0  0  0  0  0  0  0  0  0
   -4.4630   -2.0250    1.7290 C   0  0  0  0  0  0  0  0  0  0  0  0
   -5.4430   -0.6140   -0.8580 C   0  0  0  0  0  0  0  0  0  0  0  0
   -6.5780   -0.8070   -0.1200 C   0  0  0  0  0  0  0  0  0  0  0  0
   -7.7170   -0.0220   -0.3520 C   0  0  0  0  0  0  0  0  0  0  0  0
   -7.6870    0.9580   -1.3390 C   0  0  0  0  0  0  0  0  0  0  0  0
   -6.5550    1.1570   -2.0770 C   0  0  0  0  0  0  0  0  0  0  0  0
   -5.4240    0.3500   -1.8190 C   0  0  0  0  0  0  0  0  0  0  0  0
   -4.2780    0.5510   -2.5560 O   0  0  0  0  0  0  0  0  0  0  0  0
   -3.1770   -0.2940   -2.5590 C   0  0  0  0  0  0  0  0  0  0  0  0
   -2.2740    5.2310   -0.8810 C   0  0  0  0  0  0  0  0  0  0  0  0
   -3.1230    6.3200   -0.9600 C   0  0  0  0  0  0  0  0  0  0  0  0
  1  2  3  0
  2  3  1  0
  3  4  2  0
  3 48  1  0
  4  5  1  0
  5  6  2  0
  6  7  1  0
  6 47  1  0
  7  8  1  0
  8  9  1  0
  9 10  1  0
 10 11  1  0
 10 26  1  0
 11 12  1  0
 12 13  1  0
 13 14  2  0
 13 15  1  0
 15 16  1  0
 16 17  1  0
 17 18  1  1
 17 19  1  0
 19 20  2  0
 19 25  1  0
 20 21  1  0
 21 22  2  0
 22 23  1  0
 22 24  1  0
 24 25  2  0
 26 27  2  0
 26 28  1  0
 28 29  1  0
 29 30  1  1
 29 31  1  0
 31 32  2  0
 31 46  1  0
 32 33  1  0
 32 39  1  0
 33 34  2  0
 33 38  1  0
 34 35  1  0
 35 36  2  0
 36 37  1  0
 37 38  2  0
 39 40  2  0
 39 44  1  0
 40 41  1  0
 41 42  2  0
 42 43  1  0
 43 44  2  0
 44 45  1  0
 45 46  1  0
 47 48  2  0
M  CHG  1  23   1
M  END
