
     RDKit          3D

 48 51  0  0  0  0  0  0  0  0999 V2000
   -9.7630    2.4540   -0.3930 C   0  0  0  0  0  0  0  0  0  0  0  0
   -8.4160    2.8580   -0.9850 C   0  0  0  0  0  0  0  0  0  0  0  0
   -7.2180    3.2360   -1.5290 C   0  0  0  0  0  0  0  0  0  0  0  0
   -6.6200    1.8640   -1.3880 N   0  0  0  0  0  0  0  0  0  0  0  0
   -5.8750    1.2110   -0.4310 C   0  0  0  0  0  0  0  0  0  0  0  0
   -5.2040    1.7730    0.3220 O   0  0  0  0  0  0  0  0  0  0  0  0
   -6.1310   -0.3050   -0.3310 C   0  0  0  0  0  0  0  0  0  0  0  0
   -4.7060   -0.6670    0.5200 C   0  0  0  0  0  0  0  0  0  0  0  0
   -3.7880   -0.2510    0.8830 C   0  0  0  0  0  0  0  0  0  0  0  0
   -2.6900    0.6650    1.1820 C   0  0  0  0  0  0  0  0  0  0  0  0
   -1.7760    0.5390    1.8980 O   0  0  0  0  0  0  0  0  0  0  0  0
   -2.8130    1.9210    0.4960 O   0  0  0  0  0  0  0  0  0  0  0  0
   -1.8140    2.8630    0.7920 C   0  0  0  0  0  0  0  0  0  0  0  0
   -0.4540    2.6210    0.4470 C   0  0  0  0  0  0  0  0  0  0  0  0
    0.6030    2.5430    0.2820 O   0  0  0  0  0  0  0  0  0  0  0  0
   -0.7710    1.2730   -0.9050 N   0  0  0  0  0  0  0  0  0  0  0  0
    0.5050    1.1080   -1.2680 C   0  0  0  0  0  0  0  0  0  0  0  0
    1.2890    2.1470   -1.6820 C   0  0  0  0  0  0  0  0  0  0  0  0
    2.6350    2.2540   -1.9650 C   0  0  0  0  0  0  0  0  0  0  0  0
    3.1660    0.9090   -1.7350 C   0  0  0  0  0  0  0  0  0  0  0  0
    2.6130   -0.0150   -1.3540 C   0  0  0  0  0  0  0  0  0  0  0  0
    1.1850   -0.1600   -1.0550 C   0  0  0  0  0  0  0  0  0  0  0  0
    0.9000   -1.2570   -0.2780 C   0  0  0  0  0  0  0  0  0  0  0  0
   -0.0610   -1.7610    0.5050 C   0  0  0  0  0  0  0  0  0  0  0  0
   -0.0760   -2.7780    1.5010 C   0  0  0  0  0  0  0  0  0  0  0  0
    1.1160   -3.3440    1.6610 C   0  0  0  0  0  0  0  0  0  0  0  0
    2.2310   -2.9760    0.9630 C   0  0  0  0  0  0  0  0  0  0  0  0
    2.2000   -1.9730    0.0330 C   0  0  0  0  0  0  0  0  0  0  0  0
    3.3380   -1.1910   -0.6740 C   0  0  0  0  0  0  0  0  0  0  0  0
    4.3560   -1.4730   -0.3010 C   0  0  0  0  0  0  0  0  0  0  0  0
    5.8400   -1.1680   -0.0450 C   0  0  0  0  0  0  0  0  0  0  0  0
    6.5550   -2.1390    0.0190 O   0  0  0  0  0  0  0  0  0  0  0  0
    6.2520    0.1860    0.1200 N   0  0  0  0  0  0  0  0  0  0  0  0
    7.5840    0.5280    0.5790 C   0  0  1  0  0  0  0  0  0  0  0  0
    8.7370   -0.3680    0.3030 C   0  0  0  0  0  0  0  0  0  0  0  0
    8.6650   -1.6850    1.0350 C   0  0  0  0  0  0  0  0  0  0  0  0
    9.3890   -2.7950    0.5630 N   0  0  0  0  0  0  0  0  0  0  0  0
    7.8810    1.9870    0.3110 C   0  0  2  0  0  0  0  0  0  0  0  0
    6.8130    2.8420    0.9530 C   0  0  0  0  0  0  0  0  0  0  0  0
    8.1470    2.2880   -1.0080 C   0  0  0  0  0  0  0  0  0  0  0  0
    8.3910    2.5770   -2.2060 N   0  0  0  0  0  0  0  0  0  0  0  0
   -6.5940   -1.2520   -0.2440 C   0  0  0  0  0  0  0  0  0  0  0  0
   -8.0360   -1.7720   -0.0590 C   0  0  0  0  0  0  0  0  0  0  0  0
   -8.8040   -0.5570    0.2750 C   0  0  0  0  0  0  0  0  0  0  0  0
  -10.1020   -0.7410    0.4570 C   0  0  0  0  0  0  0  0  0  0  0  0
  -10.7710   -2.0390    0.3280 C   0  0  0  0  0  0  0  0  0  0  0  0
   -9.9110   -3.1270    0.0050 C   0  0  0  0  0  0  0  0  0  0  0  0
   -8.4590   -2.8910   -0.1820 C   0  0  0  0  0  0  0  0  0  0  0  0
  1  2  3  0
  2  3  1  0
  3  4  1  0
  4  5  1  0
  5  6  2  0
  5  7  1  0
  7  8  1  0
  7 42  2  3
  8  9  2  3
  9 10  1  0
 10 11  2  0
 10 12  1  0
 12 13  1  0
 13 14  1  0
 14 15  2  0
 14 16  1  0
 16 17  1  0
 17 18  2  0
 17 22  1  0
 18 19  1  0
 19 20  2  0
 20 21  1  0
 21 22  2  0
 21 29  1  0
 22 23  1  0
 23 24  2  0
 23 28  1  0
 24 25  1  0
 25 26  2  0
 26 27  1  0
 27 28  2  0
 28 29  1  0
 29 30  2  3
 30 31  1  0
 31 32  2  0
 31 33  1  0
 33 34  1  0
 34 35  1  6
 34 38  1  0
 35 36  1  0
 36 37  1  0
 38 39  1  6
 38 40  1  0
 40 41  3  0
 42 43  1  0
 43 44  2  0
 43 48  1  0
 44 45  1  0
 45 46  2  0
 46 47  1  0
 47 48  2  0
M  CHG  1  37   1
M  END
