
     RDKit          3D

 48 54  0  0  0  0  0  0  0  0999 V2000
   -5.4240    1.4970   -1.4090 C   0  0  0  0  0  0  0  0  0  0  0  0
   -4.8360    0.5870   -0.4040 C   0  0  2  0  0  0  0  0  0  0  0  0
   -5.4570   -0.6620   -0.1620 N   0  0  0  0  0  0  0  0  0  0  0  0
   -6.5360   -1.0810   -0.9770 C   0  0  2  0  0  0  0  0  0  0  0  0
   -7.8930   -0.6490   -0.4720 C   0  0  0  0  0  0  0  0  0  0  0  0
   -8.8650   -1.6850   -0.9890 C   0  0  0  0  0  0  0  0  0  0  0  0
   -8.0690   -2.9720   -0.9990 C   0  0  0  0  0  0  0  0  0  0  0  0
   -6.6380   -2.6050   -0.7800 C   0  0  1  0  0  0  0  0  0  0  0  0
   -5.6890   -3.3070   -1.6970 C   0  0  0  0  0  0  0  0  0  0  0  0
   -5.9030   -3.0800   -3.0920 N   0  0  0  0  0  0  0  0  0  0  0  0
   -4.4730    1.2360    0.9190 C   0  0  2  0  0  0  0  0  0  0  0  0
   -5.6000    1.8720    1.6270 C   0  0  0  0  0  0  0  0  0  0  0  0
   -5.5010    3.3310    1.8500 C   0  0  0  0  0  0  0  0  0  0  0  0
   -6.4100    3.9270    2.6960 C   0  0  0  0  0  0  0  0  0  0  0  0
   -6.3580    5.2930    2.9360 C   0  0  0  0  0  0  0  0  0  0  0  0
   -5.4060    6.1070    2.3460 C   0  0  0  0  0  0  0  0  0  0  0  0
   -4.4930    5.5070    1.4950 C   0  0  0  0  0  0  0  0  0  0  0  0
   -4.5660    4.1570    1.2760 C   0  0  0  0  0  0  0  0  0  0  0  0
   -3.5690    3.5230    0.3720 C   0  0  0  0  0  0  0  0  0  0  0  0
   -3.2840    2.1290    0.8750 C   0  0  2  0  0  0  0  0  0  0  0  0
   -2.1620    1.6090    0.1160 N   0  0  0  0  0  0  0  0  0  0  0  0
   -0.9660    1.1680    0.7410 C   0  0  0  0  0  0  0  0  0  0  0  0
   -0.9590    1.2700    2.0180 O   0  0  0  0  0  0  0  0  0  0  0  0
    0.2220    0.6210    0.0600 C   0  0  0  0  0  0  0  0  0  0  0  0
    1.2260    0.2320    0.9370 O   0  0  0  0  0  0  0  0  0  0  0  0
    2.3960   -0.3060    0.4640 C   0  0  0  0  0  0  0  0  0  0  0  0
    2.7110   -0.5130   -0.8630 C   0  0  0  0  0  0  0  0  0  0  0  0
    3.9210   -1.0680   -1.2500 C   0  0  0  0  0  0  0  0  0  0  0  0
    4.8770   -1.4430   -0.3310 C   0  0  0  0  0  0  0  0  0  0  0  0
    6.0880   -1.9980   -0.7080 O   0  0  0  0  0  0  0  0  0  0  0  0
    7.3340   -1.4530   -0.4220 C   0  0  0  0  0  0  0  0  0  0  0  0
    7.4900   -0.2330    0.2150 C   0  0  0  0  0  0  0  0  0  0  0  0
    8.7550    0.2700    0.4850 C   0  0  0  0  0  0  0  0  0  0  0  0
    9.8960   -0.4160    0.1330 C   0  0  0  0  0  0  0  0  0  0  0  0
   11.1560    0.0680    0.4020 C   0  0  0  0  0  0  0  0  0  0  0  0
   12.2870   -0.6470    0.0450 C   0  0  0  0  0  0  0  0  0  0  0  0
   13.5170   -0.1810    0.3080 N   0  0  0  0  0  0  0  0  0  0  0  0
   14.6240   -0.8760   -0.0350 C   0  0  0  0  0  0  0  0  0  0  0  0
   14.5150   -2.0920   -0.6700 C   0  0  0  0  0  0  0  0  0  0  0  0
   15.5600   -2.7150   -0.9760 O   0  0  0  0  0  0  0  0  0  0  0  0
   13.2780   -2.5570   -0.9330 N   0  0  0  0  0  0  0  0  0  0  0  0
   12.1700   -1.8660   -0.5930 C   0  0  0  0  0  0  0  0  0  0  0  0
   10.8920   -2.3240   -0.8490 C   0  0  0  0  0  0  0  0  0  0  0  0
    9.7450   -1.6330   -0.5030 C   0  0  0  0  0  0  0  0  0  0  0  0
    8.4870   -2.1210   -0.7650 C   0  0  0  0  0  0  0  0  0  0  0  0
    4.5670   -1.2380    1.0100 C   0  0  0  0  0  0  0  0  0  0  0  0
    5.5190   -1.6120    1.9740 O   0  0  0  0  0  0  0  0  0  0  0  0
    3.3650   -0.6870    1.3870 C   0  0  0  0  0  0  0  0  0  0  0  0
  2  1  1  1
  2  3  1  0
  2 11  1  0
  4  3  1  1
  4  5  1  0
  4  8  1  0
  5  6  1  0
  6  7  1  0
  7  8  1  0
  8  9  1  6
  9 10  1  0
 11 12  1  6
 11 20  1  0
 12 13  1  0
 13 14  2  0
 13 18  1  0
 14 15  1  0
 15 16  2  0
 16 17  1  0
 17 18  2  0
 18 19  1  0
 19 20  1  0
 20 21  1  6
 21 22  1  0
 22 23  2  0
 22 24  1  0
 24 25  1  0
 25 26  1  0
 26 27  2  0
 26 48  1  0
 27 28  1  0
 28 29  2  0
 29 30  1  0
 29 46  1  0
 30 31  1  0
 31 32  2  0
 31 45  1  0
 32 33  1  0
 33 34  2  0
 34 35  1  0
 34 44  1  0
 35 36  2  0
 36 37  1  0
 36 42  1  0
 37 38  2  0
 38 39  1  0
 39 40  2  0
 39 41  1  0
 41 42  1  0
 42 43  2  0
 43 44  1  0
 44 45  2  0
 46 47  1  0
 46 48  2  0
M  CHG  2   3   1  10   1
M  END
