
     RDKit          3D

 35 38  0  0  0  0  0  0  0  0999 V2000
   -8.2430    2.0770    2.3040 N   0  0  0  0  0  0  0  0  0  0  0  0
   -7.0570    1.9860    1.5120 C   0  0  0  0  0  0  0  0  0  0  0  0
   -6.3900    3.0120    1.3430 O   0  0  0  0  0  0  0  0  0  0  0  0
   -6.6780    0.6790    0.9320 C   0  0  0  0  0  0  0  0  0  0  0  0
   -5.3880    0.9010    0.1280 C   0  0  2  0  0  0  0  0  0  0  0  0
   -5.7780    1.8940   -0.8930 N   0  0  0  0  0  0  0  0  0  0  0  0
   -5.0110   -0.3340   -0.5820 C   0  0  0  0  0  0  0  0  0  0  0  0
   -5.3640   -0.4720   -1.8000 O   0  0  0  0  0  0  0  0  0  0  0  0
   -4.2800   -1.3510    0.0470 N   0  0  0  0  0  0  0  0  0  0  0  0
   -3.9540   -2.5650   -0.6620 C   0  0  0  0  0  0  0  0  0  0  0  0
   -2.4240   -2.6540   -0.7400 C   0  0  0  0  0  0  0  0  0  0  0  0
   -1.8840   -2.5770    0.6460 C   0  0  1  0  0  0  0  0  0  0  0  0
   -0.9190   -1.5200    0.7450 N   0  0  0  0  0  0  0  0  0  0  0  0
    0.3060   -1.5670    0.0930 C   0  0  0  0  0  0  0  0  0  0  0  0
    0.7150   -2.6790   -0.5950 C   0  0  0  0  0  0  0  0  0  0  0  0
    1.9280   -2.7680   -1.2590 C   0  0  0  0  0  0  0  0  0  0  0  0
    2.7780   -1.6780   -1.2280 C   0  0  0  0  0  0  0  0  0  0  0  0
    2.3970   -0.5450   -0.5450 C   0  0  0  0  0  0  0  0  0  0  0  0
    1.1960   -0.4920    0.0960 C   0  0  0  0  0  0  0  0  0  0  0  0
    3.5140    0.4420   -0.6800 C   0  0  0  0  0  0  0  0  0  0  0  0
    4.6570   -0.3910   -1.0050 N   0  0  0  0  0  0  0  0  0  0  0  0
    5.9550    0.4420   -1.7180 S   0  0  1  0  0  0  0  0  0  0  0  0
    7.0460   -0.4870   -2.1640 O   0  0  0  0  0  0  0  0  0  0  0  0
    5.4860    1.1750   -2.9570 O   0  0  0  0  0  0  0  0  0  0  0  0
    6.5210    1.6270   -0.5840 C   0  0  0  0  0  0  0  0  0  0  0  0
    6.5310    2.9640   -0.8870 C   0  0  0  0  0  0  0  0  0  0  0  0
    6.9970    3.9040    0.0470 C   0  0  0  0  0  0  0  0  0  0  0  0
    7.4480    3.4540    1.2810 C   0  0  0  0  0  0  0  0  0  0  0  0
    7.9010    4.3770    2.1870 O   0  0  0  0  0  0  0  0  0  0  0  0
    7.4410    2.1120    1.5940 C   0  0  0  0  0  0  0  0  0  0  0  0
    6.9750    1.2180    0.6500 C   0  0  0  0  0  0  0  0  0  0  0  0
    6.9610   -0.1200    0.9450 O   0  0  0  0  0  0  0  0  0  0  0  0
    4.1460   -1.4530   -1.8360 C   0  0  0  0  0  0  0  0  0  0  0  0
   -2.9470   -2.4430    1.7180 C   0  0  0  0  0  0  0  0  0  0  0  0
   -3.8150   -1.2240    1.3970 C   0  0  0  0  0  0  0  0  0  0  0  0
  1  2  1  0
  2  3  2  0
  2  4  1  0
  4  5  1  0
  5  6  1  6
  5  7  1  0
  7  8  2  0
  7  9  1  0
  9 10  1  0
  9 35  1  0
 10 11  1  0
 11 12  1  0
 12 13  1  6
 12 34  1  0
 13 14  1  0
 14 15  2  0
 14 19  1  0
 15 16  1  0
 16 17  2  0
 17 18  1  0
 17 33  1  0
 18 19  2  0
 18 20  1  0
 20 21  1  0
 22 21  1  1
 21 33  1  0
 22 23  2  0
 22 24  2  0
 22 25  1  0
 25 26  2  0
 25 31  1  0
 26 27  1  0
 27 28  2  0
 28 29  1  0
 28 30  1  0
 30 31  2  0
 31 32  1  0
 34 35  1  0
M  CHG  1   6   1
M  END
