
     RDKit          3D

 31 33  0  0  0  0  0  0  0  0999 V2000
   -1.3980    2.0340   -1.8900 C   0  0  0  0  0  0  0  0  0  0  0  0
   -0.9280    1.1600   -0.8560 O   0  0  0  0  0  0  0  0  0  0  0  0
   -0.3080   -0.0630   -1.2260 C   0  0  0  0  0  0  0  0  0  0  0  0
    1.0300   -0.0710   -1.7460 C   0  0  0  0  0  0  0  0  0  0  0  0
    1.5720   -1.1320   -2.1220 O   0  0  0  0  0  0  0  0  0  0  0  0
    1.8210    1.1330   -1.8590 N   0  0  0  0  0  0  0  0  0  0  0  0
    3.1560    1.0880   -2.3930 C   0  0  0  0  0  0  0  0  0  0  0  0
    4.0900    0.2120   -1.6140 C   0  0  0  0  0  0  0  0  0  0  0  0
    4.1930    0.7040   -0.2310 C   0  0  0  0  0  0  0  0  0  0  0  0
    3.5410    1.7230    0.1270 O   0  0  0  0  0  0  0  0  0  0  0  0
    5.0180    0.0400    0.6970 N   0  0  0  0  0  0  0  0  0  0  0  0
    5.2170    0.4030    2.0760 C   0  0  0  0  0  0  0  0  0  0  0  0
    6.7360    0.2350    2.2080 C   0  0  0  0  0  0  0  0  0  0  0  0
    7.1120   -0.7880    1.1550 C   0  0  0  0  0  0  0  0  0  0  0  0
    5.8170   -1.1280    0.4390 C   0  0  0  0  0  0  0  0  0  0  0  0
   -0.9870   -1.2080   -1.0840 C   0  0  0  0  0  0  0  0  0  0  0  0
   -0.3580   -2.4750   -1.4740 C   0  0  0  0  0  0  0  0  0  0  0  0
   -2.3000   -1.2250   -0.4520 C   0  0  0  0  0  0  0  0  0  0  0  0
   -3.0620   -2.2630   -0.2750 C   0  0  0  0  0  0  0  0  0  0  0  0
   -4.3580   -2.2230    0.3810 C   0  0  0  0  0  0  0  0  0  0  0  0
   -4.9550   -1.2070    0.9050 C   0  0  0  0  0  0  0  0  0  0  0  0
   -6.3010   -1.4110    1.5020 C   0  0  0  0  0  0  0  0  0  0  0  0
   -7.0090   -0.3280    1.7500 C   0  0  0  0  0  0  0  0  0  0  0  0
   -8.2970   -0.4680    2.2900 O   0  0  0  0  0  0  0  0  0  0  0  0
   -6.5560    1.0240    1.5370 C   0  0  0  0  0  0  0  0  0  0  0  0
   -5.3170    1.2440    1.0820 C   0  0  0  0  0  0  0  0  0  0  0  0
   -4.8040    2.6070    0.8200 C   0  0  2  0  0  0  0  0  0  0  0  0
   -4.3160    2.7450   -0.4490 F   0  0  0  0  0  0  0  0  0  0  0  0
   -3.7580    2.9120    1.7010 F   0  0  0  0  0  0  0  0  0  0  0  0
   -4.3630    0.1180    1.0610 C   0  0  2  0  0  0  0  0  0  0  0  0
   -2.9770    0.3840    0.0100 S   0  0  0  0  0  0  0  0  0  0  0  0
  1  2  1  0
  2  3  1  0
  3  4  1  0
  3 16  2  3
  4  5  2  0
  4  6  1  0
  6  7  1  0
  7  8  1  0
  8  9  1  0
  9 10  2  0
  9 11  1  0
 11 12  1  0
 11 15  1  0
 12 13  1  0
 13 14  1  0
 14 15  1  0
 16 17  1  0
 16 18  1  0
 18 19  2  0
 18 31  1  0
 19 20  1  0
 20 21  2  0
 21 22  1  0
 21 30  1  0
 22 23  2  0
 23 24  1  0
 23 25  1  0
 25 26  2  0
 26 27  1  0
 26 30  1  0
 27 28  1  6
 27 29  1  0
 30 31  1  6
M  END
