
     RDKit          3D

 30 31  0  0  0  0  0  0  0  0999 V2000
   -7.3150   -0.5870   -2.8910 C   0  0  0  0  0  0  0  0  0  0  0  0
   -6.1300   -0.4490   -1.9920 C   0  0  0  0  0  0  0  0  0  0  0  0
   -4.9300    0.0600   -2.4650 C   0  0  0  0  0  0  0  0  0  0  0  0
   -3.8710    0.1630   -1.5860 C   0  0  0  0  0  0  0  0  0  0  0  0
   -2.5730    0.6990   -2.0480 C   0  0  0  0  0  0  0  0  0  0  0  0
   -4.0140   -0.2370   -0.2590 C   0  0  0  0  0  0  0  0  0  0  0  0
   -2.9160   -0.1110    0.5800 O   0  0  0  0  0  0  0  0  0  0  0  0
   -2.7740    1.1160    1.2840 C   0  0  0  0  0  0  0  0  0  0  0  0
   -1.5380    1.0230    2.1130 C   0  0  1  0  0  0  0  0  0  0  0  0
   -1.6550   -0.0260    2.9990 O   0  0  0  0  0  0  0  0  0  0  0  0
   -0.3020    0.8820    1.2360 C   0  0  0  0  0  0  0  0  0  0  0  0
    0.9280    0.7910    2.1170 C   0  0  0  0  0  0  0  0  0  0  0  0
    0.8020    0.8390    3.3610 O   0  0  0  0  0  0  0  0  0  0  0  0
    2.2030    0.6550    1.5610 N   0  0  0  0  0  0  0  0  0  0  0  0
    3.4450    0.5570    2.2210 C   0  0  0  0  0  0  0  0  0  0  0  0
    3.5450    0.5880    3.5870 C   0  0  0  0  0  0  0  0  0  0  0  0
    4.7910    0.4890    4.2060 C   0  0  0  0  0  0  0  0  0  0  0  0
    5.9300    0.3590    3.4550 C   0  0  0  0  0  0  0  0  0  0  0  0
    5.8340    0.3270    2.0810 C   0  0  0  0  0  0  0  0  0  0  0  0
    4.6190    0.4240    1.4830 C   0  0  0  0  0  0  0  0  0  0  0  0
    4.5200    0.3920    0.0980 O   0  0  0  0  0  0  0  0  0  0  0  0
    5.6730    0.2600   -0.6930 C   0  0  0  0  0  0  0  0  0  0  0  0
    5.3420    0.2470   -2.1720 C   0  0  2  0  0  0  0  0  0  0  0  0
    4.4930   -0.8340   -2.4280 O   0  0  0  0  0  0  0  0  0  0  0  0
    6.5660    0.0720   -3.0220 C   0  0  0  0  0  0  0  0  0  0  0  0
    7.2490   -1.1600   -2.7150 N   0  0  0  0  0  0  0  0  0  0  0  0
   -5.2160   -0.7370    0.1810 C   0  0  0  0  0  0  0  0  0  0  0  0
   -5.3650   -1.1620    1.5930 C   0  0  0  0  0  0  0  0  0  0  0  0
   -6.2920   -0.8480   -0.6910 C   0  0  0  0  0  0  0  0  0  0  0  0
   -7.5800   -1.3940   -0.1830 C   0  0  0  0  0  0  0  0  0  0  0  0
  1  2  1  0
  2  3  2  0
  2 29  1  0
  3  4  1  0
  4  5  1  0
  4  6  2  0
  6  7  1  0
  6 27  1  0
  7  8  1  0
  8  9  1  0
  9 10  1  1
  9 11  1  0
 11 12  1  0
 12 13  2  0
 12 14  1  0
 14 15  1  0
 15 16  2  0
 15 20  1  0
 16 17  1  0
 17 18  2  0
 18 19  1  0
 19 20  2  0
 20 21  1  0
 21 22  1  0
 22 23  1  0
 23 24  1  1
 23 25  1  0
 25 26  1  0
 27 28  1  0
 27 29  2  0
 29 30  1  0
M  CHG  1  26   1
M  END
