
     RDKit          3D

 30 31  0  0  0  0  0  0  0  0999 V2000
    3.2870   -3.6750   -3.3450 C   0  0  0  0  0  0  0  0  0  0  0  0
    2.4670   -2.8780   -2.3960 C   0  0  0  0  0  0  0  0  0  0  0  0
    1.0960   -2.9700   -2.4520 C   0  0  0  0  0  0  0  0  0  0  0  0
    0.3640   -2.2190   -1.5580 C   0  0  0  0  0  0  0  0  0  0  0  0
    0.9290   -1.4030   -0.6390 C   0  0  0  0  0  0  0  0  0  0  0  0
    0.1070   -0.6000    0.3170 C   0  0  2  0  0  0  0  0  0  0  0  0
   -0.1560   -1.3240    1.4540 O   0  0  0  0  0  0  0  0  0  0  0  0
   -1.0220    0.0550   -0.3320 C   0  0  0  0  0  0  0  0  0  0  0  0
   -0.6860    0.7620   -1.3690 O   0  0  0  0  0  0  0  0  0  0  0  0
   -2.3930    0.0260    0.0080 N   0  0  0  0  0  0  0  0  0  0  0  0
   -2.8430   -0.7500    1.1250 C   0  0  0  0  0  0  0  0  0  0  0  0
   -2.8480   -0.0340    2.4470 C   0  0  0  0  0  0  0  0  0  0  0  0
   -3.3360   -1.0090    3.5340 C   0  0  0  0  0  0  0  0  0  0  0  0
   -4.6090   -1.4590    3.2610 O   0  0  0  0  0  0  0  0  0  0  0  0
   -3.3180    0.7860   -0.8350 C   0  0  1  0  0  0  0  0  0  0  0  0
   -4.3850   -0.0130   -1.4690 C   0  0  0  0  0  0  0  0  0  0  0  0
   -5.4420    0.9260   -1.9970 C   0  0  0  0  0  0  0  0  0  0  0  0
   -6.0550    1.8090   -0.9660 C   0  0  0  0  0  0  0  0  0  0  0  0
   -5.2380    1.7460    0.3290 C   0  0  2  0  0  0  0  0  0  0  0  0
   -5.6930    2.7600    1.2630 N   0  0  0  0  0  0  0  0  0  0  0  0
   -3.8030    2.0020   -0.0640 C   0  0  0  0  0  0  0  0  0  0  0  0
    2.3360   -1.2900   -0.5610 C   0  0  0  0  0  0  0  0  0  0  0  0
    2.8840   -0.4660    0.3740 O   0  0  0  0  0  0  0  0  0  0  0  0
    4.2130   -0.1810    0.6040 C   0  0  0  0  0  0  0  0  0  0  0  0
    4.8470    0.5640   -0.5280 C   0  0  0  0  0  0  0  0  0  0  0  0
    6.2960    0.8250   -0.2730 C   0  0  0  0  0  0  0  0  0  0  0  0
    6.5120    1.6510    0.9560 C   0  0  0  0  0  0  0  0  0  0  0  0
    8.0250    1.8520    1.0750 C   0  0  0  0  0  0  0  0  0  0  0  0
    8.5830    0.5720    1.1850 O   0  0  0  0  0  0  0  0  0  0  0  0
    3.0730   -2.0400   -1.4520 C   0  0  0  0  0  0  0  0  0  0  0  0
  1  2  1  0
  2  3  2  0
  2 30  1  0
  3  4  1  0
  4  5  2  0
  5  6  1  0
  5 22  1  0
  6  7  1  1
  6  8  1  0
  8  9  2  0
  8 10  1  0
 10 11  1  0
 15 10  1  1
 11 12  1  0
 12 13  1  0
 13 14  1  0
 15 16  1  0
 15 21  1  0
 16 17  1  0
 17 18  1  0
 18 19  1  0
 19 20  1  1
 19 21  1  0
 22 23  1  0
 22 30  2  0
 23 24  1  0
 24 25  1  0
 25 26  1  0
 26 27  1  0
 27 28  1  0
 28 29  1  0
M  CHG  1  20   1
M  END
