
     RDKit          3D

 31 34  0  0  0  0  0  0  0  0999 V2000
   -7.5250   -1.8800   -2.2040 C   0  0  0  0  0  0  0  0  0  0  0  0
   -6.4790   -1.5720   -1.3030 O   0  0  0  0  0  0  0  0  0  0  0  0
   -6.4170   -0.2800   -0.8040 C   0  0  0  0  0  0  0  0  0  0  0  0
   -7.3320    0.6870   -1.1590 C   0  0  0  0  0  0  0  0  0  0  0  0
   -7.2480    1.9710   -0.6460 C   0  0  0  0  0  0  0  0  0  0  0  0
   -8.1720    2.8800   -1.0270 F   0  0  0  0  0  0  0  0  0  0  0  0
   -6.2230    2.2520    0.2280 C   0  0  0  0  0  0  0  0  0  0  0  0
   -5.2890    1.2930    0.5990 C   0  0  0  0  0  0  0  0  0  0  0  0
   -5.3920    0.0310    0.0810 C   0  0  0  0  0  0  0  0  0  0  0  0
   -4.4620   -0.8890    0.4720 O   0  0  0  0  0  0  0  0  0  0  0  0
   -3.3240   -0.6390    1.2820 C   0  0  0  0  0  0  0  0  0  0  0  0
   -3.2360    0.7020    1.8380 C   0  0  0  0  0  0  0  0  0  0  0  0
   -2.2130    1.1800    2.7770 C   0  0  0  0  0  0  0  0  0  0  0  0
   -0.8530    1.1510    2.3700 N   0  0  0  0  0  0  0  0  0  0  0  0
   -0.0610    0.0090    2.1050 C   0  0  0  0  0  0  0  0  0  0  0  0
   -0.5700   -1.1240    2.2500 O   0  0  0  0  0  0  0  0  0  0  0  0
    1.3640    0.1310    1.6570 C   0  0  0  0  0  0  0  0  0  0  0  0
    1.9750   -1.2170    1.4480 C   0  0  0  0  0  0  0  0  0  0  0  0
    3.6770   -1.0760    0.9160 S   0  0  0  0  0  0  0  0  0  0  0  0
    3.8640   -0.3400   -0.7090 C   0  0  0  0  0  0  0  0  0  0  0  0
    5.3330   -0.2880   -1.0180 C   0  0  0  0  0  0  0  0  0  0  0  0
    6.1490    0.7520   -0.7120 N   0  0  0  0  0  0  0  0  0  0  0  0
    7.4060    0.4770   -1.1280 C   0  0  0  0  0  0  0  0  0  0  0  0
    8.6080    1.1500   -1.0820 C   0  0  0  0  0  0  0  0  0  0  0  0
    9.7150    0.5490   -1.6180 C   0  0  0  0  0  0  0  0  0  0  0  0
   10.9100    1.2060   -1.5780 F   0  0  0  0  0  0  0  0  0  0  0  0
    9.6500   -0.6960   -2.1910 C   0  0  0  0  0  0  0  0  0  0  0  0
    8.4390   -1.3880   -2.2440 C   0  0  0  0  0  0  0  0  0  0  0  0
    7.3290   -0.7740   -1.7010 C   0  0  0  0  0  0  0  0  0  0  0  0
    6.0680   -1.1940   -1.6130 O   0  0  0  0  0  0  0  0  0  0  0  0
   -4.1840    1.5790    1.4840 C   0  0  0  0  0  0  0  0  0  0  0  0
  1  2  1  0
  2  3  1  0
  3  4  2  0
  3  9  1  0
  4  5  1  0
  5  6  1  0
  5  7  2  0
  7  8  1  0
  8  9  2  0
  8 31  1  0
  9 10  1  0
 10 11  1  0
 11 12  1  0
 12 13  1  0
 12 31  2  0
 13 14  1  0
 14 15  1  0
 15 16  2  0
 15 17  1  0
 17 18  1  0
 18 19  1  0
 19 20  1  0
 20 21  1  0
 21 22  2  0
 21 30  1  0
 22 23  1  0
 23 24  2  0
 23 29  1  0
 24 25  1  0
 25 26  1  0
 25 27  2  0
 27 28  1  0
 28 29  2  0
 29 30  1  0
M  END
