
     RDKit          3D

 30 30  0  0  0  0  0  0  0  0999 V2000
   -2.6910    5.2040    1.6100 C   0  0  0  0  0  0  0  0  0  0  0  0
   -2.2050    4.3610    0.4570 C   0  0  0  0  0  0  0  0  0  0  0  0
   -1.3490    3.2260    0.9550 C   0  0  0  0  0  0  0  0  0  0  0  0
   -0.8720    2.4120   -0.0800 O   0  0  0  0  0  0  0  0  0  0  0  0
   -0.0760    1.3110    0.0490 C   0  0  0  0  0  0  0  0  0  0  0  0
    1.2570    1.4210   -0.1150 C   0  0  0  0  0  0  0  0  0  0  0  0
    1.7800    2.7410   -0.4290 C   0  0  0  0  0  0  0  0  0  0  0  0
    3.0540    2.9860   -0.6130 C   0  0  0  0  0  0  0  0  0  0  0  0
    3.4850    4.4030   -0.9360 C   0  0  0  0  0  0  0  0  0  0  0  0
    4.1340    2.0080   -0.5410 C   0  0  0  0  0  0  0  0  0  0  0  0
    2.1290    0.3510    0.0010 O   0  0  0  0  0  0  0  0  0  0  0  0
    1.6550   -0.8970    0.2950 C   0  0  0  0  0  0  0  0  0  0  0  0
    2.4830   -1.9060    0.4060 C   0  0  0  0  0  0  0  0  0  0  0  0
    3.9010   -1.7480    0.2250 C   0  0  0  0  0  0  0  0  0  0  0  0
    4.7010   -2.7880    0.3440 C   0  0  0  0  0  0  0  0  0  0  0  0
    6.1000   -2.5870    0.1570 N   0  0  0  0  0  0  0  0  0  0  0  0
    0.2060   -1.0640    0.4820 C   0  0  0  0  0  0  0  0  0  0  0  0
   -0.2870   -2.4170    0.8160 C   0  0  0  0  0  0  0  0  0  0  0  0
    0.0020   -3.3800   -0.2540 N   0  0  0  0  0  0  0  0  0  0  0  0
   -0.3920   -4.7390   -0.1250 C   0  0  0  0  0  0  0  0  0  0  0  0
   -0.0850   -5.6940   -1.2260 C   0  0  0  0  0  0  0  0  0  0  0  0
   -0.9920   -5.0930    0.9240 O   0  0  0  0  0  0  0  0  0  0  0  0
   -0.5840   -0.0110    0.3610 C   0  0  0  0  0  0  0  0  0  0  0  0
   -1.9410   -0.1720    0.5360 O   0  0  0  0  0  0  0  0  0  0  0  0
   -2.9050   -0.3940   -0.4360 C   0  0  2  0  0  0  0  0  0  0  0  0
   -2.7260   -1.6430   -1.2550 C   0  0  0  0  0  0  0  0  0  0  0  0
   -3.0040    0.7410   -1.4690 C   0  0  0  0  0  0  0  0  0  0  0  0
   -4.2820   -0.4510    0.1990 C   0  0  1  0  0  0  0  0  0  0  0  0
   -4.4860   -1.6030    1.1200 C   0  0  0  0  0  0  0  0  0  0  0  0
   -4.5760    0.7580    0.8500 O   0  0  0  0  0  0  0  0  0  0  0  0
  1  2  1  0
  2  3  1  0
  3  4  1  0
  4  5  1  0
  5  6  2  0
  5 23  1  0
  6  7  1  0
  6 11  1  0
  7  8  2  3
  8  9  1  0
  8 10  1  0
 11 12  1  0
 12 13  2  3
 12 17  1  0
 13 14  1  0
 14 15  2  3
 15 16  1  0
 17 18  1  0
 17 23  2  0
 18 19  1  0
 19 20  1  0
 20 21  1  0
 20 22  2  0
 23 24  1  0
 24 25  1  0
 25 26  1  6
 25 27  1  0
 25 28  1  0
 28 29  1  1
 28 30  1  0
M  CHG  1  16   1
M  END
