
     RDKit          3D

 29 31  0  0  0  0  0  0  0  0999 V2000
   -3.0680    3.5090    0.3570 C   0  0  0  0  0  0  0  0  0  0  0  0
   -3.2110    2.4380   -0.6700 C   0  0  0  0  0  0  0  0  0  0  0  0
   -4.0090    1.2640   -0.2210 C   0  0  0  0  0  0  0  0  0  0  0  0
   -3.5080    0.5250    0.9590 C   0  0  0  0  0  0  0  0  0  0  0  0
   -2.1460   -0.0470    0.7580 N   0  0  0  0  0  0  0  0  0  0  0  0
   -1.0840    0.8090    1.2240 C   0  0  0  0  0  0  0  0  0  0  0  0
   -2.0350   -1.3220    0.2030 C   0  0  0  0  0  0  0  0  0  0  0  0
   -3.1800   -1.8700   -0.0560 O   0  0  0  0  0  0  0  0  0  0  0  0
   -0.8660   -2.1040   -0.1160 C   0  0  0  0  0  0  0  0  0  0  0  0
    0.4130   -1.5900   -0.1670 C   0  0  0  0  0  0  0  0  0  0  0  0
    1.5450   -2.3160   -0.5220 C   0  0  0  0  0  0  0  0  0  0  0  0
    2.8930   -1.7640   -0.5620 C   0  0  0  0  0  0  0  0  0  0  0  0
    3.9590   -2.4910   -1.0450 N   0  0  0  0  0  0  0  0  0  0  0  0
    5.0350   -1.7880   -0.9640 N   0  0  0  0  0  0  0  0  0  0  0  0
    4.7070   -0.6180   -0.4410 C   0  0  0  0  0  0  0  0  0  0  0  0
    5.4970    0.3110   -0.2180 O   0  0  0  0  0  0  0  0  0  0  0  0
    3.3440   -0.5850   -0.1780 N   0  0  0  0  0  0  0  0  0  0  0  0
    2.7340    0.5300    0.3850 C   0  0  0  0  0  0  0  0  0  0  0  0
    2.4870    0.7140    1.7490 C   0  0  0  0  0  0  0  0  0  0  0  0
    1.9530    1.8710    2.2580 C   0  0  0  0  0  0  0  0  0  0  0  0
    1.6330    2.9180    1.4190 C   0  0  0  0  0  0  0  0  0  0  0  0
    1.8640    2.7730    0.0470 C   0  0  0  0  0  0  0  0  0  0  0  0
    2.4010    1.6030   -0.4460 C   0  0  0  0  0  0  0  0  0  0  0  0
    2.6230    1.4650   -1.7740 F   0  0  0  0  0  0  0  0  0  0  0  0
    1.3640   -3.6430   -0.8440 C   0  0  0  0  0  0  0  0  0  0  0  0
    2.3760   -4.4680   -1.2060 O   0  0  0  0  0  0  0  0  0  0  0  0
    0.0920   -4.1770   -0.7990 C   0  0  0  0  0  0  0  0  0  0  0  0
   -1.0260   -3.4650   -0.4500 C   0  0  0  0  0  0  0  0  0  0  0  0
   -2.2420   -4.0820   -0.4320 O   0  0  0  0  0  0  0  0  0  0  0  0
  1  2  1  0
  2  3  1  0
  3  4  1  0
  4  5  1  0
  5  6  1  0
  5  7  1  0
  7  8  2  0
  7  9  1  0
  9 10  2  0
  9 28  1  0
 10 11  1  0
 11 12  1  0
 11 25  2  0
 12 13  2  0
 12 17  1  0
 13 14  1  0
 14 15  1  0
 15 16  2  0
 15 17  1  0
 17 18  1  0
 18 19  2  0
 18 23  1  0
 19 20  1  0
 20 21  2  0
 21 22  1  0
 22 23  2  0
 23 24  1  0
 25 26  1  0
 25 27  1  0
 27 28  2  0
 28 29  1  0
M  END
