
     RDKit          3D

 31 34  0  0  0  0  0  0  0  0999 V2000
   -1.5090   -1.5370   -0.2240 C   0  0  0  0  0  0  0  0  0  0  0  0
   -0.6010   -0.3760   -0.2660 C   0  0  0  0  0  0  0  0  0  0  0  0
   -1.1740    0.8930   -0.1480 C   0  0  0  0  0  0  0  0  0  0  0  0
   -2.6240    1.0220    0.0450 C   0  0  0  0  0  0  0  0  0  0  0  0
   -3.3380    2.1740    0.1570 C   0  0  0  0  0  0  0  0  0  0  0  0
   -4.6770    1.8390    0.3280 C   0  0  0  0  0  0  0  0  0  0  0  0
   -4.7110    0.4650    0.3100 C   0  0  0  0  0  0  0  0  0  0  0  0
   -3.4960    0.0450    0.1440 O   0  0  0  0  0  0  0  0  0  0  0  0
   -6.0120   -0.1960    0.4710 C   0  0  0  0  0  0  0  0  0  0  0  0
   -7.1240    0.5000    0.6280 C   0  0  0  0  0  0  0  0  0  0  0  0
   -8.4530   -0.1800    0.7920 C   0  0  1  0  0  0  0  0  0  0  0  0
   -8.2510   -1.5550    0.7440 F   0  0  0  0  0  0  0  0  0  0  0  0
   -8.8650    0.1020    2.0930 F   0  0  0  0  0  0  0  0  0  0  0  0
   -7.0480    1.8660    0.6400 O   0  0  0  0  0  0  0  0  0  0  0  0
   -5.9010    2.6410    0.5010 C   0  0  0  0  0  0  0  0  0  0  0  0
   -0.3440    1.9660   -0.2060 C   0  0  0  0  0  0  0  0  0  0  0  0
   -0.8150    3.1310   -0.1050 O   0  0  0  0  0  0  0  0  0  0  0  0
    0.9860    1.7730   -0.3720 N   0  0  0  0  0  0  0  0  0  0  0  0
    1.5380    0.5760   -0.4840 C   0  0  0  0  0  0  0  0  0  0  0  0
    3.2840    0.3570   -0.7010 S   0  0  0  0  0  0  0  0  0  0  0  0
    4.1640    0.2200    0.8740 C   0  0  0  0  0  0  0  0  0  0  0  0
    5.6150    0.0380    0.5430 C   0  0  0  0  0  0  0  0  0  0  0  0
    6.4570    1.1220    0.4030 C   0  0  0  0  0  0  0  0  0  0  0  0
    7.8020    0.9890    0.0990 C   0  0  0  0  0  0  0  0  0  0  0  0
    8.3440   -0.2680   -0.0760 C   0  0  0  0  0  0  0  0  0  0  0  0
    7.5120   -1.3590    0.0610 C   0  0  0  0  0  0  0  0  0  0  0  0
    6.1670   -1.2130    0.3670 C   0  0  0  0  0  0  0  0  0  0  0  0
    0.7390   -0.5020   -0.4300 N   0  0  0  0  0  0  0  0  0  0  0  0
    1.3370   -1.8030   -0.5480 C   0  0  0  0  0  0  0  0  0  0  0  0
    1.3970   -2.3220   -1.9550 C   0  0  0  0  0  0  0  0  0  0  0  0
    2.1350   -1.5030   -2.7980 O   0  0  0  0  0  0  0  0  0  0  0  0
  1  2  1  0
  2  3  2  0
  2 28  1  0
  3  4  1  0
  3 16  1  0
  4  5  2  0
  4  8  1  0
  5  6  1  0
  6  7  2  0
  6 15  1  0
  7  8  1  0
  7  9  1  0
  9 10  2  0
 10 11  1  0
 10 14  1  0
 11 12  1  1
 11 13  1  0
 14 15  1  0
 16 17  2  0
 16 18  1  0
 18 19  2  0
 19 20  1  0
 19 28  1  0
 20 21  1  0
 21 22  1  0
 22 23  2  0
 22 27  1  0
 23 24  1  0
 24 25  2  0
 25 26  1  0
 26 27  2  0
 28 29  1  0
 29 30  1  0
 30 31  1  0
M  END
