
     RDKit          3D

 31 33  0  0  0  0  0  0  0  0999 V2000
    3.3440   -6.1060    0.9620 C   0  0  0  0  0  0  0  0  0  0  0  0
    2.7050   -4.7980    1.1460 C   0  0  0  0  0  0  0  0  0  0  0  0
    1.6810   -4.3110    1.8600 C   0  0  0  0  0  0  0  0  0  0  0  0
    1.3150   -3.0200    1.7580 C   0  0  0  0  0  0  0  0  0  0  0  0
    1.9820   -2.2060    0.9360 C   0  0  0  0  0  0  0  0  0  0  0  0
    1.9070   -0.8190    0.4470 C   0  0  0  0  0  0  0  0  0  0  0  0
    2.7560   -0.3210   -0.2510 N   0  0  0  0  0  0  0  0  0  0  0  0
    3.6100    0.2860   -0.9930 N   0  0  0  0  0  0  0  0  0  0  0  0
    4.6020    1.1170   -0.3330 C   0  0  0  0  0  0  0  0  0  0  0  0
    4.5500    1.1550    0.9170 O   0  0  0  0  0  0  0  0  0  0  0  0
    5.6240    1.8820   -1.0600 C   0  0  0  0  0  0  0  0  0  0  0  0
    6.2930    2.7110   -0.1290 O   0  0  0  0  0  0  0  0  0  0  0  0
    5.3140    3.5120    0.4750 C   0  0  1  0  0  0  0  0  0  0  0  0
    5.4890    3.4110    1.8220 F   0  0  0  0  0  0  0  0  0  0  0  0
    5.5110    4.8380    0.0930 F   0  0  0  0  0  0  0  0  0  0  0  0
    0.6370   -0.0720    0.6380 C   0  0  0  0  0  0  0  0  0  0  0  0
   -0.2250   -0.3530    1.4390 O   0  0  0  0  0  0  0  0  0  0  0  0
    0.4520    1.0050   -0.2100 O   0  0  0  0  0  0  0  0  0  0  0  0
   -0.5120    1.8950   -0.3830 C   0  0  0  0  0  0  0  0  0  0  0  0
   -1.9080    1.3450   -0.1860 C   0  0  0  0  0  0  0  0  0  0  0  0
   -2.5160    1.6010    1.0530 C   0  0  0  0  0  0  0  0  0  0  0  0
   -3.8590    1.3630    1.2330 C   0  0  0  0  0  0  0  0  0  0  0  0
   -4.4810    1.7540    2.5300 C   0  0  0  0  0  0  0  0  0  0  0  0
   -4.6570    0.8630    0.2310 C   0  0  0  0  0  0  0  0  0  0  0  0
   -6.0800    0.6160    0.4100 C   0  0  0  0  0  0  0  0  0  0  0  0
   -4.0400    0.6070   -0.9880 C   0  0  0  0  0  0  0  0  0  0  0  0
   -2.7020    0.8490   -1.1820 C   0  0  0  0  0  0  0  0  0  0  0  0
   -2.3390    0.3990   -2.5480 C   0  0  0  0  0  0  0  0  0  0  0  0
   -3.3990   -0.0870   -3.1330 C   0  0  0  0  0  0  0  0  0  0  0  0
   -4.5860   -0.0030   -2.2430 C   0  0  0  0  0  0  0  0  0  0  0  0
    3.2250   -3.3110    0.2380 S   0  0  0  0  0  0  0  0  0  0  0  0
  1  2  1  0
  2  3  2  0
  2 31  1  0
  3  4  1  0
  4  5  2  0
  5  6  1  0
  5 31  1  0
  6  7  2  3
  6 16  1  0
  7  8  1  0
  8  9  1  0
  9 10  2  0
  9 11  1  0
 11 12  1  0
 12 13  1  0
 13 14  1  1
 13 15  1  0
 16 17  2  0
 16 18  1  0
 18 19  1  0
 19 20  1  0
 20 21  2  0
 20 27  1  0
 21 22  1  0
 22 23  1  0
 22 24  2  0
 24 25  1  0
 24 26  1  0
 26 27  2  0
 26 30  1  0
 27 28  1  0
 28 29  2  0
 29 30  1  0
M  END
