
     RDKit          3D

 28 30  0  0  0  0  0  0  0  0999 V2000
   -5.7800   -2.8990    1.4000 C   0  0  0  0  0  0  0  0  0  0  0  0
   -6.0730   -1.6480    0.7380 N   0  0  0  0  0  0  0  0  0  0  0  0
   -7.4300   -1.1860    0.5410 C   0  0  0  0  0  0  0  0  0  0  0  0
   -7.4300    0.1400   -0.0080 N   0  0  0  0  0  0  0  0  0  0  0  0
   -6.5570    0.2680   -1.1580 C   0  0  0  0  0  0  0  0  0  0  0  0
   -5.1660    0.0910   -0.6740 C   0  0  0  0  0  0  0  0  0  0  0  0
   -4.1240    0.8520   -1.1440 C   0  0  0  0  0  0  0  0  0  0  0  0
   -2.8290    0.6370   -0.6470 C   0  0  0  0  0  0  0  0  0  0  0  0
   -1.8210    1.4640   -1.1630 N   0  0  0  0  0  0  0  0  0  0  0  0
   -0.4350    1.2330   -0.9900 C   0  0  0  0  0  0  0  0  0  0  0  0
    0.0090    0.2550   -0.3640 O   0  0  0  0  0  0  0  0  0  0  0  0
    0.5410    2.1410   -1.5460 N   0  0  0  0  0  0  0  0  0  0  0  0
    1.9460    1.9280   -1.3780 C   0  0  0  0  0  0  0  0  0  0  0  0
    2.3370    1.9480    0.0780 C   0  0  0  0  0  0  0  0  0  0  0  0
    3.8100    1.7320    0.2380 C   0  0  0  0  0  0  0  0  0  0  0  0
    4.7180    2.7640    0.2560 C   0  0  0  0  0  0  0  0  0  0  0  0
    6.0720    2.5510    0.4040 C   0  0  0  0  0  0  0  0  0  0  0  0
    6.5340    1.2590    0.5390 C   0  0  0  0  0  0  0  0  0  0  0  0
    7.8640    1.0150    0.6870 F   0  0  0  0  0  0  0  0  0  0  0  0
    5.6490    0.1910    0.5260 C   0  0  0  0  0  0  0  0  0  0  0  0
    6.2180   -1.1830    0.6750 C   0  0  2  0  0  0  0  0  0  0  0  0
    6.9940   -1.4170   -0.5510 N   0  0  0  0  0  0  0  0  0  0  0  0
    5.1250   -2.2230    0.6820 C   0  0  0  0  0  0  0  0  0  0  0  0
    4.2970   -2.1390    1.7880 O   0  0  0  0  0  0  0  0  0  0  0  0
    4.3010    0.4410    0.3760 C   0  0  0  0  0  0  0  0  0  0  0  0
   -2.5990   -0.3210    0.2980 C   0  0  0  0  0  0  0  0  0  0  0  0
   -3.6840   -1.0800    0.7570 C   0  0  0  0  0  0  0  0  0  0  0  0
   -4.9430   -0.8780    0.2800 C   0  0  0  0  0  0  0  0  0  0  0  0
  1  2  1  0
  2  3  1  0
  2 28  1  0
  3  4  1  0
  4  5  1  0
  5  6  1  0
  6  7  2  0
  6 28  1  0
  7  8  1  0
  8  9  1  0
  8 26  2  0
  9 10  1  0
 10 11  2  0
 10 12  1  0
 12 13  1  0
 13 14  1  0
 14 15  1  0
 15 16  2  0
 15 25  1  0
 16 17  1  0
 17 18  2  0
 18 19  1  0
 18 20  1  0
 20 21  1  0
 20 25  2  0
 21 22  1  6
 21 23  1  0
 23 24  1  0
 26 27  1  0
 27 28  2  0
M  CHG  2   4   1  22   1
M  END
