
     RDKit          3D

 31 33  0  0  0  0  0  0  0  0999 V2000
   11.0860    2.5290   -1.2100 N   0  0  0  0  0  0  0  0  0  0  0  0
   10.2550    1.3930   -1.4360 C   0  0  0  0  0  0  0  0  0  0  0  0
   10.5540    0.5720   -2.3330 O   0  0  0  0  0  0  0  0  0  0  0  0
    9.0560    1.2340   -0.5870 C   0  0  0  0  0  0  0  0  0  0  0  0
    8.3760    0.0360   -0.9850 O   0  0  0  0  0  0  0  0  0  0  0  0
    7.2080   -0.3050   -0.2980 C   0  0  0  0  0  0  0  0  0  0  0  0
    6.5010   -1.4370   -0.6210 C   0  0  0  0  0  0  0  0  0  0  0  0
    5.3210   -1.7930    0.0620 C   0  0  0  0  0  0  0  0  0  0  0  0
    4.8260   -1.0250    1.0810 C   0  0  0  0  0  0  0  0  0  0  0  0
    3.6420   -1.3060    1.8160 N   0  0  0  0  0  0  0  0  0  0  0  0
    2.6900   -2.2980    1.5250 C   0  0  0  0  0  0  0  0  0  0  0  0
    2.8230   -3.0480    0.5300 O   0  0  0  0  0  0  0  0  0  0  0  0
    1.4830   -2.4750    2.4160 C   0  0  0  0  0  0  0  0  0  0  0  0
    0.4390   -1.6280    1.8760 N   0  0  0  0  0  0  0  0  0  0  0  0
    0.1630   -0.3390    2.1720 C   0  0  0  0  0  0  0  0  0  0  0  0
   -0.9300    0.0650    1.4160 C   0  0  0  0  0  0  0  0  0  0  0  0
   -1.3280   -1.0030    0.6420 C   0  0  0  0  0  0  0  0  0  0  0  0
   -2.4910   -1.0310   -0.3440 C   0  0  0  0  0  0  0  0  0  0  0  0
   -3.5220   -0.3190    0.2020 N   0  0  0  0  0  0  0  0  0  0  0  0
   -4.7470    0.0000   -0.3650 C   0  0  2  0  0  0  0  0  0  0  0  0
   -5.5620   -1.2120   -0.6980 C   0  0  0  0  0  0  0  0  0  0  0  0
   -4.9940   -2.1170   -1.6500 N   0  0  0  0  0  0  0  0  0  0  0  0
   -4.6110    0.8440   -1.6160 C   0  0  0  0  0  0  0  0  0  0  0  0
   -5.8780    1.4440   -2.1100 C   0  0  0  0  0  0  0  0  0  0  0  0
   -6.1730    2.7790   -1.4470 C   0  0  0  0  0  0  0  0  0  0  0  0
   -6.7120    2.6620   -0.1410 N   0  0  0  0  0  0  0  0  0  0  0  0
   -6.8090    1.3020    0.3490 C   0  0  0  0  0  0  0  0  0  0  0  0
   -5.4720    0.8160    0.7260 C   0  0  0  0  0  0  0  0  0  0  0  0
   -0.4610   -2.0250    0.9540 C   0  0  0  0  0  0  0  0  0  0  0  0
    5.5640    0.1270    1.3930 C   0  0  0  0  0  0  0  0  0  0  0  0
    6.7160    0.4720    0.7240 C   0  0  0  0  0  0  0  0  0  0  0  0
  1  2  1  0
  2  3  2  0
  2  4  1  0
  4  5  1  0
  5  6  1  0
  6  7  2  0
  6 31  1  0
  7  8  1  0
  8  9  2  0
  9 10  1  0
  9 30  1  0
 10 11  1  0
 11 12  2  0
 11 13  1  0
 13 14  1  0
 14 15  1  0
 14 29  1  0
 15 16  2  0
 16 17  1  0
 17 18  1  0
 17 29  2  0
 18 19  1  0
 19 20  1  0
 20 21  1  6
 20 23  1  0
 20 28  1  0
 21 22  1  0
 23 24  1  0
 24 25  1  0
 25 26  1  0
 26 27  1  0
 27 28  1  0
 30 31  2  0
M  CHG  2  22   1  26   1
M  END
