
     RDKit          3D

 31 33  0  0  0  0  0  0  0  0999 V2000
   -6.5520    2.3010   -1.9800 C   0  0  0  0  0  0  0  0  0  0  0  0
   -5.6650    3.2320   -1.3750 O   0  0  0  0  0  0  0  0  0  0  0  0
   -4.5970    2.8000   -0.5920 C   0  0  0  0  0  0  0  0  0  0  0  0
   -3.7490    3.7230   -0.0150 C   0  0  0  0  0  0  0  0  0  0  0  0
   -2.6930    3.2950    0.7590 C   0  0  0  0  0  0  0  0  0  0  0  0
   -2.5110    1.9200    0.9360 C   0  0  0  0  0  0  0  0  0  0  0  0
   -3.3350    0.9930    0.3760 C   0  0  0  0  0  0  0  0  0  0  0  0
   -4.3950    1.4470   -0.4010 C   0  0  0  0  0  0  0  0  0  0  0  0
   -3.2130   -0.4750    0.5130 C   0  0  2  0  0  0  0  0  0  0  0  0
   -4.3830   -1.0600    1.1450 N   0  0  0  0  0  0  0  0  0  0  0  0
   -5.1480   -1.8860    0.2430 C   0  0  0  0  0  0  0  0  0  0  0  0
   -4.9840   -3.3160    0.5320 C   0  0  0  0  0  0  0  0  0  0  0  0
   -4.1670   -3.8270    1.5750 N   0  0  0  0  0  0  0  0  0  0  0  0
   -5.5920   -4.1670   -0.1710 O   0  0  0  0  0  0  0  0  0  0  0  0
   -1.9980   -0.9150    1.2510 C   0  0  0  0  0  0  0  0  0  0  0  0
   -0.9150    0.1110    1.3680 C   0  0  1  0  0  0  0  0  0  0  0  0
   -0.1510    0.1640    0.1380 N   0  0  0  0  0  0  0  0  0  0  0  0
    1.2180   -0.2120    0.1000 C   0  0  0  0  0  0  0  0  0  0  0  0
    1.7570   -0.5970    1.1690 O   0  0  0  0  0  0  0  0  0  0  0  0
    2.0270   -0.1850   -1.0650 N   0  0  0  0  0  0  0  0  0  0  0  0
    3.3950   -0.5730   -1.0610 C   0  0  0  0  0  0  0  0  0  0  0  0
    3.9060   -1.5670   -1.7970 C   0  0  0  0  0  0  0  0  0  0  0  0
    5.3690   -1.6910   -1.5410 C   0  0  0  0  0  0  0  0  0  0  0  0
    5.6230   -0.6270   -0.5550 C   0  0  0  0  0  0  0  0  0  0  0  0
    6.9470   -0.3210    0.0380 C   0  0  0  0  0  0  0  0  0  0  0  0
    7.8620    0.0420   -1.1360 C   0  0  0  0  0  0  0  0  0  0  0  0
    9.1690    0.3470   -0.5910 N   0  0  0  0  0  0  0  0  0  0  0  0
    4.4910   -0.0020   -0.2950 C   0  0  0  0  0  0  0  0  0  0  0  0
    4.3760    1.0900    0.6240 C   0  0  0  0  0  0  0  0  0  0  0  0
    4.2940    1.9600    1.3770 N   0  0  0  0  0  0  0  0  0  0  0  0
   -1.3880    1.4710    1.7610 C   0  0  0  0  0  0  0  0  0  0  0  0
  1  2  1  0
  2  3  1  0
  3  4  2  0
  3  8  1  0
  4  5  1  0
  5  6  2  0
  6  7  1  0
  6 31  1  0
  7  8  2  0
  7  9  1  0
  9 10  1  1
  9 15  1  0
 10 11  1  0
 11 12  1  0
 12 13  1  0
 12 14  2  0
 15 16  1  0
 16 17  1  6
 16 31  1  0
 17 18  1  0
 18 19  2  0
 18 20  1  0
 20 21  1  0
 21 22  2  0
 21 28  1  0
 22 23  1  0
 23 24  1  0
 24 25  1  0
 24 28  2  0
 25 26  1  0
 26 27  1  0
 28 29  1  0
 29 30  3  0
M  CHG  2  10   1  27   1
M  END
