
     RDKit          3D

 31 33  0  0  0  0  0  0  0  0999 V2000
    8.2500    0.5160   -1.4370 N   0  0  0  0  0  0  0  0  0  0  0  0
    6.9860   -0.0040   -1.0010 C   0  0  0  0  0  0  0  0  0  0  0  0
    6.0370    0.0290   -1.8190 O   0  0  0  0  0  0  0  0  0  0  0  0
    6.9070   -0.5330    0.3700 C   0  0  1  0  0  0  0  0  0  0  0  0
    7.2570    0.5190    1.4150 C   0  0  0  0  0  0  0  0  0  0  0  0
    5.9830    0.9930    2.0860 C   0  0  0  0  0  0  0  0  0  0  0  0
    4.9590    1.1750    1.0050 N   0  0  0  0  0  0  0  0  0  0  0  0
    4.7110    2.4550    0.5500 C   0  0  0  0  0  0  0  0  0  0  0  0
    5.4980    3.3680    1.0580 O   0  0  0  0  0  0  0  0  0  0  0  0
    3.7110    2.8950   -0.4060 C   0  0  0  0  0  0  0  0  0  0  0  0
    2.7780    1.9280   -0.8360 N   0  0  0  0  0  0  0  0  0  0  0  0
    1.8280    1.3650    0.0810 C   0  0  0  0  0  0  0  0  0  0  0  0
    1.8580    1.7580    1.2620 O   0  0  0  0  0  0  0  0  0  0  0  0
    0.8440    0.3540   -0.3430 C   0  0  0  0  0  0  0  0  0  0  0  0
    0.0320   -0.0170    0.7960 N   0  0  0  0  0  0  0  0  0  0  0  0
   -1.1700   -0.6980    0.4480 C   0  0  0  0  0  0  0  0  0  0  0  0
   -1.9600   -0.1060   -0.6680 C   0  0  2  0  0  0  0  0  0  0  0  0
   -2.4110    1.3080   -0.3950 C   0  0  0  0  0  0  0  0  0  0  0  0
   -3.4620    1.0700    0.6970 C   0  0  0  0  0  0  0  0  0  0  0  0
   -4.1460   -0.1180    0.1370 C   0  0  0  0  0  0  0  0  0  0  0  0
   -3.2860   -0.8280   -0.6700 C   0  0  0  0  0  0  0  0  0  0  0  0
   -3.7220   -1.9760   -1.2960 C   0  0  0  0  0  0  0  0  0  0  0  0
   -5.0230   -2.4170   -1.1150 C   0  0  0  0  0  0  0  0  0  0  0  0
   -5.9110   -1.7330   -0.3160 C   0  0  0  0  0  0  0  0  0  0  0  0
   -7.2700   -2.2410   -0.1610 C   0  0  0  0  0  0  0  0  0  0  0  0
   -8.2980   -1.4720   -0.9550 C   0  0  0  0  0  0  0  0  0  0  0  0
   -8.0430   -1.4920   -2.3660 N   0  0  0  0  0  0  0  0  0  0  0  0
   -5.4450   -0.5790    0.3030 C   0  0  0  0  0  0  0  0  0  0  0  0
   -6.3180    0.1560    1.1320 N   0  0  0  0  0  0  0  0  0  0  0  0
    4.4240   -0.0800    0.5480 C   0  0  0  0  0  0  0  0  0  0  0  0
    5.5530   -1.1150    0.6160 C   0  0  0  0  0  0  0  0  0  0  0  0
  1  2  1  0
  2  3  2  0
  4  2  1  6
  4  5  1  0
  4 31  1  0
  5  6  1  0
  6  7  1  0
  7  8  1  0
  7 30  1  0
  8  9  2  0
  8 10  1  0
 10 11  1  0
 11 12  1  0
 12 13  2  0
 12 14  1  0
 14 15  1  0
 15 16  1  0
 17 16  1  1
 17 18  1  0
 17 21  1  0
 18 19  1  0
 19 20  1  0
 20 21  2  0
 20 28  1  0
 21 22  1  0
 22 23  2  0
 23 24  1  0
 24 25  1  0
 24 28  2  0
 25 26  1  0
 26 27  1  0
 28 29  1  0
 30 31  1  0
M  CHG  2  15   1  27   1
M  END
