
     RDKit          3D

 31 32  0  0  0  0  0  0  0  0999 V2000
   -5.9750   -1.6310   -1.2400 C   0  0  0  0  0  0  0  0  0  0  0  0
   -4.5440   -1.2280   -1.1680 C   0  0  0  0  0  0  0  0  0  0  0  0
   -3.6670   -1.7450   -2.1360 C   0  0  0  0  0  0  0  0  0  0  0  0
   -2.3230   -1.4800   -2.1390 C   0  0  0  0  0  0  0  0  0  0  0  0
   -1.4420   -2.0590   -3.1880 C   0  0  0  0  0  0  0  0  0  0  0  0
   -2.2430   -2.8560   -4.0850 N   0  0  0  0  0  0  0  0  0  0  0  0
   -1.7670   -0.6560   -1.1360 C   0  0  0  0  0  0  0  0  0  0  0  0
   -0.3650   -0.4400   -1.2290 N   0  0  0  0  0  0  0  0  0  0  0  0
    0.4260    0.3140   -0.3450 C   0  0  0  0  0  0  0  0  0  0  0  0
   -0.0830    0.8730    0.6380 O   0  0  0  0  0  0  0  0  0  0  0  0
    1.8880    0.4680   -0.5530 C   0  0  0  0  0  0  0  0  0  0  0  0
    2.5130    1.2930    0.5550 C   0  0  0  0  0  0  0  0  0  0  0  0
    3.9710    1.4840    0.3960 C   0  0  0  0  0  0  0  0  0  0  0  0
    4.7990    0.3630    0.3610 N   0  0  0  0  0  0  0  0  0  0  0  0
    4.9940   -0.4440    1.4860 C   0  0  0  0  0  0  0  0  0  0  0  0
    6.3850   -0.3610    2.1130 C   0  0  0  0  0  0  0  0  0  0  0  0
    7.4650   -0.8980    1.2230 C   0  0  0  0  0  0  0  0  0  0  0  0
    8.0310    0.0890    0.2560 C   0  0  0  0  0  0  0  0  0  0  0  0
    7.1500    1.1780   -0.0720 N   0  0  0  0  0  0  0  0  0  0  0  0
    6.3990    0.8940   -1.3050 C   0  0  0  0  0  0  0  0  0  0  0  0
    5.2910   -0.0850   -0.8910 C   0  0  0  0  0  0  0  0  0  0  0  0
   -2.6070   -0.1590   -0.2070 C   0  0  0  0  0  0  0  0  0  0  0  0
   -3.9920   -0.4340   -0.2110 C   0  0  0  0  0  0  0  0  0  0  0  0
   -4.7500    0.2220    0.8050 C   0  0  0  0  0  0  0  0  0  0  0  0
   -4.1790    0.4540    1.9300 O   0  0  0  0  0  0  0  0  0  0  0  0
   -6.0740    0.6400    0.6700 N   0  0  0  0  0  0  0  0  0  0  0  0
   -6.7420    1.2970    1.8030 C   0  0  2  0  0  0  0  0  0  0  0  0
   -7.8340    0.3520    2.2630 C   0  0  0  0  0  0  0  0  0  0  0  0
   -7.3150    2.5730    1.3430 C   0  0  0  0  0  0  0  0  0  0  0  0
   -8.0180    3.4000    2.2480 N   0  0  0  0  0  0  0  0  0  0  0  0
   -7.1840    2.9290    0.1570 O   0  0  0  0  0  0  0  0  0  0  0  0
  1  2  1  0
  2  3  2  0
  2 23  1  0
  3  4  1  0
  4  5  1  0
  4  7  2  0
  5  6  1  0
  7  8  1  0
  7 22  1  0
  8  9  1  0
  9 10  2  0
  9 11  1  0
 11 12  1  0
 12 13  1  0
 13 14  1  0
 14 15  1  0
 14 21  1  0
 15 16  1  0
 16 17  1  0
 17 18  1  0
 18 19  1  0
 19 20  1  0
 20 21  1  0
 22 23  2  0
 23 24  1  0
 24 25  2  0
 24 26  1  0
 26 27  1  0
 27 28  1  6
 27 29  1  0
 29 30  1  0
 29 31  2  0
M  CHG  2   6   1  19   1
M  END
