
     RDKit          3D

 29 31  0  0  0  0  0  0  0  0999 V2000
    5.3690    0.1000   -0.0050 C   0  0  0  0  0  0  0  0  0  0  0  0
    3.9750    0.5260   -0.4120 C   0  0  0  0  0  0  0  0  0  0  0  0
    3.6530    0.1740   -1.8300 C   0  0  0  0  0  0  0  0  0  0  0  0
    2.3420    0.5770   -2.1700 N   0  0  0  0  0  0  0  0  0  0  0  0
    2.1150    1.9350   -1.7500 C   0  0  0  0  0  0  0  0  0  0  0  0
    1.0420   -0.4560   -2.0710 S   0  0  2  0  0  0  0  0  0  0  0  0
    1.3240   -1.6600   -2.9940 O   0  0  0  0  0  0  0  0  0  0  0  0
   -0.2050    0.1970   -2.6440 O   0  0  0  0  0  0  0  0  0  0  0  0
    0.6420   -1.0850   -0.4920 C   0  0  0  0  0  0  0  0  0  0  0  0
   -0.5450   -0.6540    0.1360 C   0  0  0  0  0  0  0  0  0  0  0  0
   -0.9220   -1.0780    1.3720 C   0  0  0  0  0  0  0  0  0  0  0  0
   -2.1730   -0.6480    2.0230 C   0  0  0  0  0  0  0  0  0  0  0  0
   -2.4910   -0.9430    3.2970 N   0  0  0  0  0  0  0  0  0  0  0  0
   -3.6530   -0.4630    3.6280 N   0  0  0  0  0  0  0  0  0  0  0  0
   -4.1210    0.1610    2.5630 C   0  0  0  0  0  0  0  0  0  0  0  0
   -5.1980    0.7620    2.4380 O   0  0  0  0  0  0  0  0  0  0  0  0
   -3.1950    0.0500    1.5460 N   0  0  0  0  0  0  0  0  0  0  0  0
   -3.3990    0.6020    0.2610 C   0  0  0  0  0  0  0  0  0  0  0  0
   -3.8900   -0.1530   -0.7760 C   0  0  0  0  0  0  0  0  0  0  0  0
   -4.1130    0.4310   -2.0320 C   0  0  0  0  0  0  0  0  0  0  0  0
   -3.8430    1.7670   -2.2400 C   0  0  0  0  0  0  0  0  0  0  0  0
   -3.3560    2.5150   -1.2120 C   0  0  0  0  0  0  0  0  0  0  0  0
   -3.1410    1.9260    0.0210 C   0  0  0  0  0  0  0  0  0  0  0  0
   -2.6510    2.6620    1.0690 F   0  0  0  0  0  0  0  0  0  0  0  0
   -0.0770   -1.9760    2.0180 C   0  0  0  0  0  0  0  0  0  0  0  0
   -0.3110   -2.4980    3.2630 O   0  0  0  0  0  0  0  0  0  0  0  0
    1.1010   -2.4100    1.4100 C   0  0  0  0  0  0  0  0  0  0  0  0
    1.4500   -1.9640    0.1640 C   0  0  0  0  0  0  0  0  0  0  0  0
    2.6490   -2.4390   -0.4030 O   0  0  0  0  0  0  0  0  0  0  0  0
  1  2  1  0
  2  3  1  0
  3  4  1  0
  4  5  1  0
  6  4  1  1
  6  7  2  0
  6  8  2  0
  6  9  1  0
  9 10  2  0
  9 28  1  0
 10 11  1  0
 11 12  1  0
 11 25  2  0
 12 13  2  0
 12 17  1  0
 13 14  1  0
 14 15  1  0
 15 16  2  0
 15 17  1  0
 17 18  1  0
 18 19  2  0
 18 23  1  0
 19 20  1  0
 20 21  2  0
 21 22  1  0
 22 23  2  0
 23 24  1  0
 25 26  1  0
 25 27  1  0
 27 28  2  0
 28 29  1  0
M  END
