
     RDKit          3D

 30 32  0  0  0  0  0  0  0  0999 V2000
    4.3810   -2.6860   -1.9870 C   0  0  0  0  0  0  0  0  0  0  0  0
    5.4650   -1.7650   -1.6430 C   0  0  0  0  0  0  0  0  0  0  0  0
    5.3080   -0.6680   -0.7110 C   0  0  0  0  0  0  0  0  0  0  0  0
    4.2840   -0.1460   -0.0950 C   0  0  0  0  0  0  0  0  0  0  0  0
    2.8970   -0.6570   -0.2760 C   0  0  0  0  0  0  0  0  0  0  0  0
    1.8160    0.3380   -0.0340 C   0  0  1  0  0  0  0  0  0  0  0  0
    0.4380   -0.1710    0.1530 C   0  0  2  0  0  0  0  0  0  0  0  0
    0.4030   -1.0640    1.2430 O   0  0  0  0  0  0  0  0  0  0  0  0
   -0.2960   -0.7630   -0.9860 C   0  0  1  0  0  0  0  0  0  0  0  0
   -0.4370    0.2500   -2.1450 C   0  0  0  0  0  0  0  0  0  0  0  0
    0.4580   -1.9290   -1.5610 C   0  0  0  0  0  0  0  0  0  0  0  0
   -1.6420   -1.3100   -0.6180 C   0  0  1  0  0  0  0  0  0  0  0  0
   -1.4230   -2.2960    0.3480 O   0  0  0  0  0  0  0  0  0  0  0  0
   -2.7710   -0.5040   -0.2510 C   0  0  1  0  0  0  0  0  0  0  0  0
   -2.6820    0.3980    0.9550 C   0  0  0  0  0  0  0  0  0  0  0  0
   -4.1150    0.6000    1.4820 C   0  0  2  0  0  0  0  0  0  0  0  0
   -4.2260   -0.3000    2.7210 C   0  0  0  0  0  0  0  0  0  0  0  0
   -4.0000   -1.6380    2.3660 O   0  0  0  0  0  0  0  0  0  0  0  0
   -5.1610    0.1980    0.5060 C   0  0  0  0  0  0  0  0  0  0  0  0
   -4.8770    0.5250   -0.9180 C   0  0  1  0  0  0  0  0  0  0  0  0
   -5.7810   -0.3390   -1.7810 C   0  0  0  0  0  0  0  0  0  0  0  0
   -5.3190    1.9700   -1.1720 C   0  0  0  0  0  0  0  0  0  0  0  0
   -3.4290    0.3330   -1.3180 C   0  0  0  0  0  0  0  0  0  0  0  0
    2.1220    1.1550    1.2320 C   0  0  0  0  0  0  0  0  0  0  0  0
    3.4240    1.9110    1.0130 C   0  0  1  0  0  0  0  0  0  0  0  0
    3.6230    2.9280    2.0500 C   0  0  0  0  0  0  0  0  0  0  0  0
    4.9110    3.0040    2.7260 C   0  0  0  0  0  0  0  0  0  0  0  0
    5.8700    2.1520    2.5130 C   0  0  0  0  0  0  0  0  0  0  0  0
    5.6320    1.0690    1.5320 C   0  0  0  0  0  0  0  0  0  0  0  0
    4.5200    0.9560    0.8820 C   0  0  0  0  0  0  0  0  0  0  0  0
  1  2  1  0
  2  3  1  0
  3  4  2  3
  4  5  1  0
  4 30  1  0
  6  5  1  1
  6  7  1  0
  6 24  1  0
  7  8  1  1
  7  9  1  0
  9 10  1  6
  9 11  1  0
  9 12  1  0
 12 13  1  1
 12 14  1  0
 14 15  1  1
 14 23  1  0
 15 16  1  0
 16 17  1  1
 16 19  1  0
 17 18  1  0
 19 20  1  0
 20 21  1  6
 20 22  1  0
 20 23  1  0
 25 24  1  1
 25 26  1  0
 25 30  1  0
 26 27  1  0
 27 28  2  0
 28 29  1  0
 29 30  2  0
M  END
