
     RDKit          3D

 30 32  0  0  0  0  0  0  0  0999 V2000
    5.3840   -0.1900   -0.2170 N   0  0  0  0  0  0  0  0  0  0  0  0
    4.8580    0.8300   -0.7880 C   0  0  0  0  0  0  0  0  0  0  0  0
    3.4610    1.2040   -0.4170 C   0  0  0  0  0  0  0  0  0  0  0  0
    2.7310    0.4550    0.3940 C   0  0  0  0  0  0  0  0  0  0  0  0
    1.3840    0.9860    0.6720 N   0  0  0  0  0  0  0  0  0  0  0  0
    0.2510    0.2380    0.1990 C   0  0  0  0  0  0  0  0  0  0  0  0
    0.5760   -0.7810   -0.4420 O   0  0  0  0  0  0  0  0  0  0  0  0
   -1.1200    0.6590    0.4630 C   0  0  0  0  0  0  0  0  0  0  0  0
   -2.2430    0.4750    0.3050 N   0  0  0  0  0  0  0  0  0  0  0  0
   -3.5490    0.3310    0.1710 N   0  0  0  0  0  0  0  0  0  0  0  0
   -4.3000   -0.7600   -0.4300 C   0  0  0  0  0  0  0  0  0  0  0  0
   -5.7160   -0.5460   -0.7580 C   0  0  0  0  0  0  0  0  0  0  0  0
   -6.5750    0.4760   -0.6230 C   0  0  0  0  0  0  0  0  0  0  0  0
   -7.7030   -0.2580   -1.2120 C   0  0  0  0  0  0  0  0  0  0  0  0
   -6.7560   -1.3930   -1.3680 C   0  0  0  0  0  0  0  0  0  0  0  0
   -3.7150   -1.9320   -0.6760 C   0  0  0  0  0  0  0  0  0  0  0  0
   -2.3790   -2.3870   -0.4430 C   0  0  0  0  0  0  0  0  0  0  0  0
   -1.6830   -2.7320    0.5730 C   0  0  0  0  0  0  0  0  0  0  0  0
   -1.8400   -2.8590    2.0100 C   0  0  0  0  0  0  0  0  0  0  0  0
   -2.4880   -1.8130    2.6970 N   0  0  0  0  0  0  0  0  0  0  0  0
   -1.6190   -0.8990    3.4140 C   0  0  0  0  0  0  0  0  0  0  0  0
   -0.6010   -0.1590    2.6720 C   0  0  0  0  0  0  0  0  0  0  0  0
   -1.0010    1.1760    2.0450 C   0  0  0  0  0  0  0  0  0  0  0  0
    5.5710    1.6220   -1.7740 C   0  0  0  0  0  0  0  0  0  0  0  0
    4.9110    2.5410   -2.5850 C   0  0  0  0  0  0  0  0  0  0  0  0
    5.5090    3.2160   -3.6100 C   0  0  0  0  0  0  0  0  0  0  0  0
    6.8290    2.9930   -3.8680 C   0  0  0  0  0  0  0  0  0  0  0  0
    7.5520    2.1090   -3.1090 C   0  0  0  0  0  0  0  0  0  0  0  0
    6.9240    1.4330   -2.0700 C   0  0  0  0  0  0  0  0  0  0  0  0
    7.6780    0.5450   -1.2970 O   0  0  0  0  0  0  0  0  0  0  0  0
  1  2  2  0
  2  3  1  0
  2 24  1  0
  3  4  2  3
  4  5  1  0
  5  6  1  0
  6  7  2  0
  6  8  1  0
  8  9  2  0
  8 23  1  0
  9 10  1  0
 10 11  1  0
 11 12  1  0
 11 16  2  0
 12 13  2  0
 12 15  1  0
 13 14  1  0
 14 15  1  0
 16 17  1  0
 17 18  2  0
 18 19  1  0
 19 20  1  0
 20 21  1  0
 21 22  1  0
 22 23  1  0
 24 25  2  0
 24 29  1  0
 25 26  1  0
 26 27  2  0
 27 28  1  0
 28 29  2  0
 29 30  1  0
M  CHG  2   1   1  20   1
M  END
