
     RDKit          3D

 30 32  0  0  0  0  0  0  0  0999 V2000
   -0.4030    5.0360   -0.4660 C   0  0  0  0  0  0  0  0  0  0  0  0
   -0.9580    3.8980    0.3630 C   0  0  0  0  0  0  0  0  0  0  0  0
   -0.2150    2.6120   -0.0780 C   0  0  0  0  0  0  0  0  0  0  0  0
   -0.7530    1.5180    0.7140 C   0  0  1  0  0  0  0  0  0  0  0  0
   -2.1970    1.4080    0.4030 C   0  0  0  0  0  0  0  0  0  0  0  0
   -2.2380    0.1790   -0.5180 C   0  0  2  0  0  0  0  0  0  0  0  0
   -1.8770    0.4760   -1.9070 C   0  0  0  0  0  0  0  0  0  0  0  0
   -3.7020   -0.0910   -0.6410 C   0  0  0  0  0  0  0  0  0  0  0  0
   -4.1620   -1.3070   -1.3090 C   0  0  0  0  0  0  0  0  0  0  0  0
   -3.3240   -2.4360   -1.6230 C   0  0  0  0  0  0  0  0  0  0  0  0
   -2.1140   -2.8400   -0.9080 C   0  0  0  0  0  0  0  0  0  0  0  0
   -1.0390   -1.8100   -0.6980 C   0  0  0  0  0  0  0  0  0  0  0  0
   -1.3870   -0.7270    0.2850 C   0  0  2  0  0  0  0  0  0  0  0  0
   -1.9010   -1.2900    1.5110 C   0  0  0  0  0  0  0  0  0  0  0  0
   -2.9750   -2.0650    2.0120 C   0  0  0  0  0  0  0  0  0  0  0  0
   -4.2970   -1.6420    1.9110 O   0  0  0  0  0  0  0  0  0  0  0  0
   -0.1000    0.1180    0.6570 C   0  0  1  0  0  0  0  0  0  0  0  0
    0.9390    0.0680   -0.3870 C   0  0  0  0  0  0  0  0  0  0  0  0
    2.4140   -0.0550   -0.1510 C   0  0  2  0  0  0  0  0  0  0  0  0
    3.1300    1.2240   -0.6370 C   0  0  0  0  0  0  0  0  0  0  0  0
    4.5650    1.3320   -0.6000 C   0  0  0  0  0  0  0  0  0  0  0  0
    5.2890    1.2500    0.5420 O   0  0  0  0  0  0  0  0  0  0  0  0
    3.0930   -1.1440   -0.9310 C   0  0  1  0  0  0  0  0  0  0  0  0
    2.6090   -2.5460   -0.7060 C   0  0  0  0  0  0  0  0  0  0  0  0
    2.9550   -0.9120   -2.4410 C   0  0  0  0  0  0  0  0  0  0  0  0
    4.4570   -1.2260   -0.5860 O   0  0  0  0  0  0  0  0  0  0  0  0
    2.7680   -0.1350    1.2970 C   0  0  0  0  0  0  0  0  0  0  0  0
    1.7620    0.7160    2.0460 C   0  0  0  0  0  0  0  0  0  0  0  0
    0.3940   -0.0450    2.0490 C   0  0  2  0  0  0  0  0  0  0  0  0
    0.7430   -1.2390    2.7740 C   0  0  0  0  0  0  0  0  0  0  0  0
  1  2  1  0
  2  3  1  0
  4  3  1  6
  4  5  1  0
  4 17  1  0
  5  6  1  0
  6  7  1  6
  6  8  1  0
  6 13  1  0
  8  9  1  0
  9 10  1  0
 10 11  1  0
 11 12  1  0
 12 13  1  0
 13 14  1  1
 13 17  1  0
 14 15  1  0
 15 16  1  0
 17 18  1  6
 17 29  1  0
 18 19  1  0
 19 20  1  6
 19 23  1  0
 19 27  1  0
 20 21  1  0
 21 22  1  0
 23 24  1  6
 23 25  1  0
 23 26  1  0
 27 28  1  0
 28 29  1  0
 29 30  1  6
M  END
