
     RDKit          3D

 30 32  0  0  0  0  0  0  0  0999 V2000
    2.7980   -3.7800    2.0010 C   0  0  0  0  0  0  0  0  0  0  0  0
    3.2930   -2.6870    1.0500 C   0  0  0  0  0  0  0  0  0  0  0  0
    2.1140   -1.6660    0.9880 C   0  0  0  0  0  0  0  0  0  0  0  0
    2.4640   -0.5480    0.0940 C   0  0  1  0  0  0  0  0  0  0  0  0
    3.7480    0.1720    0.6080 C   0  0  0  0  0  0  0  0  0  0  0  0
    2.8910   -1.1700   -1.2230 C   0  0  0  0  0  0  0  0  0  0  0  0
    2.6600   -0.3610   -2.4330 C   0  0  0  0  0  0  0  0  0  0  0  0
    1.2600   -0.3010   -2.8900 C   0  0  0  0  0  0  0  0  0  0  0  0
    0.2700    0.5420   -2.1910 C   0  0  0  0  0  0  0  0  0  0  0  0
    0.1880    0.3440   -0.6620 C   0  0  2  0  0  0  0  0  0  0  0  0
   -0.0060   -1.0350   -0.5600 O   0  0  0  0  0  0  0  0  0  0  0  0
   -1.0620    0.9130   -0.0910 C   0  0  2  0  0  0  0  0  0  0  0  0
   -1.3140    2.3810   -0.1440 C   0  0  0  0  0  0  0  0  0  0  0  0
   -1.3770    3.0410   -1.4650 C   0  0  0  0  0  0  0  0  0  0  0  0
   -1.2150    0.5450    1.3750 C   0  0  0  0  0  0  0  0  0  0  0  0
   -2.5850    0.0290    1.7360 C   0  0  0  0  0  0  0  0  0  0  0  0
   -2.8490   -1.2410    1.0120 C   0  0  2  0  0  0  0  0  0  0  0  0
   -1.9910   -2.2440    1.4860 O   0  0  0  0  0  0  0  0  0  0  0  0
   -2.6900   -1.0390   -0.4590 C   0  0  1  0  0  0  0  0  0  0  0  0
   -4.0840   -1.2500   -1.0850 C   0  0  1  0  0  0  0  0  0  0  0  0
   -4.5700   -2.6270   -0.7930 C   0  0  0  0  0  0  0  0  0  0  0  0
   -5.0490   -0.1710   -0.7490 C   0  0  0  0  0  0  0  0  0  0  0  0
   -2.3180    0.3440   -0.7700 C   0  0  0  0  0  0  0  0  0  0  0  0
    1.4930    0.6020   -0.0830 C   0  0  1  0  0  0  0  0  0  0  0  0
    1.7500    1.7270    0.8580 C   0  0  0  0  0  0  0  0  0  0  0  0
    2.0350    2.9670    0.4850 C   0  0  0  0  0  0  0  0  0  0  0  0
    2.3000    4.1290    1.3400 C   0  0  0  0  0  0  0  0  0  0  0  0
    2.2820    3.8810    2.7150 O   0  0  0  0  0  0  0  0  0  0  0  0
    1.9850    2.5920    3.1230 C   0  0  0  0  0  0  0  0  0  0  0  0
    1.7360    1.5820    2.3090 C   0  0  0  0  0  0  0  0  0  0  0  0
  1  2  1  0
  2  3  1  0
  3  4  1  0
  4  5  1  1
  4  6  1  0
  4 24  1  0
  6  7  1  0
  7  8  1  0
  8  9  1  0
  9 10  1  0
 10 11  1  6
 10 12  1  0
 10 24  1  0
 12 13  1  1
 12 15  1  0
 12 23  1  0
 13 14  1  0
 15 16  1  0
 16 17  1  0
 17 18  1  1
 17 19  1  0
 19 20  1  0
 19 23  1  1
 20 21  1  1
 20 22  1  0
 24 25  1  1
 25 26  2  0
 25 30  1  0
 26 27  1  0
 27 28  1  0
 28 29  1  0
 29 30  2  0
M  END
