
     RDKit          3D

 26 27  0  0  0  0  0  0  0  0999 V2000
    8.3980    0.0950   -0.7600 N   0  0  0  0  0  0  0  0  0  0  0  0
    7.0960    0.0970   -0.1390 C   0  0  2  0  0  0  0  0  0  0  0  0
    7.1100   -0.8190    1.0800 C   0  0  0  0  0  0  0  0  0  0  0  0
    8.0700   -0.3240    1.9590 O   0  0  0  0  0  0  0  0  0  0  0  0
    6.0590   -0.3310   -1.1170 C   0  0  0  0  0  0  0  0  0  0  0  0
    6.3620   -0.7290   -2.2630 O   0  0  0  0  0  0  0  0  0  0  0  0
    4.6780   -0.2820   -0.7320 N   0  0  0  0  0  0  0  0  0  0  0  0
    3.7040   -0.6940   -1.6770 C   0  0  0  0  0  0  0  0  0  0  0  0
    2.3150   -0.5730   -1.1860 C   0  0  0  0  0  0  0  0  0  0  0  0
    1.3540   -0.9240   -1.9660 O   0  0  0  0  0  0  0  0  0  0  0  0
    1.9200   -0.0990    0.0860 N   0  0  0  0  0  0  0  0  0  0  0  0
    0.5370   -0.0110    0.4540 N   0  0  0  0  0  0  0  0  0  0  0  0
   -0.2940    0.9070   -0.2300 C   0  0  0  0  0  0  0  0  0  0  0  0
    0.2540    1.5990   -1.1520 O   0  0  0  0  0  0  0  0  0  0  0  0
   -1.6890    1.1260    0.0290 C   0  0  1  0  0  0  0  0  0  0  0  0
   -2.6280    0.8750   -1.0960 C   0  0  0  0  0  0  0  0  0  0  0  0
   -3.8510    0.6920   -0.4830 C   0  0  0  0  0  0  0  0  0  0  0  0
   -5.3540    0.3570   -1.3110 S   0  0  0  0  0  0  0  0  0  0  0  0
   -6.6740   -0.1130   -0.2920 C   0  0  0  0  0  0  0  0  0  0  0  0
   -6.5980   -0.7660    0.8240 C   0  0  0  0  0  0  0  0  0  0  0  0
   -7.7770   -1.1430    1.6740 C   0  0  0  0  0  0  0  0  0  0  0  0
   -9.0260   -0.8930    0.9900 N   0  0  0  0  0  0  0  0  0  0  0  0
   -9.1080   -0.1940   -0.2020 N   0  0  0  0  0  0  0  0  0  0  0  0
   -8.0470    0.1640   -0.7900 C   0  0  0  0  0  0  0  0  0  0  0  0
   -3.5710    0.8600    0.9460 C   0  0  0  0  0  0  0  0  0  0  0  0
   -2.2530    0.3100    1.0480 O   0  0  0  0  0  0  0  0  0  0  0  0
  2  1  1  6
  2  3  1  0
  2  5  1  0
  3  4  1  0
  5  6  2  0
  5  7  1  0
  7  8  1  0
  8  9  1  0
  9 10  2  0
  9 11  1  0
 11 12  1  0
 12 13  1  0
 13 14  2  0
 15 13  1  6
 15 16  1  0
 15 26  1  0
 16 17  2  0
 17 18  1  0
 17 25  1  0
 18 19  1  0
 19 20  2  0
 19 24  1  0
 20 21  1  0
 21 22  1  0
 22 23  1  0
 23 24  2  0
 25 26  1  0
M  END
