
     RDKit          3D

 20 19  0  0  0  0  0  0  0  0999 V2000
   -3.0170    3.0840   -2.2150 C   0  0  0  0  0  0  0  0  0  0  0  0
   -2.5650    1.8240   -1.8580 O   0  0  0  0  0  0  0  0  0  0  0  0
   -2.5720    1.7090   -0.4770 C   0  0  0  0  0  0  0  0  0  0  0  0
   -2.0910    0.3600   -0.0160 C   0  0  2  0  0  0  0  0  0  0  0  0
   -0.7190    0.1820   -0.5020 N   0  0  0  0  0  0  0  0  0  0  0  0
    0.3450    0.0390    0.4200 C   0  0  0  0  0  0  0  0  0  0  0  0
    0.0390    0.0740    1.6560 O   0  0  0  0  0  0  0  0  0  0  0  0
    1.6610   -0.1330    0.0650 O   0  0  0  0  0  0  0  0  0  0  0  0
    2.6340   -0.2650    1.0850 C   0  0  0  0  0  0  0  0  0  0  0  0
    4.0200   -0.4450    0.5050 C   0  0  2  0  0  0  0  0  0  0  0  0
    4.4100    0.7370   -0.3500 C   0  0  0  0  0  0  0  0  0  0  0  0
    4.3960    1.9330    0.4630 N   0  0  0  0  0  0  0  0  0  0  0  0
    4.0980   -1.6980   -0.2820 C   0  0  0  0  0  0  0  0  0  0  0  0
    4.3780   -1.6700   -1.4550 O   0  0  0  0  0  0  0  0  0  0  0  0
    3.7720   -3.2470    0.5340 S   0  0  0  0  0  0  0  0  0  0  0  0
   -2.8380   -0.6920   -0.4610 O   0  0  0  0  0  0  0  0  0  0  0  0
   -3.3880   -1.4830    0.5180 C   0  0  0  0  0  0  0  0  0  0  0  0
   -4.1530   -2.5590   -0.1270 C   0  0  0  0  0  0  0  0  0  0  0  0
   -4.8140   -3.5050    0.6800 N   0  0  0  0  0  0  0  0  0  0  0  0
   -4.2210   -2.6410   -1.3620 O   0  0  0  0  0  0  0  0  0  0  0  0
  1  2  1  0
  2  3  1  0
  4  3  1  6
  4  5  1  0
  4 16  1  0
  5  6  1  0
  6  7  2  0
  6  8  1  0
  8  9  1  0
 10  9  1  6
 10 11  1  0
 10 13  1  0
 11 12  1  0
 13 14  2  0
 13 15  1  0
 16 17  1  0
 17 18  1  0
 18 19  1  0
 18 20  2  0
M  CHG  1  12   1
M  END
