
     RDKit          3D

 20 19  0  0  0  0  0  0  0  0999 V2000
   -4.1810    1.1300   -1.3950 C   0  0  0  0  0  0  0  0  0  0  0  0
   -3.2730    0.3040   -0.4410 C   0  0  2  0  0  0  0  0  0  0  0  0
   -4.2660   -0.3860    0.4900 C   0  0  0  0  0  0  0  0  0  0  0  0
   -2.4410    1.3030    0.2620 C   0  0  0  0  0  0  0  0  0  0  0  0
   -1.4780    0.8910    1.2010 N   0  0  0  0  0  0  0  0  0  0  0  0
   -0.3280    0.1380    0.8510 C   0  0  0  0  0  0  0  0  0  0  0  0
   -0.0660   -0.2070   -0.3240 O   0  0  0  0  0  0  0  0  0  0  0  0
    0.5960   -0.2680    1.8160 O   0  0  0  0  0  0  0  0  0  0  0  0
    1.7600   -1.0100    1.5630 C   0  0  0  0  0  0  0  0  0  0  0  0
    2.7400   -0.3220    0.6400 C   0  0  1  0  0  0  0  0  0  0  0  0
    2.9710    1.0540    1.1590 C   0  0  0  0  0  0  0  0  0  0  0  0
    3.9430    1.8470    0.3100 C   0  0  0  0  0  0  0  0  0  0  0  0
    3.4800    1.9840   -0.9970 O   0  0  0  0  0  0  0  0  0  0  0  0
    3.9160   -1.0940    0.4040 N   0  0  0  0  0  0  0  0  0  0  0  0
    4.1980   -1.6090   -1.1660 S   0  0  2  0  0  0  0  0  0  0  0  0
    2.8720   -1.6980   -1.9010 O   0  0  0  0  0  0  0  0  0  0  0  0
    4.8650   -2.9260   -1.3070 O   0  0  0  0  0  0  0  0  0  0  0  0
   -2.6420   -0.7070   -1.2640 C   0  0  0  0  0  0  0  0  0  0  0  0
   -2.3590   -2.0540   -0.8050 N   0  0  0  0  0  0  0  0  0  0  0  0
   -2.3020   -0.4740   -2.4310 O   0  0  0  0  0  0  0  0  0  0  0  0
  2  1  1  6
  2  3  1  0
  2  4  1  0
  2 18  1  0
  4  5  1  0
  5  6  1  0
  6  7  2  0
  6  8  1  0
  8  9  1  0
 10  9  1  1
 10 11  1  0
 10 14  1  0
 11 12  1  0
 12 13  1  0
 15 14  1  1
 15 16  2  0
 15 17  2  0
 18 19  1  0
 18 20  2  0
M  CHG  1  19   1
M  END
