
     RDKit          3D

 20 19  0  0  0  0  0  0  0  0999 V2000
    8.2740    0.4590   -0.3320 N   0  0  0  0  0  0  0  0  0  0  0  0
    7.0480    0.6510    0.3640 C   0  0  0  0  0  0  0  0  0  0  0  0
    7.0140    1.3740    1.3850 O   0  0  0  0  0  0  0  0  0  0  0  0
    5.8050    0.0070   -0.1030 C   0  0  0  0  0  0  0  0  0  0  0  0
    4.7620    0.3740    0.7740 O   0  0  0  0  0  0  0  0  0  0  0  0
    3.4590   -0.1160    0.5430 C   0  0  0  0  0  0  0  0  0  0  0  0
    3.3090   -0.8610   -0.4450 O   0  0  0  0  0  0  0  0  0  0  0  0
    2.3710    0.2010    1.3650 N   0  0  0  0  0  0  0  0  0  0  0  0
    1.0510   -0.3180    1.0970 C   0  0  0  0  0  0  0  0  0  0  0  0
    0.4880    0.0760   -0.2250 C   0  0  0  0  0  0  0  0  0  0  0  0
   -0.7580   -0.4090   -0.4870 O   0  0  0  0  0  0  0  0  0  0  0  0
   -1.7680   -0.0580    0.3550 C   0  0  2  0  0  0  0  0  0  0  0  0
   -2.3090   -1.3540    0.9750 C   0  0  0  0  0  0  0  0  0  0  0  0
   -2.7840   -2.2010   -0.0390 O   0  0  0  0  0  0  0  0  0  0  0  0
   -2.8700    0.6250   -0.3700 C   0  0  0  0  0  0  0  0  0  0  0  0
   -2.7420    0.8180   -1.7790 S   0  0  0  0  0  0  0  0  0  0  0  0
   -4.0470    1.0960    0.2710 N   0  0  0  0  0  0  0  0  0  0  0  0
   -5.1230    1.0720   -0.6900 C   0  0  0  0  0  0  0  0  0  0  0  0
   -5.5250   -0.3450   -1.0310 C   0  0  0  0  0  0  0  0  0  0  0  0
   -5.9560   -1.0250    0.1190 O   0  0  0  0  0  0  0  0  0  0  0  0
  1  2  1  0
  2  3  2  0
  2  4  1  0
  4  5  1  0
  5  6  1  0
  6  7  2  0
  6  8  1  0
  8  9  1  0
  9 10  1  0
 10 11  1  0
 11 12  1  0
 12 13  1  6
 12 15  1  0
 13 14  1  0
 15 16  2  0
 15 17  1  0
 17 18  1  0
 18 19  1  0
 19 20  1  0
M  CHG  1  17   1
M  END
