
     RDKit          3D

 26 27  0  0  0  0  0  0  0  0999 V2000
    3.9280    4.5780   -0.5280 N   0  0  0  0  0  0  0  0  0  0  0  0
    4.1350    3.1730   -0.6190 C   0  0  0  0  0  0  0  0  0  0  0  0
    5.2550    2.7740   -0.9970 O   0  0  0  0  0  0  0  0  0  0  0  0
    3.0210    2.2400   -0.2650 C   0  0  0  0  0  0  0  0  0  0  0  0
    3.4850    0.9620   -0.4390 O   0  0  0  0  0  0  0  0  0  0  0  0
    2.5820   -0.0370   -0.1560 C   0  0  2  0  0  0  0  0  0  0  0  0
    2.9910   -0.8940    1.0250 C   0  0  0  0  0  0  0  0  0  0  0  0
    1.8220   -1.7370    1.3000 N   0  0  0  0  0  0  0  0  0  0  0  0
    0.9270   -2.1310    0.2760 C   0  0  0  0  0  0  0  0  0  0  0  0
    0.1080   -3.0460    0.5270 O   0  0  0  0  0  0  0  0  0  0  0  0
    0.8960   -1.5260   -1.0790 C   0  0  2  0  0  0  0  0  0  0  0  0
   -0.0000   -0.3930   -1.1350 N   0  0  0  0  0  0  0  0  0  0  0  0
   -1.3940   -0.5020   -0.8430 C   0  0  0  0  0  0  0  0  0  0  0  0
   -1.8240   -1.6140   -0.5350 O   0  0  0  0  0  0  0  0  0  0  0  0
   -2.2470    0.6200   -0.9050 N   0  0  0  0  0  0  0  0  0  0  0  0
   -3.6340    0.6090   -0.6200 C   0  0  0  0  0  0  0  0  0  0  0  0
   -3.9990    0.2240    0.7780 C   0  0  0  0  0  0  0  0  0  0  0  0
   -4.6500    1.0990    1.5080 C   0  0  0  0  0  0  0  0  0  0  0  0
   -5.1330    1.0120    2.8840 C   0  0  0  0  0  0  0  0  0  0  0  0
   -4.7450   -0.5910    3.6000 S   0  0  0  0  0  0  0  0  0  0  0  0
   -3.8730   -1.5280    2.3660 C   0  0  0  0  0  0  0  0  0  0  0  0
   -3.6310   -1.0510    1.2190 N   0  0  0  0  0  0  0  0  0  0  0  0
    0.5690   -2.5310   -2.1030 C   0  0  0  0  0  0  0  0  0  0  0  0
    1.3200   -3.7060   -2.2160 N   0  0  0  0  0  0  0  0  0  0  0  0
   -0.3920   -2.3170   -2.8690 O   0  0  0  0  0  0  0  0  0  0  0  0
    2.3050   -0.9550   -1.3040 C   0  0  0  0  0  0  0  0  0  0  0  0
  1  2  1  0
  2  3  2  0
  2  4  1  0
  4  5  1  0
  6  5  1  6
  6  7  1  0
  6 26  1  0
  7  8  1  0
  8  9  1  0
  9 10  2  0
  9 11  1  0
 11 12  1  1
 11 23  1  0
 11 26  1  0
 12 13  1  0
 13 14  2  0
 13 15  1  0
 15 16  1  0
 16 17  1  0
 17 18  2  0
 17 22  1  0
 18 19  1  0
 19 20  1  0
 20 21  1  0
 21 22  2  0
 23 24  1  0
 23 25  2  0
M  END
