
     RDKit          3D

 20 19  0  0  0  0  0  0  0  0999 V2000
   -4.7670   -0.7240   -1.7150 N   0  0  0  0  0  0  0  0  0  0  0  0
   -4.3170   -0.2510   -0.4040 C   0  0  1  0  0  0  0  0  0  0  0  0
   -2.8540   -0.4270   -0.3660 C   0  0  0  0  0  0  0  0  0  0  0  0
   -2.2220   -0.8340   -1.4080 O   0  0  0  0  0  0  0  0  0  0  0  0
   -2.0240   -0.1860    0.7590 N   0  0  0  0  0  0  0  0  0  0  0  0
   -0.6220   -0.3960    0.6850 N   0  0  0  0  0  0  0  0  0  0  0  0
   -0.1760   -1.7360    0.6930 C   0  0  0  0  0  0  0  0  0  0  0  0
   -1.0720   -2.6450    0.7660 O   0  0  0  0  0  0  0  0  0  0  0  0
    1.2540   -2.0720    0.6210 C   0  0  0  0  0  0  0  0  0  0  0  0
    2.0380   -0.9030    0.5210 O   0  0  0  0  0  0  0  0  0  0  0  0
    3.3800   -1.2660    0.4620 C   0  0  0  0  0  0  0  0  0  0  0  0
    4.3230   -0.0920    0.3560 C   0  0  0  0  0  0  0  0  0  0  0  0
    5.6210   -0.5950    0.3250 O   0  0  0  0  0  0  0  0  0  0  0  0
    6.6170    0.3210    0.1860 C   0  0  0  0  0  0  0  0  0  0  0  0
    6.5660    1.0880   -1.1180 C   0  0  0  0  0  0  0  0  0  0  0  0
    7.6360    1.9860   -1.1310 O   0  0  0  0  0  0  0  0  0  0  0  0
   -4.7890    1.1440   -0.1480 C   0  0  2  0  0  0  0  0  0  0  0  0
   -4.2880    1.7940    1.4530 S   0  0  0  0  0  0  0  0  0  0  0  0
   -6.2690    1.3110   -0.3450 C   0  0  0  0  0  0  0  0  0  0  0  0
   -6.6110    2.6540   -0.0830 O   0  0  0  0  0  0  0  0  0  0  0  0
  2  1  1  6
  2  3  1  0
  2 17  1  0
  3  4  2  0
  3  5  1  0
  5  6  1  0
  6  7  1  0
  7  8  2  0
  7  9  1  0
  9 10  1  0
 10 11  1  0
 11 12  1  0
 12 13  1  0
 13 14  1  0
 14 15  1  0
 15 16  1  0
 17 18  1  1
 17 19  1  0
 19 20  1  0
M  CHG  1   1   1
M  END
