
     RDKit          3D

 33 36  0  0  0  0  0  0  0  0999 V2000
   -6.9040    2.1170   -0.9290 C   0  0  0  0  0  0  0  0  0  0  0  0
   -7.1220    0.9400   -0.1060 C   0  0  0  0  0  0  0  0  0  0  0  0
   -6.4170   -0.0140    0.3990 C   0  0  0  0  0  0  0  0  0  0  0  0
   -7.1610   -1.0230    1.2080 C   0  0  0  0  0  0  0  0  0  0  0  0
   -8.4070   -1.0100    1.3980 N   0  0  0  0  0  0  0  0  0  0  0  0
   -6.4000   -2.1180    1.8280 C   0  0  0  0  0  0  0  0  0  0  0  0
   -5.1210   -2.1860    1.6650 C   0  0  0  0  0  0  0  0  0  0  0  0
   -4.3700   -1.2230    0.8850 C   0  0  0  0  0  0  0  0  0  0  0  0
   -4.9900   -0.1820    0.2770 C   0  0  0  0  0  0  0  0  0  0  0  0
   -4.0880    0.6820   -0.4590 C   0  0  0  0  0  0  0  0  0  0  0  0
   -2.7180    0.5430   -0.4730 N   0  0  0  0  0  0  0  0  0  0  0  0
   -2.2190    1.5040   -1.2520 C   0  0  0  0  0  0  0  0  0  0  0  0
   -0.8160    1.7370   -1.5460 C   0  0  0  0  0  0  0  0  0  0  0  0
   -0.5220    2.7000   -2.3140 O   0  0  0  0  0  0  0  0  0  0  0  0
    0.2270    0.9400   -1.0150 N   0  0  0  0  0  0  0  0  0  0  0  0
    1.5920    1.2500   -1.3680 C   0  0  0  0  0  0  0  0  0  0  0  0
    2.3190   -0.0580   -1.6110 C   0  0  0  0  0  0  0  0  0  0  0  0
    2.2950   -0.7790   -0.3610 N   0  0  0  0  0  0  0  0  0  0  0  0
    3.4360   -1.5010    0.0450 C   0  0  0  0  0  0  0  0  0  0  0  0
    3.4140   -2.1390    1.1220 O   0  0  0  0  0  0  0  0  0  0  0  0
    4.6400   -1.5070   -0.7890 C   0  0  0  0  0  0  0  0  0  0  0  0
    5.7560   -2.2590   -0.1080 C   0  0  0  0  0  0  0  0  0  0  0  0
    6.1000   -1.6130    1.1660 C   0  0  0  0  0  0  0  0  0  0  0  0
    5.6960   -2.0680    2.2530 O   0  0  0  0  0  0  0  0  0  0  0  0
    6.9230   -0.4280    1.1560 C   0  0  0  0  0  0  0  0  0  0  0  0
    7.4910    0.2710    0.1380 C   0  0  0  0  0  0  0  0  0  0  0  0
    8.2190    1.3560    0.3860 C   0  0  0  0  0  0  0  0  0  0  0  0
    8.3760    1.7400    1.6960 C   0  0  0  0  0  0  0  0  0  0  0  0
    7.4390    0.4940    2.6070 S   0  0  0  0  0  0  0  0  0  0  0  0
    1.1280   -0.7860    0.5040 C   0  0  0  0  0  0  0  0  0  0  0  0
   -0.0580   -0.1510   -0.1410 C   0  0  0  0  0  0  0  0  0  0  0  0
   -3.2740    2.2350   -1.7190 C   0  0  0  0  0  0  0  0  0  0  0  0
   -4.3270    1.6870   -1.2070 O   0  0  0  0  0  0  0  0  0  0  0  0
  1  2  1  0
  2  3  2  3
  3  4  1  0
  3  9  1  0
  4  5  2  0
  4  6  1  0
  6  7  2  0
  7  8  1  0
  8  9  2  0
  9 10  1  0
 10 11  2  0
 10 33  1  0
 11 12  1  0
 12 13  1  0
 12 32  2  0
 13 14  2  0
 13 15  1  0
 15 16  1  0
 15 31  1  0
 16 17  1  0
 17 18  1  0
 18 19  1  0
 18 30  1  0
 19 20  2  0
 19 21  1  0
 21 22  1  0
 22 23  1  0
 23 24  2  0
 23 25  1  0
 25 26  2  0
 25 29  1  0
 26 27  1  0
 27 28  2  0
 28 29  1  0
 30 31  1  0
 32 33  1  0
M  END
