
     RDKit          3D

 33 36  0  0  0  0  0  0  0  0999 V2000
    8.3080    0.9520   -1.4130 C   0  0  0  0  0  0  0  0  0  0  0  0
    7.8070    0.7090   -0.0400 C   0  0  0  0  0  0  0  0  0  0  0  0
    8.5610    1.1060    1.0870 C   0  0  0  0  0  0  0  0  0  0  0  0
    8.1180    0.8710    2.3750 C   0  0  0  0  0  0  0  0  0  0  0  0
    6.9530    0.2600    2.5640 N   0  0  0  0  0  0  0  0  0  0  0  0
    6.2050   -0.1360    1.5170 C   0  0  0  0  0  0  0  0  0  0  0  0
    5.1310   -0.7130    1.7930 O   0  0  0  0  0  0  0  0  0  0  0  0
    6.6060    0.0760    0.2220 C   0  0  0  0  0  0  0  0  0  0  0  0
    5.7420   -0.3660   -0.8670 C   0  0  0  0  0  0  0  0  0  0  0  0
    6.1730   -0.5160   -2.0340 O   0  0  0  0  0  0  0  0  0  0  0  0
    4.3440   -0.6440   -0.6410 C   0  0  0  0  0  0  0  0  0  0  0  0
    3.1810    0.3440    0.3270 S   0  0  0  0  0  0  0  0  0  0  0  0
    1.7710   -0.7920    0.0580 C   0  0  0  0  0  0  0  0  0  0  0  0
    0.4760   -0.3400    0.6140 C   0  0  0  0  0  0  0  0  0  0  0  0
   -0.5850   -1.2510   -0.0060 C   0  0  0  0  0  0  0  0  0  0  0  0
   -1.8690   -0.4930    0.1830 C   0  0  0  0  0  0  0  0  0  0  0  0
   -1.9390    0.6370   -0.6880 C   0  0  0  0  0  0  0  0  0  0  0  0
   -3.0500    1.3390   -0.6760 N   0  0  0  0  0  0  0  0  0  0  0  0
   -4.0850    1.0580    0.0850 C   0  0  0  0  0  0  0  0  0  0  0  0
   -4.0360   -0.0630    0.9520 C   0  0  0  0  0  0  0  0  0  0  0  0
   -5.3200   -0.3700    1.5950 C   0  0  0  0  0  0  0  0  0  0  0  0
   -5.3550   -0.6520    2.7980 O   0  0  0  0  0  0  0  0  0  0  0  0
   -6.4860   -0.3010    0.7350 N   0  0  0  0  0  0  0  0  0  0  0  0
   -6.4030   -0.4440   -0.6970 C   0  0  0  0  0  0  0  0  0  0  0  0
   -7.0220    0.6570   -1.4360 C   0  0  0  0  0  0  0  0  0  0  0  0
   -8.2850    1.2280   -0.9020 C   0  0  0  0  0  0  0  0  0  0  0  0
   -8.6190    1.0200    0.5170 C   0  0  0  0  0  0  0  0  0  0  0  0
   -7.7350    0.0850    1.2720 C   0  0  0  0  0  0  0  0  0  0  0  0
   -8.0990   -0.3460    2.3670 O   0  0  0  0  0  0  0  0  0  0  0  0
   -2.9200   -0.8060    0.9790 C   0  0  0  0  0  0  0  0  0  0  0  0
    2.2960   -1.6510   -0.6280 N   0  0  0  0  0  0  0  0  0  0  0  0
    3.5150   -1.7000   -1.0340 C   0  0  0  0  0  0  0  0  0  0  0  0
    4.0920   -2.7940   -1.8770 C   0  0  0  0  0  0  0  0  0  0  0  0
  1  2  1  0
  2  3  1  0
  2  8  2  0
  3  4  2  0
  4  5  1  0
  5  6  1  0
  6  7  2  0
  6  8  1  0
  8  9  1  0
  9 10  2  0
  9 11  1  0
 11 12  1  0
 11 32  2  0
 12 13  1  0
 13 14  1  0
 13 31  2  0
 14 15  1  0
 15 16  1  0
 16 17  2  0
 16 30  1  0
 17 18  1  0
 18 19  2  0
 19 20  1  0
 20 21  1  0
 20 30  2  0
 21 22  2  0
 21 23  1  0
 23 24  1  0
 23 28  1  0
 24 25  1  0
 25 26  1  0
 26 27  1  0
 27 28  1  0
 28 29  2  0
 31 32  1  0
 32 33  1  0
M  END
