
     RDKit          3D

 32 33  0  0  0  0  0  0  0  0999 V2000
    2.3990    3.4600    2.4050 C   0  0  0  0  0  0  0  0  0  0  0  0
    1.4740    3.4530    1.2420 C   0  0  0  0  0  0  0  0  0  0  0  0
    0.0710    3.0860    1.7840 C   0  0  0  0  0  0  0  0  0  0  0  0
   -0.4670    4.1860    2.6230 C   0  0  0  0  0  0  0  0  0  0  0  0
   -0.2350    5.5140    2.0160 N   0  0  0  0  0  0  0  0  0  0  0  0
    0.8110    6.2450    2.6720 C   0  0  0  0  0  0  0  0  0  0  0  0
   -0.4780    2.0380    1.3150 C   0  0  0  0  0  0  0  0  0  0  0  0
    0.3710    1.3670    0.2690 N   0  0  0  0  0  0  0  0  0  0  0  0
    1.2800    0.3310    0.6460 C   0  0  0  0  0  0  0  0  0  0  0  0
    1.9960   -0.1210   -0.6290 C   0  0  0  0  0  0  0  0  0  0  0  0
    2.9200   -1.1460   -0.2820 N   0  0  1  0  0  0  0  0  0  0  0  0
    2.4480   -2.4880   -0.3510 C   0  0  0  0  0  0  0  0  0  0  0  0
    2.0550   -2.9820   -1.6930 C   0  0  0  0  0  0  0  0  0  0  0  0
    3.1780   -3.6010   -2.4870 C   0  0  0  0  0  0  0  0  0  0  0  0
    4.3560   -2.7140   -2.6640 C   0  0  0  0  0  0  0  0  0  0  0  0
    4.0060   -1.2390   -2.4660 C   0  0  0  0  0  0  0  0  0  0  0  0
    4.1760   -0.9460   -1.0040 C   0  0  0  0  0  0  0  0  0  0  0  0
   -1.5910    1.1470    1.6680 C   0  0  0  0  0  0  0  0  0  0  0  0
   -1.8830    0.1920    0.7760 C   0  0  0  0  0  0  0  0  0  0  0  0
   -2.8620   -0.8130    0.7790 C   0  0  0  0  0  0  0  0  0  0  0  0
   -3.6940   -1.0020    1.6930 O   0  0  0  0  0  0  0  0  0  0  0  0
   -2.9710   -1.7510   -0.3480 N   0  0  0  0  0  0  0  0  0  0  0  0
   -2.0660   -1.5930   -1.4340 C   0  0  0  0  0  0  0  0  0  0  0  0
   -2.5540   -2.5080   -2.5650 C   0  0  1  0  0  0  0  0  0  0  0  0
   -2.0550   -3.9070   -2.4280 C   0  0  0  0  0  0  0  0  0  0  0  0
   -3.9130   -2.4200   -2.7330 O   0  0  0  0  0  0  0  0  0  0  0  0
   -4.6740   -2.8050   -1.6620 C   0  0  2  0  0  0  0  0  0  0  0  0
   -5.8320   -1.8090   -1.5210 C   0  0  0  0  0  0  0  0  0  0  0  0
   -3.9540   -2.7820   -0.3420 C   0  0  0  0  0  0  0  0  0  0  0  0
   -2.2470    1.1990    2.9220 C   0  0  0  0  0  0  0  0  0  0  0  0
   -1.9370    2.1250    3.9510 N   0  0  0  0  0  0  0  0  0  0  0  0
   -3.1980    0.4110    3.2710 O   0  0  0  0  0  0  0  0  0  0  0  0
  1  2  1  0
  2  3  1  0
  3  4  1  0
  3  7  2  3
  4  5  1  0
  5  6  1  0
  7  8  1  0
  7 18  1  0
  8  9  1  0
  9 10  1  0
 11 10  1  6
 11 12  1  0
 11 17  1  0
 12 13  1  0
 13 14  1  0
 14 15  1  0
 15 16  1  0
 16 17  1  0
 18 19  2  3
 18 30  1  0
 19 20  1  0
 20 21  2  0
 20 22  1  0
 22 23  1  0
 22 29  1  0
 23 24  1  0
 24 25  1  1
 24 26  1  0
 26 27  1  0
 27 28  1  1
 27 29  1  0
 30 31  1  0
 30 32  2  0
M  CHG  2   5   1  11   1
M  END
