
     RDKit          3D

 33 35  0  0  0  0  0  0  0  0999 V2000
   -8.9220   -0.3500   -3.0140 C   0  0  0  0  0  0  0  0  0  0  0  0
   -8.2910   -0.2540   -1.8610 C   0  0  0  0  0  0  0  0  0  0  0  0
   -7.0580    0.4730   -1.7610 C   0  0  0  0  0  0  0  0  0  0  0  0
   -6.3080    0.6860   -0.7230 C   0  0  0  0  0  0  0  0  0  0  0  0
   -5.0120    1.4790   -0.7870 C   0  0  0  0  0  0  0  0  0  0  0  0
   -3.9750    0.6800   -0.2140 N   0  0  0  0  0  0  0  0  0  0  0  0
   -2.7820    1.3620    0.1750 C   0  0  1  0  0  0  0  0  0  0  0  0
   -2.1800    0.9260    1.4530 C   0  0  0  0  0  0  0  0  0  0  0  0
   -0.8600    1.6630    1.6740 C   0  0  0  0  0  0  0  0  0  0  0  0
   -0.0330    1.2420    0.5700 N   0  0  0  0  0  0  0  0  0  0  0  0
    1.0530    0.3780    0.7790 C   0  0  0  0  0  0  0  0  0  0  0  0
    1.2870   -0.0680    1.9560 O   0  0  0  0  0  0  0  0  0  0  0  0
    1.9380   -0.0560   -0.2400 N   0  0  0  0  0  0  0  0  0  0  0  0
    3.0020   -1.0000    0.0030 C   0  0  0  0  0  0  0  0  0  0  0  0
    3.1120   -1.4350    1.1800 O   0  0  0  0  0  0  0  0  0  0  0  0
    3.9210   -1.4340   -1.0990 C   0  0  0  0  0  0  0  0  0  0  0  0
    4.7410   -2.4530   -0.6680 O   0  0  0  0  0  0  0  0  0  0  0  0
    5.6050   -2.3510    0.3910 C   0  0  0  0  0  0  0  0  0  0  0  0
    5.7080   -1.2950    1.0470 O   0  0  0  0  0  0  0  0  0  0  0  0
    6.4110   -3.5100    0.7560 C   0  0  0  0  0  0  0  0  0  0  0  0
    7.8620   -3.3840    0.4320 C   0  0  0  0  0  0  0  0  0  0  0  0
    8.6600   -2.0090    1.2110 S   0  0  0  0  0  0  0  0  0  0  0  0
    8.3960   -0.4460    0.4370 C   0  0  0  0  0  0  0  0  0  0  0  0
    8.7010    0.7070    1.0390 C   0  0  0  0  0  0  0  0  0  0  0  0
    8.3750    1.8470    0.1570 C   0  0  0  0  0  0  0  0  0  0  0  0
    7.8250    1.1960   -1.0540 C   0  0  0  0  0  0  0  0  0  0  0  0
    7.8500   -0.1080   -0.8710 C   0  0  0  0  0  0  0  0  0  0  0  0
   -0.4370    1.7340   -0.7210 C   0  0  0  0  0  0  0  0  0  0  0  0
   -1.8800    1.3840   -1.0090 C   0  0  0  0  0  0  0  0  0  0  0  0
   -4.3810   -0.4660    0.4770 C   0  0  0  0  0  0  0  0  0  0  0  0
   -5.5510   -0.2720    1.4350 C   0  0  0  0  0  0  0  0  0  0  0  0
   -6.6350    0.2280    0.5850 N   0  0  0  0  0  0  0  0  0  0  0  0
   -7.9620    0.2600    1.1020 C   0  0  0  0  0  0  0  0  0  0  0  0
  1  2  2  0
  2  3  1  0
  3  4  2  3
  4  5  1  0
  4 32  1  0
  5  6  1  0
  7  6  1  6
  6 30  1  0
  7  8  1  0
  7 29  1  0
  8  9  1  0
  9 10  1  0
 10 11  1  0
 10 28  1  0
 11 12  2  0
 11 13  1  0
 13 14  1  0
 14 15  2  0
 14 16  1  0
 16 17  1  0
 17 18  1  0
 18 19  2  0
 18 20  1  0
 20 21  1  0
 21 22  1  0
 22 23  1  0
 23 24  2  0
 23 27  1  0
 24 25  1  0
 25 26  1  0
 26 27  2  0
 28 29  1  0
 30 31  1  0
 31 32  1  0
 32 33  1  0
M  END
