
     RDKit          3D

 33 35  0  0  0  0  0  0  0  0999 V2000
    9.3500    1.1360   -1.4290 C   0  0  0  0  0  0  0  0  0  0  0  0
    8.4100    1.7870   -0.4080 C   0  0  0  0  0  0  0  0  0  0  0  0
    7.3810    0.8110   -0.1390 O   0  0  0  0  0  0  0  0  0  0  0  0
    7.8160   -0.4250    0.3110 C   0  0  0  0  0  0  0  0  0  0  0  0
    9.0320   -0.6330    0.4690 O   0  0  0  0  0  0  0  0  0  0  0  0
    6.8890   -1.5160    0.6220 C   0  0  0  0  0  0  0  0  0  0  0  0
    5.4670   -1.1320    0.6040 C   0  0  1  0  0  0  0  0  0  0  0  0
    4.9640   -0.6240   -0.7100 C   0  0  0  0  0  0  0  0  0  0  0  0
    3.5420   -0.1180   -0.4410 C   0  0  0  0  0  0  0  0  0  0  0  0
    2.6130   -1.2500   -0.0720 C   0  0  2  0  0  0  0  0  0  0  0  0
    2.2790   -1.9180   -1.2920 N   0  0  0  0  0  0  0  0  0  0  0  0
    1.3820   -3.0360   -1.1680 C   0  0  0  0  0  0  0  0  0  0  0  0
    1.4190   -0.6110    0.6020 C   0  0  0  0  0  0  0  0  0  0  0  0
    1.5080   -0.1340    1.7500 O   0  0  0  0  0  0  0  0  0  0  0  0
    0.1680   -0.5360   -0.0440 N   0  0  0  0  0  0  0  0  0  0  0  0
   -1.0300    0.0030    0.4580 C   0  0  0  0  0  0  0  0  0  0  0  0
   -1.2520    0.4340    1.7330 C   0  0  0  0  0  0  0  0  0  0  0  0
   -2.4890    0.9530    2.1560 C   0  0  0  0  0  0  0  0  0  0  0  0
   -3.5210    1.0410    1.2770 C   0  0  0  0  0  0  0  0  0  0  0  0
   -3.3430    0.6140   -0.0380 C   0  0  0  0  0  0  0  0  0  0  0  0
   -2.1250    0.1140   -0.4140 C   0  0  0  0  0  0  0  0  0  0  0  0
   -4.6040    0.8730   -0.7150 N   0  0  0  0  0  0  0  0  0  0  0  0
   -5.2480    1.9580    0.0550 C   0  0  1  0  0  0  0  0  0  0  0  0
   -6.6690    2.0320   -0.3020 C   0  0  0  0  0  0  0  0  0  0  0  0
   -7.3860    0.8170   -0.0720 N   0  0  1  0  0  0  0  0  0  0  0  0
   -8.0190    0.7200    1.2160 C   0  0  0  0  0  0  0  0  0  0  0  0
   -8.3950    2.0560    1.8190 C   0  0  0  0  0  0  0  0  0  0  0  0
   -8.3240    0.5950   -1.1810 C   0  0  0  0  0  0  0  0  0  0  0  0
   -9.6260    1.0950   -0.9650 C   0  0  0  0  0  0  0  0  0  0  0  0
  -10.6990    1.5110   -0.7990 N   0  0  0  0  0  0  0  0  0  0  0  0
   -4.9050    1.5130    1.3740 N   0  0  0  0  0  0  0  0  0  0  0  0
    3.1880   -2.1680    0.9790 C   0  0  0  0  0  0  0  0  0  0  0  0
    4.6340   -2.3910    0.9100 C   0  0  0  0  0  0  0  0  0  0  0  0
  1  2  1  0
  2  3  1  0
  3  4  1  0
  4  5  2  0
  4  6  1  0
  7  6  1  6
  7  8  1  0
  7 33  1  0
  8  9  1  0
  9 10  1  0
 10 11  1  6
 10 13  1  0
 10 32  1  0
 11 12  1  0
 13 14  2  0
 13 15  1  0
 15 16  1  0
 16 17  2  0
 16 21  1  0
 17 18  1  0
 18 19  2  0
 19 20  1  0
 19 31  1  0
 20 21  2  0
 20 22  1  0
 22 23  1  0
 23 24  1  1
 23 31  1  0
 25 24  1  6
 25 26  1  0
 25 28  1  0
 26 27  1  0
 28 29  1  0
 29 30  3  0
 32 33  1  0
M  CHG  2  11   1  25   1
M  END
