
     RDKit          3D

 33 35  0  0  0  0  0  0  0  0999 V2000
    2.7160    2.9330   -0.1910 C   0  0  0  0  0  0  0  0  0  0  0  0
    2.4120    1.8370   -1.1240 N   0  0  0  0  0  0  0  0  0  0  0  0
    3.5230    1.2970   -1.8670 C   0  0  0  0  0  0  0  0  0  0  0  0
    4.5580    0.7480   -0.9260 C   0  0  0  0  0  0  0  0  0  0  0  0
    5.6830    1.4870   -0.6670 C   0  0  0  0  0  0  0  0  0  0  0  0
    6.6020    0.9890    0.1860 N   0  0  0  0  0  0  0  0  0  0  0  0
    6.4540   -0.2120    0.7940 C   0  0  0  0  0  0  0  0  0  0  0  0
    7.3760   -0.7040    1.6480 N   0  0  0  0  0  0  0  0  0  0  0  0
    7.2360   -1.9050    2.2640 C   0  0  0  0  0  0  0  0  0  0  0  0
    8.2040   -2.4160    3.1550 N   0  0  0  0  0  0  0  0  0  0  0  0
    6.1170   -2.6180    1.9920 N   0  0  0  0  0  0  0  0  0  0  0  0
    5.1720   -2.1640    1.1460 C   0  0  0  0  0  0  0  0  0  0  0  0
    4.0130   -2.9680    0.9000 N   0  0  0  0  0  0  0  0  0  0  0  0
    5.3190   -0.9470    0.5260 C   0  0  0  0  0  0  0  0  0  0  0  0
    4.3840   -0.4520   -0.3350 N   0  0  0  0  0  0  0  0  0  0  0  0
    1.0590    1.3780   -1.2290 C   0  0  0  0  0  0  0  0  0  0  0  0
    0.6510    0.4080   -2.0850 C   0  0  0  0  0  0  0  0  0  0  0  0
   -0.6890    0.0060   -2.1350 C   0  0  0  0  0  0  0  0  0  0  0  0
   -1.6480    0.5650   -1.3310 C   0  0  0  0  0  0  0  0  0  0  0  0
   -3.0480    0.1700   -1.3800 C   0  0  0  0  0  0  0  0  0  0  0  0
   -3.4880   -0.5280   -2.3490 O   0  0  0  0  0  0  0  0  0  0  0  0
   -3.9750    0.5340   -0.3770 N   0  0  0  0  0  0  0  0  0  0  0  0
   -5.4020    0.1330   -0.4460 C   0  0  1  0  0  0  0  0  0  0  0  0
   -5.7110   -0.7670    0.7090 C   0  0  0  0  0  0  0  0  0  0  0  0
   -7.1250   -1.2010    0.7250 C   0  0  0  0  0  0  0  0  0  0  0  0
   -7.4170   -2.1440    1.8480 C   0  0  0  0  0  0  0  0  0  0  0  0
   -6.6870   -3.1670    1.9390 O   0  0  0  0  0  0  0  0  0  0  0  0
   -8.4200   -1.9610    2.7770 O   0  0  0  0  0  0  0  0  0  0  0  0
   -6.2510    1.3170   -0.5220 C   0  0  0  0  0  0  0  0  0  0  0  0
   -5.7470    2.4600   -0.4090 O   0  0  0  0  0  0  0  0  0  0  0  0
   -7.6080    1.2370   -0.7210 O   0  0  0  0  0  0  0  0  0  0  0  0
   -1.2300    1.5460   -0.4650 C   0  0  0  0  0  0  0  0  0  0  0  0
    0.1010    1.9520   -0.4080 C   0  0  0  0  0  0  0  0  0  0  0  0
  1  2  1  0
  2  3  1  0
  2 16  1  0
  3  4  1  0
  4  5  2  0
  4 15  1  0
  5  6  1  0
  6  7  2  0
  7  8  1  0
  7 14  1  0
  8  9  2  0
  9 10  1  0
  9 11  1  0
 11 12  2  0
 12 13  1  0
 12 14  1  0
 14 15  2  0
 16 17  2  0
 16 33  1  0
 17 18  1  0
 18 19  2  0
 19 20  1  0
 19 32  1  0
 20 21  2  0
 20 22  1  0
 22 23  1  0
 23 24  1  1
 23 29  1  0
 24 25  1  0
 25 26  1  0
 26 27  2  0
 26 28  1  0
 29 30  2  0
 29 31  1  0
 32 33  2  0
M  END
