
     RDKit          3D

 33 36  0  0  0  0  0  0  0  0999 V2000
   -4.3010   -0.3300   -3.0580 C   0  0  0  0  0  0  0  0  0  0  0  0
   -4.5170   -0.9580   -1.7450 N   0  0  0  0  0  0  0  0  0  0  0  0
   -3.4640   -1.0740   -0.8310 C   0  0  0  0  0  0  0  0  0  0  0  0
   -2.2280   -0.5000   -1.0970 C   0  0  0  0  0  0  0  0  0  0  0  0
   -1.1830   -0.5790   -0.2170 C   0  0  0  0  0  0  0  0  0  0  0  0
    0.1260    0.0320   -0.5100 N   0  0  0  0  0  0  0  0  0  0  0  0
    0.1320    1.4150   -0.4310 C   0  0  0  0  0  0  0  0  0  0  0  0
    0.4700    2.2640    0.6530 C   0  0  0  0  0  0  0  0  0  0  0  0
    0.8590    1.9760    1.7950 O   0  0  0  0  0  0  0  0  0  0  0  0
    0.3400    3.7140    0.4070 N   0  0  0  0  0  0  0  0  0  0  0  0
    0.7700    4.5830    1.4420 C   0  0  0  0  0  0  0  0  0  0  0  0
    0.4840    6.0130    1.2810 C   0  0  0  0  0  0  0  0  0  0  0  0
   -0.1790    6.3750    0.1210 O   0  0  0  0  0  0  0  0  0  0  0  0
    0.1880    5.6530   -0.9800 C   0  0  0  0  0  0  0  0  0  0  0  0
   -0.2340    4.2270   -0.8050 C   0  0  0  0  0  0  0  0  0  0  0  0
    1.0950   -0.8520   -0.9250 C   0  0  0  0  0  0  0  0  0  0  0  0
    0.5000   -1.7730   -1.7430 O   0  0  0  0  0  0  0  0  0  0  0  0
    2.4940   -1.1360   -0.8070 C   0  0  0  0  0  0  0  0  0  0  0  0
    2.5740   -0.5160    0.8070 C   0  0  0  0  0  0  0  0  0  0  0  0
    4.1810   -0.6970    1.2940 S   0  0  0  0  0  0  0  0  0  0  0  0
    4.7210   -1.4820   -0.3530 C   0  0  0  0  0  0  0  0  0  0  0  0
    6.1420   -1.9100   -0.5180 C   0  0  1  0  0  0  0  0  0  0  0  0
    6.4820   -2.9220    0.5840 C   0  0  0  0  0  0  0  0  0  0  0  0
    6.2390   -2.6120   -1.8220 C   0  0  0  0  0  0  0  0  0  0  0  0
    3.6660   -1.3730   -0.7070 N   0  0  0  0  0  0  0  0  0  0  0  0
   -1.3440   -1.2410    0.9690 C   0  0  0  0  0  0  0  0  0  0  0  0
   -2.5670   -1.8260    1.2600 C   0  0  0  0  0  0  0  0  0  0  0  0
   -3.6230   -1.7470    0.3740 C   0  0  0  0  0  0  0  0  0  0  0  0
   -4.9000   -2.3700    0.7620 C   0  0  0  0  0  0  0  0  0  0  0  0
   -4.8550   -3.5540    1.6550 C   0  0  0  0  0  0  0  0  0  0  0  0
   -3.6230   -3.7690    2.4480 C   0  0  0  0  0  0  0  0  0  0  0  0
   -2.7590   -2.5640    2.5000 C   0  0  0  0  0  0  0  0  0  0  0  0
   -2.2030   -2.1680    3.5480 O   0  0  0  0  0  0  0  0  0  0  0  0
  1  2  1  0
  2  3  1  0
  3  4  2  0
  3 28  1  0
  4  5  1  0
  5  6  1  0
  5 26  2  0
  6  7  1  0
  6 16  1  0
  7  8  1  0
  8  9  2  0
  8 10  1  0
 10 11  1  0
 10 15  1  0
 11 12  1  0
 12 13  1  0
 13 14  1  0
 14 15  1  0
 16 17  2  0
 16 18  1  0
 18 19  2  0
 18 25  1  0
 19 20  1  0
 20 21  1  0
 21 22  1  0
 21 25  2  0
 22 23  1  1
 22 24  1  0
 26 27  1  0
 27 28  2  0
 27 32  1  0
 28 29  1  0
 29 30  1  0
 30 31  1  0
 31 32  1  0
 32 33  2  0
M  END
