
     RDKit          3D

 33 36  0  0  0  0  0  0  0  0999 V2000
   -7.0480   -1.5080   -1.3850 C   0  0  0  0  0  0  0  0  0  0  0  0
   -5.6980   -1.1620   -1.1650 O   0  0  0  0  0  0  0  0  0  0  0  0
   -4.6650   -2.0370   -1.4920 C   0  0  0  0  0  0  0  0  0  0  0  0
   -4.9490   -3.2460   -2.0320 C   0  0  0  0  0  0  0  0  0  0  0  0
   -3.9590   -4.1300   -2.3670 C   0  0  0  0  0  0  0  0  0  0  0  0
   -2.6120   -3.7650   -2.1390 C   0  0  0  0  0  0  0  0  0  0  0  0
   -2.3650   -2.5160   -1.5830 C   0  0  0  0  0  0  0  0  0  0  0  0
   -3.3500   -1.6480   -1.2560 C   0  0  0  0  0  0  0  0  0  0  0  0
   -3.1540   -0.3690   -0.6830 N   0  0  0  0  0  0  0  0  0  0  0  0
   -1.8420    0.1510   -0.4400 C   0  0  0  0  0  0  0  0  0  0  0  0
   -0.9000   -0.0290   -1.2990 N   0  0  0  0  0  0  0  0  0  0  0  0
    0.4240    0.4320   -1.1760 C   0  0  0  0  0  0  0  0  0  0  0  0
    1.6620    0.1030   -2.4570 S   0  0  0  0  0  0  0  0  0  0  0  0
    3.2070    0.8750   -1.9730 C   0  0  0  0  0  0  0  0  0  0  0  0
    3.7100    0.2030   -0.7460 C   0  0  0  0  0  0  0  0  0  0  0  0
    3.0410   -0.7510   -0.2540 O   0  0  0  0  0  0  0  0  0  0  0  0
    4.9160    0.6550   -0.1710 N   0  0  0  0  0  0  0  0  0  0  0  0
    5.4190    0.0280    1.0160 C   0  0  0  0  0  0  0  0  0  0  0  0
    6.8530   -0.3680    0.7750 C   0  0  0  0  0  0  0  0  0  0  0  0
    7.3450    0.0660   -0.4280 O   0  0  0  0  0  0  0  0  0  0  0  0
    7.1220    1.3910   -0.7010 C   0  0  1  0  0  0  0  0  0  0  0  0
    7.7060    1.6600   -2.0880 C   0  0  0  0  0  0  0  0  0  0  0  0
    5.6430    1.7350   -0.7640 C   0  0  0  0  0  0  0  0  0  0  0  0
    0.7320    1.0920   -0.1210 N   0  0  0  0  0  0  0  0  0  0  0  0
   -0.2120    1.3770    0.9330 C   0  0  0  0  0  0  0  0  0  0  0  0
    0.1360    2.0230    1.9400 O   0  0  0  0  0  0  0  0  0  0  0  0
   -1.5810    0.9020    0.8120 C   0  0  0  0  0  0  0  0  0  0  0  0
   -2.5430    1.0780    1.6880 C   0  0  0  0  0  0  0  0  0  0  0  0
   -2.4570    1.7850    2.9540 C   0  0  0  0  0  0  0  0  0  0  0  0
   -3.5450    1.8580    3.7130 C   0  0  0  0  0  0  0  0  0  0  0  0
   -4.7900    1.2290    3.2550 C   0  0  0  0  0  0  0  0  0  0  0  0
   -3.4640    2.5740    4.9990 C   0  0  0  0  0  0  0  0  0  0  0  0
   -2.8890   -5.0660   -2.7190 C   0  0  0  0  0  0  0  0  0  0  0  0
  1  2  1  0
  2  3  1  0
  3  4  2  0
  3  8  1  0
  4  5  1  0
  5  6  2  0
  5 33  1  0
  6  7  1  0
  6 33  1  0
  7  8  2  0
  8  9  1  0
  9 10  1  0
 10 11  2  0
 10 27  1  0
 11 12  1  0
 12 13  1  0
 12 24  2  0
 13 14  1  0
 14 15  1  0
 15 16  2  0
 15 17  1  0
 17 18  1  0
 17 23  1  0
 18 19  1  0
 19 20  1  0
 20 21  1  0
 21 22  1  6
 21 23  1  0
 24 25  1  0
 25 26  2  0
 25 27  1  0
 27 28  2  3
 28 29  1  0
 29 30  2  3
 30 31  1  0
 30 32  1  0
M  END
