
     RDKit          3D

 33 35  0  0  0  0  0  0  0  0999 V2000
   -3.6980    3.4920    2.1010 C   0  0  0  0  0  0  0  0  0  0  0  0
   -3.9760    2.8010    0.7600 C   0  0  0  0  0  0  0  0  0  0  0  0
   -4.2240    1.3930    1.0000 N   0  0  0  0  0  0  0  0  0  0  0  0
   -3.9320    0.5850   -0.2020 C   0  0  1  0  0  0  0  0  0  0  0  0
   -2.6910   -0.1970    0.1070 C   0  0  2  0  0  0  0  0  0  0  0  0
   -1.5660    0.7810    0.4170 C   0  0  0  0  0  0  0  0  0  0  0  0
   -0.3550    0.0110    0.9760 C   0  0  0  0  0  0  0  0  0  0  0  0
    0.1310   -0.7540   -0.1450 N   0  0  0  0  0  0  0  0  0  0  0  0
    1.5450   -0.7130   -0.4550 C   0  0  0  0  0  0  0  0  0  0  0  0
    2.2270   -0.0190    0.2980 O   0  0  0  0  0  0  0  0  0  0  0  0
    2.0560   -1.4610   -1.5850 C   0  0  0  0  0  0  0  0  0  0  0  0
    3.4890   -1.2900   -1.9300 C   0  0  0  0  0  0  0  0  0  0  0  0
    4.4690   -1.5990   -0.9460 N   0  0  0  0  0  0  0  0  0  0  0  0
    4.7050   -2.9310   -0.7370 C   0  0  0  0  0  0  0  0  0  0  0  0
    3.9980   -3.7740   -1.3770 O   0  0  0  0  0  0  0  0  0  0  0  0
    5.6540   -3.3130    0.1180 N   0  0  0  0  0  0  0  0  0  0  0  0
    6.3860   -2.4060    0.7800 C   0  0  0  0  0  0  0  0  0  0  0  0
    7.2970   -2.7430    1.6030 O   0  0  0  0  0  0  0  0  0  0  0  0
    6.1670   -1.0590    0.5840 C   0  0  0  0  0  0  0  0  0  0  0  0
    6.9010   -0.1240    1.2040 N   0  0  0  0  0  0  0  0  0  0  0  0
    6.7710    1.1990    1.0430 C   0  0  0  0  0  0  0  0  0  0  0  0
    7.6340    2.1770    1.7790 C   0  0  0  0  0  0  0  0  0  0  0  0
    8.8970    2.3580    1.0960 N   0  0  0  0  0  0  0  0  0  0  0  0
    5.7870    1.6120    0.1530 C   0  0  0  0  0  0  0  0  0  0  0  0
    4.9950    0.7180   -0.5180 C   0  0  0  0  0  0  0  0  0  0  0  0
    5.1710   -0.6330   -0.3130 C   0  0  0  0  0  0  0  0  0  0  0  0
   -0.7940   -1.5200   -0.8900 C   0  0  0  0  0  0  0  0  0  0  0  0
   -2.1760   -1.0210   -1.0430 C   0  0  0  0  0  0  0  0  0  0  0  0
   -5.1690   -0.2290   -0.4380 C   0  0  1  0  0  0  0  0  0  0  0  0
   -6.3100    0.7790   -0.6400 C   0  0  0  0  0  0  0  0  0  0  0  0
   -5.1730   -1.0980   -1.6620 C   0  0  0  0  0  0  0  0  0  0  0  0
   -5.4280   -1.1010    0.7500 C   0  0  0  0  0  0  0  0  0  0  0  0
   -6.6720   -1.9540    0.5830 C   0  0  0  0  0  0  0  0  0  0  0  0
  1  2  1  0
  2  3  1  0
  4  3  1  1
  4  5  1  0
  4 29  1  0
  5  6  1  6
  5 28  1  0
  6  7  1  0
  7  8  1  0
  8  9  1  0
  8 27  1  0
  9 10  2  0
  9 11  1  0
 11 12  1  0
 12 13  1  0
 13 14  1  0
 13 26  1  0
 14 15  2  0
 14 16  1  0
 16 17  1  0
 17 18  2  0
 17 19  1  0
 19 20  2  0
 19 26  1  0
 20 21  1  0
 21 22  1  0
 21 24  2  0
 22 23  1  0
 24 25  1  0
 25 26  2  0
 27 28  1  0
 29 30  1  6
 29 31  1  0
 29 32  1  0
 32 33  1  0
M  CHG  2   3   1  23   1
M  END
