
     RDKit          3D

 33 36  0  0  0  0  0  0  0  0999 V2000
   -7.0940   -3.8370    0.2320 C   0  0  0  0  0  0  0  0  0  0  0  0
   -6.8660   -2.3600    0.3410 C   0  0  0  0  0  0  0  0  0  0  0  0
   -7.9160   -1.4770    0.4460 C   0  0  0  0  0  0  0  0  0  0  0  0
   -7.6310   -0.1370    0.5430 C   0  0  0  0  0  0  0  0  0  0  0  0
   -8.7530    0.8130    0.6560 C   0  0  0  0  0  0  0  0  0  0  0  0
   -6.3110    0.3290    0.5370 C   0  0  0  0  0  0  0  0  0  0  0  0
   -5.2850   -0.5360    0.4340 C   0  0  0  0  0  0  0  0  0  0  0  0
   -3.8490   -0.1620    0.4110 C   0  0  0  0  0  0  0  0  0  0  0  0
   -2.5580   -1.4140    0.2890 S   0  0  0  0  0  0  0  0  0  0  0  0
   -1.1870   -0.3100    0.3110 C   0  0  0  0  0  0  0  0  0  0  0  0
    0.1570   -0.8520    0.2320 C   0  0  0  0  0  0  0  0  0  0  0  0
    1.2120    0.0680    0.1680 N   0  0  0  0  0  0  0  0  0  0  0  0
    1.2310    0.9670   -0.9350 C   0  0  0  0  0  0  0  0  0  0  0  0
    2.6920    1.0040   -1.4160 C   0  0  0  0  0  0  0  0  0  0  0  0
    3.4660    1.2610   -0.2190 N   0  0  0  0  0  0  0  0  0  0  0  0
    4.8850    1.2430   -0.3220 C   0  0  0  0  0  0  0  0  0  0  0  0
    5.5590    1.4700    0.6960 O   0  0  0  0  0  0  0  0  0  0  0  0
    5.4910    0.9610   -1.6130 C   0  0  0  0  0  0  0  0  0  0  0  0
    6.9590    0.9180   -1.7410 C   0  0  0  0  0  0  0  0  0  0  0  0
    7.6750   -0.0410   -0.9710 N   0  0  0  0  0  0  0  0  0  0  0  0
    8.3060    0.1200    0.2680 C   0  0  0  0  0  0  0  0  0  0  0  0
    8.4380    1.1400    1.0100 O   0  0  0  0  0  0  0  0  0  0  0  0
    8.8690   -1.1400    0.6790 N   0  0  0  0  0  0  0  0  0  0  0  0
    8.5970   -2.1160   -0.3100 C   0  0  0  0  0  0  0  0  0  0  0  0
    8.9390   -3.3290   -0.2840 O   0  0  0  0  0  0  0  0  0  0  0  0
    7.8500   -1.4270   -1.3400 C   0  0  0  0  0  0  0  0  0  0  0  0
    7.4080   -1.9240   -2.4040 O   0  0  0  0  0  0  0  0  0  0  0  0
    2.8690    1.5300    1.0630 C   0  0  0  0  0  0  0  0  0  0  0  0
    1.6520    0.6800    1.3670 C   0  0  0  0  0  0  0  0  0  0  0  0
   -1.7880    0.8910    0.4070 C   0  0  0  0  0  0  0  0  0  0  0  0
   -3.1460    0.9560    0.4570 C   0  0  0  0  0  0  0  0  0  0  0  0
   -3.8200    2.3210    0.5610 C   0  0  0  0  0  0  0  0  0  0  0  0
   -5.5950   -1.8860    0.3370 C   0  0  0  0  0  0  0  0  0  0  0  0
  1  2  1  0
  2  3  2  0
  2 33  1  0
  3  4  1  0
  4  5  1  0
  4  6  2  0
  6  7  1  0
  7  8  1  0
  7 33  2  0
  8  9  1  0
  8 31  2  0
  9 10  1  0
 10 11  1  0
 10 30  2  0
 11 12  1  0
 12 13  1  0
 12 29  1  0
 13 14  1  0
 14 15  1  0
 15 16  1  0
 15 28  1  0
 16 17  2  0
 16 18  1  0
 18 19  1  0
 19 20  1  0
 20 21  1  0
 20 26  1  0
 21 22  2  0
 21 23  1  0
 23 24  1  0
 24 25  2  0
 24 26  1  0
 26 27  2  0
 28 29  1  0
 30 31  1  0
 31 32  1  0
M  END
