
     RDKit          3D

 33 36  0  0  0  0  0  0  0  0999 V2000
    9.8090   -0.0840    2.6990 C   0  0  0  0  0  0  0  0  0  0  0  0
    8.8910   -0.2650    1.5790 N   0  0  0  0  0  0  0  0  0  0  0  0
    9.1590   -1.1670    0.6190 C   0  0  0  0  0  0  0  0  0  0  0  0
    8.3040   -1.3540   -0.4480 C   0  0  0  0  0  0  0  0  0  0  0  0
    7.1390   -0.6300   -0.5860 C   0  0  0  0  0  0  0  0  0  0  0  0
    6.2570   -0.8510   -1.7250 C   0  0  0  0  0  0  0  0  0  0  0  0
    6.6010   -1.7060   -2.5780 O   0  0  0  0  0  0  0  0  0  0  0  0
    5.0440   -0.1740   -1.9400 N   0  0  0  0  0  0  0  0  0  0  0  0
    4.1770   -0.4060   -3.0810 C   0  0  0  0  0  0  0  0  0  0  0  0
    2.9740    0.4440   -3.0440 C   0  0  0  0  0  0  0  0  0  0  0  0
    2.7690    1.2560   -2.1200 O   0  0  0  0  0  0  0  0  0  0  0  0
    2.0510    0.3360   -4.0610 O   0  0  0  0  0  0  0  0  0  0  0  0
    0.8760    1.0660   -4.1610 C   0  0  0  0  0  0  0  0  0  0  0  0
    0.0020    0.7930   -2.9480 C   0  0  0  0  0  0  0  0  0  0  0  0
   -0.1210    0.1600   -1.9920 N   0  0  0  0  0  0  0  0  0  0  0  0
   -1.0520    0.1620   -1.0750 C   0  0  0  0  0  0  0  0  0  0  0  0
   -2.0690    1.1070   -1.3160 C   0  0  0  0  0  0  0  0  0  0  0  0
   -1.5670    1.8560   -2.8000 S   0  0  0  0  0  0  0  0  0  0  0  0
   -3.1760    1.1870   -0.3300 C   0  0  0  0  0  0  0  0  0  0  0  0
   -3.7930   -0.2010   -0.1020 C   0  0  2  0  0  0  0  0  0  0  0  0
   -4.3800   -0.6030   -1.4390 C   0  0  0  0  0  0  0  0  0  0  0  0
   -4.8180   -0.0430    0.8590 N   0  0  0  0  0  0  0  0  0  0  0  0
   -4.4370    0.4010    2.1480 C   0  0  0  0  0  0  0  0  0  0  0  0
   -5.4190   -0.0920    3.2050 C   0  0  0  0  0  0  0  0  0  0  0  0
   -6.7040    0.6670    3.1910 C   0  0  0  0  0  0  0  0  0  0  0  0
   -7.7100    0.1980    2.2090 C   0  0  0  0  0  0  0  0  0  0  0  0
   -7.1660   -0.4320    0.9770 C   0  0  0  0  0  0  0  0  0  0  0  0
   -6.0800    0.4000    0.3850 C   0  0  0  0  0  0  0  0  0  0  0  0
   -2.7060   -1.1420    0.2520 C   0  0  0  0  0  0  0  0  0  0  0  0
   -1.3130   -0.6090    0.1970 C   0  0  0  0  0  0  0  0  0  0  0  0
    6.8710    0.2950    0.4060 C   0  0  0  0  0  0  0  0  0  0  0  0
    7.7650    0.4520    1.4700 C   0  0  0  0  0  0  0  0  0  0  0  0
    7.5190    1.2910    2.3650 O   0  0  0  0  0  0  0  0  0  0  0  0
  1  2  1  0
  2  3  1  0
  2 32  1  0
  3  4  2  0
  4  5  1  0
  5  6  1  0
  5 31  2  0
  6  7  2  0
  6  8  1  0
  8  9  1  0
  9 10  1  0
 10 11  2  0
 10 12  1  0
 12 13  1  0
 13 14  1  0
 14 15  2  0
 14 18  1  0
 15 16  1  0
 16 17  2  0
 16 30  1  0
 17 18  1  0
 17 19  1  0
 19 20  1  0
 20 21  1  6
 20 22  1  0
 20 29  1  0
 22 23  1  0
 22 28  1  0
 23 24  1  0
 24 25  1  0
 25 26  1  0
 26 27  1  0
 27 28  1  0
 29 30  1  0
 31 32  1  0
 32 33  2  0
M  END
