
     RDKit          3D

 29 32  0  0  0  0  0  0  0  0999 V2000
    9.3880   -0.1300    0.6050 C   0  0  0  0  0  0  0  0  0  0  0  0
    9.0890   -0.8420   -0.6970 C   0  0  0  0  0  0  0  0  0  0  0  0
    7.6510   -0.6440   -1.0180 C   0  0  0  0  0  0  0  0  0  0  0  0
    7.0130   -1.1330   -2.1060 N   0  0  0  0  0  0  0  0  0  0  0  0
    5.7230   -0.7520   -2.0600 C   0  0  0  0  0  0  0  0  0  0  0  0
    5.5510   -0.0230   -0.9410 N   0  0  0  0  0  0  0  0  0  0  0  0
    4.2660    0.5700   -0.5430 C   0  0  0  0  0  0  0  0  0  0  0  0
    3.5570   -0.4410    0.3000 C   0  0  0  0  0  0  0  0  0  0  0  0
    2.2810   -0.0250    0.7760 N   0  0  1  0  0  0  0  0  0  0  0  0
    2.1480    1.4090    0.9200 C   0  0  0  0  0  0  0  0  0  0  0  0
    0.6580    1.5270    1.2610 C   0  0  0  0  0  0  0  0  0  0  0  0
    0.0580    0.5530    0.2580 C   0  0  2  0  0  0  0  0  0  0  0  0
   -0.9920   -0.1930    0.9490 N   0  0  0  0  0  0  0  0  0  0  0  0
   -2.3400   -0.1240    0.5000 C   0  0  0  0  0  0  0  0  0  0  0  0
   -2.5900    0.5940   -0.5030 O   0  0  0  0  0  0  0  0  0  0  0  0
   -3.4000   -0.8280    1.1330 N   0  0  0  0  0  0  0  0  0  0  0  0
   -4.7210   -0.6950    0.6070 C   0  0  0  0  0  0  0  0  0  0  0  0
   -4.9880    0.0730   -0.4650 N   0  0  0  0  0  0  0  0  0  0  0  0
   -6.2310    0.2050   -0.9700 C   0  0  0  0  0  0  0  0  0  0  0  0
   -6.4820    0.9980   -2.0710 C   0  0  0  0  0  0  0  0  0  0  0  0
   -7.7430    1.1450   -2.5990 C   0  0  0  0  0  0  0  0  0  0  0  0
   -8.7980    0.4910   -2.0290 C   0  0  0  0  0  0  0  0  0  0  0  0
   -8.6030   -0.3130   -0.9290 C   0  0  0  0  0  0  0  0  0  0  0  0
   -7.3190   -0.4430   -0.4150 C   0  0  0  0  0  0  0  0  0  0  0  0
   -7.0770   -1.2400    0.6870 C   0  0  0  0  0  0  0  0  0  0  0  0
   -5.7840   -1.3570    1.1860 C   0  0  0  0  0  0  0  0  0  0  0  0
   -5.5060   -2.2090    2.3700 C   0  0  0  0  0  0  0  0  0  0  0  0
    1.1920   -0.3380   -0.1490 C   0  0  0  0  0  0  0  0  0  0  0  0
    6.7060    0.0290   -0.3360 N   0  0  0  0  0  0  0  0  0  0  0  0
  1  2  1  0
  2  3  1  0
  3  4  1  0
  3 29  2  0
  4  5  2  0
  5  6  1  0
  6  7  1  0
  6 29  1  0
  7  8  1  0
  9  8  1  6
  9 10  1  0
  9 28  1  0
 10 11  1  0
 11 12  1  0
 12 13  1  1
 12 28  1  0
 13 14  1  0
 14 15  2  0
 14 16  1  0
 16 17  1  0
 17 18  2  0
 17 26  1  0
 18 19  1  0
 19 20  2  0
 19 24  1  0
 20 21  1  0
 21 22  2  0
 22 23  1  0
 23 24  2  0
 24 25  1  0
 25 26  2  0
 26 27  1  0
M  CHG  1   9   1
M  END
