
     RDKit          3D

 28 31  0  0  0  0  0  0  0  0999 V2000
   -2.6370   -3.1670    1.8780 C   0  0  0  0  0  0  0  0  0  0  0  0
   -1.5820   -2.3650    1.9350 C   0  0  0  0  0  0  0  0  0  0  0  0
   -0.6050   -2.2760    0.8180 C   0  0  0  0  0  0  0  0  0  0  0  0
   -0.5070   -0.8770    0.2470 C   0  0  2  0  0  0  0  0  0  0  0  0
   -0.0900    0.0140    1.2790 N   0  0  0  0  0  0  0  0  0  0  0  0
    0.4330    1.2750    0.7920 C   0  0  0  0  0  0  0  0  0  0  0  0
    1.7070    1.1200    0.0860 C   0  0  0  0  0  0  0  0  0  0  0  0
    2.9740    1.1700    0.6140 C   0  0  0  0  0  0  0  0  0  0  0  0
    3.8350    0.9740   -0.4130 N   0  0  0  0  0  0  0  0  0  0  0  0
    5.2460    0.9530   -0.2900 C   0  0  0  0  0  0  0  0  0  0  0  0
    5.9220    2.1500   -0.3750 C   0  0  0  0  0  0  0  0  0  0  0  0
    7.2960    2.1840   -0.2610 C   0  0  0  0  0  0  0  0  0  0  0  0
    7.9490    1.0450   -0.0700 N   0  0  0  0  0  0  0  0  0  0  0  0
    7.3450   -0.1590    0.0210 C   0  0  0  0  0  0  0  0  0  0  0  0
    8.1320   -1.3440    0.2290 N   0  0  0  0  0  0  0  0  0  0  0  0
    5.9810   -0.1870   -0.0920 C   0  0  0  0  0  0  0  0  0  0  0  0
    3.1280    0.8130   -1.5180 N   0  0  0  0  0  0  0  0  0  0  0  0
    1.8440    0.8990   -1.2290 N   0  0  0  0  0  0  0  0  0  0  0  0
   -1.8040   -0.4900   -0.3790 C   0  0  0  0  0  0  0  0  0  0  0  0
   -1.9590   -0.5080   -1.7490 C   0  0  0  0  0  0  0  0  0  0  0  0
   -3.1620   -0.1490   -2.3220 C   0  0  0  0  0  0  0  0  0  0  0  0
   -4.2640    0.2440   -1.5640 C   0  0  0  0  0  0  0  0  0  0  0  0
   -4.1060    0.2610   -0.2000 C   0  0  0  0  0  0  0  0  0  0  0  0
   -2.8850   -0.1030    0.3810 C   0  0  0  0  0  0  0  0  0  0  0  0
   -5.2340    0.6680    0.6700 C   0  0  0  0  0  0  0  0  0  0  0  0
   -6.3660    1.2910   -0.0810 C   0  0  0  0  0  0  0  0  0  0  0  0
   -6.6520    0.5630   -1.3770 C   0  0  0  0  0  0  0  0  0  0  0  0
   -5.4630    0.6020   -2.1410 O   0  0  0  0  0  0  0  0  0  0  0  0
  1  2  2  0
  2  3  1  0
  4  3  1  1
  4  5  1  0
  4 19  1  0
  5  6  1  0
  6  7  1  0
  7  8  2  0
  7 18  1  0
  8  9  1  0
  9 10  1  0
  9 17  1  0
 10 11  2  0
 10 16  1  0
 11 12  1  0
 12 13  2  0
 13 14  1  0
 14 15  1  0
 14 16  2  0
 17 18  2  0
 19 20  2  0
 19 24  1  0
 20 21  1  0
 21 22  2  0
 22 23  1  0
 22 28  1  0
 23 24  2  0
 23 25  1  0
 25 26  1  0
 26 27  1  0
 27 28  1  0
M  CHG  1   5   1
M  END
