
     RDKit          3D

 30 33  0  0  0  0  0  0  0  0999 V2000
   -5.5800   -3.4130    2.4120 C   0  0  0  0  0  0  0  0  0  0  0  0
   -5.5260   -2.8350    1.0240 C   0  0  0  0  0  0  0  0  0  0  0  0
   -4.1180   -2.8700    0.4690 C   0  0  1  0  0  0  0  0  0  0  0  0
   -4.0720   -2.3190   -0.8530 N   0  0  0  0  0  0  0  0  0  0  0  0
   -2.9780   -1.4390   -0.9030 N   0  0  0  0  0  0  0  0  0  0  0  0
   -2.5000   -1.2270    0.2650 C   0  0  0  0  0  0  0  0  0  0  0  0
   -1.3420   -0.3570    0.6410 C   0  0  0  0  0  0  0  0  0  0  0  0
   -0.7570    0.2770   -0.5070 N   0  0  0  0  0  0  0  0  0  0  0  0
    0.2500   -0.2220   -1.2710 C   0  0  0  0  0  0  0  0  0  0  0  0
    0.8740   -1.4810   -1.0510 N   0  0  0  0  0  0  0  0  0  0  0  0
    1.9810   -1.9330   -1.8730 C   0  0  0  0  0  0  0  0  0  0  0  0
    3.2460   -1.1550   -1.6750 C   0  0  0  0  0  0  0  0  0  0  0  0
    3.6610   -1.2610   -0.3290 O   0  0  0  0  0  0  0  0  0  0  0  0
    4.7990   -0.6500    0.1620 C   0  0  0  0  0  0  0  0  0  0  0  0
    5.2190   -0.7400    1.4680 C   0  0  0  0  0  0  0  0  0  0  0  0
    6.3640   -0.1150    1.9250 C   0  0  0  0  0  0  0  0  0  0  0  0
    6.8170   -0.2140    3.3360 C   0  0  0  0  0  0  0  0  0  0  0  0
    7.0600    0.5970    1.0260 N   0  0  0  0  0  0  0  0  0  0  0  0
    6.6770    0.7080   -0.2650 C   0  0  0  0  0  0  0  0  0  0  0  0
    5.5440    0.0790   -0.6820 N   0  0  0  0  0  0  0  0  0  0  0  0
    0.5180    0.6670   -2.2530 N   0  0  0  0  0  0  0  0  0  0  0  0
   -0.3040    1.7340   -2.1310 C   0  0  0  0  0  0  0  0  0  0  0  0
   -0.4720    2.9090   -2.8340 C   0  0  0  0  0  0  0  0  0  0  0  0
   -1.4280    3.8090   -2.4330 C   0  0  0  0  0  0  0  0  0  0  0  0
   -2.2430    3.5890   -1.3400 C   0  0  0  0  0  0  0  0  0  0  0  0
   -3.4700    4.7990   -0.8670 S   0  0  0  0  0  0  0  0  0  0  0  0
   -2.6480    5.9420    0.3080 C   0  0  0  0  0  0  0  0  0  0  0  0
   -2.0580    2.4080   -0.6510 C   0  0  0  0  0  0  0  0  0  0  0  0
   -1.0930    1.4680   -1.0310 C   0  0  0  0  0  0  0  0  0  0  0  0
   -3.2580   -1.9700    1.2100 N   0  0  0  0  0  0  0  0  0  0  0  0
  1  2  1  0
  3  2  1  1
  3  4  1  0
  3 30  1  0
  4  5  1  0
  5  6  2  0
  6  7  1  0
  6 30  1  0
  7  8  1  0
  8  9  1  0
  8 29  1  0
  9 10  1  0
  9 21  2  0
 10 11  1  0
 11 12  1  0
 12 13  1  0
 13 14  1  0
 14 15  2  0
 14 20  1  0
 15 16  1  0
 16 17  1  0
 16 18  2  0
 18 19  1  0
 19 20  2  0
 21 22  1  0
 22 23  2  0
 22 29  1  0
 23 24  1  0
 24 25  2  0
 25 26  1  0
 25 28  1  0
 26 27  1  0
 28 29  2  0
M  CHG  1  21   1
M  END
