
     RDKit          3D

 29 31  0  0  0  0  0  0  0  0999 V2000
    6.3660    1.7000   -0.6850 C   0  0  0  0  0  0  0  0  0  0  0  0
    5.1460    1.0930   -0.1210 C   0  0  0  0  0  0  0  0  0  0  0  0
    4.8120   -0.1680   -0.3120 C   0  0  0  0  0  0  0  0  0  0  0  0
    5.6940   -1.0290   -1.1330 C   0  0  0  0  0  0  0  0  0  0  0  0
    3.6200   -0.7790    0.2700 C   0  0  0  0  0  0  0  0  0  0  0  0
    3.3080   -2.0360    0.0570 C   0  0  0  0  0  0  0  0  0  0  0  0
    2.2110   -2.8020    0.5270 C   0  0  0  0  0  0  0  0  0  0  0  0
    2.1710   -4.0550    0.1470 O   0  0  0  0  0  0  0  0  0  0  0  0
    1.0800   -2.4460    1.3890 C   0  0  0  0  0  0  0  0  0  0  0  0
    0.6130   -1.0820    1.3130 N   0  0  0  0  0  0  0  0  0  0  0  0
   -0.8470   -1.0350    1.5360 C   0  0  0  0  0  0  0  0  0  0  0  0
   -1.5000    0.0150    0.7340 C   0  0  2  0  0  0  0  0  0  0  0  0
   -0.8450    1.3550    1.1530 C   0  0  0  0  0  0  0  0  0  0  0  0
   -2.9680    0.2030    1.1430 C   0  0  0  0  0  0  0  0  0  0  0  0
   -3.4540    1.3540    0.4010 N   0  0  0  0  0  0  0  0  0  0  0  0
   -4.0740    2.4620    1.0360 C   0  0  0  0  0  0  0  0  0  0  0  0
   -3.8660    3.6840    0.7330 N   0  0  0  0  0  0  0  0  0  0  0  0
   -4.5980    4.5790    1.5060 N   0  0  0  0  0  0  0  0  0  0  0  0
   -5.5620    3.7970    2.2550 C   0  0  0  0  0  0  0  0  0  0  0  0
   -5.0190    2.4600    2.0990 N   0  0  0  0  0  0  0  0  0  0  0  0
   -3.2950    1.3680   -1.0370 C   0  0  0  0  0  0  0  0  0  0  0  0
   -1.8520    1.0490   -1.4600 C   0  0  0  0  0  0  0  0  0  0  0  0
   -1.4650   -0.1300   -0.6810 N   0  0  0  0  0  0  0  0  0  0  0  0
   -1.0840   -1.2860   -1.3690 C   0  0  0  0  0  0  0  0  0  0  0  0
   -0.5120   -1.1960   -2.6470 C   0  0  0  0  0  0  0  0  0  0  0  0
   -0.1430   -2.3250   -3.3690 C   0  0  0  0  0  0  0  0  0  0  0  0
   -0.3300   -3.5820   -2.8480 C   0  0  0  0  0  0  0  0  0  0  0  0
   -0.8950   -3.6470   -1.5870 C   0  0  0  0  0  0  0  0  0  0  0  0
   -1.2390   -2.5440   -0.9190 N   0  0  0  0  0  0  0  0  0  0  0  0
  1  2  1  0
  2  3  2  3
  3  4  1  0
  3  5  1  0
  5  6  2  3
  6  7  1  0
  7  8  2  0
  7  9  1  0
  9 10  1  0
 10 11  1  0
 11 12  1  0
 12 13  1  6
 12 14  1  0
 12 23  1  0
 14 15  1  0
 15 16  1  0
 15 21  1  0
 16 17  2  0
 16 20  1  0
 17 18  1  0
 18 19  1  0
 19 20  1  0
 21 22  1  0
 22 23  1  0
 23 24  1  0
 24 25  2  0
 24 29  1  0
 25 26  1  0
 26 27  2  0
 27 28  1  0
 28 29  2  0
M  CHG  1  10   1
M  END
