
     RDKit          3D

 30 33  0  0  0  0  0  0  0  0999 V2000
   -8.4970   -0.9160    0.1330 C   0  0  0  0  0  0  0  0  0  0  0  0
   -8.1320    0.1750    0.8220 C   0  0  0  0  0  0  0  0  0  0  0  0
   -7.2570    1.1800    0.2140 C   0  0  0  0  0  0  0  0  0  0  0  0
   -5.9680    1.2110    0.9130 N   0  0  0  0  0  0  0  0  0  0  0  0
   -5.1210    0.1380    0.4150 C   0  0  1  0  0  0  0  0  0  0  0  0
   -4.6710    0.4750   -1.0030 C   0  0  0  0  0  0  0  0  0  0  0  0
   -3.8590    1.7640   -1.0970 C   0  0  0  0  0  0  0  0  0  0  0  0
   -3.1510    2.0270    0.2730 C   0  0  0  0  0  0  0  0  0  0  0  0
   -2.8020    0.7010    0.6540 N   0  0  0  0  0  0  0  0  0  0  0  0
   -1.5740    0.1130    0.3320 C   0  0  0  0  0  0  0  0  0  0  0  0
   -1.0290   -0.0540   -0.7990 N   0  0  0  0  0  0  0  0  0  0  0  0
    0.0070   -0.6850   -1.0690 C   0  0  0  0  0  0  0  0  0  0  0  0
    0.7170   -0.7800   -2.4060 C   0  0  0  0  0  0  0  0  0  0  0  0
    0.6840   -1.3280    0.0120 C   0  0  0  0  0  0  0  0  0  0  0  0
    1.6630   -2.4040   -0.0720 C   0  0  0  0  0  0  0  0  0  0  0  0
    2.9370   -2.2920    0.5270 N   0  0  0  0  0  0  0  0  0  0  0  0
    3.4370   -0.9490    0.4960 C   0  0  1  0  0  0  0  0  0  0  0  0
    3.4900   -0.3140    1.8680 C   0  0  0  0  0  0  0  0  0  0  0  0
    4.8110   -0.8750   -0.0380 C   0  0  0  0  0  0  0  0  0  0  0  0
    5.7420    0.0590    0.1690 N   0  0  0  0  0  0  0  0  0  0  0  0
    6.8720   -0.2540   -0.5440 C   0  0  0  0  0  0  0  0  0  0  0  0
    8.0630    0.6440   -0.5570 C   0  0  0  0  0  0  0  0  0  0  0  0
    9.2160    0.5620   -1.2520 C   0  0  0  0  0  0  0  0  0  0  0  0
    9.9520    1.6340   -0.9640 N   0  0  0  0  0  0  0  0  0  0  0  0
    9.3470    2.4160   -0.0870 N   0  0  0  0  0  0  0  0  0  0  0  0
    8.1570    1.8130    0.1770 C   0  0  0  0  0  0  0  0  0  0  0  0
    6.6090   -1.3820   -1.1600 N   0  0  0  0  0  0  0  0  0  0  0  0
    5.3840   -1.7610   -0.8750 O   0  0  0  0  0  0  0  0  0  0  0  0
   -0.4250   -0.8270    1.3780 S   0  0  0  0  0  0  0  0  0  0  0  0
   -3.9060   -0.0590    1.2850 C   0  0  0  0  0  0  0  0  0  0  0  0
  1  2  2  0
  2  3  1  0
  3  4  1  0
  5  4  1  1
  5  6  1  0
  5 30  1  0
  6  7  1  0
  7  8  1  0
  8  9  1  0
  9 10  1  0
  9 30  1  0
 10 11  2  0
 10 29  1  0
 11 12  1  0
 12 13  1  0
 12 14  2  0
 14 15  1  0
 14 29  1  0
 15 16  1  0
 16 17  1  0
 17 18  1  1
 17 19  1  0
 19 20  2  0
 19 28  1  0
 20 21  1  0
 21 22  1  0
 21 27  2  0
 22 23  1  0
 22 26  2  0
 23 24  2  0
 24 25  1  0
 25 26  1  0
 27 28  1  0
M  CHG  1  16   1
M  END
