
     RDKit          3D

 30 33  0  0  0  0  0  0  0  0999 V2000
   -5.4130   -4.2050    0.6680 S   0  0  0  0  0  0  0  0  0  0  0  0
   -4.0320   -3.1980    0.0880 C   0  0  0  0  0  0  0  0  0  0  0  0
   -3.1940   -3.7230   -0.8730 C   0  0  0  0  0  0  0  0  0  0  0  0
   -2.1450   -2.9200   -1.2930 C   0  0  0  0  0  0  0  0  0  0  0  0
   -2.0060   -1.6970   -0.7520 N   0  0  0  0  0  0  0  0  0  0  0  0
   -2.8370   -1.2130    0.1810 C   0  0  0  0  0  0  0  0  0  0  0  0
   -2.5810    0.1550    0.7020 C   0  0  1  0  0  0  0  0  0  0  0  0
   -1.4810    0.8180   -0.0630 C   0  0  0  0  0  0  0  0  0  0  0  0
   -0.2330    0.1170    0.0010 N   0  0  0  0  0  0  0  0  0  0  0  0
    0.8060    0.7570   -0.7470 C   0  0  0  0  0  0  0  0  0  0  0  0
    2.0670   -0.0520   -0.6100 C   0  0  0  0  0  0  0  0  0  0  0  0
    3.0030    0.2670    0.3470 C   0  0  0  0  0  0  0  0  0  0  0  0
    4.1240   -0.4570    0.4670 N   0  0  0  0  0  0  0  0  0  0  0  0
    4.3290   -1.4950   -0.3520 C   0  0  0  0  0  0  0  0  0  0  0  0
    5.5090   -2.3070   -0.2750 N   0  0  0  0  0  0  0  0  0  0  0  0
    6.4850   -1.9490    0.7390 C   0  0  0  0  0  0  0  0  0  0  0  0
    6.9920   -0.5710    0.4660 C   0  0  0  0  0  0  0  0  0  0  0  0
    6.7080    0.1760   -0.6690 C   0  0  0  0  0  0  0  0  0  0  0  0
    7.3730    1.3720   -0.5020 C   0  0  0  0  0  0  0  0  0  0  0  0
    7.9990    1.3340    0.6410 O   0  0  0  0  0  0  0  0  0  0  0  0
    7.8090    0.2090    1.2550 C   0  0  0  0  0  0  0  0  0  0  0  0
    3.4290   -1.8220   -1.2910 N   0  0  0  0  0  0  0  0  0  0  0  0
    2.3210   -1.1250   -1.4260 C   0  0  0  0  0  0  0  0  0  0  0  0
   -3.7820    0.9110    0.7860 N   0  0  0  0  0  0  0  0  0  0  0  0
   -3.7070    2.1440    1.4530 C   0  0  0  0  0  0  0  0  0  0  0  0
   -3.9060    3.3720    0.6330 C   0  0  0  0  0  0  0  0  0  0  0  0
   -5.1210    3.1300   -0.2660 C   0  0  0  0  0  0  0  0  0  0  0  0
   -4.7470    2.0100   -1.1270 N   0  0  0  0  0  0  0  0  0  0  0  0
   -4.6630    0.8180   -0.3210 C   0  0  0  0  0  0  0  0  0  0  0  0
   -3.8640   -1.9690    0.6090 N   0  0  0  0  0  0  0  0  0  0  0  0
  1  2  1  0
  2  3  2  0
  2 30  1  0
  3  4  1  0
  4  5  2  0
  5  6  1  0
  6  7  1  0
  6 30  2  0
  7  8  1  6
  7 24  1  0
  8  9  1  0
  9 10  1  0
 10 11  1  0
 11 12  2  0
 11 23  1  0
 12 13  1  0
 13 14  2  0
 14 15  1  0
 14 22  1  0
 15 16  1  0
 16 17  1  0
 17 18  1  0
 17 21  2  0
 18 19  2  0
 19 20  1  0
 20 21  1  0
 22 23  2  0
 24 25  1  0
 24 29  1  0
 25 26  1  0
 26 27  1  0
 27 28  1  0
 28 29  1  0
M  CHG  1  28   1
M  END
