
     RDKit          3D

 30 33  0  0  0  0  0  0  0  0999 V2000
   -5.3680   -1.1270   -3.1040 C   0  0  0  0  0  0  0  0  0  0  0  0
   -4.7080   -0.2200   -2.3870 C   0  0  0  0  0  0  0  0  0  0  0  0
   -5.1740    1.1790   -2.4630 C   0  0  0  0  0  0  0  0  0  0  0  0
   -4.3620    2.1050   -1.6390 C   0  0  0  0  0  0  0  0  0  0  0  0
   -3.3510    1.6580   -0.9270 C   0  0  0  0  0  0  0  0  0  0  0  0
   -2.6150    2.6000   -0.1600 N   0  0  0  0  0  0  0  0  0  0  0  0
   -2.4280    3.9610   -0.6170 C   0  0  0  0  0  0  0  0  0  0  0  0
   -2.9560    0.2540   -0.8980 C   0  0  0  0  0  0  0  0  0  0  0  0
   -1.8600   -0.2060   -0.1230 N   0  0  0  0  0  0  0  0  0  0  0  0
   -1.8010   -1.4210    0.5640 C   0  0  0  0  0  0  0  0  0  0  0  0
   -2.8530   -2.2840    0.6290 C   0  0  0  0  0  0  0  0  0  0  0  0
   -2.7130   -3.4810    1.3550 C   0  0  0  0  0  0  0  0  0  0  0  0
   -3.8350   -4.3460    1.3930 N   0  0  0  0  0  0  0  0  0  0  0  0
   -4.0260   -4.7320    2.7920 C   0  0  0  0  0  0  0  0  0  0  0  0
   -1.5690   -3.7910    1.9840 N   0  0  0  0  0  0  0  0  0  0  0  0
   -0.5150   -2.9470    1.9310 C   0  0  0  0  0  0  0  0  0  0  0  0
   -0.6430   -1.7680    1.2200 C   0  0  0  0  0  0  0  0  0  0  0  0
    0.4180   -0.8880    1.1500 O   0  0  0  0  0  0  0  0  0  0  0  0
    1.6290   -1.2020    1.8080 C   0  0  0  0  0  0  0  0  0  0  0  0
    2.6430   -0.1200    1.6060 C   0  0  0  0  0  0  0  0  0  0  0  0
    3.0460    0.8900    2.0460 N   0  0  0  0  0  0  0  0  0  0  0  0
    4.0070    1.6190    1.5890 N   0  0  0  0  0  0  0  0  0  0  0  0
    4.6450    1.3340    0.5980 C   0  0  0  0  0  0  0  0  0  0  0  0
    5.7220    1.8470   -0.1860 N   0  0  0  0  0  0  0  0  0  0  0  0
    6.4820    3.0570    0.0220 C   0  0  0  0  0  0  0  0  0  0  0  0
    7.9200    2.6570   -0.3090 C   0  0  0  0  0  0  0  0  0  0  0  0
    7.7870    1.4420   -1.2060 C   0  0  0  0  0  0  0  0  0  0  0  0
    6.2830    1.2410   -1.3770 C   0  0  0  0  0  0  0  0  0  0  0  0
    3.8110   -0.2810    0.1130 S   0  0  0  0  0  0  0  0  0  0  0  0
   -3.5970   -0.5990   -1.5810 N   0  0  0  0  0  0  0  0  0  0  0  0
  1  2  2  0
  2  3  1  0
  2 30  1  0
  3  4  1  0
  4  5  2  0
  5  6  1  0
  5  8  1  0
  6  7  1  0
  8  9  1  0
  8 30  2  0
  9 10  1  0
 10 11  2  0
 10 17  1  0
 11 12  1  0
 12 13  1  0
 12 15  2  0
 13 14  1  0
 15 16  1  0
 16 17  2  0
 17 18  1  0
 18 19  1  0
 19 20  1  0
 20 21  2  0
 20 29  1  0
 21 22  1  0
 22 23  2  0
 23 24  1  0
 23 29  1  0
 24 25  1  0
 24 28  1  0
 25 26  1  0
 26 27  1  0
 27 28  1  0
M  CHG  1  13   1
M  END
