
     RDKit          3D

 30 33  0  0  0  0  0  0  0  0999 V2000
    2.5880   -0.7950    2.2490 C   0  0  0  0  0  0  0  0  0  0  0  0
    3.1030    0.3500    2.5600 C   0  0  0  0  0  0  0  0  0  0  0  0
    2.8710    1.6690    1.8530 C   0  0  0  0  0  0  0  0  0  0  0  0
    4.1130    2.1650    1.3480 N   0  0  0  0  0  0  0  0  0  0  0  0
    4.7360    1.7180    0.2090 N   0  0  0  0  0  0  0  0  0  0  0  0
    6.0360    2.0890    0.0540 C   0  0  0  0  0  0  0  0  0  0  0  0
    6.6010    2.7920    0.9550 O   0  0  0  0  0  0  0  0  0  0  0  0
    6.7300    1.7070   -1.0630 C   0  0  0  0  0  0  0  0  0  0  0  0
    6.1690    0.9550   -2.0570 C   0  0  0  0  0  0  0  0  0  0  0  0
    4.8530    0.5780   -1.9090 C   0  0  0  0  0  0  0  0  0  0  0  0
    4.2500   -0.1310   -2.9080 N   0  0  0  0  0  0  0  0  0  0  0  0
    2.9610   -0.4360   -2.7640 C   0  0  0  0  0  0  0  0  0  0  0  0
    2.0530   -1.0910   -3.5260 N   0  0  0  0  0  0  0  0  0  0  0  0
    0.8770   -1.0950   -2.9040 C   0  0  0  0  0  0  0  0  0  0  0  0
   -0.4610   -1.8050   -3.5400 S   0  0  0  0  0  0  0  0  0  0  0  0
    0.9960   -0.4400   -1.7200 N   0  0  0  0  0  0  0  0  0  0  0  0
   -0.1450   -0.2770   -0.8670 C   0  0  0  0  0  0  0  0  0  0  0  0
   -0.9250    0.9820   -1.1900 C   0  0  0  0  0  0  0  0  0  0  0  0
   -2.1020    1.0750   -0.2510 C   0  0  0  0  0  0  0  0  0  0  0  0
   -2.9940   -0.0580   -0.3700 N   0  0  0  0  0  0  0  0  0  0  0  0
   -4.1400   -0.0590    0.4810 C   0  0  0  0  0  0  0  0  0  0  0  0
   -4.4500    0.8450    1.3530 N   0  0  0  0  0  0  0  0  0  0  0  0
   -5.6740    0.5250    2.0360 C   0  0  0  0  0  0  0  0  0  0  0  0
   -5.7410   -0.9960    1.8770 C   0  0  0  0  0  0  0  0  0  0  0  0
   -5.1730   -1.1450    0.4800 C   0  0  2  0  0  0  0  0  0  0  0  0
   -4.5430   -2.5010    0.2740 C   0  0  0  0  0  0  0  0  0  0  0  0
   -3.5480   -2.8560    1.3410 C   0  0  0  0  0  0  0  0  0  0  0  0
    2.2640   -0.0390   -1.6280 C   0  0  0  0  0  0  0  0  0  0  0  0
    2.8680    0.6460   -0.6670 N   0  0  0  0  0  0  0  0  0  0  0  0
    4.1700    0.9720   -0.7770 C   0  0  0  0  0  0  0  0  0  0  0  0
  1  2  2  0
  2  3  1  0
  3  4  1  0
  4  5  1  0
  5  6  1  0
  5 30  1  0
  6  7  2  0
  6  8  1  0
  8  9  2  0
  9 10  1  0
 10 11  2  0
 10 30  1  0
 11 12  1  0
 12 13  1  0
 12 28  2  0
 13 14  1  0
 14 15  2  0
 14 16  1  0
 16 17  1  0
 16 28  1  0
 17 18  1  0
 18 19  1  0
 19 20  1  0
 20 21  1  0
 21 22  2  0
 21 25  1  0
 22 23  1  0
 23 24  1  0
 24 25  1  0
 25 26  1  1
 26 27  1  0
 28 29  1  0
 29 30  2  0
M  CHG  1  22   1
M  END
