
     RDKit          3D

 29 32  0  0  0  0  0  0  0  0999 V2000
    5.3760   -2.9120   -2.2040 C   0  0  0  0  0  0  0  0  0  0  0  0
    3.9180   -2.7980   -1.8100 C   0  0  0  0  0  0  0  0  0  0  0  0
    3.7640   -2.2110   -0.5070 N   0  0  0  0  0  0  0  0  0  0  0  0
    4.1830   -2.8980    0.6950 C   0  0  0  0  0  0  0  0  0  0  0  0
    3.1930   -0.9310   -0.3700 C   0  0  0  0  0  0  0  0  0  0  0  0
    4.0000    0.1690   -0.3750 C   0  0  0  0  0  0  0  0  0  0  0  0
    3.4680    1.4440   -0.2420 C   0  0  0  0  0  0  0  0  0  0  0  0
    2.1110    1.6160   -0.1030 C   0  0  0  0  0  0  0  0  0  0  0  0
    1.5990    2.9160    0.0210 N   0  0  0  0  0  0  0  0  0  0  0  0
    2.5380    4.0500   -0.0190 C   0  0  1  0  0  0  0  0  0  0  0  0
    1.9290    5.4290    0.2100 C   0  0  0  0  0  0  0  0  0  0  0  0
    2.7550    4.7420    1.2660 C   0  0  0  0  0  0  0  0  0  0  0  0
    1.2500    0.5200   -0.0920 C   0  0  0  0  0  0  0  0  0  0  0  0
   -0.1310    0.7220    0.0840 N   0  0  0  0  0  0  0  0  0  0  0  0
   -1.0910   -0.2780    0.0130 C   0  0  0  0  0  0  0  0  0  0  0  0
   -0.7800   -1.4900   -0.2230 O   0  0  0  0  0  0  0  0  0  0  0  0
   -2.5490   -0.1010    0.1880 C   0  0  0  0  0  0  0  0  0  0  0  0
   -3.2710   -1.1720    0.1140 N   0  0  0  0  0  0  0  0  0  0  0  0
   -4.6780   -1.3500    0.2370 N   0  0  0  0  0  0  0  0  0  0  0  0
   -5.1010   -2.6110   -0.3250 C   0  0  0  0  0  0  0  0  0  0  0  0
   -6.5190   -2.8970   -0.2330 C   0  0  0  0  0  0  0  0  0  0  0  0
   -7.3690   -2.0460    0.3270 C   0  0  0  0  0  0  0  0  0  0  0  0
   -6.9200   -0.7770    0.8810 C   0  0  0  0  0  0  0  0  0  0  0  0
   -5.6380   -0.4830    0.8180 C   0  0  0  0  0  0  0  0  0  0  0  0
   -5.3610    0.8430    1.4150 C   0  0  0  0  0  0  0  0  0  0  0  0
   -4.2790    1.5770    1.2450 C   0  0  0  0  0  0  0  0  0  0  0  0
   -3.0940    1.2250    0.4100 C   0  0  0  0  0  0  0  0  0  0  0  0
   -2.5050    2.1620   -0.1640 O   0  0  0  0  0  0  0  0  0  0  0  0
    1.8150   -0.7180   -0.2260 C   0  0  0  0  0  0  0  0  0  0  0  0
  1  2  1  0
  2  3  1  0
  3  4  1  0
  3  5  1  0
  5  6  2  0
  5 29  1  0
  6  7  1  0
  7  8  2  0
  8  9  1  0
  8 13  1  0
 10  9  1  1
 10 11  1  0
 10 12  1  0
 11 12  1  0
 13 14  1  0
 13 29  2  0
 14 15  1  0
 15 16  2  0
 15 17  1  0
 17 18  2  0
 17 27  1  0
 18 19  1  0
 19 20  1  0
 19 24  1  0
 20 21  1  0
 21 22  2  0
 22 23  1  0
 23 24  2  0
 24 25  1  0
 25 26  2  0
 26 27  1  0
 27 28  2  0
M  END
