
     RDKit          3D

 29 32  0  0  0  0  0  0  0  0999 V2000
    0.4140    0.2430    3.1420 O   0  0  0  0  0  0  0  0  0  0  0  0
    1.0420    0.2870    2.0680 C   0  0  0  0  0  0  0  0  0  0  0  0
    0.2710    0.2780    0.8750 N   0  0  0  0  0  0  0  0  0  0  0  0
   -1.1610    0.2220    0.8300 C   0  0  1  0  0  0  0  0  0  0  0  0
   -1.8080    1.4580    0.2830 C   0  0  0  0  0  0  0  0  0  0  0  0
   -3.2940    1.4010    0.5490 C   0  0  0  0  0  0  0  0  0  0  0  0
   -3.9160    0.0910    0.2230 C   0  0  2  0  0  0  0  0  0  0  0  0
   -4.9840    0.3450   -0.8350 C   0  0  0  0  0  0  0  0  0  0  0  0
   -4.4160    0.9430   -2.0990 C   0  0  0  0  0  0  0  0  0  0  0  0
   -5.5000    1.1210   -2.9760 O   0  0  0  0  0  0  0  0  0  0  0  0
   -4.6520   -0.4560    1.4300 C   0  0  0  0  0  0  0  0  0  0  0  0
   -4.6620   -1.9400    1.5180 C   0  0  0  0  0  0  0  0  0  0  0  0
   -4.5940   -2.6520    0.2070 C   0  0  0  0  0  0  0  0  0  0  0  0
   -3.6410   -2.0640   -0.7740 C   0  0  0  0  0  0  0  0  0  0  0  0
   -3.0120   -0.8520   -0.3550 N   0  0  0  0  0  0  0  0  0  0  0  0
   -1.7150   -0.9710    0.1500 C   0  0  0  0  0  0  0  0  0  0  0  0
    2.5140    0.3470    2.0210 C   0  0  0  0  0  0  0  0  0  0  0  0
    3.3370    0.3750    3.1260 C   0  0  0  0  0  0  0  0  0  0  0  0
    4.6290    0.4290    2.6650 C   0  0  0  0  0  0  0  0  0  0  0  0
    4.5570    0.4320    1.2850 C   0  0  0  0  0  0  0  0  0  0  0  0
    5.7110    0.4820    0.4110 C   0  0  0  0  0  0  0  0  0  0  0  0
    6.9730    0.5370    0.9520 O   0  0  0  0  0  0  0  0  0  0  0  0
    5.5540    0.4740   -0.8940 C   0  0  0  0  0  0  0  0  0  0  0  0
    6.6980    0.5230   -1.7760 C   0  0  0  0  0  0  0  0  0  0  0  0
    6.9670   -0.0470   -2.9530 C   0  0  0  0  0  0  0  0  0  0  0  0
    8.1410    0.1820   -3.5610 C   0  0  0  0  0  0  0  0  0  0  0  0
    9.0460    1.0050   -2.9500 C   0  0  0  0  0  0  0  0  0  0  0  0
    8.1490    1.4630   -1.4330 S   0  0  0  0  0  0  0  0  0  0  0  0
    3.2810    0.3820    0.9640 O   0  0  0  0  0  0  0  0  0  0  0  0
  1  2  2  0
  2  3  1  0
  2 17  1  0
  4  3  1  6
  4  5  1  0
  4 16  1  0
  5  6  1  0
  6  7  1  0
  7  8  1  6
  7 11  1  0
  7 15  1  0
  8  9  1  0
  9 10  1  0
 11 12  1  0
 12 13  1  0
 13 14  1  0
 14 15  1  0
 15 16  1  0
 17 18  2  0
 17 29  1  0
 18 19  1  0
 19 20  2  0
 20 21  1  0
 20 29  1  0
 21 22  1  0
 21 23  2  3
 23 24  1  0
 24 25  2  0
 24 28  1  0
 25 26  1  0
 26 27  2  0
 27 28  1  0
M  END
