
     RDKit          3D

 30 34  0  0  0  0  0  0  0  0999 V2000
    7.4320   -0.5860   -2.0280 C   0  0  0  0  0  0  0  0  0  0  0  0
    6.9040    0.2100   -0.9570 O   0  0  0  0  0  0  0  0  0  0  0  0
    5.5310    0.1280   -0.7170 C   0  0  0  0  0  0  0  0  0  0  0  0
    4.7090   -0.6800   -1.4640 C   0  0  0  0  0  0  0  0  0  0  0  0
    3.3520   -0.7010   -1.1540 C   0  0  0  0  0  0  0  0  0  0  0  0
    2.4310   -1.5640   -1.9330 C   0  0  0  0  0  0  0  0  0  0  0  0
    1.0730   -1.4620   -1.4410 N   0  0  0  0  0  0  0  0  0  0  0  0
    0.2000   -0.3980   -1.6910 C   0  0  0  0  0  0  0  0  0  0  0  0
    0.5900    0.5630   -2.3940 O   0  0  0  0  0  0  0  0  0  0  0  0
   -1.1630   -0.4020   -1.1360 C   0  0  0  0  0  0  0  0  0  0  0  0
   -1.7920   -1.3010   -0.3640 C   0  0  0  0  0  0  0  0  0  0  0  0
   -3.0670   -1.0590    0.0160 C   0  0  0  0  0  0  0  0  0  0  0  0
   -3.8930   -1.8760    0.8220 C   0  0  0  0  0  0  0  0  0  0  0  0
   -3.4390   -3.1140    1.3500 N   0  0  0  0  0  0  0  0  0  0  0  0
   -5.1670   -1.4890    1.1180 C   0  0  0  0  0  0  0  0  0  0  0  0
   -5.7410   -0.3330    0.6870 C   0  0  0  0  0  0  0  0  0  0  0  0
   -4.9470    0.4910   -0.1100 C   0  0  0  0  0  0  0  0  0  0  0  0
   -3.6500    0.0890   -0.4070 C   0  0  0  0  0  0  0  0  0  0  0  0
   -2.3350    0.8400   -1.3730 S   0  0  0  0  0  0  0  0  0  0  0  0
   -5.7070    1.6970   -0.4940 C   0  0  0  0  0  0  0  0  0  0  0  0
   -6.7970    1.7420    0.5650 C   0  0  0  0  0  0  0  0  0  0  0  0
   -7.0560    0.2790    0.8690 C   0  0  2  0  0  0  0  0  0  0  0  0
   -7.5700    0.1060    2.1510 O   0  0  0  0  0  0  0  0  0  0  0  0
    2.8540    0.0670   -0.1290 C   0  0  0  0  0  0  0  0  0  0  0  0
    3.6970    0.8880    0.6280 C   0  0  0  0  0  0  0  0  0  0  0  0
    5.0420    0.9120    0.3260 C   0  0  0  0  0  0  0  0  0  0  0  0
    5.9010    1.7230    1.0670 O   0  0  0  0  0  0  0  0  0  0  0  0
    5.3300    2.8520    1.7460 C   0  0  0  0  0  0  0  0  0  0  0  0
    4.1200    2.3720    2.4880 C   0  0  0  0  0  0  0  0  0  0  0  0
    3.2200    1.6750    1.6710 O   0  0  0  0  0  0  0  0  0  0  0  0
  1  2  1  0
  2  3  1  0
  3  4  2  0
  3 26  1  0
  4  5  1  0
  5  6  1  0
  5 24  2  0
  6  7  1  0
  7  8  1  0
  8  9  2  0
  8 10  1  0
 10 11  2  0
 10 19  1  0
 11 12  1  0
 12 13  2  0
 12 18  1  0
 13 14  1  0
 13 15  1  0
 15 16  2  0
 16 17  1  0
 16 22  1  0
 17 18  2  0
 17 20  1  0
 18 19  1  0
 20 21  1  0
 21 22  1  0
 22 23  1  1
 24 25  1  0
 25 26  2  0
 25 30  1  0
 26 27  1  0
 27 28  1  0
 28 29  1  0
 29 30  1  0
M  END
