
     RDKit          3D

 29 32  0  0  0  0  0  0  0  0999 V2000
   -9.0470    1.4480   -0.4130 C   0  0  0  0  0  0  0  0  0  0  0  0
   -7.8960    1.3050    0.5600 C   0  0  0  0  0  0  0  0  0  0  0  0
   -6.9080    0.3250   -0.0210 C   0  0  0  0  0  0  0  0  0  0  0  0
   -5.7730    0.0960    0.7910 N   0  0  0  0  0  0  0  0  0  0  0  0
   -4.8490    1.1540    0.9630 C   0  0  0  0  0  0  0  0  0  0  0  0
   -3.7270    1.1290   -0.0390 C   0  0  0  0  0  0  0  0  0  0  0  0
   -3.3190   -0.2750   -0.3160 C   0  0  1  0  0  0  0  0  0  0  0  0
   -1.8820   -0.4120   -0.6190 C   0  0  0  0  0  0  0  0  0  0  0  0
   -0.8280   -0.1070    0.1790 N   0  0  0  0  0  0  0  0  0  0  0  0
    0.3170   -0.3760   -0.4620 C   0  0  0  0  0  0  0  0  0  0  0  0
    1.6790   -0.2770   -0.1750 C   0  0  0  0  0  0  0  0  0  0  0  0
    2.6820   -0.6280   -1.0260 C   0  0  0  0  0  0  0  0  0  0  0  0
    4.0780   -0.5200   -0.7640 N   0  0  0  0  0  0  0  0  0  0  0  0
    4.5810    0.2450    0.3010 C   0  0  0  0  0  0  0  0  0  0  0  0
    3.8470    0.8920    1.0920 O   0  0  0  0  0  0  0  0  0  0  0  0
    6.0350    0.3450    0.5690 C   0  0  0  0  0  0  0  0  0  0  0  0
    6.9790   -0.3060   -0.1980 C   0  0  0  0  0  0  0  0  0  0  0  0
    8.3410   -0.1910    0.0780 C   0  0  0  0  0  0  0  0  0  0  0  0
    9.2620   -0.8440   -0.6930 O   0  0  0  0  0  0  0  0  0  0  0  0
   10.6410   -0.7410   -0.4310 C   0  0  0  0  0  0  0  0  0  0  0  0
    8.6970    0.5980    1.1470 C   0  0  0  0  0  0  0  0  0  0  0  0
    7.7280    1.2390    1.8980 C   0  0  0  0  0  0  0  0  0  0  0  0
    6.4240    1.1090    1.6080 N   0  0  0  0  0  0  0  0  0  0  0  0
    2.2900   -1.1260   -2.2880 C   0  0  0  0  0  0  0  0  0  0  0  0
    0.9730   -1.2400   -2.6120 C   0  0  0  0  0  0  0  0  0  0  0  0
   -0.0190   -0.8670   -1.7050 C   0  0  0  0  0  0  0  0  0  0  0  0
   -1.3490   -0.8750   -1.7640 N   0  0  0  0  0  0  0  0  0  0  0  0
   -3.7300   -1.1510    0.8500 C   0  0  0  0  0  0  0  0  0  0  0  0
   -5.2500   -1.2270    0.7860 C   0  0  0  0  0  0  0  0  0  0  0  0
  1  2  1  0
  2  3  1  0
  3  4  1  0
  4  5  1  0
  4 29  1  0
  5  6  1  0
  6  7  1  0
  7  8  1  1
  7 28  1  0
  8  9  2  0
  8 27  1  0
  9 10  1  0
 10 11  2  0
 10 26  1  0
 11 12  1  0
 12 13  1  0
 12 24  2  0
 13 14  1  0
 14 15  2  0
 14 16  1  0
 16 17  2  0
 16 23  1  0
 17 18  1  0
 18 19  1  0
 18 21  2  0
 19 20  1  0
 21 22  1  0
 22 23  2  0
 24 25  1  0
 25 26  2  0
 26 27  1  0
 28 29  1  0
M  END
