
     RDKit          3D

 30 33  0  0  0  0  0  0  0  0999 V2000
   -2.7120   -1.2890   -4.2930 C   0  0  0  0  0  0  0  0  0  0  0  0
   -1.8250   -0.9940   -3.2220 O   0  0  0  0  0  0  0  0  0  0  0  0
   -2.2820   -0.8000   -1.9230 C   0  0  0  0  0  0  0  0  0  0  0  0
   -3.4920   -0.8880   -1.6920 O   0  0  0  0  0  0  0  0  0  0  0  0
   -1.3110   -0.4990   -0.8720 C   0  0  0  0  0  0  0  0  0  0  0  0
   -1.7410   -0.2920    0.3380 C   0  0  0  0  0  0  0  0  0  0  0  0
   -3.0870   -0.3030    0.8400 C   0  0  0  0  0  0  0  0  0  0  0  0
   -3.4100   -1.2230    1.8390 C   0  0  0  0  0  0  0  0  0  0  0  0
   -4.6650   -1.2560    2.4070 C   0  0  0  0  0  0  0  0  0  0  0  0
   -5.6590   -0.3830    2.0160 C   0  0  0  0  0  0  0  0  0  0  0  0
   -5.3570    0.5310    1.0340 C   0  0  0  0  0  0  0  0  0  0  0  0
   -4.0830    0.5580    0.4630 C   0  0  0  0  0  0  0  0  0  0  0  0
   -6.5430    1.3740    0.7540 C   0  0  0  0  0  0  0  0  0  0  0  0
   -7.6830    0.4690    1.1700 C   0  0  0  0  0  0  0  0  0  0  0  0
   -7.0790   -0.1730    2.4270 C   0  0  0  0  0  0  0  0  0  0  0  0
   -0.0170   -0.4670   -1.2860 O   0  0  0  0  0  0  0  0  0  0  0  0
    1.1170   -0.2270   -0.6220 C   0  0  0  0  0  0  0  0  0  0  0  0
    1.0960    0.0180    0.5860 O   0  0  0  0  0  0  0  0  0  0  0  0
    2.4230   -0.2360   -1.2400 N   0  0  0  0  0  0  0  0  0  0  0  0
    3.5600    0.0410   -0.3920 C   0  0  0  0  0  0  0  0  0  0  0  0
    3.5580    0.3860    1.2890 S   0  0  0  0  0  0  0  0  0  0  0  0
    5.3440    0.5890    1.4880 C   0  0  0  0  0  0  0  0  0  0  0  0
    5.7750    0.3730    0.2480 C   0  0  0  0  0  0  0  0  0  0  0  0
    4.9280    0.0880   -0.7680 C   0  0  0  0  0  0  0  0  0  0  0  0
    5.3320   -0.1700   -2.1950 C   0  0  0  0  0  0  0  0  0  0  0  0
    6.6920   -0.1270   -2.5870 N   0  0  0  0  0  0  0  0  0  0  0  0
    4.4960   -0.4280   -3.0720 O   0  0  0  0  0  0  0  0  0  0  0  0
    7.2910    0.5260    0.3670 C   0  0  0  0  0  0  0  0  0  0  0  0
    7.4780    1.4390    1.5300 C   0  0  0  0  0  0  0  0  0  0  0  0
    6.3920    0.8950    2.4730 C   0  0  0  0  0  0  0  0  0  0  0  0
  1  2  1  0
  2  3  1  0
  3  4  2  0
  3  5  1  0
  5  6  2  3
  5 16  1  0
  6  7  1  0
  7  8  2  0
  7 12  1  0
  8  9  1  0
  9 10  2  0
 10 11  1  0
 10 15  1  0
 11 12  2  0
 11 13  1  0
 13 14  1  0
 14 15  1  0
 16 17  1  0
 17 18  2  0
 17 19  1  0
 19 20  1  0
 20 21  1  0
 20 24  2  0
 21 22  1  0
 22 23  2  0
 22 30  1  0
 23 24  1  0
 23 28  1  0
 24 25  1  0
 25 26  1  0
 25 27  2  0
 28 29  1  0
 29 30  1  0
M  END
