
     RDKit          3D

 31 34  0  0  0  0  0  0  0  0999 V2000
   -2.4200   -2.0170    0.9000 C   0  0  0  0  0  0  0  0  0  0  0  0
   -3.7110   -1.2900    0.9440 C   0  0  0  0  0  0  0  0  0  0  0  0
   -4.5010   -1.5220    2.0800 C   0  0  0  0  0  0  0  0  0  0  0  0
   -5.7140   -0.8730    2.1770 C   0  0  0  0  0  0  0  0  0  0  0  0
   -6.1500   -0.0250    1.2050 C   0  0  0  0  0  0  0  0  0  0  0  0
   -5.3430    0.1850    0.0890 C   0  0  0  0  0  0  0  0  0  0  0  0
   -4.1370   -0.4410   -0.0390 C   0  0  0  0  0  0  0  0  0  0  0  0
   -3.3580   -0.2450   -1.2000 N   0  0  0  0  0  0  0  0  0  0  0  0
   -2.1560    0.2970   -1.3780 C   0  0  0  0  0  0  0  0  0  0  0  0
   -1.2070    0.8700   -0.4450 C   0  0  0  0  0  0  0  0  0  0  0  0
    0.1620    0.8000   -0.7450 C   0  0  0  0  0  0  0  0  0  0  0  0
    1.1540    1.3460    0.0370 C   0  0  0  0  0  0  0  0  0  0  0  0
    2.5440    1.3310   -0.3300 C   0  0  0  0  0  0  0  0  0  0  0  0
    3.3200    2.2320    0.2110 O   0  0  0  0  0  0  0  0  0  0  0  0
    3.1950    0.4810   -1.1870 N   0  0  0  0  0  0  0  0  0  0  0  0
    2.6350   -0.6200   -1.8910 C   0  0  0  0  0  0  0  0  0  0  0  0
    4.6380    0.7000   -1.4330 C   0  0  0  0  0  0  0  0  0  0  0  0
    5.4610   -0.0300   -0.4940 C   0  0  0  0  0  0  0  0  0  0  0  0
    6.7750   -0.1720   -0.2920 C   0  0  0  0  0  0  0  0  0  0  0  0
    7.2690   -0.9350    0.6830 C   0  0  0  0  0  0  0  0  0  0  0  0
    6.3950   -1.6090    1.5220 C   0  0  0  0  0  0  0  0  0  0  0  0
    4.7790   -1.0940    0.8420 S   0  0  0  0  0  0  0  0  0  0  0  0
    0.7900    2.0190    1.2090 C   0  0  0  0  0  0  0  0  0  0  0  0
    1.6800    2.6030    2.0780 O   0  0  0  0  0  0  0  0  0  0  0  0
   -0.5690    2.0950    1.5130 C   0  0  0  0  0  0  0  0  0  0  0  0
   -1.5220    1.5310    0.6970 C   0  0  0  0  0  0  0  0  0  0  0  0
   -2.8200    1.6740    1.0910 O   0  0  0  0  0  0  0  0  0  0  0  0
   -1.8790    0.1560   -2.7220 N   0  0  0  0  0  0  0  0  0  0  0  0
   -2.8480   -0.4360   -3.3550 N   0  0  0  0  0  0  0  0  0  0  0  0
   -3.7700   -0.6930   -2.4370 C   0  0  0  0  0  0  0  0  0  0  0  0
   -4.8690   -1.2590   -2.6360 O   0  0  0  0  0  0  0  0  0  0  0  0
  1  2  1  0
  2  3  2  0
  2  7  1  0
  3  4  1  0
  4  5  2  0
  5  6  1  0
  6  7  2  0
  7  8  1  0
  8  9  1  0
  8 30  1  0
  9 10  1  0
  9 28  2  0
 10 11  2  0
 10 26  1  0
 11 12  1  0
 12 13  1  0
 12 23  2  0
 13 14  2  0
 13 15  1  0
 15 16  1  0
 15 17  1  0
 17 18  1  0
 18 19  2  0
 18 22  1  0
 19 20  1  0
 20 21  2  0
 21 22  1  0
 23 24  1  0
 23 25  1  0
 25 26  2  0
 26 27  1  0
 28 29  1  0
 29 30  1  0
 30 31  2  0
M  END
