
     RDKit          3D

 29 32  0  0  0  0  0  0  0  0999 V2000
   -6.3410    2.7990    0.9180 C   0  0  0  0  0  0  0  0  0  0  0  0
   -4.9320    2.2600    0.7390 C   0  0  0  0  0  0  0  0  0  0  0  0
   -5.0840    0.8380    0.2360 C   0  0  0  0  0  0  0  0  0  0  0  0
   -3.7230    0.1820    0.0150 C   0  0  1  0  0  0  0  0  0  0  0  0
   -3.0130    0.1810    1.3520 C   0  0  0  0  0  0  0  0  0  0  0  0
   -3.9860   -1.1960   -0.4780 C   0  0  0  0  0  0  0  0  0  0  0  0
   -5.2610   -1.7210   -0.5480 C   0  0  0  0  0  0  0  0  0  0  0  0
   -5.5220   -2.9540   -0.9750 N   0  0  0  0  0  0  0  0  0  0  0  0
   -4.5190   -3.7310   -1.3570 C   0  0  0  0  0  0  0  0  0  0  0  0
   -3.2250   -3.2400   -1.3020 C   0  0  0  0  0  0  0  0  0  0  0  0
   -2.8970   -1.9870   -0.8740 C   0  0  0  0  0  0  0  0  0  0  0  0
   -1.6070   -1.4160   -0.8050 N   0  0  0  0  0  0  0  0  0  0  0  0
   -0.3780   -2.0320   -1.1170 C   0  0  0  0  0  0  0  0  0  0  0  0
   -0.3630   -3.2130   -1.5020 O   0  0  0  0  0  0  0  0  0  0  0  0
    0.9100   -1.3570   -1.0150 C   0  0  0  0  0  0  0  0  0  0  0  0
    1.1310   -0.0450   -1.3660 C   0  0  0  0  0  0  0  0  0  0  0  0
    2.3640    0.4510   -1.2240 N   0  0  0  0  0  0  0  0  0  0  0  0
    3.4240   -0.2510   -0.7530 C   0  0  0  0  0  0  0  0  0  0  0  0
    4.7100    0.3280   -0.6250 N   0  0  0  0  0  0  0  0  0  0  0  0
    5.7520    0.2940   -1.6200 C   0  0  0  0  0  0  0  0  0  0  0  0
    7.0380    0.5130   -0.8970 C   0  0  0  0  0  0  0  0  0  0  0  0
    6.6390    1.1860    0.3810 C   0  0  0  0  0  0  0  0  0  0  0  0
    7.1560    1.8430    1.3980 C   0  0  0  0  0  0  0  0  0  0  0  0
    6.0500    2.1990    2.3060 C   0  0  0  0  0  0  0  0  0  0  0  0
    4.8530    1.6440    1.6400 C   0  0  0  0  0  0  0  0  0  0  0  0
    5.2000    1.0490    0.5110 C   0  0  0  0  0  0  0  0  0  0  0  0
    3.1830   -1.5410   -0.4130 N   0  0  0  0  0  0  0  0  0  0  0  0
    1.9780   -2.0810   -0.5360 C   0  0  0  0  0  0  0  0  0  0  0  0
    1.8450   -3.3020   -0.1920 O   0  0  0  0  0  0  0  0  0  0  0  0
  1  2  1  0
  2  3  1  0
  3  4  1  0
  4  5  1  1
  4  6  1  0
  6  7  2  0
  6 11  1  0
  7  8  1  0
  8  9  2  0
  9 10  1  0
 10 11  2  0
 11 12  1  0
 12 13  1  0
 13 14  2  0
 13 15  1  0
 15 16  2  0
 15 28  1  0
 16 17  1  0
 17 18  2  0
 18 19  1  0
 18 27  1  0
 19 20  1  0
 19 26  1  0
 20 21  1  0
 21 22  1  0
 22 23  2  0
 22 26  1  0
 23 24  1  0
 24 25  1  0
 25 26  2  0
 27 28  1  0
 28 29  2  0
M  END
