
     RDKit          3D

 22 24  0  0  0  0  0  0  0  0999 V2000
    1.3620   -2.1140   -1.1520 O   0  0  0  0  0  0  0  0  0  0  0  0
    0.5420   -1.4760   -0.4550 C   0  0  0  0  0  0  0  0  0  0  0  0
    0.9110   -0.2500    0.1200 N   0  0  0  0  0  0  0  0  0  0  0  0
    2.1730    0.3920   -0.0190 C   0  0  0  0  0  0  0  0  0  0  0  0
    3.2070   -0.0220   -0.8040 C   0  0  0  0  0  0  0  0  0  0  0  0
    4.4190    0.6680   -0.8760 C   0  0  0  0  0  0  0  0  0  0  0  0
    5.4310    0.2370   -1.6630 F   0  0  0  0  0  0  0  0  0  0  0  0
    4.6220    1.8160   -0.1430 C   0  0  0  0  0  0  0  0  0  0  0  0
    3.5910    2.2590    0.6610 C   0  0  0  0  0  0  0  0  0  0  0  0
    3.8450    3.8490    1.6900 Br  0  0  0  0  0  0  0  0  0  0  0  0
    2.4050    1.5630    0.7160 C   0  0  0  0  0  0  0  0  0  0  0  0
   -0.7750   -2.1220   -0.3040 C   0  0  0  0  0  0  0  0  0  0  0  0
   -0.9280   -3.4560   -0.2710 O   0  0  0  0  0  0  0  0  0  0  0  0
   -2.1710   -3.7920   -0.1280 C   0  0  0  0  0  0  0  0  0  0  0  0
   -2.8900   -2.6280   -0.0650 C   0  0  0  0  0  0  0  0  0  0  0  0
   -1.9930   -1.5480   -0.1810 C   0  0  0  0  0  0  0  0  0  0  0  0
   -2.4960   -0.1810   -0.2650 C   0  0  0  0  0  0  0  0  0  0  0  0
   -3.7440    0.2430    0.2120 C   0  0  0  0  0  0  0  0  0  0  0  0
   -3.8720    1.5880    0.0050 C   0  0  0  0  0  0  0  0  0  0  0  0
   -4.8870    2.3050    0.3200 O   0  0  0  0  0  0  0  0  0  0  0  0
   -2.7480    1.9940   -0.5810 N   0  0  0  0  0  0  0  0  0  0  0  0
   -1.9370    0.9350   -0.7370 N   0  0  0  0  0  0  0  0  0  0  0  0
  1  2  2  0
  2  3  1  0
  2 12  1  0
  3  4  1  0
  4  5  2  0
  4 11  1  0
  5  6  1  0
  6  7  1  0
  6  8  2  0
  8  9  1  0
  9 10  1  0
  9 11  2  0
 12 13  1  0
 12 16  2  0
 13 14  1  0
 14 15  2  0
 15 16  1  0
 16 17  1  0
 17 18  2  0
 17 22  1  0
 18 19  1  0
 19 20  2  0
 19 21  1  0
 21 22  1  0
M  END
