
     RDKit          3D

 22 24  0  0  0  0  0  0  0  0999 V2000
   -5.0620    2.0740   -0.9450 N   0  0  0  0  0  0  0  0  0  0  0  0
   -4.1160    1.0610   -0.5500 C   0  0  0  0  0  0  0  0  0  0  0  0
   -4.5580    0.1170    0.3000 N   0  0  0  0  0  0  0  0  0  0  0  0
   -3.7350   -0.8830    0.7290 C   0  0  0  0  0  0  0  0  0  0  0  0
   -4.1220   -1.7770    1.5230 O   0  0  0  0  0  0  0  0  0  0  0  0
   -2.4400   -0.8870    0.2590 C   0  0  0  0  0  0  0  0  0  0  0  0
   -1.5360   -1.8550    0.6350 C   0  0  0  0  0  0  0  0  0  0  0  0
   -1.8840   -2.7810    1.4380 O   0  0  0  0  0  0  0  0  0  0  0  0
   -0.2760   -1.8310    0.1580 N   0  0  0  0  0  0  0  0  0  0  0  0
    0.1270   -0.8710   -0.6900 C   0  0  0  0  0  0  0  0  0  0  0  0
    1.5340   -0.9500   -1.1470 C   0  0  0  0  0  0  0  0  0  0  0  0
    2.4720   -0.2220   -0.2880 C   0  0  0  0  0  0  0  0  0  0  0  0
    2.7680    1.1050   -0.5270 C   0  0  0  0  0  0  0  0  0  0  0  0
    3.6480    1.8250    0.2620 C   0  0  0  0  0  0  0  0  0  0  0  0
    3.9420    3.1290    0.0320 F   0  0  0  0  0  0  0  0  0  0  0  0
    4.2740    1.2280    1.3380 C   0  0  0  0  0  0  0  0  0  0  0  0
    3.9870   -0.0970    1.5870 C   0  0  0  0  0  0  0  0  0  0  0  0
    4.8510   -0.9270    3.0750 Br  0  0  0  0  0  0  0  0  0  0  0  0
    3.1010   -0.8160    0.7900 C   0  0  0  0  0  0  0  0  0  0  0  0
   -0.7520    0.0890   -1.0700 C   0  0  0  0  0  0  0  0  0  0  0  0
   -2.0450    0.1050   -0.6090 C   0  0  0  0  0  0  0  0  0  0  0  0
   -2.8840    1.0620   -1.0010 O   0  0  0  0  0  0  0  0  0  0  0  0
  1  2  1  0
  2  3  2  0
  2 22  1  0
  3  4  1  0
  4  5  2  0
  4  6  1  0
  6  7  1  0
  6 21  2  0
  7  8  2  0
  7  9  1  0
  9 10  1  0
 10 11  1  0
 10 20  2  0
 11 12  1  0
 12 13  2  0
 12 19  1  0
 13 14  1  0
 14 15  1  0
 14 16  2  0
 16 17  1  0
 17 18  1  0
 17 19  2  0
 20 21  1  0
 21 22  1  0
M  END
