
     RDKit          3D

 21 23  0  0  0  0  0  0  0  0999 V2000
   -3.1780    1.2200    2.7010 N   0  0  0  0  0  0  0  0  0  0  0  0
   -3.4030    0.6310    1.4390 C   0  0  0  0  0  0  0  0  0  0  0  0
   -4.6460    0.3770    0.9500 N   0  0  0  0  0  0  0  0  0  0  0  0
   -4.8450   -0.1850   -0.2540 C   0  0  0  0  0  0  0  0  0  0  0  0
   -6.0100   -0.4020   -0.6660 O   0  0  0  0  0  0  0  0  0  0  0  0
   -3.7720   -0.5060   -0.9980 N   0  0  0  0  0  0  0  0  0  0  0  0
   -2.5190   -0.2790   -0.5680 C   0  0  0  0  0  0  0  0  0  0  0  0
   -1.4400   -0.6170   -1.3490 C   0  0  0  0  0  0  0  0  0  0  0  0
   -0.1390   -0.3770   -0.8930 C   0  0  0  0  0  0  0  0  0  0  0  0
    0.0890    0.1990    0.3390 C   0  0  0  0  0  0  0  0  0  0  0  0
    1.3500    0.4580    0.8380 O   0  0  0  0  0  0  0  0  0  0  0  0
    2.5250    0.1870    0.1990 C   0  0  0  0  0  0  0  0  0  0  0  0
    3.1230    1.0980   -0.6280 C   0  0  0  0  0  0  0  0  0  0  0  0
    4.3090    0.8100   -1.2650 C   0  0  0  0  0  0  0  0  0  0  0  0
    4.9020   -0.4220   -1.0630 C   0  0  0  0  0  0  0  0  0  0  0  0
    6.0850   -0.6810   -1.7130 F   0  0  0  0  0  0  0  0  0  0  0  0
    4.3240   -1.3540   -0.2400 C   0  0  0  0  0  0  0  0  0  0  0  0
    5.1910   -3.0320   -0.0040 Br  0  0  0  0  0  0  0  0  0  0  0  0
    3.1340   -1.0290    0.3830 C   0  0  0  0  0  0  0  0  0  0  0  0
   -1.0070    0.5310    1.1100 C   0  0  0  0  0  0  0  0  0  0  0  0
   -2.3040    0.3010    0.6740 C   0  0  0  0  0  0  0  0  0  0  0  0
  1  2  1  0
  2  3  2  0
  2 21  1  0
  3  4  1  0
  4  5  2  0
  4  6  1  0
  6  7  1  0
  7  8  2  0
  7 21  1  0
  8  9  1  0
  9 10  2  0
 10 11  1  0
 10 20  1  0
 11 12  1  0
 12 13  2  0
 12 19  1  0
 13 14  1  0
 14 15  2  0
 15 16  1  0
 15 17  1  0
 17 18  1  0
 17 19  2  0
 20 21  2  0
M  END
