
     RDKit          3D

 22 24  0  0  0  0  0  0  0  0999 V2000
    2.6820   -2.5020    1.5370 O   0  0  0  0  0  0  0  0  0  0  0  0
    1.4790   -2.2660    1.3840 C   0  0  0  0  0  0  0  0  0  0  0  0
    0.4740   -3.0010    1.8260 N   0  0  0  0  0  0  0  0  0  0  0  0
   -0.6190   -2.4020    1.4520 N   0  0  0  0  0  0  0  0  0  0  0  0
   -0.3100   -1.2550    0.7550 C   0  0  0  0  0  0  0  0  0  0  0  0
   -1.3170   -0.3710    0.2080 C   0  0  0  0  0  0  0  0  0  0  0  0
   -1.0450    0.7700   -0.4870 C   0  0  0  0  0  0  0  0  0  0  0  0
   -2.0710    1.5890   -0.9940 C   0  0  0  0  0  0  0  0  0  0  0  0
   -1.5600    3.1390   -1.9370 Br  0  0  0  0  0  0  0  0  0  0  0  0
   -3.3690    1.2470   -0.7930 C   0  0  0  0  0  0  0  0  0  0  0  0
   -4.3990    2.0680   -1.3020 O   0  0  0  0  0  0  0  0  0  0  0  0
   -3.6730    0.1100   -0.1010 C   0  0  0  0  0  0  0  0  0  0  0  0
   -2.6730   -0.6870    0.3920 C   0  0  0  0  0  0  0  0  0  0  0  0
   -3.0070   -1.8340    1.0900 O   0  0  0  0  0  0  0  0  0  0  0  0
    1.0150   -1.1640    0.7090 N   0  0  0  0  0  0  0  0  0  0  0  0
    1.8790   -0.1970    0.1240 C   0  0  0  0  0  0  0  0  0  0  0  0
    2.3380   -0.3330   -1.1870 C   0  0  0  0  0  0  0  0  0  0  0  0
    3.1980    0.5760   -1.7640 C   0  0  0  0  0  0  0  0  0  0  0  0
    3.6500    1.6750   -1.0630 C   0  0  0  0  0  0  0  0  0  0  0  0
    3.2010    1.8170    0.2330 C   0  0  0  0  0  0  0  0  0  0  0  0
    2.3400    0.9130    0.8180 C   0  0  0  0  0  0  0  0  0  0  0  0
    1.9130    1.0820    2.1060 F   0  0  0  0  0  0  0  0  0  0  0  0
  1  2  2  0
  2  3  1  0
  2 15  1  0
  3  4  1  0
  4  5  2  0
  5  6  1  0
  5 15  1  0
  6  7  2  0
  6 13  1  0
  7  8  1  0
  8  9  1  0
  8 10  2  0
 10 11  1  0
 10 12  1  0
 12 13  2  0
 13 14  1  0
 15 16  1  0
 16 17  2  0
 16 21  1  0
 17 18  1  0
 18 19  2  0
 19 20  1  0
 20 21  2  0
 21 22  1  0
M  END
