
     RDKit          3D

 22 24  0  0  0  0  0  0  0  0999 V2000
    3.9630   -2.1890   -0.8050 O   0  0  0  0  0  0  0  0  0  0  0  0
    3.6270   -0.9870   -0.5200 C   0  0  0  0  0  0  0  0  0  0  0  0
    2.2630   -0.6460   -0.3770 N   0  0  0  0  0  0  0  0  0  0  0  0
    1.2640   -1.6490   -0.5530 C   0  0  0  0  0  0  0  0  0  0  0  0
   -0.1250   -1.0960   -0.3620 C   0  0  0  0  0  0  0  0  0  0  0  0
   -0.8520   -1.6340    0.6020 C   0  0  0  0  0  0  0  0  0  0  0  0
    0.0550   -3.0240    1.5520 Br  0  0  0  0  0  0  0  0  0  0  0  0
   -2.1930   -1.3560    1.0530 N   0  0  0  0  0  0  0  0  0  0  0  0
   -3.1120   -0.3960    0.5480 C   0  0  0  0  0  0  0  0  0  0  0  0
   -4.2890   -0.3600    1.1520 C   0  0  0  0  0  0  0  0  0  0  0  0
   -5.3040    0.5090    0.7950 O   0  0  0  0  0  0  0  0  0  0  0  0
   -5.1280    1.4190   -0.2560 C   0  0  0  0  0  0  0  0  0  0  0  0
   -3.8070    1.3540   -0.9090 C   0  0  0  0  0  0  0  0  0  0  0  0
   -2.8440    0.5210   -0.5600 C   0  0  0  0  0  0  0  0  0  0  0  0
   -1.6490    0.6810   -1.3800 C   0  0  0  0  0  0  0  0  0  0  0  0
   -0.5060   -0.0230   -1.2710 C   0  0  0  0  0  0  0  0  0  0  0  0
    0.4740    0.3180   -2.1630 F   0  0  0  0  0  0  0  0  0  0  0  0
    4.6680   -0.0030   -0.3500 C   0  0  0  0  0  0  0  0  0  0  0  0
    4.4800    1.3160   -0.0460 C   0  0  0  0  0  0  0  0  0  0  0  0
    5.7310    1.8830    0.0200 C   0  0  0  0  0  0  0  0  0  0  0  0
    6.6070    0.9470   -0.2320 O   0  0  0  0  0  0  0  0  0  0  0  0
    5.9860   -0.1840   -0.4550 N   0  0  0  0  0  0  0  0  0  0  0  0
  1  2  2  0
  2  3  1  0
  2 18  1  0
  3  4  1  0
  4  5  1  0
  5  6  2  0
  5 16  1  0
  6  7  1  0
  6  8  1  0
  8  9  1  0
  9 10  2  0
  9 14  1  0
 10 11  1  0
 11 12  1  0
 12 13  1  0
 13 14  2  0
 14 15  1  0
 15 16  2  0
 16 17  1  0
 18 19  1  0
 18 22  2  0
 19 20  2  0
 20 21  1  0
 21 22  1  0
M  END
