
     RDKit          3D

 22 24  0  0  0  0  0  0  0  0999 V2000
   -4.7380   -0.9200   -0.8970 C   0  0  0  0  0  0  0  0  0  0  0  0
   -3.3330   -0.5610   -0.5240 C   0  0  0  0  0  0  0  0  0  0  0  0
   -2.3170   -1.2680   -1.1260 C   0  0  0  0  0  0  0  0  0  0  0  0
   -1.0060   -0.9880   -0.8280 C   0  0  0  0  0  0  0  0  0  0  0  0
    0.1710   -1.4980   -1.2470 N   0  0  0  0  0  0  0  0  0  0  0  0
    1.1560   -0.8500   -0.6280 C   0  0  0  0  0  0  0  0  0  0  0  0
    2.5210   -0.9540   -0.6750 C   0  0  0  0  0  0  0  0  0  0  0  0
    3.0450   -1.8100   -1.4280 O   0  0  0  0  0  0  0  0  0  0  0  0
    3.2820   -0.1310    0.0940 N   0  0  0  0  0  0  0  0  0  0  0  0
    4.7030   -0.2710    0.0170 C   0  0  0  0  0  0  0  0  0  0  0  0
    5.3200    0.6070   -1.0520 C   0  0  1  0  0  0  0  0  0  0  0  0
    5.0260    1.9250   -0.7560 F   0  0  0  0  0  0  0  0  0  0  0  0
    7.2260    0.3760   -1.0990 Br  0  0  0  0  0  0  0  0  0  0  0  0
    2.7470    0.7920    0.9080 C   0  0  0  0  0  0  0  0  0  0  0  0
    3.5260    1.5170    1.5890 O   0  0  0  0  0  0  0  0  0  0  0  0
    1.4140    0.9000    0.9580 N   0  0  0  0  0  0  0  0  0  0  0  0
    0.6270    0.1090    0.2180 C   0  0  0  0  0  0  0  0  0  0  0  0
   -0.7490    0.0140    0.0840 C   0  0  0  0  0  0  0  0  0  0  0  0
   -1.7550    0.7210    0.6870 C   0  0  0  0  0  0  0  0  0  0  0  0
   -3.0660    0.4310    0.3800 C   0  0  0  0  0  0  0  0  0  0  0  0
   -4.2020    1.1760    1.0120 C   0  0  0  0  0  0  0  0  0  0  0  0
   -3.7060    2.1360    1.8940 O   0  0  0  0  0  0  0  0  0  0  0  0
  1  2  1  0
  2  3  2  0
  2 20  1  0
  3  4  1  0
  4  5  1  0
  4 18  2  0
  5  6  1  0
  6  7  1  0
  6 17  2  0
  7  8  2  0
  7  9  1  0
  9 10  1  0
  9 14  1  0
 10 11  1  0
 11 12  1  1
 11 13  1  0
 14 15  2  0
 14 16  1  0
 16 17  1  0
 17 18  1  0
 18 19  1  0
 19 20  2  0
 20 21  1  0
 21 22  1  0
M  END
