
     RDKit          3D

 21 23  0  0  0  0  0  0  0  0999 V2000
    1.8410    0.6490    0.3420 O   0  0  0  0  0  0  0  0  0  0  0  0
    1.4260   -0.3950   -0.1850 C   0  0  0  0  0  0  0  0  0  0  0  0
    2.3150   -1.4400   -0.6170 C   0  0  0  0  0  0  0  0  0  0  0  0
    3.5770   -1.5650   -0.5850 C   0  0  0  0  0  0  0  0  0  0  0  0
    4.7130   -0.8000   -0.1390 C   0  0  0  0  0  0  0  0  0  0  0  0
    4.8590    0.4160    0.4500 C   0  0  0  0  0  0  0  0  0  0  0  0
    6.2260    0.6740    0.6720 C   0  0  0  0  0  0  0  0  0  0  0  0
    6.8430   -0.4470    0.1840 C   0  0  0  0  0  0  0  0  0  0  0  0
    5.9760   -1.2800   -0.2750 O   0  0  0  0  0  0  0  0  0  0  0  0
   -0.0150   -0.5600   -0.3680 N   0  0  0  0  0  0  0  0  0  0  0  0
   -0.8850    0.4630    0.0550 C   0  0  0  0  0  0  0  0  0  0  0  0
   -0.3350    1.4870    0.5820 O   0  0  0  0  0  0  0  0  0  0  0  0
   -2.3410    0.4330   -0.0650 C   0  0  0  0  0  0  0  0  0  0  0  0
   -3.0980    1.4830    0.3800 N   0  0  0  0  0  0  0  0  0  0  0  0
   -4.3790    1.1690    0.1370 C   0  0  0  0  0  0  0  0  0  0  0  0
   -5.6600    1.6720    0.2830 C   0  0  0  0  0  0  0  0  0  0  0  0
   -6.4860    0.7330   -0.2230 N   0  0  0  0  0  0  0  0  0  0  0  0
   -5.7920   -0.3180   -0.6720 C   0  0  0  0  0  0  0  0  0  0  0  0
   -4.4660   -0.0630   -0.4550 C   0  0  0  0  0  0  0  0  0  0  0  0
   -3.1720   -0.5160   -0.5760 C   0  0  0  0  0  0  0  0  0  0  0  0
   -2.7020   -2.1680   -1.3280 Br  0  0  0  0  0  0  0  0  0  0  0  0
  1  2  2  0
  2  3  1  0
  2 10  1  0
  3  4  2  3
  4  5  1  0
  5  6  2  0
  5  9  1  0
  6  7  1  0
  7  8  2  0
  8  9  1  0
 10 11  1  0
 11 12  2  0
 11 13  1  0
 13 14  1  0
 13 20  2  0
 14 15  1  0
 15 16  2  0
 15 19  1  0
 16 17  1  0
 17 18  1  0
 18 19  2  0
 19 20  1  0
 20 21  1  0
M  END
