
     RDKit          3D

 22 24  0  0  0  0  0  0  0  0999 V2000
    0.7540   -3.4330    0.6440 O   0  0  0  0  0  0  0  0  0  0  0  0
    0.0990   -2.3660    0.4650 C   0  0  0  0  0  0  0  0  0  0  0  0
   -1.2320   -2.1870    0.3830 N   0  0  0  0  0  0  0  0  0  0  0  0
   -1.5080   -0.9050    0.1890 N   0  0  0  0  0  0  0  0  0  0  0  0
   -2.7760   -0.2700    0.0450 C   0  0  0  0  0  0  0  0  0  0  0  0
   -3.3970   -0.1310   -1.1780 C   0  0  0  0  0  0  0  0  0  0  0  0
   -4.6250    0.4820   -1.3330 C   0  0  0  0  0  0  0  0  0  0  0  0
   -5.4310    0.6430   -3.0470 Br  0  0  0  0  0  0  0  0  0  0  0  0
   -5.2280    0.9650   -0.1820 C   0  0  0  0  0  0  0  0  0  0  0  0
   -4.6220    0.8350    1.0540 C   0  0  0  0  0  0  0  0  0  0  0  0
   -3.3970    0.2200    1.1800 C   0  0  0  0  0  0  0  0  0  0  0  0
   -2.8270    0.1140    2.4510 O   0  0  0  0  0  0  0  0  0  0  0  0
   -0.3630   -0.2790    0.1490 N   0  0  0  0  0  0  0  0  0  0  0  0
    0.6710   -1.1360    0.3140 C   0  0  0  0  0  0  0  0  0  0  0  0
    2.0670   -0.7430    0.3170 C   0  0  0  0  0  0  0  0  0  0  0  0
    2.4310    0.5100    0.1550 C   0  0  0  0  0  0  0  0  0  0  0  0
    3.8290    0.9310    0.1540 C   0  0  0  0  0  0  0  0  0  0  0  0
    4.9150    0.0970    0.3190 C   0  0  0  0  0  0  0  0  0  0  0  0
    6.0650    0.8790    0.2560 C   0  0  0  0  0  0  0  0  0  0  0  0
    5.5950    2.1570    0.0550 C   0  0  0  0  0  0  0  0  0  0  0  0
    6.4400    3.2240   -0.0610 F   0  0  0  0  0  0  0  0  0  0  0  0
    4.2970    2.1400    0.0020 O   0  0  0  0  0  0  0  0  0  0  0  0
  1  2  2  0
  2  3  1  0
  2 14  1  0
  3  4  1  0
  4  5  1  0
  4 13  1  0
  5  6  2  0
  5 11  1  0
  6  7  1  0
  7  8  1  0
  7  9  2  0
  9 10  1  0
 10 11  2  0
 11 12  1  0
 13 14  2  0
 14 15  1  0
 15 16  2  3
 16 17  1  0
 17 18  2  0
 17 22  1  0
 18 19  1  0
 19 20  2  0
 20 21  1  0
 20 22  1  0
M  END
