
     RDKit          3D

 21 23  0  0  0  0  0  0  0  0999 V2000
   -2.2860    1.5570   -1.9870 C   0  0  0  0  0  0  0  0  0  0  0  0
   -2.7460    1.0940   -0.6020 C   0  0  2  0  0  0  0  0  0  0  0  0
   -4.2330    0.9990   -0.5210 C   0  0  0  0  0  0  0  0  0  0  0  0
   -2.2540    2.0880    0.2850 O   0  0  0  0  0  0  0  0  0  0  0  0
   -2.0700   -0.1840   -0.2770 C   0  0  0  0  0  0  0  0  0  0  0  0
   -2.7220   -1.3530   -0.1570 N   0  0  0  0  0  0  0  0  0  0  0  0
   -2.0630   -2.4980    0.1600 C   0  0  0  0  0  0  0  0  0  0  0  0
   -0.6960   -2.4150    0.3530 C   0  0  0  0  0  0  0  0  0  0  0  0
   -0.0170   -3.5880    0.7120 C   0  0  0  0  0  0  0  0  0  0  0  0
    1.3230   -3.5070    0.9360 C   0  0  0  0  0  0  0  0  0  0  0  0
    1.9750   -2.3130    0.8100 C   0  0  0  0  0  0  0  0  0  0  0  0
    1.3260   -1.1380    0.4540 C   0  0  0  0  0  0  0  0  0  0  0  0
    2.0860    0.1030    0.3480 C   0  0  0  0  0  0  0  0  0  0  0  0
    3.3410    0.3730    0.7750 N   0  0  0  0  0  0  0  0  0  0  0  0
    3.6910    1.6430    0.5350 C   0  0  0  0  0  0  0  0  0  0  0  0
    4.9540    2.3910    0.8490 C   0  0  0  0  0  0  0  0  0  0  0  0
    5.9240    2.1860   -0.1430 F   0  0  0  0  0  0  0  0  0  0  0  0
    2.6030    2.1840   -0.0670 N   0  0  0  0  0  0  0  0  0  0  0  0
    1.6440    1.2730   -0.1810 N   0  0  0  0  0  0  0  0  0  0  0  0
   -0.0280   -1.2020    0.2250 C   0  0  0  0  0  0  0  0  0  0  0  0
   -0.7270   -0.1050   -0.0880 N   0  0  0  0  0  0  0  0  0  0  0  0
  2  1  1  6
  2  3  1  0
  2  4  1  0
  2  5  1  0
  5  6  2  0
  5 21  1  0
  6  7  1  0
  7  8  2  0
  8  9  1  0
  8 20  1  0
  9 10  2  0
 10 11  1  0
 11 12  2  0
 12 13  1  0
 12 20  1  0
 13 14  2  0
 13 19  1  0
 14 15  1  0
 15 16  1  0
 15 18  2  0
 16 17  1  0
 18 19  1  0
 20 21  2  0
M  END
