
     RDKit          3D

 21 23  0  0  0  0  0  0  0  0999 V2000
    0.5660    3.1610    1.3460 C   0  0  0  0  0  0  0  0  0  0  0  0
   -0.0020    3.0120   -0.0340 C   0  0  0  0  0  0  0  0  0  0  0  0
   -1.0060    1.9830   -0.0570 N   0  0  0  0  0  0  0  0  0  0  0  0
   -2.2850    2.1220    0.1600 N   0  0  0  0  0  0  0  0  0  0  0  0
   -2.9340    0.9540    0.0610 C   0  0  0  0  0  0  0  0  0  0  0  0
   -1.9690   -0.0140   -0.2500 C   0  0  0  0  0  0  0  0  0  0  0  0
   -2.1910   -1.4270   -0.4550 C   0  0  0  0  0  0  0  0  0  0  0  0
   -2.0480   -2.1760   -1.6020 C   0  0  0  0  0  0  0  0  0  0  0  0
   -2.3550   -3.4260   -1.3260 O   0  0  0  0  0  0  0  0  0  0  0  0
   -2.6820   -3.5480   -0.1010 N   0  0  0  0  0  0  0  0  0  0  0  0
   -2.6000   -2.3330    0.5010 C   0  0  0  0  0  0  0  0  0  0  0  0
   -2.9030   -2.1590    1.8560 N   0  0  0  0  0  0  0  0  0  0  0  0
   -0.7830    0.6860   -0.3110 C   0  0  0  0  0  0  0  0  0  0  0  0
    0.5230    0.1010   -0.6110 C   0  0  0  0  0  0  0  0  0  0  0  0
    0.8530   -0.4240   -1.8310 C   0  0  0  0  0  0  0  0  0  0  0  0
    2.0950   -0.9750   -2.0860 C   0  0  0  0  0  0  0  0  0  0  0  0
    2.4170   -1.4970   -3.2990 F   0  0  0  0  0  0  0  0  0  0  0  0
    2.9940   -0.9690   -1.0410 C   0  0  0  0  0  0  0  0  0  0  0  0
    2.6750   -0.4430    0.1910 C   0  0  0  0  0  0  0  0  0  0  0  0
    3.6870   -0.4610    1.2910 C   0  0  0  0  0  0  0  0  0  0  0  0
    1.4560    0.0720    0.3650 N   0  0  0  0  0  0  0  0  0  0  0  0
  1  2  1  0
  2  3  1  0
  3  4  1  0
  3 13  1  0
  4  5  2  0
  5  6  1  0
  6  7  1  0
  6 13  2  0
  7  8  2  0
  7 11  1  0
  8  9  1  0
  9 10  1  0
 10 11  2  0
 11 12  1  0
 13 14  1  0
 14 15  2  0
 14 21  1  0
 15 16  1  0
 16 17  1  0
 16 18  2  0
 18 19  1  0
 19 20  1  0
 19 21  2  0
M  END
