
     RDKit          3D

 21 23  0  0  0  0  0  0  0  0999 V2000
   -3.8070    0.6960    1.4620 C   0  0  0  0  0  0  0  0  0  0  0  0
   -4.0220   -0.1070    0.1740 C   0  0  2  0  0  0  0  0  0  0  0  0
   -5.4530    0.1540   -0.2430 C   0  0  0  0  0  0  0  0  0  0  0  0
   -3.8680   -1.5620    0.4660 C   0  0  0  0  0  0  0  0  0  0  0  0
   -3.0610    0.3990   -0.8740 C   0  0  0  0  0  0  0  0  0  0  0  0
   -1.6470    0.2420   -0.4380 C   0  0  0  0  0  0  0  0  0  0  0  0
   -1.1910   -0.2700    0.7150 N   0  0  0  0  0  0  0  0  0  0  0  0
    0.1580   -0.2010    0.6500 C   0  0  0  0  0  0  0  0  0  0  0  0
    1.1090   -0.6050    1.5990 C   0  0  0  0  0  0  0  0  0  0  0  0
    2.4210   -0.4180    1.2760 C   0  0  0  0  0  0  0  0  0  0  0  0
    2.7590    0.1360    0.0810 C   0  0  0  0  0  0  0  0  0  0  0  0
    4.2010    0.3150   -0.2170 C   0  0  0  0  0  0  0  0  0  0  0  0
    5.2030   -0.0280    0.6010 N   0  0  0  0  0  0  0  0  0  0  0  0
    6.3350    0.2930   -0.0300 C   0  0  0  0  0  0  0  0  0  0  0  0
    7.7010    0.0740    0.5390 C   0  0  0  0  0  0  0  0  0  0  0  0
    8.0880   -1.2040    0.1270 F   0  0  0  0  0  0  0  0  0  0  0  0
    5.9930    0.8190   -1.2070 N   0  0  0  0  0  0  0  0  0  0  0  0
    4.7180    0.8210   -1.2940 O   0  0  0  0  0  0  0  0  0  0  0  0
    1.8310    0.5190   -0.8190 N   0  0  0  0  0  0  0  0  0  0  0  0
    0.5330    0.3560   -0.5460 C   0  0  0  0  0  0  0  0  0  0  0  0
   -0.6160    0.6180   -1.1960 N   0  0  0  0  0  0  0  0  0  0  0  0
  2  1  1  1
  2  3  1  0
  2  4  1  0
  2  5  1  0
  5  6  1  0
  6  7  2  0
  6 21  1  0
  7  8  1  0
  8  9  2  0
  8 20  1  0
  9 10  1  0
 10 11  2  0
 11 12  1  0
 11 19  1  0
 12 13  2  0
 12 18  1  0
 13 14  1  0
 14 15  1  0
 14 17  2  0
 15 16  1  0
 17 18  1  0
 19 20  2  0
 20 21  1  0
M  END
