
     RDKit          3D

 20 22  0  0  0  0  0  0  0  0999 V2000
    6.2370    0.1450    1.0360 C   0  0  0  0  0  0  0  0  0  0  0  0
    4.9200   -0.2460    0.4500 C   0  0  0  0  0  0  0  0  0  0  0  0
    4.9070   -1.3530   -0.3720 C   0  0  0  0  0  0  0  0  0  0  0  0
    3.7100   -1.7360   -0.9250 C   0  0  0  0  0  0  0  0  0  0  0  0
    2.5780   -1.0120   -0.6430 C   0  0  0  0  0  0  0  0  0  0  0  0
    1.2800   -1.1670   -1.0500 N   0  0  0  0  0  0  0  0  0  0  0  0
    0.5410   -0.1950   -0.4960 C   0  0  0  0  0  0  0  0  0  0  0  0
   -0.8820   -0.0300   -0.6940 C   0  0  0  0  0  0  0  0  0  0  0  0
   -1.4790    0.9460   -0.1060 N   0  0  0  0  0  0  0  0  0  0  0  0
   -2.8760    1.1400   -0.2760 C   0  0  0  0  0  0  0  0  0  0  0  0
   -3.3580    2.1440   -1.1230 C   0  0  0  0  0  0  0  0  0  0  0  0
   -4.6850    2.3120   -1.2710 N   0  0  0  0  0  0  0  0  0  0  0  0
   -5.5860    1.5440   -0.6280 C   0  0  0  0  0  0  0  0  0  0  0  0
   -5.1640    0.5400    0.2210 C   0  0  0  0  0  0  0  0  0  0  0  0
   -3.8130    0.3610    0.3770 C   0  0  0  0  0  0  0  0  0  0  0  0
   -3.2900   -0.7010    1.2750 C   0  0  0  0  0  0  0  0  0  0  0  0
   -4.3150   -1.4220    1.8770 O   0  0  0  0  0  0  0  0  0  0  0  0
    1.3590    0.5610    0.2470 N   0  0  0  0  0  0  0  0  0  0  0  0
    2.6180    0.0840    0.1770 C   0  0  0  0  0  0  0  0  0  0  0  0
    3.7920    0.4440    0.7080 N   0  0  0  0  0  0  0  0  0  0  0  0
  1  2  1  0
  2  3  2  0
  2 20  1  0
  3  4  1  0
  4  5  2  0
  5  6  1  0
  5 19  1  0
  6  7  2  0
  7  8  1  0
  7 18  1  0
  8  9  2  3
  9 10  1  0
 10 11  2  0
 10 15  1  0
 11 12  1  0
 12 13  2  0
 13 14  1  0
 14 15  2  0
 15 16  1  0
 16 17  1  0
 18 19  1  0
 19 20  2  0
M  END
