
     RDKit          3D

 21 23  0  0  0  0  0  0  0  0999 V2000
   -2.6260   -2.8660    0.6970 O   0  0  0  0  0  0  0  0  0  0  0  0
   -1.3920   -2.6180    0.5050 C   0  0  0  0  0  0  0  0  0  0  0  0
   -0.3810   -3.4710    0.5430 N   0  0  0  0  0  0  0  0  0  0  0  0
    0.6730   -2.7490    0.2840 N   0  0  0  0  0  0  0  0  0  0  0  0
    0.3810   -1.4580    0.0780 C   0  0  0  0  0  0  0  0  0  0  0  0
    1.3740   -0.4370   -0.2210 C   0  0  0  0  0  0  0  0  0  0  0  0
    1.0790    0.8680   -0.5090 C   0  0  0  0  0  0  0  0  0  0  0  0
    2.0870    1.7910   -0.7730 C   0  0  0  0  0  0  0  0  0  0  0  0
    3.3980    1.4480   -0.7570 C   0  0  0  0  0  0  0  0  0  0  0  0
    4.3370    2.4370   -1.0330 O   0  0  0  0  0  0  0  0  0  0  0  0
    3.7300    0.1610   -0.4750 C   0  0  0  0  0  0  0  0  0  0  0  0
    2.7280   -0.7820   -0.2070 C   0  0  0  0  0  0  0  0  0  0  0  0
    3.2180   -2.0400    0.0610 O   0  0  0  0  0  0  0  0  0  0  0  0
   -0.9430   -1.3540    0.2160 N   0  0  0  0  0  0  0  0  0  0  0  0
   -1.7870   -0.2500    0.1180 C   0  0  0  0  0  0  0  0  0  0  0  0
   -2.4350    0.0520   -1.0550 C   0  0  0  0  0  0  0  0  0  0  0  0
   -3.3080    1.1420   -1.1520 C   0  0  0  0  0  0  0  0  0  0  0  0
   -3.5280    1.9290   -0.0590 C   0  0  0  0  0  0  0  0  0  0  0  0
   -2.8740    1.6230    1.1260 C   0  0  0  0  0  0  0  0  0  0  0  0
   -2.0150    0.5480    1.2130 C   0  0  0  0  0  0  0  0  0  0  0  0
   -1.3980    0.2910    2.3990 F   0  0  0  0  0  0  0  0  0  0  0  0
  1  2  2  0
  2  3  1  0
  2 14  1  0
  3  4  1  0
  4  5  2  0
  5  6  1  0
  5 14  1  0
  6  7  2  0
  6 12  1  0
  7  8  1  0
  8  9  2  0
  9 10  1  0
  9 11  1  0
 11 12  2  0
 12 13  1  0
 14 15  1  0
 15 16  2  0
 15 20  1  0
 16 17  1  0
 17 18  2  0
 18 19  1  0
 19 20  2  0
 20 21  1  0
M  END
