
     RDKit          3D

 21 23  0  0  0  0  0  0  0  0999 V2000
   -2.7300   -2.2730   -0.3540 C   0  0  0  0  0  0  0  0  0  0  0  0
   -1.4960   -1.4860   -0.2930 C   0  0  0  0  0  0  0  0  0  0  0  0
   -0.3390   -2.1540   -0.6010 N   0  0  0  0  0  0  0  0  0  0  0  0
    0.8290   -1.5500   -0.5310 C   0  0  0  0  0  0  0  0  0  0  0  0
    2.1330   -2.1930   -0.8440 C   0  0  0  0  0  0  0  0  0  0  0  0
    0.8630   -0.2560   -0.1490 N   0  0  0  0  0  0  0  0  0  0  0  0
    2.0920    0.4440   -0.0550 C   0  0  0  0  0  0  0  0  0  0  0  0
    2.5030    1.2240   -1.0960 C   0  0  0  0  0  0  0  0  0  0  0  0
    3.7120    1.9100   -0.9960 C   0  0  0  0  0  0  0  0  0  0  0  0
    4.4270    1.7710    0.1310 N   0  0  0  0  0  0  0  0  0  0  0  0
    4.0230    0.9970    1.1690 C   0  0  0  0  0  0  0  0  0  0  0  0
    4.7710    0.8810    2.2920 F   0  0  0  0  0  0  0  0  0  0  0  0
    2.8310    0.3150    1.0840 C   0  0  0  0  0  0  0  0  0  0  0  0
   -0.2480    0.4320    0.1590 C   0  0  0  0  0  0  0  0  0  0  0  0
   -0.1380    1.6300    0.5030 O   0  0  0  0  0  0  0  0  0  0  0  0
   -1.5020   -0.1740    0.0960 C   0  0  0  0  0  0  0  0  0  0  0  0
   -2.6940    0.6140    0.3570 C   0  0  0  0  0  0  0  0  0  0  0  0
   -3.9780    0.4150   -0.0740 C   0  0  0  0  0  0  0  0  0  0  0  0
   -4.7260    1.4680    0.3770 N   0  0  0  0  0  0  0  0  0  0  0  0
   -3.9700    2.3070    1.0630 C   0  0  0  0  0  0  0  0  0  0  0  0
   -2.7310    1.7890    1.0520 N   0  0  0  0  0  0  0  0  0  0  0  0
  1  2  1  0
  2  3  1  0
  2 16  2  0
  3  4  2  0
  4  5  1  0
  4  6  1  0
  6  7  1  0
  6 14  1  0
  7  8  2  0
  7 13  1  0
  8  9  1  0
  9 10  2  0
 10 11  1  0
 11 12  1  0
 11 13  2  0
 14 15  2  0
 14 16  1  0
 16 17  1  0
 17 18  2  0
 17 21  1  0
 18 19  1  0
 19 20  2  0
 20 21  1  0
M  END
