
     RDKit          3D

 21 23  0  0  0  0  0  0  0  0999 V2000
   -6.0920    1.4710   -0.0830 C   0  0  0  0  0  0  0  0  0  0  0  0
   -4.8940    0.6130   -0.2750 C   0  0  0  0  0  0  0  0  0  0  0  0
   -3.6630    1.0080    0.0390 N   0  0  0  0  0  0  0  0  0  0  0  0
   -2.5480    0.2220   -0.1350 C   0  0  0  0  0  0  0  0  0  0  0  0
   -1.2810    0.7530    0.2270 N   0  0  0  0  0  0  0  0  0  0  0  0
   -0.0280    0.1160    0.1360 C   0  0  0  0  0  0  0  0  0  0  0  0
    0.0800   -1.2160   -0.1460 C   0  0  0  0  0  0  0  0  0  0  0  0
    1.3640   -1.7730   -0.2340 C   0  0  0  0  0  0  0  0  0  0  0  0
    2.5110   -1.0330   -0.0460 C   0  0  0  0  0  0  0  0  0  0  0  0
    3.7750   -1.5850   -0.1320 C   0  0  0  0  0  0  0  0  0  0  0  0
    4.8920   -0.7990    0.0640 C   0  0  0  0  0  0  0  0  0  0  0  0
    6.1200   -1.3780   -0.0290 F   0  0  0  0  0  0  0  0  0  0  0  0
    4.7310    0.5400    0.3470 C   0  0  0  0  0  0  0  0  0  0  0  0
    5.9530    1.3530    0.5520 C   0  0  0  0  0  0  0  0  0  0  0  0
    3.4770    1.0650    0.4280 N   0  0  0  0  0  0  0  0  0  0  0  0
    2.3870    0.3180    0.2400 C   0  0  0  0  0  0  0  0  0  0  0  0
    1.1470    0.8840    0.3300 C   0  0  0  0  0  0  0  0  0  0  0  0
   -2.7520   -0.9880   -0.6450 N   0  0  0  0  0  0  0  0  0  0  0  0
   -3.9630   -1.4300   -0.9750 C   0  0  0  0  0  0  0  0  0  0  0  0
   -4.1200   -2.6000   -1.4630 O   0  0  0  0  0  0  0  0  0  0  0  0
   -5.0360   -0.6290   -0.7900 N   0  0  0  0  0  0  0  0  0  0  0  0
  1  2  1  0
  2  3  2  0
  2 21  1  0
  3  4  1  0
  4  5  1  0
  4 18  2  0
  5  6  1  0
  6  7  2  0
  6 17  1  0
  7  8  1  0
  8  9  2  0
  9 10  1  0
  9 16  1  0
 10 11  2  0
 11 12  1  0
 11 13  1  0
 13 14  1  0
 13 15  2  0
 15 16  1  0
 16 17  2  0
 18 19  1  0
 19 20  2  0
 19 21  1  0
M  END
