
     RDKit          3D

 32 34  0  0  0  0  0  0  0  0999 V2000
   -6.5180   -3.3860    0.0670 C   0  0  0  0  0  0  0  0  0  0  0  0
   -5.1520   -3.2200    0.6600 C   0  0  0  0  0  0  0  0  0  0  0  0
   -4.1250   -3.3760   -0.2620 O   0  0  0  0  0  0  0  0  0  0  0  0
   -4.1990   -2.4550   -1.3040 C   0  0  0  0  0  0  0  0  0  0  0  0
   -3.0330   -2.7370   -2.2230 C   0  0  0  0  0  0  0  0  0  0  0  0
   -1.7390   -2.6030   -1.5430 N   0  0  0  0  0  0  0  0  0  0  0  0
   -1.3420   -1.3590   -0.9670 C   0  0  0  0  0  0  0  0  0  0  0  0
   -2.2020   -0.4280   -1.1110 O   0  0  0  0  0  0  0  0  0  0  0  0
   -0.0890   -1.1270   -0.2740 C   0  0  0  0  0  0  0  0  0  0  0  0
    0.7410   -2.2070   -0.0630 C   0  0  0  0  0  0  0  0  0  0  0  0
    1.9450   -2.1190    0.6420 C   0  0  0  0  0  0  0  0  0  0  0  0
    2.3450   -0.9210    1.1550 C   0  0  0  0  0  0  0  0  0  0  0  0
    3.5360   -0.7170    1.8800 N   0  0  0  0  0  0  0  0  0  0  0  0
    4.5990   -1.6170    1.4780 C   0  0  1  0  0  0  0  0  0  0  0  0
    4.7690   -1.6940   -0.0030 C   0  0  0  0  0  0  0  0  0  0  0  0
    6.0490   -0.9520   -0.3350 C   0  0  2  0  0  0  0  0  0  0  0  0
    7.1620   -1.9150   -0.7020 C   0  0  0  0  0  0  0  0  0  0  0  0
    6.4330   -0.2970    0.8990 N   0  0  0  0  0  0  0  0  0  0  0  0
    5.8710   -1.0440    1.9530 C   0  0  0  0  0  0  0  0  0  0  0  0
    6.3630   -1.1930    3.0880 O   0  0  0  0  0  0  0  0  0  0  0  0
    1.5160    0.1700    0.9450 C   0  0  0  0  0  0  0  0  0  0  0  0
    0.3140    0.1010    0.2460 C   0  0  0  0  0  0  0  0  0  0  0  0
   -0.4490    1.2480   -0.0110 N   0  0  0  0  0  0  0  0  0  0  0  0
   -0.3310    2.4620    0.6770 C   0  0  0  0  0  0  0  0  0  0  0  0
    0.4850    2.6240    1.6110 O   0  0  0  0  0  0  0  0  0  0  0  0
   -1.1720    3.6340    0.3370 C   0  0  0  0  0  0  0  0  0  0  0  0
   -0.8120    4.8980    0.7260 C   0  0  0  0  0  0  0  0  0  0  0  0
   -1.6310    5.9820    0.3970 C   0  0  0  0  0  0  0  0  0  0  0  0
   -2.7860    5.7830   -0.3110 C   0  0  0  0  0  0  0  0  0  0  0  0
   -3.6310    6.9710   -0.6410 C   0  0  0  0  0  0  0  0  0  0  0  0
   -3.1540    4.5230   -0.7040 C   0  0  0  0  0  0  0  0  0  0  0  0
   -2.3170    3.4500   -0.3620 C   0  0  0  0  0  0  0  0  0  0  0  0
  1  2  1  0
  2  3  1  0
  3  4  1  0
  4  5  1  0
  5  6  1  0
  6  7  1  0
  7  8  2  0
  7  9  1  0
  9 10  2  0
  9 22  1  0
 10 11  1  0
 11 12  2  0
 12 13  1  0
 12 21  1  0
 14 13  1  6
 14 15  1  0
 14 19  1  0
 15 16  1  0
 16 17  1  1
 16 18  1  0
 18 19  1  0
 19 20  2  0
 21 22  2  0
 22 23  1  0
 23 24  1  0
 24 25  2  0
 24 26  1  0
 26 27  2  0
 26 32  1  0
 27 28  1  0
 28 29  2  0
 29 30  1  0
 29 31  1  0
 31 32  2  0
M  CHG  1  13   1
M  END
