
     RDKit          3D

 32 36  0  0  0  0  0  0  0  0999 V2000
    8.0680    1.3720   -0.2440 C   0  0  0  0  0  0  0  0  0  0  0  0
    7.5430    0.1240    0.4000 C   0  0  2  0  0  0  0  0  0  0  0  0
    8.1110   -1.1320   -0.2670 C   0  0  0  0  0  0  0  0  0  0  0  0
    6.0410    0.0820    0.3840 C   0  0  0  0  0  0  0  0  0  0  0  0
    5.2310    0.0500    1.4570 N   0  0  0  0  0  0  0  0  0  0  0  0
    3.9900    0.0180    1.0330 N   0  0  0  0  0  0  0  0  0  0  0  0
    3.9270    0.0260   -0.3020 C   0  0  0  0  0  0  0  0  0  0  0  0
    2.7970   -0.0000   -1.1140 N   0  0  0  0  0  0  0  0  0  0  0  0
    1.4660   -0.0420   -0.6500 C   0  0  0  0  0  0  0  0  0  0  0  0
    0.4270   -0.0570   -1.6020 C   0  0  0  0  0  0  0  0  0  0  0  0
   -0.8860   -0.0970   -1.2060 C   0  0  0  0  0  0  0  0  0  0  0  0
   -1.2460   -0.1250    0.1270 C   0  0  0  0  0  0  0  0  0  0  0  0
   -0.2570   -0.1120    1.0820 C   0  0  0  0  0  0  0  0  0  0  0  0
    1.0770   -0.0700    0.6640 C   0  0  0  0  0  0  0  0  0  0  0  0
   -0.8450   -0.1440    2.2890 N   0  0  0  0  0  0  0  0  0  0  0  0
   -2.1880   -0.1780    2.1720 C   0  0  0  0  0  0  0  0  0  0  0  0
   -3.2240   -0.2180    3.0960 C   0  0  0  0  0  0  0  0  0  0  0  0
   -4.5340   -0.2480    2.6750 C   0  0  0  0  0  0  0  0  0  0  0  0
   -4.7960   -0.2370    1.3190 C   0  0  0  0  0  0  0  0  0  0  0  0
   -6.1680   -0.2700    0.8260 C   0  0  0  0  0  0  0  0  0  0  0  0
   -6.5360    0.6250   -0.1780 C   0  0  0  0  0  0  0  0  0  0  0  0
   -7.8170    0.6560   -0.6920 C   0  0  0  0  0  0  0  0  0  0  0  0
   -8.1940    1.6030   -1.7500 C   0  0  0  0  0  0  0  0  0  0  0  0
   -9.3650    1.6110   -2.2010 O   0  0  0  0  0  0  0  0  0  0  0  0
   -8.7640   -0.2170   -0.2070 C   0  0  0  0  0  0  0  0  0  0  0  0
   -8.3930   -1.0950    0.7830 C   0  0  0  0  0  0  0  0  0  0  0  0
   -7.1120   -1.1440    1.3140 C   0  0  0  0  0  0  0  0  0  0  0  0
   -6.6970   -2.2890    2.5710 Cl  0  0  0  0  0  0  0  0  0  0  0  0
   -3.7440   -0.1960    0.3960 C   0  0  0  0  0  0  0  0  0  0  0  0
   -2.4390   -0.1670    0.8150 C   0  0  0  0  0  0  0  0  0  0  0  0
    5.2380    0.0670   -0.6850 N   0  0  0  0  0  0  0  0  0  0  0  0
    5.6760    0.0900   -2.0500 C   0  0  0  0  0  0  0  0  0  0  0  0
  2  1  1  6
  2  3  1  0
  2  4  1  0
  4  5  2  0
  4 31  1  0
  5  6  1  0
  6  7  2  0
  7  8  1  0
  7 31  1  0
  8  9  1  0
  9 10  2  0
  9 14  1  0
 10 11  1  0
 11 12  2  0
 12 13  1  0
 12 30  1  0
 13 14  2  0
 13 15  1  0
 15 16  1  0
 16 17  2  0
 16 30  1  0
 17 18  1  0
 18 19  2  0
 19 20  1  0
 19 29  1  0
 20 21  2  0
 20 27  1  0
 21 22  1  0
 22 23  1  0
 22 25  2  0
 23 24  2  0
 25 26  1  0
 26 27  2  0
 27 28  1  0
 29 30  2  0
 31 32  1  0
M  END
