
     RDKit          3D

 33 35  0  0  0  0  0  0  0  0999 V2000
    4.2580   -2.7950    0.9500 C   0  0  0  0  0  0  0  0  0  0  0  0
    3.8850   -1.4910    1.2830 O   0  0  0  0  0  0  0  0  0  0  0  0
    4.0810   -0.4430    0.4030 C   0  0  0  0  0  0  0  0  0  0  0  0
    4.6420   -0.6610   -0.8460 C   0  0  0  0  0  0  0  0  0  0  0  0
    4.8430    0.4110   -1.7370 C   0  0  0  0  0  0  0  0  0  0  0  0
    5.4150    0.1150   -3.0010 N   0  0  0  0  0  0  0  0  0  0  0  0
    5.4590    1.0340   -4.0740 C   0  0  0  0  0  0  0  0  0  0  0  0
    4.9980    2.1940   -4.0210 O   0  0  0  0  0  0  0  0  0  0  0  0
    4.4580    1.6450   -1.2970 C   0  0  0  0  0  0  0  0  0  0  0  0
    3.8890    1.8520   -0.0260 C   0  0  0  0  0  0  0  0  0  0  0  0
    3.6890    0.8100    0.8460 C   0  0  0  0  0  0  0  0  0  0  0  0
    3.0360    0.9560    2.1860 C   0  0  1  0  0  0  0  0  0  0  0  0
    3.2820    2.4080    2.6390 C   0  0  0  0  0  0  0  0  0  0  0  0
    1.5790    0.7950    2.1000 N   0  0  0  0  0  0  0  0  0  0  0  0
    0.8320   -0.3170    2.4830 C   0  0  0  0  0  0  0  0  0  0  0  0
    1.4770   -1.3230    2.9390 O   0  0  0  0  0  0  0  0  0  0  0  0
   -0.6580   -0.4310    2.4000 C   0  0  0  0  0  0  0  0  0  0  0  0
   -1.3320    0.7730    2.0440 N   0  0  2  0  0  0  0  0  0  0  0  0
   -2.5390    0.8870    2.8930 C   0  0  0  0  0  0  0  0  0  0  0  0
   -1.5130    1.1550    0.7240 C   0  0  0  0  0  0  0  0  0  0  0  0
   -2.5530    0.5570   -0.1120 C   0  0  0  0  0  0  0  0  0  0  0  0
   -3.3370   -0.4970    0.2570 C   0  0  0  0  0  0  0  0  0  0  0  0
   -4.2600   -1.0590   -0.6310 C   0  0  0  0  0  0  0  0  0  0  0  0
   -5.0520   -2.1310   -0.2830 C   0  0  0  0  0  0  0  0  0  0  0  0
   -5.9500   -2.6830   -1.1760 C   0  0  0  0  0  0  0  0  0  0  0  0
   -6.9690   -4.0630   -0.7470 Cl  0  0  0  0  0  0  0  0  0  0  0  0
   -6.0870   -2.1790   -2.4530 C   0  0  0  0  0  0  0  0  0  0  0  0
   -5.3010   -1.1000   -2.8250 C   0  0  0  0  0  0  0  0  0  0  0  0
   -5.4440   -0.5350   -4.1760 C   0  0  0  0  0  0  0  0  0  0  0  0
   -4.4040   -0.5560   -1.9230 C   0  0  0  0  0  0  0  0  0  0  0  0
   -3.6260    0.4830   -2.2730 N   0  0  0  0  0  0  0  0  0  0  0  0
   -2.7360    1.0330   -1.4290 C   0  0  0  0  0  0  0  0  0  0  0  0
   -2.0370    2.0010   -1.8100 O   0  0  0  0  0  0  0  0  0  0  0  0
  1  2  1  0
  2  3  1  0
  3  4  2  0
  3 11  1  0
  4  5  1  0
  5  6  1  0
  5  9  2  0
  6  7  1  0
  7  8  2  0
  9 10  1  0
 10 11  2  0
 11 12  1  0
 12 13  1  6
 12 14  1  0
 14 15  1  0
 15 16  2  0
 15 17  1  0
 17 18  1  0
 18 19  1  6
 18 20  1  0
 20 21  1  0
 21 22  2  0
 21 32  1  0
 22 23  1  0
 23 24  2  0
 23 30  1  0
 24 25  1  0
 25 26  1  0
 25 27  2  0
 27 28  1  0
 28 29  1  0
 28 30  2  0
 30 31  1  0
 31 32  1  0
 32 33  2  0
M  CHG  1  18   1
M  END
