
     RDKit          3D

 32 36  0  0  0  0  0  0  0  0999 V2000
   -5.0370    2.6890   -1.7300 C   0  0  0  0  0  0  0  0  0  0  0  0
   -3.9340    1.8600   -1.1910 C   0  0  0  0  0  0  0  0  0  0  0  0
   -2.4300    2.6410   -0.7710 Cl  0  0  0  0  0  0  0  0  0  0  0  0
   -4.0610    0.5710   -1.0430 C   0  0  0  0  0  0  0  0  0  0  0  0
   -3.0430   -0.3200   -0.5250 C   0  0  0  0  0  0  0  0  0  0  0  0
   -2.6280   -1.3960   -1.2530 N   0  0  0  0  0  0  0  0  0  0  0  0
   -1.6630   -2.0160   -0.5960 C   0  0  0  0  0  0  0  0  0  0  0  0
   -0.9180   -3.2550   -1.0220 C   0  0  1  0  0  0  0  0  0  0  0  0
   -1.5500   -4.1700   -2.0010 C   0  0  0  0  0  0  0  0  0  0  0  0
   -0.4980   -3.2540   -2.4980 C   0  0  0  0  0  0  0  0  0  0  0  0
   -1.4730   -1.3160    0.5640 N   0  0  0  0  0  0  0  0  0  0  0  0
   -0.4920   -1.7530    1.5250 C   0  0  0  0  0  0  0  0  0  0  0  0
    0.9170   -1.4100    1.2170 C   0  0  0  0  0  0  0  0  0  0  0  0
    1.2740   -0.0260    0.9360 C   0  0  0  0  0  0  0  0  0  0  0  0
    0.4440    0.7550    0.4160 O   0  0  0  0  0  0  0  0  0  0  0  0
    2.5550    0.5230    1.2170 N   0  0  0  0  0  0  0  0  0  0  0  0
    3.5060    0.5270    0.3150 C   0  0  0  0  0  0  0  0  0  0  0  0
    3.3260    0.0240   -0.8960 N   0  0  0  0  0  0  0  0  0  0  0  0
    4.2730    0.0040   -1.8600 C   0  0  0  0  0  0  0  0  0  0  0  0
    5.5090    0.5310   -1.6010 C   0  0  0  0  0  0  0  0  0  0  0  0
    6.6820    0.6920   -2.2850 C   0  0  0  0  0  0  0  0  0  0  0  0
    7.6130    1.3200   -1.4530 C   0  0  0  0  0  0  0  0  0  0  0  0
    7.0240    1.5580   -0.2340 C   0  0  0  0  0  0  0  0  0  0  0  0
    5.7280    1.0950   -0.2590 C   0  0  0  0  0  0  0  0  0  0  0  0
    4.7090    1.0540    0.6090 N   0  0  0  0  0  0  0  0  0  0  0  0
   -2.3080   -0.2660    0.6500 C   0  0  0  0  0  0  0  0  0  0  0  0
   -2.5950    0.6220    1.7780 C   0  0  0  0  0  0  0  0  0  0  0  0
   -1.7430    0.9780    2.7780 C   0  0  0  0  0  0  0  0  0  0  0  0
   -2.1420    1.7560    3.8900 C   0  0  0  0  0  0  0  0  0  0  0  0
   -3.4350    2.1790    3.9820 C   0  0  0  0  0  0  0  0  0  0  0  0
   -4.3190    1.8360    2.9880 C   0  0  0  0  0  0  0  0  0  0  0  0
   -3.9220    1.0790    1.9130 C   0  0  0  0  0  0  0  0  0  0  0  0
  1  2  1  0
  2  3  1  0
  2  4  2  3
  4  5  1  0
  5  6  1  0
  5 26  2  0
  6  7  2  0
  8  7  1  6
  7 11  1  0
  8  9  1  0
  8 10  1  0
  9 10  1  0
 11 12  1  0
 11 26  1  0
 12 13  1  0
 13 14  1  0
 14 15  2  0
 14 16  1  0
 16 17  2  3
 17 18  1  0
 17 25  1  0
 18 19  1  0
 19 20  2  0
 20 21  1  0
 20 24  1  0
 21 22  2  0
 22 23  1  0
 23 24  2  0
 24 25  1  0
 26 27  1  0
 27 28  2  0
 27 32  1  0
 28 29  1  0
 29 30  2  0
 30 31  1  0
 31 32  2  0
M  END
