
     RDKit          3D

 32 36  0  0  0  0  0  0  0  0999 V2000
    5.7030    2.3680   -1.2100 C   0  0  0  0  0  0  0  0  0  0  0  0
    4.7500    2.6510   -0.0830 C   0  0  0  0  0  0  0  0  0  0  0  0
    3.9140    1.4760    0.1160 N   0  0  0  0  0  0  0  0  0  0  0  0
    2.7370    1.4040   -0.5350 C   0  0  0  0  0  0  0  0  0  0  0  0
    2.3930    2.3600   -1.2980 O   0  0  0  0  0  0  0  0  0  0  0  0
    1.9050    0.3300   -0.3950 C   0  0  0  0  0  0  0  0  0  0  0  0
    0.7150    0.2600   -1.0550 C   0  0  0  0  0  0  0  0  0  0  0  0
   -0.1220   -0.8280   -0.9110 C   0  0  0  0  0  0  0  0  0  0  0  0
   -1.3340   -0.8310   -1.6230 N   0  0  0  0  0  0  0  0  0  0  0  0
   -2.5360   -0.3060   -1.0710 N   0  0  0  0  0  0  0  0  0  0  0  0
   -3.6610   -1.1420   -1.0430 C   0  0  0  0  0  0  0  0  0  0  0  0
   -3.5680   -2.4530   -1.5510 C   0  0  0  0  0  0  0  0  0  0  0  0
   -4.6260   -3.3180   -1.5560 C   0  0  0  0  0  0  0  0  0  0  0  0
   -5.8450   -2.9380   -1.0580 C   0  0  0  0  0  0  0  0  0  0  0  0
   -5.9700   -1.6620   -0.5540 C   0  0  0  0  0  0  0  0  0  0  0  0
   -4.9040   -0.7740   -0.5430 C   0  0  0  0  0  0  0  0  0  0  0  0
   -5.0990    0.5510   -0.0010 C   0  0  0  0  0  0  0  0  0  0  0  0
   -6.3350    0.9340    0.4790 C   0  0  0  0  0  0  0  0  0  0  0  0
   -6.5370    2.1830    0.9930 N   0  0  0  0  0  0  0  0  0  0  0  0
   -5.5690    3.0810    1.0560 C   0  0  0  0  0  0  0  0  0  0  0  0
   -4.3210    2.7140    0.5780 C   0  0  0  0  0  0  0  0  0  0  0  0
   -4.1610    1.4890    0.0850 N   0  0  0  0  0  0  0  0  0  0  0  0
    0.2780   -1.8510   -0.0760 C   0  0  0  0  0  0  0  0  0  0  0  0
    1.4850   -1.8120    0.6120 C   0  0  0  0  0  0  0  0  0  0  0  0
    2.2840   -0.7130    0.4400 C   0  0  0  0  0  0  0  0  0  0  0  0
    3.4870   -0.6310    1.0990 C   0  0  0  0  0  0  0  0  0  0  0  0
    3.9420   -1.6210    1.9400 C   0  0  0  0  0  0  0  0  0  0  0  0
    5.1750   -1.5230    2.5990 C   0  0  0  0  0  0  0  0  0  0  0  0
    5.6660   -2.8290    3.6440 Cl  0  0  0  0  0  0  0  0  0  0  0  0
    5.9790   -0.4330    2.4320 C   0  0  0  0  0  0  0  0  0  0  0  0
    5.5380    0.5680    1.5940 C   0  0  0  0  0  0  0  0  0  0  0  0
    4.3090    0.4900    0.9260 C   0  0  0  0  0  0  0  0  0  0  0  0
  1  2  1  0
  2  3  1  0
  3  4  1  0
  3 32  1  0
  4  5  2  0
  4  6  1  0
  6  7  2  0
  6 25  1  0
  7  8  1  0
  8  9  1  0
  8 23  2  0
  9 10  1  0
 10 11  1  0
 11 12  2  0
 11 16  1  0
 12 13  1  0
 13 14  2  0
 14 15  1  0
 15 16  2  0
 16 17  1  0
 17 18  2  0
 17 22  1  0
 18 19  1  0
 19 20  2  0
 20 21  1  0
 21 22  2  0
 23 24  1  0
 24 25  2  0
 25 26  1  0
 26 27  2  0
 26 32  1  0
 27 28  1  0
 28 29  1  0
 28 30  2  0
 30 31  1  0
 31 32  2  0
M  END
