
     RDKit          3D

  5  4  0  0  0  0  0  0  0  0999 V2000
   -1.4220    0.7210    1.0650 O   0  0  0  0  0  0  0  0  0  0  0  0
   -0.9660   -0.3790    0.3360 C   0  0  0  0  0  0  0  0  0  0  0  0
    0.2930   -0.1260   -0.3150 N   0  0  0  0  0  0  0  0  0  0  0  0
    1.2770   -0.9560    0.0610 O   0  0  0  0  0  0  0  0  0  0  0  0
    2.3590   -0.3450    0.4770 O   0  0  0  0  0  0  0  0  0  0  0  0
  1  2  1  0
  2  3  1  0
  3  4  1  0
  4  5  1  0
M  END
