
     RDKit          3D

  5  4  0  0  0  0  0  0  0  0999 V2000
   -0.7380    0.9780    0.0780 O   0  0  0  0  0  0  0  0  0  0  0  0
   -0.9100   -0.3730   -0.1780 C   0  0  0  0  0  0  0  0  0  0  0  0
    0.1520   -1.1050    0.3310 O   0  0  0  0  0  0  0  0  0  0  0  0
    1.3000   -0.7570   -0.1860 O   0  0  0  0  0  0  0  0  0  0  0  0
    1.6050    0.4440    0.2490 O   0  0  0  0  0  0  0  0  0  0  0  0
  1  2  1  0
  2  3  1  0
  3  4  1  0
  4  5  1  0
M  END
