
     RDKit          3D

  4  4  0  0  0  0  0  0  0  0999 V2000
   -0.4650   -0.0280    0.0100 C   0  0  0  0  0  0  0  0  0  0  0  0
    0.5750   -0.8620   -0.4170 O   0  0  0  0  0  0  0  0  0  0  0  0
    1.3970   -0.0070    0.1890 O   0  0  0  0  0  0  0  0  0  0  0  0
    0.5290    0.9540   -0.1160 O   0  0  0  0  0  0  0  0  0  0  0  0
  1  2  1  0
  1  4  1  0
  2  3  1  0
  3  4  1  0
M  END
