
     RDKit          3D

  5  4  0  0  0  0  0  0  0  0999 V2000
   -1.4450   -0.9810    0.3870 O   0  0  0  0  0  0  0  0  0  0  0  0
   -0.0920   -0.7720    0.4650 N   0  0  0  0  0  0  0  0  0  0  0  0
    0.5040    0.2890    0.1410 C   0  0  0  0  0  0  0  0  0  0  0  0
    1.8760    0.3750    0.2670 O   0  0  0  0  0  0  0  0  0  0  0  0
   -0.1870    1.3820   -0.3420 O   0  0  0  0  0  0  0  0  0  0  0  0
  1  2  1  0
  2  3  2  3
  3  4  1  0
  3  5  1  0
M  END
