
     RDKit          3D

  3  2  0  0  0  0  0  0  0  0999 V2000
   -1.1230    0.3370    0.2750 O   0  0  0  0  0  0  0  0  0  0  0  0
    0.0200    0.6680   -0.2740 O   0  0  0  0  0  0  0  0  0  0  0  0
    0.8330   -0.3740   -0.2170 O   0  0  0  0  0  0  0  0  0  0  0  0
  1  2  1  0
  2  3  1  0
M  END
