
     RDKit          3D

  5  4  0  0  0  0  0  0  0  0999 V2000
   -0.2540    1.1180   -0.0690 N   0  0  0  0  0  0  0  0  0  0  0  0
   -0.3370   -0.1460    0.0200 C   0  0  0  0  0  0  0  0  0  0  0  0
   -1.5300   -0.8490    0.1340 O   0  0  0  0  0  0  0  0  0  0  0  0
    0.8470   -0.8890    0.0040 O   0  0  0  0  0  0  0  0  0  0  0  0
    1.9380   -0.4610   -0.6490 O   0  0  0  0  0  0  0  0  0  0  0  0
  1  2  2  0
  2  3  1  0
  2  4  1  0
  4  5  1  0
M  END
