
     RDKit          3D

 24 23  0  0  0  0  0  0  0  0999 V2000
   -7.5420   -0.5530    2.4890 C   0  0  0  0  0  0  0  0  0  0  0  0
   -6.6740   -0.3050    1.2910 C   0  0  0  0  0  0  0  0  0  0  0  0
   -7.3220   -0.0540   -0.0090 C   0  0  0  0  0  0  0  0  0  0  0  0
   -5.3690   -0.3150    1.4140 C   0  0  0  0  0  0  0  0  0  0  0  0
   -4.5070   -0.0700    0.2320 C   0  0  0  0  0  0  0  0  0  0  0  0
   -3.5990   -1.2510   -0.0420 C   0  0  0  0  0  0  0  0  0  0  0  0
   -2.7610   -0.9720   -1.2200 C   0  0  0  0  0  0  0  0  0  0  0  0
   -3.3780   -0.6980   -2.5430 C   0  0  0  0  0  0  0  0  0  0  0  0
   -1.4070   -0.9540   -1.1450 C   0  0  0  0  0  0  0  0  0  0  0  0
   -0.5760   -0.6760   -2.3160 C   0  0  0  0  0  0  0  0  0  0  0  0
    0.2600    0.5520   -2.2390 C   0  0  0  0  0  0  0  0  0  0  0  0
    1.2520    0.5950   -1.1340 C   0  0  0  0  0  0  0  0  0  0  0  0
    0.8680    0.5970    0.3050 C   0  0  0  0  0  0  0  0  0  0  0  0
    2.5480    0.6730   -1.4190 C   0  0  0  0  0  0  0  0  0  0  0  0
    3.5490    0.7170   -0.3690 C   0  0  0  0  0  0  0  0  0  0  0  0
    4.3380    1.8640   -0.3770 O   0  0  0  0  0  0  0  0  0  0  0  0
    5.4310    1.9890    0.7150 P   0  0  0  0  0  0  0  0  0  0  0  0
    6.0310    3.3820    0.1190 O   0  0  0  0  0  0  0  0  0  0  0  0
    6.2870    1.9410    1.9920 O   0  0  0  0  0  0  0  0  0  0  0  0
    6.0720    0.5730    0.1950 O   0  0  0  0  0  0  0  0  0  0  0  0
    6.5510   -0.5660    1.0970 P   0  0  0  0  0  0  0  0  0  0  0  0
    7.0240   -1.6210    2.1160 O   0  0  0  0  0  0  0  0  0  0  0  0
    7.9230    0.3310    1.3890 O   0  0  0  0  0  0  0  0  0  0  0  0
    6.5680   -1.5900   -0.1900 O   0  0  0  0  0  0  0  0  0  0  0  0
  1  2  1  0
  2  3  1  0
  2  4  2  3
  4  5  1  0
  5  6  1  0
  6  7  1  0
  7  8  1  0
  7  9  2  3
  9 10  1  0
 10 11  1  0
 11 12  1  0
 12 13  1  0
 12 14  2  3
 14 15  1  0
 15 16  1  0
 16 17  1  0
 17 18  1  0
 17 19  1  0
 17 20  1  0
 20 21  1  0
 21 22  1  0
 21 23  1  0
 21 24  1  0
M  END
