
     RDKit          3D

 24 25  0  0  0  0  0  0  0  0999 V2000
    1.9000    0.9800   -3.5740 N   0  0  0  0  0  0  0  0  0  0  0  0
    1.5510    0.4360   -2.2790 C   0  0  2  0  0  0  0  0  0  0  0  0
    2.8190    0.0450   -1.5780 C   0  0  0  0  0  0  0  0  0  0  0  0
    2.5040   -0.5310   -0.2890 N   0  0  0  0  0  0  0  0  0  0  0  0
    1.3660   -1.3830   -0.1940 C   0  0  0  0  0  0  0  0  0  0  0  0
    1.1950   -2.1090    0.8590 N   0  0  0  0  0  0  0  0  0  0  0  0
    2.0870   -2.1010    1.9300 N   0  0  0  0  0  0  0  0  0  0  0  0
    2.1900   -1.0270    2.8560 C   0  0  0  0  0  0  0  0  0  0  0  0
    1.4270   -0.0300    2.6920 O   0  0  0  0  0  0  0  0  0  0  0  0
    3.0800   -1.0220    3.9210 O   0  0  0  0  0  0  0  0  0  0  0  0
    3.1700   -0.0070    4.7890 O   0  0  0  0  0  0  0  0  0  0  0  0
    0.3830   -1.4810   -1.2190 N   0  0  0  0  0  0  0  0  0  0  0  0
   -0.7560   -2.3400   -1.1130 C   0  0  0  0  0  0  0  0  0  0  0  0
   -1.9260   -1.6730   -0.4870 C   0  0  0  0  0  0  0  0  0  0  0  0
   -3.0170   -2.2190   -0.2920 O   0  0  0  0  0  0  0  0  0  0  0  0
   -1.8090   -0.3440   -0.0840 O   0  0  0  0  0  0  0  0  0  0  0  0
   -2.8130    0.4000    0.5100 C   0  0  2  0  0  0  0  0  0  0  0  0
   -3.2560    1.6020   -0.2880 C   0  0  0  0  0  0  0  0  0  0  0  0
   -4.0080    2.3750    0.7780 C   0  0  0  0  0  0  0  0  0  0  0  0
   -3.2250    2.1470    1.9360 O   0  0  0  0  0  0  0  0  0  0  0  0
   -2.5120    0.9670    1.8120 C   0  0  0  0  0  0  0  0  0  0  0  0
   -1.7530    0.5090    2.6910 O   0  0  0  0  0  0  0  0  0  0  0  0
    0.5740   -0.6780   -2.3800 C   0  0  0  0  0  0  0  0  0  0  0  0
   -0.0430   -0.8820   -3.4540 O   0  0  0  0  0  0  0  0  0  0  0  0
  2  1  1  6
  2  3  1  0
  2 23  1  0
  3  4  1  0
  4  5  1  0
  5  6  2  3
  5 12  1  0
  6  7  1  0
  7  8  1  0
  8  9  2  0
  8 10  1  0
 10 11  1  0
 12 13  1  0
 12 23  1  0
 13 14  1  0
 14 15  2  0
 14 16  1  0
 17 16  1  6
 17 18  1  0
 17 21  1  0
 18 19  1  0
 19 20  1  0
 20 21  1  0
 21 22  2  0
 23 24  2  0
M  END
