
     RDKit          3D

  4  3  0  0  0  0  0  0  0  0999 V2000
   -1.1950    0.0820    0.1000 C   0  0  0  0  0  0  0  0  0  0  0  0
    0.0880    0.3480   -0.3180 O   0  0  0  0  0  0  0  0  0  0  0  0
    1.0200   -0.1010    0.4720 O   0  0  0  0  0  0  0  0  0  0  0  0
    2.1810    0.2190   -0.0640 O   0  0  0  0  0  0  0  0  0  0  0  0
  1  2  1  0
  2  3  1  0
  3  4  1  0
M  END
