
     RDKit          3D

  5  4  0  0  0  0  0  0  0  0999 V2000
    2.1220   -0.2560    0.1630 N   0  0  0  0  0  0  0  0  0  0  0  0
    0.9780   -0.9190   -0.2060 O   0  0  0  0  0  0  0  0  0  0  0  0
    0.1090    0.0150   -0.5220 O   0  0  0  0  0  0  0  0  0  0  0  0
   -1.1920   -0.3300   -0.1570 C   0  0  0  0  0  0  0  0  0  0  0  0
   -1.9990    0.7600   -0.5570 O   0  0  0  0  0  0  0  0  0  0  0  0
  1  2  1  0
  2  3  1  0
  3  4  1  0
  4  5  1  0
M  END
