
     RDKit          3D

 43 47  0  0  0  0  0  0  0  0999 V2000
   -5.8690    6.6740    0.2850 C   0  0  0  0  0  0  0  0  0  0  0  0
   -5.2330    5.7880    0.9990 C   0  0  0  0  0  0  0  0  0  0  0  0
   -4.7280    4.5190    0.4480 C   0  0  0  0  0  0  0  0  0  0  0  0
   -4.0000    3.6500    1.2380 C   0  0  0  0  0  0  0  0  0  0  0  0
   -3.5420    2.4530    0.7230 C   0  0  0  0  0  0  0  0  0  0  0  0
   -3.7830    2.0730   -0.5780 C   0  0  0  0  0  0  0  0  0  0  0  0
   -3.3290    0.8040   -1.1840 C   0  0  0  0  0  0  0  0  0  0  0  0
   -2.3150    0.1440   -0.5010 O   0  0  0  0  0  0  0  0  0  0  0  0
   -1.0490    0.6770   -0.2660 C   0  0  0  0  0  0  0  0  0  0  0  0
   -0.6970    1.9330   -0.7030 C   0  0  0  0  0  0  0  0  0  0  0  0
    0.5900    2.4370   -0.4480 C   0  0  0  0  0  0  0  0  0  0  0  0
    1.5080    1.7000    0.2290 C   0  0  0  0  0  0  0  0  0  0  0  0
    2.8610    2.2920    0.5070 C   0  0  1  0  0  0  0  0  0  0  0  0
    2.7490    3.3870    1.3840 N   0  0  0  0  0  0  0  0  0  0  0  0
    3.4200    3.4450    2.6210 C   0  0  0  0  0  0  0  0  0  0  0  0
    3.1420    4.7300    3.6380 S   0  0  0  0  0  0  0  0  0  0  0  0
    4.3130    2.4190    2.9820 N   0  0  0  0  0  0  0  0  0  0  0  0
    5.0400    2.4400    4.2340 C   0  0  0  0  0  0  0  0  0  0  0  0
    4.4690    1.3400    2.0310 C   0  0  0  0  0  0  0  0  0  0  0  0
    5.4540    0.2490    2.4000 C   0  0  0  0  0  0  0  0  0  0  0  0
    3.8240    1.2710    0.9000 C   0  0  0  0  0  0  0  0  0  0  0  0
    4.0800    0.1190   -0.0270 C   0  0  0  0  0  0  0  0  0  0  0  0
    4.8810   -0.7800    0.2930 O   0  0  0  0  0  0  0  0  0  0  0  0
    3.4460    0.0040   -1.2770 N   0  0  0  0  0  0  0  0  0  0  0  0
    3.6220   -1.0570   -2.2050 C   0  0  0  0  0  0  0  0  0  0  0  0
    4.4280   -2.1590   -2.0750 C   0  0  0  0  0  0  0  0  0  0  0  0
    4.3200   -2.9510   -3.1890 N   0  0  0  0  0  0  0  0  0  0  0  0
    3.4530   -2.3470   -4.0060 N   0  0  0  0  0  0  0  0  0  0  0  0
    3.0220   -1.2100   -3.4370 C   0  0  0  0  0  0  0  0  0  0  0  0
    1.1720    0.4540    0.6680 C   0  0  0  0  0  0  0  0  0  0  0  0
   -0.1190   -0.0710    0.4220 C   0  0  0  0  0  0  0  0  0  0  0  0
   -0.4180   -1.3350    0.8850 O   0  0  0  0  0  0  0  0  0  0  0  0
   -0.7750   -2.4350    0.1590 C   0  0  0  0  0  0  0  0  0  0  0  0
   -0.8920   -2.5040   -1.2000 C   0  0  0  0  0  0  0  0  0  0  0  0
   -1.2590   -3.6690   -1.8190 C   0  0  0  0  0  0  0  0  0  0  0  0
   -1.5210   -4.8060   -1.0980 C   0  0  0  0  0  0  0  0  0  0  0  0
   -1.9150   -6.0760   -1.7900 C   0  0  0  0  0  0  0  0  0  0  0  0
   -3.3960   -6.3550   -1.6280 C   0  0  0  0  0  0  0  0  0  0  0  0
   -1.4110   -4.7700    0.2750 C   0  0  0  0  0  0  0  0  0  0  0  0
   -1.6780   -5.9570    1.1200 C   0  0  0  0  0  0  0  0  0  0  0  0
   -1.0460   -3.6060    0.8790 C   0  0  0  0  0  0  0  0  0  0  0  0
   -4.5170    2.9570   -1.3670 C   0  0  0  0  0  0  0  0  0  0  0  0
   -4.9740    4.1620   -0.8360 C   0  0  0  0  0  0  0  0  0  0  0  0
  1  2  2  0
  2  3  1  0
  3  4  2  0
  3 43  1  0
  4  5  1  0
  5  6  2  0
  6  7  1  0
  6 42  1  0
  7  8  1  0
  8  9  1  0
  9 10  2  0
  9 31  1  0
 10 11  1  0
 11 12  2  0
 13 12  1  1
 12 30  1  0
 13 14  1  0
 13 21  1  0
 14 15  1  0
 15 16  2  0
 15 17  1  0
 17 18  1  0
 17 19  1  0
 19 20  1  0
 19 21  2  0
 21 22  1  0
 22 23  2  0
 22 24  1  0
 24 25  1  0
 25 26  1  0
 25 29  2  0
 26 27  2  0
 27 28  1  0
 28 29  1  0
 30 31  2  0
 31 32  1  0
 32 33  1  0
 33 34  2  0
 33 41  1  0
 34 35  1  0
 35 36  2  0
 36 37  1  0
 36 39  1  0
 37 38  1  0
 39 40  1  0
 39 41  2  0
 42 43  2  0
M  END
