
     RDKit          3D

 43 48  0  0  0  0  0  0  0  0999 V2000
    2.4660   -0.4570   -1.7150 O   0  0  0  0  0  0  0  0  0  0  0  0
    2.7550    0.2760   -0.7320 C   0  0  0  0  0  0  0  0  0  0  0  0
    1.7410    0.9510   -0.0310 N   0  0  0  0  0  0  0  0  0  0  0  0
    0.3570    0.9170   -0.2800 C   0  0  0  0  0  0  0  0  0  0  0  0
   -0.2390    0.0130   -1.0920 C   0  0  0  0  0  0  0  0  0  0  0  0
   -1.6200    0.0250   -1.3280 C   0  0  0  0  0  0  0  0  0  0  0  0
   -2.4340    0.9430   -0.7550 C   0  0  0  0  0  0  0  0  0  0  0  0
   -3.7680    0.9860   -0.9520 O   0  0  0  0  0  0  0  0  0  0  0  0
   -4.5450    0.1310   -1.6920 C   0  0  0  0  0  0  0  0  0  0  0  0
   -4.6120   -1.2610   -1.1450 C   0  0  0  0  0  0  0  0  0  0  0  0
   -5.2210   -1.1450    0.2500 C   0  0  0  0  0  0  0  0  0  0  0  0
   -6.5260   -0.5830    0.1740 N   0  0  0  0  0  0  0  0  0  0  0  0
   -7.6180   -1.2660   -0.3840 C   0  0  0  0  0  0  0  0  0  0  0  0
   -7.3500   -2.5040   -0.8920 N   0  0  0  0  0  0  0  0  0  0  0  0
   -8.2500   -3.2680   -1.4760 C   0  0  0  0  0  0  0  0  0  0  0  0
   -9.5320   -2.8100   -1.5890 C   0  0  0  0  0  0  0  0  0  0  0  0
   -9.8470   -1.5690   -1.0910 C   0  0  0  0  0  0  0  0  0  0  0  0
   -8.8850   -0.8070   -0.4910 C   0  0  0  0  0  0  0  0  0  0  0  0
   -9.3090    0.7490    0.1210 S   0  0  0  0  0  0  0  0  0  0  0  0
  -10.6390    1.4740   -0.6090 O   0  0  0  0  0  0  0  0  0  0  0  0
  -10.4110    0.0070    1.1470 C   0  0  0  0  0  0  0  0  0  0  0  0
  -10.9670    1.1620    1.9570 C   0  0  0  0  0  0  0  0  0  0  0  0
   -9.8290    2.1040    2.1490 C   0  0  0  0  0  0  0  0  0  0  0  0
   -8.6170    1.4670    1.4110 C   0  0  0  0  0  0  0  0  0  0  0  0
   -1.8370    1.8880    0.0870 C   0  0  0  0  0  0  0  0  0  0  0  0
   -0.4940    1.8630    0.3060 C   0  0  0  0  0  0  0  0  0  0  0  0
    4.1620    0.4140   -0.3340 C   0  0  0  0  0  0  0  0  0  0  0  0
    4.5730    0.9260    0.8630 C   0  0  0  0  0  0  0  0  0  0  0  0
    5.9410    1.0290    1.1640 C   0  0  0  0  0  0  0  0  0  0  0  0
    6.9080    0.6230    0.2780 C   0  0  0  0  0  0  0  0  0  0  0  0
    8.3330    0.7390    0.6140 C   0  0  0  0  0  0  0  0  0  0  0  0
    9.2200    0.3530   -0.2360 N   0  0  0  0  0  0  0  0  0  0  0  0
   10.5810    0.4510    0.0560 N   0  0  0  0  0  0  0  0  0  0  0  0
   11.3540    1.6730    0.1220 C   0  0  0  0  0  0  0  0  0  0  0  0
   12.6650    1.2550    0.7030 C   0  0  0  0  0  0  0  0  0  0  0  0
   12.6640   -0.2290    0.7250 C   0  0  0  0  0  0  0  0  0  0  0  0
   13.6710   -1.0990    1.0570 C   0  0  0  0  0  0  0  0  0  0  0  0
   13.4160   -2.4640    0.9960 C   0  0  0  0  0  0  0  0  0  0  0  0
   12.1700   -2.9370    0.6090 C   0  0  0  0  0  0  0  0  0  0  0  0
   11.1830   -2.0310    0.2830 C   0  0  0  0  0  0  0  0  0  0  0  0
   11.4170   -0.6670    0.3360 C   0  0  0  0  0  0  0  0  0  0  0  0
    6.4930    0.1070   -0.9280 C   0  0  0  0  0  0  0  0  0  0  0  0
    5.1410    0.0020   -1.2320 C   0  0  0  0  0  0  0  0  0  0  0  0
  1  2  2  0
  2  3  1  0
  2 27  1  0
  3  4  1  0
  4  5  2  0
  4 26  1  0
  5  6  1  0
  6  7  2  0
  7  8  1  0
  7 25  1  0
  8  9  1  0
  9 10  1  0
 10 11  1  0
 11 12  1  0
 12 13  1  0
 13 14  2  0
 13 18  1  0
 14 15  1  0
 15 16  2  0
 16 17  1  0
 17 18  2  0
 18 19  1  0
 19 20  2  0
 19 21  1  0
 19 24  1  0
 21 22  1  0
 22 23  1  0
 23 24  1  0
 25 26  2  0
 27 28  2  0
 27 43  1  0
 28 29  1  0
 29 30  2  0
 30 31  1  0
 30 42  1  0
 31 32  2  3
 32 33  1  0
 33 34  1  0
 33 41  1  0
 34 35  1  0
 35 36  1  0
 36 37  2  0
 36 41  1  0
 37 38  1  0
 38 39  2  0
 39 40  1  0
 40 41  2  0
 42 43  2  0
M  END
