
     RDKit          3D

 43 48  0  0  0  0  0  0  0  0999 V2000
    4.0690   -4.9990   -0.2760 C   0  0  0  0  0  0  0  0  0  0  0  0
    5.1080   -3.8710   -0.3600 C   0  0  0  0  0  0  0  0  0  0  0  0
    5.2480   -3.0850    1.2350 S   0  0  0  0  0  0  0  0  0  0  0  0
    3.7900   -2.2340    1.8000 C   0  0  0  0  0  0  0  0  0  0  0  0
    3.4410   -0.9960    1.0520 C   0  0  0  0  0  0  0  0  0  0  0  0
    4.2400   -0.5290    0.0510 C   0  0  0  0  0  0  0  0  0  0  0  0
    3.9520    0.6310   -0.6380 C   0  0  0  0  0  0  0  0  0  0  0  0
    4.7750    1.0410   -1.7650 C   0  0  0  0  0  0  0  0  0  0  0  0
    4.6460    2.0590   -2.5090 N   0  0  0  0  0  0  0  0  0  0  0  0
    5.6300    2.1420   -3.5210 C   0  0  2  0  0  0  0  0  0  0  0  0
    4.9230    1.9660   -4.8780 C   0  0  0  0  0  0  0  0  0  0  0  0
    6.4520    0.9260   -3.2540 C   0  0  0  0  0  0  0  0  0  0  0  0
    5.9480    0.3230   -2.2630 N   0  0  0  0  0  0  0  0  0  0  0  0
    2.8150    1.2940   -0.2480 C   0  0  0  0  0  0  0  0  0  0  0  0
    1.9890    0.8290    0.7760 C   0  0  0  0  0  0  0  0  0  0  0  0
    2.2540   -0.3380    1.4690 C   0  0  0  0  0  0  0  0  0  0  0  0
    1.4640   -0.9390    2.4400 N   0  0  0  0  0  0  0  0  0  0  0  0
    0.1410   -0.8590    2.8960 C   0  0  0  0  0  0  0  0  0  0  0  0
   -0.9530   -0.8110    1.9270 C   0  0  0  0  0  0  0  0  0  0  0  0
   -1.3790    0.2510    1.1910 C   0  0  0  0  0  0  0  0  0  0  0  0
   -2.5110    0.2470    0.3920 C   0  0  0  0  0  0  0  0  0  0  0  0
   -2.9000    1.3390   -0.3290 C   0  0  0  0  0  0  0  0  0  0  0  0
   -2.1560    2.5310   -0.2390 O   0  0  0  0  0  0  0  0  0  0  0  0
   -2.7250    3.4070    0.7490 C   0  0  0  0  0  0  0  0  0  0  0  0
   -2.7490    3.1520    2.1000 C   0  0  0  0  0  0  0  0  0  0  0  0
   -3.3350    4.0580    2.9960 C   0  0  0  0  0  0  0  0  0  0  0  0
   -3.8820    5.1940    2.5350 C   0  0  0  0  0  0  0  0  0  0  0  0
   -3.8830    5.5130    1.1340 C   0  0  0  0  0  0  0  0  0  0  0  0
   -4.4680    6.6870    0.7300 C   0  0  0  0  0  0  0  0  0  0  0  0
   -4.9910    7.7590    0.3820 N   0  0  0  0  0  0  0  0  0  0  0  0
   -3.2910    4.5760    0.3290 C   0  0  0  0  0  0  0  0  0  0  0  0
   -4.0290    1.2980   -1.1520 C   0  0  0  0  0  0  0  0  0  0  0  0
   -4.7160    0.1300   -1.1840 C   0  0  0  0  0  0  0  0  0  0  0  0
   -4.3680   -1.0180   -0.4530 C   0  0  0  0  0  0  0  0  0  0  0  0
   -5.1490   -2.2300   -0.5840 C   0  0  0  0  0  0  0  0  0  0  0  0
   -6.1890   -2.4090   -1.4870 C   0  0  0  0  0  0  0  0  0  0  0  0
   -6.7160   -3.6740   -1.4050 C   0  0  0  0  0  0  0  0  0  0  0  0
   -5.9740   -4.2910   -0.4180 C   0  0  0  0  0  0  0  0  0  0  0  0
   -5.0580   -3.4170    0.0500 N   0  0  0  0  0  0  0  0  0  0  0  0
   -3.2590   -0.9540    0.3400 C   0  0  0  0  0  0  0  0  0  0  0  0
   -2.8410   -1.9550    1.0530 O   0  0  0  0  0  0  0  0  0  0  0  0
   -1.7840   -1.9530    1.8090 C   0  0  0  0  0  0  0  0  0  0  0  0
   -1.4260   -2.9670    2.4900 O   0  0  0  0  0  0  0  0  0  0  0  0
  1  2  1  0
  2  3  1  0
  3  4  1  0
  4  5  1  0
  5  6  2  0
  5 16  1  0
  6  7  1  0
  7  8  1  0
  7 14  2  0
  8  9  2  0
  8 13  1  0
  9 10  1  0
 10 11  1  6
 10 12  1  0
 12 13  2  0
 14 15  1  0
 15 16  2  0
 16 17  1  0
 17 18  1  0
 18 19  1  0
 19 20  2  0
 19 42  1  0
 20 21  1  0
 21 22  2  0
 21 40  1  0
 22 23  1  0
 22 32  1  0
 23 24  1  0
 24 25  2  0
 24 31  1  0
 25 26  1  0
 26 27  2  0
 27 28  1  0
 28 29  1  0
 28 31  2  0
 29 30  3  0
 32 33  2  0
 33 34  1  0
 34 35  1  0
 34 40  2  0
 35 36  2  0
 35 39  1  0
 36 37  1  0
 37 38  2  0
 38 39  1  0
 40 41  1  0
 41 42  1  0
 42 43  2  0
M  END
