
     RDKit          3D

 43 48  0  0  0  0  0  0  0  0999 V2000
   11.2770   -2.4090    0.2160 C   0  0  0  0  0  0  0  0  0  0  0  0
    9.9360   -1.7910    0.1270 C   0  0  0  0  0  0  0  0  0  0  0  0
    9.6960   -0.5640    0.7190 C   0  0  0  0  0  0  0  0  0  0  0  0
    8.4560    0.0440    0.6550 C   0  0  0  0  0  0  0  0  0  0  0  0
    7.4520   -0.6150   -0.0240 C   0  0  0  0  0  0  0  0  0  0  0  0
    6.2170   -0.0220   -0.0940 O   0  0  0  0  0  0  0  0  0  0  0  0
    5.0790   -0.5210   -0.7330 C   0  0  0  0  0  0  0  0  0  0  0  0
    3.9830    0.4940   -0.5320 C   0  0  0  0  0  0  0  0  0  0  0  0
    2.8880    0.2640   -1.0670 O   0  0  0  0  0  0  0  0  0  0  0  0
    4.1730    1.6570    0.2240 N   0  0  0  0  0  0  0  0  0  0  0  0
    3.2310    2.6830    0.4750 C   0  0  0  0  0  0  0  0  0  0  0  0
    3.4860    3.6010    1.5030 C   0  0  0  0  0  0  0  0  0  0  0  0
    2.6440    4.6330    1.8010 C   0  0  0  0  0  0  0  0  0  0  0  0
    1.4720    4.8090    1.0680 C   0  0  0  0  0  0  0  0  0  0  0  0
    1.1970    3.9280    0.0570 C   0  0  0  0  0  0  0  0  0  0  0  0
    0.0340    4.0790   -0.7130 N   0  0  0  0  0  0  0  0  0  0  0  0
   -0.9100    3.2410   -0.6280 C   0  0  0  0  0  0  0  0  0  0  0  0
   -1.1730    2.1380    0.0390 N   0  0  0  0  0  0  0  0  0  0  0  0
   -2.3080    1.4980   -0.1390 C   0  0  0  0  0  0  0  0  0  0  0  0
   -2.6930    0.3130    0.5180 C   0  0  0  0  0  0  0  0  0  0  0  0
   -3.8980   -0.2910    0.2720 C   0  0  0  0  0  0  0  0  0  0  0  0
   -4.2420   -1.5240    0.9650 C   0  0  0  0  0  0  0  0  0  0  0  0
   -4.6090   -2.7280    0.4490 C   0  0  0  0  0  0  0  0  0  0  0  0
   -4.8010   -3.6450    1.4900 C   0  0  0  0  0  0  0  0  0  0  0  0
   -4.5470   -2.9870    2.6320 N   0  0  0  0  0  0  0  0  0  0  0  0
   -4.6270   -3.5720    3.9810 C   0  0  0  0  0  0  0  0  0  0  0  0
   -4.2120   -1.7190    2.3350 C   0  0  0  0  0  0  0  0  0  0  0  0
   -3.8800   -0.7440    3.3520 C   0  0  0  0  0  0  0  0  0  0  0  0
   -3.8700   -0.9780    4.5830 O   0  0  0  0  0  0  0  0  0  0  0  0
   -4.8180    0.2240   -0.6380 C   0  0  0  0  0  0  0  0  0  0  0  0
   -6.1160   -0.4160   -0.9470 C   0  0  0  0  0  0  0  0  0  0  0  0
   -6.8550    0.4360   -1.8590 N   0  0  0  0  0  0  0  0  0  0  0  0
   -7.2860    1.6760   -1.2400 C   0  0  0  0  0  0  0  0  0  0  0  0
   -8.7500    1.4490   -0.8800 C   0  0  0  0  0  0  0  0  0  0  0  0
   -9.2290    0.5880   -2.0220 C   0  0  0  0  0  0  0  0  0  0  0  0
   -8.0150   -0.1860   -2.4100 C   0  0  0  0  0  0  0  0  0  0  0  0
   -4.4470    1.3880   -1.2880 C   0  0  0  0  0  0  0  0  0  0  0  0
   -3.2080    1.9780   -1.0130 C   0  0  0  0  0  0  0  0  0  0  0  0
   -2.4570    3.4170   -1.6480 S   0  0  0  0  0  0  0  0  0  0  0  0
    2.0780    2.8780   -0.2250 C   0  0  0  0  0  0  0  0  0  0  0  0
    7.6670   -1.8480   -0.6270 C   0  0  0  0  0  0  0  0  0  0  0  0
    8.9140   -2.4250   -0.5440 C   0  0  0  0  0  0  0  0  0  0  0  0
    9.1210   -3.7560   -1.2010 C   0  0  0  0  0  0  0  0  0  0  0  0
  1  2  1  0
  2  3  2  0
  2 42  1  0
  3  4  1  0
  4  5  2  0
  5  6  1  0
  5 41  1  0
  6  7  1  0
  7  8  1  0
  8  9  2  0
  8 10  1  0
 10 11  1  0
 11 12  2  0
 11 40  1  0
 12 13  1  0
 13 14  2  0
 14 15  1  0
 15 16  1  0
 15 40  2  0
 16 17  2  3
 17 18  1  0
 17 39  1  0
 18 19  1  0
 19 20  2  0
 19 38  1  0
 20 21  1  0
 21 22  1  0
 21 30  2  0
 22 23  1  0
 22 27  2  0
 23 24  2  0
 24 25  1  0
 25 26  1  0
 25 27  1  0
 27 28  1  0
 28 29  2  0
 30 31  1  0
 30 37  1  0
 31 32  1  0
 32 33  1  0
 32 36  1  0
 33 34  1  0
 34 35  1  0
 35 36  1  0
 37 38  2  0
 38 39  1  0
 41 42  2  0
 42 43  1  0
M  END
