
     RDKit          3D

 43 47  0  0  0  0  0  0  0  0999 V2000
   12.2510   -2.2320    0.8100 C   0  0  0  0  0  0  0  0  0  0  0  0
   11.0210   -1.4670    0.4090 C   0  0  0  0  0  0  0  0  0  0  0  0
    9.8610   -1.5350    1.1500 C   0  0  0  0  0  0  0  0  0  0  0  0
    8.7240   -0.8100    0.7530 C   0  0  0  0  0  0  0  0  0  0  0  0
    8.7330   -0.0300   -0.3620 C   0  0  0  0  0  0  0  0  0  0  0  0
    7.3290    0.9020   -0.8900 S   0  0  0  0  0  0  0  0  0  0  0  0
    7.4300    2.5260   -0.1830 C   0  0  0  0  0  0  0  0  0  0  0  0
    8.2180    3.4830   -0.8030 C   0  0  0  0  0  0  0  0  0  0  0  0
    8.3140    4.7480   -0.2670 C   0  0  0  0  0  0  0  0  0  0  0  0
    7.6180    5.0650    0.8970 C   0  0  0  0  0  0  0  0  0  0  0  0
    6.8300    4.1210    1.5210 C   0  0  0  0  0  0  0  0  0  0  0  0
    6.7450    2.8290    0.9570 C   0  0  0  0  0  0  0  0  0  0  0  0
    5.8850    1.8300    1.5560 C   0  0  0  0  0  0  0  0  0  0  0  0
    5.3320    2.0290    2.6700 O   0  0  0  0  0  0  0  0  0  0  0  0
    5.6630    0.6130    0.8740 N   0  0  0  0  0  0  0  0  0  0  0  0
    4.4610    0.2210    0.5600 C   0  0  0  0  0  0  0  0  0  0  0  0
    4.0750   -0.8930   -0.0800 N   0  0  0  0  0  0  0  0  0  0  0  0
    2.7360   -0.9010   -0.2000 N   0  0  0  0  0  0  0  0  0  0  0  0
    2.2670    0.2070    0.3620 C   0  0  0  0  0  0  0  0  0  0  0  0
    0.9000    0.7300    0.5340 C   0  0  0  0  0  0  0  0  0  0  0  0
    0.0090   -0.2910    0.0920 O   0  0  0  0  0  0  0  0  0  0  0  0
   -1.3510   -0.1580    0.1050 C   0  0  0  0  0  0  0  0  0  0  0  0
   -1.8230    0.9290    0.5240 O   0  0  0  0  0  0  0  0  0  0  0  0
   -2.2770   -1.2000   -0.3360 C   0  0  0  0  0  0  0  0  0  0  0  0
   -1.8430   -2.4270   -0.7820 C   0  0  0  0  0  0  0  0  0  0  0  0
   -2.7360   -3.4140   -1.1910 C   0  0  0  0  0  0  0  0  0  0  0  0
   -4.0960   -3.2060   -1.1680 C   0  0  0  0  0  0  0  0  0  0  0  0
   -5.0770   -4.2420   -1.6010 C   0  0  0  0  0  0  0  0  0  0  0  0
   -4.5400   -1.9710   -0.7210 C   0  0  0  0  0  0  0  0  0  0  0  0
   -5.9990   -1.7780   -0.6670 C   0  0  0  0  0  0  0  0  0  0  0  0
   -6.3280   -0.4620   -0.2630 N   0  0  0  0  0  0  0  0  0  0  0  0
   -6.0010    0.5320   -1.2240 C   0  0  0  0  0  0  0  0  0  0  0  0
   -7.3060    0.5640   -2.0320 C   0  0  0  0  0  0  0  0  0  0  0  0
   -8.3680    0.4930   -0.9140 C   0  0  0  0  0  0  0  0  0  0  0  0
   -7.6660   -0.2440    0.1630 C   0  0  2  0  0  0  0  0  0  0  0  0
   -7.6800    0.3910    1.5140 C   0  0  0  0  0  0  0  0  0  0  0  0
   -9.0050    0.6340    2.1180 C   0  0  1  0  0  0  0  0  0  0  0  0
   -9.9400    1.5410    1.3910 C   0  0  0  0  0  0  0  0  0  0  0  0
   -9.7750   -0.6840    2.3330 C   0  0  0  0  0  0  0  0  0  0  0  0
   -3.6420   -0.9940   -0.3140 C   0  0  0  0  0  0  0  0  0  0  0  0
    3.3470    0.8950    0.8300 N   0  0  0  0  0  0  0  0  0  0  0  0
    9.9000    0.0280   -1.0930 C   0  0  0  0  0  0  0  0  0  0  0  0
   11.0200   -0.6740   -0.7160 C   0  0  0  0  0  0  0  0  0  0  0  0
  1  2  1  0
  2  3  2  0
  2 43  1  0
  3  4  1  0
  4  5  2  0
  5  6  1  0
  5 42  1  0
  6  7  1  0
  7  8  2  0
  7 12  1  0
  8  9  1  0
  9 10  2  0
 10 11  1  0
 11 12  2  0
 12 13  1  0
 13 14  2  0
 13 15  1  0
 15 16  2  3
 16 17  1  0
 16 41  1  0
 17 18  1  0
 18 19  2  0
 19 20  1  0
 19 41  1  0
 20 21  1  0
 21 22  1  0
 22 23  2  0
 22 24  1  0
 24 25  2  0
 24 40  1  0
 25 26  1  0
 26 27  2  0
 27 28  1  0
 27 29  1  0
 29 30  1  0
 29 40  2  0
 30 31  1  0
 31 32  1  0
 31 35  1  0
 32 33  1  0
 33 34  1  0
 34 35  1  0
 35 36  1  1
 36 37  1  0
 37 38  1  6
 37 39  1  0
 42 43  2  0
M  END
