
     RDKit          3D

 43 48  0  0  0  0  0  0  0  0999 V2000
  -10.2030    0.3480   -0.0660 C   0  0  0  0  0  0  0  0  0  0  0  0
   -9.1890    0.1590    0.9950 C   0  0  0  0  0  0  0  0  0  0  0  0
   -7.9910    1.0410    0.9930 C   0  0  2  0  0  0  0  0  0  0  0  0
   -7.1540    0.6040    2.2100 C   0  0  0  0  0  0  0  0  0  0  0  0
   -8.4650    2.4470    1.3690 C   0  0  0  0  0  0  0  0  0  0  0  0
   -7.1670    1.0350   -0.1500 N   0  0  0  0  0  0  0  0  0  0  0  0
   -7.7000    1.5140   -1.3750 C   0  0  0  0  0  0  0  0  0  0  0  0
   -6.4280    2.6430   -2.1450 S   0  0  0  0  0  0  0  0  0  0  0  0
   -5.0120    1.5130   -2.1430 C   0  0  0  0  0  0  0  0  0  0  0  0
   -4.8480    0.8760   -0.9950 C   0  0  0  0  0  0  0  0  0  0  0  0
   -3.7620   -0.0850   -0.7920 C   0  0  0  0  0  0  0  0  0  0  0  0
   -3.6510   -0.8550    0.3440 C   0  0  0  0  0  0  0  0  0  0  0  0
   -2.5940   -1.7510    0.5410 C   0  0  0  0  0  0  0  0  0  0  0  0
   -1.6010   -1.9080   -0.4030 C   0  0  0  0  0  0  0  0  0  0  0  0
   -0.5590   -2.8680   -0.1720 N   0  0  0  0  0  0  0  0  0  0  0  0
    0.7930   -2.6270   -0.4450 C   0  0  0  0  0  0  0  0  0  0  0  0
    1.3050   -1.3860   -0.7510 C   0  0  0  0  0  0  0  0  0  0  0  0
    2.6460   -1.1540   -0.9710 C   0  0  0  0  0  0  0  0  0  0  0  0
    3.1030    0.1990   -1.2840 C   0  0  0  0  0  0  0  0  0  0  0  0
    2.4220    0.9180   -2.2410 C   0  0  0  0  0  0  0  0  0  0  0  0
    2.8540    2.2050   -2.5550 C   0  0  0  0  0  0  0  0  0  0  0  0
    3.9450    2.7360   -1.9110 C   0  0  0  0  0  0  0  0  0  0  0  0
    4.6200    1.9820   -0.9410 C   0  0  0  0  0  0  0  0  0  0  0  0
    4.2060    0.7120   -0.6200 C   0  0  0  0  0  0  0  0  0  0  0  0
    4.8220   -0.0580    0.3140 O   0  0  0  0  0  0  0  0  0  0  0  0
    5.9310    0.2230    1.0940 C   0  0  0  0  0  0  0  0  0  0  0  0
    7.1810    0.4940    0.3890 C   0  0  0  0  0  0  0  0  0  0  0  0
    7.2520    0.4600   -0.8580 O   0  0  0  0  0  0  0  0  0  0  0  0
    8.3450    0.8070    1.1330 N   0  0  0  0  0  0  0  0  0  0  0  0
    9.5970    1.0800    0.4630 C   0  0  0  0  0  0  0  0  0  0  0  0
   10.7010    0.2890    1.1520 C   0  0  0  0  0  0  0  0  0  0  0  0
   10.7370    0.7090    2.4820 O   0  0  0  0  0  0  0  0  0  0  0  0
    9.6070    0.2090    3.1130 C   0  0  0  0  0  0  0  0  0  0  0  0
    8.3520    0.8700    2.5820 C   0  0  0  0  0  0  0  0  0  0  0  0
    3.5180   -2.2120   -0.8820 C   0  0  0  0  0  0  0  0  0  0  0  0
    3.0160   -3.4550   -0.5770 C   0  0  0  0  0  0  0  0  0  0  0  0
    3.6300   -4.7060   -0.4150 C   0  0  0  0  0  0  0  0  0  0  0  0
    2.6720   -5.6000   -0.1170 N   0  0  0  0  0  0  0  0  0  0  0  0
    1.4930   -5.0140   -0.0750 N   0  0  0  0  0  0  0  0  0  0  0  0
    1.6870   -3.6930   -0.3570 C   0  0  0  0  0  0  0  0  0  0  0  0
   -1.6980   -1.1500   -1.5390 C   0  0  0  0  0  0  0  0  0  0  0  0
   -2.7610   -0.2580   -1.7210 C   0  0  0  0  0  0  0  0  0  0  0  0
   -5.8040    1.2490    0.0740 C   0  0  0  0  0  0  0  0  0  0  0  0
  1  2  1  0
  2  3  1  0
  3  4  1  1
  3  5  1  0
  3  6  1  0
  6  7  1  0
  6 43  1  0
  7  8  1  0
  8  9  1  0
  9 10  2  0
 10 11  1  0
 10 43  1  0
 11 12  2  0
 11 42  1  0
 12 13  1  0
 13 14  2  0
 14 15  1  0
 14 41  1  0
 15 16  1  0
 16 17  2  0
 16 40  1  0
 17 18  1  0
 18 19  1  0
 18 35  2  0
 19 20  2  0
 19 24  1  0
 20 21  1  0
 21 22  2  0
 22 23  1  0
 23 24  2  0
 24 25  1  0
 25 26  1  0
 26 27  1  0
 27 28  2  0
 27 29  1  0
 29 30  1  0
 29 34  1  0
 30 31  1  0
 31 32  1  0
 32 33  1  0
 33 34  1  0
 35 36  1  0
 36 37  1  0
 36 40  2  0
 37 38  2  0
 38 39  1  0
 39 40  1  0
 41 42  2  0
M  END
