
     RDKit          3D

 43 48  0  0  0  0  0  0  0  0999 V2000
    9.3110   -1.2840   -1.0610 C   0  0  0  0  0  0  0  0  0  0  0  0
    8.1800   -1.6050   -1.8430 O   0  0  0  0  0  0  0  0  0  0  0  0
    6.9340   -1.5940   -1.2150 C   0  0  0  0  0  0  0  0  0  0  0  0
    6.7740   -1.2840    0.1210 C   0  0  0  0  0  0  0  0  0  0  0  0
    5.5480   -1.2730    0.7410 C   0  0  0  0  0  0  0  0  0  0  0  0
    4.4160   -1.5770    0.0290 C   0  0  0  0  0  0  0  0  0  0  0  0
    2.8220   -1.5720    0.8000 S   0  0  1  0  0  0  0  0  0  0  0  0
    2.1110   -2.7540    0.2180 O   0  0  0  0  0  0  0  0  0  0  0  0
    3.0620   -1.7720    2.2700 O   0  0  0  0  0  0  0  0  0  0  0  0
    2.0720   -0.1000    0.5350 N   0  0  0  0  0  0  0  0  0  0  0  0
    2.6910    1.0680    1.0280 C   0  0  0  0  0  0  0  0  0  0  0  0
    3.5620    1.7070   -0.0520 C   0  0  1  0  0  0  0  0  0  0  0  0
    2.7100    2.0870   -1.2610 C   0  0  0  0  0  0  0  0  0  0  0  0
    4.2080    2.9680    0.4740 C   0  0  0  0  0  0  0  0  0  0  0  0
    0.7050   -0.0690    0.2040 C   0  0  0  0  0  0  0  0  0  0  0  0
   -0.2910   -0.0460    1.3000 C   0  0  1  0  0  0  0  0  0  0  0  0
   -0.0370    1.1320    2.0760 O   0  0  0  0  0  0  0  0  0  0  0  0
   -1.7130   -0.0030    0.8570 C   0  0  2  0  0  0  0  0  0  0  0  0
   -2.2930   -1.0910    0.0810 C   0  0  0  0  0  0  0  0  0  0  0  0
   -2.3970   -2.4740    0.5590 C   0  0  2  0  0  0  0  0  0  0  0  0
   -3.1630   -2.6480    1.8410 C   0  0  0  0  0  0  0  0  0  0  0  0
   -3.1780   -4.1240    2.1890 C   0  0  1  0  0  0  0  0  0  0  0  0
   -4.0730   -4.8520    1.2030 C   0  0  0  0  0  0  0  0  0  0  0  0
   -3.4970   -4.6380   -0.1610 C   0  0  2  0  0  0  0  0  0  0  0  0
   -2.1680   -5.3670   -0.2140 C   0  0  0  0  0  0  0  0  0  0  0  0
   -1.2670   -4.7180    0.7800 C   0  0  2  0  0  0  0  0  0  0  0  0
   -1.8300   -4.7610    2.2000 C   0  0  0  0  0  0  0  0  0  0  0  0
   -1.1180   -3.2300    0.4720 C   0  0  0  0  0  0  0  0  0  0  0  0
   -3.3310   -3.2050   -0.4850 C   0  0  0  0  0  0  0  0  0  0  0  0
   -1.8300    1.2670    0.0880 N   0  0  0  0  0  0  0  0  0  0  0  0
   -2.5050    2.3940    0.5970 C   0  0  0  0  0  0  0  0  0  0  0  0
   -3.0430    2.3490    1.7570 O   0  0  0  0  0  0  0  0  0  0  0  0
   -2.6400    3.5900   -0.0810 O   0  0  0  0  0  0  0  0  0  0  0  0
   -3.3330    4.6810    0.4970 C   0  0  1  0  0  0  0  0  0  0  0  0
   -2.4180    5.8780    0.4610 C   0  0  0  0  0  0  0  0  0  0  0  0
   -3.1800    6.9840    0.1420 O   0  0  0  0  0  0  0  0  0  0  0  0
   -4.2460    6.5850   -0.6220 C   0  0  1  0  0  0  0  0  0  0  0  0
   -4.0820    6.7050   -1.9790 O   0  0  0  0  0  0  0  0  0  0  0  0
   -4.7790    5.6650   -2.5850 C   0  0  0  0  0  0  0  0  0  0  0  0
   -4.6410    4.4680   -1.6460 C   0  0  0  0  0  0  0  0  0  0  0  0
   -4.5110    5.1350   -0.3180 C   0  0  1  0  0  0  0  0  0  0  0  0
    4.5220   -1.8920   -1.3050 C   0  0  0  0  0  0  0  0  0  0  0  0
    5.7650   -1.8950   -1.8970 C   0  0  0  0  0  0  0  0  0  0  0  0
  1  2  1  0
  2  3  1  0
  3  4  2  0
  3 43  1  0
  4  5  1  0
  5  6  2  0
  6  7  1  0
  6 42  1  0
  7  8  2  0
  7  9  2  0
  7 10  1  1
 10 11  1  0
 10 15  1  0
 11 12  1  0
 12 13  1  6
 12 14  1  0
 15 16  1  0
 16 17  1  1
 16 18  1  0
 18 19  1  6
 18 30  1  0
 20 19  1  6
 20 21  1  0
 20 28  1  0
 20 29  1  0
 22 21  1  6
 22 23  1  0
 22 27  1  0
 23 24  1  0
 24 25  1  1
 24 29  1  0
 26 25  1  6
 26 27  1  0
 26 28  1  0
 30 31  1  0
 31 32  2  0
 31 33  1  0
 34 33  1  6
 34 35  1  0
 34 41  1  0
 35 36  1  0
 37 36  1  1
 37 38  1  0
 37 41  1  0
 38 39  1  0
 39 40  1  0
 41 40  1  6
 42 43  2  0
M  END
