
     RDKit          3D

 46 49  0  0  0  0  0  0  0  0999 V2000
   -2.7980    6.1870    0.4390 C   0  0  0  0  0  0  0  0  0  0  0  0
   -1.8210    5.4160   -0.3860 C   0  0  0  0  0  0  0  0  0  0  0  0
   -0.7540    4.7880    0.4610 C   0  0  2  0  0  0  0  0  0  0  0  0
   -0.0400    5.9190    1.1820 C   0  0  0  0  0  0  0  0  0  0  0  0
    0.2330    4.0080   -0.3870 C   0  0  0  0  0  0  0  0  0  0  0  0
    0.7560    2.8140    0.3980 C   0  0  0  0  0  0  0  0  0  0  0  0
   -0.3900    1.7790    0.6120 C   0  0  2  0  0  0  0  0  0  0  0  0
   -0.2550    0.8080   -0.4830 C   0  0  0  0  0  0  0  0  0  0  0  0
    0.2980   -0.5090   -0.0140 C   0  0  2  0  0  0  0  0  0  0  0  0
   -0.2030   -0.8630    1.2250 O   0  0  0  0  0  0  0  0  0  0  0  0
    1.7550   -0.7380   -0.1830 C   0  0  0  0  0  0  0  0  0  0  0  0
    2.6470   -0.1230    0.7320 N   0  0  0  0  0  0  0  0  0  0  0  0
    3.6950    0.5670    0.0200 C   0  0  0  0  0  0  0  0  0  0  0  0
    4.9760   -0.1590   -0.0600 C   0  0  0  0  0  0  0  0  0  0  0  0
    5.0940   -1.5070    0.1540 C   0  0  0  0  0  0  0  0  0  0  0  0
    6.3710   -2.0620    0.0500 C   0  0  0  0  0  0  0  0  0  0  0  0
    7.4770   -1.3030   -0.2540 C   0  0  0  0  0  0  0  0  0  0  0  0
    8.7490   -1.8540   -0.3580 O   0  0  0  0  0  0  0  0  0  0  0  0
    8.8970   -3.2320   -0.1440 C   0  0  0  0  0  0  0  0  0  0  0  0
    7.3630    0.0540   -0.4710 C   0  0  0  0  0  0  0  0  0  0  0  0
    8.4900    0.8110   -0.7780 O   0  0  0  0  0  0  0  0  0  0  0  0
    8.3980    2.2020   -1.0020 C   0  0  0  0  0  0  0  0  0  0  0  0
    6.1060    0.6030   -0.3690 C   0  0  0  0  0  0  0  0  0  0  0  0
   -0.3470   -1.6180   -0.9450 C   0  0  0  0  0  0  0  0  0  0  0  0
   -0.0070   -2.9190   -0.2990 C   0  0  0  0  0  0  0  0  0  0  0  0
    0.2760   -2.9420    0.9630 O   0  0  0  0  0  0  0  0  0  0  0  0
    0.0440   -4.1750   -0.9330 N   0  0  0  0  0  0  0  0  0  0  0  0
   -1.0000   -4.7450   -1.7200 C   0  0  0  0  0  0  0  0  0  0  0  0
   -2.3930   -4.4590   -1.2240 C   0  0  0  0  0  0  0  0  0  0  0  0
   -2.7900   -5.4700   -0.3120 C   0  0  0  0  0  0  0  0  0  0  0  0
   -3.9890   -5.4610    0.3450 C   0  0  0  0  0  0  0  0  0  0  0  0
   -4.3870   -6.5340    1.2950 C   0  0  0  0  0  0  0  0  0  0  0  0
   -4.7880   -4.3910    0.0560 C   0  0  0  0  0  0  0  0  0  0  0  0
   -4.4310   -3.3560   -0.8500 C   0  0  0  0  0  0  0  0  0  0  0  0
   -3.2160   -3.3990   -1.4950 C   0  0  0  0  0  0  0  0  0  0  0  0
   -5.5200   -2.3390   -0.8630 C   0  0  0  0  0  0  0  0  0  0  0  0
   -5.5610   -1.6230    0.3340 O   0  0  0  0  0  0  0  0  0  0  0  0
   -5.3290   -0.2610    0.1950 C   0  0  1  0  0  0  0  0  0  0  0  0
   -5.5690    0.4330    1.3690 O   0  0  0  0  0  0  0  0  0  0  0  0
   -6.5960    1.3590    1.2510 C   0  0  0  0  0  0  0  0  0  0  0  0
   -3.8570   -0.0630   -0.1980 C   0  0  0  0  0  0  0  0  0  0  0  0
   -3.6010    1.3490   -0.3760 N   0  0  0  0  0  0  0  0  0  0  0  0
   -2.9300    2.2780    0.4120 C   0  0  0  0  0  0  0  0  0  0  0  0
   -3.7650    3.1480    0.9520 O   0  0  0  0  0  0  0  0  0  0  0  0
   -1.6120    2.5220    0.7690 N   0  0  0  0  0  0  0  0  0  0  0  0
   -1.2740    3.8200    1.4790 C   0  0  0  0  0  0  0  0  0  0  0  0
  1  2  1  0
  2  3  1  0
  3  4  1  1
  3  5  1  0
  3 46  1  0
  5  6  1  0
  7  6  1  6
  7  8  1  0
  7 45  1  0
  8  9  1  0
  9 10  1  1
  9 11  1  0
  9 24  1  0
 11 12  1  0
 12 13  1  0
 13 14  1  0
 14 15  2  0
 14 23  1  0
 15 16  1  0
 16 17  2  0
 17 18  1  0
 17 20  1  0
 18 19  1  0
 20 21  1  0
 20 23  2  0
 21 22  1  0
 24 25  1  0
 25 26  2  0
 25 27  1  0
 27 28  1  0
 28 29  1  0
 29 30  1  0
 29 35  2  0
 30 31  2  0
 31 32  1  0
 31 33  1  0
 33 34  2  0
 34 35  1  0
 34 36  1  0
 36 37  1  0
 37 38  1  0
 38 39  1  1
 38 41  1  0
 39 40  1  0
 41 42  1  0
 42 43  1  0
 43 44  2  0
 43 45  1  0
 45 46  1  0
M  CHG  1  12   1
M  END
