
     RDKit          3D

 46 49  0  0  0  0  0  0  0  0999 V2000
   -3.3790   -5.3980   -0.9670 C   0  0  0  0  0  0  0  0  0  0  0  0
   -3.8840   -5.6640    0.2370 C   0  0  0  0  0  0  0  0  0  0  0  0
   -4.4630   -4.6130    1.0710 C   0  0  0  0  0  0  0  0  0  0  0  0
   -4.9450   -4.9350    2.2480 C   0  0  0  0  0  0  0  0  0  0  0  0
   -5.5330   -3.9030    3.1080 C   0  0  0  0  0  0  0  0  0  0  0  0
   -4.4970   -3.1850    0.5740 C   0  0  0  0  0  0  0  0  0  0  0  0
   -3.1790   -2.8260    0.3590 O   0  0  0  0  0  0  0  0  0  0  0  0
   -2.7610   -1.5490   -0.1160 C   0  0  0  0  0  0  0  0  0  0  0  0
   -3.7880   -0.6850   -0.3480 C   0  0  0  0  0  0  0  0  0  0  0  0
   -3.5020    0.5880   -0.8140 C   0  0  0  0  0  0  0  0  0  0  0  0
   -4.6100    1.4580   -1.0910 C   0  0  0  0  0  0  0  0  0  0  0  0
   -5.7730    0.8860   -1.2050 O   0  0  0  0  0  0  0  0  0  0  0  0
   -4.6520    2.8610   -1.2620 N   0  0  0  0  0  0  0  0  0  0  0  0
   -3.5620    3.7600   -1.1080 C   0  0  0  0  0  0  0  0  0  0  0  0
   -3.8920    5.1770   -0.6830 C   0  0  0  0  0  0  0  0  0  0  0  0
   -5.0930    5.7540   -1.3600 C   0  0  0  0  0  0  0  0  0  0  0  0
   -6.1990    4.7510   -1.1970 C   0  0  0  0  0  0  0  0  0  0  0  0
   -7.2420    5.0590   -0.6750 O   0  0  0  0  0  0  0  0  0  0  0  0
   -5.9580    3.3960   -1.6960 C   0  0  0  0  0  0  0  0  0  0  0  0
   -2.1830    0.8810   -1.0130 C   0  0  0  0  0  0  0  0  0  0  0  0
   -1.1000    0.0050   -0.7820 C   0  0  0  0  0  0  0  0  0  0  0  0
   -1.3940   -1.2710   -0.3080 C   0  0  0  0  0  0  0  0  0  0  0  0
   -0.5360   -2.2750    0.0800 N   0  0  0  0  0  0  0  0  0  0  0  0
    0.4960   -2.8150    0.4100 C   0  0  0  0  0  0  0  0  0  0  0  0
    0.3220   -4.3680    0.6980 C   0  0  0  0  0  0  0  0  0  0  0  0
    1.9130   -2.4350    0.6580 C   0  0  0  0  0  0  0  0  0  0  0  0
    2.2590   -2.7160    2.0010 C   0  0  0  0  0  0  0  0  0  0  0  0
    3.4920   -2.4960    2.5500 C   0  0  0  0  0  0  0  0  0  0  0  0
    4.4040   -1.9790    1.7250 N   0  0  0  0  0  0  0  0  0  0  0  0
    4.1560   -1.6710    0.3920 C   0  0  0  0  0  0  0  0  0  0  0  0
    2.9120   -1.8960   -0.1550 C   0  0  0  0  0  0  0  0  0  0  0  0
    5.4050   -1.1350   -0.2030 C   0  0  0  0  0  0  0  0  0  0  0  0
    6.3980   -0.5790    0.7820 C   0  0  0  0  0  0  0  0  0  0  0  0
    6.0120    0.6240    1.5640 C   0  0  1  0  0  0  0  0  0  0  0  0
    7.1150    1.7090    1.4760 C   0  0  0  0  0  0  0  0  0  0  0  0
    4.7510    1.2190    1.3170 N   0  0  0  0  0  0  0  0  0  0  0  0
    4.4130    2.3820    0.6220 C   0  0  0  0  0  0  0  0  0  0  0  0
    3.7080    3.2640    1.2490 O   0  0  0  0  0  0  0  0  0  0  0  0
    4.7530    2.7540   -0.7630 C   0  0  0  0  0  0  0  0  0  0  0  0
    3.5960    3.5220   -1.4220 C   0  0  1  0  0  0  0  0  0  0  0  0
    4.1350    4.1150   -2.5630 O   0  0  0  0  0  0  0  0  0  0  0  0
    2.4910    2.6190   -1.8410 C   0  0  0  0  0  0  0  0  0  0  0  0
    2.3660    1.3460   -1.0250 C   0  0  0  0  0  0  0  0  0  0  0  0
    1.2350    0.5770   -1.7050 C   0  0  0  0  0  0  0  0  0  0  0  0
    1.6750    0.1620   -2.8260 O   0  0  0  0  0  0  0  0  0  0  0  0
    0.1230    0.5030   -1.0500 O   0  0  0  0  0  0  0  0  0  0  0  0
  1  2  2  0
  2  3  1  0
  3  4  2  3
  3  6  1  0
  4  5  1  0
  6  7  1  0
  7  8  1  0
  8  9  2  0
  8 22  1  0
  9 10  1  0
 10 11  1  0
 10 20  2  0
 11 12  2  0
 11 13  1  0
 13 14  1  0
 13 19  1  0
 14 15  1  0
 15 16  1  0
 16 17  1  0
 17 18  2  0
 17 19  1  0
 20 21  1  0
 21 22  2  0
 21 46  1  0
 22 23  1  0
 23 24  2  0
 24 25  1  0
 24 26  1  0
 26 27  2  0
 26 31  1  0
 27 28  1  0
 28 29  2  0
 29 30  1  0
 30 31  2  0
 30 32  1  0
 32 33  1  0
 33 34  1  0
 34 35  1  6
 34 36  1  0
 36 37  1  0
 37 38  2  0
 37 39  1  0
 39 40  1  0
 40 41  1  6
 40 42  1  0
 42 43  1  0
 43 44  1  0
 44 45  2  0
 44 46  1  0
M  CHG  1  29   1
M  END
