
     RDKit          3D

 45 47  0  0  0  0  0  0  0  0999 V2000
   -2.6420    1.7820    3.9020 C   0  0  0  0  0  0  0  0  0  0  0  0
   -2.3210    1.0080    2.8600 O   0  0  0  0  0  0  0  0  0  0  0  0
   -2.1610   -0.2790    2.4870 C   0  0  0  0  0  0  0  0  0  0  0  0
   -2.3990   -1.3060    3.3410 C   0  0  0  0  0  0  0  0  0  0  0  0
   -2.2290   -2.6380    2.9750 C   0  0  0  0  0  0  0  0  0  0  0  0
   -1.7960   -2.8730    1.6820 C   0  0  0  0  0  0  0  0  0  0  0  0
   -1.6170   -4.5530    1.1350 S   0  0  0  0  0  0  0  0  0  0  0  0
   -3.0130   -5.1600    0.1470 C   0  0  0  0  0  0  0  0  0  0  0  0
   -1.5710   -1.8670    0.8550 C   0  0  0  0  0  0  0  0  0  0  0  0
   -1.7250   -0.4740    1.1450 C   0  0  0  0  0  0  0  0  0  0  0  0
   -1.6100    0.4880    0.1460 C   0  0  1  0  0  0  0  0  0  0  0  0
   -0.2480    0.3670   -0.6660 C   0  0  0  0  0  0  0  0  0  0  0  0
    0.8200    0.9370    0.2140 N   0  0  0  0  0  0  0  0  0  0  0  0
    2.1790    0.5590   -0.0660 C   0  0  0  0  0  0  0  0  0  0  0  0
    2.2540   -0.2680   -1.0640 O   0  0  0  0  0  0  0  0  0  0  0  0
    3.2860    0.9600    0.6060 N   0  0  0  0  0  0  0  0  0  0  0  0
    4.5480    0.2840    0.5040 N   0  0  0  0  0  0  0  0  0  0  0  0
    4.5170   -1.1340    0.1380 C   0  0  0  0  0  0  0  0  0  0  0  0
    3.4160   -1.6320   -0.1090 O   0  0  0  0  0  0  0  0  0  0  0  0
    5.7920   -1.9310    0.0680 C   0  0  0  0  0  0  0  0  0  0  0  0
    6.9450   -1.1440    0.2340 N   0  0  0  0  0  0  0  0  0  0  0  0
    7.3970   -0.3310    1.2430 C   0  0  0  0  0  0  0  0  0  0  0  0
    6.7160   -0.1800    2.2810 O   0  0  0  0  0  0  0  0  0  0  0  0
    8.6830    0.3580    1.1010 C   0  0  0  0  0  0  0  0  0  0  0  0
    9.5810    0.0170    0.2570 C   0  0  0  0  0  0  0  0  0  0  0  0
    9.6620   -1.0770   -0.7100 C   0  0  0  0  0  0  0  0  0  0  0  0
   10.6590    1.1170   -0.0320 C   0  0  0  0  0  0  0  0  0  0  0  0
   -2.5220    1.2050   -0.7620 C   0  0  2  0  0  0  0  0  0  0  0  0
   -3.3050    2.1460    0.1200 C   0  0  0  0  0  0  0  0  0  0  0  0
   -3.9140    3.3540   -0.5810 C   0  0  0  0  0  0  0  0  0  0  0  0
   -3.3850    3.9940   -1.6640 C   0  0  0  0  0  0  0  0  0  0  0  0
   -3.6990    5.2300   -1.9080 C   0  0  0  0  0  0  0  0  0  0  0  0
   -4.6210    5.8900   -1.0270 C   0  0  0  0  0  0  0  0  0  0  0  0
   -4.9330    7.0500   -0.7340 C   0  0  0  0  0  0  0  0  0  0  0  0
   -5.3060    8.3550   -0.3900 N   0  0  0  0  0  0  0  0  0  0  0  0
   -4.9310    4.4100    0.1730 S   0  0  0  0  0  0  0  0  0  0  0  0
   -3.6130    0.2360   -1.2640 C   0  0  0  0  0  0  0  0  0  0  0  0
   -4.9230    0.3910   -1.0320 C   0  0  0  0  0  0  0  0  0  0  0  0
   -5.8970   -0.5510   -1.5130 C   0  0  0  0  0  0  0  0  0  0  0  0
   -7.3470   -0.3230   -1.4350 C   0  0  0  0  0  0  0  0  0  0  0  0
   -5.3340   -1.5940   -2.2020 C   0  0  0  0  0  0  0  0  0  0  0  0
   -4.0140   -1.7970   -2.4620 C   0  0  0  0  0  0  0  0  0  0  0  0
   -3.3950   -3.0420   -2.9790 C   0  0  0  0  0  0  0  0  0  0  0  0
   -3.1160   -0.8160   -1.9750 C   0  0  0  0  0  0  0  0  0  0  0  0
   -1.7920   -1.0160   -2.2650 O   0  0  0  0  0  0  0  0  0  0  0  0
  1  2  1  0
  2  3  1  0
  3  4  2  0
  3 10  1  0
  4  5  1  0
  5  6  2  0
  6  7  1  0
  6  9  1  0
  7  8  1  0
  9 10  2  0
 10 11  1  0
 11 12  1  6
 11 28  1  0
 12 13  1  0
 13 14  1  0
 14 15  2  0
 14 16  1  0
 16 17  1  0
 17 18  1  0
 18 19  2  0
 18 20  1  0
 20 21  1  0
 21 22  1  0
 22 23  2  0
 22 24  1  0
 24 25  2  3
 25 26  1  0
 25 27  1  0
 28 29  1  1
 28 37  1  0
 29 30  1  0
 30 31  2  0
 30 36  1  0
 31 32  1  0
 32 33  2  0
 33 34  1  0
 33 36  1  0
 34 35  3  0
 37 38  2  0
 37 44  1  0
 38 39  1  0
 39 40  1  0
 39 41  2  0
 41 42  1  0
 42 43  1  0
 42 44  2  0
 44 45  1  0
M  END
