
     RDKit          3D

 45 48  0  0  0  0  0  0  0  0999 V2000
   -4.9300   -2.1340   -3.7430 C   0  0  0  0  0  0  0  0  0  0  0  0
   -3.8110   -2.5240   -2.3750 S   0  0  0  0  0  0  0  0  0  0  0  0
   -3.9920   -1.3810   -1.0430 C   0  0  0  0  0  0  0  0  0  0  0  0
   -4.8850   -1.6430   -0.0300 C   0  0  0  0  0  0  0  0  0  0  0  0
   -5.0200   -0.7650    1.0170 C   0  0  0  0  0  0  0  0  0  0  0  0
   -4.2590    0.3870    1.0670 C   0  0  0  0  0  0  0  0  0  0  0  0
   -3.3510    0.6380    0.0200 C   0  0  0  0  0  0  0  0  0  0  0  0
   -3.2230   -0.2490   -1.0300 C   0  0  0  0  0  0  0  0  0  0  0  0
   -2.2410    0.0550   -2.1280 C   0  0  0  0  0  0  0  0  0  0  0  0
   -4.5180    1.1570    2.2050 N   0  0  0  0  0  0  0  0  0  0  0  0
   -3.9980    2.3350    2.7300 C   0  0  0  0  0  0  0  0  0  0  0  0
   -4.8710    2.9710    3.4940 O   0  0  0  0  0  0  0  0  0  0  0  0
   -2.7500    2.9870    2.6250 C   0  0  0  0  0  0  0  0  0  0  0  0
   -2.6570    4.3410    2.9880 C   0  0  0  0  0  0  0  0  0  0  0  0
   -1.4590    5.0090    2.9900 C   0  0  0  0  0  0  0  0  0  0  0  0
   -0.3150    4.3280    2.6270 C   0  0  0  0  0  0  0  0  0  0  0  0
   -0.3310    3.0070    2.2630 C   0  0  0  0  0  0  0  0  0  0  0  0
    0.8380    2.3200    1.8800 N   0  0  0  0  0  0  0  0  0  0  0  0
    2.0630    2.8820    1.4660 C   0  0  0  0  0  0  0  0  0  0  0  0
    2.1800    4.1230    1.4050 O   0  0  0  0  0  0  0  0  0  0  0  0
    3.2250    2.0430    1.0990 C   0  0  0  0  0  0  0  0  0  0  0  0
    3.1250    0.7990    1.1910 O   0  0  0  0  0  0  0  0  0  0  0  0
    4.4370    2.6280    0.6500 N   0  0  0  0  0  0  0  0  0  0  0  0
    5.6180    1.9170    0.2720 C   0  0  0  0  0  0  0  0  0  0  0  0
    5.3790    0.9550   -0.8750 C   0  0  2  0  0  0  0  0  0  0  0  0
    6.5310    0.2750   -1.2600 O   0  0  0  0  0  0  0  0  0  0  0  0
    6.7210   -1.0970   -1.2130 C   0  0  0  0  0  0  0  0  0  0  0  0
    5.7450   -1.7730   -0.7720 O   0  0  0  0  0  0  0  0  0  0  0  0
    7.9600   -1.7300   -1.6390 C   0  0  0  0  0  0  0  0  0  0  0  0
    9.0070   -0.9890   -2.1270 C   0  0  0  0  0  0  0  0  0  0  0  0
   10.1900   -1.5630   -2.5410 C   0  0  0  0  0  0  0  0  0  0  0  0
   10.3680   -2.9310   -2.4810 C   0  0  0  0  0  0  0  0  0  0  0  0
    9.3150   -3.6950   -1.9900 C   0  0  0  0  0  0  0  0  0  0  0  0
    9.4620   -5.1760   -1.9050 C   0  0  0  0  0  0  0  0  0  0  0  0
    8.1260   -3.0940   -1.5730 C   0  0  0  0  0  0  0  0  0  0  0  0
    4.8820    1.7390   -2.0240 C   0  0  0  0  0  0  0  0  0  0  0  0
    3.7630    2.5810   -1.9930 N   0  0  0  0  0  0  0  0  0  0  0  0
    5.5270    1.6410   -3.1360 O   0  0  0  0  0  0  0  0  0  0  0  0
   -1.5730    2.3660    2.2740 C   0  0  0  0  0  0  0  0  0  0  0  0
   -5.5270    0.3980    2.9750 C   0  0  0  0  0  0  0  0  0  0  0  0
   -5.9180   -0.7880    2.1560 C   0  0  1  0  0  0  0  0  0  0  0  0
   -7.6570   -0.5480    1.7020 S   0  0  0  0  0  0  0  0  0  0  0  0
   -8.3610   -1.8700    0.7230 C   0  0  2  0  0  0  0  0  0  0  0  0
   -9.8250   -1.4850    0.4430 C   0  0  0  0  0  0  0  0  0  0  0  0
   -8.4050   -3.1420    1.5340 C   0  0  0  0  0  0  0  0  0  0  0  0
  1  2  1  0
  2  3  1  0
  3  4  2  0
  3  8  1  0
  4  5  1  0
  5  6  2  0
  5 41  1  0
  6  7  1  0
  6 10  1  0
  7  8  2  0
  8  9  1  0
 10 11  1  0
 10 40  1  0
 11 12  2  0
 11 13  1  0
 13 14  2  0
 13 39  1  0
 14 15  1  0
 15 16  2  0
 16 17  1  0
 17 18  1  0
 17 39  2  0
 18 19  1  0
 19 20  2  0
 19 21  1  0
 21 22  2  0
 21 23  1  0
 23 24  1  0
 25 24  1  1
 25 26  1  0
 25 36  1  0
 26 27  1  0
 27 28  2  0
 27 29  1  0
 29 30  2  0
 29 35  1  0
 30 31  1  0
 31 32  2  0
 32 33  1  0
 33 34  1  0
 33 35  2  0
 36 37  1  0
 36 38  2  0
 40 41  1  0
 41 42  1  6
 42 43  1  0
 43 44  1  1
 43 45  1  0
M  END
