
     RDKit          3D

 45 48  0  0  0  0  0  0  0  0999 V2000
   -4.0770   -2.6070   -2.8770 C   0  0  0  0  0  0  0  0  0  0  0  0
   -4.2880   -1.1250   -2.6770 C   0  0  0  0  0  0  0  0  0  0  0  0
   -4.1870   -0.7300   -1.2400 C   0  0  0  0  0  0  0  0  0  0  0  0
   -5.2410   -0.4300   -0.4110 N   0  0  0  0  0  0  0  0  0  0  0  0
   -4.7710   -0.1260    0.8000 C   0  0  0  0  0  0  0  0  0  0  0  0
   -5.4450    0.2360    2.0170 C   0  0  0  0  0  0  0  0  0  0  0  0
   -4.6890    0.5140    3.0390 O   0  0  0  0  0  0  0  0  0  0  0  0
   -6.8070    0.3400    2.2880 N   0  0  0  0  0  0  0  0  0  0  0  0
   -7.1880    0.7780    3.6510 C   0  0  0  0  0  0  0  0  0  0  0  0
   -7.8530    0.0150    1.3750 C   0  0  0  0  0  0  0  0  0  0  0  0
   -8.2020    1.1820    0.5230 C   0  0  0  0  0  0  0  0  0  0  0  0
   -9.0890    1.1190   -0.3440 O   0  0  0  0  0  0  0  0  0  0  0  0
   -7.4780    2.4010    0.7310 N   0  0  0  0  0  0  0  0  0  0  0  0
   -7.7770    3.5510   -0.0620 C   0  0  0  0  0  0  0  0  0  0  0  0
   -3.3700   -0.2410    0.7140 C   0  0  0  0  0  0  0  0  0  0  0  0
   -3.0170   -0.6170   -0.5550 C   0  0  0  0  0  0  0  0  0  0  0  0
   -1.6660   -0.8550   -1.0900 C   0  0  0  0  0  0  0  0  0  0  0  0
   -1.5000   -0.5900   -2.3080 O   0  0  0  0  0  0  0  0  0  0  0  0
   -0.6270   -1.3450   -0.2910 N   0  0  0  0  0  0  0  0  0  0  0  0
    0.7510   -1.6410   -0.7070 C   0  0  1  0  0  0  0  0  0  0  0  0
    0.8090   -2.1150   -2.1160 C   0  0  0  0  0  0  0  0  0  0  0  0
   -0.0480   -3.3930   -2.2650 C   0  0  0  0  0  0  0  0  0  0  0  0
    1.6560   -0.6160   -0.2570 C   0  0  0  0  0  0  0  0  0  0  0  0
    1.0940    0.4200    0.3960 O   0  0  0  0  0  0  0  0  0  0  0  0
    3.0460   -0.5330   -0.3890 N   0  0  0  0  0  0  0  0  0  0  0  0
    3.9310   -1.3410   -1.1340 C   0  0  0  0  0  0  0  0  0  0  0  0
    4.4610   -2.5660   -0.4100 C   0  0  0  0  0  0  0  0  0  0  0  0
    5.3500   -3.2740   -1.3630 C   0  0  0  0  0  0  0  0  0  0  0  0
    6.6510   -3.2000   -1.6240 C   0  0  0  0  0  0  0  0  0  0  0  0
    7.2050   -3.9660   -2.5710 C   0  0  0  0  0  0  0  0  0  0  0  0
    6.3960   -4.8440   -3.2780 C   0  0  0  0  0  0  0  0  0  0  0  0
    4.7490   -4.5310   -2.5220 S   0  0  0  0  0  0  0  0  0  0  0  0
    3.7330    0.5830    0.3060 C   0  0  0  0  0  0  0  0  0  0  0  0
    4.3630    1.5310   -0.4540 C   0  0  0  0  0  0  0  0  0  0  0  0
    5.0390    2.6020    0.1500 C   0  0  0  0  0  0  0  0  0  0  0  0
    5.0320    2.6450    1.5350 C   0  0  0  0  0  0  0  0  0  0  0  0
    5.7450    3.7640    2.1590 C   0  0  0  0  0  0  0  0  0  0  0  0
    6.8490    4.2630    1.5200 C   0  0  0  0  0  0  0  0  0  0  0  0
    7.5470    5.3250    2.0880 C   0  0  0  0  0  0  0  0  0  0  0  0
    7.1290    5.8170    3.2160 O   0  0  0  0  0  0  0  0  0  0  0  0
    6.0870    5.3880    3.8750 C   0  0  0  0  0  0  0  0  0  0  0  0
    5.7130    5.8990    4.9780 O   0  0  0  0  0  0  0  0  0  0  0  0
    5.3700    4.3360    3.3420 C   0  0  0  0  0  0  0  0  0  0  0  0
    4.3860    1.6730    2.2730 C   0  0  0  0  0  0  0  0  0  0  0  0
    3.7110    0.6030    1.6710 C   0  0  0  0  0  0  0  0  0  0  0  0
  1  2  1  0
  2  3  1  0
  3  4  1  0
  3 16  2  0
  4  5  1  0
  5  6  1  0
  5 15  2  0
  6  7  2  0
  6  8  1  0
  8  9  1  0
  8 10  1  0
 10 11  1  0
 11 12  2  0
 11 13  1  0
 13 14  1  0
 15 16  1  0
 16 17  1  0
 17 18  2  0
 17 19  1  0
 19 20  1  0
 20 21  1  6
 20 23  1  0
 21 22  1  0
 23 24  2  0
 23 25  1  0
 25 26  1  0
 25 33  1  0
 26 27  1  0
 27 28  1  0
 28 29  2  0
 28 32  1  0
 29 30  1  0
 30 31  2  0
 31 32  1  0
 33 34  2  0
 33 45  1  0
 34 35  1  0
 35 36  2  0
 36 37  1  0
 36 44  1  0
 37 38  1  0
 37 43  2  0
 38 39  2  0
 39 40  1  0
 40 41  1  0
 41 42  2  0
 41 43  1  0
 44 45  2  0
M  END
