
     RDKit          3D

 45 49  0  0  0  0  0  0  0  0999 V2000
   11.7540    1.4130   -1.0220 C   0  0  0  0  0  0  0  0  0  0  0  0
   10.3750    1.1860   -0.4470 C   0  0  2  0  0  0  0  0  0  0  0  0
   10.3510    0.2840    0.7460 C   0  0  0  0  0  0  0  0  0  0  0  0
    8.9190    0.3000    1.2620 C   0  0  0  0  0  0  0  0  0  0  0  0
    8.6470    0.1000    2.4660 O   0  0  0  0  0  0  0  0  0  0  0  0
    7.8420    0.5620    0.3220 C   0  0  0  0  0  0  0  0  0  0  0  0
    6.5070    0.6430    0.7560 C   0  0  0  0  0  0  0  0  0  0  0  0
    5.4830    0.8760   -0.1210 C   0  0  0  0  0  0  0  0  0  0  0  0
    4.0450    0.8500    0.3550 C   0  0  0  0  0  0  0  0  0  0  0  0
    3.3310    2.2960    0.6810 S   0  0  0  0  0  0  0  0  0  0  0  0
    3.4930   -0.3480    0.4540 N   0  0  0  0  0  0  0  0  0  0  0  0
    2.8550   -1.4600    0.5930 C   0  0  0  0  0  0  0  0  0  0  0  0
    4.3340   -2.0620    1.2550 N   0  0  0  0  0  0  0  0  0  0  0  0
    4.5920   -3.1920    1.6550 C   0  0  0  0  0  0  0  0  0  0  0  0
    3.6940   -4.2780    1.6510 C   0  0  0  0  0  0  0  0  0  0  0  0
    2.4520   -3.8600    1.1160 C   0  0  0  0  0  0  0  0  0  0  0  0
    2.3230   -2.6390    0.7360 C   0  0  0  0  0  0  0  0  0  0  0  0
    0.8310   -2.3450    0.1990 C   0  0  0  0  0  0  0  0  0  0  0  0
    0.4860   -1.1620    0.2910 O   0  0  0  0  0  0  0  0  0  0  0  0
    0.1250   -3.3560   -0.3020 N   0  0  0  0  0  0  0  0  0  0  0  0
   -1.2420   -3.3070   -0.8040 C   0  0  0  0  0  0  0  0  0  0  0  0
   -2.2600   -3.1490    0.2490 C   0  0  0  0  0  0  0  0  0  0  0  0
   -2.3040   -2.0320    1.0520 O   0  0  0  0  0  0  0  0  0  0  0  0
   -2.6560   -0.7470    0.5850 C   0  0  0  0  0  0  0  0  0  0  0  0
   -2.9210   -0.6810   -0.6440 O   0  0  0  0  0  0  0  0  0  0  0  0
   -2.7140    0.3330    1.4140 O   0  0  0  0  0  0  0  0  0  0  0  0
   -3.1110    1.6380    1.0350 C   0  0  0  0  0  0  0  0  0  0  0  0
   -4.4860    1.5600    0.5330 C   0  0  0  0  0  0  0  0  0  0  0  0
   -4.9940    0.4470    0.2580 O   0  0  0  0  0  0  0  0  0  0  0  0
   -5.3310    2.6880    0.3290 N   0  0  0  0  0  0  0  0  0  0  0  0
   -6.6880    2.4930   -0.1870 C   0  0  2  0  0  0  0  0  0  0  0  0
   -7.4230    3.7450   -0.3170 C   0  0  0  0  0  0  0  0  0  0  0  0
   -8.8540    3.5170    0.1820 C   0  0  0  0  0  0  0  0  0  0  0  0
   -8.9220    1.9760    0.3090 C   0  0  1  0  0  0  0  0  0  0  0  0
   -9.2000    1.3700   -1.0100 C   0  0  0  0  0  0  0  0  0  0  0  0
   -9.2670   -0.1410   -0.9460 C   0  0  0  0  0  0  0  0  0  0  0  0
   -8.1900   -0.9000   -1.1140 C   0  0  0  0  0  0  0  0  0  0  0  0
   -8.2520   -2.3010   -1.1210 C   0  0  0  0  0  0  0  0  0  0  0  0
  -10.0720   -2.5480   -0.8510 S   0  0  0  0  0  0  0  0  0  0  0  0
  -10.5180   -0.7990   -0.7660 C   0  0  0  0  0  0  0  0  0  0  0  0
   -7.5100    1.6840    0.8450 C   0  0  0  0  0  0  0  0  0  0  0  0
    5.7410    1.0420   -1.4580 C   0  0  0  0  0  0  0  0  0  0  0  0
    7.0670    0.9670   -1.9090 C   0  0  0  0  0  0  0  0  0  0  0  0
    8.0670    0.7280   -1.0300 C   0  0  0  0  0  0  0  0  0  0  0  0
    9.4780    0.6010   -1.5040 C   0  0  0  0  0  0  0  0  0  0  0  0
  2  1  1  6
  2  3  1  0
  2 45  1  0
  3  4  1  0
  4  5  2  0
  4  6  1  0
  6  7  2  0
  6 44  1  0
  7  8  1  0
  8  9  1  0
  8 42  2  0
  9 10  2  0
  9 11  1  0
 11 12  1  0
 12 13  2  0
 12 17  1  0
 13 14  1  0
 14 15  2  0
 15 16  1  0
 16 17  2  0
 17 18  1  0
 18 19  2  0
 18 20  1  0
 20 21  1  0
 21 22  1  0
 22 23  1  0
 23 24  1  0
 24 25  2  0
 24 26  1  0
 26 27  1  0
 27 28  1  0
 28 29  2  0
 28 30  1  0
 31 30  1  1
 31 32  1  0
 31 41  1  0
 32 33  1  0
 33 34  1  0
 34 35  1  6
 34 41  1  0
 35 36  1  0
 36 37  1  0
 36 40  2  0
 37 38  2  0
 38 39  1  0
 39 40  1  0
 42 43  1  0
 43 44  2  0
 44 45  1  0
M  END
