
     RDKit          3D

 46 48  0  0  0  0  0  0  0  0999 V2000
   -4.6800    5.6570   -0.1490 C   0  0  0  0  0  0  0  0  0  0  0  0
   -4.7830    4.8540    1.1390 C   0  0  0  0  0  0  0  0  0  0  0  0
   -4.5390    3.5290    0.8480 O   0  0  0  0  0  0  0  0  0  0  0  0
   -4.6010    2.6830    1.9320 C   0  0  2  0  0  0  0  0  0  0  0  0
   -3.2240    2.0760    2.1810 C   0  0  0  0  0  0  0  0  0  0  0  0
   -2.5400    1.9150    0.8790 C   0  0  0  0  0  0  0  0  0  0  0  0
   -1.0910    2.3150    0.8190 C   0  0  1  0  0  0  0  0  0  0  0  0
   -0.9490    3.5210    1.7610 C   0  0  0  0  0  0  0  0  0  0  0  0
   -0.2060    1.2670    1.2690 N   0  0  0  0  0  0  0  0  0  0  0  0
    1.0620    0.8900    0.9080 C   0  0  0  0  0  0  0  0  0  0  0  0
    2.0200    1.1000    1.7700 O   0  0  0  0  0  0  0  0  0  0  0  0
    1.6040    0.2550   -0.3310 C   0  0  2  0  0  0  0  0  0  0  0  0
    2.8350    0.8060   -0.7700 N   0  0  0  0  0  0  0  0  0  0  0  0
    2.8780    2.1120   -1.2920 C   0  0  0  0  0  0  0  0  0  0  0  0
    1.6690    2.9350   -1.3570 C   0  0  0  0  0  0  0  0  0  0  0  0
    3.9540    2.6530   -1.7310 O   0  0  0  0  0  0  0  0  0  0  0  0
    4.1400    0.1540   -0.6670 C   0  0  1  0  0  0  0  0  0  0  0  0
    4.4830   -0.2480    0.7290 C   0  0  0  0  0  0  0  0  0  0  0  0
    5.7410   -0.9690    0.6860 N   0  0  1  0  0  0  0  0  0  0  0  0
    6.2950   -0.9430    2.0340 C   0  0  1  0  0  0  0  0  0  0  0  0
    7.4900   -1.8370    2.1550 C   0  0  0  0  0  0  0  0  0  0  0  0
    6.7320    0.4830    2.2960 C   0  0  0  0  0  0  0  0  0  0  0  0
    5.5150   -2.2820    0.2000 C   0  0  0  0  0  0  0  0  0  0  0  0
    4.3960   -2.2730   -0.8250 C   0  0  0  0  0  0  0  0  0  0  0  0
    4.3730   -0.9860   -1.6130 C   0  0  1  0  0  0  0  0  0  0  0  0
    3.4390   -1.0910   -2.7630 C   0  0  0  0  0  0  0  0  0  0  0  0
    5.7820   -0.8990   -2.2530 C   0  0  0  0  0  0  0  0  0  0  0  0
    0.5180   -0.0490   -1.2790 C   0  0  0  0  0  0  0  0  0  0  0  0
    0.0340   -1.4550   -1.2360 C   0  0  0  0  0  0  0  0  0  0  0  0
    0.7620   -2.2660   -0.5750 O   0  0  0  0  0  0  0  0  0  0  0  0
   -1.1630   -1.8970   -1.8800 N   0  0  0  0  0  0  0  0  0  0  0  0
   -2.4620   -1.2790   -1.5400 C   0  0  0  0  0  0  0  0  0  0  0  0
   -2.8970   -0.1350   -2.1940 C   0  0  0  0  0  0  0  0  0  0  0  0
   -4.1260    0.5060   -1.8870 C   0  0  0  0  0  0  0  0  0  0  0  0
   -5.0030    0.0690   -0.9220 C   0  0  0  0  0  0  0  0  0  0  0  0
   -4.5540   -1.0660   -0.2830 C   0  0  0  0  0  0  0  0  0  0  0  0
   -3.3230   -1.7420   -0.5630 C   0  0  0  0  0  0  0  0  0  0  0  0
   -3.2570   -2.8770    0.3430 O   0  0  0  0  0  0  0  0  0  0  0  0
   -3.7660   -4.1270    0.0470 C   0  0  1  0  0  0  0  0  0  0  0  0
   -5.2390   -4.0690   -0.2160 C   0  0  0  0  0  0  0  0  0  0  0  0
   -3.0390   -4.7770   -1.1250 C   0  0  0  0  0  0  0  0  0  0  0  0
   -3.5240   -5.0070    1.2800 C   0  0  0  0  0  0  0  0  0  0  0  0
   -6.2590    0.7560   -0.6050 C   0  0  0  0  0  0  0  0  0  0  0  0
   -7.4840    0.6650   -1.0650 O   0  0  0  0  0  0  0  0  0  0  0  0
   -6.2910    1.7720    0.4110 O   0  0  0  0  0  0  0  0  0  0  0  0
   -5.6300    1.6330    1.6460 C   0  0  0  0  0  0  0  0  0  0  0  0
  1  2  1  0
  2  3  1  0
  4  3  1  6
  4  5  1  0
  4 46  1  0
  5  6  1  0
  6  7  1  0
  7  8  1  1
  7  9  1  0
  9 10  1  0
 10 11  2  0
 10 12  1  0
 12 13  1  6
 12 28  1  0
 13 14  1  0
 17 13  1  1
 14 15  1  0
 14 16  2  0
 17 18  1  0
 17 25  1  0
 19 18  1  1
 19 20  1  0
 19 23  1  0
 20 21  1  6
 20 22  1  0
 23 24  1  0
 24 25  1  0
 25 26  1  6
 25 27  1  0
 28 29  1  0
 29 30  2  0
 29 31  1  0
 31 32  1  0
 32 33  2  0
 32 37  1  0
 33 34  1  0
 34 35  2  0
 35 36  1  0
 35 43  1  0
 36 37  2  0
 37 38  1  0
 38 39  1  0
 39 40  1  6
 39 41  1  0
 39 42  1  0
 43 44  2  0
 43 45  1  0
 45 46  1  0
M  CHG  1  19   1
M  END
