
     RDKit          3D

 44 48  0  0  0  0  0  0  0  0999 V2000
   -1.3890    0.4780   -5.2810 C   0  0  0  0  0  0  0  0  0  0  0  0
   -1.6740    0.3710   -3.8200 C   0  0  1  0  0  0  0  0  0  0  0  0
   -2.8370    1.2700   -3.3810 C   0  0  0  0  0  0  0  0  0  0  0  0
   -2.9640    1.1700   -1.8590 C   0  0  0  0  0  0  0  0  0  0  0  0
   -1.9910    0.1660   -1.3950 N   0  0  0  0  0  0  0  0  0  0  0  0
   -0.9700    0.5230   -0.4880 C   0  0  0  0  0  0  0  0  0  0  0  0
   -0.1810   -0.3660   -0.0810 O   0  0  0  0  0  0  0  0  0  0  0  0
   -0.7830    1.9170    0.0080 C   0  0  0  0  0  0  0  0  0  0  0  0
    0.3780    2.0490    0.7940 O   0  0  0  0  0  0  0  0  0  0  0  0
    1.6470    1.8230    0.2560 C   0  0  0  0  0  0  0  0  0  0  0  0
    1.7880    1.4920   -1.0630 C   0  0  0  0  0  0  0  0  0  0  0  0
    3.0340    1.2580   -1.6230 C   0  0  0  0  0  0  0  0  0  0  0  0
    4.1830    1.3620   -0.8310 C   0  0  0  0  0  0  0  0  0  0  0  0
    4.0690    1.6960    0.4990 C   0  0  0  0  0  0  0  0  0  0  0  0
    5.1790    1.8080    1.3780 N   0  0  0  0  0  0  0  0  0  0  0  0
    6.4840    1.3810    1.1440 C   0  0  0  0  0  0  0  0  0  0  0  0
    6.7700    0.8180    0.0550 O   0  0  0  0  0  0  0  0  0  0  0  0
    7.6050    1.5460    2.1210 C   0  0  2  0  0  0  0  0  0  0  0  0
    7.7940    3.3400    2.3950 S   0  0  0  0  0  0  0  0  0  0  0  0
    9.5960    3.4920    2.0630 C   0  0  0  0  0  0  0  0  0  0  0  0
    9.9750    2.0450    2.1120 C   0  0  0  0  0  0  0  0  0  0  0  0
   10.9940    1.6270    2.6460 O   0  0  0  0  0  0  0  0  0  0  0  0
    8.9440    1.2460    1.4300 C   0  0  1  0  0  0  0  0  0  0  0  0
    9.2740   -0.2100    1.4790 C   0  0  0  0  0  0  0  0  0  0  0  0
    2.7820    1.9190    1.0070 C   0  0  0  0  0  0  0  0  0  0  0  0
   -2.0580   -1.1470   -1.9290 C   0  0  1  0  0  0  0  0  0  0  0  0
   -3.1850   -1.9980   -1.4910 C   0  0  0  0  0  0  0  0  0  0  0  0
   -3.8030   -2.8720   -2.3650 C   0  0  0  0  0  0  0  0  0  0  0  0
   -4.8530   -3.7160   -2.0020 C   0  0  0  0  0  0  0  0  0  0  0  0
   -5.2910   -3.6700   -0.6990 C   0  0  0  0  0  0  0  0  0  0  0  0
   -4.6860   -2.8060    0.1860 C   0  0  0  0  0  0  0  0  0  0  0  0
   -3.6330   -1.9570   -0.1710 C   0  0  0  0  0  0  0  0  0  0  0  0
   -3.0620   -1.1040    0.7810 O   0  0  0  0  0  0  0  0  0  0  0  0
   -3.5980   -1.1580    2.0890 C   0  0  0  0  0  0  0  0  0  0  0  0
   -2.9270   -0.2170    3.0220 C   0  0  0  0  0  0  0  0  0  0  0  0
   -1.9920    0.5230    2.6280 O   0  0  0  0  0  0  0  0  0  0  0  0
   -3.3080   -0.1370    4.3190 O   0  0  0  0  0  0  0  0  0  0  0  0
   -2.8330    0.6650    5.3430 C   0  0  0  0  0  0  0  0  0  0  0  0
   -3.0900    2.1210    5.0840 C   0  0  0  0  0  0  0  0  0  0  0  0
   -2.4960    2.5820    3.9500 O   0  0  0  0  0  0  0  0  0  0  0  0
   -6.4070   -4.6330   -0.5320 C   0  0  0  0  0  0  0  0  0  0  0  0
   -6.9660   -4.6880   -1.9550 C   0  0  0  0  0  0  0  0  0  0  0  0
   -5.6520   -4.7210   -2.7470 C   0  0  0  0  0  0  0  0  0  0  0  0
   -2.0900   -1.0730   -3.4490 C   0  0  0  0  0  0  0  0  0  0  0  0
  2  1  1  6
  2  3  1  0
  2 44  1  0
  3  4  1  0
  4  5  1  0
  5  6  1  0
  5 26  1  0
  6  7  2  0
  6  8  1  0
  8  9  1  0
  9 10  1  0
 10 11  2  0
 10 25  1  0
 11 12  1  0
 12 13  2  0
 13 14  1  0
 14 15  1  0
 14 25  2  0
 15 16  1  0
 16 17  2  0
 18 16  1  6
 18 19  1  0
 18 23  1  0
 19 20  1  0
 20 21  1  0
 21 22  2  0
 21 23  1  0
 23 24  1  1
 26 27  1  1
 26 44  1  0
 27 28  2  0
 27 32  1  0
 28 29  1  0
 29 30  2  0
 29 43  1  0
 30 31  1  0
 30 41  1  0
 31 32  2  0
 32 33  1  0
 33 34  1  0
 34 35  1  0
 35 36  2  0
 35 37  1  0
 37 38  1  0
 38 39  1  0
 39 40  1  0
 41 42  1  0
 42 43  1  0
M  END
