
     RDKit          3D

 44 48  0  0  0  0  0  0  0  0999 V2000
   -7.5960    3.4230    1.4220 C   0  0  0  0  0  0  0  0  0  0  0  0
   -7.3510    2.0790    2.0720 C   0  0  2  0  0  0  0  0  0  0  0  0
   -7.7510    2.2160    3.5260 C   0  0  0  0  0  0  0  0  0  0  0  0
   -5.9230    1.6960    1.9320 C   0  0  0  0  0  0  0  0  0  0  0  0
   -5.1670    2.4530    1.3600 O   0  0  0  0  0  0  0  0  0  0  0  0
   -5.4220    0.4270    2.4730 C   0  0  0  0  0  0  0  0  0  0  0  0
   -5.2070   -0.6100    1.3440 C   0  0  2  0  0  0  0  0  0  0  0  0
   -4.2980   -0.1570    0.4250 O   0  0  0  0  0  0  0  0  0  0  0  0
   -3.0320   -0.5910    0.1370 C   0  0  0  0  0  0  0  0  0  0  0  0
   -2.4380   -1.6480    0.7690 C   0  0  0  0  0  0  0  0  0  0  0  0
   -1.1610   -2.0600    0.4560 C   0  0  0  0  0  0  0  0  0  0  0  0
   -0.3860   -1.4290   -0.5230 C   0  0  0  0  0  0  0  0  0  0  0  0
    0.9080   -1.9210   -0.8110 N   0  0  0  0  0  0  0  0  0  0  0  0
    1.8920   -1.1340   -1.4190 C   0  0  0  0  0  0  0  0  0  0  0  0
    1.7120    0.0480   -1.7410 O   0  0  0  0  0  0  0  0  0  0  0  0
    3.2510   -1.7470   -1.7010 C   0  0  0  0  0  0  0  0  0  0  0  0
    4.1630   -0.7260   -2.3080 C   0  0  2  0  0  0  0  0  0  0  0  0
    5.7790   -1.4010   -2.6780 S   0  0  0  0  0  0  0  0  0  0  0  0
    5.8400   -2.5440   -4.0390 C   0  0  2  0  0  0  0  0  0  0  0  0
    5.6380   -2.1080   -5.4430 C   0  0  0  0  0  0  0  0  0  0  0  0
    4.6450   -3.0450   -4.7420 C   0  0  0  0  0  0  0  0  0  0  0  0
    4.3340    0.4660   -1.4420 C   0  0  0  0  0  0  0  0  0  0  0  0
    3.8560    1.5570   -1.8980 O   0  0  0  0  0  0  0  0  0  0  0  0
    4.9590    0.5000   -0.1940 N   0  0  0  0  0  0  0  0  0  0  0  0
    5.5770   -0.5910    0.4930 C   0  0  0  0  0  0  0  0  0  0  0  0
    6.8640    0.0610    1.0200 C   0  0  0  0  0  0  0  0  0  0  0  0
    6.3930    1.4510    1.3790 C   0  0  1  0  0  0  0  0  0  0  0  0
    6.2580    1.5030    2.8780 C   0  0  0  0  0  0  0  0  0  0  0  0
    7.3620    2.3060    3.5290 C   0  0  0  0  0  0  0  0  0  0  0  0
    8.6950    1.9090    2.8910 C   0  0  0  0  0  0  0  0  0  0  0  0
    8.6160    2.4400    1.5560 O   0  0  0  0  0  0  0  0  0  0  0  0
    7.3830    2.4830    0.9020 C   0  0  0  0  0  0  0  0  0  0  0  0
    7.0950    3.3010   -0.0080 O   0  0  0  0  0  0  0  0  0  0  0  0
    5.0910    1.6570    0.6590 C   0  0  0  0  0  0  0  0  0  0  0  0
   -0.9700   -0.3740   -1.1590 C   0  0  0  0  0  0  0  0  0  0  0  0
   -2.2610    0.0400   -0.8420 C   0  0  0  0  0  0  0  0  0  0  0  0
   -6.5060   -1.0850    0.8560 C   0  0  0  0  0  0  0  0  0  0  0  0
   -7.2950   -1.5190    1.7800 O   0  0  0  0  0  0  0  0  0  0  0  0
   -7.0170   -1.1360   -0.4930 C   0  0  0  0  0  0  0  0  0  0  0  0
   -8.2530   -1.6190   -0.7260 C   0  0  0  0  0  0  0  0  0  0  0  0
   -8.8500   -1.7070   -2.0630 C   0  0  0  0  0  0  0  0  0  0  0  0
   -8.0340   -1.2350   -3.1000 O   0  0  0  0  0  0  0  0  0  0  0  0
   -6.7700   -0.7340   -2.9030 C   0  0  0  0  0  0  0  0  0  0  0  0
   -6.2770   -0.6840   -1.6620 C   0  0  0  0  0  0  0  0  0  0  0  0
  2  1  1  6
  2  3  1  0
  2  4  1  0
  4  5  2  0
  4  6  1  0
  7  6  1  1
  7  8  1  0
  7 37  1  0
  8  9  1  0
  9 10  2  0
  9 36  1  0
 10 11  1  0
 11 12  2  0
 12 13  1  0
 12 35  1  0
 13 14  1  0
 14 15  2  0
 14 16  1  0
 17 16  1  1
 17 18  1  0
 17 22  1  0
 19 18  1  1
 19 20  1  0
 19 21  1  0
 20 21  1  0
 22 23  2  0
 22 24  1  0
 24 25  1  0
 24 34  1  0
 25 26  1  0
 27 26  1  1
 27 28  1  0
 27 32  1  0
 27 34  1  0
 28 29  1  0
 29 30  1  0
 30 31  1  0
 31 32  1  0
 32 33  2  0
 35 36  2  0
 37 38  2  0
 37 39  1  0
 39 40  2  0
 39 44  1  0
 40 41  1  0
 41 42  1  0
 42 43  1  0
 43 44  2  0
M  END
