
     RDKit          3D

 44 48  0  0  0  0  0  0  0  0999 V2000
   -7.7320   -2.7710    2.3050 C   0  0  0  0  0  0  0  0  0  0  0  0
   -7.6170   -1.4280    2.8380 N   0  0  0  0  0  0  0  0  0  0  0  0
   -6.1550   -0.7120    2.1790 S   0  0  2  0  0  0  0  0  0  0  0  0
   -6.0880    0.6850    2.7640 O   0  0  0  0  0  0  0  0  0  0  0  0
   -6.2870   -0.6010    0.6990 O   0  0  0  0  0  0  0  0  0  0  0  0
   -4.8030   -1.6850    2.7120 C   0  0  0  0  0  0  0  0  0  0  0  0
   -3.4550   -1.2530    2.2700 C   0  0  0  0  0  0  0  0  0  0  0  0
   -3.2330   -1.1680    0.8290 C   0  0  0  0  0  0  0  0  0  0  0  0
   -3.8270   -1.9810   -0.1050 C   0  0  0  0  0  0  0  0  0  0  0  0
   -3.6020   -1.8510   -1.4550 C   0  0  0  0  0  0  0  0  0  0  0  0
   -2.7640   -0.8950   -1.9560 C   0  0  0  0  0  0  0  0  0  0  0  0
   -2.1490   -0.0580   -1.0240 C   0  0  0  0  0  0  0  0  0  0  0  0
   -2.3660   -0.1790    0.3330 C   0  0  0  0  0  0  0  0  0  0  0  0
   -1.7640    0.6300    1.2760 O   0  0  0  0  0  0  0  0  0  0  0  0
   -0.8190    1.5980    1.0080 C   0  0  0  0  0  0  0  0  0  0  0  0
   -1.0640    2.9050    1.3240 C   0  0  0  0  0  0  0  0  0  0  0  0
   -0.0950    3.8590    1.0480 C   0  0  0  0  0  0  0  0  0  0  0  0
    1.0990    3.5070    0.4650 C   0  0  0  0  0  0  0  0  0  0  0  0
    2.1230    4.5290    0.1730 C   0  0  0  0  0  0  0  0  0  0  0  0
    3.2180    4.1560   -0.3350 O   0  0  0  0  0  0  0  0  0  0  0  0
    1.9480    5.8600    0.4230 O   0  0  0  0  0  0  0  0  0  0  0  0
    2.8970    6.8500    0.1560 C   0  0  1  0  0  0  0  0  0  0  0  0
    2.2740    7.7840   -0.8950 C   0  0  0  0  0  0  0  0  0  0  0  0
    3.2710    7.7050    1.3210 C   0  0  0  0  0  0  0  0  0  0  0  0
    1.3110    2.1820    0.1600 C   0  0  0  0  0  0  0  0  0  0  0  0
    0.3970    1.1970    0.4060 C   0  0  0  0  0  0  0  0  0  0  0  0
    0.5600   -0.1070    0.1240 O   0  0  0  0  0  0  0  0  0  0  0  0
    1.5300   -0.9010   -0.4090 C   0  0  1  0  0  0  0  0  0  0  0  0
    1.7000   -0.8370   -1.8880 C   0  0  0  0  0  0  0  0  0  0  0  0
    3.1320   -0.9310   -2.3490 C   0  0  0  0  0  0  0  0  0  0  0  0
    3.7940   -2.2350   -2.0820 C   0  0  0  0  0  0  0  0  0  0  0  0
    3.4180   -2.9230   -0.8150 C   0  0  0  0  0  0  0  0  0  0  0  0
    3.5410   -2.1190    0.4300 C   0  0  2  0  0  0  0  0  0  0  0  0
    4.9860   -1.8210    0.7550 C   0  0  0  0  0  0  0  0  0  0  0  0
    5.8190   -3.0610    0.8120 C   0  0  0  0  0  0  0  0  0  0  0  0
    5.0970   -4.1180    1.5480 C   0  0  0  0  0  0  0  0  0  0  0  0
    5.7320   -5.1950    1.7530 O   0  0  0  0  0  0  0  0  0  0  0  0
    3.7750   -3.9680    2.0080 N   0  0  0  0  0  0  0  0  0  0  0  0
    2.8770   -2.9130    1.5520 C   0  0  0  0  0  0  0  0  0  0  0  0
    2.8420   -0.7650    0.3390 C   0  0  0  0  0  0  0  0  0  0  0  0
   -2.4520   -0.7020   -3.3830 C   0  0  0  0  0  0  0  0  0  0  0  0
   -3.1740   -1.6290   -4.2930 C   0  0  0  0  0  0  0  0  0  0  0  0
   -4.4070   -2.2510   -3.7320 C   0  0  0  0  0  0  0  0  0  0  0  0
   -4.2190   -2.6870   -2.3840 O   0  0  0  0  0  0  0  0  0  0  0  0
  1  2  1  0
  2  3  1  0
  3  4  2  0
  3  5  2  0
  3  6  1  6
  6  7  1  0
  7  8  1  0
  8  9  2  0
  8 13  1  0
  9 10  1  0
 10 11  2  0
 10 44  1  0
 11 12  1  0
 11 41  1  0
 12 13  2  0
 13 14  1  0
 14 15  1  0
 15 16  2  0
 15 26  1  0
 16 17  1  0
 17 18  2  0
 18 19  1  0
 18 25  1  0
 19 20  2  0
 19 21  1  0
 21 22  1  0
 22 23  1  6
 22 24  1  0
 25 26  2  0
 26 27  1  0
 28 27  1  1
 28 29  1  0
 28 40  1  0
 29 30  1  0
 30 31  1  0
 31 32  1  0
 33 32  1  6
 33 34  1  0
 33 39  1  0
 33 40  1  0
 34 35  1  0
 35 36  1  0
 36 37  2  0
 36 38  1  0
 38 39  1  0
 41 42  1  0
 42 43  1  0
 43 44  1  0
M  END
