
     RDKit          3D

 44 48  0  0  0  0  0  0  0  0999 V2000
   -5.1340   -0.2760   -0.8710 C   0  0  0  0  0  0  0  0  0  0  0  0
   -4.8010   -0.3780    0.3870 C   0  0  0  0  0  0  0  0  0  0  0  0
   -5.8290   -0.2070    1.3310 O   0  0  0  0  0  0  0  0  0  0  0  0
   -5.6520   -0.2680    2.6840 C   0  0  0  0  0  0  0  0  0  0  0  0
   -4.4400   -0.5030    3.1280 C   0  0  0  0  0  0  0  0  0  0  0  0
   -3.3310   -0.6920    2.2050 C   0  0  0  0  0  0  0  0  0  0  0  0
   -3.4530   -0.6440    0.8680 C   0  0  0  0  0  0  0  0  0  0  0  0
   -2.3030   -0.8510   -0.0570 C   0  0  2  0  0  0  0  0  0  0  0  0
   -2.5200   -2.2090   -0.7070 C   0  0  0  0  0  0  0  0  0  0  0  0
   -2.2880   -3.3090   -0.0170 C   0  0  0  0  0  0  0  0  0  0  0  0
   -2.5660   -4.6280   -0.7000 C   0  0  0  0  0  0  0  0  0  0  0  0
   -3.7820   -4.5300   -1.5620 C   0  0  0  0  0  0  0  0  0  0  0  0
   -3.7020   -3.4420   -2.5880 C   0  0  0  0  0  0  0  0  0  0  0  0
   -2.8640   -2.3450   -2.1040 C   0  0  0  0  0  0  0  0  0  0  0  0
   -2.4180   -1.4760   -2.9390 O   0  0  0  0  0  0  0  0  0  0  0  0
   -1.4740   -3.3990    1.1470 N   0  0  0  0  0  0  0  0  0  0  0  0
   -0.8150   -2.1750    1.5630 C   0  0  0  0  0  0  0  0  0  0  0  0
   -0.1210   -2.1950    2.5950 O   0  0  0  0  0  0  0  0  0  0  0  0
   -1.0040   -0.9890    0.7630 C   0  0  0  0  0  0  0  0  0  0  0  0
   -0.1680    0.0080    0.6580 C   0  0  0  0  0  0  0  0  0  0  0  0
    1.0570    0.3580    1.1370 N   0  0  0  0  0  0  0  0  0  0  0  0
    2.0700   -0.1150    1.9340 C   0  0  0  0  0  0  0  0  0  0  0  0
    2.1050   -1.1790    2.4790 O   0  0  0  0  0  0  0  0  0  0  0  0
    3.2860    0.7970    2.1530 C   0  0  0  0  0  0  0  0  0  0  0  0
    4.5740   -0.0170    3.0410 S   0  0  0  0  0  0  0  0  0  0  0  0
    5.3820   -1.3720    2.2430 C   0  0  0  0  0  0  0  0  0  0  0  0
    6.2920   -1.0810    1.1440 C   0  0  0  0  0  0  0  0  0  0  0  0
    6.8900   -2.0690    0.6690 O   0  0  0  0  0  0  0  0  0  0  0  0
    6.5650    0.2290    0.5590 C   0  0  2  0  0  0  0  0  0  0  0  0
    6.8450    1.3100    1.5910 C   0  0  0  0  0  0  0  0  0  0  0  0
    5.6170    0.7080   -0.4730 C   0  0  0  0  0  0  0  0  0  0  0  0
    7.9430    0.1160   -0.1990 C   0  0  0  0  0  0  0  0  0  0  0  0
   -0.6800    1.1040   -0.2690 C   0  0  0  0  0  0  0  0  0  0  0  0
   -0.2930    1.1190   -1.5690 C   0  0  0  0  0  0  0  0  0  0  0  0
   -0.7350    2.1650   -2.3980 C   0  0  0  0  0  0  0  0  0  0  0  0
   -1.5440    3.1410   -1.8760 C   0  0  0  0  0  0  0  0  0  0  0  0
   -1.9280    3.1140   -0.5620 C   0  0  0  0  0  0  0  0  0  0  0  0
   -1.4760    2.0620    0.2490 C   0  0  0  0  0  0  0  0  0  0  0  0
   -1.8830    2.0750    1.5680 O   0  0  0  0  0  0  0  0  0  0  0  0
   -2.7130    3.1050    2.0420 C   0  0  0  0  0  0  0  0  0  0  0  0
   -1.9890    4.1950   -2.7140 O   0  0  0  0  0  0  0  0  0  0  0  0
   -1.3490    4.4210   -3.9550 C   0  0  0  0  0  0  0  0  0  0  0  0
   -0.9070    3.1390   -4.6000 C   0  0  0  0  0  0  0  0  0  0  0  0
   -0.3600    2.2140   -3.7180 O   0  0  0  0  0  0  0  0  0  0  0  0
  1  2  2  0
  2  3  1  0
  2  7  1  0
  3  4  1  0
  4  5  2  0
  5  6  1  0
  6  7  2  0
  8  7  1  1
  8  9  1  0
  8 19  1  0
  9 10  2  0
  9 14  1  0
 10 11  1  0
 10 16  1  0
 11 12  1  0
 12 13  1  0
 13 14  1  0
 14 15  2  0
 16 17  1  0
 17 18  2  0
 17 19  1  0
 19 20  2  3
 20 21  1  0
 20 33  1  0
 21 22  1  0
 22 23  2  0
 22 24  1  0
 24 25  1  0
 25 26  1  0
 26 27  1  0
 27 28  2  0
 27 29  1  0
 29 30  1  1
 29 31  1  0
 29 32  1  0
 33 34  2  0
 33 38  1  0
 34 35  1  0
 35 36  2  0
 35 44  1  0
 36 37  1  0
 36 41  1  0
 37 38  2  0
 38 39  1  0
 39 40  1  0
 41 42  1  0
 42 43  1  0
 43 44  1  0
M  END
