
     RDKit          3D

 44 48  0  0  0  0  0  0  0  0999 V2000
   -8.5060   -3.2470   -0.4060 C   0  0  0  0  0  0  0  0  0  0  0  0
   -8.4790   -2.1490   -1.4210 C   0  0  0  0  0  0  0  0  0  0  0  0
   -7.3590   -1.1740   -1.2500 C   0  0  1  0  0  0  0  0  0  0  0  0
   -7.3770   -0.4600    0.0810 C   0  0  0  0  0  0  0  0  0  0  0  0
   -6.2100    0.5180    0.0720 C   0  0  0  0  0  0  0  0  0  0  0  0
   -4.9980   -0.0900   -0.1610 O   0  0  0  0  0  0  0  0  0  0  0  0
   -4.9880   -0.6660   -1.4150 C   0  0  1  0  0  0  0  0  0  0  0  0
   -3.6260   -1.1790   -1.8220 C   0  0  0  0  0  0  0  0  0  0  0  0
   -3.1630   -2.1480   -0.9380 O   0  0  0  0  0  0  0  0  0  0  0  0
   -1.9160   -2.6200   -1.2670 C   0  0  0  0  0  0  0  0  0  0  0  0
   -0.7830   -1.6540   -1.2230 C   0  0  0  0  0  0  0  0  0  0  0  0
   -0.4120   -1.0490   -0.1410 O   0  0  0  0  0  0  0  0  0  0  0  0
   -0.8930   -0.2340    0.7390 C   0  0  1  0  0  0  0  0  0  0  0  0
   -1.4050    1.1330    0.2880 C   0  0  2  0  0  0  0  0  0  0  0  0
   -0.3650    1.8730   -0.3450 N   0  0  0  0  0  0  0  0  0  0  0  0
   -0.3780    3.1830    0.1990 C   0  0  0  0  0  0  0  0  0  0  0  0
    0.2060    4.3870   -0.1960 C   0  0  0  0  0  0  0  0  0  0  0  0
   -0.0040    5.5130    0.5680 C   0  0  0  0  0  0  0  0  0  0  0  0
    0.7280    7.0390    0.0860 S   0  0  2  0  0  0  0  0  0  0  0  0
    2.3370    7.2000    0.8610 C   0  0  0  0  0  0  0  0  0  0  0  0
   -0.0930    8.2080    0.4840 O   0  0  0  0  0  0  0  0  0  0  0  0
    0.9890    7.0500   -1.4030 O   0  0  0  0  0  0  0  0  0  0  0  0
   -0.7750    5.4920    1.7140 C   0  0  0  0  0  0  0  0  0  0  0  0
   -1.3430    4.3050    2.0920 C   0  0  0  0  0  0  0  0  0  0  0  0
   -1.1470    3.1470    1.3350 C   0  0  0  0  0  0  0  0  0  0  0  0
   -1.6000    1.8540    1.4990 O   0  0  0  0  0  0  0  0  0  0  0  0
   -1.8830   -0.8100    1.7380 C   0  0  0  0  0  0  0  0  0  0  0  0
   -1.2170   -2.0620    2.2680 C   0  0  0  0  0  0  0  0  0  0  0  0
   -0.1880   -1.6710    3.0930 O   0  0  0  0  0  0  0  0  0  0  0  0
    0.8100   -0.9180    2.4630 C   0  0  1  0  0  0  0  0  0  0  0  0
    1.7740   -1.7930    1.7230 C   0  0  0  0  0  0  0  0  0  0  0  0
    2.8790   -1.0300    1.0460 C   0  0  0  0  0  0  0  0  0  0  0  0
    3.8210   -1.9590    0.3460 C   0  0  0  0  0  0  0  0  0  0  0  0
    3.5540   -3.1930    0.3120 O   0  0  0  0  0  0  0  0  0  0  0  0
    4.9900   -1.4970   -0.2740 N   0  0  0  0  0  0  0  0  0  0  0  0
    5.2850   -0.0720   -0.2200 C   0  0  0  0  0  0  0  0  0  0  0  0
    6.7890    0.1310   -0.1430 C   0  0  0  0  0  0  0  0  0  0  0  0
    7.4690   -0.3890   -1.3700 C   0  0  0  0  0  0  0  0  0  0  0  0
    8.0860   -1.7250   -1.1470 C   0  0  1  0  0  0  0  0  0  0  0  0
    9.4320   -1.5600   -0.4680 C   0  0  0  0  0  0  0  0  0  0  0  0
    7.1710   -2.6060   -0.3330 C   0  0  0  0  0  0  0  0  0  0  0  0
    5.7910   -2.5400   -0.9150 C   0  0  0  0  0  0  0  0  0  0  0  0
    0.2950    0.1930    1.6600 C   0  0  0  0  0  0  0  0  0  0  0  0
   -5.9960   -1.8230   -1.3820 C   0  0  0  0  0  0  0  0  0  0  0  0
  1  2  1  0
  3  2  1  1
  3  4  1  0
  3 44  1  0
  4  5  1  0
  5  6  1  0
  6  7  1  0
  7  8  1  1
  7 44  1  0
  8  9  1  0
  9 10  1  0
 10 11  1  0
 11 12  1  0
 13 12  1  6
 13 14  1  0
 13 27  1  0
 13 43  1  0
 14 15  1  6
 14 26  1  0
 15 16  1  0
 16 17  2  0
 16 25  1  0
 17 18  1  0
 18 19  1  0
 18 23  2  0
 19 20  1  1
 19 21  2  0
 19 22  2  0
 23 24  1  0
 24 25  2  0
 25 26  1  0
 27 28  1  0
 28 29  1  0
 29 30  1  0
 30 31  1  6
 30 43  1  0
 31 32  1  0
 32 33  1  0
 33 34  2  0
 33 35  1  0
 35 36  1  0
 35 42  1  0
 36 37  1  0
 37 38  1  0
 38 39  1  0
 39 40  1  1
 39 41  1  0
 41 42  1  0
M  END
