
     RDKit          3D

 44 48  0  0  0  0  0  0  0  0999 V2000
   -9.5900   -4.1230   -0.7650 C   0  0  0  0  0  0  0  0  0  0  0  0
   -9.4790   -2.7140   -0.3820 C   0  0  0  0  0  0  0  0  0  0  0  0
   -8.4610   -2.2310    0.4070 C   0  0  0  0  0  0  0  0  0  0  0  0
   -8.3240   -0.9600    0.8820 C   0  0  0  0  0  0  0  0  0  0  0  0
   -7.3920   -0.5080    1.8990 C   0  0  0  0  0  0  0  0  0  0  0  0
   -5.9870   -0.7270    1.5480 O   0  0  0  0  0  0  0  0  0  0  0  0
   -5.6720   -0.0390    0.3220 C   0  0  0  0  0  0  0  0  0  0  0  0
   -6.5980    0.5000   -0.3050 O   0  0  0  0  0  0  0  0  0  0  0  0
   -4.2580    0.0410   -0.1350 C   0  0  1  0  0  0  0  0  0  0  0  0
   -4.1280    0.6360   -1.4910 C   0  0  0  0  0  0  0  0  0  0  0  0
   -2.7800    1.3220   -1.6990 C   0  0  0  0  0  0  0  0  0  0  0  0
   -1.8440    0.9300   -0.6650 N   0  0  0  0  0  0  0  0  0  0  0  0
   -0.5530    0.4970   -0.9090 C   0  0  0  0  0  0  0  0  0  0  0  0
   -0.1660    0.6170   -2.1480 O   0  0  0  0  0  0  0  0  0  0  0  0
    0.3700   -0.0760    0.0370 C   0  0  0  0  0  0  0  0  0  0  0  0
    0.8410    0.6510    1.2300 C   0  0  0  0  0  0  0  0  0  0  0  0
    1.4510    1.8270    1.1850 O   0  0  0  0  0  0  0  0  0  0  0  0
    2.6200    2.0950    0.6300 C   0  0  0  0  0  0  0  0  0  0  0  0
    3.7590    1.2850    1.2110 C   0  0  2  0  0  0  0  0  0  0  0  0
    5.0810    1.6860    0.6110 C   0  0  0  0  0  0  0  0  0  0  0  0
    5.1660    0.7310   -0.5470 C   0  0  1  0  0  0  0  0  0  0  0  0
    6.5820    0.5960   -1.0260 C   0  0  2  0  0  0  0  0  0  0  0  0
    6.5450   -0.3720   -2.0790 O   0  0  0  0  0  0  0  0  0  0  0  0
    7.5380    0.2020    0.0390 C   0  0  0  0  0  0  0  0  0  0  0  0
    8.8570   -0.1640   -0.4200 N   0  0  0  0  0  0  0  0  0  0  0  0
    9.0450   -1.5350   -0.9500 C   0  0  0  0  0  0  0  0  0  0  0  0
    9.9400   -2.1780    0.0950 C   0  0  0  0  0  0  0  0  0  0  0  0
   11.2480   -1.4850    0.2370 C   0  0  0  0  0  0  0  0  0  0  0  0
   11.3510   -0.1100   -0.3790 C   0  0  0  0  0  0  0  0  0  0  0  0
   10.0310    0.6020   -0.4670 C   0  0  0  0  0  0  0  0  0  0  0  0
   10.0000    1.8470   -0.5850 O   0  0  0  0  0  0  0  0  0  0  0  0
    4.3560   -0.3970   -0.1820 C   0  0  1  0  0  0  0  0  0  0  0  0
    4.7490   -1.7980   -0.1330 C   0  0  0  0  0  0  0  0  0  0  0  0
    5.5500   -2.2070    0.9230 O   0  0  0  0  0  0  0  0  0  0  0  0
    3.6610   -0.0550    1.0030 O   0  0  0  0  0  0  0  0  0  0  0  0
   -2.2450    1.0440    0.7520 C   0  0  0  0  0  0  0  0  0  0  0  0
   -3.7190    1.2080    0.8150 C   0  0  0  0  0  0  0  0  0  0  0  0
   -9.3800   -0.0230    0.4940 C   0  0  0  0  0  0  0  0  0  0  0  0
   -9.3650    1.2640    0.7810 C   0  0  0  0  0  0  0  0  0  0  0  0
  -10.3430    2.1250    0.2970 C   0  0  0  0  0  0  0  0  0  0  0  0
  -10.4630    3.5560    0.4500 C   0  0  0  0  0  0  0  0  0  0  0  0
  -11.3800    0.9690   -0.6520 S   0  0  0  0  0  0  0  0  0  0  0  0
  -10.4030   -0.5510   -0.3180 C   0  0  0  0  0  0  0  0  0  0  0  0
  -10.4900   -1.8050   -0.7530 C   0  0  0  0  0  0  0  0  0  0  0  0
  1  2  1  0
  2  3  2  0
  2 44  1  0
  3  4  1  0
  4  5  1  0
  4 38  2  0
  5  6  1  0
  6  7  1  0
  7  8  2  0
  9  7  1  1
  9 10  1  0
  9 37  1  0
 10 11  1  0
 11 12  1  0
 12 13  1  0
 12 36  1  0
 13 14  2  0
 13 15  1  0
 15 16  1  0
 16 17  1  0
 17 18  1  0
 19 18  1  6
 19 20  1  0
 19 35  1  0
 21 20  1  1
 21 22  1  0
 21 32  1  0
 22 23  1  6
 22 24  1  0
 24 25  1  0
 25 26  1  0
 25 30  1  0
 26 27  1  0
 27 28  1  0
 28 29  1  0
 29 30  1  0
 30 31  2  0
 32 33  1  1
 32 35  1  0
 33 34  1  0
 36 37  1  0
 38 39  1  0
 38 43  1  0
 39 40  2  0
 40 41  1  0
 40 42  1  0
 42 43  1  0
 43 44  2  0
M  END
