
     RDKit          3D

 43 48  0  0  0  0  0  0  0  0999 V2000
    2.0780    3.8600    0.2520 C   0  0  0  0  0  0  0  0  0  0  0  0
    1.8560    2.4850    0.4870 O   0  0  0  0  0  0  0  0  0  0  0  0
    2.9030    1.6000    0.1880 C   0  0  0  0  0  0  0  0  0  0  0  0
    4.1200    2.0410   -0.3160 C   0  0  0  0  0  0  0  0  0  0  0  0
    5.1600    1.2190   -0.6210 C   0  0  0  0  0  0  0  0  0  0  0  0
    5.0170   -0.1450   -0.4240 C   0  0  0  0  0  0  0  0  0  0  0  0
    6.1320   -1.0670   -0.7510 C   0  0  1  0  0  0  0  0  0  0  0  0
    5.6390   -2.4860   -0.4940 C   0  0  0  0  0  0  0  0  0  0  0  0
    6.4540   -1.0170   -2.2320 C   0  0  0  0  0  0  0  0  0  0  0  0
    7.9590   -1.0480   -2.4570 C   0  0  0  0  0  0  0  0  0  0  0  0
    8.4470    0.0950   -1.8390 O   0  0  0  0  0  0  0  0  0  0  0  0
    8.4520   -0.0830   -0.4860 C   0  0  0  0  0  0  0  0  0  0  0  0
    7.3160   -0.8190    0.1120 C   0  0  0  0  0  0  0  0  0  0  0  0
    3.8310   -0.6130    0.0700 C   0  0  0  0  0  0  0  0  0  0  0  0
    2.7870    0.2420    0.3740 C   0  0  0  0  0  0  0  0  0  0  0  0
    1.5650   -0.2380    0.8910 O   0  0  0  0  0  0  0  0  0  0  0  0
    1.4390   -0.1750    2.2590 C   0  0  0  0  0  0  0  0  0  0  0  0
    2.4470    0.3190    2.8970 O   0  0  0  0  0  0  0  0  0  0  0  0
    0.2920   -0.6050    3.0710 C   0  0  0  0  0  0  0  0  0  0  0  0
   -1.0150   -1.3340    2.0800 S   0  0  0  0  0  0  0  0  0  0  0  0
   -1.7370   -0.0990    1.0180 C   0  0  2  0  0  0  0  0  0  0  0  0
   -2.3480    0.9940    1.7830 N   0  0  0  0  0  0  0  0  0  0  0  0
   -3.1390    1.9330    1.1140 C   0  0  0  0  0  0  0  0  0  0  0  0
   -3.2880    3.2470    1.5630 C   0  0  0  0  0  0  0  0  0  0  0  0
   -4.0610    4.1600    0.8980 C   0  0  0  0  0  0  0  0  0  0  0  0
   -4.7220    3.7730   -0.2610 C   0  0  0  0  0  0  0  0  0  0  0  0
   -4.6030    2.4940   -0.7360 C   0  0  0  0  0  0  0  0  0  0  0  0
   -3.8210    1.5920   -0.0510 C   0  0  0  0  0  0  0  0  0  0  0  0
   -3.6440    0.2190   -0.5020 C   0  0  0  0  0  0  0  0  0  0  0  0
   -4.2220   -0.1620   -1.5300 O   0  0  0  0  0  0  0  0  0  0  0  0
   -2.8330   -0.6910    0.2020 N   0  0  0  0  0  0  0  0  0  0  0  0
   -3.0340   -2.0880    0.2010 C   0  0  1  0  0  0  0  0  0  0  0  0
   -4.2200   -2.4650    1.1310 C   0  0  0  0  0  0  0  0  0  0  0  0
   -4.4540   -3.9410    1.1440 C   0  0  0  0  0  0  0  0  0  0  0  0
   -4.7120   -4.5330   -0.2310 C   0  0  2  0  0  0  0  0  0  0  0  0
   -3.6700   -5.4200   -0.5550 O   0  0  0  0  0  0  0  0  0  0  0  0
   -4.5840   -3.3500   -1.1970 C   0  0  2  0  0  0  0  0  0  0  0  0
   -4.8640   -3.7820   -2.6230 C   0  0  0  0  0  0  0  0  0  0  0  0
   -3.1670   -2.8190   -1.0530 C   0  0  0  0  0  0  0  0  0  0  0  0
   -5.5150    4.7000   -0.9480 O   0  0  0  0  0  0  0  0  0  0  0  0
   -6.1120    5.7460   -0.1890 C   0  0  0  0  0  0  0  0  0  0  0  0
   -5.1590    6.3580    0.7850 C   0  0  0  0  0  0  0  0  0  0  0  0
   -4.2180    5.4600    1.3240 O   0  0  0  0  0  0  0  0  0  0  0  0
  1  2  1  0
  2  3  1  0
  3  4  2  0
  3 15  1  0
  4  5  1  0
  5  6  2  0
  6  7  1  0
  6 14  1  0
  7  8  1  1
  7  9  1  0
  7 13  1  0
  9 10  1  0
 10 11  1  0
 11 12  1  0
 12 13  1  0
 14 15  2  0
 15 16  1  0
 16 17  1  0
 17 18  2  0
 17 19  1  0
 19 20  1  0
 21 20  1  1
 21 22  1  0
 21 31  1  0
 22 23  1  0
 23 24  2  0
 23 28  1  0
 24 25  1  0
 25 26  2  0
 25 43  1  0
 26 27  1  0
 26 40  1  0
 27 28  2  0
 28 29  1  0
 29 30  2  0
 29 31  1  0
 32 31  1  6
 32 33  1  0
 32 39  1  0
 33 34  1  0
 34 35  1  0
 35 36  1  6
 35 37  1  0
 37 38  1  6
 37 39  1  0
 40 41  1  0
 41 42  1  0
 42 43  1  0
M  END
