
     RDKit          3D

 44 48  0  0  0  0  0  0  0  0999 V2000
   -5.5140    2.5130   -2.8930 C   0  0  0  0  0  0  0  0  0  0  0  0
   -4.2490    1.8240   -3.2920 C   0  0  0  0  0  0  0  0  0  0  0  0
   -3.4270    1.6240   -2.1910 O   0  0  0  0  0  0  0  0  0  0  0  0
   -3.7750    0.8650   -1.1060 C   0  0  0  0  0  0  0  0  0  0  0  0
   -4.8800    0.2890   -1.0280 O   0  0  0  0  0  0  0  0  0  0  0  0
   -2.7550    0.7460    0.0080 C   0  0  2  0  0  0  0  0  0  0  0  0
   -2.5240    2.1160    0.5400 C   0  0  0  0  0  0  0  0  0  0  0  0
   -3.7140    2.8030    1.0820 C   0  0  1  0  0  0  0  0  0  0  0  0
   -4.4170    2.1530    2.2260 C   0  0  0  0  0  0  0  0  0  0  0  0
   -3.3540    4.2210    1.5840 C   0  0  0  0  0  0  0  0  0  0  0  0
   -4.6030    4.7920    1.6560 O   0  0  0  0  0  0  0  0  0  0  0  0
   -5.4120    4.1520    0.7320 C   0  0  0  0  0  0  0  0  0  0  0  0
   -4.6820    3.1490    0.1440 O   0  0  0  0  0  0  0  0  0  0  0  0
   -1.5330    0.1890   -0.7090 C   0  0  0  0  0  0  0  0  0  0  0  0
   -0.9430   -1.0180   -0.0770 C   0  0  2  0  0  0  0  0  0  0  0  0
   -1.2380   -2.3410   -0.6630 C   0  0  1  0  0  0  0  0  0  0  0  0
   -2.7100   -2.6890   -0.7780 C   0  0  0  0  0  0  0  0  0  0  0  0
   -2.7180   -3.9510   -1.4250 O   0  0  0  0  0  0  0  0  0  0  0  0
   -2.5750   -3.7000   -2.7860 C   0  0  0  0  0  0  0  0  0  0  0  0
   -1.4370   -2.7200   -3.0680 C   0  0  0  0  0  0  0  0  0  0  0  0
   -0.6060   -2.7010   -1.8950 N   0  0  0  0  0  0  0  0  0  0  0  0
    0.7580   -3.0510   -2.0470 C   0  0  0  0  0  0  0  0  0  0  0  0
    1.2380   -3.3680   -3.1940 O   0  0  0  0  0  0  0  0  0  0  0  0
    1.7200   -3.0920   -0.9990 N   0  0  0  0  0  0  0  0  0  0  0  0
    3.1180   -3.4650   -1.2310 C   0  0  2  0  0  0  0  0  0  0  0  0
    3.5000   -4.4860   -0.1870 C   0  0  0  0  0  0  0  0  0  0  0  0
    3.2880   -3.9820    1.2070 C   0  0  0  0  0  0  0  0  0  0  0  0
    3.7050   -2.5830    1.4690 C   0  0  0  0  0  0  0  0  0  0  0  0
    4.2850   -1.8700    0.3160 C   0  0  0  0  0  0  0  0  0  0  0  0
    4.0140   -2.2860   -0.9590 C   0  0  0  0  0  0  0  0  0  0  0  0
    4.5890   -1.5770   -1.9930 C   0  0  0  0  0  0  0  0  0  0  0  0
    5.4070   -0.4910   -1.7610 C   0  0  0  0  0  0  0  0  0  0  0  0
    5.6870   -0.0650   -0.4800 C   0  0  0  0  0  0  0  0  0  0  0  0
    6.6150    1.1020   -0.2540 C   0  0  0  0  0  0  0  0  0  0  0  0
    5.1200   -0.7590    0.5650 C   0  0  0  0  0  0  0  0  0  0  0  0
    5.4660   -0.2650    2.2280 S   0  0  0  0  0  0  0  0  0  0  0  0
    4.2100    0.8200    2.9300 C   0  0  0  0  0  0  0  0  0  0  0  0
    4.1290    2.1030    2.1910 C   0  0  1  0  0  0  0  0  0  0  0  0
    3.7890    1.9780    0.8650 O   0  0  0  0  0  0  0  0  0  0  0  0
    3.2380    3.1400    2.8200 C   0  0  0  0  0  0  0  0  0  0  0  0
    1.8410    2.6200    2.9190 C   0  0  0  0  0  0  0  0  0  0  0  0
   -1.0790   -1.0040    1.4430 C   0  0  0  0  0  0  0  0  0  0  0  0
   -2.4580   -0.6230    1.8860 C   0  0  0  0  0  0  0  0  0  0  0  0
   -3.2730   -0.0570    0.9650 O   0  0  0  0  0  0  0  0  0  0  0  0
  1  2  1  0
  2  3  1  0
  3  4  1  0
  4  5  2  0
  4  6  1  0
  6  7  1  1
  6 14  1  0
  6 44  1  0
  7  8  1  0
  8  9  1  1
  8 10  1  0
  8 13  1  0
 10 11  1  0
 11 12  1  0
 12 13  1  0
 15 14  1  6
 15 16  1  0
 15 42  1  0
 16 17  1  6
 16 21  1  0
 17 18  1  0
 18 19  1  0
 19 20  1  0
 20 21  1  0
 21 22  1  0
 22 23  2  0
 22 24  1  0
 25 24  1  1
 25 26  1  0
 25 30  1  0
 26 27  1  0
 27 28  1  0
 28 29  1  0
 29 30  2  0
 29 35  1  0
 30 31  1  0
 31 32  2  0
 32 33  1  0
 33 34  1  0
 33 35  2  0
 35 36  1  0
 36 37  1  0
 37 38  1  0
 38 39  1  6
 38 40  1  0
 40 41  1  0
 42 43  1  0
 43 44  1  0
M  END
