
     RDKit          3D

 34 37  0  0  0  0  0  0  0  0999 V2000
   -6.6290    2.1590   -0.9890 C   0  0  0  0  0  0  0  0  0  0  0  0
   -5.3450    1.4710   -1.2810 C   0  0  0  0  0  0  0  0  0  0  0  0
   -4.7360    0.7850   -0.2530 C   0  0  0  0  0  0  0  0  0  0  0  0
   -3.5270    0.1330   -0.5140 C   0  0  0  0  0  0  0  0  0  0  0  0
   -2.9210    0.1470   -1.7500 C   0  0  0  0  0  0  0  0  0  0  0  0
   -1.7080   -0.5040   -2.0100 N   0  0  0  0  0  0  0  0  0  0  0  0
   -1.0070   -1.1810   -0.9480 C   0  0  0  0  0  0  0  0  0  0  0  0
   -0.5970   -0.2390    0.1380 C   0  0  0  0  0  0  0  0  0  0  0  0
   -0.7210    1.0990    0.1930 N   0  0  0  0  0  0  0  0  0  0  0  0
   -0.2260    1.5760    1.3500 C   0  0  0  0  0  0  0  0  0  0  0  0
   -0.1690    2.9620    1.7990 C   0  0  0  0  0  0  0  0  0  0  0  0
    0.3780    3.2680    3.0270 C   0  0  0  0  0  0  0  0  0  0  0  0
    0.4530    4.5710    3.4960 C   0  0  0  0  0  0  0  0  0  0  0  0
   -0.0320    5.5860    2.7120 C   0  0  0  0  0  0  0  0  0  0  0  0
   -0.5760    5.2670    1.4860 C   0  0  0  0  0  0  0  0  0  0  0  0
   -0.6360    3.9780    1.0540 N   0  0  0  0  0  0  0  0  0  0  0  0
    0.2080    0.4870    2.0080 N   0  0  0  0  0  0  0  0  0  0  0  0
   -0.0140   -0.6000    1.2840 N   0  0  0  0  0  0  0  0  0  0  0  0
    0.3540   -1.9170    1.7480 C   0  0  0  0  0  0  0  0  0  0  0  0
   -0.4610   -2.5030    2.6830 C   0  0  0  0  0  0  0  0  0  0  0  0
   -0.1130   -3.7580    3.1270 C   0  0  0  0  0  0  0  0  0  0  0  0
    1.0050   -4.3920    2.6490 C   0  0  0  0  0  0  0  0  0  0  0  0
    1.8130   -3.7740    1.7010 C   0  0  0  0  0  0  0  0  0  0  0  0
    1.5050   -2.5290    1.2330 C   0  0  0  0  0  0  0  0  0  0  0  0
    2.2730   -1.8320    0.2700 N   0  0  0  0  0  0  0  0  0  0  0  0
    3.4400   -2.2540   -0.3660 C   0  0  0  0  0  0  0  0  0  0  0  0
    3.9240   -3.3690   -0.1060 O   0  0  0  0  0  0  0  0  0  0  0  0
    4.1680   -1.4170   -1.3770 C   0  0  0  0  0  0  0  0  0  0  0  0
    5.3800   -2.1100   -1.8990 C   0  0  0  0  0  0  0  0  0  0  0  0
    6.0330   -1.1690   -2.9110 C   0  0  2  0  0  0  0  0  0  0  0  0
    6.3860    0.0200   -2.3040 F   0  0  0  0  0  0  0  0  0  0  0  0
    5.1040   -0.8210   -3.9010 F   0  0  0  0  0  0  0  0  0  0  0  0
   -3.5970    0.8630   -2.7460 C   0  0  0  0  0  0  0  0  0  0  0  0
   -4.7630    1.4900   -2.4880 N   0  0  0  0  0  0  0  0  0  0  0  0
  1  2  1  0
  2  3  2  0
  2 34  1  0
  3  4  1  0
  4  5  2  0
  5  6  1  0
  5 33  1  0
  6  7  1  0
  7  8  1  0
  8  9  2  0
  8 18  1  0
  9 10  1  0
 10 11  1  0
 10 17  2  0
 11 12  2  0
 11 16  1  0
 12 13  1  0
 13 14  2  0
 14 15  1  0
 15 16  2  0
 17 18  1  0
 18 19  1  0
 19 20  2  0
 19 24  1  0
 20 21  1  0
 21 22  2  0
 22 23  1  0
 23 24  2  0
 24 25  1  0
 25 26  1  0
 26 27  2  0
 26 28  1  0
 28 29  1  0
 29 30  1  0
 30 31  1  1
 30 32  1  0
 33 34  2  0
M  END
