
     RDKit          3D

 34 37  0  0  0  0  0  0  0  0999 V2000
   -4.6070    5.6470   -1.3410 C   0  0  0  0  0  0  0  0  0  0  0  0
   -4.1230    4.2780   -1.7210 C   0  0  0  0  0  0  0  0  0  0  0  0
   -4.2210    3.2680   -0.8710 C   0  0  0  0  0  0  0  0  0  0  0  0
   -4.8210    3.5040    0.4690 C   0  0  0  0  0  0  0  0  0  0  0  0
   -3.7310    1.9290   -1.2890 C   0  0  0  0  0  0  0  0  0  0  0  0
   -2.6380    1.5050   -0.3340 C   0  0  0  0  0  0  0  0  0  0  0  0
   -2.1540    0.1770   -0.7360 N   0  0  0  0  0  0  0  0  0  0  0  0
   -1.1140   -0.3580    0.0430 C   0  0  0  0  0  0  0  0  0  0  0  0
    0.1270   -0.2150   -0.3270 C   0  0  0  0  0  0  0  0  0  0  0  0
    1.3000   -0.7110    0.3780 C   0  0  0  0  0  0  0  0  0  0  0  0
    1.3510   -1.8660    1.0610 N   0  0  0  0  0  0  0  0  0  0  0  0
    2.5720   -1.9670    1.5510 N   0  0  0  0  0  0  0  0  0  0  0  0
    3.2950   -0.8920    1.1870 C   0  0  0  0  0  0  0  0  0  0  0  0
    4.6190   -0.5120    1.4330 C   0  0  0  0  0  0  0  0  0  0  0  0
    5.1350    0.6680    0.9340 C   0  0  0  0  0  0  0  0  0  0  0  0
    6.4520    1.0680    1.1670 O   0  0  0  0  0  0  0  0  0  0  0  0
    7.4160    0.6480    0.2700 C   0  0  0  0  0  0  0  0  0  0  0  0
    7.9840   -0.5920    0.4340 C   0  0  0  0  0  0  0  0  0  0  0  0
    8.9580   -0.9920   -0.4890 C   0  0  0  0  0  0  0  0  0  0  0  0
    9.2860   -0.1100   -1.5090 C   0  0  0  0  0  0  0  0  0  0  0  0
    8.6890    1.1230   -1.6310 C   0  0  0  0  0  0  0  0  0  0  0  0
    7.7520    1.4830   -0.7260 N   0  0  0  0  0  0  0  0  0  0  0  0
    4.2700    1.4440    0.1820 C   0  0  0  0  0  0  0  0  0  0  0  0
    2.9980    1.0410   -0.0330 N   0  0  0  0  0  0  0  0  0  0  0  0
    2.5050   -0.0900    0.4460 N   0  0  0  0  0  0  0  0  0  0  0  0
   -1.4220   -1.0540    1.2290 N   0  0  0  0  0  0  0  0  0  0  0  0
   -2.2630   -2.2320    1.3080 C   0  0  1  0  0  0  0  0  0  0  0  0
   -3.6530   -2.0270    0.8500 C   0  0  0  0  0  0  0  0  0  0  0  0
   -4.0970   -2.8230   -0.3390 C   0  0  0  0  0  0  0  0  0  0  0  0
   -3.7880   -4.2900   -0.2280 C   0  0  1  0  0  0  0  0  0  0  0  0
   -4.8740   -5.0320    0.1890 F   0  0  0  0  0  0  0  0  0  0  0  0
   -3.4300   -4.7390   -1.4820 F   0  0  0  0  0  0  0  0  0  0  0  0
   -2.6150   -4.5530    0.6900 C   0  0  0  0  0  0  0  0  0  0  0  0
   -1.6290   -3.3950    0.5800 C   0  0  0  0  0  0  0  0  0  0  0  0
  1  2  1  0
  2  3  2  3
  3  4  1  0
  3  5  1  0
  5  6  1  0
  6  7  1  0
  7  8  1  0
  8  9  2  3
  8 26  1  0
  9 10  1  0
 10 11  2  0
 10 25  1  0
 11 12  1  0
 12 13  2  0
 13 14  1  0
 13 25  1  0
 14 15  2  0
 15 16  1  0
 15 23  1  0
 16 17  1  0
 17 18  2  0
 17 22  1  0
 18 19  1  0
 19 20  2  0
 20 21  1  0
 21 22  2  0
 23 24  2  0
 24 25  1  0
 27 26  1  6
 27 28  1  0
 27 34  1  0
 28 29  1  0
 29 30  1  0
 30 31  1  1
 30 32  1  0
 30 33  1  0
 33 34  1  0
M  END
