
     RDKit          3D

 34 37  0  0  0  0  0  0  0  0999 V2000
    0.1100    1.4220    3.2160 C   0  0  0  0  0  0  0  0  0  0  0  0
    0.5300    0.5460    2.1360 N   0  0  0  0  0  0  0  0  0  0  0  0
   -0.4720    0.0720    1.2470 C   0  0  0  0  0  0  0  0  0  0  0  0
   -1.7560    0.4260    1.3910 N   0  0  0  0  0  0  0  0  0  0  0  0
   -2.7370   -0.0080    0.5690 C   0  0  0  0  0  0  0  0  0  0  0  0
   -4.1600    0.4390    0.7850 C   0  0  0  0  0  0  0  0  0  0  0  0
   -4.8880    0.6710   -0.3820 N   0  0  0  0  0  0  0  0  0  0  0  0
   -5.0820   -0.4320   -1.2080 C   0  0  0  0  0  0  0  0  0  0  0  0
   -6.5990   -0.6150   -1.3850 C   0  0  0  0  0  0  0  0  0  0  0  0
   -7.0760    0.5400   -1.9510 O   0  0  0  0  0  0  0  0  0  0  0  0
   -6.9870    1.6670   -1.1760 C   0  0  1  0  0  0  0  0  0  0  0  0
   -8.1350    1.7800   -0.1900 C   0  0  0  0  0  0  0  0  0  0  0  0
   -5.6510    1.8310   -0.4990 C   0  0  0  0  0  0  0  0  0  0  0  0
   -2.3830   -0.8320   -0.4310 N   0  0  0  0  0  0  0  0  0  0  0  0
   -1.1060   -1.2410   -0.6460 C   0  0  0  0  0  0  0  0  0  0  0  0
   -0.1200   -0.7720    0.2220 C   0  0  0  0  0  0  0  0  0  0  0  0
    1.2870   -1.1220    0.0630 C   0  0  0  0  0  0  0  0  0  0  0  0
    2.2430   -0.2010   -0.1600 N   0  0  0  0  0  0  0  0  0  0  0  0
    3.5430   -0.4790   -0.3040 C   0  0  0  0  0  0  0  0  0  0  0  0
    4.5460    0.5210   -0.5500 N   0  0  0  0  0  0  0  0  0  0  0  0
    5.9030    0.1630   -0.6940 C   0  0  0  0  0  0  0  0  0  0  0  0
    6.8710    1.0260   -0.6620 C   0  0  0  0  0  0  0  0  0  0  0  0
    6.6750    2.4380   -0.4800 C   0  0  0  0  0  0  0  0  0  0  0  0
    7.7070    3.2630   -0.4620 C   0  0  0  0  0  0  0  0  0  0  0  0
    9.0670    2.7240   -0.6320 C   0  0  2  0  0  0  0  0  0  0  0  0
    9.3950    1.9140    0.4110 F   0  0  0  0  0  0  0  0  0  0  0  0
    9.9800    3.7630   -0.7720 F   0  0  0  0  0  0  0  0  0  0  0  0
    3.9120   -1.7700   -0.2160 N   0  0  0  0  0  0  0  0  0  0  0  0
    3.0050   -2.7350    0.0070 C   0  0  0  0  0  0  0  0  0  0  0  0
    3.3730   -4.0640    0.1050 C   0  0  0  0  0  0  0  0  0  0  0  0
    2.4300   -5.0610    0.3430 C   0  0  0  0  0  0  0  0  0  0  0  0
    1.1120   -4.7470    0.4840 C   0  0  0  0  0  0  0  0  0  0  0  0
    0.7330   -3.4460    0.3900 C   0  0  0  0  0  0  0  0  0  0  0  0
    1.6520   -2.4500    0.1560 C   0  0  0  0  0  0  0  0  0  0  0  0
  1  2  1  0
  2  3  1  0
  3  4  2  0
  3 16  1  0
  4  5  1  0
  5  6  1  0
  5 14  2  0
  6  7  1  0
  7  8  1  0
  7 13  1  0
  8  9  1  0
  9 10  1  0
 10 11  1  0
 11 12  1  1
 11 13  1  0
 14 15  1  0
 15 16  2  0
 16 17  1  0
 17 18  2  0
 17 34  1  0
 18 19  1  0
 19 20  1  0
 19 28  2  0
 20 21  1  0
 21 22  2  3
 22 23  1  0
 23 24  2  3
 24 25  1  0
 25 26  1  1
 25 27  1  0
 28 29  1  0
 29 30  2  0
 29 34  1  0
 30 31  1  0
 31 32  2  0
 32 33  1  0
 33 34  2  0
M  END
