
     RDKit          3D

 34 37  0  0  0  0  0  0  0  0999 V2000
   -1.9380    2.0780   -2.6560 C   0  0  0  0  0  0  0  0  0  0  0  0
   -2.4390    2.0380   -1.1330 C   0  0  1  0  0  0  0  0  0  0  0  0
   -3.8970    2.3070   -1.2000 C   0  0  0  0  0  0  0  0  0  0  0  0
   -1.9190    0.8180   -0.5640 C   0  0  0  0  0  0  0  0  0  0  0  0
   -2.5170   -0.2260   -0.0920 C   0  0  0  0  0  0  0  0  0  0  0  0
   -3.8510   -0.6630    0.0880 C   0  0  0  0  0  0  0  0  0  0  0  0
   -4.9090   -0.0330   -0.2230 O   0  0  0  0  0  0  0  0  0  0  0  0
   -4.1710   -1.9770    0.6920 C   0  0  0  0  0  0  0  0  0  0  0  0
   -5.4780   -2.4030    0.8680 C   0  0  0  0  0  0  0  0  0  0  0  0
   -5.7390   -3.6300    1.4340 C   0  0  0  0  0  0  0  0  0  0  0  0
   -7.0150   -4.0110    1.5890 F   0  0  0  0  0  0  0  0  0  0  0  0
   -4.7360   -4.4790    1.8440 C   0  0  0  0  0  0  0  0  0  0  0  0
   -3.4390   -4.0750    1.6780 C   0  0  0  0  0  0  0  0  0  0  0  0
   -2.4340   -4.8900    2.0730 F   0  0  0  0  0  0  0  0  0  0  0  0
   -3.1800   -2.8170    1.0990 C   0  0  0  0  0  0  0  0  0  0  0  0
   -0.4350    0.6720   -0.6800 N   0  0  0  0  0  0  0  0  0  0  0  0
    0.0520   -0.4810   -1.1470 N   0  0  0  0  0  0  0  0  0  0  0  0
    1.3890   -0.4010   -1.1850 C   0  0  0  0  0  0  0  0  0  0  0  0
    2.3780   -1.4190   -1.6300 C   0  0  0  0  0  0  0  0  0  0  0  0
    2.8000   -2.3000   -0.5900 N   0  0  0  0  0  0  0  0  0  0  0  0
    3.4300   -1.6720    0.5280 C   0  0  0  0  0  0  0  0  0  0  0  0
    4.8790   -1.4660    0.1770 C   0  0  0  0  0  0  0  0  0  0  0  0
    5.1520   -2.5080   -0.8710 C   0  0  1  0  0  0  0  0  0  0  0  0
    6.1530   -3.5470   -0.3730 C   0  0  0  0  0  0  0  0  0  0  0  0
    3.8270   -3.1710   -1.1030 C   0  0  0  0  0  0  0  0  0  0  0  0
    1.7410    0.8420   -0.7220 C   0  0  0  0  0  0  0  0  0  0  0  0
    0.5210    1.4970   -0.4010 C   0  0  0  0  0  0  0  0  0  0  0  0
    0.5830    2.6890    0.3460 N   0  0  0  0  0  0  0  0  0  0  0  0
   -0.2980    3.1570    1.3660 C   0  0  0  0  0  0  0  0  0  0  0  0
    0.0970    4.5730    1.7240 C   0  0  0  0  0  0  0  0  0  0  0  0
    0.9980    4.9340    2.6520 N   0  0  0  0  0  0  0  0  0  0  0  0
    1.0500    6.2950    2.6530 C   0  0  0  0  0  0  0  0  0  0  0  0
    0.1990    6.7590    1.7450 N   0  0  0  0  0  0  0  0  0  0  0  0
   -0.3760    5.6980    1.1850 N   0  0  0  0  0  0  0  0  0  0  0  0
  2  1  1  6
  2  3  1  0
  2  4  1  0
  4  5  2  3
  4 16  1  0
  5  6  1  0
  6  7  2  0
  6  8  1  0
  8  9  2  0
  8 15  1  0
  9 10  1  0
 10 11  1  0
 10 12  2  0
 12 13  1  0
 13 14  1  0
 13 15  2  0
 16 17  1  0
 16 27  1  0
 17 18  2  0
 18 19  1  0
 18 26  1  0
 19 20  1  0
 20 21  1  0
 20 25  1  0
 21 22  1  0
 22 23  1  0
 23 24  1  1
 23 25  1  0
 26 27  2  0
 27 28  1  0
 28 29  1  0
 29 30  1  0
 30 31  1  0
 30 34  2  0
 31 32  2  0
 32 33  1  0
 33 34  1  0
M  END
