
     RDKit          3D

 34 38  0  0  0  0  0  0  0  0999 V2000
    7.7980   -0.4510    0.5200 C   0  0  0  0  0  0  0  0  0  0  0  0
    6.5020   -0.1750   -0.0370 N   0  0  0  0  0  0  0  0  0  0  0  0
    6.4700    1.1190   -0.7210 C   0  0  0  0  0  0  0  0  0  0  0  0
    5.2680    1.0770   -1.5950 C   0  0  0  0  0  0  0  0  0  0  0  0
    4.0460    0.6790   -0.8870 N   0  0  0  0  0  0  0  0  0  0  0  0
    2.8320    1.3120   -1.2480 C   0  0  0  0  0  0  0  0  0  0  0  0
    2.9730    2.2610   -2.1090 O   0  0  0  0  0  0  0  0  0  0  0  0
    1.5230    1.0320   -0.7850 C   0  0  0  0  0  0  0  0  0  0  0  0
    0.5470    2.0110   -0.9940 C   0  0  0  0  0  0  0  0  0  0  0  0
   -0.7510    1.8380   -0.6580 C   0  0  0  0  0  0  0  0  0  0  0  0
   -1.1780    0.6580   -0.0790 C   0  0  0  0  0  0  0  0  0  0  0  0
   -2.5110    0.4220    0.3420 N   0  0  0  0  0  0  0  0  0  0  0  0
   -3.5990    1.2520    0.1200 C   0  0  0  0  0  0  0  0  0  0  0  0
   -3.5290    2.3190   -0.4890 O   0  0  0  0  0  0  0  0  0  0  0  0
   -4.9730    0.8840    0.6260 C   0  0  0  0  0  0  0  0  0  0  0  0
   -5.0600    0.2820    1.9420 C   0  0  0  0  0  0  0  0  0  0  0  0
   -6.8640    0.0490    2.0390 S   0  0  0  0  0  0  0  0  0  0  0  0
   -7.3150    0.7140    0.4590 C   0  0  0  0  0  0  0  0  0  0  0  0
   -8.5180    0.8910   -0.2110 C   0  0  0  0  0  0  0  0  0  0  0  0
   -9.5660    0.5170    0.3730 O   0  0  0  0  0  0  0  0  0  0  0  0
   -8.5300    1.4390   -1.4300 N   0  0  0  0  0  0  0  0  0  0  0  0
   -7.3520    1.7950   -1.9460 C   0  0  0  0  0  0  0  0  0  0  0  0
   -6.2090    1.6330   -1.3210 N   0  0  0  0  0  0  0  0  0  0  0  0
   -6.0890    1.0710   -0.0470 C   0  0  0  0  0  0  0  0  0  0  0  0
   -0.2560   -0.3570    0.1540 C   0  0  0  0  0  0  0  0  0  0  0  0
   -0.6300   -1.6400    0.7210 C   0  0  0  0  0  0  0  0  0  0  0  0
   -1.6160   -2.4500    0.2180 C   0  0  0  0  0  0  0  0  0  0  0  0
   -1.8900   -3.6440    0.8440 C   0  0  0  0  0  0  0  0  0  0  0  0
   -1.2100   -4.0690    1.9660 C   0  0  0  0  0  0  0  0  0  0  0  0
   -0.2200   -3.2260    2.4460 C   0  0  0  0  0  0  0  0  0  0  0  0
    0.0590   -2.0440    1.8370 C   0  0  0  0  0  0  0  0  0  0  0  0
    1.0560   -0.1340   -0.2060 C   0  0  0  0  0  0  0  0  0  0  0  0
    4.1040   -0.2700    0.1730 C   0  0  0  0  0  0  0  0  0  0  0  0
    5.4340   -0.2550    0.8900 C   0  0  0  0  0  0  0  0  0  0  0  0
  1  2  1  0
  2  3  1  0
  2 34  1  0
  3  4  1  0
  4  5  1  0
  5  6  1  0
  5 33  1  0
  6  7  2  0
  6  8  1  0
  8  9  2  0
  8 32  1  0
  9 10  1  0
 10 11  2  0
 11 12  1  0
 11 25  1  0
 12 13  1  0
 13 14  2  0
 13 15  1  0
 15 16  2  0
 15 24  1  0
 16 17  1  0
 17 18  1  0
 18 19  1  0
 18 24  2  0
 19 20  2  0
 19 21  1  0
 21 22  1  0
 22 23  2  0
 23 24  1  0
 25 26  1  0
 25 32  2  0
 26 27  2  0
 26 31  1  0
 27 28  1  0
 28 29  2  0
 29 30  1  0
 30 31  2  0
 33 34  1  0
M  END
