
     RDKit          3D

 34 37  0  0  0  0  0  0  0  0999 V2000
    6.7400    3.2100   -0.0730 C   0  0  0  0  0  0  0  0  0  0  0  0
    5.8800    1.9480    0.0520 C   0  0  2  0  0  0  0  0  0  0  0  0
    5.7280    1.3940   -1.3560 C   0  0  0  0  0  0  0  0  0  0  0  0
    4.5590    2.3720    0.6310 C   0  0  0  0  0  0  0  0  0  0  0  0
    3.6280    1.2400    0.8000 C   0  0  0  0  0  0  0  0  0  0  0  0
    4.0500    0.0910    0.4660 O   0  0  0  0  0  0  0  0  0  0  0  0
    2.3210    1.3530    1.3000 N   0  0  0  0  0  0  0  0  0  0  0  0
    1.5010    0.1660    1.4160 C   0  0  0  0  0  0  0  0  0  0  0  0
    0.1330    0.4810    1.9620 C   0  0  1  0  0  0  0  0  0  0  0  0
   -0.5090    1.4600    0.9800 C   0  0  0  0  0  0  0  0  0  0  0  0
   -1.9010    1.8530    1.4290 C   0  0  0  0  0  0  0  0  0  0  0  0
   -2.4890    2.7700    0.5140 N   0  0  0  0  0  0  0  0  0  0  0  0
   -2.9430    2.5310   -0.7890 C   0  0  0  0  0  0  0  0  0  0  0  0
   -3.0100    1.2500   -1.3570 C   0  0  0  0  0  0  0  0  0  0  0  0
   -3.4820    1.0380   -2.6400 C   0  0  0  0  0  0  0  0  0  0  0  0
   -3.5370   -0.2090   -3.1580 F   0  0  0  0  0  0  0  0  0  0  0  0
   -3.9120    2.0810   -3.4250 C   0  0  0  0  0  0  0  0  0  0  0  0
   -3.8510    3.3400   -2.8780 C   0  0  0  0  0  0  0  0  0  0  0  0
   -3.3820    3.5660   -1.6000 C   0  0  0  0  0  0  0  0  0  0  0  0
   -3.3330    4.8200   -1.0800 F   0  0  0  0  0  0  0  0  0  0  0  0
   -0.7110   -0.7610    1.9680 C   0  0  0  0  0  0  0  0  0  0  0  0
   -1.4060   -1.0970    3.0740 N   0  0  0  0  0  0  0  0  0  0  0  0
   -2.1800   -2.1900    3.1710 C   0  0  0  0  0  0  0  0  0  0  0  0
   -2.2700   -3.0220    2.0710 C   0  0  0  0  0  0  0  0  0  0  0  0
   -3.0400   -4.1700    2.0820 C   0  0  0  0  0  0  0  0  0  0  0  0
   -3.0690   -4.9240    0.9700 N   0  0  0  0  0  0  0  0  0  0  0  0
   -2.3790   -4.5990   -0.1400 C   0  0  0  0  0  0  0  0  0  0  0  0
   -1.5990   -3.4650   -0.1960 C   0  0  0  0  0  0  0  0  0  0  0  0
   -1.0070   -3.3760   -1.4440 C   0  0  0  0  0  0  0  0  0  0  0  0
   -1.4380   -4.4540   -2.1210 N   0  0  0  0  0  0  0  0  0  0  0  0
   -2.2410   -5.1760   -1.3670 N   0  0  0  0  0  0  0  0  0  0  0  0
   -2.9030   -6.4190   -1.7610 C   0  0  0  0  0  0  0  0  0  0  0  0
   -1.5490   -2.6620    0.9450 C   0  0  0  0  0  0  0  0  0  0  0  0
   -0.7820   -1.5540    0.8860 N   0  0  0  0  0  0  0  0  0  0  0  0
  2  1  1  6
  2  3  1  0
  2  4  1  0
  4  5  1  0
  5  6  2  0
  5  7  1  0
  7  8  1  0
  9  8  1  6
  9 10  1  0
  9 21  1  0
 10 11  1  0
 11 12  1  0
 12 13  1  0
 13 14  2  0
 13 19  1  0
 14 15  1  0
 15 16  1  0
 15 17  2  0
 17 18  1  0
 18 19  2  0
 19 20  1  0
 21 22  2  0
 21 34  1  0
 22 23  1  0
 23 24  2  0
 24 25  1  0
 24 33  1  0
 25 26  2  0
 26 27  1  0
 27 28  2  0
 27 31  1  0
 28 29  1  0
 28 33  1  0
 29 30  2  0
 30 31  1  0
 31 32  1  0
 33 34  2  0
M  END
