
     RDKit          3D

 31 32  0  0  0  0  0  0  0  0999 V2000
   -5.4470   -3.2660    1.4660 C   0  0  0  0  0  0  0  0  0  0  0  0
   -4.6160   -1.9980    1.2220 C   0  0  0  0  0  0  0  0  0  0  0  0
   -5.1200   -1.3970   -0.0720 C   0  0  1  0  0  0  0  0  0  0  0  0
   -6.5240   -1.1840    0.1590 O   0  0  0  0  0  0  0  0  0  0  0  0
   -4.5200   -0.0990   -0.4130 C   0  0  0  0  0  0  0  0  0  0  0  0
   -3.3900    0.4120    0.1500 C   0  0  0  0  0  0  0  0  0  0  0  0
   -2.9820    1.6840   -0.1600 C   0  0  0  0  0  0  0  0  0  0  0  0
   -1.8610    2.4300    0.4920 C   0  0  1  0  0  0  0  0  0  0  0  0
   -1.5450    1.7120    1.7580 N   0  0  0  0  0  0  0  0  0  0  0  0
   -0.6470    2.4060   -0.3490 C   0  0  0  0  0  0  0  0  0  0  0  0
    0.1030    1.2960   -0.7280 N   0  0  0  0  0  0  0  0  0  0  0  0
    1.0050    0.5470    0.0730 C   0  0  0  0  0  0  0  0  0  0  0  0
    1.2630    0.8200    1.2650 O   0  0  0  0  0  0  0  0  0  0  0  0
    1.7360   -0.6600   -0.4990 C   0  0  2  0  0  0  0  0  0  0  0  0
    1.2030   -1.8260    0.3250 C   0  0  0  0  0  0  0  0  0  0  0  0
    3.1450   -0.4440   -0.3320 N   0  0  0  0  0  0  0  0  0  0  0  0
    3.7970   -1.5800    0.2160 C   0  0  0  0  0  0  0  0  0  0  0  0
    5.3050   -1.5370    0.0450 C   0  0  0  0  0  0  0  0  0  0  0  0
    5.9530   -0.3540    0.6880 C   0  0  0  0  0  0  0  0  0  0  0  0
    7.3800   -0.4190    0.4760 N   0  0  0  0  0  0  0  0  0  0  0  0
    8.0580    0.1030   -0.5520 C   0  0  0  0  0  0  0  0  0  0  0  0
    7.5280    0.7450   -1.5090 O   0  0  0  0  0  0  0  0  0  0  0  0
    9.3690   -0.1440   -0.4330 N   0  0  0  0  0  0  0  0  0  0  0  0
    9.5150   -0.8370    0.6980 N   0  0  0  0  0  0  0  0  0  0  0  0
    8.3090   -1.0100    1.2610 C   0  0  0  0  0  0  0  0  0  0  0  0
    8.0960   -1.6210    2.3410 O   0  0  0  0  0  0  0  0  0  0  0  0
   -3.7180    2.4690   -1.0560 C   0  0  0  0  0  0  0  0  0  0  0  0
   -3.3140    3.8360   -1.4430 C   0  0  0  0  0  0  0  0  0  0  0  0
   -4.8580    1.9500   -1.6300 C   0  0  0  0  0  0  0  0  0  0  0  0
   -5.2570    0.6720   -1.3120 C   0  0  0  0  0  0  0  0  0  0  0  0
   -6.4590    0.0800   -1.9620 C   0  0  0  0  0  0  0  0  0  0  0  0
  1  2  1  0
  2  3  1  0
  3  4  1  1
  3  5  1  0
  5  6  2  0
  5 30  1  0
  6  7  1  0
  7  8  1  0
  7 27  2  0
  8  9  1  1
  8 10  1  0
 10 11  1  0
 11 12  1  0
 12 13  2  0
 12 14  1  0
 14 15  1  1
 14 16  1  0
 16 17  1  0
 17 18  1  0
 18 19  1  0
 19 20  1  0
 20 21  1  0
 20 25  1  0
 21 22  2  0
 21 23  1  0
 23 24  1  0
 24 25  1  0
 25 26  2  0
 27 28  1  0
 27 29  1  0
 29 30  2  0
 30 31  1  0
M  CHG  2   9   1  16   1
M  END
