
     RDKit          3D

 31 32  0  0  0  0  0  0  0  0999 V2000
    3.7630   -3.4480    0.8100 C   0  0  0  0  0  0  0  0  0  0  0  0
    4.8260   -3.2180    0.0800 C   0  0  0  0  0  0  0  0  0  0  0  0
    5.1030   -1.9140   -0.5180 C   0  0  0  0  0  0  0  0  0  0  0  0
    4.0880   -0.9090   -0.3080 N   0  0  0  0  0  0  0  0  0  0  0  0
    2.7710   -1.0480   -0.8240 C   0  0  0  0  0  0  0  0  0  0  0  0
    2.5450   -2.1160   -1.4940 O   0  0  0  0  0  0  0  0  0  0  0  0
    1.7120   -0.0230   -0.6050 C   0  0  2  0  0  0  0  0  0  0  0  0
    0.4990   -0.5800   -1.2200 N   0  0  0  0  0  0  0  0  0  0  0  0
   -0.7430    0.0990   -1.2350 C   0  0  0  0  0  0  0  0  0  0  0  0
   -0.8410    1.2310   -0.7070 O   0  0  0  0  0  0  0  0  0  0  0  0
   -1.9390   -0.4930   -1.8610 C   0  0  1  0  0  0  0  0  0  0  0  0
   -2.2120   -1.8960   -1.3730 C   0  0  0  0  0  0  0  0  0  0  0  0
   -3.1040    0.3310   -1.7840 N   0  0  0  0  0  0  0  0  0  0  0  0
   -3.4450    0.7820   -0.4780 C   0  0  0  0  0  0  0  0  0  0  0  0
   -4.8320    0.3350   -0.1050 C   0  0  2  0  0  0  0  0  0  0  0  0
   -4.9570   -1.0520   -0.1120 O   0  0  0  0  0  0  0  0  0  0  0  0
   -5.9020    0.8910   -0.9940 C   0  0  0  0  0  0  0  0  0  0  0  0
   -7.1790    0.1020   -0.7910 C   0  0  0  0  0  0  0  0  0  0  0  0
   -7.4710    0.0320    0.6420 C   0  0  0  0  0  0  0  0  0  0  0  0
   -8.5600   -0.5190    1.0080 O   0  0  0  0  0  0  0  0  0  0  0  0
   -6.5730    0.5570    1.5800 N   0  0  0  0  0  0  0  0  0  0  0  0
   -5.1630    0.7780    1.3230 C   0  0  0  0  0  0  0  0  0  0  0  0
    2.1070    1.2140   -1.3700 C   0  0  0  0  0  0  0  0  0  0  0  0
    3.0260    2.1340   -0.6700 C   0  0  0  0  0  0  0  0  0  0  0  0
    2.8350    2.3000    0.7980 C   0  0  1  0  0  0  0  0  0  0  0  0
    2.6500    3.7080    1.1380 N   0  0  0  0  0  0  0  0  0  0  0  0
    3.4760    4.1030    2.2630 C   0  0  0  0  0  0  0  0  0  0  0  0
    1.6630    1.5560    1.3670 C   0  0  0  0  0  0  0  0  0  0  0  0
    1.5520    0.1580    0.8630 C   0  0  0  0  0  0  0  0  0  0  0  0
    5.7620   -4.2390   -0.1600 O   0  0  0  0  0  0  0  0  0  0  0  0
    6.3370   -4.8060    1.0230 C   0  0  0  0  0  0  0  0  0  0  0  0
  1  2  2  0
  2  3  1  0
  2 30  1  0
  3  4  1  0
  4  5  1  0
  5  6  2  0
  5  7  1  0
  7  8  1  6
  7 23  1  0
  7 29  1  0
  8  9  1  0
  9 10  2  0
  9 11  1  0
 11 12  1  1
 11 13  1  0
 13 14  1  0
 14 15  1  0
 15 16  1  1
 15 17  1  0
 15 22  1  0
 17 18  1  0
 18 19  1  0
 19 20  2  0
 19 21  1  0
 21 22  1  0
 23 24  1  0
 24 25  1  0
 25 26  1  6
 25 28  1  0
 26 27  1  0
 28 29  1  0
 30 31  1  0
M  CHG  2  13   1  26   1
M  END
