
     RDKit          3D

 30 30  0  0  0  0  0  0  0  0999 V2000
    4.1710   -0.6960    2.1130 C   0  0  0  0  0  0  0  0  0  0  0  0
    3.9550   -0.5640    0.6570 C   0  0  0  0  0  0  0  0  0  0  0  0
    2.6670   -0.3830    0.1260 C   0  0  0  0  0  0  0  0  0  0  0  0
    2.4430   -0.2590   -1.2080 C   0  0  0  0  0  0  0  0  0  0  0  0
    1.2110   -0.0910   -1.8640 N   0  0  0  0  0  0  0  0  0  0  0  0
   -0.0270   -0.2640   -1.2010 C   0  0  0  0  0  0  0  0  0  0  0  0
   -0.1160   -0.5840    0.0030 O   0  0  0  0  0  0  0  0  0  0  0  0
   -1.2700   -0.0670   -1.9230 N   0  0  0  0  0  0  0  0  0  0  0  0
   -2.5510   -0.2240   -1.3040 C   0  0  0  0  0  0  0  0  0  0  0  0
   -2.7720    0.7140   -0.1770 C   0  0  2  0  0  0  0  0  0  0  0  0
   -4.1520    0.4850    0.4210 C   0  0  0  0  0  0  0  0  0  0  0  0
   -5.0310    1.4260    0.2930 O   0  0  0  0  0  0  0  0  0  0  0  0
   -4.6550   -0.5220    1.0650 O   0  0  0  0  0  0  0  0  0  0  0  0
   -5.8790   -1.1420    1.7560 S   0  0  0  0  0  0  0  0  0  0  0  0
   -6.4260   -2.1320    3.2600 F   0  0  0  0  0  0  0  0  0  0  0  0
   -5.2990   -0.1460    3.2770 F   0  0  0  0  0  0  0  0  0  0  0  0
   -6.4570   -2.5060    1.1810 F   0  0  0  0  0  0  0  0  0  0  0  0
   -7.3730   -0.3840    0.6200 F   0  0  0  0  0  0  0  0  0  0  0  0
   -7.4780    0.3010    2.6180 F   0  0  0  0  0  0  0  0  0  0  0  0
   -2.7540    2.1590   -0.5970 C   0  0  2  0  0  0  0  0  0  0  0  0
   -1.5760    2.5350   -1.1550 F   0  0  0  0  0  0  0  0  0  0  0  0
   -2.9810    2.9360    0.5430 F   0  0  0  0  0  0  0  0  0  0  0  0
   -3.8410    2.3600   -1.4270 F   0  0  0  0  0  0  0  0  0  0  0  0
    3.5770   -0.3210   -2.0350 C   0  0  0  0  0  0  0  0  0  0  0  0
    4.8500   -0.4950   -1.5630 C   0  0  0  0  0  0  0  0  0  0  0  0
    5.0240   -0.6170   -0.1910 C   0  0  0  0  0  0  0  0  0  0  0  0
    6.3960   -0.8060    0.3290 C   0  0  1  0  0  0  0  0  0  0  0  0
    7.3330   -0.8340   -0.6640 F   0  0  0  0  0  0  0  0  0  0  0  0
    6.7000    0.2670    1.1530 F   0  0  0  0  0  0  0  0  0  0  0  0
    6.5150   -1.9900    1.0440 F   0  0  0  0  0  0  0  0  0  0  0  0
  1  2  1  0
  2  3  2  0
  2 26  1  0
  3  4  1  0
  4  5  1  0
  4 24  2  0
  5  6  1  0
  6  7  2  0
  6  8  1  0
  8  9  1  0
 10  9  1  6
 10 11  1  0
 10 20  1  0
 11 12  2  0
 11 13  1  0
 13 14  1  0
 14 15  1  0
 14 16  1  0
 14 17  1  0
 14 18  1  0
 14 19  1  0
 20 21  1  6
 20 22  1  0
 20 23  1  0
 24 25  1  0
 25 26  2  0
 26 27  1  0
 27 28  1  6
 27 29  1  0
 27 30  1  0
M  END
