
     RDKit          3D

 31 32  0  0  0  0  0  0  0  0999 V2000
    6.9920    1.0100   -2.1890 C   0  0  0  0  0  0  0  0  0  0  0  0
    5.5070    1.1080   -2.4250 C   0  0  0  0  0  0  0  0  0  0  0  0
    4.6440    0.4090   -1.5750 N   0  0  0  0  0  0  0  0  0  0  0  0
    4.5990    0.5570   -0.1570 C   0  0  0  0  0  0  0  0  0  0  0  0
    5.4440    1.3950    0.3040 O   0  0  0  0  0  0  0  0  0  0  0  0
    3.6890   -0.1590    0.7390 C   0  0  2  0  0  0  0  0  0  0  0  0
    4.1480   -1.5360    1.1430 C   0  0  0  0  0  0  0  0  0  0  0  0
    5.4140   -1.5650    1.8630 C   0  0  0  0  0  0  0  0  0  0  0  0
    5.4710   -2.1820    3.1690 N   0  0  0  0  0  0  0  0  0  0  0  0
    6.4690   -1.0950    1.3990 O   0  0  0  0  0  0  0  0  0  0  0  0
    2.3510   -0.3160    0.1250 N   0  0  0  0  0  0  0  0  0  0  0  0
    1.3460   -0.0410    1.1450 C   0  0  0  0  0  0  0  0  0  0  0  0
   -0.0090    0.1430    0.5920 C   0  0  0  0  0  0  0  0  0  0  0  0
   -0.8030   -0.7560   -0.0130 C   0  0  0  0  0  0  0  0  0  0  0  0
   -2.1300   -0.4420   -0.3970 C   0  0  0  0  0  0  0  0  0  0  0  0
   -2.6130    0.8260   -0.1460 C   0  0  0  0  0  0  0  0  0  0  0  0
   -1.8360    1.7710    0.4840 C   0  0  0  0  0  0  0  0  0  0  0  0
   -2.2820    3.1720    0.7610 C   0  0  0  0  0  0  0  0  0  0  0  0
   -0.5640    1.4410    0.8430 C   0  0  0  0  0  0  0  0  0  0  0  0
    0.2810    2.3130    1.4500 O   0  0  0  0  0  0  0  0  0  0  0  0
   -3.8530    0.9580   -0.6660 N   0  0  0  0  0  0  0  0  0  0  0  0
   -4.6890    2.1040   -0.5860 C   0  0  0  0  0  0  0  0  0  0  0  0
   -5.8080    2.0670    0.3830 C   0  0  0  0  0  0  0  0  0  0  0  0
   -5.4450    1.6970    1.7100 N   0  0  0  0  0  0  0  0  0  0  0  0
   -4.1290   -0.2370   -1.2160 C   0  0  0  0  0  0  0  0  0  0  0  0
   -5.1820   -0.5890   -1.8050 O   0  0  0  0  0  0  0  0  0  0  0  0
   -3.0730   -1.0950   -1.0460 N   0  0  0  0  0  0  0  0  0  0  0  0
   -3.1010   -2.4550   -1.5420 C   0  0  0  0  0  0  0  0  0  0  0  0
   -3.9340   -3.3670   -0.7220 C   0  0  0  0  0  0  0  0  0  0  0  0
   -4.4180   -4.6460   -1.2820 C   0  0  0  0  0  0  0  0  0  0  0  0
   -4.2260   -3.0620    0.4090 O   0  0  0  0  0  0  0  0  0  0  0  0
  1  2  1  0
  2  3  1  0
  3  4  1  0
  4  5  2  0
  4  6  1  0
  6  7  1  6
  6 11  1  0
  7  8  1  0
  8  9  1  0
  8 10  2  0
 11 12  1  0
 12 13  1  0
 13 14  2  0
 13 19  1  0
 14 15  1  0
 15 16  2  0
 15 27  1  0
 16 17  1  0
 16 21  1  0
 17 18  1  0
 17 19  2  0
 19 20  1  0
 21 22  1  0
 21 25  1  0
 22 23  1  0
 23 24  1  0
 25 26  2  0
 25 27  1  0
 27 28  1  0
 28 29  1  0
 29 30  1  0
 29 31  2  0
M  CHG  2  11   1  24   1
M  END
