
     RDKit          3D

 31 32  0  0  0  0  0  0  0  0999 V2000
    6.7070   -2.3070   -1.7470 C   0  0  0  0  0  0  0  0  0  0  0  0
    6.2520   -1.0900   -1.0400 N   0  0  0  0  0  0  0  0  0  0  0  0
    6.5710    0.1840   -1.4980 C   0  0  0  0  0  0  0  0  0  0  0  0
    7.2840    0.1870   -2.5850 O   0  0  0  0  0  0  0  0  0  0  0  0
    6.2190    1.4490   -0.9330 C   0  0  0  0  0  0  0  0  0  0  0  0
    5.5400    1.7320    0.1410 C   0  0  0  0  0  0  0  0  0  0  0  0
    5.2780    3.1920    0.5590 C   0  0  0  0  0  0  0  0  0  0  0  0
    3.9840    3.0340    1.2130 N   0  0  0  0  0  0  0  0  0  0  0  0
    4.0180    1.7250    1.7900 C   0  0  0  0  0  0  0  0  0  0  0  0
    3.1830    1.3230    2.8700 N   0  0  0  0  0  0  0  0  0  0  0  0
    2.8120   -0.0470    2.9380 C   0  0  0  0  0  0  0  0  0  0  0  0
    1.5650   -0.4000    2.7220 C   0  0  0  0  0  0  0  0  0  0  0  0
    0.5600    0.6030    2.4150 C   0  0  0  0  0  0  0  0  0  0  0  0
    0.9390    1.8150    2.3660 O   0  0  0  0  0  0  0  0  0  0  0  0
   -0.8340    0.2140    2.1760 C   0  0  0  0  0  0  0  0  0  0  0  0
   -1.1760    0.0820    0.6830 C   0  0  2  0  0  0  0  0  0  0  0  0
   -0.9410    1.4010    0.0400 C   0  0  0  0  0  0  0  0  0  0  0  0
   -1.2180    1.5180   -1.4110 C   0  0  0  0  0  0  0  0  0  0  0  0
   -2.6080    1.3230   -1.8730 C   0  0  0  0  0  0  0  0  0  0  0  0
   -3.5840    2.3280   -1.3040 C   0  0  0  0  0  0  0  0  0  0  0  0
   -3.2330    3.6870   -1.6810 N   0  0  0  0  0  0  0  0  0  0  0  0
   -2.5330   -0.3730    0.6280 N   0  0  0  0  0  0  0  0  0  0  0  0
   -2.8840   -1.6780    0.1840 C   0  0  0  0  0  0  0  0  0  0  0  0
   -1.9360   -2.4270   -0.1630 O   0  0  0  0  0  0  0  0  0  0  0  0
   -4.3070   -2.0850    0.1500 C   0  0  1  0  0  0  0  0  0  0  0  0
   -5.0790   -1.0360    0.6180 O   0  0  0  0  0  0  0  0  0  0  0  0
   -4.7340   -2.5350   -1.2280 C   0  0  0  0  0  0  0  0  0  0  0  0
   -4.5920   -4.0390   -1.1420 C   0  0  0  0  0  0  0  0  0  0  0  0
   -5.1470   -4.3220    0.2420 C   0  0  0  0  0  0  0  0  0  0  0  0
   -4.4350   -3.2820    1.0690 C   0  0  0  0  0  0  0  0  0  0  0  0
    4.9160    1.0100    1.1570 N   0  0  0  0  0  0  0  0  0  0  0  0
  1  2  1  0
  2  3  1  0
  3  4  2  0
  3  5  1  0
  5  6  2  3
  6  7  1  0
  6 31  1  0
  7  8  1  0
  8  9  1  0
  9 10  1  0
  9 31  2  0
 10 11  1  0
 11 12  2  3
 12 13  1  0
 13 14  2  0
 13 15  1  0
 16 15  1  1
 16 17  1  0
 16 22  1  0
 17 18  1  0
 18 19  1  0
 19 20  1  0
 20 21  1  0
 22 23  1  0
 23 24  2  0
 23 25  1  0
 25 26  1  1
 25 27  1  0
 25 30  1  0
 27 28  1  0
 28 29  1  0
 29 30  1  0
M  CHG  2  21   1  31   1
M  END
