
     RDKit          3D

 31 32  0  0  0  0  0  0  0  0999 V2000
  -10.5560    0.1060   -1.2180 C   0  0  0  0  0  0  0  0  0  0  0  0
  -10.0390   -0.0250    0.0520 O   0  0  0  0  0  0  0  0  0  0  0  0
   -8.7590    0.4510    0.1770 C   0  0  0  0  0  0  0  0  0  0  0  0
   -7.7730   -0.2430   -0.7190 C   0  0  0  0  0  0  0  0  0  0  0  0
   -6.4560    0.3510   -0.4880 N   0  0  1  0  0  0  0  0  0  0  0  0
   -5.8570   -0.3050    0.6400 C   0  0  0  0  0  0  0  0  0  0  0  0
   -4.5460   -0.9890    0.2490 C   0  0  0  0  0  0  0  0  0  0  0  0
   -3.7220    0.0310   -0.3610 N   0  0  0  0  0  0  0  0  0  0  0  0
   -2.4250    0.2850    0.1390 C   0  0  0  0  0  0  0  0  0  0  0  0
   -2.1280    1.5380    0.6130 C   0  0  0  0  0  0  0  0  0  0  0  0
   -0.8810    1.8200    1.1040 C   0  0  0  0  0  0  0  0  0  0  0  0
    0.1370    0.8540    1.1450 C   0  0  0  0  0  0  0  0  0  0  0  0
    1.3970    1.1840    1.6620 N   0  0  0  0  0  0  0  0  0  0  0  0
    2.5530    0.3780    1.6800 C   0  0  0  0  0  0  0  0  0  0  0  0
    2.5350   -0.7640    1.2000 O   0  0  0  0  0  0  0  0  0  0  0  0
    3.7910    0.8310    2.2480 N   0  0  0  0  0  0  0  0  0  0  0  0
    4.9840    0.0530    2.2850 C   0  0  0  0  0  0  0  0  0  0  0  0
    5.4810   -0.3230    0.8540 C   0  0  1  0  0  0  0  0  0  0  0  0
    5.6930    0.9330    0.2640 O   0  0  0  0  0  0  0  0  0  0  0  0
    6.7030   -1.1220    1.0770 C   0  0  0  0  0  0  0  0  0  0  0  0
    7.4570   -1.7150   -0.0130 C   0  0  0  0  0  0  0  0  0  0  0  0
    8.0600   -0.9450   -1.1060 C   0  0  1  0  0  0  0  0  0  0  0  0
    7.1430   -0.2320   -1.9260 N   0  0  0  0  0  0  0  0  0  0  0  0
    9.2200   -0.1090   -0.6790 C   0  0  0  0  0  0  0  0  0  0  0  0
    9.3000    1.2890   -1.1200 C   0  0  0  0  0  0  0  0  0  0  0  0
   10.0620   -0.6010    0.0170 O   0  0  0  0  0  0  0  0  0  0  0  0
   -0.1900   -0.3870    0.6650 C   0  0  0  0  0  0  0  0  0  0  0  0
   -1.4670   -0.6970    0.1550 C   0  0  0  0  0  0  0  0  0  0  0  0
   -1.7500   -2.0010   -0.3290 N   0  0  0  0  0  0  0  0  0  0  0  0
   -4.2920    0.7580   -1.4870 C   0  0  0  0  0  0  0  0  0  0  0  0
   -5.6820    0.1940   -1.7030 C   0  0  0  0  0  0  0  0  0  0  0  0
  1  2  1  0
  2  3  1  0
  3  4  1  0
  5  4  1  6
  5  6  1  0
  5 31  1  0
  6  7  1  0
  7  8  1  0
  8  9  1  0
  8 30  1  0
  9 10  2  0
  9 28  1  0
 10 11  1  0
 11 12  2  0
 12 13  1  0
 12 27  1  0
 13 14  1  0
 14 15  2  0
 14 16  1  0
 16 17  1  0
 17 18  1  0
 18 19  1  6
 18 20  1  0
 20 21  1  0
 21 22  1  0
 22 23  1  1
 22 24  1  0
 24 25  1  0
 24 26  2  0
 27 28  2  0
 28 29  1  0
 30 31  1  0
M  CHG  2   5   1  23   1
M  END
