
     RDKit          3D

 24 25  0  0  0  0  0  0  0  0999 V2000
   -0.4660    3.7410    0.4800 C   0  0  0  0  0  0  0  0  0  0  0  0
    0.1520    2.5140   -0.0880 C   0  0  1  0  0  0  0  0  0  0  0  0
    1.6310    2.5080    0.3230 C   0  0  0  0  0  0  0  0  0  0  0  0
    2.3410    1.5500   -0.3590 O   0  0  0  0  0  0  0  0  0  0  0  0
    2.7130    0.4730    0.4500 C   0  0  0  0  0  0  0  0  0  0  0  0
    2.8770   -0.7210   -0.4620 C   0  0  1  0  0  0  0  0  0  0  0  0
    3.0030   -1.9910    0.3280 C   0  0  0  0  0  0  0  0  0  0  0  0
    4.0210   -1.7700    1.2840 O   0  0  0  0  0  0  0  0  0  0  0  0
    1.9140   -0.7490   -1.4600 O   0  0  0  0  0  0  0  0  0  0  0  0
    0.7110   -1.3910   -1.4610 C   0  0  0  0  0  0  0  0  0  0  0  0
    0.3230   -1.9440   -2.5370 O   0  0  0  0  0  0  0  0  0  0  0  0
   -0.2080   -1.5080   -0.2990 C   0  0  0  0  0  0  0  0  0  0  0  0
   -1.6280   -1.0930   -0.6990 C   0  0  1  0  0  0  0  0  0  0  0  0
   -1.5700   -0.5840   -1.9870 O   0  0  0  0  0  0  0  0  0  0  0  0
   -2.4490   -2.3320   -0.7560 C   0  0  0  0  0  0  0  0  0  0  0  0
   -3.0410   -2.7280   -1.7900 O   0  0  0  0  0  0  0  0  0  0  0  0
   -2.6010   -3.1580    0.4210 N   0  0  0  0  0  0  0  0  0  0  0  0
   -2.3710   -2.6660    1.7120 C   0  0  0  0  0  0  0  0  0  0  0  0
   -2.4280   -3.4020    2.7170 O   0  0  0  0  0  0  0  0  0  0  0  0
   -1.9860   -0.9390    1.9390 S   0  0  0  0  0  0  0  0  0  0  0  0
   -2.2430   -0.1740    0.2890 C   0  0  1  0  0  0  0  0  0  0  0  0
   -1.7500    1.2340    0.2590 C   0  0  2  0  0  0  0  0  0  0  0  0
   -2.3090    1.9660   -0.8370 N   0  0  0  0  0  0  0  0  0  0  0  0
   -0.3860    1.3320    0.3170 O   0  0  0  0  0  0  0  0  0  0  0  0
  2  1  1  1
  2  3  1  0
  2 24  1  0
  3  4  1  0
  4  5  1  0
  5  6  1  0
  6  7  1  1
  6  9  1  0
  7  8  1  0
  9 10  1  0
 10 11  2  0
 10 12  1  0
 12 13  1  0
 13 14  1  6
 13 15  1  0
 13 21  1  0
 15 16  2  0
 15 17  1  0
 17 18  1  0
 18 19  2  0
 18 20  1  0
 21 20  1  1
 21 22  1  0
 22 23  1  6
 22 24  1  0
M  END
