
     RDKit          3D

 13 14  0  0  0  0  0  0  0  0999 V2000
    3.9610    0.4430    0.4290 N   0  0  0  0  0  0  0  0  0  0  0  0
    2.9460    0.7790   -0.4850 C   0  0  0  0  0  0  0  0  0  0  0  0
    3.2410    1.4130   -1.5280 O   0  0  0  0  0  0  0  0  0  0  0  0
    1.5810    0.3890   -0.2110 C   0  0  0  0  0  0  0  0  0  0  0  0
    1.2430   -0.3060    0.9270 C   0  0  0  0  0  0  0  0  0  0  0  0
   -0.0390   -0.7040    1.2420 C   0  0  0  0  0  0  0  0  0  0  0  0
   -1.0920   -0.3980    0.3690 C   0  0  0  0  0  0  0  0  0  0  0  0
   -2.3650   -0.7000    0.5150 N   0  0  0  0  0  0  0  0  0  0  0  0
   -3.2610   -0.4650   -0.1830 C   0  0  0  0  0  0  0  0  0  0  0  0
   -4.6550   -0.6170   -0.3430 N   0  0  0  0  0  0  0  0  0  0  0  0
   -2.3160    0.4640   -1.5510 S   0  0  0  0  0  0  0  0  0  0  0  0
   -0.7660    0.2860   -0.7540 C   0  0  0  0  0  0  0  0  0  0  0  0
    0.5280    0.6830   -1.0630 C   0  0  0  0  0  0  0  0  0  0  0  0
  1  2  1  0
  2  3  2  0
  2  4  1  0
  4  5  2  0
  4 13  1  0
  5  6  1  0
  6  7  2  0
  7  8  1  0
  7 12  1  0
  8  9  2  0
  9 10  1  0
  9 11  1  0
 11 12  1  0
 12 13  2  0
M  END
