
     RDKit          3D

 24 24  0  0  0  0  0  0  0  0999 V2000
    5.3080    2.8910   -0.4960 N   0  0  0  0  0  0  0  0  0  0  0  0
    4.5330    1.9240    0.1930 C   0  0  0  0  0  0  0  0  0  0  0  0
    4.8180    1.5900    1.3930 O   0  0  0  0  0  0  0  0  0  0  0  0
    3.1660    1.1970   -0.6540 S   0  0  0  0  0  0  0  0  0  0  0  0
    2.2810   -0.0420    0.3130 C   0  0  2  0  0  0  0  0  0  0  0  0
    3.1890   -1.1950    0.4890 C   0  0  0  0  0  0  0  0  0  0  0  0
    4.3840   -1.0440    1.2370 N   0  0  0  0  0  0  0  0  0  0  0  0
    2.8870   -2.2970   -0.0310 O   0  0  0  0  0  0  0  0  0  0  0  0
    1.0580   -0.4500   -0.4700 C   0  0  2  0  0  0  0  0  0  0  0  0
    1.4980   -0.9930   -1.6880 O   0  0  0  0  0  0  0  0  0  0  0  0
    0.2710    0.7950   -0.8530 C   0  0  0  0  0  0  0  0  0  0  0  0
   -0.3830    1.2920    0.2480 O   0  0  0  0  0  0  0  0  0  0  0  0
   -0.9480    2.5270    0.0560 C   0  0  0  0  0  0  0  0  0  0  0  0
   -2.4370    2.4410    0.2830 C   0  0  2  0  0  0  0  0  0  0  0  0
   -2.7410    3.1630    1.4340 O   0  0  0  0  0  0  0  0  0  0  0  0
   -2.8180    0.9950    0.3930 C   0  0  0  0  0  0  0  0  0  0  0  0
   -4.1960    0.8080    0.3780 O   0  0  0  0  0  0  0  0  0  0  0  0
   -4.4970   -0.5160    0.6730 C   0  0  0  0  0  0  0  0  0  0  0  0
   -3.7550   -1.4860   -0.2150 C   0  0  0  0  0  0  0  0  0  0  0  0
   -2.4510   -1.7250    0.2700 O   0  0  0  0  0  0  0  0  0  0  0  0
   -1.8680   -2.7020   -0.4990 C   0  0  0  0  0  0  0  0  0  0  0  0
   -0.3890   -2.4970   -0.7420 C   0  0  2  0  0  0  0  0  0  0  0  0
    0.2180   -3.7440   -0.6020 O   0  0  0  0  0  0  0  0  0  0  0  0
    0.1990   -1.4660    0.2100 C   0  0  0  0  0  0  0  0  0  0  0  0
  1  2  1  0
  2  3  2  0
  2  4  1  0
  5  4  1  6
  5  6  1  0
  5  9  1  0
  6  7  1  0
  6  8  2  0
  9 10  1  6
  9 11  1  0
  9 24  1  0
 11 12  1  0
 12 13  1  0
 13 14  1  0
 14 15  1  1
 14 16  1  0
 16 17  1  0
 17 18  1  0
 18 19  1  0
 19 20  1  0
 20 21  1  0
 21 22  1  0
 22 23  1  1
 22 24  1  0
M  END
