
     RDKit          3D

 24 24  0  0  0  0  0  0  0  0999 V2000
    3.3770    1.2980   -1.7830 N   0  0  0  0  0  0  0  0  0  0  0  0
    2.6290    1.8660   -0.6980 C   0  0  0  0  0  0  0  0  0  0  0  0
    1.8720    2.8080   -0.9750 O   0  0  0  0  0  0  0  0  0  0  0  0
    2.7660    1.3450    0.6800 C   0  0  2  0  0  0  0  0  0  0  0  0
    4.1280    1.6230    1.1580 C   0  0  0  0  0  0  0  0  0  0  0  0
    5.2130    1.1040    0.4850 O   0  0  0  0  0  0  0  0  0  0  0  0
    4.3690    2.5370    2.4740 S   0  0  0  0  0  0  0  0  0  0  0  0
    2.4440   -0.1100    0.7670 C   0  0  2  0  0  0  0  0  0  0  0  0
    3.3230   -0.8070   -0.0750 O   0  0  0  0  0  0  0  0  0  0  0  0
    1.0270   -0.4080    0.3360 C   0  0  1  0  0  0  0  0  0  0  0  0
    0.8460   -0.0150   -0.9440 O   0  0  0  0  0  0  0  0  0  0  0  0
   -0.3790    0.5320   -1.2820 C   0  0  0  0  0  0  0  0  0  0  0  0
   -1.0600    1.3130   -0.2200 C   0  0  0  0  0  0  0  0  0  0  0  0
   -1.8580    0.6320    0.6470 O   0  0  0  0  0  0  0  0  0  0  0  0
   -3.1340    0.3470    0.2440 C   0  0  1  0  0  0  0  0  0  0  0  0
   -3.9960    1.6160    0.3190 C   0  0  0  0  0  0  0  0  0  0  0  0
   -4.0210    2.0880    1.6300 O   0  0  0  0  0  0  0  0  0  0  0  0
   -3.2280   -0.2450   -0.9820 O   0  0  0  0  0  0  0  0  0  0  0  0
   -3.4680   -1.5840   -1.0120 C   0  0  0  0  0  0  0  0  0  0  0  0
   -2.6150   -2.4460   -0.1630 C   0  0  0  0  0  0  0  0  0  0  0  0
   -1.4370   -1.9170    0.2640 O   0  0  0  0  0  0  0  0  0  0  0  0
   -0.2870   -2.4540   -0.2450 C   0  0  0  0  0  0  0  0  0  0  0  0
    0.8760   -1.9200    0.5590 C   0  0  2  0  0  0  0  0  0  0  0  0
    0.5830   -2.0800    1.9110 O   0  0  0  0  0  0  0  0  0  0  0  0
  1  2  1  0
  2  3  2  0
  4  2  1  6
  4  5  1  0
  4  8  1  0
  5  6  1  0
  5  7  2  0
  8  9  1  6
  8 10  1  0
 10 11  1  6
 10 23  1  0
 11 12  1  0
 12 13  1  0
 13 14  1  0
 14 15  1  0
 15 16  1  6
 15 18  1  0
 16 17  1  0
 18 19  1  0
 19 20  1  0
 20 21  1  0
 21 22  1  0
 22 23  1  0
 23 24  1  1
M  END
