
     RDKit          3D

 16 17  0  0  0  0  0  0  0  0999 V2000
    5.1910   -0.3160    0.2360 C   0  0  0  0  0  0  0  0  0  0  0  0
    3.8350   -0.5780    0.6210 O   0  0  0  0  0  0  0  0  0  0  0  0
    2.8540   -0.2600   -0.2930 C   0  0  0  0  0  0  0  0  0  0  0  0
    3.1620    0.2360   -1.4080 O   0  0  0  0  0  0  0  0  0  0  0  0
    1.4220   -0.4880    0.0000 C   0  0  1  0  0  0  0  0  0  0  0  0
    0.9590    0.2560    1.2230 C   0  0  0  0  0  0  0  0  0  0  0  0
   -0.4630   -0.0850    1.4750 C   0  0  0  0  0  0  0  0  0  0  0  0
   -0.8990   -0.2490    2.6590 O   0  0  0  0  0  0  0  0  0  0  0  0
   -1.3270   -0.2220    0.3160 C   0  0  0  0  0  0  0  0  0  0  0  0
   -0.8380   -0.2200   -0.9080 C   0  0  0  0  0  0  0  0  0  0  0  0
   -1.7760   -0.3640   -2.0540 C   0  0  0  0  0  0  0  0  0  0  0  0
   -2.9890    0.2330   -1.8850 O   0  0  0  0  0  0  0  0  0  0  0  0
   -3.3980    0.5290   -0.6270 C   0  0  0  0  0  0  0  0  0  0  0  0
   -2.7960   -0.3720    0.4310 C   0  0  2  0  0  0  0  0  0  0  0  0
   -3.3090   -0.1220    1.7330 N   0  0  0  0  0  0  0  0  0  0  0  0
    0.5720   -0.0810   -1.1010 N   0  0  0  0  0  0  0  0  0  0  0  0
  1  2  1  0
  2  3  1  0
  3  4  2  0
  5  3  1  6
  5  6  1  0
  5 16  1  0
  6  7  1  0
  7  8  2  0
  7  9  1  0
  9 10  2  0
  9 14  1  0
 10 11  1  0
 10 16  1  0
 11 12  1  0
 12 13  1  0
 13 14  1  0
 14 15  1  1
M  END
