
     RDKit          3D

 25 25  0  0  0  0  0  0  0  0999 V2000
   -1.7640   -0.0520    1.6780 C   0  0  0  0  0  0  0  0  0  0  0  0
   -2.2450    0.2510    0.3220 C   0  0  1  0  0  0  0  0  0  0  0  0
   -3.7310   -0.2020    0.3010 C   0  0  0  0  0  0  0  0  0  0  0  0
   -4.3770    0.3360    1.4040 O   0  0  0  0  0  0  0  0  0  0  0  0
   -2.3910    1.7180    0.2660 N   0  0  0  0  0  0  0  0  0  0  0  0
   -1.8160    2.5920   -0.6570 C   0  0  0  0  0  0  0  0  0  0  0  0
   -2.6410    3.3480   -1.3180 O   0  0  0  0  0  0  0  0  0  0  0  0
   -0.4330    2.7440   -0.9520 N   0  0  0  0  0  0  0  0  0  0  0  0
    0.6290    3.0890   -0.0760 C   0  0  0  0  0  0  0  0  0  0  0  0
    1.5120    1.9430    0.3110 C   0  0  0  0  0  0  0  0  0  0  0  0
    2.0600    1.3780   -0.8090 O   0  0  0  0  0  0  0  0  0  0  0  0
    2.6690    0.1480   -0.5250 C   0  0  1  0  0  0  0  0  0  0  0  0
    3.3330    0.2350    0.8010 C   0  0  0  0  0  0  0  0  0  0  0  0
    4.3050    1.2650    0.7270 O   0  0  0  0  0  0  0  0  0  0  0  0
    1.7850   -0.8370   -0.7310 O   0  0  0  0  0  0  0  0  0  0  0  0
    1.4060   -1.6580    0.2930 C   0  0  2  0  0  0  0  0  0  0  0  0
    2.2420   -2.8340    0.4910 C   0  0  0  0  0  0  0  0  0  0  0  0
    3.2280   -3.0280   -0.2590 O   0  0  0  0  0  0  0  0  0  0  0  0
    1.9770   -3.7530    1.4900 O   0  0  0  0  0  0  0  0  0  0  0  0
   -0.0360   -2.0890   -0.0250 C   0  0  2  0  0  0  0  0  0  0  0  0
    0.1180   -3.3830   -0.5930 O   0  0  0  0  0  0  0  0  0  0  0  0
   -0.6480   -1.1650   -1.0240 C   0  0  0  0  0  0  0  0  0  0  0  0
    0.0130   -1.4660   -2.7100 S   0  0  0  0  0  0  0  0  0  0  0  0
   -1.5270   -0.2460   -0.8380 C   0  0  0  0  0  0  0  0  0  0  0  0
   -1.9030    0.4660   -2.0230 O   0  0  0  0  0  0  0  0  0  0  0  0
  2  1  1  1
  2  3  1  0
  2  5  1  0
  2 24  1  0
  3  4  1  0
  5  6  1  0
  6  7  2  0
  6  8  1  0
  8  9  1  0
  9 10  1  0
 10 11  1  0
 11 12  1  0
 12 13  1  1
 12 15  1  0
 13 14  1  0
 15 16  1  0
 16 17  1  6
 16 20  1  0
 17 18  2  0
 17 19  1  0
 20 21  1  6
 20 22  1  0
 22 23  1  0
 22 24  2  0
 24 25  1  0
M  END
