
     RDKit          3D

 25 25  0  0  0  0  0  0  0  0999 V2000
   -6.8860    0.3690    1.1350 C   0  0  0  0  0  0  0  0  0  0  0  0
   -5.4920    0.5590    0.9550 O   0  0  0  0  0  0  0  0  0  0  0  0
   -4.5630   -0.4330    1.0640 C   0  0  0  0  0  0  0  0  0  0  0  0
   -4.9170   -1.6000    1.3400 O   0  0  0  0  0  0  0  0  0  0  0  0
   -3.1680   -0.1870    0.8720 N   0  0  0  0  0  0  0  0  0  0  0  0
   -2.1960   -1.2210    0.9850 C   0  0  0  0  0  0  0  0  0  0  0  0
   -0.7960   -0.8370    0.7320 C   0  0  0  0  0  0  0  0  0  0  0  0
   -0.4190   -0.3030   -0.6200 C   0  0  2  0  0  0  0  0  0  0  0  0
   -1.2820    0.8690   -0.7550 O   0  0  0  0  0  0  0  0  0  0  0  0
   -0.8760   -1.1870   -1.6950 C   0  0  0  0  0  0  0  0  0  0  0  0
   -2.2300   -1.5640   -1.4400 O   0  0  0  0  0  0  0  0  0  0  0  0
    0.9840    0.2090   -0.6000 C   0  0  2  0  0  0  0  0  0  0  0  0
    1.5990    0.6880   -1.8460 C   0  0  0  0  0  0  0  0  0  0  0  0
    1.9170   -0.0990   -3.0080 C   0  0  0  0  0  0  0  0  0  0  0  0
    1.0890   -0.7940   -3.7760 O   0  0  0  0  0  0  0  0  0  0  0  0
    1.8870   -0.6560    0.2360 C   0  0  0  0  0  0  0  0  0  0  0  0
    2.9990    0.2840    0.6320 C   0  0  2  0  0  0  0  0  0  0  0  0
    3.7680   -0.4020    1.6510 N   0  0  0  0  0  0  0  0  0  0  0  0
    5.4440   -0.4490    1.3030 S   0  0  1  0  0  0  0  0  0  0  0  0
    6.0530   -1.6320    2.0040 O   0  0  0  0  0  0  0  0  0  0  0  0
    5.7330   -0.5780   -0.1520 O   0  0  0  0  0  0  0  0  0  0  0  0
    2.1270    1.3750    1.2370 C   0  0  1  0  0  0  0  0  0  0  0  0
    2.7850    2.5780    1.3420 O   0  0  0  0  0  0  0  0  0  0  0  0
    0.9590    1.4820    0.2870 C   0  0  2  0  0  0  0  0  0  0  0  0
   -0.2450    1.7420    0.8590 O   0  0  0  0  0  0  0  0  0  0  0  0
  1  2  1  0
  2  3  1  0
  3  4  2  0
  3  5  1  0
  5  6  1  0
  6  7  1  0
  7  8  1  0
  8  9  1  6
  8 10  1  0
  8 12  1  0
 10 11  1  0
 12 13  1  6
 12 16  1  0
 12 24  1  0
 13 14  1  0
 14 15  1  0
 16 17  1  0
 17 18  1  1
 17 22  1  0
 19 18  1  6
 19 20  2  0
 19 21  2  0
 22 23  1  6
 22 24  1  0
 24 25  1  1
M  END
