
     RDKit          3D

 11 12  0  0  0  0  0  0  0  0999 V2000
   -2.0730    2.2830    0.0580 O   0  0  0  0  0  0  0  0  0  0  0  0
   -1.6820    1.0950    0.0800 C   0  0  0  0  0  0  0  0  0  0  0  0
   -2.4290   -0.0170    0.1840 N   0  0  0  0  0  0  0  0  0  0  0  0
   -1.6290   -1.0660    0.1680 N   0  0  0  0  0  0  0  0  0  0  0  0
   -0.3390   -0.6360    0.0530 C   0  0  0  0  0  0  0  0  0  0  0  0
    0.8290   -1.3750   -0.0030 C   0  0  0  0  0  0  0  0  0  0  0  0
    2.0070   -0.6690   -0.1220 C   0  0  0  0  0  0  0  0  0  0  0  0
    3.5190   -1.5820   -0.1970 Cl  0  0  0  0  0  0  0  0  0  0  0  0
    2.0190    0.7090   -0.1820 C   0  0  0  0  0  0  0  0  0  0  0  0
    0.8460    1.4300   -0.1250 C   0  0  0  0  0  0  0  0  0  0  0  0
   -0.3440    0.7420   -0.0060 C   0  0  0  0  0  0  0  0  0  0  0  0
  1  2  2  0
  2  3  1  0
  2 11  1  0
  3  4  1  0
  4  5  1  0
  5  6  2  0
  5 11  1  0
  6  7  1  0
  7  8  1  0
  7  9  2  0
  9 10  1  0
 10 11  2  0
M  END
