
     RDKit          3D

 11 12  0  0  0  0  0  0  0  0999 V2000
    1.1650    2.0920   -0.1480 N   0  0  0  0  0  0  0  0  0  0  0  0
    0.1070    1.1840    0.0780 C   0  0  0  0  0  0  0  0  0  0  0  0
   -1.0790    1.6670    0.4720 N   0  0  0  0  0  0  0  0  0  0  0  0
   -2.0920    0.7940    0.6890 C   0  0  0  0  0  0  0  0  0  0  0  0
   -1.9120   -0.5550    0.5100 C   0  0  0  0  0  0  0  0  0  0  0  0
   -0.6950   -1.0620    0.1050 C   0  0  0  0  0  0  0  0  0  0  0  0
   -0.2380   -2.2690   -0.1420 O   0  0  0  0  0  0  0  0  0  0  0  0
    1.0110   -2.2410   -0.5070 C   0  0  0  0  0  0  0  0  0  0  0  0
    1.4120   -0.9270   -0.5020 C   0  0  0  0  0  0  0  0  0  0  0  0
    2.9720   -0.2710   -0.9000 Cl  0  0  0  0  0  0  0  0  0  0  0  0
    0.3290   -0.1570   -0.1120 C   0  0  0  0  0  0  0  0  0  0  0  0
  1  2  1  0
  2  3  2  0
  2 11  1  0
  3  4  1  0
  4  5  2  0
  5  6  1  0
  6  7  1  0
  6 11  2  0
  7  8  1  0
  8  9  2  0
  9 10  1  0
  9 11  1  0
M  END
