
     RDKit          3D

 11 12  0  0  0  0  0  0  0  0999 V2000
    0.3850    2.7660   -0.0980 O   0  0  0  0  0  0  0  0  0  0  0  0
    0.5480    1.3920   -0.0160 C   0  0  0  0  0  0  0  0  0  0  0  0
    1.8290    0.8980    0.1310 C   0  0  0  0  0  0  0  0  0  0  0  0
    1.9760   -0.4710    0.2130 C   0  0  0  0  0  0  0  0  0  0  0  0
    3.5550   -1.2210    0.4010 Cl  0  0  0  0  0  0  0  0  0  0  0  0
    0.8890   -1.3180    0.1500 C   0  0  0  0  0  0  0  0  0  0  0  0
   -0.4010   -0.8210    0.0020 C   0  0  0  0  0  0  0  0  0  0  0  0
   -1.6160   -1.3750   -0.0880 N   0  0  0  0  0  0  0  0  0  0  0  0
   -2.5330   -0.4110   -0.2230 C   0  0  0  0  0  0  0  0  0  0  0  0
   -1.8830    0.7580   -0.2180 N   0  0  0  0  0  0  0  0  0  0  0  0
   -0.5420    0.5490   -0.0790 C   0  0  0  0  0  0  0  0  0  0  0  0
  1  2  1  0
  2  3  2  0
  2 11  1  0
  3  4  1  0
  4  5  1  0
  4  6  2  0
  6  7  1  0
  7  8  1  0
  7 11  2  0
  8  9  1  0
  9 10  2  0
 10 11  1  0
M  END
