
     RDKit          3D

 11 12  0  0  0  0  0  0  0  0999 V2000
   -2.8070   -0.5030   -0.1520 N   0  0  0  0  0  0  0  0  0  0  0  0
   -1.4140   -0.1500   -0.0260 C   0  0  0  0  0  0  0  0  0  0  0  0
   -1.0820    1.0620    0.5560 C   0  0  0  0  0  0  0  0  0  0  0  0
    0.2560    1.3760    0.6640 C   0  0  0  0  0  0  0  0  0  0  0  0
    0.6760    2.9080    1.4000 Cl  0  0  0  0  0  0  0  0  0  0  0  0
    1.2450    0.5230    0.2140 C   0  0  0  0  0  0  0  0  0  0  0  0
    2.6020    0.5740    0.1940 N   0  0  0  0  0  0  0  0  0  0  0  0
    3.0810   -0.5490   -0.3710 C   0  0  0  0  0  0  0  0  0  0  0  0
    2.0480   -1.2970   -0.7030 O   0  0  0  0  0  0  0  0  0  0  0  0
    0.9230   -0.6870   -0.3670 C   0  0  0  0  0  0  0  0  0  0  0  0
   -0.4150   -0.9920   -0.4710 C   0  0  0  0  0  0  0  0  0  0  0  0
  1  2  1  0
  2  3  2  0
  2 11  1  0
  3  4  1  0
  4  5  1  0
  4  6  2  0
  6  7  1  0
  6 10  1  0
  7  8  2  0
  8  9  1  0
  9 10  1  0
 10 11  2  0
M  END
