
     RDKit          3D

 11 12  0  0  0  0  0  0  0  0999 V2000
    2.3230   -1.0130   -0.0790 N   0  0  0  0  0  0  0  0  0  0  0  0
    1.1470   -0.2460   -0.0240 C   0  0  0  0  0  0  0  0  0  0  0  0
    1.1850    1.1250    0.0590 C   0  0  0  0  0  0  0  0  0  0  0  0
    0.0420    1.8720    0.1130 C   0  0  0  0  0  0  0  0  0  0  0  0
    0.1220    3.6100    0.2170 Cl  0  0  0  0  0  0  0  0  0  0  0  0
   -1.1720    1.2070    0.0820 C   0  0  0  0  0  0  0  0  0  0  0  0
   -1.2740   -0.1640    0.0000 C   0  0  0  0  0  0  0  0  0  0  0  0
   -2.3200   -1.0700   -0.0460 C   0  0  0  0  0  0  0  0  0  0  0  0
   -1.7410   -2.2740   -0.1230 N   0  0  0  0  0  0  0  0  0  0  0  0
   -0.4400   -2.1540   -0.1260 O   0  0  0  0  0  0  0  0  0  0  0  0
   -0.0960   -0.8870   -0.0530 C   0  0  0  0  0  0  0  0  0  0  0  0
  1  2  1  0
  2  3  2  0
  2 11  1  0
  3  4  1  0
  4  5  1  0
  4  6  2  0
  6  7  1  0
  7  8  1  0
  7 11  2  0
  8  9  2  0
  9 10  1  0
 10 11  1  0
M  END
