
     RDKit          3D

 26 28  0  0  0  0  0  0  0  0999 V2000
    7.1870    2.0130    1.3620 N   0  0  0  0  0  0  0  0  0  0  0  0
    6.2010    1.0220    1.1280 C   0  0  0  0  0  0  0  0  0  0  0  0
    6.2290   -0.2090    1.6610 N   0  0  0  0  0  0  0  0  0  0  0  0
    5.2970   -1.1510    1.4420 C   0  0  0  0  0  0  0  0  0  0  0  0
    4.2700   -0.8380    0.6350 N   0  0  0  0  0  0  0  0  0  0  0  0
    4.1490    0.3450    0.0610 C   0  0  0  0  0  0  0  0  0  0  0  0
    5.1290    1.3100    0.3020 C   0  0  0  0  0  0  0  0  0  0  0  0
    4.7610    2.3810   -0.3870 N   0  0  0  0  0  0  0  0  0  0  0  0
    3.6100    2.1080   -1.0300 C   0  0  0  0  0  0  0  0  0  0  0  0
    3.2190    0.8490   -0.7610 N   0  0  0  0  0  0  0  0  0  0  0  0
    2.0290    0.2640   -1.3010 C   0  0  2  0  0  0  0  0  0  0  0  0
    0.8550    0.8170   -0.7570 O   0  0  0  0  0  0  0  0  0  0  0  0
   -0.0980    0.0510   -1.4260 C   0  0  2  0  0  0  0  0  0  0  0  0
   -1.4890    0.2850   -0.8850 C   0  0  0  0  0  0  0  0  0  0  0  0
   -1.6270   -0.1300    0.8560 S   0  0  0  0  0  0  0  0  0  0  0  0
   -3.3690    0.2100    1.3450 C   0  0  0  0  0  0  0  0  0  0  0  0
   -4.2660   -0.7350    0.6270 C   0  0  0  0  0  0  0  0  0  0  0  0
   -5.6950   -0.4970    1.0120 C   0  0  2  0  0  0  0  0  0  0  0  0
   -6.4780   -1.4850    0.2490 N   0  0  0  0  0  0  0  0  0  0  0  0
   -6.1940    0.8380    0.6470 C   0  0  0  0  0  0  0  0  0  0  0  0
   -5.8070    1.9230    1.1540 O   0  0  0  0  0  0  0  0  0  0  0  0
   -7.1810    0.9740   -0.3400 O   0  0  0  0  0  0  0  0  0  0  0  0
    0.3570   -1.3720   -1.2130 C   0  0  1  0  0  0  0  0  0  0  0  0
    0.1420   -2.0680   -2.4010 O   0  0  0  0  0  0  0  0  0  0  0  0
    1.8590   -1.1830   -0.9500 C   0  0  1  0  0  0  0  0  0  0  0  0
    2.6180   -2.0360   -1.7480 O   0  0  0  0  0  0  0  0  0  0  0  0
  1  2  1  0
  2  3  2  0
  2  7  1  0
  3  4  1  0
  4  5  2  0
  5  6  1  0
  6  7  2  0
  6 10  1  0
  7  8  1  0
  8  9  2  0
  9 10  1  0
 11 10  1  1
 11 12  1  0
 11 25  1  0
 12 13  1  0
 13 14  1  1
 13 23  1  0
 14 15  1  0
 15 16  1  0
 16 17  1  0
 17 18  1  0
 18 19  1  6
 18 20  1  0
 20 21  2  0
 20 22  1  0
 23 24  1  6
 23 25  1  0
 25 26  1  6
M  END
