
     RDKit          3D

 11 12  0  0  0  0  0  0  0  0999 V2000
   -2.2820   -0.6120    0.0480 N   0  0  0  0  0  0  0  0  0  0  0  0
   -1.0470    0.0850   -0.0060 C   0  0  0  0  0  0  0  0  0  0  0  0
   -1.0520    1.4580   -0.1090 C   0  0  0  0  0  0  0  0  0  0  0  0
    0.1450    2.1610   -0.1640 C   0  0  0  0  0  0  0  0  0  0  0  0
    1.3050    1.4810   -0.1160 N   0  0  0  0  0  0  0  0  0  0  0  0
    1.3800    0.1400   -0.0150 C   0  0  0  0  0  0  0  0  0  0  0  0
    2.4180   -0.7860    0.0520 C   0  0  0  0  0  0  0  0  0  0  0  0
    4.1160   -0.3570    0.0170 Cl  0  0  0  0  0  0  0  0  0  0  0  0
    1.8590   -1.9460    0.1410 O   0  0  0  0  0  0  0  0  0  0  0  0
    0.5410   -1.8760    0.1380 C   0  0  0  0  0  0  0  0  0  0  0  0
    0.1770   -0.5490    0.0390 C   0  0  0  0  0  0  0  0  0  0  0  0
  1  2  1  0
  2  3  2  0
  2 11  1  0
  3  4  1  0
  4  5  2  0
  5  6  1  0
  6  7  2  0
  6 11  1  0
  7  8  1  0
  7  9  1  0
  9 10  1  0
 10 11  2  0
M  END
