
     RDKit          3D

 11 12  0  0  0  0  0  0  0  0999 V2000
    2.0420    2.2040    0.4890 O   0  0  0  0  0  0  0  0  0  0  0  0
    1.6520    1.0460    0.1790 C   0  0  0  0  0  0  0  0  0  0  0  0
    2.4590    0.0310   -0.1800 N   0  0  0  0  0  0  0  0  0  0  0  0
    1.6630   -0.9960   -0.4190 N   0  0  0  0  0  0  0  0  0  0  0  0
    0.3730   -0.6780   -0.2270 C   0  0  0  0  0  0  0  0  0  0  0  0
   -0.8340   -1.3500   -0.3310 C   0  0  0  0  0  0  0  0  0  0  0  0
   -2.0350   -0.7500   -0.0630 C   0  0  0  0  0  0  0  0  0  0  0  0
   -2.0920    0.5700    0.3270 C   0  0  0  0  0  0  0  0  0  0  0  0
   -3.6110    1.3730    0.6790 Cl  0  0  0  0  0  0  0  0  0  0  0  0
   -0.8800    1.2450    0.4320 C   0  0  0  0  0  0  0  0  0  0  0  0
    0.3300    0.6450    0.1640 C   0  0  0  0  0  0  0  0  0  0  0  0
  1  2  2  0
  2  3  1  0
  2 11  1  0
  3  4  1  0
  4  5  1  0
  5  6  2  0
  5 11  1  0
  6  7  1  0
  7  8  2  0
  8  9  1  0
  8 10  1  0
 10 11  2  0
M  END
