
     RDKit          3D

 29 31  0  0  0  0  0  0  0  0999 V2000
   -0.6020    2.9920    1.5000 C   0  0  0  0  0  0  0  0  0  0  0  0
   -1.9510    2.7410    1.1560 O   0  0  0  0  0  0  0  0  0  0  0  0
   -2.2920    1.4310    0.8530 C   0  0  0  0  0  0  0  0  0  0  0  0
   -1.3680    0.3980    0.8790 C   0  0  0  0  0  0  0  0  0  0  0  0
   -1.6610   -0.9120    0.5850 C   0  0  0  0  0  0  0  0  0  0  0  0
   -0.7370   -1.9440    0.6130 O   0  0  0  0  0  0  0  0  0  0  0  0
    0.6110   -1.8220    0.9230 C   0  0  0  0  0  0  0  0  0  0  0  0
    1.3670   -0.9490   -0.0080 C   0  0  0  0  0  0  0  0  0  0  0  0
    0.8050   -0.4280   -1.0040 O   0  0  0  0  0  0  0  0  0  0  0  0
    2.7470   -0.6690    0.1890 N   0  0  0  0  0  0  0  0  0  0  0  0
    3.4550    0.1700   -0.7120 C   0  0  0  0  0  0  0  0  0  0  0  0
    2.6790    0.8160   -1.9820 S   0  0  0  0  0  0  0  0  0  0  0  0
    4.8660    0.4190   -0.4580 C   0  0  0  0  0  0  0  0  0  0  0  0
    5.7070   -0.6840   -0.5120 C   0  0  0  0  0  0  0  0  0  0  0  0
    7.0530   -0.5080   -0.2790 C   0  0  0  0  0  0  0  0  0  0  0  0
    7.5610    0.7420    0.0030 C   0  0  0  0  0  0  0  0  0  0  0  0
    9.2660    0.9970    0.3030 Cl  0  0  0  0  0  0  0  0  0  0  0  0
    6.6830    1.8040    0.0450 C   0  0  0  0  0  0  0  0  0  0  0  0
    7.2140    3.1100    0.3400 N   0  0  0  0  0  0  0  0  0  0  0  0
    5.3580    1.6410   -0.1820 N   0  0  0  0  0  0  0  0  0  0  0  0
   -2.9800   -1.2280    0.2370 C   0  0  0  0  0  0  0  0  0  0  0  0
   -3.9200   -0.2300    0.2020 C   0  0  0  0  0  0  0  0  0  0  0  0
   -3.5980    1.0680    0.4990 C   0  0  0  0  0  0  0  0  0  0  0  0
   -4.5580    2.0830    0.4620 O   0  0  0  0  0  0  0  0  0  0  0  0
   -5.2910   -0.6340   -0.1750 C   0  0  1  0  0  0  0  0  0  0  0  0
   -6.1580    0.4450   -0.4510 N   0  0  0  0  0  0  0  0  0  0  0  0
   -5.1410   -1.5280   -1.3900 C   0  0  0  0  0  0  0  0  0  0  0  0
   -4.3900   -2.7130   -1.1150 N   0  0  0  0  0  0  0  0  0  0  0  0
   -3.4010   -2.6140   -0.0960 C   0  0  0  0  0  0  0  0  0  0  0  0
  1  2  1  0
  2  3  1  0
  3  4  2  0
  3 23  1  0
  4  5  1  0
  5  6  1  0
  5 21  2  0
  6  7  1  0
  7  8  1  0
  8  9  2  0
  8 10  1  0
 10 11  1  0
 11 12  2  0
 11 13  1  0
 13 14  2  0
 13 20  1  0
 14 15  1  0
 15 16  2  0
 16 17  1  0
 16 18  1  0
 18 19  1  0
 18 20  2  0
 21 22  1  0
 21 29  1  0
 22 23  2  0
 22 25  1  0
 23 24  1  0
 25 26  1  6
 25 27  1  0
 27 28  1  0
 28 29  1  0
M  CHG  1  28   1
M  END
