
     RDKit          3D

 30 32  0  0  0  0  0  0  0  0999 V2000
    6.2960    2.4490   -0.1800 C   0  0  0  0  0  0  0  0  0  0  0  0
    5.2560    1.3170   -0.5080 C   0  0  0  0  0  0  0  0  0  0  0  0
    3.8940    1.8210   -0.1920 C   0  0  0  0  0  0  0  0  0  0  0  0
    2.6930    1.0410   -0.4380 C   0  0  2  0  0  0  0  0  0  0  0  0
    1.4930    1.9260    0.0060 C   0  0  0  0  0  0  0  0  0  0  0  0
    0.3060    1.4210   -0.7110 C   0  0  0  0  0  0  0  0  0  0  0  0
   -0.0590   -0.0150   -0.3020 C   0  0  1  0  0  0  0  0  0  0  0  0
   -0.1630    0.0730    1.1090 O   0  0  0  0  0  0  0  0  0  0  0  0
   -1.4010   -0.2730   -0.7920 C   0  0  2  0  0  0  0  0  0  0  0  0
   -1.4100   -0.0690   -2.3400 C   0  0  0  0  0  0  0  0  0  0  0  0
   -2.3150    0.8630   -0.3450 C   0  0  0  0  0  0  0  0  0  0  0  0
   -3.7190    0.5980   -0.0150 C   0  0  2  0  0  0  0  0  0  0  0  0
   -4.7020    0.6990   -1.1590 C   0  0  0  0  0  0  0  0  0  0  0  0
   -4.1720    1.7080    0.9420 C   0  0  0  0  0  0  0  0  0  0  0  0
   -4.1020    3.0840    0.4470 C   0  0  0  0  0  0  0  0  0  0  0  0
   -2.9000    3.6020    0.0750 O   0  0  0  0  0  0  0  0  0  0  0  0
   -3.9690   -0.6570    0.7970 C   0  0  0  0  0  0  0  0  0  0  0  0
   -3.0480   -1.7870    0.5090 C   0  0  1  0  0  0  0  0  0  0  0  0
   -2.4770   -2.3750    1.7600 C   0  0  0  0  0  0  0  0  0  0  0  0
   -3.9990   -2.9280    0.0120 C   0  0  0  0  0  0  0  0  0  0  0  0
   -2.1480   -1.5240   -0.6310 C   0  0  2  0  0  0  0  0  0  0  0  0
   -1.5940   -2.6700   -1.2260 O   0  0  0  0  0  0  0  0  0  0  0  0
    1.1160   -0.8460   -0.5720 C   0  0  1  0  0  0  0  0  0  0  0  0
    1.0560   -2.2410    0.0130 C   0  0  0  0  0  0  0  0  0  0  0  0
    1.4990   -0.9780   -2.0250 C   0  0  0  0  0  0  0  0  0  0  0  0
    2.4210   -0.2940    0.0810 C   0  0  1  0  0  0  0  0  0  0  0  0
    3.5010   -1.2710   -0.3660 C   0  0  0  0  0  0  0  0  0  0  0  0
    4.2170   -1.8050    0.8270 C   0  0  0  0  0  0  0  0  0  0  0  0
    3.7260   -1.0650    2.0150 C   0  0  0  0  0  0  0  0  0  0  0  0
    2.4220   -0.4250    1.5690 C   0  0  0  0  0  0  0  0  0  0  0  0
  1  2  1  0
  2  3  1  0
  4  3  1  1
  4  5  1  0
  4 26  1  0
  5  6  1  0
  6  7  1  0
  7  8  1  1
  7  9  1  0
  7 23  1  0
  9 10  1  6
  9 11  1  0
  9 21  1  0
 11 12  1  0
 12 13  1  6
 12 14  1  0
 12 17  1  0
 14 15  1  0
 15 16  1  0
 17 18  1  0
 18 19  1  1
 18 20  1  0
 18 21  1  0
 21 22  1  1
 23 24  1  1
 23 25  1  0
 23 26  1  0
 26 27  1  6
 26 30  1  0
 27 28  1  0
 28 29  1  0
 29 30  1  0
M  END
