
     RDKit          3D

 30 33  0  0  0  0  0  0  0  0999 V2000
   -4.7360   -0.0210   -2.5890 C   0  0  0  0  0  0  0  0  0  0  0  0
   -4.3520    0.3400   -1.1340 C   0  0  1  0  0  0  0  0  0  0  0  0
   -3.0350    0.2090   -0.8210 O   0  0  0  0  0  0  0  0  0  0  0  0
   -2.4700   -0.8500   -0.0890 C   0  0  0  0  0  0  0  0  0  0  0  0
   -3.1460   -1.8380    0.5460 C   0  0  0  0  0  0  0  0  0  0  0  0
   -2.4750   -2.8590    1.2470 C   0  0  0  0  0  0  0  0  0  0  0  0
   -1.0940   -2.8500    1.2870 C   0  0  0  0  0  0  0  0  0  0  0  0
   -0.1660   -3.6520    1.8610 N   0  0  0  0  0  0  0  0  0  0  0  0
    1.0700   -3.1890    1.5960 N   0  0  0  0  0  0  0  0  0  0  0  0
    0.9720   -2.0850    0.8530 C   0  0  0  0  0  0  0  0  0  0  0  0
    2.0050   -1.1720    0.3910 C   0  0  0  0  0  0  0  0  0  0  0  0
    3.2390   -1.2870    0.7760 C   0  0  0  0  0  0  0  0  0  0  0  0
    4.2560   -0.3130    0.2840 C   0  0  0  0  0  0  0  0  0  0  0  0
    4.0390    0.6370   -0.7310 C   0  0  0  0  0  0  0  0  0  0  0  0
    5.1250    1.3800   -0.7750 N   0  0  0  0  0  0  0  0  0  0  0  0
    6.0260    0.9980    0.1210 N   0  0  0  0  0  0  0  0  0  0  0  0
    7.3230    1.6240    0.3530 C   0  0  0  0  0  0  0  0  0  0  0  0
    8.3930    0.9420   -0.4110 C   0  0  0  0  0  0  0  0  0  0  0  0
    8.2500    0.9270   -1.7710 O   0  0  0  0  0  0  0  0  0  0  0  0
    5.5050   -0.0450    0.7800 C   0  0  0  0  0  0  0  0  0  0  0  0
   -0.3930   -1.8690    0.6560 C   0  0  0  0  0  0  0  0  0  0  0  0
   -1.0770   -0.8880   -0.0170 C   0  0  0  0  0  0  0  0  0  0  0  0
   -5.1820    1.3710   -0.5790 C   0  0  0  0  0  0  0  0  0  0  0  0
   -4.7690    2.5670   -0.0730 C   0  0  0  0  0  0  0  0  0  0  0  0
   -3.0880    3.0990   -0.2230 Cl  0  0  0  0  0  0  0  0  0  0  0  0
   -5.7010    3.3970    0.5550 C   0  0  0  0  0  0  0  0  0  0  0  0
   -6.9900    3.1030    0.7060 N   0  0  0  0  0  0  0  0  0  0  0  0
   -7.4200    1.9450    0.2250 C   0  0  0  0  0  0  0  0  0  0  0  0
   -6.5580    1.0590   -0.4210 C   0  0  0  0  0  0  0  0  0  0  0  0
   -7.1880   -0.4800   -0.9230 Cl  0  0  0  0  0  0  0  0  0  0  0  0
  2  1  1  6
  2  3  1  0
  2 23  1  0
  3  4  1  0
  4  5  2  0
  4 22  1  0
  5  6  1  0
  6  7  2  0
  7  8  1  0
  7 21  1  0
  8  9  1  0
  9 10  2  0
 10 11  1  0
 10 21  1  0
 11 12  2  3
 12 13  1  0
 13 14  1  0
 13 20  2  0
 14 15  2  0
 15 16  1  0
 16 17  1  0
 16 20  1  0
 17 18  1  0
 18 19  1  0
 21 22  2  0
 23 24  2  0
 23 29  1  0
 24 25  1  0
 24 26  1  0
 26 27  2  0
 27 28  1  0
 28 29  2  0
 29 30  1  0
M  END
