
     RDKit          3D

 29 31  0  0  0  0  0  0  0  0999 V2000
    9.1900    0.4410    0.1650 C   0  0  0  0  0  0  0  0  0  0  0  0
    8.4140   -1.0050   -0.6240 S   0  0  0  0  0  0  0  0  0  0  0  0
    6.6340   -0.9580   -0.3680 C   0  0  0  0  0  0  0  0  0  0  0  0
    6.1340   -1.5690    0.7470 C   0  0  0  0  0  0  0  0  0  0  0  0
    4.7890   -1.5380    0.9490 C   0  0  0  0  0  0  0  0  0  0  0  0
    3.9700   -0.8910    0.0260 C   0  0  0  0  0  0  0  0  0  0  0  0
    2.5860   -0.8980    0.2640 N   0  0  0  0  0  0  0  0  0  0  0  0
    1.6340   -0.0790   -0.3510 C   0  0  0  0  0  0  0  0  0  0  0  0
    1.9510    0.7660   -1.1970 O   0  0  0  0  0  0  0  0  0  0  0  0
    0.2480   -0.2320    0.0160 N   0  0  0  0  0  0  0  0  0  0  0  0
   -0.1500   -1.1950    0.9980 C   0  0  0  0  0  0  0  0  0  0  0  0
   -1.5490   -1.0930    1.4890 C   0  0  0  0  0  0  0  0  0  0  0  0
   -2.5250   -0.5250    0.4640 C   0  0  2  0  0  0  0  0  0  0  0  0
   -3.7550   -0.4890    1.0720 O   0  0  0  0  0  0  0  0  0  0  0  0
   -2.5110   -1.5010   -0.7060 C   0  0  0  0  0  0  0  0  0  0  0  0
   -2.8330   -2.8110   -0.1760 N   0  0  0  0  0  0  0  0  0  0  0  0
   -1.9870    0.8280    0.0960 C   0  0  2  0  0  0  0  0  0  0  0  0
   -2.8840    1.6730   -0.6870 C   0  0  0  0  0  0  0  0  0  0  0  0
   -2.5060    2.0150   -1.8560 O   0  0  0  0  0  0  0  0  0  0  0  0
   -4.1920    2.1530   -0.2130 C   0  0  0  0  0  0  0  0  0  0  0  0
   -4.7720    1.9440    0.9120 N   0  0  0  0  0  0  0  0  0  0  0  0
   -6.0550    2.5820    1.0120 C   0  0  2  0  0  0  0  0  0  0  0  0
   -7.3660    1.4360    1.3260 Cl  0  0  0  0  0  0  0  0  0  0  0  0
   -6.1910    3.2580   -0.2990 C   0  0  0  0  0  0  0  0  0  0  0  0
   -5.0990    2.9900   -0.9780 C   0  0  0  0  0  0  0  0  0  0  0  0
   -4.8960    3.4800   -2.2770 O   0  0  0  0  0  0  0  0  0  0  0  0
   -0.6970    0.6260   -0.6570 C   0  0  0  0  0  0  0  0  0  0  0  0
    4.5060   -0.2900   -1.0790 C   0  0  0  0  0  0  0  0  0  0  0  0
    5.8540   -0.3350   -1.2590 N   0  0  0  0  0  0  0  0  0  0  0  0
  1  2  1  0
  2  3  1  0
  3  4  2  0
  3 29  1  0
  4  5  1  0
  5  6  2  0
  6  7  1  0
  6 28  1  0
  7  8  1  0
  8  9  2  0
  8 10  1  0
 10 11  1  0
 10 27  1  0
 11 12  1  0
 12 13  1  0
 13 14  1  1
 13 15  1  0
 13 17  1  0
 15 16  1  0
 17 18  1  6
 17 27  1  0
 18 19  2  0
 18 20  1  0
 20 21  2  0
 20 25  1  0
 21 22  1  0
 22 23  1  6
 22 24  1  0
 24 25  2  0
 25 26  1  0
 28 29  2  0
M  CHG  1  16   1
M  END
