
     RDKit          3D

 30 32  0  0  0  0  0  0  0  0999 V2000
   -4.2550    0.4990    3.0080 C   0  0  0  0  0  0  0  0  0  0  0  0
   -3.9600    1.3170    1.8380 C   0  0  0  0  0  0  0  0  0  0  0  0
   -3.3030    1.0280    0.7490 C   0  0  0  0  0  0  0  0  0  0  0  0
   -3.2510    2.1960   -0.2090 C   0  0  0  0  0  0  0  0  0  0  0  0
   -3.1810    1.8200   -1.6260 C   0  0  0  0  0  0  0  0  0  0  0  0
   -3.4090    0.4010   -1.9810 C   0  0  0  0  0  0  0  0  0  0  0  0
   -3.3140   -0.6300   -0.8970 C   0  0  1  0  0  0  0  0  0  0  0  0
   -4.7530   -1.1340   -0.5520 C   0  0  0  0  0  0  0  0  0  0  0  0
   -5.7570   -0.2240   -0.0920 C   0  0  0  0  0  0  0  0  0  0  0  0
   -2.8790   -1.8790   -1.6620 C   0  0  0  0  0  0  0  0  0  0  0  0
   -1.7270   -1.7850   -2.3670 O   0  0  0  0  0  0  0  0  0  0  0  0
   -2.6550   -0.2820    0.3510 C   0  0  2  0  0  0  0  0  0  0  0  0
   -3.1840   -1.2150    1.3030 O   0  0  0  0  0  0  0  0  0  0  0  0
   -1.2440   -0.2530    0.6790 C   0  0  2  0  0  0  0  0  0  0  0  0
   -1.2700    0.0290    2.2330 C   0  0  0  0  0  0  0  0  0  0  0  0
   -0.3300    0.8060    0.1630 C   0  0  0  0  0  0  0  0  0  0  0  0
    0.6050    0.3460   -0.9580 C   0  0  0  0  0  0  0  0  0  0  0  0
    1.5740   -0.6970   -0.4690 C   0  0  1  0  0  0  0  0  0  0  0  0
    1.7500   -1.8220   -1.4670 C   0  0  0  0  0  0  0  0  0  0  0  0
    2.9120    0.0170   -0.2440 C   0  0  0  0  0  0  0  0  0  0  0  0
    3.9930   -0.8760    0.2450 C   0  0  2  0  0  0  0  0  0  0  0  0
    3.6160   -1.4430    1.4790 O   0  0  0  0  0  0  0  0  0  0  0  0
    5.2340   -0.0650    0.5170 C   0  0  2  0  0  0  0  0  0  0  0  0
    5.0210    0.9960    1.5450 C   0  0  0  0  0  0  0  0  0  0  0  0
    6.3260    1.6820    1.7660 C   0  0  0  0  0  0  0  0  0  0  0  0
    7.2070    1.7940    0.7900 C   0  0  0  0  0  0  0  0  0  0  0  0
    7.0260    1.2790   -0.5880 C   0  0  0  0  0  0  0  0  0  0  0  0
    5.7100    0.5480   -0.7780 C   0  0  0  0  0  0  0  0  0  0  0  0
    1.0230   -1.2220    0.8480 C   0  0  0  0  0  0  0  0  0  0  0  0
   -0.4540   -1.5160    0.6850 C   0  0  0  0  0  0  0  0  0  0  0  0
  1  2  1  0
  2  3  2  3
  3  4  1  0
  3 12  1  0
  4  5  1  0
  5  6  1  0
  6  7  1  0
  7  8  1  1
  7 10  1  0
  7 12  1  0
  8  9  1  0
 10 11  1  0
 12 13  1  1
 12 14  1  0
 14 15  1  1
 14 16  1  0
 14 30  1  0
 16 17  1  0
 17 18  1  0
 18 19  1  6
 18 20  1  0
 18 29  1  0
 20 21  1  0
 21 22  1  1
 21 23  1  0
 23 24  1  1
 23 28  1  0
 24 25  1  0
 25 26  2  0
 26 27  1  0
 27 28  1  0
 29 30  1  0
M  END
