
     RDKit          3D

 29 31  0  0  0  0  0  0  0  0999 V2000
    1.4160   -1.3010   -1.4520 C   0  0  0  0  0  0  0  0  0  0  0  0
    1.4990   -1.3890   -0.0040 C   0  0  0  0  0  0  0  0  0  0  0  0
    2.5170   -1.0620    0.7430 C   0  0  0  0  0  0  0  0  0  0  0  0
    3.8250   -0.5460    0.6180 C   0  0  0  0  0  0  0  0  0  0  0  0
    4.4960   -0.4620    1.8380 C   0  0  0  0  0  0  0  0  0  0  0  0
    5.8510    0.0180    2.0550 C   0  0  0  0  0  0  0  0  0  0  0  0
    6.5960    0.3560    0.7990 C   0  0  2  0  0  0  0  0  0  0  0  0
    7.2360   -0.8670    0.2220 C   0  0  0  0  0  0  0  0  0  0  0  0
    7.6390    1.4080    1.1450 C   0  0  0  0  0  0  0  0  0  0  0  0
    5.6050    1.0030   -0.1180 C   0  0  0  0  0  0  0  0  0  0  0  0
    4.5420   -0.0570   -0.5440 C   0  0  2  0  0  0  0  0  0  0  0  0
    3.8610    0.5530   -1.7010 C   0  0  0  0  0  0  0  0  0  0  0  0
    3.0700    1.6680   -1.3920 O   0  0  0  0  0  0  0  0  0  0  0  0
    0.3140   -1.9960    0.7610 C   0  0  0  0  0  0  0  0  0  0  0  0
   -0.9200   -1.2040    0.7560 C   0  0  0  0  0  0  0  0  0  0  0  0
   -1.5260   -0.9440   -0.5430 C   0  0  0  0  0  0  0  0  0  0  0  0
   -2.8220   -0.1620   -0.5070 C   0  0  2  0  0  0  0  0  0  0  0  0
   -3.1940   -0.0540   -1.8770 O   0  0  0  0  0  0  0  0  0  0  0  0
   -2.6880    1.2510   -0.0410 C   0  0  0  0  0  0  0  0  0  0  0  0
   -3.9340    2.0180   -0.4330 C   0  0  2  0  0  0  0  0  0  0  0  0
   -3.9170    2.3540   -1.9250 C   0  0  0  0  0  0  0  0  0  0  0  0
   -3.9010    3.3700    0.2880 C   0  0  0  0  0  0  0  0  0  0  0  0
   -5.2180    1.3500   -0.0400 C   0  0  0  0  0  0  0  0  0  0  0  0
   -5.1940   -0.0900   -0.4050 C   0  0  2  0  0  0  0  0  0  0  0  0
   -6.2940   -0.9420    0.0720 C   0  0  0  0  0  0  0  0  0  0  0  0
   -5.7390   -2.3510   -0.0290 C   0  0  0  0  0  0  0  0  0  0  0  0
   -4.2520   -2.2110   -0.2760 C   0  0  0  0  0  0  0  0  0  0  0  0
   -3.9590   -0.8030    0.1800 C   0  0  1  0  0  0  0  0  0  0  0  0
   -4.0490   -0.6630    1.6490 C   0  0  0  0  0  0  0  0  0  0  0  0
  1  2  1  0
  2  3  2  3
  2 14  1  0
  3  4  1  0
  4  5  2  0
  4 11  1  0
  5  6  1  0
  6  7  1  0
  7  8  1  6
  7  9  1  0
  7 10  1  0
 10 11  1  0
 11 12  1  6
 12 13  1  0
 14 15  1  0
 15 16  1  0
 16 17  1  0
 17 18  1  6
 17 19  1  0
 17 28  1  0
 19 20  1  0
 20 21  1  6
 20 22  1  0
 20 23  1  0
 24 23  1  1
 24 25  1  0
 24 28  1  0
 25 26  1  0
 26 27  1  0
 27 28  1  0
 28 29  1  1
M  END
