
     RDKit          3D

 30 32  0  0  0  0  0  0  0  0999 V2000
    3.2300   -0.6780    3.0800 C   0  0  0  0  0  0  0  0  0  0  0  0
    3.7450   -1.4680    2.1850 C   0  0  0  0  0  0  0  0  0  0  0  0
    2.9660   -2.0210    1.0900 C   0  0  0  0  0  0  0  0  0  0  0  0
    3.6890   -2.8420    0.2740 C   0  0  0  0  0  0  0  0  0  0  0  0
    5.1080   -3.1020    0.5240 C   0  0  0  0  0  0  0  0  0  0  0  0
    1.5560   -1.8480    0.8250 C   0  0  0  0  0  0  0  0  0  0  0  0
    0.9110   -0.5510    0.4580 C   0  0  2  0  0  0  0  0  0  0  0  0
   -0.5820   -0.8010    0.3050 C   0  0  0  0  0  0  0  0  0  0  0  0
   -1.4150    0.0830   -0.5010 C   0  0  1  0  0  0  0  0  0  0  0  0
   -1.4520   -0.4260   -1.9400 C   0  0  0  0  0  0  0  0  0  0  0  0
   -2.5580   -1.4920   -1.9840 C   0  0  0  0  0  0  0  0  0  0  0  0
   -3.7160   -0.7980   -1.9910 O   0  0  0  0  0  0  0  0  0  0  0  0
   -3.8680    0.2160   -1.0790 C   0  0  2  0  0  0  0  0  0  0  0  0
   -5.2910   -0.0370   -0.5380 C   0  0  0  0  0  0  0  0  0  0  0  0
   -4.0840    1.4860   -1.8710 C   0  0  0  0  0  0  0  0  0  0  0  0
   -2.8300    0.2810   -0.0020 C   0  0  2  0  0  0  0  0  0  0  0  0
   -2.8770    1.6570    0.3870 O   0  0  0  0  0  0  0  0  0  0  0  0
   -3.2210   -0.3850    1.2590 C   0  0  0  0  0  0  0  0  0  0  0  0
   -3.2360   -1.8180    1.4780 C   0  0  0  0  0  0  0  0  0  0  0  0
   -3.7050   -2.0530    2.9460 C   0  0  0  0  0  0  0  0  0  0  0  0
   -0.6780    1.4110   -0.5740 C   0  0  0  0  0  0  0  0  0  0  0  0
    0.7160    1.3040   -1.1150 C   0  0  1  0  0  0  0  0  0  0  0  0
    0.4980    1.1190   -2.5360 O   0  0  0  0  0  0  0  0  0  0  0  0
    1.3240    2.6420   -1.0580 C   0  0  0  0  0  0  0  0  0  0  0  0
    2.5690    2.9120   -0.8060 C   0  0  0  0  0  0  0  0  0  0  0  0
    3.0820    4.3320   -0.7800 C   0  0  0  0  0  0  0  0  0  0  0  0
    3.4370    1.8060   -0.4920 C   0  0  0  0  0  0  0  0  0  0  0  0
    4.8760    2.0930   -0.2080 C   0  0  0  0  0  0  0  0  0  0  0  0
    2.9410    0.5880   -0.4640 C   0  0  0  0  0  0  0  0  0  0  0  0
    1.5420    0.1770   -0.7130 C   0  0  1  0  0  0  0  0  0  0  0  0
  1  2  2  0
  2  3  1  0
  3  4  2  3
  3  6  1  0
  4  5  1  0
  7  6  1  6
  7  8  1  0
  7 30  1  0
  9  8  1  1
  9 10  1  0
  9 16  1  0
  9 21  1  0
 10 11  1  0
 11 12  1  0
 12 13  1  0
 13 14  1  1
 13 15  1  0
 13 16  1  0
 16 17  1  1
 16 18  1  0
 18 19  1  0
 19 20  1  0
 21 22  1  0
 22 23  1  6
 22 24  1  0
 22 30  1  0
 24 25  2  0
 25 26  1  0
 25 27  1  0
 27 28  1  0
 27 29  2  0
 30 29  1  1
M  END
