
     RDKit          3D

 28 29  0  0  0  0  0  0  0  0999 V2000
    1.1830    1.4320    3.0010 C   0  0  0  0  0  0  0  0  0  0  0  0
    1.5070    1.7550    1.6060 C   0  0  0  0  0  0  0  0  0  0  0  0
    1.8180    3.0250    1.4050 N   0  0  0  0  0  0  0  0  0  0  0  0
    2.1550    3.5650    0.1260 C   0  0  0  0  0  0  0  0  0  0  0  0
    3.5440    3.1800   -0.1850 C   0  0  0  0  0  0  0  0  0  0  0  0
    4.6220    4.0600   -0.1170 C   0  0  0  0  0  0  0  0  0  0  0  0
    5.7170    3.3210   -0.4750 C   0  0  0  0  0  0  0  0  0  0  0  0
    5.2860    2.0530   -0.7470 C   0  0  0  0  0  0  0  0  0  0  0  0
    6.1090    0.9060   -1.1740 C   0  0  0  0  0  0  0  0  0  0  0  0
    3.9900    2.0310   -0.5560 O   0  0  0  0  0  0  0  0  0  0  0  0
    1.5380    0.7440    0.1970 S   0  0  0  0  0  0  0  0  0  0  0  0
    0.8970   -0.8960    0.2570 C   0  0  0  0  0  0  0  0  0  0  0  0
    1.6200   -1.9560   -0.2450 C   0  0  0  0  0  0  0  0  0  0  0  0
    0.8740   -3.2140   -0.0800 C   0  0  2  0  0  0  0  0  0  0  0  0
    1.1190   -4.1570   -1.1520 N   0  0  0  0  0  0  0  0  0  0  0  0
   -0.5460   -2.7300   -0.0060 C   0  0  0  0  0  0  0  0  0  0  0  0
   -0.3600   -1.4040    0.7880 C   0  0  1  0  0  0  0  0  0  0  0  0
   -0.3630   -1.7570    2.2450 C   0  0  0  0  0  0  0  0  0  0  0  0
   -1.4940   -0.5230    0.4480 C   0  0  0  0  0  0  0  0  0  0  0  0
   -1.6340    0.5590    0.1200 O   0  0  0  0  0  0  0  0  0  0  0  0
   -2.9740   -1.4300    0.6090 N   0  0  0  0  0  0  0  0  0  0  0  0
   -3.8550   -0.4060    0.1780 C   0  0  0  0  0  0  0  0  0  0  0  0
   -3.7380    0.7060   -0.1660 O   0  0  0  0  0  0  0  0  0  0  0  0
   -5.2600   -0.9660    0.1950 N   0  0  0  0  0  0  0  0  0  0  0  0
   -6.3720   -0.1870   -0.1700 C   0  0  0  0  0  0  0  0  0  0  0  0
   -6.3450    0.3420   -1.5480 C   0  0  0  0  0  0  0  0  0  0  0  0
   -7.3630    1.1220   -2.0920 N   0  0  0  0  0  0  0  0  0  0  0  0
   -5.3320    0.0670   -2.2790 O   0  0  0  0  0  0  0  0  0  0  0  0
  1  2  1  0
  2  3  2  3
  2 11  1  0
  3  4  1  0
  4  5  1  0
  5  6  2  0
  5 10  1  0
  6  7  1  0
  7  8  2  0
  8  9  1  0
  8 10  1  0
 11 12  1  0
 12 13  2  0
 12 17  1  0
 13 14  1  0
 14 15  1  6
 14 16  1  0
 16 17  1  0
 17 18  1  1
 17 19  1  0
 19 20  2  0
 19 21  1  0
 21 22  1  0
 22 23  2  0
 22 24  1  0
 24 25  1  0
 25 26  1  0
 26 27  1  0
 26 28  2  0
M  CHG  1  15   1
M  END
