
     RDKit          3D

 35 36  0  0  0  0  0  0  0  0999 V2000
   -1.9060    3.9290   -1.2190 C   0  0  0  0  0  0  0  0  0  0  0  0
   -1.2430    2.7120   -0.5260 C   0  0  2  0  0  0  0  0  0  0  0  0
   -1.1600    1.7580   -1.4690 O   0  0  0  0  0  0  0  0  0  0  0  0
   -2.2120    2.3910    0.5840 C   0  0  0  0  0  0  0  0  0  0  0  0
   -2.6140    3.3850    1.2410 O   0  0  0  0  0  0  0  0  0  0  0  0
   -2.5780    1.1140    0.8050 O   0  0  0  0  0  0  0  0  0  0  0  0
   -3.1770    0.2590   -0.0770 C   0  0  0  0  0  0  0  0  0  0  0  0
   -2.8940   -1.2270    0.1150 C   0  0  1  0  0  0  0  0  0  0  0  0
   -3.4860   -1.7660    1.3720 C   0  0  0  0  0  0  0  0  0  0  0  0
   -3.6580   -1.8580   -1.0500 C   0  0  0  0  0  0  0  0  0  0  0  0
   -3.5800   -3.2210   -1.1160 O   0  0  0  0  0  0  0  0  0  0  0  0
   -1.4020   -1.5090   -0.0250 C   0  0  1  0  0  0  0  0  0  0  0  0
   -1.2400   -3.0220    0.1720 C   0  0  0  0  0  0  0  0  0  0  0  0
   -1.0010   -3.5480   -1.0700 O   0  0  0  0  0  0  0  0  0  0  0  0
   -0.6820   -2.5130   -1.9060 C   0  0  0  0  0  0  0  0  0  0  0  0
   -0.9690   -1.3270   -1.3010 O   0  0  0  0  0  0  0  0  0  0  0  0
   -0.6000   -0.8710    1.0630 C   0  0  0  0  0  0  0  0  0  0  0  0
    0.1660    0.1880    0.7970 O   0  0  0  0  0  0  0  0  0  0  0  0
    1.3120    0.1000    0.0730 C   0  0  2  0  0  0  0  0  0  0  0  0
    2.4700   -0.4990    0.8320 C   0  0  1  0  0  0  0  0  0  0  0  0
    2.1940   -1.8090    1.2840 O   0  0  0  0  0  0  0  0  0  0  0  0
    3.7260   -0.6860    0.0570 C   0  0  2  0  0  0  0  0  0  0  0  0
    3.4580   -1.6060   -1.1080 C   0  0  0  0  0  0  0  0  0  0  0  0
    3.0060   -2.8540   -0.7000 O   0  0  0  0  0  0  0  0  0  0  0  0
    4.6530   -1.4530    0.9730 C   0  0  0  0  0  0  0  0  0  0  0  0
    5.1100   -2.5710    0.6610 O   0  0  0  0  0  0  0  0  0  0  0  0
    4.9880   -0.8840    2.1790 O   0  0  0  0  0  0  0  0  0  0  0  0
    1.7200    1.4420   -0.4380 C   0  0  1  0  0  0  0  0  0  0  0  0
    1.3490    1.5850   -1.8020 O   0  0  0  0  0  0  0  0  0  0  0  0
    1.1710    2.6340    0.2220 C   0  0  0  0  0  0  0  0  0  0  0  0
    2.1680    3.3370    1.0630 C   0  0  0  0  0  0  0  0  0  0  0  0
    1.8540    4.3670    1.6950 O   0  0  0  0  0  0  0  0  0  0  0  0
    3.4900    2.8590    1.1660 O   0  0  0  0  0  0  0  0  0  0  0  0
   -0.0130    3.1270    0.1760 C   0  0  0  0  0  0  0  0  0  0  0  0
   -0.2750    4.3400    0.9450 N   0  0  0  0  0  0  0  0  0  0  0  0
  2  1  1  6
  2  3  1  0
  2  4  1  0
  2 34  1  0
  4  5  2  0
  4  6  1  0
  6  7  1  0
  7  8  1  0
  8  9  1  1
  8 10  1  0
  8 12  1  0
 10 11  1  0
 12 13  1  1
 12 16  1  0
 12 17  1  0
 13 14  1  0
 14 15  1  0
 15 16  1  0
 17 18  1  0
 19 18  1  1
 19 20  1  0
 19 28  1  0
 20 21  1  6
 20 22  1  0
 22 23  1  6
 22 25  1  0
 23 24  1  0
 25 26  2  0
 25 27  1  0
 28 29  1  6
 28 30  1  0
 30 31  1  0
 30 34  2  0
 31 32  2  0
 31 33  1  0
 34 35  1  0
M  END
