
     RDKit          3D

 35 36  0  0  0  0  0  0  0  0999 V2000
   -3.6560    0.0040   -3.3790 C   0  0  0  0  0  0  0  0  0  0  0  0
   -4.1360   -0.2670   -1.9260 C   0  0  2  0  0  0  0  0  0  0  0  0
   -5.5040   -0.9080   -2.1160 C   0  0  0  0  0  0  0  0  0  0  0  0
   -6.3210   -0.0000   -2.7960 O   0  0  0  0  0  0  0  0  0  0  0  0
   -4.1720    1.0560   -1.2600 C   0  0  0  0  0  0  0  0  0  0  0  0
   -4.3100    1.0530    0.2390 C   0  0  0  0  0  0  0  0  0  0  0  0
   -3.6360   -0.0910    0.8960 C   0  0  1  0  0  0  0  0  0  0  0  0
   -4.5860   -1.1100    1.1630 O   0  0  0  0  0  0  0  0  0  0  0  0
   -2.5750   -0.7420    0.0150 C   0  0  2  0  0  0  0  0  0  0  0  0
   -1.5150    0.0850   -0.2490 O   0  0  0  0  0  0  0  0  0  0  0  0
   -0.2930   -0.2530    0.3920 C   0  0  2  0  0  0  0  0  0  0  0  0
    0.1980    0.9490    1.0210 N   0  0  0  0  0  0  0  0  0  0  0  0
   -0.0970    1.3580    2.3490 C   0  0  0  0  0  0  0  0  0  0  0  0
   -0.8280    0.6850    3.0810 O   0  0  0  0  0  0  0  0  0  0  0  0
    0.4300    2.5340    2.8470 O   0  0  0  0  0  0  0  0  0  0  0  0
    0.2080    3.1410    4.0750 C   0  0  0  0  0  0  0  0  0  0  0  0
   -1.2150    3.7470    4.1210 C   0  0  0  0  0  0  0  0  0  0  0  0
   -2.1880    2.7950    3.9460 O   0  0  0  0  0  0  0  0  0  0  0  0
    0.6450   -0.7070   -0.6860 C   0  0  1  0  0  0  0  0  0  0  0  0
    0.3230   -2.0510   -1.2070 C   0  0  0  0  0  0  0  0  0  0  0  0
    0.7270    0.2180   -1.7260 O   0  0  0  0  0  0  0  0  0  0  0  0
    2.0870   -0.8250   -0.1140 C   0  0  1  0  0  0  0  0  0  0  0  0
    2.0430   -1.7280    0.9160 O   0  0  0  0  0  0  0  0  0  0  0  0
    3.2890   -2.2740    1.1990 C   0  0  0  0  0  0  0  0  0  0  0  0
    4.3890   -1.3770    0.5820 C   0  0  0  0  0  0  0  0  0  0  0  0
    4.2010   -1.4010   -0.8830 C   0  0  2  0  0  0  0  0  0  0  0  0
    4.9520   -0.3810   -1.6460 C   0  0  0  0  0  0  0  0  0  0  0  0
    6.2790   -0.3250   -1.5080 O   0  0  0  0  0  0  0  0  0  0  0  0
    6.9060    0.0100   -0.3700 C   0  0  1  0  0  0  0  0  0  0  0  0
    7.8470   -0.9420    0.0540 O   0  0  0  0  0  0  0  0  0  0  0  0
    7.7050    1.1660   -0.6510 O   0  0  0  0  0  0  0  0  0  0  0  0
    7.4060    2.0980    0.2300 O   0  0  0  0  0  0  0  0  0  0  0  0
    2.8160   -1.3160   -1.2100 O   0  0  0  0  0  0  0  0  0  0  0  0
   -3.1420   -1.1740   -1.2990 C   0  0  1  0  0  0  0  0  0  0  0  0
   -3.5960   -2.4960   -1.1810 O   0  0  0  0  0  0  0  0  0  0  0  0
  2  1  1  6
  2  3  1  0
  2  5  1  0
  2 34  1  0
  3  4  1  0
  5  6  1  0
  6  7  1  0
  7  8  1  6
  7  9  1  0
  9 10  1  6
  9 34  1  0
 10 11  1  0
 11 12  1  6
 11 19  1  0
 12 13  1  0
 13 14  2  0
 13 15  1  0
 15 16  1  0
 16 17  1  0
 17 18  1  0
 19 20  1  6
 19 21  1  0
 19 22  1  0
 22 23  1  1
 22 33  1  0
 23 24  1  0
 24 25  1  0
 25 26  1  0
 26 27  1  6
 26 33  1  0
 27 28  1  0
 28 29  1  0
 29 30  1  6
 29 31  1  0
 31 32  1  0
 34 35  1  1
M  END
