
     RDKit          3D

 35 36  0  0  0  0  0  0  0  0999 V2000
   -3.2540    4.4450    3.4260 C   0  0  0  0  0  0  0  0  0  0  0  0
   -3.0060    3.8040    2.2080 O   0  0  0  0  0  0  0  0  0  0  0  0
   -2.8170    2.4310    2.0810 C   0  0  0  0  0  0  0  0  0  0  0  0
   -2.8770    1.7550    3.1370 O   0  0  0  0  0  0  0  0  0  0  0  0
   -2.5570    1.7720    0.7920 C   0  0  0  0  0  0  0  0  0  0  0  0
   -2.4150    0.4100    0.8870 O   0  0  0  0  0  0  0  0  0  0  0  0
   -2.1700   -0.1530   -0.3420 C   0  0  1  0  0  0  0  0  0  0  0  0
   -0.7820   -0.7610   -0.4330 C   0  0  2  0  0  0  0  0  0  0  0  0
   -0.3310   -1.3060    0.7480 O   0  0  0  0  0  0  0  0  0  0  0  0
    0.1370    0.1870   -0.8440 O   0  0  0  0  0  0  0  0  0  0  0  0
    1.3980   -0.3540   -1.0610 C   0  0  0  0  0  0  0  0  0  0  0  0
    2.3560    0.7430   -1.4930 C   0  0  1  0  0  0  0  0  0  0  0  0
    2.4230    1.6520   -0.4940 O   0  0  0  0  0  0  0  0  0  0  0  0
    3.3300    1.4870    0.4950 C   0  0  0  0  0  0  0  0  0  0  0  0
    4.6610    0.9280    0.1030 C   0  0  1  0  0  0  0  0  0  0  0  0
    5.5280    2.0500   -0.4690 C   0  0  0  0  0  0  0  0  0  0  0  0
    5.2980    0.5040    1.2690 O   0  0  0  0  0  0  0  0  0  0  0  0
    6.5420   -0.0370    1.0590 C   0  0  0  0  0  0  0  0  0  0  0  0
    7.0350   -0.4070    2.3310 O   0  0  0  0  0  0  0  0  0  0  0  0
    4.5620   -0.2390   -0.8180 C   0  0  0  0  0  0  0  0  0  0  0  0
    3.6280    0.1160   -1.9290 C   0  0  1  0  0  0  0  0  0  0  0  0
    3.3670   -1.0500   -2.6800 O   0  0  0  0  0  0  0  0  0  0  0  0
   -1.0020   -1.8390   -1.4970 C   0  0  0  0  0  0  0  0  0  0  0  0
   -2.3060   -2.4500   -0.9580 C   0  0  1  0  0  0  0  0  0  0  0  0
   -1.9850   -3.2510    0.0700 O   0  0  0  0  0  0  0  0  0  0  0  0
   -3.1470   -1.2470   -0.7310 C   0  0  2  0  0  0  0  0  0  0  0  0
   -3.6090   -0.8470   -2.1220 C   0  0  0  0  0  0  0  0  0  0  0  0
   -4.1660    0.4310   -2.2660 N   0  0  0  0  0  0  0  0  0  0  0  0
   -3.5000   -1.6140   -3.0790 O   0  0  0  0  0  0  0  0  0  0  0  0
   -4.3700   -1.3430    0.0510 C   0  0  1  0  0  0  0  0  0  0  0  0
   -5.1670   -2.4210   -0.4190 O   0  0  0  0  0  0  0  0  0  0  0  0
   -4.4180   -1.3080    1.5070 C   0  0  0  0  0  0  0  0  0  0  0  0
   -3.6760   -2.3420    2.2550 C   0  0  0  0  0  0  0  0  0  0  0  0
   -2.5550   -2.0270    2.7720 O   0  0  0  0  0  0  0  0  0  0  0  0
   -4.0950   -3.6290    2.4410 O   0  0  0  0  0  0  0  0  0  0  0  0
  1  2  1  0
  2  3  1  0
  3  4  2  0
  3  5  1  0
  5  6  1  0
  7  6  1  1
  7  8  1  0
  7 26  1  0
  8  9  1  1
  8 10  1  0
  8 23  1  0
 10 11  1  0
 12 11  1  1
 12 13  1  0
 12 21  1  0
 13 14  1  0
 14 15  1  0
 15 16  1  6
 15 17  1  0
 15 20  1  0
 17 18  1  0
 18 19  1  0
 20 21  1  0
 21 22  1  1
 23 24  1  0
 24 25  1  1
 24 26  1  0
 26 27  1  6
 26 30  1  0
 27 28  1  0
 27 29  2  0
 30 31  1  1
 30 32  1  0
 32 33  1  0
 33 34  2  0
 33 35  1  0
M  END
