
     RDKit          3D

 36 41  0  0  0  0  0  0  0  0999 V2000
   -4.8260   -4.1770   -1.4930 C   0  0  0  0  0  0  0  0  0  0  0  0
   -4.5190   -2.9580   -0.7400 N   0  0  0  0  0  0  0  0  0  0  0  0
   -3.7760   -2.8750    0.3330 N   0  0  0  0  0  0  0  0  0  0  0  0
   -3.7140   -1.5750    0.7560 C   0  0  0  0  0  0  0  0  0  0  0  0
   -3.0120   -1.1160    1.8740 N   0  0  0  0  0  0  0  0  0  0  0  0
   -1.6100   -0.9350    1.8840 N   0  0  0  0  0  0  0  0  0  0  0  0
   -0.8450   -1.6400    1.1150 C   0  0  0  0  0  0  0  0  0  0  0  0
    0.5880   -1.4990    1.0810 C   0  0  0  0  0  0  0  0  0  0  0  0
    1.2840   -0.5940    1.8640 C   0  0  0  0  0  0  0  0  0  0  0  0
    2.6540   -0.4870    1.7980 C   0  0  0  0  0  0  0  0  0  0  0  0
    3.3960   -1.2780    0.9460 C   0  0  0  0  0  0  0  0  0  0  0  0
    4.8820   -1.1790    0.8530 C   0  0  0  0  0  0  0  0  0  0  0  0
    5.2460   -0.1090   -0.0440 N   0  0  0  0  0  0  0  0  0  0  0  0
    4.8440   -0.1440   -1.4290 C   0  0  0  0  0  0  0  0  0  0  0  0
    5.9940    0.2570   -2.3280 C   0  0  0  0  0  0  0  0  0  0  0  0
    6.6180    1.4390   -1.8830 O   0  0  0  0  0  0  0  0  0  0  0  0
    6.6730    1.7580   -0.5440 C   0  0  0  0  0  0  0  0  0  0  0  0
    7.4000    2.8330   -0.1110 C   0  0  0  0  0  0  0  0  0  0  0  0
    7.4790    3.1830    1.2120 C   0  0  0  0  0  0  0  0  0  0  0  0
    6.8120    2.4370    2.1300 C   0  0  0  0  0  0  0  0  0  0  0  0
    6.0640    1.3390    1.7350 C   0  0  0  0  0  0  0  0  0  0  0  0
    5.9930    0.9980    0.4050 C   0  0  0  0  0  0  0  0  0  0  0  0
    2.7240   -2.1830    0.1610 C   0  0  0  0  0  0  0  0  0  0  0  0
    1.3520   -2.2750    0.2410 C   0  0  0  0  0  0  0  0  0  0  0  0
   -4.4730   -0.8630   -0.1330 C   0  0  0  0  0  0  0  0  0  0  0  0
   -4.8280    0.4910   -0.2720 C   0  0  0  0  0  0  0  0  0  0  0  0
   -5.6510    0.9030   -1.3160 C   0  0  0  0  0  0  0  0  0  0  0  0
   -6.1300   -0.0040   -2.2290 C   0  0  0  0  0  0  0  0  0  0  0  0
   -5.8020   -1.3450   -2.1250 C   0  0  0  0  0  0  0  0  0  0  0  0
   -4.9870   -1.7330   -1.0850 C   0  0  0  0  0  0  0  0  0  0  0  0
   -5.8390    2.4060   -1.2250 C   0  0  0  0  0  0  0  0  0  0  0  0
   -4.4910    2.7770   -0.5690 C   0  0  0  0  0  0  0  0  0  0  0  0
   -4.5300    1.6600    0.5010 C   0  0  2  0  0  0  0  0  0  0  0  0
   -3.4730    1.7790    1.4790 C   0  0  0  0  0  0  0  0  0  0  0  0
   -5.8230    1.9960    1.2490 C   0  0  0  0  0  0  0  0  0  0  0  0
   -6.7750    2.2240    1.7950 N   0  0  0  0  0  0  0  0  0  0  0  0
  1  2  1  0
  2  3  1  0
  2 30  1  0
  3  4  2  0
  4  5  1  0
  4 25  1  0
  5  6  1  0
  6  7  2  3
  7  8  1  0
  8  9  2  0
  8 24  1  0
  9 10  1  0
 10 11  2  0
 11 12  1  0
 11 23  1  0
 12 13  1  0
 13 14  1  0
 13 22  1  0
 14 15  1  0
 15 16  1  0
 16 17  1  0
 17 18  2  0
 17 22  1  0
 18 19  1  0
 19 20  2  0
 20 21  1  0
 21 22  2  0
 23 24  2  0
 25 26  2  0
 25 30  1  0
 26 27  1  0
 26 33  1  0
 27 28  2  0
 27 31  1  0
 28 29  1  0
 29 30  2  0
 31 32  1  0
 32 33  1  0
 33 34  1  1
 33 35  1  0
 35 36  3  0
M  END
