
     RDKit          3D

 35 35  0  0  0  0  0  0  0  0999 V2000
   -5.8260    3.2380   -0.0930 C   0  0  0  0  0  0  0  0  0  0  0  0
   -5.4650    2.5860    1.2560 C   0  0  2  0  0  0  0  0  0  0  0  0
   -6.3620    3.2180    2.1690 O   0  0  0  0  0  0  0  0  0  0  0  0
   -4.1800    2.8430    1.5750 O   0  0  0  0  0  0  0  0  0  0  0  0
   -3.2700    1.8570    1.6930 C   0  0  0  0  0  0  0  0  0  0  0  0
   -3.0120    1.1310    0.4280 C   0  0  1  0  0  0  0  0  0  0  0  0
   -1.8380    0.2040    0.4760 C   0  0  0  0  0  0  0  0  0  0  0  0
   -0.4790    0.7280    0.6500 C   0  0  2  0  0  0  0  0  0  0  0  0
   -0.2890    2.0850    0.1940 N   0  0  0  0  0  0  0  0  0  0  0  0
    0.5820   -0.1650   -0.1020 C   0  0  1  0  0  0  0  0  0  0  0  0
    0.4210    0.2510   -1.5220 C   0  0  0  0  0  0  0  0  0  0  0  0
    1.1950   -0.4330   -2.4450 O   0  0  0  0  0  0  0  0  0  0  0  0
    1.8770    0.4050    0.4230 C   0  0  0  0  0  0  0  0  0  0  0  0
    3.0960    0.0050    0.0510 O   0  0  0  0  0  0  0  0  0  0  0  0
    3.9340    0.1330   -0.9820 C   0  0  0  0  0  0  0  0  0  0  0  0
    3.6450    0.8170   -1.9630 O   0  0  0  0  0  0  0  0  0  0  0  0
    5.2600   -0.5690   -0.9570 C   0  0  2  0  0  0  0  0  0  0  0  0
    5.4590   -1.2980    0.1900 O   0  0  0  0  0  0  0  0  0  0  0  0
    6.3860    0.4010   -1.2360 C   0  0  2  0  0  0  0  0  0  0  0  0
    7.5530   -0.3500   -1.3720 O   0  0  0  0  0  0  0  0  0  0  0  0
    6.5980    1.3560   -0.0790 C   0  0  1  0  0  0  0  0  0  0  0  0
    5.4980    2.1580    0.1520 O   0  0  0  0  0  0  0  0  0  0  0  0
    6.9420    0.7020    1.0800 O   0  0  0  0  0  0  0  0  0  0  0  0
    0.3870   -1.6240    0.1170 C   0  0  1  0  0  0  0  0  0  0  0  0
    1.1410   -2.4670   -0.8980 C   0  0  0  0  0  0  0  0  0  0  0  0
    1.0160   -2.0870    1.4540 C   0  0  0  0  0  0  0  0  0  0  0  0
    2.3060   -1.7610    1.6350 O   0  0  0  0  0  0  0  0  0  0  0  0
   -0.8620   -2.1330    0.2470 O   0  0  0  0  0  0  0  0  0  0  0  0
   -1.7780   -2.9570   -0.2280 C   0  0  0  0  0  0  0  0  0  0  0  0
   -1.9870   -4.0880    0.3500 O   0  0  0  0  0  0  0  0  0  0  0  0
   -2.6880   -2.7760   -1.4180 C   0  0  0  0  0  0  0  0  0  0  0  0
   -4.0230   -2.8990   -1.1960 O   0  0  0  0  0  0  0  0  0  0  0  0
   -4.7750   -1.6990   -1.0740 C   0  0  0  0  0  0  0  0  0  0  0  0
   -3.8500   -0.6170   -0.6820 C   0  0  0  0  0  0  0  0  0  0  0  0
   -4.1750    0.5190   -0.0340 O   0  0  0  0  0  0  0  0  0  0  0  0
  2  1  1  6
  2  3  1  0
  2  4  1  0
  4  5  1  0
  6  5  1  1
  6  7  1  0
  6 35  1  0
  7  8  1  0
  8  9  1  6
  8 10  1  0
 10 11  1  6
 10 13  1  0
 10 24  1  0
 11 12  1  0
 13 14  1  0
 14 15  1  0
 15 16  2  0
 15 17  1  0
 17 18  1  1
 17 19  1  0
 19 20  1  1
 19 21  1  0
 21 22  1  1
 21 23  1  0
 24 25  1  6
 24 26  1  0
 24 28  1  0
 26 27  1  0
 28 29  1  0
 29 30  2  0
 29 31  1  0
 31 32  1  0
 32 33  1  0
 33 34  1  0
 34 35  1  0
M  END
