
     RDKit          3D

 37 42  0  0  0  0  0  0  0  0999 V2000
   -3.0250    5.1880    0.3460 C   0  0  0  0  0  0  0  0  0  0  0  0
   -3.3750    3.7440    0.1450 C   0  0  0  0  0  0  0  0  0  0  0  0
   -2.6520    3.0820   -0.9910 C   0  0  0  0  0  0  0  0  0  0  0  0
   -1.2340    3.0600   -0.8730 N   0  0  0  0  0  0  0  0  0  0  0  0
   -0.3480    4.1940   -1.0450 C   0  0  0  0  0  0  0  0  0  0  0  0
    0.7150    4.2010    0.0440 C   0  0  0  0  0  0  0  0  0  0  0  0
    1.6280    3.0270   -0.2660 C   0  0  0  0  0  0  0  0  0  0  0  0
    0.7690    1.8090   -0.2290 C   0  0  0  0  0  0  0  0  0  0  0  0
    1.3730    0.6320    0.1220 C   0  0  0  0  0  0  0  0  0  0  0  0
    0.6900   -0.5050    0.1930 N   0  0  0  0  0  0  0  0  0  0  0  0
    1.0660   -1.7400    0.5110 C   0  0  0  0  0  0  0  0  0  0  0  0
    2.2190   -2.2350    0.8450 N   0  0  0  0  0  0  0  0  0  0  0  0
    3.4210   -1.5290    0.9550 C   0  0  0  0  0  0  0  0  0  0  0  0
    3.8550   -0.9480    2.0900 N   0  0  0  0  0  0  0  0  0  0  0  0
    5.0590   -0.3360    1.8780 C   0  0  0  0  0  0  0  0  0  0  0  0
    5.8400    0.4130    2.9030 C   0  0  0  0  0  0  0  0  0  0  0  0
    5.6260    1.8860    2.6560 C   0  0  0  0  0  0  0  0  0  0  0  0
    5.3360   -0.5750    0.5540 C   0  0  0  0  0  0  0  0  0  0  0  0
    6.5610   -0.0990   -0.1580 C   0  0  0  0  0  0  0  0  0  0  0  0
    6.5090    1.3440   -0.5400 C   0  0  0  0  0  0  0  0  0  0  0  0
    4.3470   -1.2780    0.0580 O   0  0  0  0  0  0  0  0  0  0  0  0
   -0.0330   -2.5240    0.4300 N   0  0  0  0  0  0  0  0  0  0  0  0
   -1.0990   -1.7940    0.0640 C   0  0  0  0  0  0  0  0  0  0  0  0
   -2.4630   -2.3470   -0.1250 C   0  0  0  0  0  0  0  0  0  0  0  0
   -2.5610   -3.5250   -0.6460 N   0  0  0  0  0  0  0  0  0  0  0  0
   -3.8120   -4.1350   -0.8730 C   0  0  0  0  0  0  0  0  0  0  0  0
   -3.8350   -5.4280   -1.3920 C   0  0  0  0  0  0  0  0  0  0  0  0
   -2.5340   -6.0550   -1.7150 C   0  0  0  0  0  0  0  0  0  0  0  0
   -5.0550   -6.0410   -1.5750 C   0  0  0  0  0  0  0  0  0  0  0  0
   -6.2380   -5.4110   -1.2580 C   0  0  0  0  0  0  0  0  0  0  0  0
   -6.1880   -4.1190   -0.7400 C   0  0  0  0  0  0  0  0  0  0  0  0
   -4.9620   -3.4620   -0.5420 C   0  0  0  0  0  0  0  0  0  0  0  0
   -4.9450   -2.0730   -0.0260 C   0  0  0  0  0  0  0  0  0  0  0  0
   -3.6040   -1.6610    0.2880 N   0  0  0  0  0  0  0  0  0  0  0  0
   -0.6380   -0.5130   -0.0860 C   0  0  0  0  0  0  0  0  0  0  0  0
   -1.2850    0.6520   -0.4440 C   0  0  0  0  0  0  0  0  0  0  0  0
   -0.5860    1.8320   -0.5200 C   0  0  0  0  0  0  0  0  0  0  0  0
  1  2  1  0
  2  3  1  0
  3  4  1  0
  4  5  1  0
  4 37  1  0
  5  6  1  0
  6  7  1  0
  7  8  1  0
  8  9  2  0
  8 37  1  0
  9 10  1  0
 10 11  1  0
 10 35  1  0
 11 12  2  3
 11 22  1  0
 12 13  1  0
 13 14  2  0
 13 21  1  0
 14 15  1  0
 15 16  1  0
 15 18  2  0
 16 17  1  0
 18 19  1  0
 18 21  1  0
 19 20  1  0
 22 23  1  0
 23 24  1  0
 23 35  2  0
 24 25  2  0
 24 34  1  0
 25 26  1  0
 26 27  2  0
 26 32  1  0
 27 28  1  0
 27 29  1  0
 29 30  2  0
 30 31  1  0
 31 32  2  0
 32 33  1  0
 33 34  1  0
 35 36  1  0
 36 37  2  0
M  END
