
     RDKit          3D

 37 41  0  0  0  0  0  0  0  0999 V2000
    5.4170    2.6460    1.3050 C   0  0  0  0  0  0  0  0  0  0  0  0
    5.6910    2.2070   -0.0850 C   0  0  1  0  0  0  0  0  0  0  0  0
    7.0030    2.8180   -0.5310 C   0  0  0  0  0  0  0  0  0  0  0  0
    5.7490    0.7620   -0.2240 N   0  0  0  0  0  0  0  0  0  0  0  0
    6.8070   -0.0210   -0.3490 N   0  0  0  0  0  0  0  0  0  0  0  0
    6.4680   -1.3010   -0.4530 C   0  0  0  0  0  0  0  0  0  0  0  0
    7.3480   -2.5020   -0.6090 C   0  0  2  0  0  0  0  0  0  0  0  0
    8.2120   -2.4690    0.4900 F   0  0  0  0  0  0  0  0  0  0  0  0
    8.1730   -2.3690   -1.7240 F   0  0  0  0  0  0  0  0  0  0  0  0
    5.1090   -1.3550   -0.3930 C   0  0  0  0  0  0  0  0  0  0  0  0
    4.6850   -0.0320   -0.2480 C   0  0  0  0  0  0  0  0  0  0  0  0
    3.2710    0.3300   -0.1450 C   0  0  0  0  0  0  0  0  0  0  0  0
    3.0030    1.5420   -0.0100 O   0  0  0  0  0  0  0  0  0  0  0  0
    2.2240   -0.5990   -0.1880 N   0  0  0  0  0  0  0  0  0  0  0  0
    0.8440   -0.3850   -0.1020 C   0  0  0  0  0  0  0  0  0  0  0  0
    0.2550    0.8400    0.0660 C   0  0  0  0  0  0  0  0  0  0  0  0
   -1.1320    0.9780    0.1420 C   0  0  0  0  0  0  0  0  0  0  0  0
   -1.9600   -0.1250    0.0510 C   0  0  0  0  0  0  0  0  0  0  0  0
   -3.4550    0.0970    0.1150 C   0  0  1  0  0  0  0  0  0  0  0  0
   -3.9450    0.3790    1.4540 C   0  0  1  0  0  0  0  0  0  0  0  0
   -2.8370    0.2440    2.3370 O   0  0  0  0  0  0  0  0  0  0  0  0
   -4.5780    1.6600    1.7940 C   0  0  0  0  0  0  0  0  0  0  0  0
   -5.8710    1.9120    1.0260 C   0  0  0  0  0  0  0  0  0  0  0  0
   -5.4520    2.7060   -0.1570 C   0  0  0  0  0  0  0  0  0  0  0  0
   -4.6500    1.9820   -1.1340 C   0  0  0  0  0  0  0  0  0  0  0  0
   -4.6420    2.3700   -2.4690 C   0  0  0  0  0  0  0  0  0  0  0  0
   -3.8290    1.5280   -3.0860 N   0  0  0  0  0  0  0  0  0  0  0  0
   -3.3510    0.6630   -2.2120 C   0  0  0  0  0  0  0  0  0  0  0  0
   -3.8620    0.9400   -0.9760 N   0  0  0  0  0  0  0  0  0  0  0  0
   -1.3830   -1.3540   -0.1160 C   0  0  0  0  0  0  0  0  0  0  0  0
   -2.2080   -2.5660   -0.1940 C   0  0  0  0  0  0  0  0  0  0  0  0
   -3.1120   -2.9750    0.7220 C   0  0  0  0  0  0  0  0  0  0  0  0
   -3.8470   -4.1240    0.5540 C   0  0  0  0  0  0  0  0  0  0  0  0
   -3.6590   -4.8840   -0.5810 C   0  0  0  0  0  0  0  0  0  0  0  0
   -2.7380   -4.4740   -1.5220 C   0  0  0  0  0  0  0  0  0  0  0  0
   -2.0100   -3.3240   -1.3420 C   0  0  0  0  0  0  0  0  0  0  0  0
    0.0100   -1.4780   -0.1910 C   0  0  0  0  0  0  0  0  0  0  0  0
  2  1  1  1
  2  3  1  0
  2  4  1  0
  4  5  1  0
  4 11  1  0
  5  6  2  0
  6  7  1  0
  6 10  1  0
  7  8  1  1
  7  9  1  0
 10 11  2  0
 11 12  1  0
 12 13  2  0
 12 14  1  0
 14 15  1  0
 15 16  2  0
 15 37  1  0
 16 17  1  0
 17 18  2  0
 19 18  1  1
 18 30  1  0
 19 20  1  0
 19 29  1  0
 20 21  1  1
 20 22  1  0
 22 23  1  0
 23 24  1  0
 24 25  1  0
 25 26  2  0
 25 29  1  0
 26 27  1  0
 27 28  2  0
 28 29  1  0
 30 31  1  0
 30 37  2  0
 31 32  2  0
 31 36  1  0
 32 33  1  0
 33 34  2  0
 34 35  1  0
 35 36  2  0
M  END
