
     RDKit          3D

 35 36  0  0  0  0  0  0  0  0999 V2000
    3.4040   -1.6970    1.5200 C   0  0  0  0  0  0  0  0  0  0  0  0
    4.3530   -0.6070    1.9010 C   0  0  1  0  0  0  0  0  0  0  0  0
    5.5130   -1.0930    2.5000 O   0  0  0  0  0  0  0  0  0  0  0  0
    4.7450    0.0830    0.6790 N   0  0  0  0  0  0  0  0  0  0  0  0
    5.4040   -0.6040   -0.3870 C   0  0  0  0  0  0  0  0  0  0  0  0
    5.6390   -1.8120   -0.2530 O   0  0  0  0  0  0  0  0  0  0  0  0
    5.8130    0.0770   -1.6420 C   0  0  0  0  0  0  0  0  0  0  0  0
    5.4590    1.4310   -1.5950 O   0  0  0  0  0  0  0  0  0  0  0  0
    3.6860    0.3970    2.8150 C   0  0  1  0  0  0  0  0  0  0  0  0
    4.5470    1.4440    3.1380 O   0  0  0  0  0  0  0  0  0  0  0  0
    2.4570    0.9580    2.2120 C   0  0  0  0  0  0  0  0  0  0  0  0
    2.3140    2.2170    2.0600 O   0  0  0  0  0  0  0  0  0  0  0  0
    1.4050    0.1740    1.7830 O   0  0  0  0  0  0  0  0  0  0  0  0
    0.2190    0.6800    1.2040 C   0  0  2  0  0  0  0  0  0  0  0  0
   -0.9490    0.2520    2.0080 C   0  0  0  0  0  0  0  0  0  0  0  0
   -0.8370    0.0950    3.2440 O   0  0  0  0  0  0  0  0  0  0  0  0
   -2.1490    0.0290    1.3940 O   0  0  0  0  0  0  0  0  0  0  0  0
   -2.2110   -0.7640    0.1910 C   0  0  2  0  0  0  0  0  0  0  0  0
   -3.1200   -1.9090    0.3920 C   0  0  2  0  0  0  0  0  0  0  0  0
   -2.7580   -2.9050    1.4400 C   0  0  0  0  0  0  0  0  0  0  0  0
   -2.6690   -2.3480    2.7140 O   0  0  0  0  0  0  0  0  0  0  0  0
   -3.7600   -2.5250   -0.8070 C   0  0  2  0  0  0  0  0  0  0  0  0
   -4.5730   -3.6110   -0.3520 O   0  0  0  0  0  0  0  0  0  0  0  0
   -2.8410   -3.1250   -1.8250 C   0  0  0  0  0  0  0  0  0  0  0  0
   -3.6840   -3.7180   -2.8060 O   0  0  0  0  0  0  0  0  0  0  0  0
   -0.7820   -1.1160   -0.1060 C   0  0  0  0  0  0  0  0  0  0  0  0
    0.0160    0.1580   -0.2260 C   0  0  1  0  0  0  0  0  0  0  0  0
   -0.5290    1.1770   -1.1110 C   0  0  0  0  0  0  0  0  0  0  0  0
    0.1110    1.4130   -2.1990 O   0  0  0  0  0  0  0  0  0  0  0  0
   -1.6540    1.9350   -0.9400 O   0  0  0  0  0  0  0  0  0  0  0  0
   -2.1520    2.9060   -1.8090 C   0  0  2  0  0  0  0  0  0  0  0  0
   -2.3160    4.2410   -1.1290 C   0  0  0  0  0  0  0  0  0  0  0  0
   -3.5280    4.8070   -1.8130 C   0  0  0  0  0  0  0  0  0  0  0  0
   -3.9830    3.8660   -2.7080 O   0  0  0  0  0  0  0  0  0  0  0  0
   -3.5600    2.6250   -2.2770 C   0  0  0  0  0  0  0  0  0  0  0  0
  2  1  1  6
  2  3  1  0
  2  4  1  0
  2  9  1  0
  4  5  1  0
  5  6  2  0
  5  7  1  0
  7  8  1  0
  9 10  1  6
  9 11  1  0
 11 12  2  0
 11 13  1  0
 14 13  1  1
 14 15  1  0
 14 27  1  0
 15 16  2  0
 15 17  1  0
 17 18  1  0
 18 19  1  0
 18 26  1  1
 19 20  1  6
 19 22  1  0
 20 21  1  0
 22 23  1  1
 22 24  1  0
 24 25  1  0
 26 27  1  0
 27 28  1  6
 28 29  2  0
 28 30  1  0
 31 30  1  1
 31 32  1  0
 31 35  1  0
 32 33  1  0
 33 34  1  0
 34 35  1  0
M  END
