
     RDKit          3D

 12 12  0  0  0  0  0  0  0  0999 V2000
   -4.2260    0.8240    1.0040 C   0  0  0  0  0  0  0  0  0  0  0  0
   -2.9030    0.9220    0.3100 C   0  0  0  0  0  0  0  0  0  0  0  0
   -2.2760   -0.3660    0.2020 O   0  0  0  0  0  0  0  0  0  0  0  0
   -1.0540   -0.5010   -0.4010 C   0  0  0  0  0  0  0  0  0  0  0  0
   -0.5060    0.5360   -0.8550 O   0  0  0  0  0  0  0  0  0  0  0  0
   -0.3390   -1.7930   -0.5540 C   0  0  0  0  0  0  0  0  0  0  0  0
    0.9780   -1.6000   -1.2600 C   0  0  0  0  0  0  0  0  0  0  0  0
    1.8680   -0.6820   -0.5190 C   0  0  0  0  0  0  0  0  0  0  0  0
    2.3360    0.4490   -0.9990 C   0  0  0  0  0  0  0  0  0  0  0  0
    3.1890    1.1100    0.0020 C   0  0  0  0  0  0  0  0  0  0  0  0
    2.9640    0.2610    1.2360 C   0  0  0  0  0  0  0  0  0  0  0  0
    2.3200   -0.8990    0.7700 O   0  0  0  0  0  0  0  0  0  0  0  0
  1  2  1  0
  2  3  1  0
  3  4  1  0
  4  5  2  0
  4  6  1  0
  6  7  1  0
  7  8  1  0
  8  9  2  0
  8 12  1  0
  9 10  1  0
 10 11  1  0
 11 12  1  0
M  END
