
     RDKit          3D

 12 12  0  0  0  0  0  0  0  0999 V2000
    4.6730   -0.2920   -0.1000 C   0  0  0  0  0  0  0  0  0  0  0  0
    3.3200    0.2040   -0.5860 C   0  0  0  0  0  0  0  0  0  0  0  0
    2.2920   -0.2840    0.2580 O   0  0  0  0  0  0  0  0  0  0  0  0
    0.9840    0.0620   -0.0240 C   0  0  0  0  0  0  0  0  0  0  0  0
    0.7090    0.7970   -1.0120 O   0  0  0  0  0  0  0  0  0  0  0  0
   -0.1420   -0.3960    0.7920 C   0  0  0  0  0  0  0  0  0  0  0  0
   -1.3860   -0.0710    0.5290 C   0  0  0  0  0  0  0  0  0  0  0  0
   -2.5650   -0.5020    1.3160 C   0  0  0  0  0  0  0  0  0  0  0  0
   -3.6560   -0.5220    0.2640 C   0  0  0  0  0  0  0  0  0  0  0  0
   -3.3540    0.7210   -0.4640 C   0  0  0  0  0  0  0  0  0  0  0  0
   -4.1580    1.5080   -0.8620 O   0  0  0  0  0  0  0  0  0  0  0  0
   -1.8890    0.7840   -0.5910 C   0  0  0  0  0  0  0  0  0  0  0  0
  1  2  1  0
  2  3  1  0
  3  4  1  0
  4  5  2  0
  4  6  1  0
  6  7  2  3
  7  8  1  0
  7 12  1  0
  8  9  1  0
  9 10  1  0
 10 11  2  0
 10 12  1  0
M  END
