
     RDKit          3D

 16 17  0  0  0  0  0  0  0  0999 V2000
    0.7170   -0.7980   -2.2720 C   0  0  0  0  0  0  0  0  0  0  0  0
    0.6550   -0.3060   -0.8390 C   0  0  2  0  0  0  0  0  0  0  0  0
   -0.2950    0.8250   -0.7630 C   0  0  0  0  0  0  0  0  0  0  0  0
   -0.0320    1.8180   -1.5060 O   0  0  0  0  0  0  0  0  0  0  0  0
   -1.4340    0.8730    0.0500 N   0  0  0  0  0  0  0  0  0  0  0  0
   -2.3850    1.9430    0.1500 C   0  0  0  0  0  0  0  0  0  0  0  0
   -3.6130    1.1430    0.6190 C   0  0  0  0  0  0  0  0  0  0  0  0
   -3.0360    0.3280    1.5740 O   0  0  0  0  0  0  0  0  0  0  0  0
   -1.8840   -0.1490    0.9550 C   0  0  2  0  0  0  0  0  0  0  0  0
   -0.9630   -0.3540    2.0000 O   0  0  0  0  0  0  0  0  0  0  0  0
    2.0090    0.1820   -0.3650 C   0  0  0  0  0  0  0  0  0  0  0  0
    2.3010   -0.6470    0.8790 C   0  0  2  0  0  0  0  0  0  0  0  0
    3.6930   -0.9020    1.0640 N   0  0  0  0  0  0  0  0  0  0  0  0
    1.5190   -1.8890    0.5700 C   0  0  0  0  0  0  0  0  0  0  0  0
    1.8340   -3.0880    0.7830 O   0  0  0  0  0  0  0  0  0  0  0  0
    0.3390   -1.3930   -0.0200 O   0  0  0  0  0  0  0  0  0  0  0  0
  2  1  1  6
  2  3  1  0
  2 11  1  0
  2 16  1  0
  3  4  2  0
  3  5  1  0
  5  6  1  0
  5  9  1  0
  6  7  1  0
  7  8  1  0
  8  9  1  0
  9 10  1  1
 11 12  1  0
 12 13  1  6
 12 14  1  0
 14 15  2  0
 14 16  1  0
M  END
