
     RDKit          3D

 16 17  0  0  0  0  0  0  0  0999 V2000
    3.5370   -1.1430   -0.5560 C   0  0  0  0  0  0  0  0  0  0  0  0
    2.3200   -0.3280   -0.8090 C   0  0  2  0  0  0  0  0  0  0  0  0
    2.7470    0.8470   -1.4590 O   0  0  0  0  0  0  0  0  0  0  0  0
    1.4890   -0.0160    0.3660 C   0  0  0  0  0  0  0  0  0  0  0  0
    1.8140   -0.4340    1.5540 C   0  0  0  0  0  0  0  0  0  0  0  0
    2.9250   -1.1810    1.8230 O   0  0  0  0  0  0  0  0  0  0  0  0
    0.2810    0.7740    0.1950 N   0  0  0  0  0  0  0  0  0  0  0  0
   -0.9600    0.2490    0.6210 C   0  0  2  0  0  0  0  0  0  0  0  0
   -1.3010   -0.9690   -0.0130 O   0  0  0  0  0  0  0  0  0  0  0  0
   -2.5660   -1.1630    0.5460 C   0  0  0  0  0  0  0  0  0  0  0  0
   -3.2580    0.1170    0.1720 C   0  0  2  0  0  0  0  0  0  0  0  0
   -3.4880    0.1380   -1.2020 O   0  0  0  0  0  0  0  0  0  0  0  0
   -2.6770    1.0830   -1.8250 C   0  0  0  0  0  0  0  0  0  0  0  0
   -2.5360    1.2060   -3.0670 O   0  0  0  0  0  0  0  0  0  0  0  0
   -2.0420    1.8790   -0.8460 N   0  0  0  0  0  0  0  0  0  0  0  0
   -2.1360    1.1390    0.4000 C   0  0  2  0  0  0  0  0  0  0  0  0
  2  1  1  1
  2  3  1  0
  2  4  1  0
  4  5  2  3
  4  7  1  0
  5  6  1  0
  8  7  1  6
  8  9  1  0
  8 16  1  0
  9 10  1  0
 11 10  1  6
 11 12  1  0
 11 16  1  0
 12 13  1  0
 13 14  2  0
 13 15  1  0
 16 15  1  6
M  END
