
     RDKit          3D

  9  9  0  0  0  0  0  0  0  0999 V2000
    2.7840    0.5030   -0.7450 O   0  0  0  0  0  0  0  0  0  0  0  0
    1.9630   -0.5750   -0.5170 C   0  0  0  0  0  0  0  0  0  0  0  0
    0.6610   -0.1680    0.1130 C   0  0  2  0  0  0  0  0  0  0  0  0
   -0.2090   -1.3030    0.3560 N   0  0  0  0  0  0  0  0  0  0  0  0
   -1.5620   -0.7840    0.4200 C   0  0  0  0  0  0  0  0  0  0  0  0
   -1.4850    0.6740    0.0180 C   0  0  2  0  0  0  0  0  0  0  0  0
   -2.5650    1.1070   -0.6980 O   0  0  0  0  0  0  0  0  0  0  0  0
   -0.2010    0.6540   -0.8240 C   0  0  1  0  0  0  0  0  0  0  0  0
    0.2860    1.9130   -1.0540 O   0  0  0  0  0  0  0  0  0  0  0  0
  1  2  1  0
  3  2  1  6
  3  4  1  0
  3  8  1  0
  4  5  1  0
  5  6  1  0
  6  7  1  6
  6  8  1  0
  8  9  1  1
M  CHG  1   4   1
M  END
