
     RDKit          3D

 13 13  0  0  0  0  0  0  0  0999 V2000
    4.3320   -0.5030    0.6310 C   0  0  0  0  0  0  0  0  0  0  0  0
    2.9950   -0.8290    0.5880 O   0  0  0  0  0  0  0  0  0  0  0  0
    2.3650   -0.0430   -0.3810 C   0  0  0  0  0  0  0  0  0  0  0  0
    0.9310   -0.4320   -0.3880 C   0  0  0  0  0  0  0  0  0  0  0  0
   -0.0380    0.4150   -0.1310 C   0  0  0  0  0  0  0  0  0  0  0  0
   -1.4300    0.0550   -0.1340 C   0  0  0  0  0  0  0  0  0  0  0  0
   -1.9040   -1.2010   -0.4010 C   0  0  0  0  0  0  0  0  0  0  0  0
   -3.1990   -1.4950   -0.3940 O   0  0  0  0  0  0  0  0  0  0  0  0
   -4.1150   -0.6020   -0.1290 C   0  0  0  0  0  0  0  0  0  0  0  0
   -5.3580   -0.8820   -0.1220 O   0  0  0  0  0  0  0  0  0  0  0  0
   -3.7110    0.6820    0.1490 C   0  0  0  0  0  0  0  0  0  0  0  0
   -2.3760    1.0520    0.1570 C   0  0  0  0  0  0  0  0  0  0  0  0
   -2.0350    2.3430    0.4410 O   0  0  0  0  0  0  0  0  0  0  0  0
  1  2  1  0
  2  3  1  0
  3  4  1  0
  4  5  2  3
  5  6  1  0
  6  7  2  0
  6 12  1  0
  7  8  1  0
  8  9  1  0
  9 10  2  0
  9 11  1  0
 11 12  2  0
 12 13  1  0
M  END
