
     RDKit          3D

 16 17  0  0  0  0  0  0  0  0999 V2000
    3.4050   -0.6990    1.0620 N   0  0  0  0  0  0  0  0  0  0  0  0
    3.7410   -1.2810   -0.1890 C   0  0  0  0  0  0  0  0  0  0  0  0
    4.9270   -1.6090   -0.3880 O   0  0  0  0  0  0  0  0  0  0  0  0
    2.7180   -1.5000   -1.2410 C   0  0  0  0  0  0  0  0  0  0  0  0
    1.4830   -1.0320   -0.7670 O   0  0  0  0  0  0  0  0  0  0  0  0
    1.2680    0.2850   -0.4100 C   0  0  0  0  0  0  0  0  0  0  0  0
    2.2290    1.0880   -0.5210 O   0  0  0  0  0  0  0  0  0  0  0  0
   -0.0530    0.7380    0.0880 C   0  0  0  0  0  0  0  0  0  0  0  0
   -1.1330    0.0380    0.2580 C   0  0  0  0  0  0  0  0  0  0  0  0
   -2.2200    0.9160    0.7820 C   0  0  1  0  0  0  0  0  0  0  0  0
   -1.7820    2.3180    0.4640 C   0  0  0  0  0  0  0  0  0  0  0  0
   -0.3170    2.1090    0.4590 N   0  0  0  0  0  0  0  0  0  0  0  0
   -3.3290    0.3850   -0.0940 C   0  0  0  0  0  0  0  0  0  0  0  0
   -3.1560   -1.0060   -0.0530 O   0  0  0  0  0  0  0  0  0  0  0  0
   -1.8010   -1.2610    0.1590 C   0  0  1  0  0  0  0  0  0  0  0  0
   -1.2670   -2.0760   -0.8320 O   0  0  0  0  0  0  0  0  0  0  0  0
  1  2  1  0
  2  3  2  0
  2  4  1  0
  4  5  1  0
  5  6  1  0
  6  7  2  0
  6  8  1  0
  8  9  2  0
  8 12  1  0
  9 10  1  0
  9 15  1  0
 10 11  1  6
 10 13  1  0
 11 12  1  0
 13 14  1  0
 14 15  1  0
 15 16  1  6
M  END
