
     RDKit          3D

 12 12  0  0  0  0  0  0  0  0999 V2000
    4.6170    0.4170    0.0180 C   0  0  0  0  0  0  0  0  0  0  0  0
    3.4580   -0.0970   -0.5890 O   0  0  0  0  0  0  0  0  0  0  0  0
    2.1760    0.1460   -0.0930 C   0  0  0  0  0  0  0  0  0  0  0  0
    2.1100    0.8570    0.9380 O   0  0  0  0  0  0  0  0  0  0  0  0
    1.0530   -0.4380   -0.8040 C   0  0  0  0  0  0  0  0  0  0  0  0
   -0.2970   -0.1650   -0.2560 C   0  0  1  0  0  0  0  0  0  0  0  0
   -0.4800    1.2390   -0.2710 O   0  0  0  0  0  0  0  0  0  0  0  0
   -1.3670   -0.7190   -1.1750 C   0  0  0  0  0  0  0  0  0  0  0  0
   -2.7240   -0.2610   -0.7740 C   0  0  0  0  0  0  0  0  0  0  0  0
   -2.8140    0.3340    0.5890 C   0  0  0  0  0  0  0  0  0  0  0  0
   -1.9090   -0.2720    1.6030 C   0  0  0  0  0  0  0  0  0  0  0  0
   -0.5560   -0.6430    1.1150 C   0  0  0  0  0  0  0  0  0  0  0  0
  1  2  1  0
  2  3  1  0
  3  4  2  0
  3  5  1  0
  5  6  1  0
  6  7  1  1
  6  8  1  0
  6 12  1  0
  8  9  1  0
  9 10  1  0
 10 11  1  0
 11 12  1  0
M  END
