
     RDKit          3D

 29 31  0  0  0  0  0  0  0  0999 V2000
   -0.5350   -1.7860    1.7850 C   0  0  0  0  0  0  0  0  0  0  0  0
   -1.7970   -2.1750    1.1710 C   0  0  0  0  0  0  0  0  0  0  0  0
   -2.3920   -1.7140    0.0890 C   0  0  0  0  0  0  0  0  0  0  0  0
   -3.6580   -2.3020   -0.3070 C   0  0  0  0  0  0  0  0  0  0  0  0
   -3.8330   -3.6340   -0.2510 C   0  0  0  0  0  0  0  0  0  0  0  0
   -2.8620   -4.4300    0.1640 F   0  0  0  0  0  0  0  0  0  0  0  0
   -4.7830   -1.4490   -0.7880 C   0  0  0  0  0  0  0  0  0  0  0  0
   -4.1880   -0.4200   -1.7090 C   0  0  0  0  0  0  0  0  0  0  0  0
   -2.7430   -0.5990   -2.0010 C   0  0  0  0  0  0  0  0  0  0  0  0
   -1.8570   -0.6460   -0.8130 C   0  0  1  0  0  0  0  0  0  0  0  0
   -1.3520    0.5310   -0.2640 N   0  0  0  0  0  0  0  0  0  0  0  0
   -2.2140    1.6070    0.1750 C   0  0  0  0  0  0  0  0  0  0  0  0
   -2.7280    1.6010    1.5190 C   0  0  0  0  0  0  0  0  0  0  0  0
   -2.5170    0.7360    2.3780 O   0  0  0  0  0  0  0  0  0  0  0  0
   -3.5790    2.6860    1.9560 N   0  0  0  0  0  0  0  0  0  0  0  0
   -4.0760    2.7200    3.2110 O   0  0  0  0  0  0  0  0  0  0  0  0
    0.0520    0.8020   -0.1680 C   0  0  0  0  0  0  0  0  0  0  0  0
    0.4030    1.9090    0.4100 O   0  0  0  0  0  0  0  0  0  0  0  0
    1.1180    0.0360   -0.6160 N   0  0  0  0  0  0  0  0  0  0  0  0
    2.5120    0.2910   -0.5200 C   0  0  0  0  0  0  0  0  0  0  0  0
    3.3930   -0.3630   -1.4120 C   0  0  0  0  0  0  0  0  0  0  0  0
    4.7320   -0.1080   -1.2760 C   0  0  0  0  0  0  0  0  0  0  0  0
    5.2440    0.7460   -0.3200 C   0  0  0  0  0  0  0  0  0  0  0  0
    4.3720    1.3670    0.5350 C   0  0  0  0  0  0  0  0  0  0  0  0
    5.1190    2.1570    1.3770 C   0  0  0  0  0  0  0  0  0  0  0  0
    6.4010    1.9850    1.0030 N   0  0  0  0  0  0  0  0  0  0  0  0
    6.4840    1.1520   -0.0030 N   0  0  0  0  0  0  0  0  0  0  0  0
    7.7110    0.7280   -0.6760 C   0  0  0  0  0  0  0  0  0  0  0  0
    3.0010    1.1330    0.4270 C   0  0  0  0  0  0  0  0  0  0  0  0
  1  2  1  0
  2  3  2  3
  3  4  1  0
  3 10  1  0
  4  5  2  3
  4  7  1  0
  5  6  1  0
  7  8  1  0
  8  9  1  0
  9 10  1  0
 10 11  1  1
 11 12  1  0
 11 17  1  0
 12 13  1  0
 13 14  2  0
 13 15  1  0
 15 16  1  0
 17 18  2  0
 17 19  1  0
 19 20  1  0
 20 21  2  0
 20 29  1  0
 21 22  1  0
 22 23  2  0
 23 24  1  0
 23 27  1  0
 24 25  1  0
 24 29  2  0
 25 26  2  0
 26 27  1  0
 27 28  1  0
M  END
