
     RDKit          3D

 29 32  0  0  0  0  0  0  0  0999 V2000
   -1.4310    5.5770   -1.5350 C   0  0  0  0  0  0  0  0  0  0  0  0
   -1.5200    4.7960   -0.2670 C   0  0  2  0  0  0  0  0  0  0  0  0
   -0.5280    5.0500    0.8040 C   0  0  0  0  0  0  0  0  0  0  0  0
   -2.1210    3.4570   -0.3270 C   0  0  0  0  0  0  0  0  0  0  0  0
   -3.4760    3.1080   -0.3640 C   0  0  0  0  0  0  0  0  0  0  0  0
   -3.5030    1.7750   -0.1560 N   0  0  0  0  0  0  0  0  0  0  0  0
   -2.2790    1.3040   -0.0070 N   0  0  0  0  0  0  0  0  0  0  0  0
   -1.7900    0.0340    0.1610 C   0  0  0  0  0  0  0  0  0  0  0  0
   -2.6720   -1.0830    0.3150 N   0  0  0  0  0  0  0  0  0  0  0  0
   -4.1010   -1.0370    0.3830 C   0  0  0  0  0  0  0  0  0  0  0  0
   -4.5850   -2.4200    0.1970 C   0  0  0  0  0  0  0  0  0  0  0  0
   -4.8840   -3.2340    1.2550 C   0  0  0  0  0  0  0  0  0  0  0  0
   -5.2940   -4.5300    0.9890 C   0  0  0  0  0  0  0  0  0  0  0  0
   -5.4210   -5.0470   -0.2680 C   0  0  0  0  0  0  0  0  0  0  0  0
   -5.1200   -4.2110   -1.3290 C   0  0  0  0  0  0  0  0  0  0  0  0
   -4.7100   -2.9270   -1.0980 C   0  0  0  0  0  0  0  0  0  0  0  0
   -0.4340   -0.1280    0.2150 C   0  0  0  0  0  0  0  0  0  0  0  0
    0.4930    0.8980    0.1130 C   0  0  0  0  0  0  0  0  0  0  0  0
    1.8830    0.6970    0.1860 N   0  0  0  0  0  0  0  0  0  0  0  0
    2.3770   -0.5940    0.5770 C   0  0  0  0  0  0  0  0  0  0  0  0
    3.8580   -0.7340    0.4560 C   0  0  1  0  0  0  0  0  0  0  0  0
    4.3190   -2.0980    0.9840 C   0  0  0  0  0  0  0  0  0  0  0  0
    5.7880   -1.8530    1.3770 C   0  0  0  0  0  0  0  0  0  0  0  0
    6.3410   -1.0490    0.2840 N   0  0  0  0  0  0  0  0  0  0  0  0
    5.7130   -1.3140   -0.9820 C   0  0  0  0  0  0  0  0  0  0  0  0
    4.3010   -0.7550   -1.0040 C   0  0  2  0  0  0  0  0  0  0  0  0
    4.2460    0.5170   -1.5130 O   0  0  0  0  0  0  0  0  0  0  0  0
   -0.0530    2.1150   -0.0490 N   0  0  0  0  0  0  0  0  0  0  0  0
   -1.4030    2.3080   -0.1040 C   0  0  0  0  0  0  0  0  0  0  0  0
  2  1  1  6
  2  3  1  0
  2  4  1  0
  4  5  1  0
  4 29  2  0
  5  6  2  0
  6  7  1  0
  7  8  1  0
  7 29  1  0
  8  9  1  0
  8 17  2  0
  9 10  1  0
 10 11  1  0
 11 12  2  0
 11 16  1  0
 12 13  1  0
 13 14  2  0
 14 15  1  0
 15 16  2  0
 17 18  1  0
 18 19  1  0
 18 28  2  0
 19 20  1  0
 21 20  1  6
 21 22  1  0
 21 26  1  0
 22 23  1  0
 23 24  1  0
 24 25  1  0
 25 26  1  0
 26 27  1  1
 28 29  1  0
M  CHG  1  24   1
M  END
