
     RDKit          3D

 29 31  0  0  0  0  0  0  0  0999 V2000
    6.1720   -0.6150   -0.9290 C   0  0  0  0  0  0  0  0  0  0  0  0
    5.8210   -1.8870   -0.2120 C   0  0  2  0  0  0  0  0  0  0  0  0
    4.3640   -2.2170   -0.4870 C   0  0  0  0  0  0  0  0  0  0  0  0
    3.4440   -1.1170    0.0010 C   0  0  0  0  0  0  0  0  0  0  0  0
    4.0930   -0.2670    0.9690 N   0  0  0  0  0  0  0  0  0  0  0  0
    3.7520    1.1130    0.9940 C   0  0  0  0  0  0  0  0  0  0  0  0
    2.8650    1.7630    0.1970 N   0  0  0  0  0  0  0  0  0  0  0  0
    2.8280    3.0620    0.5350 C   0  0  0  0  0  0  0  0  0  0  0  0
    2.0310    4.1780   -0.0250 C   0  0  0  0  0  0  0  0  0  0  0  0
    1.0550    3.8070   -0.9310 O   0  0  0  0  0  0  0  0  0  0  0  0
    0.0070    2.9870   -0.5980 C   0  0  0  0  0  0  0  0  0  0  0  0
   -0.1140    2.5110    0.6810 C   0  0  0  0  0  0  0  0  0  0  0  0
   -1.1800    1.6830    1.0090 C   0  0  0  0  0  0  0  0  0  0  0  0
   -2.1440    1.3210    0.0520 C   0  0  0  0  0  0  0  0  0  0  0  0
   -3.1730    0.4850    0.5160 N   0  0  0  0  0  0  0  0  0  0  0  0
   -4.1530   -0.1260   -0.2650 C   0  0  0  0  0  0  0  0  0  0  0  0
   -4.2030    0.0140   -1.4840 O   0  0  0  0  0  0  0  0  0  0  0  0
   -5.1770   -0.9680    0.3070 N   0  0  0  0  0  0  0  0  0  0  0  0
   -6.1820   -1.5930   -0.5060 C   0  0  1  0  0  0  0  0  0  0  0  0
   -7.0110   -0.5390   -1.2510 C   0  0  0  0  0  0  0  0  0  0  0  0
   -5.6130   -2.5370   -1.5400 C   0  0  0  0  0  0  0  0  0  0  0  0
   -7.1100   -2.3750    0.3960 C   0  0  0  0  0  0  0  0  0  0  0  0
   -2.0170    1.8020   -1.2280 C   0  0  0  0  0  0  0  0  0  0  0  0
   -0.9550    2.6230   -1.5410 C   0  0  0  0  0  0  0  0  0  0  0  0
   -0.8340    3.0920   -2.7940 F   0  0  0  0  0  0  0  0  0  0  0  0
    3.7020    3.1980    1.5460 N   0  0  0  0  0  0  0  0  0  0  0  0
    4.2440    2.0230    1.8050 O   0  0  0  0  0  0  0  0  0  0  0  0
    5.0650   -0.7780    1.9010 C   0  0  0  0  0  0  0  0  0  0  0  0
    6.0340   -1.7460    1.2850 C   0  0  0  0  0  0  0  0  0  0  0  0
  2  1  1  6
  2  3  1  0
  2 29  1  0
  3  4  1  0
  4  5  1  0
  5  6  1  0
  5 28  1  0
  6  7  2  0
  6 27  1  0
  7  8  1  0
  8  9  1  0
  8 26  2  0
  9 10  1  0
 10 11  1  0
 11 12  2  0
 11 24  1  0
 12 13  1  0
 13 14  2  0
 14 15  1  0
 14 23  1  0
 15 16  1  0
 16 17  2  0
 16 18  1  0
 18 19  1  0
 19 20  1  6
 19 21  1  0
 19 22  1  0
 23 24  2  0
 24 25  1  0
 26 27  1  0
 28 29  1  0
M  END
