
     RDKit          3D

 28 30  0  0  0  0  0  0  0  0999 V2000
   -6.0870   -1.1900    2.5040 C   0  0  0  0  0  0  0  0  0  0  0  0
   -4.7700   -0.8970    1.9570 C   0  0  0  0  0  0  0  0  0  0  0  0
   -3.7590   -1.3780    2.6240 O   0  0  0  0  0  0  0  0  0  0  0  0
   -4.4120   -0.1440    0.7840 C   0  0  0  0  0  0  0  0  0  0  0  0
   -3.1040    0.4060    0.7350 C   0  0  0  0  0  0  0  0  0  0  0  0
   -2.6540    1.1770   -0.2950 C   0  0  0  0  0  0  0  0  0  0  0  0
   -1.3680    1.7570   -0.4160 N   0  0  0  0  0  0  0  0  0  0  0  0
   -0.3090    1.6430    0.5150 C   0  0  0  0  0  0  0  0  0  0  0  0
   -0.4250    1.0010    1.5550 O   0  0  0  0  0  0  0  0  0  0  0  0
    0.9620    2.2790    0.2820 N   0  0  0  0  0  0  0  0  0  0  0  0
    2.0450    2.1610    1.2330 C   0  0  0  0  0  0  0  0  0  0  0  0
    2.7040    0.8300    1.1580 C   0  0  0  0  0  0  0  0  0  0  0  0
    2.4300   -0.1250    2.1090 C   0  0  0  0  0  0  0  0  0  0  0  0
    3.0390   -1.3800    2.0440 C   0  0  0  0  0  0  0  0  0  0  0  0
    3.8950   -1.6700    1.0570 N   0  0  0  0  0  0  0  0  0  0  0  0
    4.1990   -0.7630    0.0940 C   0  0  0  0  0  0  0  0  0  0  0  0
    5.0980   -1.0910   -0.9330 N   0  0  0  0  0  0  0  0  0  0  0  0
    5.7500   -2.3570   -1.1100 C   0  0  0  0  0  0  0  0  0  0  0  0
    6.9940   -2.0650   -1.8880 C   0  0  0  0  0  0  0  0  0  0  0  0
    6.9810   -0.5900   -2.1880 C   0  0  0  0  0  0  0  0  0  0  0  0
    5.5260   -0.2230   -1.9890 C   0  0  0  0  0  0  0  0  0  0  0  0
    3.5890    0.4960    0.1590 C   0  0  0  0  0  0  0  0  0  0  0  0
   -3.5840    1.3900   -1.3110 C   0  0  0  0  0  0  0  0  0  0  0  0
   -3.2490    2.0950   -2.3050 O   0  0  0  0  0  0  0  0  0  0  0  0
   -4.8260    0.8690   -1.2670 N   0  0  0  0  0  0  0  0  0  0  0  0
   -5.7580    1.1340   -2.3700 C   0  0  0  0  0  0  0  0  0  0  0  0
   -5.2810    0.1010   -0.2490 C   0  0  0  0  0  0  0  0  0  0  0  0
   -6.6520   -0.4620   -0.3070 C   0  0  0  0  0  0  0  0  0  0  0  0
  1  2  1  0
  2  3  2  0
  2  4  1  0
  4  5  1  0
  4 27  2  0
  5  6  2  0
  6  7  1  0
  6 23  1  0
  7  8  1  0
  8  9  2  0
  8 10  1  0
 10 11  1  0
 11 12  1  0
 12 13  2  0
 12 22  1  0
 13 14  1  0
 14 15  2  0
 15 16  1  0
 16 17  1  0
 16 22  2  0
 17 18  1  0
 17 21  1  0
 18 19  1  0
 19 20  1  0
 20 21  1  0
 23 24  2  0
 23 25  1  0
 25 26  1  0
 25 27  1  0
 27 28  1  0
M  END
