
     RDKit          3D

 29 32  0  0  0  0  0  0  0  0999 V2000
    5.2820    1.8910    2.4590 C   0  0  0  0  0  0  0  0  0  0  0  0
    5.9230    0.7860    2.1280 C   0  0  0  0  0  0  0  0  0  0  0  0
    7.2450    0.4090    2.6450 C   0  0  0  0  0  0  0  0  0  0  0  0
    7.5880   -0.7350    2.1200 C   0  0  0  0  0  0  0  0  0  0  0  0
    8.7390   -1.4220    2.3440 F   0  0  0  0  0  0  0  0  0  0  0  0
    6.4990   -1.1680    1.2280 C   0  0  0  0  0  0  0  0  0  0  0  0
    5.5330   -0.2740    1.2400 C   0  0  0  0  0  0  0  0  0  0  0  0
    4.3530   -0.3550    0.5160 O   0  0  0  0  0  0  0  0  0  0  0  0
    4.3720   -0.8360   -0.7800 C   0  0  0  0  0  0  0  0  0  0  0  0
    5.5420   -1.2190   -1.3130 N   0  0  0  0  0  0  0  0  0  0  0  0
    5.5420   -1.6840   -2.5720 C   0  0  0  0  0  0  0  0  0  0  0  0
    4.3750   -1.7680   -3.3030 C   0  0  0  0  0  0  0  0  0  0  0  0
    3.2090   -1.3690   -2.7260 N   0  0  0  0  0  0  0  0  0  0  0  0
    3.1900   -0.9030   -1.4720 C   0  0  0  0  0  0  0  0  0  0  0  0
    1.9930   -0.4780   -0.8340 N   0  0  0  0  0  0  0  0  0  0  0  0
    0.7430   -0.5260   -1.5060 C   0  0  0  0  0  0  0  0  0  0  0  0
    0.7850   -0.9710   -2.7040 O   0  0  0  0  0  0  0  0  0  0  0  0
   -0.4890   -0.1310   -0.9590 N   0  0  0  0  0  0  0  0  0  0  0  0
   -1.7010   -0.2190   -1.7460 C   0  0  0  0  0  0  0  0  0  0  0  0
   -2.7190    0.7070   -1.0650 C   0  0  0  0  0  0  0  0  0  0  0  0
   -3.0120    0.1190    0.2150 N   0  0  0  0  0  0  0  0  0  0  0  0
   -4.0260    0.7920    0.9510 C   0  0  0  0  0  0  0  0  0  0  0  0
   -5.3960    0.6850    0.3580 C   0  0  2  0  0  0  0  0  0  0  0  0
   -6.4600    1.2310    1.3200 C   0  0  0  0  0  0  0  0  0  0  0  0
   -7.7170    0.7260    0.6380 C   0  0  0  0  0  0  0  0  0  0  0  0
   -7.1850   -0.4680   -0.1230 C   0  0  0  0  0  0  0  0  0  0  0  0
   -5.8450   -0.6280    0.2460 O   0  0  0  0  0  0  0  0  0  0  0  0
   -1.8640   -0.2530    0.9800 C   0  0  0  0  0  0  0  0  0  0  0  0
   -0.5960    0.3660    0.3860 C   0  0  0  0  0  0  0  0  0  0  0  0
  1  2  2  0
  2  3  1  0
  2  7  1  0
  3  4  2  0
  4  5  1  0
  4  6  1  0
  6  7  2  0
  7  8  1  0
  8  9  1  0
  9 10  2  0
  9 14  1  0
 10 11  1  0
 11 12  2  0
 12 13  1  0
 13 14  2  0
 14 15  1  0
 15 16  1  0
 16 17  2  0
 16 18  1  0
 18 19  1  0
 18 29  1  0
 19 20  1  0
 20 21  1  0
 21 22  1  0
 21 28  1  0
 23 22  1  1
 23 24  1  0
 23 27  1  0
 24 25  1  0
 25 26  1  0
 26 27  1  0
 28 29  1  0
M  END
