
     RDKit          3D

 29 31  0  0  0  0  0  0  0  0999 V2000
   -7.8480   -2.4800   -0.5620 C   0  0  0  0  0  0  0  0  0  0  0  0
   -6.9230   -1.3020   -0.5000 C   0  0  0  0  0  0  0  0  0  0  0  0
   -7.1840   -0.0130   -0.6640 N   0  0  0  0  0  0  0  0  0  0  0  0
   -6.0920    0.7200   -0.5320 N   0  0  0  0  0  0  0  0  0  0  0  0
   -5.9440    2.1530   -0.6340 C   0  0  0  0  0  0  0  0  0  0  0  0
   -6.1370    2.8400    0.6990 C   0  0  0  0  0  0  0  0  0  0  0  0
   -5.1940    2.3680    1.5900 F   0  0  0  0  0  0  0  0  0  0  0  0
   -5.0660   -0.1440   -0.2660 C   0  0  0  0  0  0  0  0  0  0  0  0
   -3.7270    0.1020   -0.0440 C   0  0  0  0  0  0  0  0  0  0  0  0
   -2.8420   -0.9300    0.2100 C   0  0  0  0  0  0  0  0  0  0  0  0
   -1.4850   -0.5860    0.4240 N   0  0  0  0  0  0  0  0  0  0  0  0
   -0.4170   -1.4550    0.7400 C   0  0  0  0  0  0  0  0  0  0  0  0
   -0.6480   -2.6770    0.8560 O   0  0  0  0  0  0  0  0  0  0  0  0
    0.9190   -1.0250    0.9380 N   0  0  0  0  0  0  0  0  0  0  0  0
    1.9350   -2.0170    1.2550 C   0  0  0  0  0  0  0  0  0  0  0  0
    3.1660   -1.8510    0.4030 C   0  0  0  0  0  0  0  0  0  0  0  0
    3.4230   -0.5090   -0.0230 N   0  0  0  0  0  0  0  0  0  0  0  0
    4.7640   -0.0590   -0.1050 C   0  0  0  0  0  0  0  0  0  0  0  0
    5.7230   -0.7870    0.1790 O   0  0  0  0  0  0  0  0  0  0  0  0
    5.0370    1.3300   -0.5450 C   0  0  0  0  0  0  0  0  0  0  0  0
    6.5160    1.6180   -0.5680 C   0  0  2  0  0  0  0  0  0  0  0  0
    7.2590    0.7110   -1.4980 C   0  0  0  0  0  0  0  0  0  0  0  0
    7.0920    1.5590    0.8350 C   0  0  0  0  0  0  0  0  0  0  0  0
    6.6530    2.9580   -0.9990 O   0  0  0  0  0  0  0  0  0  0  0  0
    2.3160    0.3750   -0.3650 C   0  0  0  0  0  0  0  0  0  0  0  0
    1.3840    0.3370    0.8530 C   0  0  0  0  0  0  0  0  0  0  0  0
   -3.3710   -2.1900    0.2280 C   0  0  0  0  0  0  0  0  0  0  0  0
   -4.7220   -2.4750    0.0070 C   0  0  0  0  0  0  0  0  0  0  0  0
   -5.5800   -1.4230   -0.2440 C   0  0  0  0  0  0  0  0  0  0  0  0
  1  2  1  0
  2  3  2  0
  2 29  1  0
  3  4  1  0
  4  5  1  0
  4  8  1  0
  5  6  1  0
  6  7  1  0
  8  9  2  0
  8 29  1  0
  9 10  1  0
 10 11  1  0
 10 27  2  0
 11 12  1  0
 12 13  2  0
 12 14  1  0
 14 15  1  0
 14 26  1  0
 15 16  1  0
 16 17  1  0
 17 18  1  0
 17 25  1  0
 18 19  2  0
 18 20  1  0
 20 21  1  0
 21 22  1  6
 21 23  1  0
 21 24  1  0
 25 26  1  0
 27 28  1  0
 28 29  2  0
M  END
