
     RDKit          3D

 29 31  0  0  0  0  0  0  0  0999 V2000
   -6.7930   -0.1920    0.9520 C   0  0  0  0  0  0  0  0  0  0  0  0
   -6.0660   -0.8270   -0.2240 C   0  0  0  0  0  0  0  0  0  0  0  0
   -5.4120    0.1610   -1.0880 C   0  0  0  0  0  0  0  0  0  0  0  0
   -6.2370    0.8510   -1.9590 C   0  0  0  0  0  0  0  0  0  0  0  0
   -7.5750    0.6010   -1.9810 F   0  0  0  0  0  0  0  0  0  0  0  0
   -5.7320    1.7900   -2.8070 C   0  0  0  0  0  0  0  0  0  0  0  0
   -4.3920    2.0930   -2.8380 C   0  0  0  0  0  0  0  0  0  0  0  0
   -3.5710    1.3910   -1.9550 C   0  0  0  0  0  0  0  0  0  0  0  0
   -4.0470    0.4480   -1.0970 C   0  0  0  0  0  0  0  0  0  0  0  0
   -3.2440   -0.2420   -0.1890 N   0  0  0  0  0  0  0  0  0  0  0  0
   -1.8330   -0.1230   -0.1350 C   0  0  0  0  0  0  0  0  0  0  0  0
   -1.1660    0.6180   -0.9080 O   0  0  0  0  0  0  0  0  0  0  0  0
   -1.1410   -0.8860    0.8480 N   0  0  0  0  0  0  0  0  0  0  0  0
   -1.8750   -1.7240    1.7490 C   0  0  0  0  0  0  0  0  0  0  0  0
    0.2900   -0.8180    0.9220 C   0  0  1  0  0  0  0  0  0  0  0  0
    0.8920   -1.3380   -0.3720 C   0  0  0  0  0  0  0  0  0  0  0  0
    2.1920   -0.5970   -0.5950 C   0  0  0  0  0  0  0  0  0  0  0  0
    2.9170   -0.5830    0.7520 C   0  0  1  0  0  0  0  0  0  0  0  0
    4.3160   -0.5260    0.6180 C   0  0  0  0  0  0  0  0  0  0  0  0
    5.1210   -1.4120    1.1170 O   0  0  0  0  0  0  0  0  0  0  0  0
    5.0690    0.4540   -0.0600 N   0  0  0  0  0  0  0  0  0  0  0  0
    6.4710    0.3700    0.0120 C   0  0  0  0  0  0  0  0  0  0  0  0
    7.0440    0.5040   -1.0640 N   0  0  0  0  0  0  0  0  0  0  0  0
    8.5180    0.3950   -1.1090 C   0  0  0  0  0  0  0  0  0  0  0  0
    9.0790    1.3150   -0.2280 O   0  0  0  0  0  0  0  0  0  0  0  0
    8.5120    1.2150    1.0840 N   0  0  0  0  0  0  0  0  0  0  0  0
    7.3220    0.7840    1.2000 C   0  0  0  0  0  0  0  0  0  0  0  0
    2.2780    0.4660    1.5960 C   0  0  0  0  0  0  0  0  0  0  0  0
    0.8140    0.5550    1.2230 C   0  0  0  0  0  0  0  0  0  0  0  0
  1  2  1  0
  2  3  1  0
  3  4  2  0
  3  9  1  0
  4  5  1  0
  4  6  1  0
  6  7  2  0
  7  8  1  0
  8  9  2  0
  9 10  1  0
 10 11  1  0
 11 12  2  0
 11 13  1  0
 13 14  1  0
 15 13  1  6
 15 16  1  0
 15 29  1  0
 16 17  1  0
 17 18  1  0
 18 19  1  6
 18 28  1  0
 19 20  2  0
 19 21  1  0
 21 22  1  0
 22 23  2  0
 22 27  1  0
 23 24  1  0
 24 25  1  0
 25 26  1  0
 26 27  2  0
 28 29  1  0
M  END
