
     RDKit          3D

 31 32  0  0  0  0  0  0  0  0999 V2000
   -0.7850    0.8190   -2.1160 C   0  0  0  0  0  0  0  0  0  0  0  0
   -0.8310   -0.0170   -0.9250 N   0  0  0  0  0  0  0  0  0  0  0  0
    0.2950   -0.7910   -0.6080 C   0  0  0  0  0  0  0  0  0  0  0  0
    1.6570   -0.6550   -1.0610 C   0  0  0  0  0  0  0  0  0  0  0  0
    2.2230    0.1440   -1.8660 C   0  0  0  0  0  0  0  0  0  0  0  0
    2.0020    1.2040   -2.6870 N   0  0  0  0  0  0  0  0  0  0  0  0
    2.1920    2.5640   -2.2430 C   0  0  0  0  0  0  0  0  0  0  0  0
    1.9020    3.5830   -3.1060 C   0  0  0  0  0  0  0  0  0  0  0  0
    2.0690    4.9240   -2.7320 C   0  0  0  0  0  0  0  0  0  0  0  0
    2.5340    5.2090   -1.4670 C   0  0  0  0  0  0  0  0  0  0  0  0
    2.8260    4.1880   -0.6000 C   0  0  0  0  0  0  0  0  0  0  0  0
    2.6520    2.8540   -0.9940 C   0  0  0  0  0  0  0  0  0  0  0  0
    2.6430   -1.7080   -0.4350 C   0  0  0  0  0  0  0  0  0  0  0  0
    2.7030   -1.6070    0.9100 O   0  0  0  0  0  0  0  0  0  0  0  0
    3.1030   -0.4140    1.4450 C   0  0  0  0  0  0  0  0  0  0  0  0
    3.1430   -0.4370    2.9610 C   0  0  0  0  0  0  0  0  0  0  0  0
    4.3030   -1.7140    3.6070 P   0  0  0  0  0  0  0  0  0  0  0  0
    4.0010   -3.2380    2.8120 O   0  0  0  0  0  0  0  0  0  0  0  0
    3.9780   -1.9220    5.3010 O   0  0  0  0  0  0  0  0  0  0  0  0
    0.0610   -1.7600    0.3150 C   0  0  0  0  0  0  0  0  0  0  0  0
   -1.2320   -1.9720    0.9300 C   0  0  0  0  0  0  0  0  0  0  0  0
   -2.2980   -1.2660    0.6720 C   0  0  0  0  0  0  0  0  0  0  0  0
   -3.5150   -1.5370    1.3140 N   0  0  0  0  0  0  0  0  0  0  0  0
   -4.3860   -2.6450    1.0860 C   0  0  0  0  0  0  0  0  0  0  0  0
   -3.8360   -3.9830    1.5250 C   0  0  0  0  0  0  0  0  0  0  0  0
   -4.8500   -4.9230    1.2120 O   0  0  0  0  0  0  0  0  0  0  0  0
   -2.1140   -0.1810   -0.3420 C   0  0  0  0  0  0  0  0  0  0  0  0
   -3.1520    0.6090   -0.4690 C   0  0  0  0  0  0  0  0  0  0  0  0
   -3.3600    1.8390   -1.1730 C   0  0  0  0  0  0  0  0  0  0  0  0
   -4.5810    2.4070   -1.1180 C   0  0  0  0  0  0  0  0  0  0  0  0
   -5.5630    1.7790   -0.3920 O   0  0  0  0  0  0  0  0  0  0  0  0
  1  2  1  0
  2  3  1  0
  2 27  1  0
  3  4  1  0
  3 20  2  0
  4  5  2  3
  4 13  1  0
  5  6  1  0
  6  7  1  0
  7  8  2  0
  7 12  1  0
  8  9  1  0
  9 10  2  0
 10 11  1  0
 11 12  2  0
 13 14  1  0
 14 15  1  0
 15 16  1  0
 16 17  1  0
 17 18  1  0
 17 19  1  0
 20 21  1  0
 21 22  2  0
 22 23  1  0
 22 27  1  0
 23 24  1  0
 24 25  1  0
 25 26  1  0
 27 28  2  3
 28 29  1  0
 29 30  2  3
 30 31  1  0
M  END
