
     RDKit          3D

 31 32  0  0  0  0  0  0  0  0999 V2000
   -9.9030    0.2420   -3.3060 C   0  0  0  0  0  0  0  0  0  0  0  0
   -8.6350    0.7130   -2.9040 O   0  0  0  0  0  0  0  0  0  0  0  0
   -8.4320    0.2560   -1.2570 P   0  0  0  0  0  0  0  0  0  0  0  0
   -9.0110   -1.3470   -0.9470 O   0  0  0  0  0  0  0  0  0  0  0  0
   -6.7000    0.4570   -0.6890 C   0  0  0  0  0  0  0  0  0  0  0  0
   -6.3610    0.6200    0.6210 C   0  0  0  0  0  0  0  0  0  0  0  0
   -5.0190    0.7700    0.9990 C   0  0  0  0  0  0  0  0  0  0  0  0
   -4.0050    0.7580    0.0830 C   0  0  0  0  0  0  0  0  0  0  0  0
   -2.6340    0.8660    0.3920 N   0  0  0  0  0  0  0  0  0  0  0  0
   -1.9660    0.3050    1.5050 C   0  0  0  0  0  0  0  0  0  0  0  0
   -2.5210   -0.6230    2.3290 C   0  0  0  0  0  0  0  0  0  0  0  0
   -1.8460   -1.2000    3.4070 C   0  0  0  0  0  0  0  0  0  0  0  0
   -0.5560   -0.8130    3.6530 C   0  0  0  0  0  0  0  0  0  0  0  0
    0.2040   -1.3630    4.7470 N   0  0  0  0  0  0  0  0  0  0  0  0
    0.0200    0.1340    2.8180 C   0  0  0  0  0  0  0  0  0  0  0  0
   -0.6210    0.7180    1.7470 C   0  0  0  0  0  0  0  0  0  0  0  0
   -0.0870    1.6370    0.9310 O   0  0  0  0  0  0  0  0  0  0  0  0
    1.1020    2.2460    0.7920 C   0  0  0  0  0  0  0  0  0  0  0  0
    2.2780    1.3790    0.3370 C   0  0  0  0  0  0  0  0  0  0  0  0
    2.6320    0.3140    1.1250 N   0  0  0  0  0  0  0  0  0  0  0  0
    3.4060   -0.6310    1.2030 C   0  0  0  0  0  0  0  0  0  0  0  0
    4.4240   -1.0070    0.2720 C   0  0  0  0  0  0  0  0  0  0  0  0
    4.6900   -0.3800   -0.8390 C   0  0  0  0  0  0  0  0  0  0  0  0
    5.7900   -0.8810   -1.7310 C   0  0  2  0  0  0  0  0  0  0  0  0
    5.2440   -1.9910   -2.6250 C   0  0  0  0  0  0  0  0  0  0  0  0
    6.8490   -1.3420   -0.9680 O   0  0  0  0  0  0  0  0  0  0  0  0
    8.0490   -0.7170   -1.2040 C   0  0  0  0  0  0  0  0  0  0  0  0
    8.0420    0.7520   -0.9190 C   0  0  0  0  0  0  0  0  0  0  0  0
    9.3250    1.2380   -1.2050 O   0  0  0  0  0  0  0  0  0  0  0  0
   -4.3560    0.5900   -1.2610 C   0  0  0  0  0  0  0  0  0  0  0  0
   -5.6830    0.4440   -1.6230 C   0  0  0  0  0  0  0  0  0  0  0  0
  1  2  1  0
  2  3  1  0
  3  4  1  0
  3  5  1  0
  5  6  2  0
  5 31  1  0
  6  7  1  0
  7  8  2  0
  8  9  1  0
  8 30  1  0
  9 10  1  0
 10 11  2  0
 10 16  1  0
 11 12  1  0
 12 13  2  0
 13 14  1  0
 13 15  1  0
 15 16  2  0
 16 17  1  0
 17 18  1  0
 18 19  1  0
 19 20  1  0
 20 21  2  3
 21 22  1  0
 22 23  2  3
 23 24  1  0
 24 25  1  1
 24 26  1  0
 26 27  1  0
 27 28  1  0
 28 29  1  0
 30 31  2  0
M  END
