
     RDKit          3D

 31 32  0  0  0  0  0  0  0  0999 V2000
    5.3820   -1.8100    2.2860 C   0  0  0  0  0  0  0  0  0  0  0  0
    6.4030   -1.1080    1.5470 C   0  0  0  0  0  0  0  0  0  0  0  0
    6.1620   -0.3550    0.4540 C   0  0  0  0  0  0  0  0  0  0  0  0
    7.3440    0.2470   -0.1130 C   0  0  0  0  0  0  0  0  0  0  0  0
    7.4920    1.0010   -1.1150 C   0  0  0  0  0  0  0  0  0  0  0  0
    8.8410    1.4200   -1.3960 O   0  0  0  0  0  0  0  0  0  0  0  0
    6.2710    1.6400   -2.2580 P   0  0  0  0  0  0  0  0  0  0  0  0
    6.4230    3.3640   -2.3530 O   0  0  0  0  0  0  0  0  0  0  0  0
    4.7930   -0.2620    0.0220 C   0  0  0  0  0  0  0  0  0  0  0  0
    4.3860    0.3800   -0.9640 O   0  0  0  0  0  0  0  0  0  0  0  0
    3.7720   -0.9260    0.7260 O   0  0  0  0  0  0  0  0  0  0  0  0
    2.4260   -0.9110    0.4080 C   0  0  0  0  0  0  0  0  0  0  0  0
    1.7580    0.4320    0.4150 C   0  0  2  0  0  0  0  0  0  0  0  0
    2.1450    1.1410    1.6640 C   0  0  0  0  0  0  0  0  0  0  0  0
    1.7710    0.4550    2.9410 C   0  0  0  0  0  0  0  0  0  0  0  0
    0.3950    0.3330    0.0900 N   0  0  0  0  0  0  0  0  0  0  0  0
   -0.4800   -0.3870    0.9230 C   0  0  0  0  0  0  0  0  0  0  0  0
   -1.8550   -0.3430    0.3160 C   0  0  0  0  0  0  0  0  0  0  0  0
   -2.9530   -0.8090    1.0160 C   0  0  0  0  0  0  0  0  0  0  0  0
   -4.2230   -0.7850    0.4730 C   0  0  0  0  0  0  0  0  0  0  0  0
   -4.4420   -0.2890   -0.8040 C   0  0  0  0  0  0  0  0  0  0  0  0
   -5.7730   -0.2570   -1.4000 C   0  0  0  0  0  0  0  0  0  0  0  0
   -6.0190   -0.3830   -2.7500 C   0  0  0  0  0  0  0  0  0  0  0  0
   -7.2910   -0.3490   -3.2800 C   0  0  0  0  0  0  0  0  0  0  0  0
   -8.3470   -0.1850   -2.4360 N   0  0  0  0  0  0  0  0  0  0  0  0
   -8.1630   -0.0580   -1.1120 C   0  0  0  0  0  0  0  0  0  0  0  0
   -9.2780    0.1060   -0.3090 O   0  0  0  0  0  0  0  0  0  0  0  0
  -10.5670    0.1390   -0.8480 C   0  0  0  0  0  0  0  0  0  0  0  0
   -6.8820   -0.0920   -0.5840 C   0  0  0  0  0  0  0  0  0  0  0  0
   -3.3270    0.1670   -1.4750 C   0  0  0  0  0  0  0  0  0  0  0  0
   -2.0920    0.1320   -0.9180 N   0  0  0  0  0  0  0  0  0  0  0  0
  1  2  1  0
  2  3  2  3
  3  4  1  0
  3  9  1  0
  4  5  2  3
  5  6  1  0
  5  7  1  0
  7  8  1  0
  9 10  2  0
  9 11  1  0
 11 12  1  0
 13 12  1  1
 13 14  1  0
 13 16  1  0
 14 15  1  0
 16 17  1  0
 17 18  1  0
 18 19  2  0
 18 31  1  0
 19 20  1  0
 20 21  2  0
 21 22  1  0
 21 30  1  0
 22 23  2  0
 22 29  1  0
 23 24  1  0
 24 25  2  0
 25 26  1  0
 26 27  1  0
 26 29  2  0
 27 28  1  0
 30 31  2  0
M  END
