
     RDKit          3D

 31 31  0  0  0  0  0  0  0  0999 V2000
   -1.1130   -4.3330    0.0080 C   0  0  0  0  0  0  0  0  0  0  0  0
   -0.2600   -3.4950    0.9830 C   0  0  1  0  0  0  0  0  0  0  0  0
    1.1700   -3.5530    0.6050 C   0  0  0  0  0  0  0  0  0  0  0  0
   -0.8940   -2.1520    1.1330 C   0  0  0  0  0  0  0  0  0  0  0  0
   -1.0130   -1.3410   -0.1040 C   0  0  2  0  0  0  0  0  0  0  0  0
    0.2030   -0.9610   -0.7040 N   0  0  0  0  0  0  0  0  0  0  0  0
    0.9740    0.4290   -0.1390 P   0  0  0  0  0  0  0  0  0  0  0  0
    2.0000    1.2660   -1.1120 O   0  0  0  0  0  0  0  0  0  0  0  0
    0.3530    1.1750    1.2360 O   0  0  0  0  0  0  0  0  0  0  0  0
    2.1340   -0.3120    0.7040 C   0  0  0  0  0  0  0  0  0  0  0  0
    3.2450    0.4710    1.2100 N   0  0  0  0  0  0  0  0  0  0  0  0
    4.3130    1.0040    0.4780 C   0  0  0  0  0  0  0  0  0  0  0  0
    4.4060    0.8200   -0.7480 O   0  0  0  0  0  0  0  0  0  0  0  0
    5.3280    1.7640    1.0590 O   0  0  0  0  0  0  0  0  0  0  0  0
    6.3960    2.2930    0.3100 C   0  0  0  0  0  0  0  0  0  0  0  0
    7.2170    1.2690   -0.3760 C   0  0  0  0  0  0  0  0  0  0  0  0
    8.0770    0.5430    0.4140 C   0  0  0  0  0  0  0  0  0  0  0  0
    8.8820   -0.4260   -0.1430 C   0  0  0  0  0  0  0  0  0  0  0  0
    8.8230   -0.6670   -1.4970 C   0  0  0  0  0  0  0  0  0  0  0  0
    7.9590    0.0620   -2.2870 C   0  0  0  0  0  0  0  0  0  0  0  0
    7.1600    1.0280   -1.7230 C   0  0  0  0  0  0  0  0  0  0  0  0
   -2.0390   -0.2860   -0.0710 C   0  0  0  0  0  0  0  0  0  0  0  0
   -2.1050    0.5230   -1.0300 O   0  0  0  0  0  0  0  0  0  0  0  0
   -2.9590   -0.1220    0.9750 N   0  0  0  0  0  0  0  0  0  0  0  0
   -3.9640    0.9210    0.9820 C   0  0  0  0  0  0  0  0  0  0  0  0
   -4.9150    0.8160   -0.1860 C   0  0  1  0  0  0  0  0  0  0  0  0
   -5.5920   -0.5330   -0.0840 C   0  0  0  0  0  0  0  0  0  0  0  0
   -6.0020    1.8660   -0.1170 C   0  0  1  0  0  0  0  0  0  0  0  0
   -5.4260    3.2650   -0.1330 C   0  0  0  0  0  0  0  0  0  0  0  0
   -6.8440    1.7100   -1.3690 C   0  0  0  0  0  0  0  0  0  0  0  0
   -6.8860    1.7020    1.0740 C   0  0  0  0  0  0  0  0  0  0  0  0
  2  1  1  6
  2  3  1  0
  2  4  1  0
  5  4  1  1
  5  6  1  0
  5 22  1  0
  6  7  1  0
  7  8  1  0
  7  9  1  0
  7 10  1  0
 10 11  1  0
 11 12  1  0
 12 13  2  0
 12 14  1  0
 14 15  1  0
 15 16  1  0
 16 17  2  0
 16 21  1  0
 17 18  1  0
 18 19  2  0
 19 20  1  0
 20 21  2  0
 22 23  2  0
 22 24  1  0
 24 25  1  0
 25 26  1  0
 26 27  1  1
 26 28  1  0
 28 29  1  1
 28 30  1  0
 28 31  1  0
M  END
