
     RDKit          3D

 31 32  0  0  0  0  0  0  0  0999 V2000
   -4.5150    0.8000    0.0070 C   0  0  0  0  0  0  0  0  0  0  0  0
   -3.8120   -0.5010    0.2190 C   0  0  1  0  0  0  0  0  0  0  0  0
   -4.1490   -1.0690    1.6030 C   0  0  0  0  0  0  0  0  0  0  0  0
   -4.2550   -1.4160   -0.7200 O   0  0  0  0  0  0  0  0  0  0  0  0
   -2.3740   -0.3930    0.1590 N   0  0  0  0  0  0  0  0  0  0  0  0
   -1.5110   -1.5170    0.3290 C   0  0  0  0  0  0  0  0  0  0  0  0
   -2.0290   -2.6530    0.1700 O   0  0  0  0  0  0  0  0  0  0  0  0
   -0.1260   -1.2490    0.6660 C   0  0  1  0  0  0  0  0  0  0  0  0
    0.0470   -0.5040    1.9570 C   0  0  0  0  0  0  0  0  0  0  0  0
   -0.2730   -1.2500    3.0920 O   0  0  0  0  0  0  0  0  0  0  0  0
    0.7160   -2.4240    0.6320 N   0  0  0  0  0  0  0  0  0  0  0  0
    0.4110   -3.5750    1.4190 C   0  0  0  0  0  0  0  0  0  0  0  0
   -0.5930   -3.6190    2.1590 O   0  0  0  0  0  0  0  0  0  0  0  0
    1.2980   -4.6630    1.3190 O   0  0  0  0  0  0  0  0  0  0  0  0
    0.5070   -0.2840   -0.4210 C   0  0  1  0  0  0  0  0  0  0  0  0
    1.7440    0.0550    0.0180 O   0  0  0  0  0  0  0  0  0  0  0  0
    2.5290    0.8950   -0.5910 N   0  0  0  0  0  0  0  0  0  0  0  0
    3.0330    1.9280    0.3380 C   0  0  0  0  0  0  0  0  0  0  0  0
    4.5330    1.6820    0.3960 C   0  0  0  0  0  0  0  0  0  0  0  0
    4.7760    1.4030   -1.0720 C   0  0  0  0  0  0  0  0  0  0  0  0
    3.6360    0.4050   -1.3390 C   0  0  0  0  0  0  0  0  0  0  0  0
    0.6340   -1.2100   -1.6050 C   0  0  0  0  0  0  0  0  0  0  0  0
   -0.4230   -1.5870   -2.1790 O   0  0  0  0  0  0  0  0  0  0  0  0
    1.8280   -1.6490   -2.0690 O   0  0  0  0  0  0  0  0  0  0  0  0
   -0.4280    0.7850   -0.8200 C   0  0  2  0  0  0  0  0  0  0  0  0
   -0.7700    0.6130   -2.2000 O   0  0  0  0  0  0  0  0  0  0  0  0
    0.1100    2.2020   -0.7650 C   0  0  0  0  0  0  0  0  0  0  0  0
   -0.9900    2.9990   -1.2080 O   0  0  0  0  0  0  0  0  0  0  0  0
   -0.6540    4.2690   -1.2080 O   0  0  0  0  0  0  0  0  0  0  0  0
   -1.7160    0.8460   -0.0710 C   0  0  0  0  0  0  0  0  0  0  0  0
   -2.2390    1.9050    0.3580 O   0  0  0  0  0  0  0  0  0  0  0  0
  2  1  1  6
  2  3  1  0
  2  4  1  0
  2  5  1  0
  5  6  1  0
  5 30  1  0
  6  7  2  0
  6  8  1  0
  8  9  1  1
  8 11  1  0
  8 15  1  0
  9 10  1  0
 11 12  1  0
 12 13  2  0
 12 14  1  0
 15 16  1  1
 15 22  1  0
 15 25  1  0
 16 17  1  0
 17 18  1  0
 17 21  1  0
 18 19  1  0
 19 20  1  0
 20 21  1  0
 22 23  2  0
 22 24  1  0
 25 26  1  6
 25 27  1  0
 25 30  1  0
 27 28  1  0
 28 29  1  0
 30 31  2  0
M  END
