
     RDKit          3D

 31 32  0  0  0  0  0  0  0  0999 V2000
   -6.0710   -3.4600   -1.4360 C   0  0  0  0  0  0  0  0  0  0  0  0
   -4.9340   -2.9570   -0.9370 C   0  0  0  0  0  0  0  0  0  0  0  0
   -4.3340   -4.0050    0.0070 C   0  0  0  0  0  0  0  0  0  0  0  0
   -4.5860   -1.5470   -0.8280 C   0  0  0  0  0  0  0  0  0  0  0  0
   -5.6250   -0.6850   -1.0420 O   0  0  0  0  0  0  0  0  0  0  0  0
   -6.9950   -0.7810   -0.9040 C   0  0  0  0  0  0  0  0  0  0  0  0
   -3.3840   -1.1360   -0.5410 C   0  0  0  0  0  0  0  0  0  0  0  0
   -2.2940   -2.0470   -0.3490 N   0  0  0  0  0  0  0  0  0  0  0  0
   -0.8970   -1.8140   -0.1730 C   0  0  0  0  0  0  0  0  0  0  0  0
   -0.1940   -2.8300    0.1200 O   0  0  0  0  0  0  0  0  0  0  0  0
   -0.2040   -0.5230   -0.2770 C   0  0  2  0  0  0  0  0  0  0  0  0
    1.1940   -0.5190   -0.1930 N   0  0  0  0  0  0  0  0  0  0  0  0
    1.6440    0.9190   -0.2740 C   0  0  0  0  0  0  0  0  0  0  0  0
    3.0800    0.8780    0.1470 C   0  0  0  0  0  0  0  0  0  0  0  0
    3.9310    0.0980   -0.7980 C   0  0  0  0  0  0  0  0  0  0  0  0
    5.5530   -0.1160    0.2760 P   0  0  0  0  0  0  0  0  0  0  0  0
    6.6140    1.0880   -0.0700 O   0  0  0  0  0  0  0  0  0  0  0  0
    6.5770    2.1670    0.8390 C   0  0  0  0  0  0  0  0  0  0  0  0
    7.4710    3.2840    0.4070 C   0  0  0  0  0  0  0  0  0  0  0  0
    5.6670   -1.6690    0.6330 O   0  0  0  0  0  0  0  0  0  0  0  0
    6.7940   -2.3950    0.6610 C   0  0  0  0  0  0  0  0  0  0  0  0
    6.5890   -3.4250   -0.5120 C   0  0  0  0  0  0  0  0  0  0  0  0
   -0.8580    0.4360    0.6760 C   0  0  0  0  0  0  0  0  0  0  0  0
   -0.3100    0.8010    1.7140 O   0  0  0  0  0  0  0  0  0  0  0  0
   -2.1760    0.9720    0.4120 N   0  0  0  0  0  0  0  0  0  0  0  0
   -2.5070    2.3250    0.7670 C   0  0  0  0  0  0  0  0  0  0  0  0
   -3.7980    2.5350   -0.0340 C   0  0  0  0  0  0  0  0  0  0  0  0
   -4.3360    3.7340   -0.1280 C   0  0  0  0  0  0  0  0  0  0  0  0
   -4.1170    5.0230    0.3170 C   0  0  0  0  0  0  0  0  0  0  0  0
   -4.1640    1.2240   -0.5270 C   0  0  0  0  0  0  0  0  0  0  0  0
   -3.3030    0.3220   -0.2360 C   0  0  0  0  0  0  0  0  0  0  0  0
  1  2  2  0
  2  3  1  0
  2  4  1  0
  4  5  1  0
  4  7  2  3
  5  6  1  0
  7  8  1  0
  7 31  1  0
  8  9  1  0
  9 10  2  0
  9 11  1  0
 11 12  1  1
 11 23  1  0
 12 13  1  0
 13 14  1  0
 14 15  1  0
 15 16  1  0
 16 17  1  0
 16 20  1  0
 17 18  1  0
 18 19  1  0
 20 21  1  0
 21 22  1  0
 23 24  2  0
 23 25  1  0
 25 26  1  0
 25 31  1  0
 26 27  1  0
 27 28  2  3
 27 30  1  0
 28 29  1  0
 30 31  2  0
M  END
