
     RDKit          3D

 42 43  0  0  0  0  0  0  0  0999 V2000
   -3.6490    5.2870   -1.1440 C   0  0  0  0  0  0  0  0  0  0  0  0
   -3.6050    4.3750   -0.0400 O   0  0  0  0  0  0  0  0  0  0  0  0
   -2.3970    3.9330    0.4190 C   0  0  0  0  0  0  0  0  0  0  0  0
   -1.3710    4.3350   -0.1370 O   0  0  0  0  0  0  0  0  0  0  0  0
   -2.3270    3.0010    1.5470 C   0  0  1  0  0  0  0  0  0  0  0  0
   -3.3380    1.9160    1.5970 C   0  0  0  0  0  0  0  0  0  0  0  0
   -3.9730    1.4940    0.3120 C   0  0  2  0  0  0  0  0  0  0  0  0
   -5.1540    2.2940    0.2160 O   0  0  0  0  0  0  0  0  0  0  0  0
   -4.3810    0.0640    0.3380 C   0  0  0  0  0  0  0  0  0  0  0  0
   -3.7420   -0.8790   -0.6040 C   0  0  1  0  0  0  0  0  0  0  0  0
   -4.6760   -2.0780   -0.6910 C   0  0  0  0  0  0  0  0  0  0  0  0
   -5.6880   -2.1880    0.0370 O   0  0  0  0  0  0  0  0  0  0  0  0
   -4.3120   -3.0440   -1.6500 O   0  0  0  0  0  0  0  0  0  0  0  0
   -5.1580   -4.1690   -1.7600 C   0  0  0  0  0  0  0  0  0  0  0  0
   -3.6070   -0.4580   -2.0210 C   0  0  1  0  0  0  0  0  0  0  0  0
   -4.9000   -0.2250   -2.5030 O   0  0  0  0  0  0  0  0  0  0  0  0
   -2.7250    0.5230   -2.3280 O   0  0  0  0  0  0  0  0  0  0  0  0
   -2.4600   -1.4970   -0.0180 C   0  0  1  0  0  0  0  0  0  0  0  0
   -2.8930   -2.5830    0.9490 C   0  0  0  0  0  0  0  0  0  0  0  0
   -1.6660   -3.1900    1.5250 C   0  0  0  0  0  0  0  0  0  0  0  0
   -1.1440   -4.3820    0.9390 N   0  0  0  0  0  0  0  0  0  0  0  0
   -1.0390   -2.7280    2.5040 O   0  0  0  0  0  0  0  0  0  0  0  0
   -1.7330   -2.0300   -0.9770 O   0  0  0  0  0  0  0  0  0  0  0  0
   -0.4980   -1.6860   -1.3000 C   0  0  0  0  0  0  0  0  0  0  0  0
    0.3450   -0.8740   -0.3640 C   0  0  0  0  0  0  0  0  0  0  0  0
    0.6420    0.4530   -0.7770 N   0  0  2  0  0  0  0  0  0  0  0  0
    2.0270    0.7230   -1.0910 C   0  0  0  0  0  0  0  0  0  0  0  0
    2.9720    0.9620    0.0000 C   0  0  1  0  0  0  0  0  0  0  0  0
    3.3310   -0.3070    0.7410 C   0  0  0  0  0  0  0  0  0  0  0  0
    4.6310    0.1450    1.4080 C   0  0  0  0  0  0  0  0  0  0  0  0
    5.1890    1.0170    0.3080 C   0  0  1  0  0  0  0  0  0  0  0  0
    6.3380    0.3270   -0.3810 C   0  0  0  0  0  0  0  0  0  0  0  0
    6.2840    0.0430   -1.6180 O   0  0  0  0  0  0  0  0  0  0  0  0
    7.5130   -0.0280    0.3150 N   0  0  0  0  0  0  0  0  0  0  0  0
    8.5870   -0.6900   -0.3990 C   0  0  0  0  0  0  0  0  0  0  0  0
    9.7230   -0.9620    0.5490 C   0  0  0  0  0  0  0  0  0  0  0  0
    9.2570   -1.7740    1.5660 O   0  0  0  0  0  0  0  0  0  0  0  0
    4.2200    1.2280   -0.6370 O   0  0  0  0  0  0  0  0  0  0  0  0
   -0.0290    1.5490   -0.1680 C   0  0  0  0  0  0  0  0  0  0  0  0
   -0.1890    1.6050    1.2680 C   0  0  0  0  0  0  0  0  0  0  0  0
    0.3670    0.7760    2.0860 O   0  0  0  0  0  0  0  0  0  0  0  0
   -0.9810    2.5900    1.9030 N   0  0  0  0  0  0  0  0  0  0  0  0
  1  2  1  0
  2  3  1  0
  3  4  2  0
  5  3  1  6
  5  6  1  0
  5 42  1  0
  6  7  1  0
  7  8  1  1
  7  9  1  0
  9 10  1  0
 10 11  1  6
 10 15  1  0
 10 18  1  0
 11 12  2  0
 11 13  1  0
 13 14  1  0
 15 16  1  1
 15 17  1  0
 18 19  1  1
 18 23  1  0
 19 20  1  0
 20 21  1  0
 20 22  2  0
 23 24  1  0
 24 25  1  0
 25 26  1  0
 26 27  1  1
 26 39  1  0
 28 27  1  6
 28 29  1  0
 28 38  1  0
 29 30  1  0
 30 31  1  0
 31 32  1  6
 31 38  1  0
 32 33  2  0
 32 34  1  0
 34 35  1  0
 35 36  1  0
 36 37  1  0
 39 40  1  0
 40 41  2  0
 40 42  1  0
M  CHG  1  26   1
M  END
