
     RDKit          3D

 43 46  0  0  0  0  0  0  0  0999 V2000
   -6.2170    4.0620   -0.3630 C   0  0  0  0  0  0  0  0  0  0  0  0
   -5.2560    3.1060   -0.3120 C   0  0  0  0  0  0  0  0  0  0  0  0
   -4.8170    2.7300    1.0450 C   0  0  0  0  0  0  0  0  0  0  0  0
   -4.7870    2.5710   -1.5360 C   0  0  0  0  0  0  0  0  0  0  0  0
   -3.8830    1.6660   -1.8480 C   0  0  0  0  0  0  0  0  0  0  0  0
   -3.6380    1.3300   -3.3190 C   0  0  0  0  0  0  0  0  0  0  0  0
   -2.7040    0.3890   -3.3720 O   0  0  0  0  0  0  0  0  0  0  0  0
   -2.0990    0.1530   -2.1750 C   0  0  2  0  0  0  0  0  0  0  0  0
   -1.8100   -1.2710   -1.9140 C   0  0  0  0  0  0  0  0  0  0  0  0
   -1.1000   -1.6430   -0.7300 N   0  0  0  0  0  0  0  0  0  0  0  0
   -1.7330   -2.0400    0.4870 C   0  0  0  0  0  0  0  0  0  0  0  0
   -2.0460   -3.5080    0.4940 C   0  0  0  0  0  0  0  0  0  0  0  0
   -1.6970   -4.3090   -0.5750 C   0  0  0  0  0  0  0  0  0  0  0  0
   -1.9980   -5.6460   -0.5090 C   0  0  0  0  0  0  0  0  0  0  0  0
   -2.6370   -6.2220    0.5880 C   0  0  0  0  0  0  0  0  0  0  0  0
   -2.9620   -5.3760    1.6260 C   0  0  0  0  0  0  0  0  0  0  0  0
   -2.6780   -4.0170    1.6040 C   0  0  0  0  0  0  0  0  0  0  0  0
   -3.0600   -3.1300    2.7550 C   0  0  0  0  0  0  0  0  0  0  0  0
   -3.6770   -3.9480    3.7030 O   0  0  0  0  0  0  0  0  0  0  0  0
    0.3280   -1.6990   -0.7890 C   0  0  0  0  0  0  0  0  0  0  0  0
    0.9510   -1.9660    0.2620 O   0  0  0  0  0  0  0  0  0  0  0  0
    1.0260   -1.4610   -2.0310 C   0  0  0  0  0  0  0  0  0  0  0  0
    2.5140   -1.5750   -2.0080 C   0  0  2  0  0  0  0  0  0  0  0  0
    3.0660   -2.8970   -1.5940 C   0  0  0  0  0  0  0  0  0  0  0  0
    4.3880   -2.4680   -0.9420 C   0  0  0  0  0  0  0  0  0  0  0  0
    4.5460   -1.0990   -1.2590 O   0  0  0  0  0  0  0  0  0  0  0  0
    3.2250   -0.6500   -1.0610 C   0  0  1  0  0  0  0  0  0  0  0  0
    3.0110    0.7580   -1.4910 C   0  0  0  0  0  0  0  0  0  0  0  0
    3.8040    1.7360   -0.8150 N   0  0  0  0  0  0  0  0  0  0  0  0
    3.7300    1.9280    0.5970 C   0  0  0  0  0  0  0  0  0  0  0  0
    2.9360    1.1940    1.2430 O   0  0  0  0  0  0  0  0  0  0  0  0
    4.5630    2.9500    1.2270 C   0  0  2  0  0  0  0  0  0  0  0  0
    5.3050    3.6530    0.2730 O   0  0  0  0  0  0  0  0  0  0  0  0
    5.4220    2.4850    2.3310 C   0  0  0  0  0  0  0  0  0  0  0  0
    6.3140    3.3750    2.8860 C   0  0  0  0  0  0  0  0  0  0  0  0
    7.1540    3.0190    3.9260 C   0  0  0  0  0  0  0  0  0  0  0  0
    7.0980    1.7700    4.4080 N   0  0  0  0  0  0  0  0  0  0  0  0
    6.2400    0.8960    3.8810 C   0  0  0  0  0  0  0  0  0  0  0  0
    5.3690    1.2140    2.8250 C   0  0  0  0  0  0  0  0  0  0  0  0
   -2.9610    0.7980   -1.1070 C   0  0  1  0  0  0  0  0  0  0  0  0
   -2.0930    1.4850   -0.1600 N   0  0  0  0  0  0  0  0  0  0  0  0
   -1.6990    2.7910   -0.5920 C   0  0  0  0  0  0  0  0  0  0  0  0
   -0.7990    3.3990    0.4810 C   0  0  0  0  0  0  0  0  0  0  0  0
  1  2  2  0
  2  3  1  0
  2  4  1  0
  4  5  2  3
  5  6  1  0
  5 40  1  0
  6  7  1  0
  7  8  1  0
  8  9  1  1
  8 40  1  0
  9 10  1  0
 10 11  1  0
 10 20  1  0
 11 12  1  0
 12 13  2  0
 12 17  1  0
 13 14  1  0
 14 15  2  0
 15 16  1  0
 16 17  2  0
 17 18  1  0
 18 19  1  0
 20 21  2  0
 20 22  1  0
 23 22  1  1
 23 24  1  0
 23 27  1  0
 24 25  1  0
 25 26  1  0
 26 27  1  0
 27 28  1  6
 28 29  1  0
 29 30  1  0
 30 31  2  0
 30 32  1  0
 32 33  1  6
 32 34  1  0
 34 35  2  0
 34 39  1  0
 35 36  1  0
 36 37  2  0
 37 38  1  0
 38 39  2  0
 40 41  1  1
 41 42  1  0
 42 43  1  0
M  CHG  1  41   1
M  END
