
     RDKit          3D

 43 44  0  0  0  0  0  0  0  0999 V2000
   -6.0960   -4.2110    1.1630 C   0  0  0  0  0  0  0  0  0  0  0  0
   -5.3740   -2.9300    0.9500 N   0  0  0  0  0  0  0  0  0  0  0  0
   -4.3280   -2.5460    1.7790 C   0  0  0  0  0  0  0  0  0  0  0  0
   -4.0480   -3.3810    2.7300 O   0  0  0  0  0  0  0  0  0  0  0  0
   -3.5590   -1.3150    1.6540 C   0  0  2  0  0  0  0  0  0  0  0  0
   -3.8820   -0.4980    2.9810 C   0  0  0  0  0  0  0  0  0  0  0  0
   -3.7920   -0.4510    0.6660 O   0  0  0  0  0  0  0  0  0  0  0  0
   -3.9570   -0.6950   -0.6280 C   0  0  0  0  0  0  0  0  0  0  0  0
   -3.3390    0.3480   -1.5930 C   0  0  1  0  0  0  0  0  0  0  0  0
   -4.3060    0.5470   -2.7520 C   0  0  0  0  0  0  0  0  0  0  0  0
   -3.3230    1.6000   -0.9430 O   0  0  0  0  0  0  0  0  0  0  0  0
   -1.9440   -0.0340   -2.0420 C   0  0  1  0  0  0  0  0  0  0  0  0
   -2.0100   -0.0950   -3.5470 C   0  0  0  0  0  0  0  0  0  0  0  0
   -2.8770   -0.9330   -4.2720 N   0  0  0  0  0  0  0  0  0  0  0  0
   -1.2290    0.6590   -4.1700 O   0  0  0  0  0  0  0  0  0  0  0  0
   -0.9640    0.7830   -1.5460 O   0  0  0  0  0  0  0  0  0  0  0  0
    0.3230    0.9490   -1.3210 C   0  0  0  0  0  0  0  0  0  0  0  0
    1.2470    0.9710   -2.2770 O   0  0  0  0  0  0  0  0  0  0  0  0
    1.1250    1.1530   -0.0800 C   0  0  2  0  0  0  0  0  0  0  0  0
    1.9200    2.4390   -0.1770 C   0  0  0  0  0  0  0  0  0  0  0  0
    1.2290    3.6970   -0.3960 C   0  0  2  0  0  0  0  0  0  0  0  0
    0.2050    4.1590    0.5920 C   0  0  0  0  0  0  0  0  0  0  0  0
   -0.3480    5.3980    0.1520 O   0  0  0  0  0  0  0  0  0  0  0  0
    0.5110    6.0890   -0.6520 C   0  0  0  0  0  0  0  0  0  0  0  0
    0.6580    5.3900   -1.9590 C   0  0  0  0  0  0  0  0  0  0  0  0
    0.8210    3.9710   -1.7680 N   0  0  0  0  0  0  0  0  0  0  0  0
    2.1200    0.0290   -0.1310 N   0  0  0  0  0  0  0  0  0  0  0  0
    3.0960   -0.1950    0.8170 C   0  0  0  0  0  0  0  0  0  0  0  0
    3.2050    0.5400    1.7890 O   0  0  0  0  0  0  0  0  0  0  0  0
    4.0530   -1.3500    0.6810 C   0  0  1  0  0  0  0  0  0  0  0  0
    3.8850   -2.2870    1.8840 C   0  0  0  0  0  0  0  0  0  0  0  0
    4.1060   -1.6090    3.0730 O   0  0  0  0  0  0  0  0  0  0  0  0
    3.8220   -2.0850   -0.4330 O   0  0  0  0  0  0  0  0  0  0  0  0
    4.8770   -2.1910   -1.2930 C   0  0  0  0  0  0  0  0  0  0  0  0
    6.0950   -2.8930   -0.8120 C   0  0  0  0  0  0  0  0  0  0  0  0
    6.6860   -2.3230    0.2930 O   0  0  0  0  0  0  0  0  0  0  0  0
    7.8110   -2.9940    0.7120 C   0  0  0  0  0  0  0  0  0  0  0  0
    0.6060    0.9460    1.2430 C   0  0  0  0  0  0  0  0  0  0  0  0
    0.9750    1.8340    2.0920 O   0  0  0  0  0  0  0  0  0  0  0  0
   -0.1990   -0.0030    1.8030 O   0  0  0  0  0  0  0  0  0  0  0  0
   -1.2970   -0.6160    1.1850 C   0  0  0  0  0  0  0  0  0  0  0  0
   -2.0540   -1.6340    1.9090 C   0  0  1  0  0  0  0  0  0  0  0  0
   -1.7510   -1.6320    3.2490 O   0  0  0  0  0  0  0  0  0  0  0  0
  1  2  1  0
  2  3  1  0
  3  4  2  0
  3  5  1  0
  5  6  1  1
  5  7  1  0
  5 42  1  0
  7  8  1  0
  8  9  1  0
  9 10  1  6
  9 11  1  0
  9 12  1  0
 12 13  1  6
 12 16  1  0
 13 14  1  0
 13 15  2  0
 16 17  1  0
 17 18  2  0
 17 19  1  0
 19 20  1  1
 19 27  1  0
 19 38  1  0
 21 20  1  6
 21 22  1  0
 21 26  1  0
 22 23  1  0
 23 24  1  0
 24 25  1  0
 25 26  1  0
 27 28  1  0
 28 29  2  0
 28 30  1  0
 30 31  1  1
 30 33  1  0
 31 32  1  0
 33 34  1  0
 34 35  1  0
 35 36  1  0
 36 37  1  0
 38 39  2  0
 38 40  1  0
 40 41  1  0
 41 42  1  0
 42 43  1  1
M  CHG  1  26   1
M  END
