
     RDKit          3D

 43 46  0  0  0  0  0  0  0  0999 V2000
    8.6910   -0.3250    2.6990 C   0  0  0  0  0  0  0  0  0  0  0  0
    9.2570   -0.2830    1.5250 C   0  0  0  0  0  0  0  0  0  0  0  0
    8.4620   -0.5020    0.3240 C   0  0  0  0  0  0  0  0  0  0  0  0
    7.1050   -0.2500    0.2810 C   0  0  0  0  0  0  0  0  0  0  0  0
    6.3550   -0.4610   -0.8590 C   0  0  0  0  0  0  0  0  0  0  0  0
    4.9960   -0.2080   -0.9020 O   0  0  0  0  0  0  0  0  0  0  0  0
    4.2500    0.2780    0.1720 C   0  0  0  0  0  0  0  0  0  0  0  0
    2.8140    0.4240   -0.2630 C   0  0  0  0  0  0  0  0  0  0  0  0
    2.2440   -0.8020   -0.6780 O   0  0  0  0  0  0  0  0  0  0  0  0
    0.9130   -0.7620   -1.1050 C   0  0  0  0  0  0  0  0  0  0  0  0
    0.2970   -1.9400   -1.5230 C   0  0  0  0  0  0  0  0  0  0  0  0
   -1.0150   -1.8980   -1.9440 C   0  0  0  0  0  0  0  0  0  0  0  0
   -1.7210   -0.6880   -1.9520 C   0  0  0  0  0  0  0  0  0  0  0  0
   -3.0290   -0.7450   -2.3910 O   0  0  0  0  0  0  0  0  0  0  0  0
   -1.1420    0.4870   -1.5450 C   0  0  0  0  0  0  0  0  0  0  0  0
   -1.8300    1.7950   -1.5280 C   0  0  2  0  0  0  0  0  0  0  0  0
   -0.9420    2.7260   -0.8130 N   0  0  0  0  0  0  0  0  0  0  0  0
   -0.3440    3.8120   -1.5040 C   0  0  0  0  0  0  0  0  0  0  0  0
    0.5620    4.7810   -0.8180 C   0  0  0  0  0  0  0  0  0  0  0  0
   -0.5920    3.9510   -2.7330 O   0  0  0  0  0  0  0  0  0  0  0  0
   -3.1730    1.8220   -0.9600 C   0  0  0  0  0  0  0  0  0  0  0  0
   -3.3960    1.9280    0.2960 O   0  0  0  0  0  0  0  0  0  0  0  0
   -4.3190    1.7390   -1.7950 N   0  0  0  0  0  0  0  0  0  0  0  0
   -5.6620    1.7800   -1.3060 C   0  0  0  0  0  0  0  0  0  0  0  0
   -6.0670    0.7110   -0.3570 C   0  0  2  0  0  0  0  0  0  0  0  0
   -5.9410   -0.6330   -1.0360 C   0  0  0  0  0  0  0  0  0  0  0  0
   -7.4470    0.9310    0.1600 C   0  0  0  0  0  0  0  0  0  0  0  0
   -8.0980    1.9000   -0.3690 O   0  0  0  0  0  0  0  0  0  0  0  0
   -8.0290    0.1370    1.1700 N   0  0  0  0  0  0  0  0  0  0  0  0
   -9.3660    0.3070    1.6940 C   0  0  0  0  0  0  0  0  0  0  0  0
   -9.8100   -1.1300    1.8660 C   0  0  1  0  0  0  0  0  0  0  0  0
  -10.1100   -1.6820    0.4930 C   0  0  0  0  0  0  0  0  0  0  0  0
   -8.5760   -1.7780    2.4420 C   0  0  1  0  0  0  0  0  0  0  0  0
   -8.4850   -3.2420    2.0880 C   0  0  0  0  0  0  0  0  0  0  0  0
   -7.4350   -0.9610    1.8690 C   0  0  0  0  0  0  0  0  0  0  0  0
    0.1810    0.3940   -1.1300 C   0  0  0  0  0  0  0  0  0  0  0  0
    7.0040   -0.9390   -1.9750 C   0  0  0  0  0  0  0  0  0  0  0  0
    8.3770   -1.1930   -1.9270 C   0  0  0  0  0  0  0  0  0  0  0  0
    9.1090   -0.9790   -0.7920 C   0  0  0  0  0  0  0  0  0  0  0  0
   10.5600   -1.2710   -0.8240 C   0  0  0  0  0  0  0  0  0  0  0  0
   11.2490   -1.1430    0.4890 C   0  0  0  0  0  0  0  0  0  0  0  0
   10.7060   -0.0220    1.3130 C   0  0  2  0  0  0  0  0  0  0  0  0
   11.4140    0.1350    2.5570 N   0  0  0  0  0  0  0  0  0  0  0  0
  1  2  2  0
  2  3  1  0
  2 42  1  0
  3  4  2  0
  3 39  1  0
  4  5  1  0
  5  6  1  0
  5 37  2  0
  6  7  1  0
  7  8  1  0
  8  9  1  0
  9 10  1  0
 10 11  2  0
 10 36  1  0
 11 12  1  0
 12 13  2  0
 13 14  1  0
 13 15  1  0
 15 16  1  0
 15 36  2  0
 16 17  1  1
 16 21  1  0
 17 18  1  0
 18 19  1  0
 18 20  2  0
 21 22  2  0
 21 23  1  0
 23 24  1  0
 24 25  1  0
 25 26  1  6
 25 27  1  0
 27 28  2  0
 27 29  1  0
 29 30  1  0
 29 35  1  0
 30 31  1  0
 31 32  1  6
 31 33  1  0
 33 34  1  6
 33 35  1  0
 37 38  1  0
 38 39  2  0
 39 40  1  0
 40 41  1  0
 41 42  1  0
 42 43  1  1
M  CHG  1  43   1
M  END
