
     RDKit          3D

 43 47  0  0  0  0  0  0  0  0999 V2000
   -6.6420    1.0500   -2.6710 C   0  0  0  0  0  0  0  0  0  0  0  0
   -6.0590    0.6030   -1.5570 C   0  0  0  0  0  0  0  0  0  0  0  0
   -5.5740    1.4750   -0.6910 O   0  0  0  0  0  0  0  0  0  0  0  0
   -4.9860    1.1320    0.4340 C   0  0  0  0  0  0  0  0  0  0  0  0
   -4.5310    1.9970    1.2460 O   0  0  0  0  0  0  0  0  0  0  0  0
   -4.8750   -0.2050    0.7110 C   0  0  0  0  0  0  0  0  0  0  0  0
   -4.2480   -0.7630    1.9040 C   0  0  0  0  0  0  0  0  0  0  0  0
   -5.0390   -1.0830    2.9870 C   0  0  0  0  0  0  0  0  0  0  0  0
   -4.4640   -1.6880    4.0770 C   0  0  0  0  0  0  0  0  0  0  0  0
   -5.1550   -2.0530    5.2040 O   0  0  0  0  0  0  0  0  0  0  0  0
   -6.5390   -1.8160    5.3000 C   0  0  0  0  0  0  0  0  0  0  0  0
   -3.1140   -1.9550    4.0580 C   0  0  0  0  0  0  0  0  0  0  0  0
   -2.3490   -1.6190    2.9570 C   0  0  0  0  0  0  0  0  0  0  0  0
   -2.8860   -1.0140    1.8500 C   0  0  0  0  0  0  0  0  0  0  0  0
   -2.1620   -0.5880    0.7360 N   0  0  0  0  0  0  0  0  0  0  0  0
   -0.8220   -0.8860    0.3910 C   0  0  0  0  0  0  0  0  0  0  0  0
   -0.1740   -1.6500    1.1500 O   0  0  0  0  0  0  0  0  0  0  0  0
   -0.1770   -0.3160   -0.8320 C   0  0  0  0  0  0  0  0  0  0  0  0
    1.1420   -0.7490   -1.0530 N   0  0  0  0  0  0  0  0  0  0  0  0
    1.2870   -1.8790   -2.0140 C   0  0  0  0  0  0  0  0  0  0  0  0
    1.5650   -1.3820   -3.3880 C   0  0  1  0  0  0  0  0  0  0  0  0
    1.6680   -2.4420   -4.3000 O   0  0  0  0  0  0  0  0  0  0  0  0
    0.5760   -0.3910   -3.9320 C   0  0  0  0  0  0  0  0  0  0  0  0
    0.9530    0.0510   -5.3380 C   0  0  0  0  0  0  0  0  0  0  0  0
   -0.1020    1.0290   -5.7980 C   0  0  0  0  0  0  0  0  0  0  0  0
    2.3170   -0.2540   -0.5100 C   0  0  0  0  0  0  0  0  0  0  0  0
    3.3760   -0.8810   -0.9500 O   0  0  0  0  0  0  0  0  0  0  0  0
    2.5030    0.8190    0.4360 C   0  0  0  0  0  0  0  0  0  0  0  0
    1.5280    1.5170    0.9940 C   0  0  0  0  0  0  0  0  0  0  0  0
    2.0740    2.5590    1.9360 C   0  0  0  0  0  0  0  0  0  0  0  0
    3.3980    2.8140    1.2820 C   0  0  0  0  0  0  0  0  0  0  0  0
    3.8040    1.3520    0.9740 C   0  0  2  0  0  0  0  0  0  0  0  0
    4.8650    1.3250    0.0540 N   0  0  0  0  0  0  0  0  0  0  0  0
    6.1730    1.1220    0.6410 C   0  0  2  0  0  0  0  0  0  0  0  0
    6.4710    1.4930    2.0350 C   0  0  1  0  0  0  0  0  0  0  0  0
    7.7510    0.9720    2.6520 C   0  0  0  0  0  0  0  0  0  0  0  0
    8.7150    1.0670    1.4880 C   0  0  0  0  0  0  0  0  0  0  0  0
    8.3860    2.3280    0.8750 N   0  0  0  0  0  0  0  0  0  0  0  0
    6.9350    2.3590    0.9570 C   0  0  1  0  0  0  0  0  0  0  0  0
   -5.3710   -1.1830   -0.1700 C   0  0  0  0  0  0  0  0  0  0  0  0
   -5.2260   -2.6400    0.1660 C   0  0  0  0  0  0  0  0  0  0  0  0
   -5.9750   -0.7460   -1.3280 C   0  0  0  0  0  0  0  0  0  0  0  0
   -6.4550   -1.6590   -2.1480 C   0  0  0  0  0  0  0  0  0  0  0  0
  1  2  2  0
  2  3  1  0
  2 42  1  0
  3  4  1  0
  4  5  2  0
  4  6  1  0
  6  7  1  0
  6 40  2  0
  7  8  2  0
  7 14  1  0
  8  9  1  0
  9 10  1  0
  9 12  2  0
 10 11  1  0
 12 13  1  0
 13 14  2  0
 14 15  1  0
 15 16  1  0
 16 17  2  0
 16 18  1  0
 18 19  1  0
 19 20  1  0
 19 26  1  0
 20 21  1  0
 21 22  1  6
 21 23  1  0
 23 24  1  0
 24 25  1  0
 26 27  2  0
 26 28  1  0
 28 29  2  0
 28 32  1  0
 29 30  1  0
 30 31  1  0
 31 32  1  0
 32 33  1  6
 34 33  1  1
 34 35  1  0
 34 39  1  0
 35 36  1  6
 35 39  1  0
 36 37  1  0
 37 38  1  0
 39 38  1  6
 40 41  1  0
 40 42  1  0
 42 43  2  0
M  CHG  1  33   1
M  END
