
     RDKit          3D

 42 43  0  0  0  0  0  0  0  0999 V2000
    4.8080   -3.7580   -2.6020 C   0  0  0  0  0  0  0  0  0  0  0  0
    4.8900   -2.4560   -2.0430 O   0  0  0  0  0  0  0  0  0  0  0  0
    5.7340   -2.1930   -0.9700 C   0  0  0  0  0  0  0  0  0  0  0  0
    6.4470   -3.0760   -0.4560 O   0  0  0  0  0  0  0  0  0  0  0  0
    5.7670   -0.7900   -0.4310 C   0  0  1  0  0  0  0  0  0  0  0  0
    6.7240   -0.7070    0.7070 C   0  0  0  0  0  0  0  0  0  0  0  0
    6.1900    0.0810   -1.5820 C   0  0  0  0  0  0  0  0  0  0  0  0
    6.2890    1.5340   -1.2920 C   0  0  0  0  0  0  0  0  0  0  0  0
    7.2230    1.8770   -0.3290 O   0  0  0  0  0  0  0  0  0  0  0  0
    8.5830    1.6510   -0.4430 C   0  0  0  0  0  0  0  0  0  0  0  0
    9.5140    2.0260    0.5900 N   0  0  0  0  0  0  0  0  0  0  0  0
    9.0470    1.1060   -1.4620 O   0  0  0  0  0  0  0  0  0  0  0  0
    4.3890   -0.3830    0.0560 C   0  0  0  0  0  0  0  0  0  0  0  0
    3.8760   -1.2220    1.1010 N   0  0  2  0  0  0  0  0  0  0  0  0
    2.5980   -1.7380    0.6510 C   0  0  0  0  0  0  0  0  0  0  0  0
    1.4300   -0.9010    1.0410 C   0  0  2  0  0  0  0  0  0  0  0  0
    0.4490   -0.8880   -0.1200 C   0  0  0  0  0  0  0  0  0  0  0  0
   -0.7260   -0.0650    0.2330 C   0  0  0  0  0  0  0  0  0  0  0  0
   -1.6230   -0.5680    0.9320 O   0  0  0  0  0  0  0  0  0  0  0  0
   -0.8140    1.2280   -0.2090 O   0  0  0  0  0  0  0  0  0  0  0  0
   -1.8960    2.0770    0.0760 C   0  0  0  0  0  0  0  0  0  0  0  0
   -3.1400    1.4960   -0.4960 C   0  0  2  0  0  0  0  0  0  0  0  0
   -2.9580    1.3750   -1.8940 O   0  0  0  0  0  0  0  0  0  0  0  0
   -4.3470    2.3950   -0.3190 C   0  0  2  0  0  0  0  0  0  0  0  0
   -4.6360    2.5910    1.0280 O   0  0  0  0  0  0  0  0  0  0  0  0
   -5.4760    1.7520   -1.0410 C   0  0  0  0  0  0  0  0  0  0  0  0
   -5.3020    1.5290   -2.2700 O   0  0  0  0  0  0  0  0  0  0  0  0
   -6.6990    1.3820   -0.4580 N   0  0  0  0  0  0  0  0  0  0  0  0
   -7.7850    0.7520   -1.2010 C   0  0  2  0  0  0  0  0  0  0  0  0
   -9.0220    1.5600   -1.1060 C   0  0  0  0  0  0  0  0  0  0  0  0
   -9.4370    2.2550   -2.0650 O   0  0  0  0  0  0  0  0  0  0  0  0
   -9.7100    1.5180    0.0960 O   0  0  0  0  0  0  0  0  0  0  0  0
   -9.6590    0.4260    0.9800 C   0  0  0  0  0  0  0  0  0  0  0  0
   -8.4810   -0.4640    0.7980 C   0  0  1  0  0  0  0  0  0  0  0  0
   -8.8140   -1.7110    1.3600 O   0  0  0  0  0  0  0  0  0  0  0  0
   -7.9970   -0.6200   -0.6030 C   0  0  2  0  0  0  0  0  0  0  0  0
   -6.7220   -1.2230   -0.5470 O   0  0  0  0  0  0  0  0  0  0  0  0
   -6.6790   -2.3640   -1.3390 C   0  0  0  0  0  0  0  0  0  0  0  0
    1.7980    0.5430    1.3010 C   0  0  0  0  0  0  0  0  0  0  0  0
    2.9220    0.7270    2.2630 C   0  0  1  0  0  0  0  0  0  0  0  0
    2.3700    0.9600    3.5240 O   0  0  0  0  0  0  0  0  0  0  0  0
    3.7660   -0.5000    2.3460 C   0  0  0  0  0  0  0  0  0  0  0  0
  1  2  1  0
  2  3  1  0
  3  4  2  0
  3  5  1  0
  5  6  1  1
  5  7  1  0
  5 13  1  0
  7  8  1  0
  8  9  1  0
  9 10  1  0
 10 11  1  0
 10 12  2  0
 14 13  1  6
 14 15  1  0
 14 42  1  0
 15 16  1  0
 16 17  1  6
 16 39  1  0
 17 18  1  0
 18 19  2  0
 18 20  1  0
 20 21  1  0
 21 22  1  0
 22 23  1  6
 22 24  1  0
 24 25  1  1
 24 26  1  0
 26 27  2  0
 26 28  1  0
 29 28  1  1
 29 30  1  0
 29 36  1  0
 30 31  2  0
 30 32  1  0
 32 33  1  0
 33 34  1  0
 34 35  1  6
 34 36  1  0
 36 37  1  1
 37 38  1  0
 39 40  1  0
 40 41  1  1
 40 42  1  0
M  CHG  1  14   1
M  END
