
     RDKit          3D

 40 44  0  0  0  0  0  0  0  0999 V2000
   -4.4880   -6.0620    1.4880 C   0  0  0  0  0  0  0  0  0  0  0  0
   -3.3020   -5.8600    0.5330 C   0  0  0  0  0  0  0  0  0  0  0  0
   -2.9800   -6.7760   -0.3900 C   0  0  0  0  0  0  0  0  0  0  0  0
   -1.8650   -6.4620   -1.2070 C   0  0  0  0  0  0  0  0  0  0  0  0
   -1.1910   -7.4580   -2.5110 Cl  0  0  0  0  0  0  0  0  0  0  0  0
   -1.3150   -4.8860   -0.6410 S   0  0  0  0  0  0  0  0  0  0  0  0
   -2.5810   -4.7240    0.6410 C   0  0  0  0  0  0  0  0  0  0  0  0
   -2.7000   -3.5650    1.5440 C   0  0  0  0  0  0  0  0  0  0  0  0
   -1.6750   -2.6120    1.2370 N   0  0  0  0  0  0  0  0  0  0  0  0
   -2.3130   -1.3480    0.8740 C   0  0  0  0  0  0  0  0  0  0  0  0
   -1.4340   -0.6440   -0.1200 C   0  0  2  0  0  0  0  0  0  0  0  0
   -0.1590   -0.3680    0.3650 O   0  0  0  0  0  0  0  0  0  0  0  0
    1.0560   -0.6130   -0.2260 C   0  0  0  0  0  0  0  0  0  0  0  0
    1.1630   -1.2500   -1.4330 C   0  0  0  0  0  0  0  0  0  0  0  0
    2.4070   -1.4940   -2.0400 C   0  0  0  0  0  0  0  0  0  0  0  0
    3.5320   -1.0550   -1.3540 C   0  0  0  0  0  0  0  0  0  0  0  0
    3.4600   -0.4150   -0.1480 C   0  0  0  0  0  0  0  0  0  0  0  0
    4.5870    0.0130    0.5060 O   0  0  0  0  0  0  0  0  0  0  0  0
    5.9050   -0.0570    0.1100 C   0  0  2  0  0  0  0  0  0  0  0  0
    6.7760   -0.8740    1.0430 C   0  0  0  0  0  0  0  0  0  0  0  0
    8.1860   -0.3520    1.0250 C   0  0  0  0  0  0  0  0  0  0  0  0
    8.4170    0.1600   -0.2700 O   0  0  0  0  0  0  0  0  0  0  0  0
    7.8940    1.4410   -0.3020 C   0  0  0  0  0  0  0  0  0  0  0  0
    6.4290    1.3680   -0.0340 C   0  0  0  0  0  0  0  0  0  0  0  0
    2.2090   -0.1820    0.4430 C   0  0  0  0  0  0  0  0  0  0  0  0
   -2.0970    0.6530   -0.5490 C   0  0  0  0  0  0  0  0  0  0  0  0
   -2.5570    0.7930   -1.8290 C   0  0  0  0  0  0  0  0  0  0  0  0
   -3.1580    1.9610   -2.2650 C   0  0  0  0  0  0  0  0  0  0  0  0
   -3.2970    3.0130   -1.3780 C   0  0  0  0  0  0  0  0  0  0  0  0
   -3.8140    4.2530   -1.4410 N   0  0  0  0  0  0  0  0  0  0  0  0
   -3.6920    4.8910   -0.2440 C   0  0  0  0  0  0  0  0  0  0  0  0
   -4.1350    6.2240    0.0260 N   0  0  0  0  0  0  0  0  0  0  0  0
   -5.4190    6.6470   -0.3440 C   0  0  0  0  0  0  0  0  0  0  0  0
   -5.8490    7.7850   -0.1440 O   0  0  0  0  0  0  0  0  0  0  0  0
   -3.2510    7.1160    0.6760 C   0  0  0  0  0  0  0  0  0  0  0  0
   -3.5180    7.6920    1.8210 C   0  0  0  0  0  0  0  0  0  0  0  0
   -4.7040    7.4220    2.4200 F   0  0  0  0  0  0  0  0  0  0  0  0
   -3.0900    4.0210    0.5620 N   0  0  0  0  0  0  0  0  0  0  0  0
   -2.8320    2.8750   -0.0810 C   0  0  0  0  0  0  0  0  0  0  0  0
   -2.2310    1.6900    0.3330 C   0  0  0  0  0  0  0  0  0  0  0  0
  1  2  1  0
  2  3  1  0
  2  7  2  0
  3  4  2  0
  4  5  1  0
  4  6  1  0
  6  7  1  0
  7  8  1  0
  8  9  1  0
  9 10  1  0
 11 10  1  1
 11 12  1  0
 11 26  1  0
 12 13  1  0
 13 14  2  0
 13 25  1  0
 14 15  1  0
 15 16  2  0
 16 17  1  0
 17 18  1  0
 17 25  2  0
 19 18  1  1
 19 20  1  0
 19 24  1  0
 20 21  1  0
 21 22  1  0
 22 23  1  0
 23 24  1  0
 26 27  2  0
 26 40  1  0
 27 28  1  0
 28 29  2  0
 29 30  1  0
 29 39  1  0
 30 31  1  0
 31 32  1  0
 31 38  2  0
 32 33  1  0
 32 35  1  0
 33 34  2  0
 35 36  2  3
 36 37  1  0
 38 39  1  0
 39 40  2  0
M  CHG  1   9   1
M  END
