
     RDKit          3D

 40 43  0  0  0  0  0  0  0  0999 V2000
   -3.2230   -2.0300    3.5290 C   0  0  0  0  0  0  0  0  0  0  0  0
   -2.8510   -2.2250    2.1790 O   0  0  0  0  0  0  0  0  0  0  0  0
   -3.6320   -1.8250    1.1050 C   0  0  0  0  0  0  0  0  0  0  0  0
   -3.4510   -0.5380    0.5780 C   0  0  0  0  0  0  0  0  0  0  0  0
   -2.4480    0.3510    1.1690 C   0  0  0  0  0  0  0  0  0  0  0  0
   -2.3890    1.6180    0.5170 N   0  0  0  0  0  0  0  0  0  0  0  0
   -1.4510    2.6210    0.9800 C   0  0  0  0  0  0  0  0  0  0  0  0
   -0.7100    2.3440    1.9240 O   0  0  0  0  0  0  0  0  0  0  0  0
   -1.4320    3.9480    0.2730 C   0  0  0  0  0  0  0  0  0  0  0  0
   -0.2980    4.4540   -0.2600 C   0  0  0  0  0  0  0  0  0  0  0  0
    1.0340    3.7440   -0.2780 C   0  0  0  0  0  0  0  0  0  0  0  0
    2.0380    4.2910   -0.7780 O   0  0  0  0  0  0  0  0  0  0  0  0
    1.1930    2.4840    0.2470 O   0  0  0  0  0  0  0  0  0  0  0  0
    2.4030    1.8020    0.2460 C   0  0  0  0  0  0  0  0  0  0  0  0
    3.4040    2.3760   -0.2650 O   0  0  0  0  0  0  0  0  0  0  0  0
    2.4670    0.5330    0.8000 O   0  0  0  0  0  0  0  0  0  0  0  0
    3.8140   -0.0500    0.7200 C   0  0  0  0  0  0  0  0  0  0  0  0
    4.5240   -0.6680    0.1110 N   0  0  0  0  0  0  0  0  0  0  0  0
    5.7700   -1.0490    0.3220 C   0  0  0  0  0  0  0  0  0  0  0  0
    6.5430   -1.8830   -0.6330 C   0  0  0  0  0  0  0  0  0  0  0  0
    6.0150   -2.3270   -1.8220 C   0  0  0  0  0  0  0  0  0  0  0  0
    6.7550   -3.0950   -2.6820 C   0  0  0  0  0  0  0  0  0  0  0  0
    8.0630   -3.4370   -2.3550 C   0  0  0  0  0  0  0  0  0  0  0  0
    8.6090   -2.9990   -1.1640 C   0  0  0  0  0  0  0  0  0  0  0  0
    7.8350   -2.2330   -0.3330 C   0  0  0  0  0  0  0  0  0  0  0  0
    6.2810   -0.6110    1.4900 C   0  0  0  0  0  0  0  0  0  0  0  0
    4.9220    0.3420    2.2350 S   0  0  0  0  0  0  0  0  0  0  0  0
   -0.3940    5.7230   -0.8570 C   0  0  0  0  0  0  0  0  0  0  0  0
   -2.0930    6.1940   -0.6600 S   0  0  0  0  0  0  0  0  0  0  0  0
   -2.5700    4.6640    0.2120 C   0  0  0  0  0  0  0  0  0  0  0  0
   -3.8860    4.4600    0.6790 N   0  0  0  0  0  0  0  0  0  0  0  0
   -4.1870    3.4600    1.3190 O   0  0  0  0  0  0  0  0  0  0  0  0
   -4.8480    5.3980    0.4570 O   0  0  0  0  0  0  0  0  0  0  0  0
   -4.2460   -0.1980   -0.4770 C   0  0  0  0  0  0  0  0  0  0  0  0
   -5.1910   -1.1060   -0.9920 C   0  0  0  0  0  0  0  0  0  0  0  0
   -6.0660   -0.7400   -2.1490 C   0  0  0  0  0  0  0  0  0  0  0  0
   -5.3500   -2.3510   -0.4640 C   0  0  0  0  0  0  0  0  0  0  0  0
   -6.2760   -3.2380   -0.9720 O   0  0  0  0  0  0  0  0  0  0  0  0
   -4.5490   -2.7050    0.6050 C   0  0  0  0  0  0  0  0  0  0  0  0
   -4.7100   -3.9770    1.1460 O   0  0  0  0  0  0  0  0  0  0  0  0
  1  2  1  0
  2  3  1  0
  3  4  2  0
  3 39  1  0
  4  5  1  0
  4 34  1  0
  5  6  1  0
  6  7  1  0
  7  8  2  0
  7  9  1  0
  9 10  1  0
  9 30  2  0
 10 11  1  0
 10 28  2  0
 11 12  2  0
 11 13  1  0
 13 14  1  0
 14 15  2  0
 14 16  1  0
 16 17  1  0
 17 18  2  0
 17 27  1  0
 18 19  1  0
 19 20  1  0
 19 26  2  0
 20 21  2  0
 20 25  1  0
 21 22  1  0
 22 23  2  0
 23 24  1  0
 24 25  2  0
 26 27  1  0
 28 29  1  0
 29 30  1  0
 30 31  1  0
 31 32  2  0
 31 33  1  0
 34 35  2  0
 35 36  1  0
 35 37  1  0
 37 38  1  0
 37 39  2  0
 39 40  1  0
M  CHG  2  31   1  33  -1
M  END
