
     RDKit          3D

 39 42  0  0  0  0  0  0  0  0999 V2000
    0.2390    3.2830   -1.1540 C   0  0  0  0  0  0  0  0  0  0  0  0
    0.3400    1.7860   -0.9940 C   0  0  1  0  0  0  0  0  0  0  0  0
    0.9070    1.2750   -2.3200 C   0  0  0  0  0  0  0  0  0  0  0  0
    1.1610    1.4560    0.0680 O   0  0  0  0  0  0  0  0  0  0  0  0
    0.9110    1.8860    1.3540 C   0  0  0  0  0  0  0  0  0  0  0  0
   -0.0890    2.6060    1.5780 O   0  0  0  0  0  0  0  0  0  0  0  0
    1.7820    1.5330    2.5030 C   0  0  0  0  0  0  0  0  0  0  0  0
    2.8700    0.7260    2.1080 O   0  0  0  0  0  0  0  0  0  0  0  0
    3.7670    1.2250    1.1800 C   0  0  0  0  0  0  0  0  0  0  0  0
    3.5770    2.3740    0.7270 O   0  0  0  0  0  0  0  0  0  0  0  0
    4.8700    0.4220    0.7710 C   0  0  0  0  0  0  0  0  0  0  0  0
    5.2170   -1.2890    1.3930 S   0  0  0  0  0  0  0  0  0  0  0  0
    6.6940   -1.5550    0.4280 C   0  0  0  0  0  0  0  0  0  0  0  0
    7.5610   -2.6380    0.3400 C   0  0  0  0  0  0  0  0  0  0  0  0
    8.6490   -2.5830   -0.5010 C   0  0  0  0  0  0  0  0  0  0  0  0
    8.8100   -1.4220   -1.2180 C   0  0  0  0  0  0  0  0  0  0  0  0
    7.9530   -0.3630   -1.1240 C   0  0  0  0  0  0  0  0  0  0  0  0
    6.8180   -0.4010   -0.2580 C   0  0  0  0  0  0  0  0  0  0  0  0
    5.9270    0.5870   -0.1020 C   0  0  0  0  0  0  0  0  0  0  0  0
    5.9660    1.8830   -0.7970 N   0  0  0  0  0  0  0  0  0  0  0  0
    6.7850    2.7430   -0.4980 O   0  0  0  0  0  0  0  0  0  0  0  0
    5.0550    2.0710   -1.7770 O   0  0  0  0  0  0  0  0  0  0  0  0
   -1.0420    1.1940   -0.9280 C   0  0  0  0  0  0  0  0  0  0  0  0
   -1.8030    1.5740   -1.8410 O   0  0  0  0  0  0  0  0  0  0  0  0
   -1.3670    0.3040    0.0930 N   0  0  0  0  0  0  0  0  0  0  0  0
   -2.6520   -0.2880    0.2150 C   0  0  0  0  0  0  0  0  0  0  0  0
   -3.6840   -0.0880   -0.6620 C   0  0  0  0  0  0  0  0  0  0  0  0
   -4.9470   -0.6860   -0.5310 C   0  0  0  0  0  0  0  0  0  0  0  0
   -5.1980   -1.5270    0.5280 C   0  0  0  0  0  0  0  0  0  0  0  0
   -4.1740   -1.7330    1.4100 C   0  0  0  0  0  0  0  0  0  0  0  0
   -2.9150   -1.1470    1.2930 C   0  0  0  0  0  0  0  0  0  0  0  0
   -1.9660   -1.4180    2.2230 O   0  0  0  0  0  0  0  0  0  0  0  0
   -6.5470   -2.1750    0.6860 C   0  0  0  0  0  0  0  0  0  0  0  0
   -7.6210   -1.0970    0.8000 C   0  0  2  0  0  0  0  0  0  0  0  0
   -8.8970   -1.7490    1.0800 C   0  0  0  0  0  0  0  0  0  0  0  0
   -9.8530   -1.6170    0.2820 O   0  0  0  0  0  0  0  0  0  0  0  0
   -9.0670   -2.5080    2.2060 O   0  0  0  0  0  0  0  0  0  0  0  0
   -7.6210   -0.1660   -0.7410 S   0  0  0  0  0  0  0  0  0  0  0  0
   -6.0190   -0.4200   -1.5360 C   0  0  0  0  0  0  0  0  0  0  0  0
  2  1  1  6
  2  3  1  0
  2  4  1  0
  2 23  1  0
  4  5  1  0
  5  6  2  0
  5  7  1  0
  7  8  1  0
  8  9  1  0
  9 10  2  0
  9 11  1  0
 11 12  1  0
 11 19  2  0
 12 13  1  0
 13 14  2  0
 13 18  1  0
 14 15  1  0
 15 16  2  0
 16 17  1  0
 17 18  2  0
 18 19  1  0
 19 20  1  0
 20 21  2  0
 20 22  1  0
 23 24  2  0
 23 25  1  0
 25 26  1  0
 26 27  2  0
 26 31  1  0
 27 28  1  0
 28 29  2  0
 28 39  1  0
 29 30  1  0
 29 33  1  0
 30 31  2  0
 31 32  1  0
 33 34  1  0
 34 35  1  6
 34 38  1  0
 35 36  2  0
 35 37  1  0
 38 39  1  0
M  CHG  2  20   1  22  -1
M  END
