
     RDKit          3D

 40 43  0  0  0  0  0  0  0  0999 V2000
    3.0340    1.6560   -0.6860 O   0  0  0  0  0  0  0  0  0  0  0  0
    2.9500    1.1150   -1.7960 C   0  0  0  0  0  0  0  0  0  0  0  0
    1.6810    0.9270   -2.5430 C   0  0  0  0  0  0  0  0  0  0  0  0
    0.6060    0.7590   -1.6040 O   0  0  0  0  0  0  0  0  0  0  0  0
    0.9150   -0.1070   -0.5120 C   0  0  0  0  0  0  0  0  0  0  0  0
    2.0750   -0.5530   -0.4020 O   0  0  0  0  0  0  0  0  0  0  0  0
   -0.1370   -0.4560    0.4110 C   0  0  0  0  0  0  0  0  0  0  0  0
   -1.4010   -0.1020    0.2800 C   0  0  0  0  0  0  0  0  0  0  0  0
   -2.2570   -0.6240    1.3070 C   0  0  0  0  0  0  0  0  0  0  0  0
   -3.5360   -0.9040    1.0690 C   0  0  0  0  0  0  0  0  0  0  0  0
   -4.2060   -0.6940   -0.2110 C   0  0  0  0  0  0  0  0  0  0  0  0
   -3.5710   -0.1140   -1.1790 O   0  0  0  0  0  0  0  0  0  0  0  0
   -5.3920   -1.0120   -0.4530 O   0  0  0  0  0  0  0  0  0  0  0  0
   -6.6150   -1.2250   -0.9130 C   0  0  0  0  0  0  0  0  0  0  0  0
   -7.2870    0.0920   -0.5410 C   0  0  0  0  0  0  0  0  0  0  0  0
   -6.7540    1.7460   -0.9300 S   0  0  0  0  0  0  0  0  0  0  0  0
   -8.3150    2.5770   -0.2780 C   0  0  0  0  0  0  0  0  0  0  0  0
   -9.0030    1.4980    0.1530 C   0  0  0  0  0  0  0  0  0  0  0  0
   -8.5340    0.2860    0.0400 C   0  0  0  0  0  0  0  0  0  0  0  0
   -9.0720   -0.9920    0.7040 C   0  0  0  0  0  0  0  0  0  0  0  0
   -8.1740   -1.1570    1.9570 C   0  0  0  0  0  0  0  0  0  0  0  0
   -8.4440   -0.0400    2.7840 O   0  0  0  0  0  0  0  0  0  0  0  0
   -1.6070   -0.7690    2.6440 C   0  0  0  0  0  0  0  0  0  0  0  0
    0.0300   -1.3220    1.9750 S   0  0  0  0  0  0  0  0  0  0  0  0
    4.1310    0.6040   -2.4130 N   0  0  0  0  0  0  0  0  0  0  0  0
    5.4180    0.5400   -1.9560 N   0  0  0  0  0  0  0  0  0  0  0  0
    6.3840    0.4370   -2.9430 C   0  0  0  0  0  0  0  0  0  0  0  0
    7.6880    0.1890   -2.6360 C   0  0  0  0  0  0  0  0  0  0  0  0
    8.0500    0.0460   -1.3290 C   0  0  0  0  0  0  0  0  0  0  0  0
    9.3390   -0.2730   -1.0150 C   0  0  0  0  0  0  0  0  0  0  0  0
    9.6860   -0.4990    0.2850 C   0  0  0  0  0  0  0  0  0  0  0  0
    8.7680   -0.4130    1.3120 C   0  0  0  0  0  0  0  0  0  0  0  0
    9.1840   -0.7820    2.6010 N   0  0  0  0  0  0  0  0  0  0  0  0
    8.7860   -0.2630    3.6360 O   0  0  0  0  0  0  0  0  0  0  0  0
   10.1350   -1.8200    2.6920 O   0  0  0  0  0  0  0  0  0  0  0  0
    7.4720   -0.0830    1.0100 C   0  0  0  0  0  0  0  0  0  0  0  0
    6.4870    0.0230    1.9840 O   0  0  0  0  0  0  0  0  0  0  0  0
    7.1270    0.1460   -0.3000 C   0  0  0  0  0  0  0  0  0  0  0  0
    5.7930    0.3970   -0.6870 C   0  0  0  0  0  0  0  0  0  0  0  0
    4.9910    0.4770    0.2770 O   0  0  0  0  0  0  0  0  0  0  0  0
  1  2  2  0
  2  3  1  0
  2 25  1  0
  3  4  1  0
  4  5  1  0
  5  6  2  0
  5  7  1  0
  7  8  2  0
  7 24  1  0
  8  9  1  0
  9 10  2  3
  9 23  1  0
 10 11  1  0
 11 12  2  0
 11 13  1  0
 13 14  1  0
 14 15  1  0
 15 16  1  0
 15 19  2  0
 16 17  1  0
 17 18  2  0
 18 19  1  0
 19 20  1  0
 20 21  1  0
 21 22  1  0
 23 24  1  0
 25 26  1  0
 26 27  1  0
 26 39  1  0
 27 28  2  0
 28 29  1  0
 29 30  2  0
 29 38  1  0
 30 31  1  0
 31 32  2  0
 32 33  1  0
 32 36  1  0
 33 34  2  0
 33 35  1  0
 36 37  1  0
 36 38  2  0
 38 39  1  0
 39 40  2  0
M  CHG  2  33   1  35  -1
M  END
