
     RDKit          3D

 40 43  0  0  0  0  0  0  0  0999 V2000
   11.3810    2.3970    0.0700 N   0  0  0  0  0  0  0  0  0  0  0  0
   10.9830    1.1240   -0.1520 O   0  0  0  0  0  0  0  0  0  0  0  0
    9.9170    0.7760   -0.9820 C   0  0  0  0  0  0  0  0  0  0  0  0
    9.2670    1.6880   -1.5630 O   0  0  0  0  0  0  0  0  0  0  0  0
    9.6260   -0.6680   -1.1260 C   0  0  0  0  0  0  0  0  0  0  0  0
    8.2800   -1.2750   -0.1360 S   0  0  0  0  0  0  0  0  0  0  0  0
    6.7000   -0.7270   -0.6770 C   0  0  0  0  0  0  0  0  0  0  0  0
    6.2960    0.0250   -1.4580 O   0  0  0  0  0  0  0  0  0  0  0  0
    5.4460   -1.5500    0.2080 N   0  0  0  0  0  0  0  0  0  0  0  0
    4.3550   -0.9670   -0.4690 C   0  0  0  0  0  0  0  0  0  0  0  0
    4.1770   -0.0930   -1.2670 O   0  0  0  0  0  0  0  0  0  0  0  0
    3.1540   -1.6960   -0.0120 N   0  0  0  0  0  0  0  0  0  0  0  0
    1.8600   -1.4860   -0.3920 C   0  0  0  0  0  0  0  0  0  0  0  0
    0.9900   -2.6230   -0.2700 C   0  0  0  0  0  0  0  0  0  0  0  0
   -0.3190   -2.4680   -0.6150 C   0  0  0  0  0  0  0  0  0  0  0  0
   -0.7920   -1.2620   -1.0680 C   0  0  0  0  0  0  0  0  0  0  0  0
    0.0360   -0.1390   -1.1940 C   0  0  0  0  0  0  0  0  0  0  0  0
   -0.7230    1.3550   -1.7530 S   0  0  0  0  0  0  0  0  0  0  0  0
   -1.3610    2.3980   -0.4470 C   0  0  0  0  0  0  0  0  0  0  0  0
   -2.4290    1.8350    0.3740 C   0  0  0  0  0  0  0  0  0  0  0  0
   -2.9340    2.6190    1.2480 O   0  0  0  0  0  0  0  0  0  0  0  0
   -2.9680    0.5760    0.3460 O   0  0  0  0  0  0  0  0  0  0  0  0
   -3.9790    0.1340    1.1980 C   0  0  0  0  0  0  0  0  0  0  0  0
   -3.5790   -0.2490    2.4700 C   0  0  0  0  0  0  0  0  0  0  0  0
   -2.1990   -0.2200    2.9100 C   0  0  0  0  0  0  0  0  0  0  0  0
   -1.9290   -0.5620    4.0810 O   0  0  0  0  0  0  0  0  0  0  0  0
   -1.1790    0.1700    2.0800 O   0  0  0  0  0  0  0  0  0  0  0  0
   -4.5780   -0.6930    3.3340 C   0  0  0  0  0  0  0  0  0  0  0  0
   -5.8860   -0.7420    2.9220 C   0  0  0  0  0  0  0  0  0  0  0  0
   -6.2470   -0.3540    1.6460 C   0  0  0  0  0  0  0  0  0  0  0  0
   -5.2710    0.1000    0.7480 C   0  0  0  0  0  0  0  0  0  0  0  0
   -5.6230    0.4930   -0.5360 O   0  0  0  0  0  0  0  0  0  0  0  0
   -6.9510    0.4500   -0.9800 C   0  0  0  0  0  0  0  0  0  0  0  0
   -7.3260    0.8360   -2.2500 C   0  0  0  0  0  0  0  0  0  0  0  0
   -8.6380    0.7920   -2.6840 C   0  0  0  0  0  0  0  0  0  0  0  0
   -9.5840    0.3360   -1.7730 C   0  0  0  0  0  0  0  0  0  0  0  0
   -9.2100   -0.0490   -0.5050 C   0  0  0  0  0  0  0  0  0  0  0  0
   -7.8980   -0.0020   -0.0800 C   0  0  0  0  0  0  0  0  0  0  0  0
   -7.5560   -0.3970    1.2100 O   0  0  0  0  0  0  0  0  0  0  0  0
    1.3510   -0.3030   -0.8440 C   0  0  0  0  0  0  0  0  0  0  0  0
  1  2  1  0
  2  3  1  0
  3  4  2  0
  3  5  1  0
  5  6  1  0
  6  7  1  0
  7  8  2  0
  7  9  1  0
  9 10  1  0
 10 11  2  0
 10 12  1  0
 12 13  1  0
 13 14  2  0
 13 40  1  0
 14 15  1  0
 15 16  2  0
 16 17  1  0
 17 18  1  0
 17 40  2  0
 18 19  1  0
 19 20  1  0
 20 21  2  0
 20 22  1  0
 22 23  1  0
 23 24  2  0
 23 31  1  0
 24 25  1  0
 24 28  1  0
 25 26  2  0
 25 27  1  0
 28 29  2  0
 29 30  1  0
 30 31  2  0
 30 39  1  0
 31 32  1  0
 32 33  1  0
 33 34  2  0
 33 38  1  0
 34 35  1  0
 35 36  2  0
 36 37  1  0
 37 38  2  0
 38 39  1  0
M  CHG  2   1   1  27  -1
M  END
