
     RDKit          3D

 20 20  0  0  0  0  0  0  0  0999 V2000
   -1.3950   -2.1230   -2.6190 O   0  0  0  0  0  0  0  0  0  0  0  0
   -1.9070   -1.1280   -2.0790 C   0  0  0  0  0  0  0  0  0  0  0  0
   -3.2860   -0.9850   -2.1460 O   0  0  0  0  0  0  0  0  0  0  0  0
   -1.1390   -0.1000   -1.3770 C   0  0  1  0  0  0  0  0  0  0  0  0
   -1.9380    0.8970   -0.8680 O   0  0  0  0  0  0  0  0  0  0  0  0
   -1.5240    2.4590   -1.4810 P   0  0  0  0  0  0  0  0  0  0  0  0
   -2.8080    2.9750   -2.5290 O   0  0  0  0  0  0  0  0  0  0  0  0
   -1.3800    3.5610   -0.1340 O   0  0  0  0  0  0  0  0  0  0  0  0
   -0.2380   -0.6970   -0.2820 C   0  0  1  0  0  0  0  0  0  0  0  0
    0.5190    0.4290    0.1470 O   0  0  0  0  0  0  0  0  0  0  0  0
    1.4080    0.0550    1.1490 C   0  0  0  0  0  0  0  0  0  0  0  0
    2.1770    1.2720    1.5640 C   0  0  0  0  0  0  0  0  0  0  0  0
    3.1010    0.9970    2.5720 O   0  0  0  0  0  0  0  0  0  0  0  0
    3.7410    2.0780    2.8970 O   0  0  0  0  0  0  0  0  0  0  0  0
    4.6010    2.4790    1.9940 O   0  0  0  0  0  0  0  0  0  0  0  0
   -0.9000   -1.1670    0.7350 O   0  0  0  0  0  0  0  0  0  0  0  0
   -0.7200   -2.4130    1.1530 C   0  0  0  0  0  0  0  0  0  0  0  0
    0.6120   -3.0370   -0.0210 P   0  0  0  0  0  0  0  0  0  0  0  0
    0.0450   -4.3320   -0.9890 O   0  0  0  0  0  0  0  0  0  0  0  0
    0.6410   -1.5210   -0.9090 O   0  0  0  0  0  0  0  0  0  0  0  0
  1  2  2  0
  2  3  1  0
  2  4  1  0
  4  5  1  1
  4  9  1  0
  5  6  1  0
  6  7  1  0
  6  8  1  0
  9 10  1  1
  9 16  1  0
  9 20  1  0
 10 11  1  0
 11 12  1  0
 12 13  1  0
 13 14  1  0
 14 15  1  0
 16 17  1  0
 17 18  1  0
 18 19  1  0
 18 20  1  0
M  END
