
     RDKit          3D

 19 19  0  0  0  0  0  0  0  0999 V2000
   -2.8010   -1.8470    1.9480 O   0  0  0  0  0  0  0  0  0  0  0  0
   -2.6000   -1.7810    0.7130 C   0  0  0  0  0  0  0  0  0  0  0  0
   -3.0090   -2.8470   -0.0680 O   0  0  0  0  0  0  0  0  0  0  0  0
   -1.9460   -0.5960    0.1160 C   0  0  1  0  0  0  0  0  0  0  0  0
   -2.8850    0.0930   -0.8610 C   0  0  0  0  0  0  0  0  0  0  0  0
   -4.0340    0.4650   -0.1920 O   0  0  0  0  0  0  0  0  0  0  0  0
   -1.6540    0.2920    1.1120 O   0  0  0  0  0  0  0  0  0  0  0  0
   -0.4090    0.8570    0.8120 C   0  0  0  0  0  0  0  0  0  0  0  0
    0.1670    0.0350   -0.2860 C   0  0  2  0  0  0  0  0  0  0  0  0
    1.4620   -0.6480    0.1000 C   0  0  0  0  0  0  0  0  0  0  0  0
    2.4830    0.2840    0.3190 O   0  0  0  0  0  0  0  0  0  0  0  0
    3.9580   -0.4860    0.7580 P   0  0  0  0  0  0  0  0  0  0  0  0
    3.8090   -1.3620    2.2470 O   0  0  0  0  0  0  0  0  0  0  0  0
    4.5300   -1.4990   -0.5300 O   0  0  0  0  0  0  0  0  0  0  0  0
    0.3970    0.7480   -1.4480 O   0  0  0  0  0  0  0  0  0  0  0  0
    1.4790    2.0530   -1.2760 P   0  0  0  0  0  0  0  0  0  0  0  0
    1.5290    2.7370    0.2970 O   0  0  0  0  0  0  0  0  0  0  0  0
    1.3380    3.2350   -2.5200 O   0  0  0  0  0  0  0  0  0  0  0  0
   -0.7660   -0.9740   -0.4950 O   0  0  0  0  0  0  0  0  0  0  0  0
  1  2  2  0
  2  3  1  0
  2  4  1  0
  4  5  1  6
  4  7  1  0
  4 19  1  0
  5  6  1  0
  7  8  1  0
  8  9  1  0
  9 10  1  1
  9 15  1  0
  9 19  1  0
 10 11  1  0
 11 12  1  0
 12 13  1  0
 12 14  1  0
 15 16  1  0
 16 17  1  0
 16 18  1  0
M  END
