
     RDKit          3D

 19 19  0  0  0  0  0  0  0  0999 V2000
   -1.9160    2.9370   -0.4540 C   0  0  0  0  0  0  0  0  0  0  0  0
   -1.6080    1.5360   -0.5120 O   0  0  0  0  0  0  0  0  0  0  0  0
   -0.6640    1.0030    0.3470 C   0  0  0  0  0  0  0  0  0  0  0  0
   -0.1020    1.7790    1.1610 O   0  0  0  0  0  0  0  0  0  0  0  0
   -0.2910   -0.4130    0.3550 C   0  0  2  0  0  0  0  0  0  0  0  0
    0.6700   -0.7240    1.2950 O   0  0  0  0  0  0  0  0  0  0  0  0
    1.7500   -0.0420    1.0580 O   0  0  0  0  0  0  0  0  0  0  0  0
    2.6990   -0.7730    0.5090 O   0  0  0  0  0  0  0  0  0  0  0  0
    3.9410    0.1770   -0.1940 P   0  0  0  0  0  0  0  0  0  0  0  0
    5.4710   -0.5460    0.2050 O   0  0  0  0  0  0  0  0  0  0  0  0
    3.8420    1.8050    0.3760 O   0  0  0  0  0  0  0  0  0  0  0  0
    0.1110   -0.9140   -1.0390 C   0  0  0  0  0  0  0  0  0  0  0  0
   -0.0130   -2.2770   -0.9970 O   0  0  0  0  0  0  0  0  0  0  0  0
   -0.8680   -2.6190    0.0390 C   0  0  0  0  0  0  0  0  0  0  0  0
   -1.5020   -1.3380    0.4880 C   0  0  2  0  0  0  0  0  0  0  0  0
   -2.3850   -0.9370   -0.5350 O   0  0  0  0  0  0  0  0  0  0  0  0
   -2.0510   -1.3460    1.7200 O   0  0  0  0  0  0  0  0  0  0  0  0
   -2.5650    0.2970    2.0720 P   0  0  0  0  0  0  0  0  0  0  0  0
   -4.0460    0.7340    1.8060 O   0  0  0  0  0  0  0  0  0  0  0  0
  1  2  1  0
  2  3  1  0
  3  4  2  0
  3  5  1  0
  5  6  1  1
  5 12  1  0
  5 15  1  0
  6  7  1  0
  7  8  1  0
  8  9  1  0
  9 10  1  0
  9 11  1  0
 12 13  1  0
 13 14  1  0
 14 15  1  0
 15 16  1  6
 15 17  1  0
 17 18  1  0
 18 19  2  0
M  END
