
     RDKit          3D

 19 19  0  0  0  0  0  0  0  0999 V2000
   -2.2820   -0.6290    3.5010 O   0  0  0  0  0  0  0  0  0  0  0  0
   -2.2460   -1.8390    2.5550 P   0  0  0  0  0  0  0  0  0  0  0  0
   -2.5660   -1.7640    0.7480 C   0  0  0  0  0  0  0  0  0  0  0  0
   -2.0510   -0.4960    0.1140 C   0  0  1  0  0  0  0  0  0  0  0  0
   -2.6350    0.6590    0.6580 O   0  0  0  0  0  0  0  0  0  0  0  0
   -3.3240    1.5520   -0.1370 C   0  0  0  0  0  0  0  0  0  0  0  0
   -3.4120    1.2980   -1.3630 O   0  0  0  0  0  0  0  0  0  0  0  0
   -3.9220    2.7080    0.3430 O   0  0  0  0  0  0  0  0  0  0  0  0
   -0.5550   -0.4220    0.3840 C   0  0  1  0  0  0  0  0  0  0  0  0
   -0.3350   -0.3660    1.7440 O   0  0  0  0  0  0  0  0  0  0  0  0
    0.0360   -1.5840   -0.1560 O   0  0  0  0  0  0  0  0  0  0  0  0
    0.1490   -1.2340   -1.4210 O   0  0  0  0  0  0  0  0  0  0  0  0
    0.7590    0.0300   -1.2920 C   0  0  2  0  0  0  0  0  0  0  0  0
    2.1540   -0.1900   -0.7610 C   0  0  0  0  0  0  0  0  0  0  0  0
    2.7960    1.0410   -0.6180 O   0  0  0  0  0  0  0  0  0  0  0  0
    4.3940    0.8670   -0.0160 P   0  0  0  0  0  0  0  0  0  0  0  0
    5.2750    2.3190   -0.3780 O   0  0  0  0  0  0  0  0  0  0  0  0
    5.1650   -0.5040   -0.7650 O   0  0  0  0  0  0  0  0  0  0  0  0
   -0.0170    0.6390   -0.3080 O   0  0  0  0  0  0  0  0  0  0  0  0
  1  2  2  0
  2  3  1  0
  4  3  1  1
  4  5  1  0
  4  9  1  0
  5  6  1  0
  6  7  2  0
  6  8  1  0
  9 10  1  1
  9 11  1  0
  9 19  1  0
 11 12  1  0
 12 13  1  0
 13 14  1  1
 13 19  1  0
 14 15  1  0
 15 16  1  0
 16 17  1  0
 16 18  1  0
M  END
