
     RDKit          3D

 20 19  0  0  0  0  0  0  0  0999 V2000
    5.8330    0.7750    0.3810 O   0  0  0  0  0  0  0  0  0  0  0  0
    5.8700    0.2260   -0.7460 C   0  0  0  0  0  0  0  0  0  0  0  0
    7.0310   -0.4130   -1.1760 O   0  0  0  0  0  0  0  0  0  0  0  0
    4.7250    0.2850   -1.5270 O   0  0  0  0  0  0  0  0  0  0  0  0
    3.2900    1.1210   -0.8980 P   0  0  0  0  0  0  0  0  0  0  0  0
    2.1280    1.3790   -2.1300 O   0  0  0  0  0  0  0  0  0  0  0  0
    2.6770    0.2910    0.4730 O   0  0  0  0  0  0  0  0  0  0  0  0
    1.4980   -0.3780    0.1420 C   0  0  1  0  0  0  0  0  0  0  0  0
    1.6160   -1.7320    0.3870 O   0  0  0  0  0  0  0  0  0  0  0  0
    0.3770    0.1480    0.9600 C   0  0  0  0  0  0  0  0  0  0  0  0
    0.0580    1.3600    0.9230 O   0  0  0  0  0  0  0  0  0  0  0  0
   -0.3430   -0.6870    1.7830 O   0  0  0  0  0  0  0  0  0  0  0  0
   -1.3950   -0.2150    2.5520 C   0  0  0  0  0  0  0  0  0  0  0  0
   -2.5410    0.3690    1.7530 C   0  0  2  0  0  0  0  0  0  0  0  0
   -3.5400    0.8150    2.6300 O   0  0  0  0  0  0  0  0  0  0  0  0
   -3.0670   -0.6470    0.9610 O   0  0  0  0  0  0  0  0  0  0  0  0
   -3.0330   -0.2730   -0.3570 C   0  0  0  0  0  0  0  0  0  0  0  0
   -3.7390   -1.6370   -1.4010 P   0  0  0  0  0  0  0  0  0  0  0  0
   -5.2600   -1.1850   -2.0820 O   0  0  0  0  0  0  0  0  0  0  0  0
   -2.6630   -2.0860   -2.6860 O   0  0  0  0  0  0  0  0  0  0  0  0
  1  2  2  0
  2  3  1  0
  2  4  1  0
  4  5  1  0
  5  6  1  0
  5  7  1  0
  7  8  1  0
  8  9  1  1
  8 10  1  0
 10 11  2  0
 10 12  1  0
 12 13  1  0
 13 14  1  0
 14 15  1  1
 14 16  1  0
 16 17  1  0
 17 18  1  0
 18 19  1  0
 18 20  1  0
M  END
