
     RDKit          3D

 19 19  0  0  0  0  0  0  0  0999 V2000
    1.9470   -2.8230    2.7240 O   0  0  0  0  0  0  0  0  0  0  0  0
    2.6000   -2.8270    1.3080 P   0  0  0  0  0  0  0  0  0  0  0  0
    2.5110   -1.3060    0.2160 C   0  0  1  0  0  0  0  0  0  0  0  0
    3.2570   -1.6220   -0.9360 O   0  0  0  0  0  0  0  0  0  0  0  0
    4.2630   -0.8220   -1.1180 O   0  0  0  0  0  0  0  0  0  0  0  0
    1.1860   -1.0760   -0.2280 O   0  0  0  0  0  0  0  0  0  0  0  0
    0.6150    0.1720   -0.0170 C   0  0  0  0  0  0  0  0  0  0  0  0
    1.2700    1.0810    0.5610 O   0  0  0  0  0  0  0  0  0  0  0  0
   -0.7580    0.5140   -0.4410 C   0  0  2  0  0  0  0  0  0  0  0  0
   -1.2920   -0.6370   -1.0570 O   0  0  0  0  0  0  0  0  0  0  0  0
   -1.3150   -1.9620    0.0670 P   0  0  0  0  0  0  0  0  0  0  0  0
   -2.5290   -3.0860   -0.4500 O   0  0  0  0  0  0  0  0  0  0  0  0
   -1.6080   -1.4210    1.6840 O   0  0  0  0  0  0  0  0  0  0  0  0
   -0.7790    1.6390   -1.4420 C   0  0  0  0  0  0  0  0  0  0  0  0
   -0.5940    2.8760   -0.9040 O   0  0  0  0  0  0  0  0  0  0  0  0
   -1.3400    3.1790    0.1980 C   0  0  0  0  0  0  0  0  0  0  0  0
   -2.1660    2.0640    0.7120 C   0  0  0  0  0  0  0  0  0  0  0  0
   -3.3180    2.2980    1.1700 O   0  0  0  0  0  0  0  0  0  0  0  0
   -1.6130    0.7940    0.6600 O   0  0  0  0  0  0  0  0  0  0  0  0
  1  2  2  0
  2  3  1  0
  3  4  1  6
  3  6  1  0
  4  5  1  0
  6  7  1  0
  7  8  2  0
  7  9  1  0
  9 10  1  6
  9 14  1  0
  9 19  1  0
 10 11  1  0
 11 12  1  0
 11 13  1  0
 14 15  1  0
 15 16  1  0
 16 17  1  0
 17 18  2  0
 17 19  1  0
M  END
