
     RDKit          3D

 17 17  0  0  0  0  0  0  0  0999 V2000
   -3.0200    2.2580    1.1720 O   0  0  0  0  0  0  0  0  0  0  0  0
   -3.5270    1.1550    0.8350 C   0  0  0  0  0  0  0  0  0  0  0  0
   -4.7190    1.0960    0.1230 O   0  0  0  0  0  0  0  0  0  0  0  0
   -4.8700    0.1300   -0.9290 C   0  0  0  0  0  0  0  0  0  0  0  0
   -3.9300   -0.8880   -0.7990 O   0  0  0  0  0  0  0  0  0  0  0  0
   -3.7520   -1.2240    0.5380 C   0  0  0  0  0  0  0  0  0  0  0  0
   -2.8950   -0.1480    1.1720 C   0  0  1  0  0  0  0  0  0  0  0  0
   -1.5000   -0.1910    0.5300 C   0  0  0  0  0  0  0  0  0  0  0  0
   -0.8020    0.8610    1.0650 O   0  0  0  0  0  0  0  0  0  0  0  0
    0.4950    1.0060    0.6090 C   0  0  0  0  0  0  0  0  0  0  0  0
    1.3540   -0.1900    0.8930 C   0  0  0  0  0  0  0  0  0  0  0  0
    2.6430   -0.0170    0.4320 O   0  0  0  0  0  0  0  0  0  0  0  0
    2.7560    0.1900   -0.9220 C   0  0  0  0  0  0  0  0  0  0  0  0
    4.2360    0.3520   -1.2990 C   0  0  0  0  0  0  0  0  0  0  0  0
    4.9160   -0.8270   -0.9340 O   0  0  0  0  0  0  0  0  0  0  0  0
    6.1790   -0.7660   -1.2230 O   0  0  0  0  0  0  0  0  0  0  0  0
    6.9480   -0.5370   -0.1990 O   0  0  0  0  0  0  0  0  0  0  0  0
  1  2  2  0
  2  3  1  0
  2  7  1  0
  3  4  1  0
  4  5  1  0
  5  6  1  0
  6  7  1  0
  7  8  1  6
  8  9  1  0
  9 10  1  0
 10 11  1  0
 11 12  1  0
 12 13  1  0
 13 14  1  0
 14 15  1  0
 15 16  1  0
 16 17  1  0
M  END
