
     RDKit          3D

 31 32  0  0  0  0  0  0  0  0999 V2000
   -8.5740   -0.8780    2.2370 C   0  0  0  0  0  0  0  0  0  0  0  0
   -7.2970   -0.5480    1.4920 C   0  0  0  0  0  0  0  0  0  0  0  0
   -6.3090   -1.4850    1.8000 O   0  0  0  0  0  0  0  0  0  0  0  0
   -4.8620   -1.1180    0.9530 P   0  0  0  0  0  0  0  0  0  0  0  0
   -3.6900   -0.1970    2.0610 C   0  0  0  0  0  0  0  0  0  0  0  0
   -3.0430    0.8220    1.2740 N   0  0  0  0  0  0  0  0  0  0  0  0
   -3.6360    2.1340    1.1860 C   0  0  0  0  0  0  0  0  0  0  0  0
   -1.8390    0.5450    0.5940 C   0  0  0  0  0  0  0  0  0  0  0  0
   -1.3630   -0.6350    0.7080 O   0  0  0  0  0  0  0  0  0  0  0  0
   -1.1390    1.5770   -0.2270 C   0  0  0  0  0  0  0  0  0  0  0  0
    0.0460    0.9570   -0.7730 N   0  0  0  0  0  0  0  0  0  0  0  0
    1.0710    0.4170    0.0780 C   0  0  0  0  0  0  0  0  0  0  0  0
    0.9400    0.4850    1.3060 O   0  0  0  0  0  0  0  0  0  0  0  0
    2.2340   -0.1950   -0.6240 C   0  0  1  0  0  0  0  0  0  0  0  0
    2.7150    0.7380   -1.6670 C   0  0  0  0  0  0  0  0  0  0  0  0
    4.0850    1.2980   -1.5050 C   0  0  0  0  0  0  0  0  0  0  0  0
    5.0110    0.2130   -1.0800 C   0  0  0  0  0  0  0  0  0  0  0  0
    6.1550   -0.0630   -1.6640 C   0  0  0  0  0  0  0  0  0  0  0  0
    6.7510    0.6140   -2.8230 C   0  0  0  0  0  0  0  0  0  0  0  0
    8.0710    1.1640   -2.3660 C   0  0  0  0  0  0  0  0  0  0  0  0
    8.1320    2.1640   -1.6880 O   0  0  0  0  0  0  0  0  0  0  0  0
    4.5670   -0.5730    0.0890 C   0  0  0  0  0  0  0  0  0  0  0  0
    5.5220   -1.1000    0.9410 C   0  0  0  0  0  0  0  0  0  0  0  0
    5.1250   -1.8290    2.0310 C   0  0  0  0  0  0  0  0  0  0  0  0
    6.1090   -2.3780    2.9180 N   0  0  0  0  0  0  0  0  0  0  0  0
    3.7770   -2.0180    2.2470 C   0  0  0  0  0  0  0  0  0  0  0  0
    2.8340   -1.4800    1.3780 C   0  0  0  0  0  0  0  0  0  0  0  0
    3.2240   -0.7480    0.2830 C   0  0  0  0  0  0  0  0  0  0  0  0
   -5.1990   -0.1780   -0.4370 O   0  0  0  0  0  0  0  0  0  0  0  0
   -4.9280   -0.8810   -1.6240 C   0  0  0  0  0  0  0  0  0  0  0  0
   -5.2520    0.0170   -2.7830 C   0  0  0  0  0  0  0  0  0  0  0  0
  1  2  1  0
  2  3  1  0
  3  4  1  0
  4  5  1  0
  4 29  1  0
  5  6  1  0
  6  7  1  0
  6  8  1  0
  8  9  2  0
  8 10  1  0
 10 11  1  0
 11 12  1  0
 12 13  2  0
 14 12  1  1
 14 15  1  0
 14 28  1  0
 15 16  1  0
 16 17  1  0
 17 18  2  3
 17 22  1  0
 18 19  1  0
 19 20  1  0
 20 21  2  0
 22 23  2  0
 22 28  1  0
 23 24  1  0
 24 25  1  0
 24 26  2  0
 26 27  1  0
 27 28  2  0
 29 30  1  0
 30 31  1  0
M  END
