
     RDKit          3D

 31 31  0  0  0  0  0  0  0  0999 V2000
   -7.5460   -0.6450   -2.1650 C   0  0  0  0  0  0  0  0  0  0  0  0
   -6.2060   -0.8720   -1.5430 C   0  0  0  0  0  0  0  0  0  0  0  0
   -6.0470    0.0170   -0.4150 N   0  0  0  0  0  0  0  0  0  0  0  0
   -4.8580    0.0170    0.3670 C   0  0  0  0  0  0  0  0  0  0  0  0
   -3.9070   -0.8390    0.0700 C   0  0  0  0  0  0  0  0  0  0  0  0
   -2.6440   -0.8990    0.8360 C   0  0  0  0  0  0  0  0  0  0  0  0
   -1.7510   -1.8170    0.4440 C   0  0  0  0  0  0  0  0  0  0  0  0
   -0.4470   -2.1150    0.9800 C   0  0  0  0  0  0  0  0  0  0  0  0
    0.7420   -1.5820    0.7870 C   0  0  0  0  0  0  0  0  0  0  0  0
    1.8950   -2.0630    1.4510 O   0  0  0  0  0  0  0  0  0  0  0  0
    2.2270   -3.4320    1.4450 C   0  0  1  0  0  0  0  0  0  0  0  0
    2.4470   -3.9840    0.0570 C   0  0  0  0  0  0  0  0  0  0  0  0
    3.3950   -3.7320    2.3610 C   0  0  0  0  0  0  0  0  0  0  0  0
    1.0570   -0.4460   -0.1180 C   0  0  0  0  0  0  0  0  0  0  0  0
    2.5140   -0.0770   -0.1600 C   0  0  1  0  0  0  0  0  0  0  0  0
    3.2060   -0.5850   -1.3970 C   0  0  0  0  0  0  0  0  0  0  0  0
    4.6580   -0.1670   -1.3460 C   0  0  0  0  0  0  0  0  0  0  0  0
    5.3110   -0.6760   -0.2210 O   0  0  0  0  0  0  0  0  0  0  0  0
    6.6200   -0.2610   -0.2350 C   0  0  0  0  0  0  0  0  0  0  0  0
    2.7510    1.4060   -0.0660 C   0  0  0  0  0  0  0  0  0  0  0  0
    2.4850    1.9940   -1.3000 O   0  0  0  0  0  0  0  0  0  0  0  0
    1.4300    3.3530   -1.1990 P   0  0  0  0  0  0  0  0  0  0  0  0
    1.6000    4.1330    0.3170 O   0  0  0  0  0  0  0  0  0  0  0  0
   -0.2930    2.8990   -1.6340 C   0  0  0  0  0  0  0  0  0  0  0  0
   -1.2770    3.2710   -0.6790 N   0  0  0  0  0  0  0  0  0  0  0  0
   -1.1990    4.5610   -0.1420 C   0  0  0  0  0  0  0  0  0  0  0  0
   -1.8110    2.2440    0.1460 C   0  0  0  0  0  0  0  0  0  0  0  0
   -1.1890    2.1650    1.5100 C   0  0  0  0  0  0  0  0  0  0  0  0
   -1.5250    0.9200    2.2520 C   0  0  0  0  0  0  0  0  0  0  0  0
   -0.7960    0.7020    3.2890 O   0  0  0  0  0  0  0  0  0  0  0  0
   -2.5420   -0.0070    1.9280 N   0  0  0  0  0  0  0  0  0  0  0  0
  1  2  1  0
  2  3  1  0
  3  4  1  0
  4  5  2  3
  5  6  1  0
  6  7  2  0
  6 31  1  0
  7  8  1  0
  8  9  2  0
  9 10  1  0
  9 14  1  0
 10 11  1  0
 11 12  1  6
 11 13  1  0
 14 15  1  0
 15 16  1  6
 15 20  1  0
 16 17  1  0
 17 18  1  0
 18 19  1  0
 20 21  1  0
 21 22  1  0
 22 23  1  0
 22 24  1  0
 24 25  1  0
 25 26  1  0
 25 27  1  0
 27 28  1  0
 28 29  1  0
 29 30  2  0
 29 31  1  0
M  END
