
     RDKit          3D

 31 32  0  0  0  0  0  0  0  0999 V2000
    8.6530    2.8420    0.3200 C   0  0  0  0  0  0  0  0  0  0  0  0
    7.2890    2.7120   -0.2290 C   0  0  0  0  0  0  0  0  0  0  0  0
    6.5600    1.5680   -0.0240 C   0  0  0  0  0  0  0  0  0  0  0  0
    7.2050    0.5180    0.7570 C   0  0  0  0  0  0  0  0  0  0  0  0
    5.2570    1.5340   -0.6090 C   0  0  0  0  0  0  0  0  0  0  0  0
    4.3560    0.6320   -0.5860 C   0  0  0  0  0  0  0  0  0  0  0  0
    4.2800   -0.6910    0.0240 C   0  0  2  0  0  0  0  0  0  0  0  0
    3.9310   -1.7910   -0.9770 C   0  0  0  0  0  0  0  0  0  0  0  0
    3.2110   -2.7580   -0.1010 C   0  0  0  0  0  0  0  0  0  0  0  0
    3.2150   -4.0140   -0.3050 O   0  0  0  0  0  0  0  0  0  0  0  0
    2.5560   -2.0670    0.9400 N   0  0  0  0  0  0  0  0  0  0  0  0
    1.5210   -2.4840    1.8370 C   0  0  0  0  0  0  0  0  0  0  0  0
    0.1560   -2.2170    1.2530 C   0  0  0  0  0  0  0  0  0  0  0  0
   -0.8820   -2.4590    1.9090 O   0  0  0  0  0  0  0  0  0  0  0  0
    0.0170   -1.6870   -0.0560 N   0  0  0  0  0  0  0  0  0  0  0  0
   -1.2600   -1.3990   -0.6550 C   0  0  0  0  0  0  0  0  0  0  0  0
   -1.4430   -1.5650   -2.0150 C   0  0  0  0  0  0  0  0  0  0  0  0
   -2.6160   -1.2680   -2.6130 C   0  0  0  0  0  0  0  0  0  0  0  0
   -3.6890   -0.7770   -1.8710 C   0  0  0  0  0  0  0  0  0  0  0  0
   -4.9420   -0.4330   -2.6360 C   0  0  0  0  0  0  0  0  0  0  0  0
   -3.5550   -0.5970   -0.5260 C   0  0  0  0  0  0  0  0  0  0  0  0
   -4.6320   -0.1160    0.3320 C   0  0  0  0  0  0  0  0  0  0  0  0
   -4.3400    0.5690    1.3850 O   0  0  0  0  0  0  0  0  0  0  0  0
   -5.9980   -0.3420    0.1090 N   0  0  0  0  0  0  0  0  0  0  0  0
   -7.0460    0.2030    0.9930 C   0  0  0  0  0  0  0  0  0  0  0  0
   -6.9560    1.6890    0.9230 C   0  0  0  0  0  0  0  0  0  0  0  0
   -8.2180    2.5730    1.9550 P   0  0  0  0  0  0  0  0  0  0  0  0
   -9.8300    2.0400    1.5950 O   0  0  0  0  0  0  0  0  0  0  0  0
   -8.0890    4.2730    1.5210 O   0  0  0  0  0  0  0  0  0  0  0  0
   -2.3200   -0.9190    0.0570 C   0  0  0  0  0  0  0  0  0  0  0  0
    3.1250   -0.7160    1.0210 C   0  0  0  0  0  0  0  0  0  0  0  0
  1  2  1  0
  2  3  2  3
  3  4  1  0
  3  5  1  0
  5  6  2  3
  7  6  1  6
  7  8  1  0
  7 31  1  0
  8  9  1  0
  9 10  2  0
  9 11  1  0
 11 12  1  0
 11 31  1  0
 12 13  1  0
 13 14  2  0
 13 15  1  0
 15 16  1  0
 16 17  2  0
 16 30  1  0
 17 18  1  0
 18 19  2  0
 19 20  1  0
 19 21  1  0
 21 22  1  0
 21 30  2  0
 22 23  2  0
 22 24  1  0
 24 25  1  0
 25 26  1  0
 26 27  1  0
 27 28  1  0
 27 29  1  0
M  END
