
     RDKit          3D

 31 32  0  0  0  0  0  0  0  0999 V2000
    6.2640   -4.4860    0.4460 C   0  0  0  0  0  0  0  0  0  0  0  0
    5.5660   -3.1360    0.3160 C   0  0  0  0  0  0  0  0  0  0  0  0
    6.4070   -2.1710    0.8310 O   0  0  0  0  0  0  0  0  0  0  0  0
    5.7650   -0.5870    0.7590 P   0  0  0  0  0  0  0  0  0  0  0  0
    4.1110   -0.5280   -0.1180 C   0  0  0  0  0  0  0  0  0  0  0  0
    3.5890    0.7160    0.1080 O   0  0  0  0  0  0  0  0  0  0  0  0
    2.3390    0.9430   -0.4820 C   0  0  2  0  0  0  0  0  0  0  0  0
    2.3070    2.0350   -1.4810 C   0  0  0  0  0  0  0  0  0  0  0  0
    1.3930    1.2270    0.6580 C   0  0  0  0  0  0  0  0  0  0  0  0
    0.1070    1.5210    0.2360 N   0  0  0  0  0  0  0  0  0  0  0  0
   -0.8920    1.8480    1.1740 C   0  0  0  0  0  0  0  0  0  0  0  0
   -1.7840    0.6630    1.4280 C   0  0  0  0  0  0  0  0  0  0  0  0
   -2.4080    0.2170    0.1540 C   0  0  0  0  0  0  0  0  0  0  0  0
   -3.6450   -0.3810    0.2210 N   0  0  0  0  0  0  0  0  0  0  0  0
   -4.8160   -0.1330   -0.0620 C   0  0  0  0  0  0  0  0  0  0  0  0
   -5.2990    1.0950   -0.6570 C   0  0  0  0  0  0  0  0  0  0  0  0
   -4.4030    2.2320   -0.9900 C   0  0  0  0  0  0  0  0  0  0  0  0
   -6.5860    1.2420   -0.9210 C   0  0  0  0  0  0  0  0  0  0  0  0
   -7.5690    0.2210   -0.6430 C   0  0  0  0  0  0  0  0  0  0  0  0
   -7.2330   -0.9540   -0.0940 C   0  0  0  0  0  0  0  0  0  0  0  0
   -5.8420   -1.1840    0.2210 C   0  0  0  0  0  0  0  0  0  0  0  0
   -5.4310   -2.3100    0.7620 C   0  0  0  0  0  0  0  0  0  0  0  0
   -6.1860   -3.4640    1.1320 C   0  0  0  0  0  0  0  0  0  0  0  0
   -7.5800   -3.6260    0.9810 N   0  0  0  0  0  0  0  0  0  0  0  0
   -5.5400   -4.4580    1.6530 O   0  0  0  0  0  0  0  0  0  0  0  0
   -1.7080    0.4060   -0.9410 C   0  0  0  0  0  0  0  0  0  0  0  0
   -2.2360    0.0120   -2.1590 O   0  0  0  0  0  0  0  0  0  0  0  0
   -0.3400    1.0330   -0.9750 C   0  0  0  0  0  0  0  0  0  0  0  0
    6.8620    0.5640    0.0650 O   0  0  0  0  0  0  0  0  0  0  0  0
    6.6570    1.7740    0.7370 C   0  0  0  0  0  0  0  0  0  0  0  0
    7.5950    2.7900    0.1540 C   0  0  0  0  0  0  0  0  0  0  0  0
  1  2  1  0
  2  3  1  0
  3  4  1  0
  4  5  1  0
  4 29  1  0
  5  6  1  0
  6  7  1  0
  7  8  1  6
  7  9  1  0
  9 10  1  0
 10 11  1  0
 10 28  1  0
 11 12  1  0
 12 13  1  0
 13 14  1  0
 13 26  2  0
 14 15  2  3
 15 16  1  0
 15 21  1  0
 16 17  1  0
 16 18  2  0
 18 19  1  0
 19 20  2  0
 20 21  1  0
 21 22  2  3
 22 23  1  0
 23 24  1  0
 23 25  2  0
 26 27  1  0
 26 28  1  0
 29 30  1  0
 30 31  1  0
M  END
