
     RDKit          3D

 30 30  0  0  0  0  0  0  0  0999 V2000
    5.1470   -0.2740    3.9070 C   0  0  0  0  0  0  0  0  0  0  0  0
    4.4340    0.4870    2.8750 C   0  0  0  0  0  0  0  0  0  0  0  0
    4.4740    0.1550    1.5770 C   0  0  0  0  0  0  0  0  0  0  0  0
    5.2670   -1.0260    1.1610 C   0  0  0  0  0  0  0  0  0  0  0  0
    3.7510    0.9430    0.6240 C   0  0  0  0  0  0  0  0  0  0  0  0
    3.6520    0.8030   -0.6710 C   0  0  0  0  0  0  0  0  0  0  0  0
    4.3060   -0.2390   -1.3620 N   0  0  0  0  0  0  0  0  0  0  0  0
    5.3290    0.0450   -2.3730 C   0  0  0  0  0  0  0  0  0  0  0  0
    5.8830   -1.2590   -2.9460 C   0  0  0  0  0  0  0  0  0  0  0  0
    4.8380   -1.9900   -3.5410 O   0  0  0  0  0  0  0  0  0  0  0  0
    2.8480    1.7370   -1.4000 N   0  0  0  0  0  0  0  0  0  0  0  0
    3.4670    2.5730   -2.3970 C   0  0  0  0  0  0  0  0  0  0  0  0
    1.4550    1.8570   -1.1520 C   0  0  0  0  0  0  0  0  0  0  0  0
    0.8250    2.7090   -1.8210 O   0  0  0  0  0  0  0  0  0  0  0  0
    0.7840    1.0570   -0.1930 N   0  0  0  0  0  0  0  0  0  0  0  0
   -0.5880    1.1140    0.1090 C   0  0  0  0  0  0  0  0  0  0  0  0
   -1.5260    1.8490   -0.5450 C   0  0  0  0  0  0  0  0  0  0  0  0
   -2.8780    1.8450   -0.1570 C   0  0  0  0  0  0  0  0  0  0  0  0
   -3.3080    1.0910    0.9080 C   0  0  0  0  0  0  0  0  0  0  0  0
   -4.7430    1.1040    1.2980 C   0  0  0  0  0  0  0  0  0  0  0  0
   -5.6020   -0.2320    0.3770 P   0  0  0  0  0  0  0  0  0  0  0  0
   -5.8600   -1.6590    1.2850 O   0  0  0  0  0  0  0  0  0  0  0  0
   -5.8950   -1.3880    2.6580 C   0  0  0  0  0  0  0  0  0  0  0  0
   -6.1200   -2.6150    3.4780 C   0  0  0  0  0  0  0  0  0  0  0  0
   -4.9370   -0.5160   -1.1750 O   0  0  0  0  0  0  0  0  0  0  0  0
   -5.8950   -1.1260   -1.9730 C   0  0  1  0  0  0  0  0  0  0  0  0
   -6.1600   -0.3050   -3.2150 C   0  0  0  0  0  0  0  0  0  0  0  0
   -5.4320   -2.3860   -2.3680 O   0  0  0  0  0  0  0  0  0  0  0  0
   -2.3680    0.3410    1.5790 C   0  0  0  0  0  0  0  0  0  0  0  0
   -1.0450    0.3570    1.1860 C   0  0  0  0  0  0  0  0  0  0  0  0
  1  2  1  0
  2  3  2  3
  3  4  1  0
  3  5  1  0
  5  6  2  3
  6  7  1  0
  6 11  1  0
  7  8  1  0
  8  9  1  0
  9 10  1  0
 11 12  1  0
 11 13  1  0
 13 14  2  0
 13 15  1  0
 15 16  1  0
 16 17  2  0
 16 30  1  0
 17 18  1  0
 18 19  2  0
 19 20  1  0
 19 29  1  0
 20 21  1  0
 21 22  1  0
 21 25  1  0
 22 23  1  0
 23 24  1  0
 25 26  1  0
 26 27  1  6
 26 28  1  0
 29 30  2  0
M  END
