
     RDKit          3D

 14 13  0  0  0  0  0  0  0  0999 V2000
   -1.3650    1.0070   -1.7530 C   0  0  0  0  0  0  0  0  0  0  0  0
   -1.1410    0.2640   -0.5170 N   0  0  0  0  0  0  0  0  0  0  0  0
   -0.1320    0.8700    0.3030 C   0  0  0  0  0  0  0  0  0  0  0  0
    1.2460    0.8000   -0.2660 C   0  0  2  0  0  0  0  0  0  0  0  0
    1.4080    1.4110   -1.4990 O   0  0  0  0  0  0  0  0  0  0  0  0
    1.8560   -0.9420   -0.3920 P   0  0  0  0  0  0  0  0  0  0  0  0
    1.6640   -1.5710   -1.9900 O   0  0  0  0  0  0  0  0  0  0  0  0
    3.9630   -1.1160    0.1920 P   0  0  0  0  0  0  0  0  0  0  0  0
    4.0700   -2.1480    1.5840 O   0  0  0  0  0  0  0  0  0  0  0  0
    4.6820    0.4280    0.4890 O   0  0  0  0  0  0  0  0  0  0  0  0
   -2.4090    0.2450    0.1750 C   0  0  2  0  0  0  0  0  0  0  0  0
   -2.6710    1.5600    0.5610 O   0  0  0  0  0  0  0  0  0  0  0  0
   -2.4410   -0.5910    1.4100 C   0  0  0  0  0  0  0  0  0  0  0  0
   -2.1580   -1.9390    1.1820 O   0  0  0  0  0  0  0  0  0  0  0  0
  1  2  1  0
  2  3  1  0
  2 11  1  0
  3  4  1  0
  4  5  1  6
  4  6  1  0
  6  7  1  0
  6  8  1  0
  8  9  1  0
  8 10  1  0
 11 12  1  1
 11 13  1  0
 13 14  1  0
M  END
