
     RDKit          3D

 13 12  0  0  0  0  0  0  0  0999 V2000
   -3.1850    1.6270    0.4180 C   0  0  0  0  0  0  0  0  0  0  0  0
   -1.9520    0.9310   -0.1500 C   0  0  0  0  0  0  0  0  0  0  0  0
   -2.0170   -0.3910    0.2520 O   0  0  0  0  0  0  0  0  0  0  0  0
   -0.7030   -1.3470   -0.2960 P   0  0  0  0  0  0  0  0  0  0  0  0
    0.2360   -0.5850   -1.6800 C   0  0  0  0  0  0  0  0  0  0  0  0
    1.6980   -0.3300   -1.3210 C   0  0  0  0  0  0  0  0  0  0  0  0
    1.7220    0.5350   -0.2270 O   0  0  0  0  0  0  0  0  0  0  0  0
    2.9340    0.9410    0.3160 C   0  0  0  0  0  0  0  0  0  0  0  0
    3.9940    0.5070   -0.2030 O   0  0  0  0  0  0  0  0  0  0  0  0
    2.9760    1.7860    1.3850 O   0  0  0  0  0  0  0  0  0  0  0  0
    0.3280   -1.8310    1.0320 O   0  0  0  0  0  0  0  0  0  0  0  0
   -0.0580   -2.9330    1.7980 C   0  0  0  0  0  0  0  0  0  0  0  0
   -1.1180   -3.5620    1.5410 O   0  0  0  0  0  0  0  0  0  0  0  0
  1  2  1  0
  2  3  1  0
  3  4  1  0
  4  5  1  0
  4 11  1  0
  5  6  1  0
  6  7  1  0
  7  8  1  0
  8  9  2  0
  8 10  1  0
 11 12  1  0
 12 13  2  0
M  END
