
     RDKit          3D

 13 12  0  0  0  0  0  0  0  0999 V2000
   -1.8550   -1.3500    1.0890 C   0  0  0  0  0  0  0  0  0  0  0  0
   -1.1300   -1.0420    0.0020 O   0  0  0  0  0  0  0  0  0  0  0  0
   -0.5800    0.1800   -0.1770 C   0  0  2  0  0  0  0  0  0  0  0  0
    0.2660    0.6260    0.9970 C   0  0  0  0  0  0  0  0  0  0  0  0
   -1.6920    1.2780   -0.3220 C   0  0  0  0  0  0  0  0  0  0  0  0
   -2.4380    1.3700    0.8130 O   0  0  0  0  0  0  0  0  0  0  0  0
   -3.6810    2.5460    0.7470 P   0  0  0  0  0  0  0  0  0  0  0  0
   -3.4040    4.0600    0.9580 O   0  0  0  0  0  0  0  0  0  0  0  0
    0.1010    0.2050   -1.3520 O   0  0  0  0  0  0  0  0  0  0  0  0
    1.1020   -0.6070   -1.6610 C   0  0  0  0  0  0  0  0  0  0  0  0
    2.3380   -0.5960   -0.8080 C   0  0  0  0  0  0  0  0  0  0  0  0
    3.2840   -1.5270   -1.3270 O   0  0  0  0  0  0  0  0  0  0  0  0
    4.3540   -1.4950   -0.5620 O   0  0  0  0  0  0  0  0  0  0  0  0
  1  2  1  0
  2  3  1  0
  3  4  1  1
  3  5  1  0
  3  9  1  0
  5  6  1  0
  6  7  1  0
  7  8  2  0
  9 10  1  0
 10 11  1  0
 11 12  1  0
 12 13  1  0
M  END
