
     RDKit          3D

 13 12  0  0  0  0  0  0  0  0999 V2000
    0.6850    0.8880    0.7270 C   0  0  0  0  0  0  0  0  0  0  0  0
    0.6130   -0.3340   -0.1850 C   0  0  1  0  0  0  0  0  0  0  0  0
    1.8630   -1.1470    0.0740 C   0  0  0  0  0  0  0  0  0  0  0  0
    3.0350   -0.4070   -0.2100 O   0  0  0  0  0  0  0  0  0  0  0  0
    4.3060   -0.9290   -0.0530 C   0  0  0  0  0  0  0  0  0  0  0  0
    4.4100   -2.1130    0.3590 O   0  0  0  0  0  0  0  0  0  0  0  0
    5.4570   -0.1850   -0.3370 O   0  0  0  0  0  0  0  0  0  0  0  0
   -0.5650   -1.1910    0.2130 C   0  0  0  0  0  0  0  0  0  0  0  0
   -2.1730   -0.3470    0.1030 P   0  0  0  0  0  0  0  0  0  0  0  0
   -2.5240    0.7000    1.4120 O   0  0  0  0  0  0  0  0  0  0  0  0
   -2.5410    0.2980   -1.4290 O   0  0  0  0  0  0  0  0  0  0  0  0
   -3.9330    0.3370   -1.5780 C   0  0  0  0  0  0  0  0  0  0  0  0
   -4.5320    1.1280   -0.6040 O   0  0  0  0  0  0  0  0  0  0  0  0
  2  1  1  1
  2  3  1  0
  2  8  1  0
  3  4  1  0
  4  5  1  0
  5  6  2  0
  5  7  1  0
  8  9  1  0
  9 10  1  0
  9 11  1  0
 11 12  1  0
 12 13  1  0
M  END
