
     RDKit          3D

 13 12  0  0  0  0  0  0  0  0999 V2000
   -2.3200    1.2010   -0.5610 C   0  0  0  0  0  0  0  0  0  0  0  0
   -2.0990   -0.2820   -0.3860 C   0  0  2  0  0  0  0  0  0  0  0  0
   -2.5520   -0.7340    0.9210 C   0  0  0  0  0  0  0  0  0  0  0  0
   -2.5730   -1.9400    1.2990 O   0  0  0  0  0  0  0  0  0  0  0  0
   -2.9930    0.2030    1.8680 O   0  0  0  0  0  0  0  0  0  0  0  0
   -0.6760   -0.5180   -0.6990 C   0  0  0  0  0  0  0  0  0  0  0  0
   -0.1720   -1.2430   -1.5500 O   0  0  0  0  0  0  0  0  0  0  0  0
    0.1850    0.2850    0.1600 O   0  0  0  0  0  0  0  0  0  0  0  0
    1.4920    0.3000    0.0210 C   0  0  0  0  0  0  0  0  0  0  0  0
    2.4310   -0.9130    0.3140 C   0  0  0  0  0  0  0  0  0  0  0  0
    3.6810   -0.3170   -0.0430 O   0  0  0  0  0  0  0  0  0  0  0  0
    4.6970   -0.1020    1.4200 P   0  0  0  0  0  0  0  0  0  0  0  0
    5.7210    1.1150    1.3920 O   0  0  0  0  0  0  0  0  0  0  0  0
  2  1  1  1
  2  3  1  0
  2  6  1  0
  3  4  2  0
  3  5  1  0
  6  7  2  0
  6  8  1  0
  8  9  1  0
  9 10  1  0
 10 11  1  0
 11 12  1  0
 12 13  2  0
M  END
