
     RDKit          3D

 28 28  0  0  0  0  0  0  0  0999 V2000
    7.6730   -1.9320   -1.8860 C   0  0  0  0  0  0  0  0  0  0  0  0
    6.7910   -0.7490   -1.6200 C   0  0  0  0  0  0  0  0  0  0  0  0
    5.5730   -0.9140   -2.2900 O   0  0  0  0  0  0  0  0  0  0  0  0
    4.5350    0.4670   -1.9800 P   0  0  0  0  0  0  0  0  0  0  0  0
    3.3670    0.5940   -3.2830 O   0  0  0  0  0  0  0  0  0  0  0  0
    3.6400    0.0940   -0.5500 O   0  0  0  0  0  0  0  0  0  0  0  0
    2.6900    1.0700   -0.2300 C   0  0  0  0  0  0  0  0  0  0  0  0
    2.0200    0.5510    1.0470 C   0  0  0  0  0  0  0  0  0  0  0  0
    1.0090    1.5080    1.4360 N   0  0  0  0  0  0  0  0  0  0  0  0
   -0.1330    1.6260    0.6040 C   0  0  0  0  0  0  0  0  0  0  0  0
   -0.2260    2.7300   -0.1010 C   0  0  0  0  0  0  0  0  0  0  0  0
    0.8300    3.7480    0.0180 C   0  0  0  0  0  0  0  0  0  0  0  0
    0.7310    4.8390   -0.6930 C   0  0  0  0  0  0  0  0  0  0  0  0
   -0.4140    5.0470   -1.5970 C   0  0  0  0  0  0  0  0  0  0  0  0
    1.7740    5.8860   -0.6000 C   0  0  0  0  0  0  0  0  0  0  0  0
   -1.0970    0.5670    0.4800 C   0  0  0  0  0  0  0  0  0  0  0  0
   -1.9390    0.5770   -0.6450 C   0  0  0  0  0  0  0  0  0  0  0  0
   -2.8800   -0.3470   -0.8040 N   0  0  0  0  0  0  0  0  0  0  0  0
   -3.1100   -1.3660    0.0870 C   0  0  0  0  0  0  0  0  0  0  0  0
   -4.1960   -2.3030   -0.2540 C   0  0  1  0  0  0  0  0  0  0  0  0
   -3.7810   -3.1180   -1.4620 C   0  0  0  0  0  0  0  0  0  0  0  0
   -4.9650   -2.9140    0.7120 N   0  0  0  0  0  0  0  0  0  0  0  0
   -4.5920   -4.0560    1.4190 C   0  0  0  0  0  0  0  0  0  0  0  0
   -5.7120   -4.5270    2.3820 C   0  0  0  0  0  0  0  0  0  0  0  0
   -5.9970   -3.5230    3.2990 O   0  0  0  0  0  0  0  0  0  0  0  0
   -2.3230   -1.4140    1.1860 C   0  0  0  0  0  0  0  0  0  0  0  0
   -1.3230   -0.4420    1.3710 C   0  0  0  0  0  0  0  0  0  0  0  0
   -0.5550   -0.5200    2.6350 C   0  0  0  0  0  0  0  0  0  0  0  0
  1  2  1  0
  2  3  1  0
  3  4  1  0
  4  5  1  0
  4  6  1  0
  6  7  1  0
  7  8  1  0
  8  9  1  0
  9 10  1  0
 10 11  2  3
 10 16  1  0
 11 12  1  0
 12 13  2  3
 13 14  1  0
 13 15  1  0
 16 17  2  0
 16 27  1  0
 17 18  1  0
 18 19  2  0
 19 20  1  0
 19 26  1  0
 20 21  1  1
 20 22  1  0
 22 23  1  0
 23 24  1  0
 24 25  1  0
 26 27  2  0
 27 28  1  0
M  END
