
     RDKit          3D

 29 29  0  0  0  0  0  0  0  0999 V2000
    1.9080    1.3590   -3.6480 C   0  0  0  0  0  0  0  0  0  0  0  0
    1.3020    0.5500   -2.6330 O   0  0  0  0  0  0  0  0  0  0  0  0
    1.3980    0.8670   -1.2870 C   0  0  0  0  0  0  0  0  0  0  0  0
    1.9080    1.9740   -0.9530 N   0  0  0  0  0  0  0  0  0  0  0  0
    2.1050    2.4910    0.2750 O   0  0  0  0  0  0  0  0  0  0  0  0
    1.4910    3.6210    0.8080 C   0  0  2  0  0  0  0  0  0  0  0  0
    1.9650    3.9110    2.2300 C   0  0  0  0  0  0  0  0  0  0  0  0
   -0.0070    3.3540    0.8910 C   0  0  0  0  0  0  0  0  0  0  0  0
    1.7080    4.8660   -0.0020 C   0  0  0  0  0  0  0  0  0  0  0  0
    0.8710   -0.1670   -0.3280 C   0  0  2  0  0  0  0  0  0  0  0  0
    1.6950   -1.4280   -0.4760 C   0  0  0  0  0  0  0  0  0  0  0  0
    3.1420   -1.1200   -0.1590 C   0  0  0  0  0  0  0  0  0  0  0  0
    3.9090   -2.4380   -0.3310 C   0  0  0  0  0  0  0  0  0  0  0  0
    3.4250   -3.4480    0.5400 N   0  0  0  0  0  0  0  0  0  0  0  0
    3.6690   -3.1900    1.9060 C   0  0  0  0  0  0  0  0  0  0  0  0
    5.1010   -3.2520    2.3340 C   0  0  0  0  0  0  0  0  0  0  0  0
    5.8970   -2.3370    1.6740 O   0  0  0  0  0  0  0  0  0  0  0  0
   -0.4930   -0.4000   -0.7320 N   0  0  0  0  0  0  0  0  0  0  0  0
   -1.5440   -0.1130    0.1460 C   0  0  0  0  0  0  0  0  0  0  0  0
   -1.2540    0.3500    1.2910 O   0  0  0  0  0  0  0  0  0  0  0  0
   -2.9610   -0.3160   -0.1840 C   0  0  0  0  0  0  0  0  0  0  0  0
   -3.3730   -0.8760   -1.3670 C   0  0  0  0  0  0  0  0  0  0  0  0
   -4.7150   -1.0650   -1.6820 C   0  0  0  0  0  0  0  0  0  0  0  0
   -5.6940   -0.6840   -0.7910 C   0  0  0  0  0  0  0  0  0  0  0  0
   -7.4820   -0.9160   -1.1720 P   0  0  0  0  0  0  0  0  0  0  0  0
   -8.3570   -1.5030    0.3480 C   0  0  0  0  0  0  0  0  0  0  0  0
   -7.6920   -2.1270   -2.4000 O   0  0  0  0  0  0  0  0  0  0  0  0
   -5.2800   -0.1220    0.3970 C   0  0  0  0  0  0  0  0  0  0  0  0
   -3.9530    0.0660    0.7120 C   0  0  0  0  0  0  0  0  0  0  0  0
  1  2  1  0
  2  3  1  0
  3  4  2  3
  3 10  1  0
  4  5  1  0
  5  6  1  0
  6  7  1  1
  6  8  1  0
  6  9  1  0
 10 11  1  6
 10 18  1  0
 11 12  1  0
 12 13  1  0
 13 14  1  0
 14 15  1  0
 15 16  1  0
 16 17  1  0
 18 19  1  0
 19 20  2  0
 19 21  1  0
 21 22  2  0
 21 29  1  0
 22 23  1  0
 23 24  2  0
 24 25  1  0
 24 28  1  0
 25 26  1  0
 25 27  1  0
 28 29  2  0
M  END
