
     RDKit          3D

 28 28  0  0  0  0  0  0  0  0999 V2000
    6.6550    4.2220   -0.8730 C   0  0  0  0  0  0  0  0  0  0  0  0
    6.0400    2.9080   -0.5220 C   0  0  0  0  0  0  0  0  0  0  0  0
    4.8290    2.6840   -1.1720 O   0  0  0  0  0  0  0  0  0  0  0  0
    4.1230    1.1800   -0.7720 P   0  0  0  0  0  0  0  0  0  0  0  0
    3.3510    1.1360    0.8790 C   0  0  0  0  0  0  0  0  0  0  0  0
    2.1420    0.3620    0.9450 N   0  0  0  0  0  0  0  0  0  0  0  0
    1.5960    0.3610    2.2220 C   0  0  0  0  0  0  0  0  0  0  0  0
    0.1360    0.5430    2.3700 C   0  0  0  0  0  0  0  0  0  0  0  0
   -0.5610   -0.1690    1.2290 C   0  0  1  0  0  0  0  0  0  0  0  0
   -2.0290   -0.1550    1.3970 C   0  0  0  0  0  0  0  0  0  0  0  0
   -2.5040    0.4150    2.4120 O   0  0  0  0  0  0  0  0  0  0  0  0
   -2.9310   -0.7440    0.4830 N   0  0  0  0  0  0  0  0  0  0  0  0
   -4.3930   -0.7100    0.6850 C   0  0  0  0  0  0  0  0  0  0  0  0
   -5.0880   -1.4090   -0.4350 C   0  0  0  0  0  0  0  0  0  0  0  0
   -6.5490   -1.4670   -0.3220 C   0  0  0  0  0  0  0  0  0  0  0  0
   -7.3550   -0.2340   -0.2780 C   0  0  1  0  0  0  0  0  0  0  0  0
   -7.1440    0.7250    0.8270 C   0  0  0  0  0  0  0  0  0  0  0  0
   -7.2820    0.5200   -1.6260 C   0  0  0  0  0  0  0  0  0  0  0  0
   -8.7160   -0.6570   -0.2310 O   0  0  0  0  0  0  0  0  0  0  0  0
   -0.1180    0.5770   -0.0220 C   0  0  0  0  0  0  0  0  0  0  0  0
    1.3490    0.3280   -0.1920 C   0  0  2  0  0  0  0  0  0  0  0  0
    1.5020   -0.9850   -0.8830 C   0  0  0  0  0  0  0  0  0  0  0  0
    0.8490   -1.1840   -1.9380 O   0  0  0  0  0  0  0  0  0  0  0  0
    2.3490   -2.0140   -0.4030 N   0  0  0  0  0  0  0  0  0  0  0  0
    2.4550   -3.2630   -1.1170 C   0  0  0  0  0  0  0  0  0  0  0  0
    5.0530   -0.1820   -1.1740 O   0  0  0  0  0  0  0  0  0  0  0  0
    5.8120   -0.6870   -0.1280 C   0  0  0  0  0  0  0  0  0  0  0  0
    6.6170   -1.8970   -0.5460 C   0  0  0  0  0  0  0  0  0  0  0  0
  1  2  1  0
  2  3  1  0
  3  4  1  0
  4  5  1  0
  4 26  1  0
  5  6  1  0
  6  7  1  0
  6 21  1  0
  7  8  1  0
  8  9  1  0
  9 10  1  1
  9 20  1  0
 10 11  2  0
 10 12  1  0
 12 13  1  0
 13 14  1  0
 14 15  1  0
 15 16  1  0
 16 17  1  1
 16 18  1  0
 16 19  1  0
 20 21  1  0
 21 22  1  1
 22 23  2  0
 22 24  1  0
 24 25  1  0
 26 27  1  0
 27 28  1  0
M  END
