
     RDKit          3D

 28 29  0  0  0  0  0  0  0  0999 V2000
    0.1390   -0.7770    1.0710 O   0  0  0  0  0  0  0  0  0  0  0  0
    0.0930   -0.6350   -0.2040 C   0  0  0  0  0  0  0  0  0  0  0  0
   -1.0860   -0.0480   -0.7590 N   0  0  0  0  0  0  0  0  0  0  0  0
   -2.1460    0.3430    0.2210 C   0  0  1  0  0  0  0  0  0  0  0  0
   -2.2970    1.8110   -0.0420 C   0  0  0  0  0  0  0  0  0  0  0  0
   -3.2170    2.5500    0.6740 O   0  0  0  0  0  0  0  0  0  0  0  0
   -3.3150    3.9090    0.4310 C   0  0  0  0  0  0  0  0  0  0  0  0
   -2.5450    4.4350   -0.4420 O   0  0  0  0  0  0  0  0  0  0  0  0
   -4.2050    4.7390    1.0770 O   0  0  0  0  0  0  0  0  0  0  0  0
   -4.2590    6.0530    0.7900 O   0  0  0  0  0  0  0  0  0  0  0  0
   -3.2990   -0.4940   -0.2140 C   0  0  0  0  0  0  0  0  0  0  0  0
   -4.3330   -0.0080   -0.6390 O   0  0  0  0  0  0  0  0  0  0  0  0
   -3.0980   -1.8810   -0.1120 N   0  0  0  0  0  0  0  0  0  0  0  0
   -4.0610   -2.8780   -0.4480 C   0  0  0  0  0  0  0  0  0  0  0  0
   -5.1540   -2.9270    0.5580 C   0  0  0  0  0  0  0  0  0  0  0  0
   -6.0850   -3.9210    0.1550 O   0  0  0  0  0  0  0  0  0  0  0  0
   -6.9570   -4.0360    1.1710 O   0  0  0  0  0  0  0  0  0  0  0  0
    1.1480   -1.0440   -0.9380 O   0  0  0  0  0  0  0  0  0  0  0  0
    2.2930   -1.5940   -0.3930 O   0  0  0  0  0  0  0  0  0  0  0  0
    3.4160   -0.7240   -0.4030 C   0  0  0  0  0  0  0  0  0  0  0  0
    3.3360    0.5140   -0.0710 N   0  0  0  0  0  0  0  0  0  0  0  0
    4.5510    1.1290   -0.1680 O   0  0  0  0  0  0  0  0  0  0  0  0
    5.4960    0.0850   -0.3440 C   0  0  2  0  0  0  0  0  0  0  0  0
    6.2140   -0.1820    0.9870 C   0  0  0  0  0  0  0  0  0  0  0  0
    7.3230    0.8750    0.8500 C   0  0  0  0  0  0  0  0  0  0  0  0
    7.7840    0.5740   -0.4500 O   0  0  0  0  0  0  0  0  0  0  0  0
    6.6360    0.4350   -1.2340 C   0  0  0  0  0  0  0  0  0  0  0  0
    4.7170   -1.0020   -0.7510 O   0  0  0  0  0  0  0  0  0  0  0  0
  1  2  2  0
  2  3  1  0
  2 18  1  0
  3  4  1  0
  4  5  1  6
  4 11  1  0
  5  6  1  0
  6  7  1  0
  7  8  2  0
  7  9  1  0
  9 10  1  0
 11 12  2  0
 11 13  1  0
 13 14  1  0
 14 15  1  0
 15 16  1  0
 16 17  1  0
 18 19  1  0
 19 20  1  0
 20 21  2  0
 20 28  1  0
 21 22  1  0
 22 23  1  0
 23 24  1  1
 23 27  1  0
 23 28  1  0
 24 25  1  0
 25 26  1  0
 26 27  1  0
M  END
