
     RDKit          3D

 29 29  0  0  0  0  0  0  0  0999 V2000
   -4.6800   -2.0850   -2.4120 C   0  0  0  0  0  0  0  0  0  0  0  0
   -3.6130   -1.6810   -1.6440 C   0  0  0  0  0  0  0  0  0  0  0  0
   -2.4220   -2.1460   -2.0320 O   0  0  0  0  0  0  0  0  0  0  0  0
   -3.8940   -0.8120   -0.5230 C   0  0  0  0  0  0  0  0  0  0  0  0
   -3.0240   -0.3310    0.3130 C   0  0  0  0  0  0  0  0  0  0  0  0
   -1.6190   -0.6020    0.2400 C   0  0  0  0  0  0  0  0  0  0  0  0
   -0.6110   -0.2260    0.9580 C   0  0  0  0  0  0  0  0  0  0  0  0
    0.7060   -0.7570    0.5180 N   0  0  0  0  0  0  0  0  0  0  0  0
    1.2590   -0.1090   -0.4440 C   0  0  0  0  0  0  0  0  0  0  0  0
    2.5340   -0.4250   -1.0500 C   0  0  0  0  0  0  0  0  0  0  0  0
    3.2690   -1.5480   -0.6520 C   0  0  0  0  0  0  0  0  0  0  0  0
    4.4820   -1.8760   -1.2410 C   0  0  0  0  0  0  0  0  0  0  0  0
    5.0020   -1.1000   -2.2460 C   0  0  0  0  0  0  0  0  0  0  0  0
    6.1880   -1.3590   -2.8730 O   0  0  0  0  0  0  0  0  0  0  0  0
    7.0220   -2.4170   -2.5960 C   0  0  0  0  0  0  0  0  0  0  0  0
    4.2480    0.0300   -2.6370 C   0  0  0  0  0  0  0  0  0  0  0  0
    3.0500    0.3680   -2.0640 C   0  0  0  0  0  0  0  0  0  0  0  0
    2.3250    1.6140   -2.5170 C   0  0  0  0  0  0  0  0  0  0  0  0
   -0.5380    0.6110    2.1800 C   0  0  1  0  0  0  0  0  0  0  0  0
   -0.6170   -0.2150    3.3670 N   0  0  0  0  0  0  0  0  0  0  0  0
    0.7350    1.4120    2.1800 C   0  0  0  0  0  0  0  0  0  0  0  0
    0.8900    2.2950    1.3120 O   0  0  0  0  0  0  0  0  0  0  0  0
    1.7570    1.1890    3.1380 N   0  0  0  0  0  0  0  0  0  0  0  0
    3.0050    1.9580    3.1690 C   0  0  0  0  0  0  0  0  0  0  0  0
   -3.5850    0.5380    1.4000 C   0  0  0  0  0  0  0  0  0  0  0  0
   -5.4500    0.6820    1.2780 P   0  0  0  0  0  0  0  0  0  0  0  0
   -6.2000    0.5560    2.8330 O   0  0  0  0  0  0  0  0  0  0  0  0
   -5.9330    2.1870    0.5600 O   0  0  0  0  0  0  0  0  0  0  0  0
   -5.8930    2.1850   -0.8160 C   0  0  0  0  0  0  0  0  0  0  0  0
  1  2  2  0
  2  3  1  0
  2  4  1  0
  4  5  2  3
  5  6  1  0
  5 25  1  0
  6  7  2  3
  7  8  1  0
  7 19  1  0
  8  9  2  3
  9 10  1  0
 10 11  2  0
 10 17  1  0
 11 12  1  0
 12 13  2  0
 13 14  1  0
 13 16  1  0
 14 15  1  0
 16 17  2  0
 17 18  1  0
 19 20  1  1
 19 21  1  0
 21 22  2  0
 21 23  1  0
 23 24  1  0
 25 26  1  0
 26 27  1  0
 26 28  1  0
 28 29  1  0
M  END
