
     RDKit          3D

 28 28  0  0  0  0  0  0  0  0999 V2000
    8.3290   -0.6720   -2.0930 C   0  0  0  0  0  0  0  0  0  0  0  0
    7.3150   -0.1410   -1.1130 C   0  0  0  0  0  0  0  0  0  0  0  0
    6.4050   -1.1430   -0.7470 O   0  0  0  0  0  0  0  0  0  0  0  0
    5.2340   -0.5770    0.3700 P   0  0  0  0  0  0  0  0  0  0  0  0
    3.6940   -0.0070   -0.4700 C   0  0  0  0  0  0  0  0  0  0  0  0
    3.6710   -0.5860   -1.8680 C   0  0  0  0  0  0  0  0  0  0  0  0
    2.4260   -0.1560   -2.6200 C   0  0  0  0  0  0  0  0  0  0  0  0
    1.2470   -0.6100   -1.9220 N   0  0  0  0  0  0  0  0  0  0  0  0
   -0.0370   -0.3080   -2.4680 C   0  0  0  0  0  0  0  0  0  0  0  0
   -0.0870    0.3440   -3.5360 O   0  0  0  0  0  0  0  0  0  0  0  0
   -1.2850   -0.7480   -1.7960 C   0  0  1  0  0  0  0  0  0  0  0  0
   -0.9650   -1.4820   -0.5850 N   0  0  0  0  0  0  0  0  0  0  0  0
   -2.0400    0.5040   -1.3930 C   0  0  0  0  0  0  0  0  0  0  0  0
   -3.2940    0.1720   -0.7180 N   0  0  0  0  0  0  0  0  0  0  0  0
   -4.0900    1.2440   -0.2930 C   0  0  0  0  0  0  0  0  0  0  0  0
   -3.6740    2.4320   -0.5190 O   0  0  0  0  0  0  0  0  0  0  0  0
   -5.3590    1.0940    0.3890 C   0  0  0  0  0  0  0  0  0  0  0  0
   -6.0570    2.2550    0.7610 C   0  0  0  0  0  0  0  0  0  0  0  0
   -7.2510    2.2140    1.4030 C   0  0  0  0  0  0  0  0  0  0  0  0
   -7.7990    0.9790    1.7010 C   0  0  0  0  0  0  0  0  0  0  0  0
   -9.1070    0.9040    2.4040 C   0  0  0  0  0  0  0  0  0  0  0  0
   -7.1610   -0.1790    1.3610 C   0  0  0  0  0  0  0  0  0  0  0  0
   -5.9320   -0.1140    0.7000 C   0  0  0  0  0  0  0  0  0  0  0  0
   -5.3180   -1.2970    0.3730 O   0  0  0  0  0  0  0  0  0  0  0  0
   -5.9120   -2.5250    0.6950 C   0  0  0  0  0  0  0  0  0  0  0  0
    5.8090    0.6660    1.3990 O   0  0  0  0  0  0  0  0  0  0  0  0
    6.4760    0.1660    2.5160 C   0  0  0  0  0  0  0  0  0  0  0  0
    6.9800    1.2440    3.4180 C   0  0  0  0  0  0  0  0  0  0  0  0
  1  2  1  0
  2  3  1  0
  3  4  1  0
  4  5  1  0
  4 26  1  0
  5  6  1  0
  6  7  1  0
  7  8  1  0
  8  9  1  0
  9 10  2  0
  9 11  1  0
 11 12  1  1
 11 13  1  0
 13 14  1  0
 14 15  1  0
 15 16  2  0
 15 17  1  0
 17 18  2  0
 17 23  1  0
 18 19  1  0
 19 20  2  0
 20 21  1  0
 20 22  1  0
 22 23  2  0
 23 24  1  0
 24 25  1  0
 26 27  1  0
 27 28  1  0
M  END
