
     RDKit          3D

 29 29  0  0  0  0  0  0  0  0999 V2000
    7.5000   -0.8210    0.6580 C   0  0  0  0  0  0  0  0  0  0  0  0
    7.7240    0.2830   -0.3100 C   0  0  0  0  0  0  0  0  0  0  0  0
    6.6520    1.2170   -0.5740 C   0  0  0  0  0  0  0  0  0  0  0  0
    5.3370    0.8440   -1.1230 C   0  0  2  0  0  0  0  0  0  0  0  0
    4.5770    2.2430   -1.3240 C   0  0  0  0  0  0  0  0  0  0  0  0
    4.4100    0.1870   -0.2910 N   0  0  0  0  0  0  0  0  0  0  0  0
    3.9070   -1.1040   -0.5110 C   0  0  0  0  0  0  0  0  0  0  0  0
    2.6010   -1.2250    0.3900 C   0  0  1  0  0  0  0  0  0  0  0  0
    2.0570   -2.5970    0.0030 C   0  0  0  0  0  0  0  0  0  0  0  0
    2.9120   -1.2410    1.8240 C   0  0  0  0  0  0  0  0  0  0  0  0
    1.8080   -0.2030   -0.1060 O   0  0  0  0  0  0  0  0  0  0  0  0
    0.6610    0.3280    0.3690 C   0  0  0  0  0  0  0  0  0  0  0  0
    0.2280   -0.0740    1.4630 O   0  0  0  0  0  0  0  0  0  0  0  0
   -0.0770    1.3340   -0.3260 N   0  0  0  0  0  0  0  0  0  0  0  0
   -1.2490    1.9900    0.1450 C   0  0  0  0  0  0  0  0  0  0  0  0
   -2.3820    1.1940    0.6100 C   0  0  0  0  0  0  0  0  0  0  0  0
   -2.9200    0.3280   -0.3770 O   0  0  0  0  0  0  0  0  0  0  0  0
   -4.0480   -0.4150    0.0190 C   0  0  0  0  0  0  0  0  0  0  0  0
   -4.4520   -0.2370    1.2020 O   0  0  0  0  0  0  0  0  0  0  0  0
   -4.6720   -1.2920   -0.8800 N   0  0  0  0  0  0  0  0  0  0  0  0
   -5.8610   -1.9940   -0.3510 C   0  0  0  0  0  0  0  0  0  0  0  0
   -6.9620   -1.0220   -0.2450 C   0  0  0  0  0  0  0  0  0  0  0  0
   -8.1440   -1.3060    0.3560 C   0  0  0  0  0  0  0  0  0  0  0  0
   -9.1910   -0.3880    0.5080 C   0  0  0  0  0  0  0  0  0  0  0  0
   -8.9860    0.8770    0.0070 C   0  0  0  0  0  0  0  0  0  0  0  0
  -10.3110    2.1150    0.1870 P   0  0  0  0  0  0  0  0  0  0  0  0
  -10.0150    3.5410    0.7590 O   0  0  0  0  0  0  0  0  0  0  0  0
   -7.7870    1.1870   -0.6120 C   0  0  0  0  0  0  0  0  0  0  0  0
   -6.7800    0.2660   -0.7440 C   0  0  0  0  0  0  0  0  0  0  0  0
  1  2  1  0
  2  3  1  0
  3  4  1  0
  4  5  1  1
  4  6  1  0
  6  7  1  0
  7  8  1  0
  8  9  1  6
  8 10  1  0
  8 11  1  0
 11 12  1  0
 12 13  2  0
 12 14  1  0
 14 15  1  0
 15 16  1  0
 16 17  1  0
 17 18  1  0
 18 19  2  0
 18 20  1  0
 20 21  1  0
 21 22  1  0
 22 23  2  0
 22 29  1  0
 23 24  1  0
 24 25  2  0
 25 26  1  0
 25 28  1  0
 26 27  2  0
 28 29  2  0
M  END
