
     RDKit          3D

 29 29  0  0  0  0  0  0  0  0999 V2000
   -1.6340   -1.9980   -2.6380 C   0  0  0  0  0  0  0  0  0  0  0  0
   -1.3610   -0.8490   -1.8440 O   0  0  0  0  0  0  0  0  0  0  0  0
   -1.4690   -0.8180   -0.4820 C   0  0  0  0  0  0  0  0  0  0  0  0
   -2.1470   -1.7300    0.1180 N   0  0  0  0  0  0  0  0  0  0  0  0
   -2.7870   -2.7540   -0.4900 O   0  0  0  0  0  0  0  0  0  0  0  0
   -3.2770   -3.8960    0.1450 C   0  0  2  0  0  0  0  0  0  0  0  0
   -2.2300   -4.7050    0.8510 C   0  0  0  0  0  0  0  0  0  0  0  0
   -3.9120   -4.7740   -0.9430 C   0  0  0  0  0  0  0  0  0  0  0  0
   -4.3700   -3.5040    1.1270 C   0  0  0  0  0  0  0  0  0  0  0  0
   -0.8330    0.2360    0.3670 C   0  0  2  0  0  0  0  0  0  0  0  0
   -1.3900    1.6220   -0.0220 C   0  0  0  0  0  0  0  0  0  0  0  0
   -2.8380    1.7030    0.1640 C   0  0  0  0  0  0  0  0  0  0  0  0
   -3.5050    2.9410   -0.2640 C   0  0  0  0  0  0  0  0  0  0  0  0
   -3.2660    4.2120    0.1670 N   0  0  0  0  0  0  0  0  0  0  0  0
   -2.2740    5.1090   -0.1370 C   0  0  0  0  0  0  0  0  0  0  0  0
   -0.8510    4.9720    0.2250 C   0  0  0  0  0  0  0  0  0  0  0  0
   -0.1910    6.1530   -0.2680 O   0  0  0  0  0  0  0  0  0  0  0  0
    0.5860    0.3280    0.1370 N   0  0  0  0  0  0  0  0  0  0  0  0
    1.5010    0.1130    1.1740 C   0  0  0  0  0  0  0  0  0  0  0  0
    1.0850   -0.1720    2.3510 O   0  0  0  0  0  0  0  0  0  0  0  0
    2.9360    0.2080    0.9410 C   0  0  0  0  0  0  0  0  0  0  0  0
    3.4750    0.7250   -0.2170 C   0  0  0  0  0  0  0  0  0  0  0  0
    4.8350    0.8120   -0.4480 C   0  0  0  0  0  0  0  0  0  0  0  0
    5.7090    0.3680    0.5140 C   0  0  0  0  0  0  0  0  0  0  0  0
    7.4980    0.4680    0.2460 P   0  0  0  0  0  0  0  0  0  0  0  0
    7.8940   -0.4290   -1.3360 C   0  0  0  0  0  0  0  0  0  0  0  0
    8.3040   -0.2600    1.6060 O   0  0  0  0  0  0  0  0  0  0  0  0
    5.1860   -0.1560    1.6880 C   0  0  0  0  0  0  0  0  0  0  0  0
    3.8320   -0.2400    1.9100 C   0  0  0  0  0  0  0  0  0  0  0  0
  1  2  1  0
  2  3  1  0
  3  4  2  3
  3 10  1  0
  4  5  1  0
  5  6  1  0
  6  7  1  1
  6  8  1  0
  6  9  1  0
 10 11  1  6
 10 18  1  0
 11 12  1  0
 12 13  1  0
 13 14  1  0
 14 15  1  0
 15 16  1  0
 16 17  1  0
 18 19  1  0
 19 20  2  0
 19 21  1  0
 21 22  2  0
 21 29  1  0
 22 23  1  0
 23 24  2  0
 24 25  1  0
 24 28  1  0
 25 26  1  0
 25 27  1  0
 28 29  2  0
M  END
