
     RDKit          3D

 29 29  0  0  0  0  0  0  0  0999 V2000
   -5.8130    3.0560    1.5180 C   0  0  0  0  0  0  0  0  0  0  0  0
   -5.8650    1.9780    0.4750 C   0  0  0  0  0  0  0  0  0  0  0  0
   -4.7810    1.1230    0.6450 O   0  0  0  0  0  0  0  0  0  0  0  0
   -4.8090   -0.1500   -0.5540 P   0  0  0  0  0  0  0  0  0  0  0  0
   -4.3780   -1.7700    0.1650 C   0  0  0  0  0  0  0  0  0  0  0  0
   -3.1900   -1.7750    0.9630 N   0  0  0  0  0  0  0  0  0  0  0  0
   -3.1170   -3.1550    1.5410 C   0  0  0  0  0  0  0  0  0  0  0  0
   -1.9430   -1.6340    0.3040 C   0  0  0  0  0  0  0  0  0  0  0  0
   -1.6310   -0.3210   -0.3050 C   0  0  0  0  0  0  0  0  0  0  0  0
   -0.2510   -0.3280   -0.9380 C   0  0  0  0  0  0  0  0  0  0  0  0
    0.8550   -0.6210    0.0090 C   0  0  1  0  0  0  0  0  0  0  0  0
    2.1540   -0.5920   -0.7940 C   0  0  0  0  0  0  0  0  0  0  0  0
    3.1620   -0.6410    0.3370 C   0  0  1  0  0  0  0  0  0  0  0  0
    4.4860   -0.1270   -0.0120 C   0  0  0  0  0  0  0  0  0  0  0  0
    5.4800   -0.8860    0.1940 O   0  0  0  0  0  0  0  0  0  0  0  0
    4.7460    1.1390   -0.5550 N   0  0  0  0  0  0  0  0  0  0  0  0
    6.0710    1.6050   -0.8780 C   0  0  0  0  0  0  0  0  0  0  0  0
    6.7820    0.7630   -1.8560 C   0  0  0  0  0  0  0  0  0  0  0  0
    7.9290    0.2100   -1.5410 C   0  0  0  0  0  0  0  0  0  0  0  0
    8.4820    0.4260   -0.2520 N   0  0  0  0  0  0  0  0  0  0  0  0
    9.7600    1.0370   -0.1180 C   0  0  0  0  0  0  0  0  0  0  0  0
   10.3830    1.3780   -1.1550 O   0  0  0  0  0  0  0  0  0  0  0  0
   10.3250    1.2600    1.1300 O   0  0  0  0  0  0  0  0  0  0  0  0
    2.5440    0.1240    1.4760 C   0  0  0  0  0  0  0  0  0  0  0  0
    1.0970    0.3920    1.0690 C   0  0  1  0  0  0  0  0  0  0  0  0
    1.0380    1.8160    0.6150 C   0  0  0  0  0  0  0  0  0  0  0  0
   -6.3580   -0.1070   -1.2970 O   0  0  0  0  0  0  0  0  0  0  0  0
   -7.0530   -1.3010   -1.1810 C   0  0  0  0  0  0  0  0  0  0  0  0
   -8.3890   -1.1200   -1.8680 C   0  0  0  0  0  0  0  0  0  0  0  0
  1  2  1  0
  2  3  1  0
  3  4  1  0
  4  5  1  0
  4 27  1  0
  5  6  1  0
  6  7  1  0
  6  8  1  0
  8  9  1  0
  9 10  1  0
 11 10  1  6
 11 12  1  0
 11 25  1  0
 12 13  1  0
 13 14  1  6
 13 24  1  0
 14 15  2  0
 14 16  1  0
 16 17  1  0
 17 18  1  0
 18 19  2  3
 19 20  1  0
 20 21  1  0
 21 22  2  0
 21 23  1  0
 24 25  1  0
 25 26  1  6
 27 28  1  0
 28 29  1  0
M  END
