
     RDKit          3D

 29 29  0  0  0  0  0  0  0  0999 V2000
    6.2620    0.1920    1.0620 C   0  0  0  0  0  0  0  0  0  0  0  0
    5.0670   -0.1670    0.5700 C   0  0  0  0  0  0  0  0  0  0  0  0
    5.0690   -0.9400   -0.5450 O   0  0  0  0  0  0  0  0  0  0  0  0
    3.8650    0.2730    1.2300 C   0  0  0  0  0  0  0  0  0  0  0  0
    2.6330    0.0210    0.8910 C   0  0  0  0  0  0  0  0  0  0  0  0
    2.2220   -0.7710   -0.2440 C   0  0  0  0  0  0  0  0  0  0  0  0
    1.0070   -1.0500   -0.6230 C   0  0  0  0  0  0  0  0  0  0  0  0
   -0.1170   -0.5850    0.0650 N   0  0  0  0  0  0  0  0  0  0  0  0
   -1.0620    0.0040   -0.6200 C   0  0  0  0  0  0  0  0  0  0  0  0
   -2.2590    0.5170   -0.0180 C   0  0  0  0  0  0  0  0  0  0  0  0
   -2.4720    0.3950    1.3300 C   0  0  0  0  0  0  0  0  0  0  0  0
   -3.6210    0.8710    1.9440 C   0  0  0  0  0  0  0  0  0  0  0  0
   -4.5980    1.4980    1.1780 C   0  0  0  0  0  0  0  0  0  0  0  0
   -5.7580    1.9840    1.7620 O   0  0  0  0  0  0  0  0  0  0  0  0
   -6.7510    2.6190    0.9980 C   0  0  0  0  0  0  0  0  0  0  0  0
   -4.3960    1.6260   -0.1690 C   0  0  0  0  0  0  0  0  0  0  0  0
   -3.2260    1.1330   -0.7530 C   0  0  0  0  0  0  0  0  0  0  0  0
   -3.0480    1.2860   -2.2110 C   0  0  0  0  0  0  0  0  0  0  0  0
    0.7840   -1.8740   -1.8270 C   0  0  1  0  0  0  0  0  0  0  0  0
    2.0470   -2.3140   -2.3980 N   0  0  0  0  0  0  0  0  0  0  0  0
   -0.1490   -2.9820   -1.5800 C   0  0  0  0  0  0  0  0  0  0  0  0
   -1.2640   -2.7120   -1.0750 O   0  0  0  0  0  0  0  0  0  0  0  0
    0.2260   -4.3070   -1.9130 N   0  0  0  0  0  0  0  0  0  0  0  0
   -0.7840   -5.3400   -1.6270 C   0  0  0  0  0  0  0  0  0  0  0  0
    1.5370    0.5840    1.7520 C   0  0  0  0  0  0  0  0  0  0  0  0
    2.1520    1.5360    3.1960 P   0  0  0  0  0  0  0  0  0  0  0  0
    3.1340    0.6550    4.2740 O   0  0  0  0  0  0  0  0  0  0  0  0
    2.9910    2.9420    2.6440 O   0  0  0  0  0  0  0  0  0  0  0  0
    2.0640    3.8560    2.1410 C   0  0  0  0  0  0  0  0  0  0  0  0
  1  2  2  0
  2  3  1  0
  2  4  1  0
  4  5  2  3
  5  6  1  0
  5 25  1  0
  6  7  2  3
  7  8  1  0
  7 19  1  0
  8  9  2  3
  9 10  1  0
 10 11  2  0
 10 17  1  0
 11 12  1  0
 12 13  2  0
 13 14  1  0
 13 16  1  0
 14 15  1  0
 16 17  2  0
 17 18  1  0
 19 20  1  1
 19 21  1  0
 21 22  2  0
 21 23  1  0
 23 24  1  0
 25 26  1  0
 26 27  1  0
 26 28  1  0
 28 29  1  0
M  END
