
     RDKit          3D

 29 30  0  0  0  0  0  0  0  0999 V2000
   -2.0460   -5.0660   -1.4230 C   0  0  0  0  0  0  0  0  0  0  0  0
   -1.5790   -3.8730   -0.6330 C   0  0  0  0  0  0  0  0  0  0  0  0
   -0.1930   -3.8300   -0.5420 O   0  0  0  0  0  0  0  0  0  0  0  0
    0.4050   -2.5090    0.3360 P   0  0  0  0  0  0  0  0  0  0  0  0
    0.2910   -2.6810    2.0470 O   0  0  0  0  0  0  0  0  0  0  0  0
    0.8950   -3.8890    2.3920 C   0  0  0  0  0  0  0  0  0  0  0  0
    0.8470   -4.1350    3.8820 C   0  0  0  0  0  0  0  0  0  0  0  0
   -0.2200   -0.9000   -0.2470 C   0  0  0  0  0  0  0  0  0  0  0  0
    0.6520   -0.1570   -1.2100 C   0  0  0  0  0  0  0  0  0  0  0  0
    1.9650    0.0910   -0.5110 C   0  0  0  0  0  0  0  0  0  0  0  0
    2.8360    0.8030   -1.3990 N   0  0  0  0  0  0  0  0  0  0  0  0
    4.1540    1.1600   -0.9650 C   0  0  0  0  0  0  0  0  0  0  0  0
    5.2030    0.7350   -1.6150 C   0  0  0  0  0  0  0  0  0  0  0  0
    6.5670    1.0890   -1.1890 C   0  0  0  0  0  0  0  0  0  0  0  0
    7.3370    1.8450   -2.2530 C   0  0  0  0  0  0  0  0  0  0  0  0
    8.6030    2.1140   -1.7190 O   0  0  0  0  0  0  0  0  0  0  0  0
   -1.3830   -0.4000    0.1520 C   0  0  0  0  0  0  0  0  0  0  0  0
   -2.1230   -1.1600    1.0480 O   0  0  0  0  0  0  0  0  0  0  0  0
   -1.8970    0.8320   -0.2720 N   0  0  0  0  0  0  0  0  0  0  0  0
   -3.0640    0.9240   -1.1650 C   0  0  0  0  0  0  0  0  0  0  0  0
   -3.7130    2.2510   -0.8230 C   0  0  1  0  0  0  0  0  0  0  0  0
   -5.1260    2.0060   -0.4020 C   0  0  0  0  0  0  0  0  0  0  0  0
   -5.6120    3.0460    0.6160 C   0  0  0  0  0  0  0  0  0  0  0  0
   -4.7880    2.8090    1.8120 N   0  0  0  0  0  0  0  0  0  0  0  0
   -3.4180    2.4950    1.5690 C   0  0  0  0  0  0  0  0  0  0  0  0
   -2.7860    1.9300    2.5000 O   0  0  0  0  0  0  0  0  0  0  0  0
   -2.8500    2.8470    0.2690 C   0  0  1  0  0  0  0  0  0  0  0  0
   -1.5260    2.1950   -0.0240 C   0  0  1  0  0  0  0  0  0  0  0  0
   -0.4960    2.4010    1.0110 C   0  0  0  0  0  0  0  0  0  0  0  0
  1  2  1  0
  2  3  1  0
  3  4  1  0
  4  5  1  0
  4  8  1  0
  5  6  1  0
  6  7  1  0
  8  9  1  0
  8 17  2  3
  9 10  1  0
 10 11  1  0
 11 12  1  0
 12 13  2  3
 13 14  1  0
 14 15  1  0
 15 16  1  0
 17 18  1  0
 17 19  1  0
 19 20  1  0
 19 28  1  0
 21 20  1  1
 21 22  1  0
 21 27  1  0
 22 23  1  0
 23 24  1  0
 24 25  1  0
 25 26  2  0
 27 25  1  1
 27 28  1  0
 28 29  1  1
M  END
