
     RDKit          3D

 21 23  0  0  0  0  0  0  0  0999 V2000
    0.4560   -2.6730    1.5580 C   0  0  0  0  0  0  0  0  0  0  0  0
   -0.2140   -1.5400    0.8610 C   0  0  0  0  0  0  0  0  0  0  0  0
   -1.5460   -1.2490    1.1870 C   0  0  0  0  0  0  0  0  0  0  0  0
   -2.2230   -0.2180    0.5570 C   0  0  0  0  0  0  0  0  0  0  0  0
   -1.5420    0.5010   -0.3910 C   0  0  0  0  0  0  0  0  0  0  0  0
   -2.0430    1.5470   -1.1230 C   0  0  0  0  0  0  0  0  0  0  0  0
   -1.0750    1.9510   -1.9210 O   0  0  0  0  0  0  0  0  0  0  0  0
    0.0230    1.2020   -1.7250 C   0  0  0  0  0  0  0  0  0  0  0  0
    1.3060    1.3590   -2.4400 C   0  0  0  0  0  0  0  0  0  0  0  0
   -0.2380    0.2650   -0.7540 C   0  0  0  0  0  0  0  0  0  0  0  0
    0.4000   -0.7740   -0.0980 C   0  0  0  0  0  0  0  0  0  0  0  0
    1.7810   -1.0730   -0.4630 C   0  0  0  0  0  0  0  0  0  0  0  0
    2.8040   -0.7070    0.5860 C   0  0  0  0  0  0  0  0  0  0  0  0
    2.8570    0.9850    1.0550 S   0  0  2  0  0  0  0  0  0  0  0  0
    1.5680    1.7030    0.9960 O   0  0  0  0  0  0  0  0  0  0  0  0
    3.9120    1.7030    0.2190 O   0  0  0  0  0  0  0  0  0  0  0  0
   -3.4340    1.9530   -0.8790 C   0  0  0  0  0  0  0  0  0  0  0  0
   -3.9570    2.8920   -1.5010 O   0  0  0  0  0  0  0  0  0  0  0  0
   -4.1800    1.2420    0.0950 N   0  0  0  0  0  0  0  0  0  0  0  0
   -3.6170    0.1400    0.8460 C   0  0  0  0  0  0  0  0  0  0  0  0
   -4.2290   -0.5050    1.7000 O   0  0  0  0  0  0  0  0  0  0  0  0
  1  2  1  0
  2  3  1  0
  2 11  2  0
  3  4  2  0
  4  5  1  0
  4 20  1  0
  5  6  2  0
  5 10  1  0
  6  7  1  0
  6 17  1  0
  7  8  1  0
  8  9  1  0
  8 10  2  0
 10 11  1  0
 11 12  1  0
 12 13  1  0
 14 13  1  6
 14 15  2  0
 14 16  2  0
 17 18  2  0
 17 19  1  0
 19 20  1  0
 20 21  2  0
M  END
