
     RDKit          3D

 21 23  0  0  0  0  0  0  0  0999 V2000
    5.9430    1.5860    0.4560 C   0  0  0  0  0  0  0  0  0  0  0  0
    4.6380    1.0620    0.6900 O   0  0  0  0  0  0  0  0  0  0  0  0
    4.1250    0.0300   -0.0020 C   0  0  0  0  0  0  0  0  0  0  0  0
    4.9120   -0.4800   -0.9150 O   0  0  0  0  0  0  0  0  0  0  0  0
    2.8050   -0.5030    0.1720 C   0  0  1  0  0  0  0  0  0  0  0  0
    1.7140    0.2360   -0.4290 N   0  0  0  0  0  0  0  0  0  0  0  0
    0.6210   -0.5620   -0.7340 C   0  0  0  0  0  0  0  0  0  0  0  0
    0.8890   -1.8320   -1.1250 C   0  0  0  0  0  0  0  0  0  0  0  0
   -0.0710   -2.7770   -1.2380 C   0  0  0  0  0  0  0  0  0  0  0  0
    0.1480   -3.8750   -1.6220 O   0  0  0  0  0  0  0  0  0  0  0  0
   -1.3280   -2.4390   -0.9290 O   0  0  0  0  0  0  0  0  0  0  0  0
   -1.7070   -1.2420   -0.5390 C   0  0  0  0  0  0  0  0  0  0  0  0
   -3.0350   -1.0100   -0.2650 C   0  0  0  0  0  0  0  0  0  0  0  0
   -3.9360   -2.1950    0.0410 C   0  0  0  0  0  0  0  0  0  0  0  0
   -3.4370    0.2430    0.0770 C   0  0  0  0  0  0  0  0  0  0  0  0
   -4.7580    0.5520    0.3510 O   0  0  0  0  0  0  0  0  0  0  0  0
   -2.4410    1.3190    0.1450 C   0  0  0  0  0  0  0  0  0  0  0  0
   -2.8750    2.6820    0.3320 C   0  0  0  0  0  0  0  0  0  0  0  0
   -1.1320    0.9560   -0.1090 C   0  0  0  0  0  0  0  0  0  0  0  0
   -0.7570   -0.2370   -0.4380 C   0  0  0  0  0  0  0  0  0  0  0  0
    2.7060   -1.9120   -1.1760 S   0  0  0  0  0  0  0  0  0  0  0  0
  1  2  1  0
  2  3  1  0
  3  4  2  0
  5  3  1  6
  5  6  1  0
  5 21  1  0
  6  7  1  0
  7  8  2  0
  7 20  1  0
  8  9  1  0
  8 21  1  0
  9 10  2  0
  9 11  1  0
 11 12  1  0
 12 13  2  0
 12 20  1  0
 13 14  1  0
 13 15  1  0
 15 16  1  0
 15 17  2  0
 17 18  1  0
 17 19  1  0
 19 20  2  0
M  END
