
     RDKit          3D

 21 22  0  0  0  0  0  0  0  0999 V2000
   -3.2030   -0.7810    3.1640 C   0  0  0  0  0  0  0  0  0  0  0  0
   -2.1840   -0.4540    2.1370 C   0  0  0  0  0  0  0  0  0  0  0  0
   -2.5530    0.0380    0.9720 C   0  0  0  0  0  0  0  0  0  0  0  0
   -4.3040    0.2810    0.7120 S   0  0  0  0  0  0  0  0  0  0  0  0
   -4.6490   -0.1760   -1.0110 C   0  0  0  0  0  0  0  0  0  0  0  0
   -4.0570    0.8420   -1.8890 C   0  0  0  0  0  0  0  0  0  0  0  0
   -2.8180    1.2550   -1.9850 C   0  0  0  0  0  0  0  0  0  0  0  0
   -1.6230    0.8690   -1.2820 C   0  0  0  0  0  0  0  0  0  0  0  0
   -1.5020    0.3400    0.0010 C   0  0  0  0  0  0  0  0  0  0  0  0
   -0.3270    0.0400    0.4940 O   0  0  0  0  0  0  0  0  0  0  0  0
    0.8020    0.2040   -0.1520 C   0  0  0  0  0  0  0  0  0  0  0  0
    2.0690   -0.1570    0.4720 C   0  0  0  0  0  0  0  0  0  0  0  0
    2.0730   -0.6270    1.6380 O   0  0  0  0  0  0  0  0  0  0  0  0
    3.2710    0.0010   -0.1720 O   0  0  0  0  0  0  0  0  0  0  0  0
    4.5220   -0.3520    0.4350 C   0  0  0  0  0  0  0  0  0  0  0  0
    5.6450   -0.0780   -0.4810 C   0  0  0  0  0  0  0  0  0  0  0  0
    6.9590   -0.3680   -0.0420 N   0  0  0  0  0  0  0  0  0  0  0  0
    5.4720    0.4080   -1.6470 O   0  0  0  0  0  0  0  0  0  0  0  0
    0.7200    0.7260   -1.4260 C   0  0  0  0  0  0  0  0  0  0  0  0
   -0.4730    1.0660   -2.0150 C   0  0  0  0  0  0  0  0  0  0  0  0
   -0.5720    1.5440   -3.1770 O   0  0  0  0  0  0  0  0  0  0  0  0
  1  2  1  0
  2  3  2  3
  3  4  1  0
  3  9  1  0
  4  5  1  0
  5  6  1  0
  6  7  2  0
  7  8  1  0
  8  9  2  0
  8 20  1  0
  9 10  1  0
 10 11  1  0
 11 12  1  0
 11 19  2  0
 12 13  2  0
 12 14  1  0
 14 15  1  0
 15 16  1  0
 16 17  1  0
 16 18  2  0
 19 20  1  0
 20 21  2  0
M  END
