
     RDKit          3D

 27 30  0  0  0  0  0  0  0  0999 V2000
    7.4490   -0.0190    3.2170 N   0  0  0  0  0  0  0  0  0  0  0  0
    6.4470    0.2260    2.2310 C   0  0  0  0  0  0  0  0  0  0  0  0
    6.4850    1.3390    1.4740 N   0  0  0  0  0  0  0  0  0  0  0  0
    5.5540    1.5980    0.5350 C   0  0  0  0  0  0  0  0  0  0  0  0
    5.5890    2.6360   -0.1710 O   0  0  0  0  0  0  0  0  0  0  0  0
    4.5140    0.7210    0.3110 C   0  0  0  0  0  0  0  0  0  0  0  0
    3.5490    0.9610   -0.6420 C   0  0  0  0  0  0  0  0  0  0  0  0
    2.5340    0.0340   -0.8110 C   0  0  0  0  0  0  0  0  0  0  0  0
    1.4620   -0.0340   -1.6330 N   0  0  0  0  0  0  0  0  0  0  0  0
    0.7460   -1.1520   -1.4240 C   0  0  0  0  0  0  0  0  0  0  0  0
   -0.4310   -1.5940   -2.0860 N   0  0  0  0  0  0  0  0  0  0  0  0
   -1.1180   -0.8920   -3.1290 C   0  0  0  0  0  0  0  0  0  0  0  0
   -1.7690    0.3810   -2.7210 C   0  0  0  0  0  0  0  0  0  0  0  0
   -2.7900    0.2210   -1.6720 C   0  0  0  0  0  0  0  0  0  0  0  0
   -4.1010   -0.0150   -2.0160 C   0  0  0  0  0  0  0  0  0  0  0  0
   -5.0460   -0.1620   -1.0210 C   0  0  0  0  0  0  0  0  0  0  0  0
   -4.6540   -0.0690    0.3150 C   0  0  0  0  0  0  0  0  0  0  0  0
   -5.6920   -0.2320    1.3500 C   0  0  0  0  0  0  0  0  0  0  0  0
   -6.3200    1.1090    1.7060 C   0  0  0  0  0  0  0  0  0  0  0  0
   -7.2920    0.9190    2.6810 O   0  0  0  0  0  0  0  0  0  0  0  0
   -3.3320    0.1690    0.6640 C   0  0  0  0  0  0  0  0  0  0  0  0
   -2.4010    0.3130   -0.3590 C   0  0  0  0  0  0  0  0  0  0  0  0
    1.4040   -1.8080   -0.4250 N   0  0  0  0  0  0  0  0  0  0  0  0
    2.4790   -1.1100   -0.0460 C   0  0  0  0  0  0  0  0  0  0  0  0
    3.4580   -1.3300    0.9040 C   0  0  0  0  0  0  0  0  0  0  0  0
    4.4820   -0.4240    1.0950 C   0  0  0  0  0  0  0  0  0  0  0  0
    5.4440   -0.6370    2.0260 N   0  0  0  0  0  0  0  0  0  0  0  0
  1  2  1  0
  2  3  1  0
  2 27  2  0
  3  4  1  0
  4  5  2  0
  4  6  1  0
  6  7  2  0
  6 26  1  0
  7  8  1  0
  8  9  1  0
  8 24  2  0
  9 10  1  0
 10 11  1  0
 10 23  2  0
 11 12  1  0
 12 13  1  0
 13 14  1  0
 14 15  2  0
 14 22  1  0
 15 16  1  0
 16 17  2  0
 17 18  1  0
 17 21  1  0
 18 19  1  0
 19 20  1  0
 21 22  2  0
 23 24  1  0
 24 25  1  0
 25 26  2  0
 26 27  1  0
M  CHG  1  27   1
M  END
