
     RDKit          3D

 21 23  0  0  0  0  0  0  0  0999 V2000
    7.8160    0.1300   -0.3940 O   0  0  0  0  0  0  0  0  0  0  0  0
    7.0060   -0.4360    0.3630 C   0  0  0  0  0  0  0  0  0  0  0  0
    7.4800   -1.2250    1.3900 O   0  0  0  0  0  0  0  0  0  0  0  0
    5.5950   -0.2660    0.1640 C   0  0  0  0  0  0  0  0  0  0  0  0
    4.8580    0.4130   -0.7150 C   0  0  0  0  0  0  0  0  0  0  0  0
    3.5140    0.3920   -0.6640 C   0  0  0  0  0  0  0  0  0  0  0  0
    2.9340   -0.3600    0.3320 C   0  0  0  0  0  0  0  0  0  0  0  0
    1.5220   -0.5950    0.6650 C   0  0  0  0  0  0  0  0  0  0  0  0
    1.2500   -1.3240    1.6270 O   0  0  0  0  0  0  0  0  0  0  0  0
    0.4810   -0.0090   -0.0870 N   0  0  0  0  0  0  0  0  0  0  0  0
   -0.8990   -0.1460    0.1180 C   0  0  0  0  0  0  0  0  0  0  0  0
   -1.4520   -0.8250    1.1560 C   0  0  0  0  0  0  0  0  0  0  0  0
   -2.8420   -0.9280    1.2990 C   0  0  0  0  0  0  0  0  0  0  0  0
   -3.6780   -0.3420    0.3880 C   0  0  0  0  0  0  0  0  0  0  0  0
   -3.1330    0.3520   -0.6710 C   0  0  0  0  0  0  0  0  0  0  0  0
   -1.7680    0.4470   -0.8020 C   0  0  0  0  0  0  0  0  0  0  0  0
   -4.0190    0.9300   -1.5700 O   0  0  0  0  0  0  0  0  0  0  0  0
   -5.3450    1.2680   -1.2060 C   0  0  0  0  0  0  0  0  0  0  0  0
   -5.9700    0.2870   -0.2670 C   0  0  0  0  0  0  0  0  0  0  0  0
   -5.0540   -0.4320    0.5110 O   0  0  0  0  0  0  0  0  0  0  0  0
    4.3190   -1.0390    1.1990 S   0  0  0  0  0  0  0  0  0  0  0  0
  1  2  2  0
  2  3  1  0
  2  4  1  0
  4  5  2  0
  4 21  1  0
  5  6  1  0
  6  7  2  0
  7  8  1  0
  7 21  1  0
  8  9  2  0
  8 10  1  0
 10 11  1  0
 11 12  2  0
 11 16  1  0
 12 13  1  0
 13 14  2  0
 14 15  1  0
 14 20  1  0
 15 16  2  0
 15 17  1  0
 17 18  1  0
 18 19  1  0
 19 20  1  0
M  END
