
     RDKit          3D

 21 23  0  0  0  0  0  0  0  0999 V2000
   -0.7530   -2.1360   -0.5850 O   0  0  0  0  0  0  0  0  0  0  0  0
   -0.6010   -0.8970   -0.3310 C   0  0  0  0  0  0  0  0  0  0  0  0
    0.6990   -0.2610   -0.3450 C   0  0  0  0  0  0  0  0  0  0  0  0
    0.8710    1.0930   -0.4900 C   0  0  0  0  0  0  0  0  0  0  0  0
    2.1530    1.6440   -0.4930 C   0  0  0  0  0  0  0  0  0  0  0  0
    3.2590    0.8540   -0.3530 C   0  0  0  0  0  0  0  0  0  0  0  0
    4.4940    1.3080   -0.3480 O   0  0  0  0  0  0  0  0  0  0  0  0
    5.5490    0.5180   -0.2100 C   0  0  0  0  0  0  0  0  0  0  0  0
    6.7340    0.9760   -0.2080 O   0  0  0  0  0  0  0  0  0  0  0  0
    5.3850   -0.8340   -0.0620 C   0  0  0  0  0  0  0  0  0  0  0  0
    6.3530   -1.6320    0.0720 O   0  0  0  0  0  0  0  0  0  0  0  0
    4.1440   -1.3440   -0.0620 N   0  0  0  0  0  0  0  0  0  0  0  0
    3.0940   -0.4970   -0.2070 C   0  0  0  0  0  0  0  0  0  0  0  0
    1.8210   -1.0430   -0.2050 C   0  0  0  0  0  0  0  0  0  0  0  0
   -1.8490   -0.1850   -0.0300 C   0  0  0  0  0  0  0  0  0  0  0  0
   -3.1180   -0.4850   -0.2950 C   0  0  0  0  0  0  0  0  0  0  0  0
   -4.1070    0.3350    0.1020 C   0  0  0  0  0  0  0  0  0  0  0  0
   -5.6110    0.0910   -0.1540 C   0  0  0  0  0  0  0  0  0  0  0  0
   -5.7920   -1.0450   -0.8920 O   0  0  0  0  0  0  0  0  0  0  0  0
   -3.7160    1.4870    0.7920 C   0  0  0  0  0  0  0  0  0  0  0  0
   -1.9370    1.3690    0.8560 S   0  0  0  0  0  0  0  0  0  0  0  0
  1  2  2  0
  2  3  1  0
  2 15  1  0
  3  4  2  0
  3 14  1  0
  4  5  1  0
  5  6  2  0
  6  7  1  0
  6 13  1  0
  7  8  1  0
  8  9  2  0
  8 10  1  0
 10 11  2  0
 10 12  1  0
 12 13  1  0
 13 14  2  0
 15 16  2  0
 15 21  1  0
 16 17  1  0
 17 18  1  0
 17 20  2  0
 18 19  1  0
 20 21  1  0
M  END
