
     RDKit          3D

 21 22  0  0  0  0  0  0  0  0999 V2000
   -3.9350   -1.0350    0.6930 C   0  0  0  0  0  0  0  0  0  0  0  0
   -2.5160   -0.6970    0.3660 C   0  0  0  0  0  0  0  0  0  0  0  0
   -1.7040   -1.6880   -0.0730 C   0  0  0  0  0  0  0  0  0  0  0  0
   -2.1800   -3.0490   -0.3010 C   0  0  0  0  0  0  0  0  0  0  0  0
   -3.3660   -3.3530   -0.0900 O   0  0  0  0  0  0  0  0  0  0  0  0
   -0.3580   -1.3880   -0.3320 C   0  0  0  0  0  0  0  0  0  0  0  0
    0.3660   -2.4670   -0.7690 O   0  0  0  0  0  0  0  0  0  0  0  0
    0.1530   -0.1120   -0.1500 C   0  0  0  0  0  0  0  0  0  0  0  0
    1.5460    0.1260   -0.4420 C   0  0  0  0  0  0  0  0  0  0  0  0
    2.1660    1.2210   -0.3330 O   0  0  0  0  0  0  0  0  0  0  0  0
    2.3750   -0.8910   -0.8970 O   0  0  0  0  0  0  0  0  0  0  0  0
    3.7230   -0.7540   -1.2030 C   0  0  0  0  0  0  0  0  0  0  0  0
    4.5790   -0.3180   -0.1140 C   0  0  0  0  0  0  0  0  0  0  0  0
    5.9590   -0.1500   -0.3280 N   0  0  0  0  0  0  0  0  0  0  0  0
    4.1110   -0.0870    1.0160 O   0  0  0  0  0  0  0  0  0  0  0  0
   -0.7120    0.8640    0.2970 C   0  0  0  0  0  0  0  0  0  0  0  0
   -2.0490    0.6030    0.5610 C   0  0  0  0  0  0  0  0  0  0  0  0
   -3.0510    1.5760    0.9990 C   0  0  0  0  0  0  0  0  0  0  0  0
   -2.6690    3.3110    0.5650 S   0  0  0  0  0  0  0  0  0  0  0  0
   -1.0640    3.2220   -0.3120 C   0  0  0  0  0  0  0  0  0  0  0  0
   -0.2450    2.2530    0.5610 C   0  0  0  0  0  0  0  0  0  0  0  0
  1  2  1  0
  2  3  2  0
  2 17  1  0
  3  4  1  0
  3  6  1  0
  4  5  2  0
  6  7  1  0
  6  8  2  0
  8  9  1  0
  8 16  1  0
  9 10  2  0
  9 11  1  0
 11 12  1  0
 12 13  1  0
 13 14  1  0
 13 15  2  0
 16 17  2  0
 16 21  1  0
 17 18  1  0
 18 19  1  0
 19 20  1  0
 20 21  1  0
M  END
