
     RDKit          3D

 21 23  0  0  0  0  0  0  0  0999 V2000
    4.5050    0.8270   -2.4640 C   0  0  0  0  0  0  0  0  0  0  0  0
    4.0820    0.1560   -1.2070 C   0  0  0  0  0  0  0  0  0  0  0  0
    4.9580   -0.4930   -0.3610 C   0  0  0  0  0  0  0  0  0  0  0  0
    4.2230   -0.9940    0.6970 C   0  0  0  0  0  0  0  0  0  0  0  0
    2.9140   -0.6270    0.4510 C   0  0  0  0  0  0  0  0  0  0  0  0
    1.8080   -0.9570    1.3250 C   0  0  0  0  0  0  0  0  0  0  0  0
    1.9940   -1.6060    2.3700 O   0  0  0  0  0  0  0  0  0  0  0  0
    0.4490   -0.5540    1.0330 N   0  0  0  0  0  0  0  0  0  0  0  0
   -0.6130   -0.8690    1.8690 C   0  0  0  0  0  0  0  0  0  0  0  0
   -0.3160   -1.5320    2.9480 O   0  0  0  0  0  0  0  0  0  0  0  0
   -2.0270   -0.5600    1.7150 C   0  0  0  0  0  0  0  0  0  0  0  0
   -3.2390   -0.9820    2.9300 S   0  0  0  0  0  0  0  0  0  0  0  0
   -4.6470   -0.3030    2.0670 C   0  0  0  0  0  0  0  0  0  0  0  0
   -4.0810    0.1920    0.9190 C   0  0  0  0  0  0  0  0  0  0  0  0
   -2.7610    0.0670    0.7290 C   0  0  0  0  0  0  0  0  0  0  0  0
   -2.1090    0.5460   -0.5670 C   0  0  0  0  0  0  0  0  0  0  0  0
   -3.0710    0.9420   -1.6150 C   0  0  0  0  0  0  0  0  0  0  0  0
   -4.2810    1.4270   -1.1970 O   0  0  0  0  0  0  0  0  0  0  0  0
   -4.9030    0.9150   -0.1010 C   0  0  0  0  0  0  0  0  0  0  0  0
   -6.1510    1.0520    0.0420 O   0  0  0  0  0  0  0  0  0  0  0  0
    2.8870    0.0460   -0.6800 O   0  0  0  0  0  0  0  0  0  0  0  0
  1  2  1  0
  2  3  2  0
  2 21  1  0
  3  4  1  0
  4  5  2  0
  5  6  1  0
  5 21  1  0
  6  7  2  0
  6  8  1  0
  8  9  1  0
  9 10  2  0
  9 11  1  0
 11 12  1  0
 11 15  2  0
 12 13  1  0
 13 14  2  0
 14 15  1  0
 14 19  1  0
 15 16  1  0
 16 17  1  0
 17 18  1  0
 18 19  1  0
 19 20  2  0
M  END
