
     RDKit          3D

 41 44  0  0  0  0  0  0  0  0999 V2000
   10.4180   -4.0770   -0.1460 C   0  0  0  0  0  0  0  0  0  0  0  0
    9.3270   -3.2270    0.0150 O   0  0  0  0  0  0  0  0  0  0  0  0
    9.2110   -1.9420   -0.4790 C   0  0  0  0  0  0  0  0  0  0  0  0
   10.1600   -1.4890   -1.1260 O   0  0  0  0  0  0  0  0  0  0  0  0
    7.9680   -1.1430   -0.2250 C   0  0  0  0  0  0  0  0  0  0  0  0
    7.8900    0.1440   -0.7410 C   0  0  0  0  0  0  0  0  0  0  0  0
    6.2860    0.6740   -0.2100 S   0  0  0  0  0  0  0  0  0  0  0  0
    5.8360   -0.8010    0.6360 C   0  0  0  0  0  0  0  0  0  0  0  0
    4.5820   -1.1040    1.3410 C   0  0  0  0  0  0  0  0  0  0  0  0
    3.4670   -0.4470    0.8640 O   0  0  0  0  0  0  0  0  0  0  0  0
    3.2200    0.9070    0.8060 C   0  0  0  0  0  0  0  0  0  0  0  0
    4.1120    1.6740    1.2480 O   0  0  0  0  0  0  0  0  0  0  0  0
    1.9620    1.4390    0.2500 C   0  0  0  0  0  0  0  0  0  0  0  0
    0.9830    0.5920   -0.2320 C   0  0  0  0  0  0  0  0  0  0  0  0
   -0.2000    1.0350   -0.7680 C   0  0  0  0  0  0  0  0  0  0  0  0
   -0.4320    2.3920   -0.8330 C   0  0  0  0  0  0  0  0  0  0  0  0
   -1.6730    2.8920   -1.4050 C   0  0  1  0  0  0  0  0  0  0  0  0
   -2.0560    2.1420   -2.5400 O   0  0  0  0  0  0  0  0  0  0  0  0
   -2.8540    3.0290   -0.5230 C   0  0  1  0  0  0  0  0  0  0  0  0
   -3.9170    3.8010   -1.3250 C   0  0  0  0  0  0  0  0  0  0  0  0
   -3.4210    1.8160   -0.0130 N   0  0  0  0  0  0  0  0  0  0  0  0
   -2.9580    1.1250    1.1320 C   0  0  0  0  0  0  0  0  0  0  0  0
   -2.0160    1.7050    1.9480 C   0  0  0  0  0  0  0  0  0  0  0  0
   -1.6130    1.0330    3.0810 C   0  0  0  0  0  0  0  0  0  0  0  0
   -2.1490   -0.1730    3.3640 N   0  0  0  0  0  0  0  0  0  0  0  0
   -3.0850   -0.7520    2.5570 C   0  0  0  0  0  0  0  0  0  0  0  0
   -3.6310   -2.0680    2.9270 C   0  0  0  0  0  0  0  0  0  0  0  0
   -3.5030   -0.1070    1.4250 C   0  0  0  0  0  0  0  0  0  0  0  0
   -4.4830   -0.6850    0.5400 C   0  0  0  0  0  0  0  0  0  0  0  0
   -4.1170   -1.3810   -0.6130 C   0  0  0  0  0  0  0  0  0  0  0  0
   -5.0140   -1.9380   -1.4730 C   0  0  0  0  0  0  0  0  0  0  0  0
   -6.3600   -1.8230   -1.2140 C   0  0  0  0  0  0  0  0  0  0  0  0
   -7.3360   -2.4350   -2.1600 C   0  0  1  0  0  0  0  0  0  0  0  0
   -8.1440   -3.2790   -1.4270 F   0  0  0  0  0  0  0  0  0  0  0  0
   -8.0680   -1.3810   -2.7120 F   0  0  0  0  0  0  0  0  0  0  0  0
   -6.7770   -1.1440   -0.0860 C   0  0  0  0  0  0  0  0  0  0  0  0
   -8.1190   -1.0690    0.1060 F   0  0  0  0  0  0  0  0  0  0  0  0
   -5.8540   -0.5870    0.7720 C   0  0  0  0  0  0  0  0  0  0  0  0
    0.5420    3.2700   -0.3520 C   0  0  0  0  0  0  0  0  0  0  0  0
    1.7270    2.7920    0.1830 C   0  0  0  0  0  0  0  0  0  0  0  0
    6.9150   -1.5930    0.4670 C   0  0  0  0  0  0  0  0  0  0  0  0
  1  2  1  0
  2  3  1  0
  3  4  2  0
  3  5  1  0
  5  6  2  0
  5 41  1  0
  6  7  1  0
  7  8  1  0
  8  9  1  0
  8 41  2  0
  9 10  1  0
 10 11  1  0
 11 12  2  0
 11 13  1  0
 13 14  2  0
 13 40  1  0
 14 15  1  0
 15 16  2  0
 16 17  1  0
 16 39  1  0
 17 18  1  6
 17 19  1  0
 19 20  1  6
 19 21  1  0
 21 22  1  0
 22 23  2  0
 22 28  1  0
 23 24  1  0
 24 25  2  0
 25 26  1  0
 26 27  1  0
 26 28  2  0
 28 29  1  0
 29 30  2  0
 29 38  1  0
 30 31  1  0
 31 32  2  0
 32 33  1  0
 32 36  1  0
 33 34  1  1
 33 35  1  0
 36 37  1  0
 36 38  2  0
 39 40  2  0
M  END
