
     RDKit          3D

 42 45  0  0  0  0  0  0  0  0999 V2000
   -2.2930   -6.9880   -1.5860 C   0  0  0  0  0  0  0  0  0  0  0  0
   -3.2460   -6.0340   -1.4450 C   0  0  0  0  0  0  0  0  0  0  0  0
   -2.8450   -4.6880   -1.0890 C   0  0  0  0  0  0  0  0  0  0  0  0
   -3.6780   -3.7180   -0.9340 C   0  0  0  0  0  0  0  0  0  0  0  0
   -3.2790   -2.3350   -0.5690 C   0  0  0  0  0  0  0  0  0  0  0  0
   -1.9620   -2.0080   -0.3700 C   0  0  0  0  0  0  0  0  0  0  0  0
   -1.6060   -0.7070   -0.0370 C   0  0  0  0  0  0  0  0  0  0  0  0
   -0.2280   -0.2930    0.1580 C   0  0  0  0  0  0  0  0  0  0  0  0
    0.4600    0.1930   -0.8050 O   0  0  0  0  0  0  0  0  0  0  0  0
    0.4110   -0.3940    1.3750 O   0  0  0  0  0  0  0  0  0  0  0  0
    1.7520    0.0400    1.4430 C   0  0  0  0  0  0  0  0  0  0  0  0
    2.7140   -0.7660    0.6740 C   0  0  0  0  0  0  0  0  0  0  0  0
    2.3580   -1.8300   -0.0170 C   0  0  0  0  0  0  0  0  0  0  0  0
    3.2900   -2.6390   -0.7890 C   0  0  0  0  0  0  0  0  0  0  0  0
    3.3610   -4.0240   -0.8640 C   0  0  0  0  0  0  0  0  0  0  0  0
    4.3910   -4.3460   -1.7140 C   0  0  0  0  0  0  0  0  0  0  0  0
    4.9130   -3.1580   -2.1280 C   0  0  0  0  0  0  0  0  0  0  0  0
    4.2360   -2.2010   -1.5610 O   0  0  0  0  0  0  0  0  0  0  0  0
    4.0970   -0.3420    0.6990 C   0  0  0  0  0  0  0  0  0  0  0  0
    4.5510    0.7050    1.3610 C   0  0  0  0  0  0  0  0  0  0  0  0
    3.7510    1.5000    2.1020 F   0  0  0  0  0  0  0  0  0  0  0  0
    5.9770    1.0800    1.2840 C   0  0  0  0  0  0  0  0  0  0  0  0
    6.8940    0.3360    0.4890 N   0  0  0  0  0  0  0  0  0  0  0  0
    6.4120    2.1100    1.9500 C   0  0  0  0  0  0  0  0  0  0  0  0
    7.8010    2.6180    1.9780 C   0  0  0  0  0  0  0  0  0  0  0  0
   -2.6220    0.2500    0.0910 C   0  0  0  0  0  0  0  0  0  0  0  0
   -3.9320   -0.1110   -0.1150 C   0  0  0  0  0  0  0  0  0  0  0  0
   -4.2300   -1.3590   -0.4320 N   0  0  0  0  0  0  0  0  0  0  0  0
   -5.1570    1.1670    0.0530 S   0  0  0  0  0  0  0  0  0  0  0  0
   -4.2980    2.6880   -0.4400 C   0  0  1  0  0  0  0  0  0  0  0  0
   -5.1300    3.8950   -0.2140 C   0  0  0  0  0  0  0  0  0  0  0  0
   -6.2680    3.9000    0.1950 O   0  0  0  0  0  0  0  0  0  0  0  0
   -4.4360    5.1980   -0.5430 C   0  0  0  0  0  0  0  0  0  0  0  0
   -3.0540    5.2600    0.0310 C   0  0  1  0  0  0  0  0  0  0  0  0
   -3.1350    5.7620    1.4430 C   0  0  0  0  0  0  0  0  0  0  0  0
   -2.2750    4.0030   -0.1230 C   0  0  0  0  0  0  0  0  0  0  0  0
   -3.0690    2.7980    0.3810 C   0  0  2  0  0  0  0  0  0  0  0  0
   -2.2250    1.5940    0.4520 C   0  0  0  0  0  0  0  0  0  0  0  0
   -1.0450    1.7780    0.8700 O   0  0  0  0  0  0  0  0  0  0  0  0
   -5.1350   -3.9080   -1.1120 C   0  0  1  0  0  0  0  0  0  0  0  0
   -5.8130   -3.5890    0.0820 F   0  0  0  0  0  0  0  0  0  0  0  0
   -5.6130   -2.9970   -2.0480 F   0  0  0  0  0  0  0  0  0  0  0  0
  1  2  2  0
  2  3  1  0
  3  4  2  3
  4  5  1  0
  4 40  1  0
  5  6  2  0
  5 28  1  0
  6  7  1  0
  7  8  1  0
  7 26  2  0
  8  9  2  0
  8 10  1  0
 10 11  1  0
 11 12  1  0
 12 13  2  3
 12 19  1  0
 13 14  1  0
 14 15  2  0
 14 18  1  0
 15 16  1  0
 16 17  2  0
 17 18  1  0
 19 20  2  3
 20 21  1  0
 20 22  1  0
 22 23  1  0
 22 24  2  3
 24 25  1  0
 26 27  1  0
 26 38  1  0
 27 28  2  0
 27 29  1  0
 30 29  1  1
 30 31  1  0
 30 37  1  0
 31 32  2  0
 31 33  1  0
 33 34  1  0
 34 35  1  1
 34 36  1  0
 37 36  1  6
 37 38  1  0
 38 39  2  0
 40 41  1  1
 40 42  1  0
M  END
