
     RDKit          3D

 40 43  0  0  0  0  0  0  0  0999 V2000
   -4.0080   -4.6080   -0.2110 C   0  0  0  0  0  0  0  0  0  0  0  0
   -4.2290   -3.5020    0.7970 C   0  0  1  0  0  0  0  0  0  0  0  0
   -5.6790   -3.1670    0.8330 C   0  0  0  0  0  0  0  0  0  0  0  0
   -3.8040   -3.9520    2.0160 O   0  0  0  0  0  0  0  0  0  0  0  0
   -3.4620   -2.2690    0.4520 C   0  0  0  0  0  0  0  0  0  0  0  0
   -2.1030   -2.1370    0.3740 C   0  0  0  0  0  0  0  0  0  0  0  0
   -1.8070   -0.8590   -0.0040 N   0  0  0  0  0  0  0  0  0  0  0  0
   -0.4790   -0.4730   -0.1070 C   0  0  0  0  0  0  0  0  0  0  0  0
    0.1570   -0.2630    1.1250 C   0  0  0  0  0  0  0  0  0  0  0  0
    1.4400    0.0680    1.2930 C   0  0  0  0  0  0  0  0  0  0  0  0
    2.1880    0.2110    0.1080 C   0  0  0  0  0  0  0  0  0  0  0  0
    3.6210    0.3620    0.2760 C   0  0  0  0  0  0  0  0  0  0  0  0
    4.1450    0.7580    1.4780 C   0  0  0  0  0  0  0  0  0  0  0  0
    5.4810    0.9380    1.6900 C   0  0  0  0  0  0  0  0  0  0  0  0
    5.9720    1.3400    2.8810 F   0  0  0  0  0  0  0  0  0  0  0  0
    6.3630    0.7190    0.6690 C   0  0  0  0  0  0  0  0  0  0  0  0
    7.8100    0.8330    1.0150 C   0  0  0  0  0  0  0  0  0  0  0  0
    8.4090    1.7950    0.1690 O   0  0  0  0  0  0  0  0  0  0  0  0
    5.9090    0.3210   -0.5530 C   0  0  0  0  0  0  0  0  0  0  0  0
    6.9500   -0.2100   -1.8430 S   0  0  2  0  0  0  0  0  0  0  0  0
    7.7230   -1.7750   -1.4070 C   0  0  0  0  0  0  0  0  0  0  0  0
    7.9570    0.8400   -2.1220 O   0  0  0  0  0  0  0  0  0  0  0  0
    6.1300   -0.4060   -3.0930 O   0  0  0  0  0  0  0  0  0  0  0  0
    4.5270    0.1480   -0.7340 C   0  0  0  0  0  0  0  0  0  0  0  0
    1.6150    0.0250   -1.1240 C   0  0  0  0  0  0  0  0  0  0  0  0
    0.2390   -0.3270   -1.2220 C   0  0  0  0  0  0  0  0  0  0  0  0
   -0.1910   -0.5200   -2.4710 F   0  0  0  0  0  0  0  0  0  0  0  0
   -2.8620   -0.1540   -0.1800 C   0  0  0  0  0  0  0  0  0  0  0  0
   -3.3690    1.1150   -0.6020 C   0  0  2  0  0  0  0  0  0  0  0  0
   -4.4080    0.9110   -1.7490 C   0  0  0  0  0  0  0  0  0  0  0  0
   -2.1990    1.6830   -1.6210 C   0  0  0  0  0  0  0  0  0  0  0  0
   -3.7450    2.3110    0.0910 C   0  0  0  0  0  0  0  0  0  0  0  0
   -2.9160    3.2320    0.6430 C   0  0  0  0  0  0  0  0  0  0  0  0
   -1.1930    3.0320    0.6070 Cl  0  0  0  0  0  0  0  0  0  0  0  0
   -3.4210    4.3850    1.2940 C   0  0  0  0  0  0  0  0  0  0  0  0
   -4.7640    4.5980    1.3850 C   0  0  0  0  0  0  0  0  0  0  0  0
   -5.6530    3.7040    0.8640 C   0  0  0  0  0  0  0  0  0  0  0  0
   -5.1360    2.5990    0.2430 C   0  0  0  0  0  0  0  0  0  0  0  0
   -6.2580    1.2790   -0.1760 Cl  0  0  0  0  0  0  0  0  0  0  0  0
   -3.9260   -1.1030    0.1240 N   0  0  0  0  0  0  0  0  0  0  0  0
  2  1  1  6
  2  3  1  0
  2  4  1  0
  2  5  1  0
  5  6  2  0
  5 40  1  0
  6  7  1  0
  7  8  1  0
  7 28  1  0
  8  9  2  0
  8 26  1  0
  9 10  1  0
 10 11  2  0
 11 12  1  0
 11 25  1  0
 12 13  2  0
 12 24  1  0
 13 14  1  0
 14 15  1  0
 14 16  2  0
 16 17  1  0
 16 19  1  0
 17 18  1  0
 19 20  1  0
 19 24  2  0
 20 21  1  1
 20 22  2  0
 20 23  2  0
 25 26  2  0
 26 27  1  0
 28 29  1  0
 28 40  2  0
 29 30  1  6
 29 31  1  0
 29 32  1  0
 32 33  2  0
 32 38  1  0
 33 34  1  0
 33 35  1  0
 35 36  2  0
 36 37  1  0
 37 38  2  0
 38 39  1  0
M  END
