
     RDKit          3D

 42 45  0  0  0  0  0  0  0  0999 V2000
  -10.1410    0.1010   -0.0270 C   0  0  0  0  0  0  0  0  0  0  0  0
   -8.6730   -0.9180   -0.3400 S   0  0  0  0  0  0  0  0  0  0  0  0
   -7.1940   -0.1180    0.2540 C   0  0  0  0  0  0  0  0  0  0  0  0
   -6.0530   -0.7680    0.5010 C   0  0  0  0  0  0  0  0  0  0  0  0
   -6.0270   -2.2190    0.2680 C   0  0  2  0  0  0  0  0  0  0  0  0
   -5.8720   -3.0240    1.5370 C   0  0  0  0  0  0  0  0  0  0  0  0
   -5.0250   -2.5810   -0.6410 F   0  0  0  0  0  0  0  0  0  0  0  0
   -7.2070   -2.6110   -0.3950 F   0  0  0  0  0  0  0  0  0  0  0  0
   -4.8580   -0.0430    1.0460 C   0  0  1  0  0  0  0  0  0  0  0  0
   -4.7580   -0.3150    2.5340 C   0  0  0  0  0  0  0  0  0  0  0  0
   -3.5890   -0.5470    0.4260 C   0  0  0  0  0  0  0  0  0  0  0  0
   -2.3560    0.0970    0.9440 C   0  0  0  0  0  0  0  0  0  0  0  0
   -2.3200    0.9130    1.8960 O   0  0  0  0  0  0  0  0  0  0  0  0
   -1.0860   -0.2150    0.3270 N   0  0  0  0  0  0  0  0  0  0  0  0
    0.0790    0.4380    0.8350 C   0  0  0  0  0  0  0  0  0  0  0  0
    1.3190    0.0050    0.1450 C   0  0  0  0  0  0  0  0  0  0  0  0
    1.2050   -0.8710   -0.7330 O   0  0  0  0  0  0  0  0  0  0  0  0
    2.5700    0.5630    0.4700 N   0  0  0  0  0  0  0  0  0  0  0  0
    3.8300    0.2050   -0.1110 C   0  0  0  0  0  0  0  0  0  0  0  0
    3.9750   -1.0610   -0.6020 C   0  0  0  0  0  0  0  0  0  0  0  0
    5.2090   -1.5440   -1.0920 C   0  0  0  0  0  0  0  0  0  0  0  0
    5.2500   -2.9580   -1.5150 C   0  0  0  0  0  0  0  0  0  0  0  0
    4.3730   -3.8400   -1.0060 C   0  0  0  0  0  0  0  0  0  0  0  0
    4.6520   -5.1460   -1.6160 C   0  0  0  0  0  0  0  0  0  0  0  0
    5.7470   -4.9130   -2.5550 C   0  0  0  0  0  0  0  0  0  0  0  0
    6.0860   -3.6120   -2.4730 C   0  0  0  0  0  0  0  0  0  0  0  0
    7.0550   -3.1390   -3.2900 F   0  0  0  0  0  0  0  0  0  0  0  0
    6.2840   -0.7120   -1.0640 C   0  0  0  0  0  0  0  0  0  0  0  0
    7.6360   -1.1110   -1.4770 C   0  0  0  0  0  0  0  0  0  0  0  0
    6.1140    0.5560   -0.5680 C   0  0  0  0  0  0  0  0  0  0  0  0
    4.9020    1.0360   -0.0890 C   0  0  0  0  0  0  0  0  0  0  0  0
    4.8010    2.4150    0.3550 C   0  0  0  0  0  0  0  0  0  0  0  0
    3.7750    2.9910    0.7380 O   0  0  0  0  0  0  0  0  0  0  0  0
    5.9590    3.2440    0.3730 O   0  0  0  0  0  0  0  0  0  0  0  0
    5.8880    4.5600    0.7800 C   0  0  0  0  0  0  0  0  0  0  0  0
    6.0350    5.1650    1.9970 C   0  0  0  0  0  0  0  0  0  0  0  0
    5.8590    6.5380    1.8350 C   0  0  0  0  0  0  0  0  0  0  0  0
    5.6170    6.7420    0.5760 O   0  0  0  0  0  0  0  0  0  0  0  0
    5.6180    5.6080   -0.1160 C   0  0  0  0  0  0  0  0  0  0  0  0
   -5.1090    1.4210    0.8460 C   0  0  2  0  0  0  0  0  0  0  0  0
   -5.3250    1.9010   -0.5540 C   0  0  0  0  0  0  0  0  0  0  0  0
   -4.1620    2.3820    0.2980 C   0  0  0  0  0  0  0  0  0  0  0  0
  1  2  1  0
  2  3  1  0
  3  4  2  3
  4  5  1  0
  4  9  1  0
  5  6  1  1
  5  7  1  0
  5  8  1  0
  9 10  1  1
  9 11  1  0
  9 40  1  0
 11 12  1  0
 12 13  2  0
 12 14  1  0
 14 15  1  0
 15 16  1  0
 16 17  2  0
 16 18  1  0
 18 19  1  0
 19 20  2  0
 19 31  1  0
 20 21  1  0
 21 22  1  0
 21 28  2  0
 22 23  2  0
 22 26  1  0
 23 24  1  0
 24 25  1  0
 25 26  2  0
 26 27  1  0
 28 29  1  0
 28 30  1  0
 30 31  2  0
 31 32  1  0
 32 33  2  0
 32 34  1  0
 34 35  1  0
 35 36  1  0
 35 39  2  0
 36 37  2  0
 37 38  1  0
 38 39  1  0
 40 41  1  6
 40 42  1  0
 41 42  1  0
M  END
