
     RDKit          3D

 42 45  0  0  0  0  0  0  0  0999 V2000
   -8.5630    4.2290   -2.1500 C   0  0  0  0  0  0  0  0  0  0  0  0
   -8.3010    2.7920   -2.0130 C   0  0  0  0  0  0  0  0  0  0  0  0
   -7.3550    2.3560   -1.2140 C   0  0  0  0  0  0  0  0  0  0  0  0
   -7.0430    0.9470   -1.0310 C   0  0  0  0  0  0  0  0  0  0  0  0
   -5.9800    0.6610   -0.1240 O   0  0  0  0  0  0  0  0  0  0  0  0
   -4.6830    0.5290   -0.6000 C   0  0  0  0  0  0  0  0  0  0  0  0
   -4.5070    0.6650   -1.8340 O   0  0  0  0  0  0  0  0  0  0  0  0
   -3.5490    0.2440    0.2600 C   0  0  0  0  0  0  0  0  0  0  0  0
   -3.5540    0.0850    1.5930 N   0  0  0  0  0  0  0  0  0  0  0  0
   -2.3050   -0.1740    2.0380 C   0  0  0  0  0  0  0  0  0  0  0  0
   -1.8950   -0.4110    3.4490 C   0  0  0  0  0  0  0  0  0  0  0  0
   -1.4920   -0.1770    0.9340 C   0  0  0  0  0  0  0  0  0  0  0  0
   -0.0410   -0.4130    0.8810 C   0  0  0  0  0  0  0  0  0  0  0  0
    0.7780    0.5220    0.9730 O   0  0  0  0  0  0  0  0  0  0  0  0
    0.3960   -1.8100    0.7140 C   0  0  0  0  0  0  0  0  0  0  0  0
    1.7530   -2.0370    0.7000 O   0  0  0  0  0  0  0  0  0  0  0  0
    2.5820   -1.7680    1.7630 C   0  0  0  0  0  0  0  0  0  0  0  0
    2.1370   -1.2570    2.9560 C   0  0  0  0  0  0  0  0  0  0  0  0
    3.0150   -1.0020    3.9910 C   0  0  0  0  0  0  0  0  0  0  0  0
    4.3670   -1.2420    3.8820 C   0  0  0  0  0  0  0  0  0  0  0  0
    4.8380   -1.7620    2.6750 C   0  0  0  0  0  0  0  0  0  0  0  0
    6.1860   -2.0200    2.5300 O   0  0  0  0  0  0  0  0  0  0  0  0
    6.7140   -2.5340    1.3320 C   0  0  0  0  0  0  0  0  0  0  0  0
    6.4880   -1.5590    0.2390 C   0  0  0  0  0  0  0  0  0  0  0  0
    6.4460   -1.9250   -1.0880 C   0  0  0  0  0  0  0  0  0  0  0  0
    6.2600   -0.9780   -2.0550 C   0  0  0  0  0  0  0  0  0  0  0  0
    6.1070    0.3700   -1.7590 C   0  0  0  0  0  0  0  0  0  0  0  0
    5.9180    1.3680   -2.8330 C   0  0  0  0  0  0  0  0  0  0  0  0
    6.1450    0.7580   -0.4500 C   0  0  0  0  0  0  0  0  0  0  0  0
    6.0070    2.1660    0.0070 C   0  0  2  0  0  0  0  0  0  0  0  0
    7.2080    2.4650    0.6700 F   0  0  0  0  0  0  0  0  0  0  0  0
    5.0250    2.2130    0.9730 F   0  0  0  0  0  0  0  0  0  0  0  0
    6.3330   -0.2000    0.5190 C   0  0  0  0  0  0  0  0  0  0  0  0
    3.9620   -2.0130    1.6530 C   0  0  0  0  0  0  0  0  0  0  0  0
   -2.2590    0.0850   -0.1860 C   0  0  0  0  0  0  0  0  0  0  0  0
   -1.7830    0.1790   -1.6070 C   0  0  0  0  0  0  0  0  0  0  0  0
   -7.6560   -0.0160   -1.6260 C   0  0  0  0  0  0  0  0  0  0  0  0
   -7.1640   -1.3760   -1.2850 C   0  0  0  0  0  0  0  0  0  0  0  0
   -6.7950   -2.4230   -1.0250 N   0  0  0  0  0  0  0  0  0  0  0  0
   -8.7660   -0.0100   -2.5920 C   0  0  2  0  0  0  0  0  0  0  0  0
   -8.4090   -0.6520   -3.7750 F   0  0  0  0  0  0  0  0  0  0  0  0
   -9.2820    1.6650   -2.9470 S   0  0  0  0  0  0  0  0  0  0  0  0
  1  2  1  0
  2  3  2  0
  2 42  1  0
  3  4  1  0
  4  5  1  0
  4 37  2  0
  5  6  1  0
  6  7  2  0
  6  8  1  0
  8  9  1  0
  8 35  2  0
  9 10  1  0
 10 11  1  0
 10 12  2  0
 12 13  1  0
 12 35  1  0
 13 14  2  0
 13 15  1  0
 15 16  1  0
 16 17  1  0
 17 18  2  0
 17 34  1  0
 18 19  1  0
 19 20  2  0
 20 21  1  0
 21 22  1  0
 21 34  2  0
 22 23  1  0
 23 24  1  0
 24 25  2  0
 24 33  1  0
 25 26  1  0
 26 27  2  0
 27 28  1  0
 27 29  1  0
 29 30  1  0
 29 33  2  0
 30 31  1  1
 30 32  1  0
 35 36  1  0
 37 38  1  0
 37 40  1  0
 38 39  3  0
 40 41  1  6
 40 42  1  0
M  END
