
     RDKit          3D

 42 45  0  0  0  0  0  0  0  0999 V2000
   -0.1750   -5.6080    0.4890 C   0  0  0  0  0  0  0  0  0  0  0  0
    0.1710   -4.4590    1.3890 C   0  0  0  0  0  0  0  0  0  0  0  0
   -0.2980   -3.2160    0.8920 O   0  0  0  0  0  0  0  0  0  0  0  0
   -1.5800   -2.8700    0.6450 C   0  0  0  0  0  0  0  0  0  0  0  0
   -2.4610   -3.7700    0.8880 O   0  0  0  0  0  0  0  0  0  0  0  0
   -2.0280   -1.5940    0.1450 C   0  0  0  0  0  0  0  0  0  0  0  0
   -3.4080   -1.3610    0.0250 C   0  0  0  0  0  0  0  0  0  0  0  0
   -3.9550   -0.1720   -0.3790 C   0  0  0  0  0  0  0  0  0  0  0  0
   -5.4120   -0.0480   -0.4850 C   0  0  0  0  0  0  0  0  0  0  0  0
   -6.0960   -1.1130   -0.4760 O   0  0  0  0  0  0  0  0  0  0  0  0
   -6.1140    1.1650   -0.5970 N   0  0  0  0  0  0  0  0  0  0  0  0
   -7.5320    1.1740   -0.7000 C   0  0  2  0  0  0  0  0  0  0  0  0
   -8.0620    1.9810   -1.8780 C   0  0  0  0  0  0  0  0  0  0  0  0
   -9.4910    2.2210   -1.4200 C   0  0  0  0  0  0  0  0  0  0  0  0
   -9.6000    1.7780   -0.1230 O   0  0  0  0  0  0  0  0  0  0  0  0
   -8.2960    1.7730    0.4330 C   0  0  2  0  0  0  0  0  0  0  0  0
   -7.9920    3.1810    0.7870 C   0  0  0  0  0  0  0  0  0  0  0  0
   -6.6010    3.4820    1.2180 C   0  0  0  0  0  0  0  0  0  0  0  0
   -3.0820    0.8420   -0.6810 C   0  0  0  0  0  0  0  0  0  0  0  0
   -1.6920    0.6760   -0.5830 C   0  0  0  0  0  0  0  0  0  0  0  0
   -1.1780   -0.5500   -0.1700 C   0  0  0  0  0  0  0  0  0  0  0  0
    0.2200   -0.7450   -0.1640 N   0  0  0  0  0  0  0  0  0  0  0  0
    1.1930    0.2810   -0.2140 C   0  0  0  0  0  0  0  0  0  0  0  0
    0.9650    1.4860   -0.2560 O   0  0  0  0  0  0  0  0  0  0  0  0
    2.6030   -0.1510   -0.2170 C   0  0  0  0  0  0  0  0  0  0  0  0
    3.3120   -0.3670    0.9400 C   0  0  0  0  0  0  0  0  0  0  0  0
    4.6300   -0.7840    0.8510 C   0  0  0  0  0  0  0  0  0  0  0  0
    5.2570   -0.9920   -0.3590 C   0  0  0  0  0  0  0  0  0  0  0  0
    6.6830   -1.4810   -0.3940 C   0  0  0  0  0  0  0  0  0  0  0  0
    6.9100   -2.6930    0.2590 C   0  0  0  0  0  0  0  0  0  0  0  0
    8.6080   -3.0010   -0.0750 S   0  0  0  0  0  0  0  0  0  0  0  0
    8.9310   -1.5590   -1.0300 C   0  0  0  0  0  0  0  0  0  0  0  0
    7.6960   -0.9140   -1.0360 C   0  0  0  0  0  0  0  0  0  0  0  0
    7.6510    0.4460   -1.7150 C   0  0  0  0  0  0  0  0  0  0  0  0
    8.0160    1.4990   -0.7330 C   0  0  0  0  0  0  0  0  0  0  0  0
    7.1000    1.5230    0.4440 C   0  0  0  0  0  0  0  0  0  0  0  0
    7.5830    2.6580    1.3630 C   0  0  2  0  0  0  0  0  0  0  0  0
    7.5050    3.8160    0.6190 F   0  0  0  0  0  0  0  0  0  0  0  0
    8.9030    2.3440    1.6570 F   0  0  0  0  0  0  0  0  0  0  0  0
    6.8270    2.7000    2.4920 F   0  0  0  0  0  0  0  0  0  0  0  0
    4.5480   -0.7770   -1.5150 C   0  0  0  0  0  0  0  0  0  0  0  0
    3.2260   -0.3570   -1.4210 C   0  0  0  0  0  0  0  0  0  0  0  0
  1  2  1  0
  2  3  1  0
  3  4  1  0
  4  5  2  0
  4  6  1  0
  6  7  2  0
  6 21  1  0
  7  8  1  0
  8  9  1  0
  8 19  2  0
  9 10  2  0
  9 11  1  0
 12 11  1  1
 12 13  1  0
 12 16  1  0
 13 14  1  0
 14 15  1  0
 15 16  1  0
 16 17  1  6
 17 18  1  0
 19 20  1  0
 20 21  2  0
 21 22  1  0
 22 23  1  0
 23 24  2  0
 23 25  1  0
 25 26  2  0
 25 42  1  0
 26 27  1  0
 27 28  2  0
 28 29  1  0
 28 41  1  0
 29 30  2  0
 29 33  1  0
 30 31  1  0
 31 32  1  0
 32 33  2  0
 33 34  1  0
 34 35  1  0
 35 36  1  0
 36 37  1  0
 37 38  1  6
 37 39  1  0
 37 40  1  0
 41 42  2  0
M  END
