
     RDKit          3D

 42 45  0  0  0  0  0  0  0  0999 V2000
    9.4890    0.8300   -3.0110 C   0  0  0  0  0  0  0  0  0  0  0  0
    8.0240    0.7000   -2.7410 C   0  0  0  0  0  0  0  0  0  0  0  0
    7.6600    1.3740   -1.4420 C   0  0  0  0  0  0  0  0  0  0  0  0
    8.5990    1.8900   -0.8000 O   0  0  0  0  0  0  0  0  0  0  0  0
    6.2990    1.4070   -0.9880 C   0  0  0  0  0  0  0  0  0  0  0  0
    5.6490    1.9050    0.0930 C   0  0  0  0  0  0  0  0  0  0  0  0
    4.3190    1.7460    0.1810 C   0  0  0  0  0  0  0  0  0  0  0  0
    3.6560    1.1080   -0.7830 C   0  0  0  0  0  0  0  0  0  0  0  0
    2.2100    0.8050   -0.9320 C   0  0  2  0  0  0  0  0  0  0  0  0
    1.4270    2.0860   -1.0280 C   0  0  0  0  0  0  0  0  0  0  0  0
    1.7410   -0.0640    0.1990 C   0  0  0  0  0  0  0  0  0  0  0  0
    2.5680   -0.4890    1.0380 O   0  0  0  0  0  0  0  0  0  0  0  0
    0.3800   -0.4160    0.3440 N   0  0  0  0  0  0  0  0  0  0  0  0
   -0.1890   -1.2270    1.3570 C   0  0  0  0  0  0  0  0  0  0  0  0
    0.5090   -1.9590    2.2810 C   0  0  0  0  0  0  0  0  0  0  0  0
   -0.1480   -2.7610    3.2260 C   0  0  0  0  0  0  0  0  0  0  0  0
    0.5680   -3.4670    4.1170 F   0  0  0  0  0  0  0  0  0  0  0  0
   -1.5170   -2.8100    3.2200 C   0  0  0  0  0  0  0  0  0  0  0  0
   -2.2050   -2.0690    2.2860 C   0  0  0  0  0  0  0  0  0  0  0  0
   -1.5840   -1.2790    1.3550 C   0  0  0  0  0  0  0  0  0  0  0  0
   -2.3420   -0.5170    0.4430 N   0  0  0  0  0  0  0  0  0  0  0  0
   -2.3890    0.9280    0.4920 C   0  0  0  0  0  0  0  0  0  0  0  0
   -3.5400    1.3710    1.4100 C   0  0  1  0  0  0  0  0  0  0  0  0
   -3.3360    0.8340    2.7070 O   0  0  0  0  0  0  0  0  0  0  0  0
   -3.6310    2.8280    1.4970 C   0  0  0  0  0  0  0  0  0  0  0  0
   -4.4360    3.4010    2.4570 C   0  0  0  0  0  0  0  0  0  0  0  0
   -4.5490    4.7780    2.5930 C   0  0  0  0  0  0  0  0  0  0  0  0
   -5.3390    5.3150    3.5380 F   0  0  0  0  0  0  0  0  0  0  0  0
   -3.8350    5.5990    1.7410 C   0  0  0  0  0  0  0  0  0  0  0  0
   -3.0380    5.0220    0.7890 C   0  0  0  0  0  0  0  0  0  0  0  0
   -2.3450    5.8390   -0.0410 F   0  0  0  0  0  0  0  0  0  0  0  0
   -2.9250    3.6410    0.6520 C   0  0  0  0  0  0  0  0  0  0  0  0
   -3.0960   -1.1800   -0.5480 C   0  0  0  0  0  0  0  0  0  0  0  0
   -3.7500   -0.4840   -1.3850 O   0  0  0  0  0  0  0  0  0  0  0  0
   -3.1870   -2.6250   -0.6870 C   0  0  0  0  0  0  0  0  0  0  0  0
   -3.9100   -3.2070   -1.6200 C   0  0  0  0  0  0  0  0  0  0  0  0
   -4.0120   -4.6430   -1.7720 C   0  0  0  0  0  0  0  0  0  0  0  0
   -4.7430   -5.3290   -2.7110 C   0  0  0  0  0  0  0  0  0  0  0  0
   -4.5330   -6.6830   -2.4630 C   0  0  0  0  0  0  0  0  0  0  0  0
   -3.6810   -6.7220   -1.3800 C   0  0  0  0  0  0  0  0  0  0  0  0
   -3.4020   -5.5100   -1.0090 O   0  0  0  0  0  0  0  0  0  0  0  0
    4.8730    0.6690   -1.9170 S   0  0  0  0  0  0  0  0  0  0  0  0
  1  2  1  0
  2  3  1  0
  3  4  2  0
  3  5  1  0
  5  6  2  0
  5 42  1  0
  6  7  1  0
  7  8  2  0
  8  9  1  0
  8 42  1  0
  9 10  1  1
  9 11  1  0
 11 12  2  0
 11 13  1  0
 13 14  1  0
 14 15  2  0
 14 20  1  0
 15 16  1  0
 16 17  1  0
 16 18  2  0
 18 19  1  0
 19 20  2  0
 20 21  1  0
 21 22  1  0
 21 33  1  0
 22 23  1  0
 23 24  1  1
 23 25  1  0
 25 26  2  0
 25 32  1  0
 26 27  1  0
 27 28  1  0
 27 29  2  0
 29 30  1  0
 30 31  1  0
 30 32  2  0
 33 34  2  0
 33 35  1  0
 35 36  2  3
 36 37  1  0
 37 38  2  0
 37 41  1  0
 38 39  1  0
 39 40  2  0
 40 41  1  0
M  END
