
     RDKit          3D

 22 23  0  0  0  0  0  0  0  0999 V2000
   -4.0730    2.1210    1.0580 C   0  0  0  0  0  0  0  0  0  0  0  0
   -3.3420    0.9340    1.1090 O   0  0  0  0  0  0  0  0  0  0  0  0
   -3.1360    0.0280    0.1030 C   0  0  0  0  0  0  0  0  0  0  0  0
   -3.8900   -0.1850   -0.9520 C   0  0  0  0  0  0  0  0  0  0  0  0
   -5.1690    0.5060   -1.3280 C   0  0  0  0  0  0  0  0  0  0  0  0
   -3.3090   -1.2570   -1.7920 C   0  0  0  0  0  0  0  0  0  0  0  0
   -2.1540   -1.6290   -1.1120 O   0  0  0  0  0  0  0  0  0  0  0  0
   -1.9810   -0.8980    0.0430 C   0  0  0  0  0  0  0  0  0  0  0  0
   -1.0100   -0.9730    0.9350 C   0  0  0  0  0  0  0  0  0  0  0  0
    0.1420   -1.8960    0.8780 C   0  0  1  0  0  0  0  0  0  0  0  0
    0.3770   -2.3820   -0.4570 N   0  0  0  0  0  0  0  0  0  0  0  0
    1.5760   -2.0920   -1.2010 C   0  0  0  0  0  0  0  0  0  0  0  0
    1.7660   -2.4450   -2.3770 O   0  0  0  0  0  0  0  0  0  0  0  0
    2.5650   -1.3510   -0.4840 N   0  0  0  0  0  0  0  0  0  0  0  0
    2.0300   -0.5070    0.5890 C   0  0  2  0  0  0  0  0  0  0  0  0
    1.2450    0.5050    0.0780 O   0  0  0  0  0  0  0  0  0  0  0  0
    3.1940    0.1110    1.1980 N   0  0  0  0  0  0  0  0  0  0  0  0
    3.8620    0.8150    0.1820 N   0  0  0  0  0  0  0  0  0  0  0  0
    5.0950    1.5000    0.4410 C   0  0  0  0  0  0  0  0  0  0  0  0
    5.7950    2.2380   -0.6320 C   0  0  0  0  0  0  0  0  0  0  0  0
    5.5380    1.4320    1.6280 O   0  0  0  0  0  0  0  0  0  0  0  0
    1.3230   -1.3600    1.4840 N   0  0  0  0  0  0  0  0  0  0  0  0
  1  2  1  0
  2  3  1  0
  3  4  2  0
  3  8  1  0
  4  5  1  0
  4  6  1  0
  6  7  1  0
  7  8  1  0
  8  9  2  3
 10  9  1  6
 10 11  1  0
 10 22  1  0
 11 12  1  0
 12 13  2  0
 12 14  1  0
 14 15  1  0
 15 16  1  6
 15 17  1  0
 15 22  1  0
 17 18  1  0
 18 19  1  0
 19 20  1  0
 19 21  2  0
M  END
