
     RDKit          3D

 16 18  0  0  0  0  0  0  0  0999 V2000
   -3.2720   -2.2770   -0.5600 C   0  0  0  0  0  0  0  0  0  0  0  0
   -2.5670   -1.0630   -0.0670 C   0  0  0  0  0  0  0  0  0  0  0  0
   -3.2420   -0.0520    0.5820 C   0  0  0  0  0  0  0  0  0  0  0  0
   -2.5510    1.0460    1.0180 C   0  0  0  0  0  0  0  0  0  0  0  0
   -1.2010    1.1840    0.8330 C   0  0  0  0  0  0  0  0  0  0  0  0
   -0.3550    2.1610    1.1890 N   0  0  0  0  0  0  0  0  0  0  0  0
    0.8750    1.8300    0.7920 C   0  0  0  0  0  0  0  0  0  0  0  0
    2.0840    2.6810    0.9950 C   0  0  0  0  0  0  0  0  0  0  0  0
    0.7660    0.5940    0.1660 C   0  0  0  0  0  0  0  0  0  0  0  0
    1.8880   -0.1450   -0.3720 C   0  0  0  0  0  0  0  0  0  0  0  0
    1.9180   -1.1600   -1.2930 C   0  0  0  0  0  0  0  0  0  0  0  0
    3.2470   -1.5240   -1.5630 C   0  0  0  0  0  0  0  0  0  0  0  0
    3.9700   -0.7110   -0.7910 N   0  0  0  0  0  0  0  0  0  0  0  0
    3.1970    0.0970   -0.0920 N   0  0  0  0  0  0  0  0  0  0  0  0
   -0.5360    0.1810    0.1890 N   0  0  0  0  0  0  0  0  0  0  0  0
   -1.2070   -0.8980   -0.2400 C   0  0  0  0  0  0  0  0  0  0  0  0
  1  2  1  0
  2  3  1  0
  2 16  2  0
  3  4  2  0
  4  5  1  0
  5  6  2  0
  5 15  1  0
  6  7  1  0
  7  8  1  0
  7  9  2  0
  9 10  1  0
  9 15  1  0
 10 11  2  0
 10 14  1  0
 11 12  1  0
 12 13  2  0
 13 14  1  0
 15 16  1  0
M  END
