
     RDKit          3D

 22 23  0  0  0  0  0  0  0  0999 V2000
   -1.0770   -2.3610   -1.5710 N   0  0  0  0  0  0  0  0  0  0  0  0
   -0.0010   -1.7900   -0.8740 C   0  0  0  0  0  0  0  0  0  0  0  0
    1.0380   -2.5230   -0.9370 O   0  0  0  0  0  0  0  0  0  0  0  0
    0.0310   -0.5330   -0.1470 C   0  0  0  0  0  0  0  0  0  0  0  0
    1.1850   -0.0100    0.5020 N   0  0  0  0  0  0  0  0  0  0  0  0
    2.5100   -0.4920    0.4920 C   0  0  0  0  0  0  0  0  0  0  0  0
    2.7980   -1.5080   -0.1610 O   0  0  0  0  0  0  0  0  0  0  0  0
    3.5530    0.1870    1.2400 N   0  0  0  0  0  0  0  0  0  0  0  0
    4.9110   -0.2980    1.2180 C   0  0  0  0  0  0  0  0  0  0  0  0
    5.4460   -0.2360   -0.1820 C   0  0  0  0  0  0  0  0  0  0  0  0
    5.3840    1.1190   -0.5730 O   0  0  0  0  0  0  0  0  0  0  0  0
   -1.0770    0.1770    0.0530 C   0  0  0  0  0  0  0  0  0  0  0  0
   -1.0490    1.4640    0.7840 C   0  0  0  0  0  0  0  0  0  0  0  0
   -1.6190    1.2220    2.1980 C   0  0  0  0  0  0  0  0  0  0  0  0
   -3.0360    0.7720    1.9100 C   0  0  0  0  0  0  0  0  0  0  0  0
   -3.9000    0.6970    2.8020 O   0  0  0  0  0  0  0  0  0  0  0  0
   -3.4260    0.4120    0.5550 C   0  0  0  0  0  0  0  0  0  0  0  0
   -4.5150    0.5130   -0.1580 C   0  0  0  0  0  0  0  0  0  0  0  0
   -5.7000    1.0700    0.3230 O   0  0  0  0  0  0  0  0  0  0  0  0
   -4.2790   -0.0290   -1.4720 N   0  0  0  0  0  0  0  0  0  0  0  0
   -2.8710    0.1340   -1.6360 N   0  0  0  0  0  0  0  0  0  0  0  0
   -2.3980   -0.2820   -0.3590 C   0  0  1  0  0  0  0  0  0  0  0  0
  1  2  1  0
  2  3  2  0
  2  4  1  0
  4  5  1  0
  4 12  2  3
  5  6  1  0
  6  7  2  0
  6  8  1  0
  8  9  1  0
  9 10  1  0
 10 11  1  0
 12 13  1  0
 12 22  1  0
 13 14  1  0
 14 15  1  0
 15 16  2  0
 15 17  1  0
 17 18  2  0
 17 22  1  0
 18 19  1  0
 18 20  1  0
 20 21  1  0
 22 21  1  6
M  END
