
     RDKit          3D

 21 23  0  0  0  0  0  0  0  0999 V2000
    0.0930    3.8380    0.2230 N   0  0  0  0  0  0  0  0  0  0  0  0
   -0.0260    2.4670   -0.1330 C   0  0  0  0  0  0  0  0  0  0  0  0
    0.2150    2.1510   -1.3330 O   0  0  0  0  0  0  0  0  0  0  0  0
   -0.4010    1.4700    0.8150 N   0  0  0  0  0  0  0  0  0  0  0  0
   -0.4830    0.0880    0.3560 C   0  0  1  0  0  0  0  0  0  0  0  0
    0.9260   -0.2690   -0.0340 C   0  0  0  0  0  0  0  0  0  0  0  0
    1.9140   -0.4350    0.8640 N   0  0  0  0  0  0  0  0  0  0  0  0
    3.0990   -0.6900    0.2290 C   0  0  0  0  0  0  0  0  0  0  0  0
    4.3480   -0.9380    0.9080 C   0  0  0  0  0  0  0  0  0  0  0  0
    5.5680   -0.7920    0.1630 N   0  0  0  0  0  0  0  0  0  0  0  0
    4.4600   -1.2680    2.1270 O   0  0  0  0  0  0  0  0  0  0  0  0
    2.8000   -0.6820   -1.1170 C   0  0  0  0  0  0  0  0  0  0  0  0
    1.4800   -0.4230   -1.2430 N   0  0  0  0  0  0  0  0  0  0  0  0
   -0.9130   -0.8740    1.4320 C   0  0  0  0  0  0  0  0  0  0  0  0
   -1.2750   -2.0850    0.5610 C   0  0  0  0  0  0  0  0  0  0  0  0
   -2.2230   -1.4060   -0.4120 C   0  0  1  0  0  0  0  0  0  0  0  0
   -2.4610   -2.1880   -1.5300 O   0  0  0  0  0  0  0  0  0  0  0  0
   -3.3510   -1.0910    0.2970 O   0  0  0  0  0  0  0  0  0  0  0  0
   -3.8350    0.0400   -0.3190 C   0  0  0  0  0  0  0  0  0  0  0  0
   -2.6350    0.8770   -0.6590 C   0  0  0  0  0  0  0  0  0  0  0  0
   -1.4750   -0.1290   -0.7310 C   0  0  1  0  0  0  0  0  0  0  0  0
  1  2  1  0
  2  3  2  0
  2  4  1  0
  5  4  1  1
  5  6  1  0
  5 14  1  0
  5 21  1  0
  6  7  2  0
  6 13  1  0
  7  8  1  0
  8  9  1  0
  8 12  2  0
  9 10  1  0
  9 11  2  0
 12 13  1  0
 14 15  1  0
 15 16  1  0
 16 17  1  6
 16 18  1  0
 16 21  1  0
 18 19  1  0
 19 20  1  0
 21 20  1  1
M  END
