
     RDKit          3D

 38 41  0  0  0  0  0  0  0  0999 V2000
   -3.6910   -5.5410    1.0890 C   0  0  0  0  0  0  0  0  0  0  0  0
   -4.0220   -4.5510    0.2480 C   0  0  0  0  0  0  0  0  0  0  0  0
   -3.3150   -3.2680    0.3440 C   0  0  0  0  0  0  0  0  0  0  0  0
   -3.6110   -2.2630   -0.4500 C   0  0  0  0  0  0  0  0  0  0  0  0
   -2.9700   -1.0180   -0.4020 N   0  0  0  0  0  0  0  0  0  0  0  0
   -1.9430   -0.6170    0.4690 C   0  0  0  0  0  0  0  0  0  0  0  0
   -1.4850   -1.3720    1.3220 O   0  0  0  0  0  0  0  0  0  0  0  0
   -1.3640    0.6990    0.4160 N   0  0  0  0  0  0  0  0  0  0  0  0
   -0.3250    1.1220    1.2930 C   0  0  1  0  0  0  0  0  0  0  0  0
   -0.7250    1.0510    2.7540 C   0  0  0  0  0  0  0  0  0  0  0  0
    1.1810    0.1330    1.1020 S   0  0  0  0  0  0  0  0  0  0  0  0
    1.9300    0.3940   -0.5260 C   0  0  0  0  0  0  0  0  0  0  0  0
    3.1650   -0.4410   -0.5910 C   0  0  0  0  0  0  0  0  0  0  0  0
    3.5650   -1.2280    0.4650 C   0  0  0  0  0  0  0  0  0  0  0  0
    4.6880   -2.0070    0.4520 C   0  0  0  0  0  0  0  0  0  0  0  0
    5.4810   -2.0160   -0.6800 C   0  0  0  0  0  0  0  0  0  0  0  0
    5.1150   -1.2350   -1.7710 C   0  0  0  0  0  0  0  0  0  0  0  0
    3.9720   -0.4650   -1.7110 C   0  0  0  0  0  0  0  0  0  0  0  0
    3.6130    0.2950   -2.7710 F   0  0  0  0  0  0  0  0  0  0  0  0
    6.6480   -2.9140   -0.5070 C   0  0  0  0  0  0  0  0  0  0  0  0
    6.4030   -3.6270    0.7930 C   0  0  0  0  0  0  0  0  0  0  0  0
    5.2820   -2.9160    1.4800 C   0  0  0  0  0  0  0  0  0  0  0  0
    0.0680    2.5680    0.9460 C   0  0  2  0  0  0  0  0  0  0  0  0
    1.1170    2.9590    1.8050 O   0  0  0  0  0  0  0  0  0  0  0  0
   -1.0890    3.4930    1.0660 C   0  0  0  0  0  0  0  0  0  0  0  0
   -0.7260    4.8810    0.7350 C   0  0  0  0  0  0  0  0  0  0  0  0
   -0.3340    5.6730    1.7730 N   0  0  0  0  0  0  0  0  0  0  0  0
    0.0480    6.9190    1.6470 N   0  0  0  0  0  0  0  0  0  0  0  0
    0.0750    7.5100    0.4320 C   0  0  0  0  0  0  0  0  0  0  0  0
   -0.3130    6.7480   -0.6440 C   0  0  0  0  0  0  0  0  0  0  0  0
   -0.7230    5.4170   -0.5210 C   0  0  0  0  0  0  0  0  0  0  0  0
   -1.1570    4.6750   -1.7230 C   0  0  2  0  0  0  0  0  0  0  0  0
   -2.4220    4.1680   -1.6340 F   0  0  0  0  0  0  0  0  0  0  0  0
   -0.2280    3.7240   -2.1510 F   0  0  0  0  0  0  0  0  0  0  0  0
   -4.6800   -2.4180   -1.4750 C   0  0  0  0  0  0  0  0  0  0  0  0
   -5.0160   -1.2620   -2.3800 C   0  0  0  0  0  0  0  0  0  0  0  0
   -5.2970   -3.5620   -1.5540 C   0  0  0  0  0  0  0  0  0  0  0  0
   -5.0750   -4.7600   -0.7450 C   0  0  0  0  0  0  0  0  0  0  0  0
  1  2  2  0
  2  3  1  0
  2 38  1  0
  3  4  2  0
  4  5  1  0
  4 35  1  0
  5  6  1  0
  6  7  2  0
  6  8  1  0
  8  9  1  0
  9 10  1  1
  9 11  1  0
  9 23  1  0
 11 12  1  0
 12 13  1  0
 13 14  2  0
 13 18  1  0
 14 15  1  0
 15 16  2  0
 15 22  1  0
 16 17  1  0
 16 20  1  0
 17 18  2  0
 18 19  1  0
 20 21  1  0
 21 22  1  0
 23 24  1  1
 23 25  1  0
 25 26  1  0
 26 27  2  0
 26 31  1  0
 27 28  1  0
 28 29  2  0
 29 30  1  0
 30 31  2  0
 31 32  1  0
 32 33  1  1
 32 34  1  0
 35 36  1  0
 35 37  2  0
 37 38  1  0
M  END
