
     RDKit          3D

 38 41  0  0  0  0  0  0  0  0999 V2000
    8.8320    0.6820   -0.1540 C   0  0  0  0  0  0  0  0  0  0  0  0
    8.4720   -0.3860    0.6480 O   0  0  0  0  0  0  0  0  0  0  0  0
    8.0480   -1.4450   -0.1090 C   0  0  0  0  0  0  0  0  0  0  0  0
    6.8590   -1.1390   -0.9610 C   0  0  0  0  0  0  0  0  0  0  0  0
    5.6570   -0.7120   -0.1560 C   0  0  0  0  0  0  0  0  0  0  0  0
    4.5510   -0.4370   -1.1430 C   0  0  0  0  0  0  0  0  0  0  0  0
    4.8050   -0.5850   -2.3490 O   0  0  0  0  0  0  0  0  0  0  0  0
    3.2770   -0.0280   -0.7350 N   0  0  0  0  0  0  0  0  0  0  0  0
    2.1460    0.2770   -1.5400 C   0  0  0  0  0  0  0  0  0  0  0  0
    2.3420    0.5880   -2.8650 C   0  0  0  0  0  0  0  0  0  0  0  0
    1.3070    0.9990   -3.6800 C   0  0  0  0  0  0  0  0  0  0  0  0
    0.0500    1.0970   -3.1430 C   0  0  0  0  0  0  0  0  0  0  0  0
   -0.1320    0.7830   -1.8210 C   0  0  0  0  0  0  0  0  0  0  0  0
    0.8680    0.3640   -0.9570 C   0  0  0  0  0  0  0  0  0  0  0  0
    0.7080    0.0300    0.4150 C   0  0  2  0  0  0  0  0  0  0  0  0
    1.4700   -0.9790    0.9370 O   0  0  0  0  0  0  0  0  0  0  0  0
   -0.6670   -0.0570    1.0130 C   0  0  2  0  0  0  0  0  0  0  0  0
   -0.5720    0.4440    2.4330 C   0  0  0  0  0  0  0  0  0  0  0  0
   -1.1710   -1.4100    0.8720 N   0  0  0  0  0  0  0  0  0  0  0  0
   -1.1380   -2.0820   -0.3910 C   0  0  0  0  0  0  0  0  0  0  0  0
   -0.6980   -3.5440   -0.2250 C   0  0  0  0  0  0  0  0  0  0  0  0
   -0.1320   -3.7870    1.1470 C   0  0  0  0  0  0  0  0  0  0  0  0
    0.9830   -4.2450    1.3940 O   0  0  0  0  0  0  0  0  0  0  0  0
   -1.0280   -3.4320    2.2070 N   0  0  0  0  0  0  0  0  0  0  0  0
   -1.6270   -2.0840    2.0520 C   0  0  0  0  0  0  0  0  0  0  0  0
   -2.5370   -1.6790    2.8220 C   0  0  0  0  0  0  0  0  0  0  0  0
   -3.4540   -0.6360    2.9830 C   0  0  0  0  0  0  0  0  0  0  0  0
   -4.0840   -0.6500    4.1750 O   0  0  0  0  0  0  0  0  0  0  0  0
   -3.9270    0.4710    2.1970 C   0  0  0  0  0  0  0  0  0  0  0  0
   -4.5290    1.5620    2.8270 C   0  0  0  0  0  0  0  0  0  0  0  0
   -5.1050    2.5890    2.1160 C   0  0  0  0  0  0  0  0  0  0  0  0
   -5.1180    2.5950    0.7520 C   0  0  0  0  0  0  0  0  0  0  0  0
   -4.5270    1.5200    0.1090 C   0  0  0  0  0  0  0  0  0  0  0  0
   -3.9570    0.5030    0.8210 C   0  0  0  0  0  0  0  0  0  0  0  0
   -4.5680    1.5800   -1.3820 C   0  0  0  0  0  0  0  0  0  0  0  0
   -5.9140    1.9590   -1.9200 C   0  0  0  0  0  0  0  0  0  0  0  0
   -6.6460    2.9520   -1.0640 C   0  0  0  0  0  0  0  0  0  0  0  0
   -5.7030    3.6360   -0.1090 C   0  0  0  0  0  0  0  0  0  0  0  0
  1  2  1  0
  2  3  1  0
  3  4  1  0
  4  5  1  0
  5  6  1  0
  6  7  2  0
  6  8  1  0
  8  9  1  0
  9 10  2  0
  9 14  1  0
 10 11  1  0
 11 12  2  0
 12 13  1  0
 13 14  2  0
 14 15  1  0
 15 16  1  6
 15 17  1  0
 17 18  1  1
 17 19  1  0
 19 20  1  0
 19 25  1  0
 20 21  1  0
 21 22  1  0
 22 23  2  0
 22 24  1  0
 24 25  1  0
 25 26  2  3
 26 27  1  0
 27 28  2  0
 27 29  1  0
 29 30  2  0
 29 34  1  0
 30 31  1  0
 31 32  2  0
 32 33  1  0
 32 38  1  0
 33 34  2  0
 33 35  1  0
 35 36  1  0
 36 37  1  0
 37 38  1  0
M  END
