
     RDKit          3D

 38 40  0  0  0  0  0  0  0  0999 V2000
   -9.2460   -0.0600   -2.0470 C   0  0  0  0  0  0  0  0  0  0  0  0
   -8.3450    0.4510   -3.1390 C   0  0  0  0  0  0  0  0  0  0  0  0
   -7.0080    0.8640   -2.5780 C   0  0  0  0  0  0  0  0  0  0  0  0
   -6.3590   -0.2040   -1.9580 O   0  0  0  0  0  0  0  0  0  0  0  0
   -5.1250    0.1820   -1.4390 C   0  0  0  0  0  0  0  0  0  0  0  0
   -4.4450   -0.9690   -0.7810 C   0  0  0  0  0  0  0  0  0  0  0  0
   -3.1550   -0.6660   -0.2040 N   0  0  0  0  0  0  0  0  0  0  0  0
   -2.0080   -0.7120   -0.8670 C   0  0  0  0  0  0  0  0  0  0  0  0
   -1.8770   -1.0590   -2.3240 C   0  0  0  0  0  0  0  0  0  0  0  0
   -0.9590   -0.3800    0.0090 C   0  0  0  0  0  0  0  0  0  0  0  0
    0.3980   -0.4210   -0.4020 C   0  0  0  0  0  0  0  0  0  0  0  0
    0.5940   -1.0380   -1.5670 O   0  0  0  0  0  0  0  0  0  0  0  0
    1.6440    0.0550    0.1370 C   0  0  0  0  0  0  0  0  0  0  0  0
    1.8210    1.0090    1.2420 C   0  0  0  0  0  0  0  0  0  0  0  0
    1.0600    2.3150    1.0100 C   0  0  0  0  0  0  0  0  0  0  0  0
    1.2930    3.1880    2.2070 C   0  0  0  0  0  0  0  0  0  0  0  0
    2.7640   -0.3290   -0.5280 C   0  0  0  0  0  0  0  0  0  0  0  0
    2.6050   -1.1580   -1.6770 O   0  0  0  0  0  0  0  0  0  0  0  0
    4.1590   -0.0010   -0.2200 C   0  0  2  0  0  0  0  0  0  0  0  0
    4.9080    0.3680   -1.4720 C   0  0  0  0  0  0  0  0  0  0  0  0
    4.4460    1.4420   -2.2080 C   0  0  0  0  0  0  0  0  0  0  0  0
    5.0940    1.8220   -3.3250 N   0  0  0  0  0  0  0  0  0  0  0  0
    6.1800    1.1810   -3.7400 N   0  0  0  0  0  0  0  0  0  0  0  0
    6.6860    0.1340   -3.0800 C   0  0  0  0  0  0  0  0  0  0  0  0
    7.9000   -0.5440   -3.5860 C   0  0  0  0  0  0  0  0  0  0  0  0
    6.0260   -0.2730   -1.9190 C   0  0  0  0  0  0  0  0  0  0  0  0
    4.8710   -0.9550    0.6630 C   0  0  1  0  0  0  0  0  0  0  0  0
    4.1700   -1.0710    2.0340 C   0  0  0  0  0  0  0  0  0  0  0  0
    4.9370   -2.3680    0.1470 C   0  0  0  0  0  0  0  0  0  0  0  0
    6.2790   -0.5050    1.0000 C   0  0  0  0  0  0  0  0  0  0  0  0
   -1.5540   -0.1370    1.2460 C   0  0  0  0  0  0  0  0  0  0  0  0
   -2.9060   -0.3200    1.0710 C   0  0  0  0  0  0  0  0  0  0  0  0
   -3.9050   -0.1300    2.1450 C   0  0  2  0  0  0  0  0  0  0  0  0
   -4.5910   -1.3450    2.3720 O   0  0  0  0  0  0  0  0  0  0  0  0
   -4.8320    0.8670    1.8020 O   0  0  0  0  0  0  0  0  0  0  0  0
   -3.2740    0.3270    3.4420 C   0  0  0  0  0  0  0  0  0  0  0  0
   -1.9810   -0.3960    3.6450 C   0  0  0  0  0  0  0  0  0  0  0  0
   -1.0110    0.1480    2.5830 C   0  0  0  0  0  0  0  0  0  0  0  0
  1  2  1  0
  2  3  1  0
  3  4  1  0
  4  5  1  0
  5  6  1  0
  6  7  1  0
  7  8  1  0
  7 32  1  0
  8  9  1  0
  8 10  2  0
 10 11  1  0
 10 31  1  0
 11 12  2  0
 11 13  1  0
 13 14  1  0
 13 17  2  3
 14 15  1  0
 15 16  1  0
 17 18  1  0
 19 17  1  6
 19 20  1  0
 19 27  1  0
 20 21  2  0
 20 26  1  0
 21 22  1  0
 22 23  2  0
 23 24  1  0
 24 25  1  0
 24 26  2  0
 27 28  1  1
 27 29  1  0
 27 30  1  0
 31 32  2  0
 31 38  1  0
 32 33  1  0
 33 34  1  1
 33 35  1  0
 33 36  1  0
 36 37  1  0
 37 38  1  0
M  END
