
     RDKit          3D

 38 41  0  0  0  0  0  0  0  0999 V2000
   10.0160    1.4880    0.5390 C   0  0  0  0  0  0  0  0  0  0  0  0
    8.5670    1.2440    0.4920 C   0  0  0  0  0  0  0  0  0  0  0  0
    7.7300    2.2290   -0.0040 C   0  0  0  0  0  0  0  0  0  0  0  0
    6.3980    2.0260   -0.0560 C   0  0  0  0  0  0  0  0  0  0  0  0
    5.7880    0.8170    0.3850 C   0  0  0  0  0  0  0  0  0  0  0  0
    4.3760    0.7010    0.1780 C   0  0  0  0  0  0  0  0  0  0  0  0
    3.4330    0.0630    0.7590 C   0  0  0  0  0  0  0  0  0  0  0  0
    3.4360   -0.7970    1.8920 C   0  0  0  0  0  0  0  0  0  0  0  0
    4.5360   -0.8830    2.5430 O   0  0  0  0  0  0  0  0  0  0  0  0
    2.3660   -1.5990    2.4040 C   0  0  0  0  0  0  0  0  0  0  0  0
    1.1970   -1.9370    2.0850 C   0  0  0  0  0  0  0  0  0  0  0  0
    0.3420   -1.6660    0.9620 C   0  0  0  0  0  0  0  0  0  0  0  0
   -1.0660   -1.6570    1.1880 C   0  0  0  0  0  0  0  0  0  0  0  0
   -1.9480   -1.5190    0.1510 C   0  0  0  0  0  0  0  0  0  0  0  0
   -1.5300   -1.3830   -1.1530 C   0  0  0  0  0  0  0  0  0  0  0  0
   -2.4560   -1.2110   -2.2820 C   0  0  2  0  0  0  0  0  0  0  0  0
   -3.7930   -0.8610   -1.8380 N   0  0  0  0  0  0  0  0  0  0  0  0
   -4.2970    0.4720   -1.9780 C   0  0  0  0  0  0  0  0  0  0  0  0
   -3.5020    1.3000   -2.5020 O   0  0  0  0  0  0  0  0  0  0  0  0
   -5.6560    0.8380   -1.5330 C   0  0  0  0  0  0  0  0  0  0  0  0
   -5.5980    1.8560   -0.4310 C   0  0  0  0  0  0  0  0  0  0  0  0
   -5.5940    1.4250    0.8810 C   0  0  0  0  0  0  0  0  0  0  0  0
   -5.5410    2.2800    1.9570 C   0  0  0  0  0  0  0  0  0  0  0  0
   -5.5430    1.7330    3.3570 C   0  0  0  0  0  0  0  0  0  0  0  0
   -5.4900    3.6270    1.6810 C   0  0  0  0  0  0  0  0  0  0  0  0
   -5.4950    4.0380    0.3550 C   0  0  0  0  0  0  0  0  0  0  0  0
   -5.4480    5.2770    0.1130 O   0  0  0  0  0  0  0  0  0  0  0  0
   -5.5480    3.1780   -0.6870 N   0  0  0  0  0  0  0  0  0  0  0  0
   -2.4180   -2.4200   -3.1120 C   0  0  0  0  0  0  0  0  0  0  0  0
   -3.0660   -3.6020   -2.8440 C   0  0  0  0  0  0  0  0  0  0  0  0
   -2.7510   -4.4520   -3.8820 C   0  0  0  0  0  0  0  0  0  0  0  0
   -1.9320   -3.7510   -4.7260 C   0  0  0  0  0  0  0  0  0  0  0  0
   -1.7590   -2.5480   -4.2300 O   0  0  0  0  0  0  0  0  0  0  0  0
   -0.1750   -1.3960   -1.3550 C   0  0  0  0  0  0  0  0  0  0  0  0
    0.2610   -1.2760   -2.5330 O   0  0  0  0  0  0  0  0  0  0  0  0
    0.6860   -1.5340   -0.3200 N   0  0  0  0  0  0  0  0  0  0  0  0
    6.6490   -0.1220    0.8610 C   0  0  0  0  0  0  0  0  0  0  0  0
    8.0210    0.0700    0.9230 C   0  0  0  0  0  0  0  0  0  0  0  0
  1  2  1  0
  2  3  2  0
  2 38  1  0
  3  4  1  0
  4  5  2  0
  5  6  1  0
  5 37  1  0
  6  7  2  3
  7  8  1  0
  8  9  2  0
  8 10  1  0
 10 11  2  3
 11 12  1  0
 12 13  2  0
 12 36  1  0
 13 14  1  0
 14 15  2  0
 15 16  1  0
 15 34  1  0
 16 17  1  1
 16 29  1  0
 17 18  1  0
 18 19  2  0
 18 20  1  0
 20 21  1  0
 21 22  2  0
 21 28  1  0
 22 23  1  0
 23 24  1  0
 23 25  2  0
 25 26  1  0
 26 27  2  0
 26 28  1  0
 29 30  2  0
 29 33  1  0
 30 31  1  0
 31 32  2  0
 32 33  1  0
 34 35  2  0
 34 36  1  0
 37 38  2  0
M  END
