
     RDKit          3D

 38 41  0  0  0  0  0  0  0  0999 V2000
   -4.5820   -2.6540    2.0050 C   0  0  0  0  0  0  0  0  0  0  0  0
   -5.4780   -2.3320    0.8000 C   0  0  2  0  0  0  0  0  0  0  0  0
   -5.9810   -3.6590    0.2690 C   0  0  0  0  0  0  0  0  0  0  0  0
   -4.6520   -1.5900   -0.1660 C   0  0  1  0  0  0  0  0  0  0  0  0
   -5.3260   -1.1930   -1.4400 C   0  0  0  0  0  0  0  0  0  0  0  0
   -6.3020   -1.6670   -2.0340 O   0  0  0  0  0  0  0  0  0  0  0  0
   -4.5860   -0.0700   -1.9020 N   0  0  0  0  0  0  0  0  0  0  0  0
   -3.4510    0.0830   -0.9200 C   0  0  1  0  0  0  0  0  0  0  0  0
   -2.8530    1.4210   -1.0500 C   0  0  0  0  0  0  0  0  0  0  0  0
   -1.7120    1.6200   -0.1560 C   0  0  0  0  0  0  0  0  0  0  0  0
   -1.7800    2.2270    0.9230 O   0  0  0  0  0  0  0  0  0  0  0  0
   -0.3800    1.0840   -0.5160 C   0  0  0  0  0  0  0  0  0  0  0  0
    0.7090    1.2330    0.3310 C   0  0  0  0  0  0  0  0  0  0  0  0
    1.9670    0.7580    0.0330 C   0  0  0  0  0  0  0  0  0  0  0  0
    2.1770    0.0920   -1.1710 C   0  0  0  0  0  0  0  0  0  0  0  0
    3.4980   -0.4290   -1.5270 C   0  0  0  0  0  0  0  0  0  0  0  0
    3.6610   -1.5590   -2.3020 C   0  0  0  0  0  0  0  0  0  0  0  0
    4.9370   -2.0310   -2.6250 C   0  0  0  0  0  0  0  0  0  0  0  0
    6.0650   -1.3780   -2.1750 C   0  0  0  0  0  0  0  0  0  0  0  0
    5.9050   -0.2510   -1.4020 C   0  0  0  0  0  0  0  0  0  0  0  0
    7.1290    0.4420   -0.9260 C   0  0  0  0  0  0  0  0  0  0  0  0
    7.5470   -0.1250    0.3970 C   0  0  0  0  0  0  0  0  0  0  0  0
    6.8680   -1.0460    0.9090 O   0  0  0  0  0  0  0  0  0  0  0  0
    8.6790    0.3400    1.0920 N   0  0  0  0  0  0  0  0  0  0  0  0
    9.1170   -0.1750    2.3650 C   0  0  0  0  0  0  0  0  0  0  0  0
   10.3610    0.5560    2.8120 C   0  0  0  0  0  0  0  0  0  0  0  0
   11.3750    0.3780    1.8730 O   0  0  0  0  0  0  0  0  0  0  0  0
    4.6410    0.2150   -1.0840 C   0  0  0  0  0  0  0  0  0  0  0  0
    1.1160   -0.0690   -2.0260 C   0  0  0  0  0  0  0  0  0  0  0  0
   -0.1500    0.4220   -1.7010 C   0  0  0  0  0  0  0  0  0  0  0  0
   -4.1440   -0.3150    0.2290 N   0  0  0  0  0  0  0  0  0  0  0  0
   -4.6040    0.4240    1.2530 C   0  0  0  0  0  0  0  0  0  0  0  0
   -5.6880    1.4520    0.9580 C   0  0  0  0  0  0  0  0  0  0  0  0
   -5.4410    2.7300    1.2050 C   0  0  0  0  0  0  0  0  0  0  0  0
   -6.4300    3.7860    0.9490 C   0  0  0  0  0  0  0  0  0  0  0  0
   -7.6450    3.3140    0.4430 O   0  0  0  0  0  0  0  0  0  0  0  0
   -7.9190    2.0010    0.1830 C   0  0  0  0  0  0  0  0  0  0  0  0
   -6.9790    1.1050    0.4310 C   0  0  0  0  0  0  0  0  0  0  0  0
  2  1  1  1
  2  3  1  0
  2  4  1  0
  4  5  1  0
  4 31  1  1
  5  6  2  0
  5  7  1  0
  7  8  1  0
  8  9  1  1
  8 31  1  0
  9 10  1  0
 10 11  2  0
 10 12  1  0
 12 13  2  0
 12 30  1  0
 13 14  1  0
 14 15  2  0
 15 16  1  0
 15 29  1  0
 16 17  2  0
 16 28  1  0
 17 18  1  0
 18 19  2  0
 19 20  1  0
 20 21  1  0
 20 28  2  0
 21 22  1  0
 22 23  2  0
 22 24  1  0
 24 25  1  0
 25 26  1  0
 26 27  1  0
 29 30  2  0
 31 32  1  0
 32 33  1  0
 33 34  2  0
 33 38  1  0
 34 35  1  0
 35 36  1  0
 36 37  1  0
 37 38  2  0
M  END
