
     RDKit          3D

 37 40  0  0  0  0  0  0  0  0999 V2000
    8.2450    3.3860    0.4320 C   0  0  0  0  0  0  0  0  0  0  0  0
    8.2810    2.5490   -0.8230 C   0  0  0  0  0  0  0  0  0  0  0  0
    8.1150    1.1130   -0.4790 C   0  0  0  0  0  0  0  0  0  0  0  0
    7.9730    0.7800    0.7400 O   0  0  0  0  0  0  0  0  0  0  0  0
    8.1190    0.1290   -1.5120 N   0  0  0  0  0  0  0  0  0  0  0  0
    7.9580   -1.2530   -1.2530 C   0  0  0  0  0  0  0  0  0  0  0  0
    6.6090   -1.5530   -0.6910 C   0  0  0  0  0  0  0  0  0  0  0  0
    6.3700   -2.7570   -0.3390 O   0  0  0  0  0  0  0  0  0  0  0  0
    5.6510   -0.5350   -0.5660 N   0  0  0  0  0  0  0  0  0  0  0  0
    4.3540   -0.7120   -0.0370 C   0  0  0  0  0  0  0  0  0  0  0  0
    3.9200   -1.9130    0.4170 C   0  0  0  0  0  0  0  0  0  0  0  0
    2.6170   -2.0360    0.9370 C   0  0  0  0  0  0  0  0  0  0  0  0
    1.8040   -0.9330    0.9760 C   0  0  0  0  0  0  0  0  0  0  0  0
    0.4350   -1.0300    1.5160 C   0  0  0  0  0  0  0  0  0  0  0  0
   -0.5270   -1.4250    0.5160 N   0  0  0  0  0  0  0  0  0  0  0  0
   -1.8950   -1.5590    0.8720 C   0  0  0  0  0  0  0  0  0  0  0  0
   -2.2800   -1.2890    2.1910 C   0  0  0  0  0  0  0  0  0  0  0  0
   -3.6010   -1.4150    2.5500 C   0  0  0  0  0  0  0  0  0  0  0  0
   -4.5010   -1.8040    1.5920 C   0  0  0  0  0  0  0  0  0  0  0  0
   -4.1960   -2.0830    0.2920 C   0  0  0  0  0  0  0  0  0  0  0  0
   -2.8420   -1.9480   -0.0530 C   0  0  0  0  0  0  0  0  0  0  0  0
   -5.2340   -2.4640   -0.5370 N   0  0  0  0  0  0  0  0  0  0  0  0
   -6.5430   -1.9420   -0.1040 C   0  0  2  0  0  0  0  0  0  0  0  0
   -6.5160   -0.5140   -0.4760 C   0  0  0  0  0  0  0  0  0  0  0  0
   -5.8220   -0.1200   -1.6480 C   0  0  0  0  0  0  0  0  0  0  0  0
   -5.6700    1.1750   -2.0230 C   0  0  0  0  0  0  0  0  0  0  0  0
   -6.2210    2.1410   -1.2200 C   0  0  0  0  0  0  0  0  0  0  0  0
   -6.0630    3.5640   -1.6150 C   0  0  0  0  0  0  0  0  0  0  0  0
   -6.8930    1.7970   -0.0910 C   0  0  0  0  0  0  0  0  0  0  0  0
   -7.0520    0.4520    0.2970 C   0  0  0  0  0  0  0  0  0  0  0  0
   -7.8790    0.2400    1.4690 C   0  0  2  0  0  0  0  0  0  0  0  0
   -9.0830    0.9390    1.2240 F   0  0  0  0  0  0  0  0  0  0  0  0
   -7.3800    0.8500    2.6130 F   0  0  0  0  0  0  0  0  0  0  0  0
   -6.2800   -2.0540    1.7270 S   0  0  0  0  0  0  0  0  0  0  0  0
    2.2650    0.2760    0.5090 C   0  0  0  0  0  0  0  0  0  0  0  0
    3.5180    0.4120    0.0050 C   0  0  0  0  0  0  0  0  0  0  0  0
    4.0100    1.5800   -0.4630 F   0  0  0  0  0  0  0  0  0  0  0  0
  1  2  1  0
  2  3  1  0
  3  4  2  0
  3  5  1  0
  5  6  1  0
  6  7  1  0
  7  8  2  0
  7  9  1  0
  9 10  1  0
 10 11  2  0
 10 36  1  0
 11 12  1  0
 12 13  2  0
 13 14  1  0
 13 35  1  0
 14 15  1  0
 15 16  1  0
 16 17  2  0
 16 21  1  0
 17 18  1  0
 18 19  2  0
 19 20  1  0
 19 34  1  0
 20 21  2  0
 20 22  1  0
 22 23  1  0
 23 24  1  1
 23 34  1  0
 24 25  2  0
 24 30  1  0
 25 26  1  0
 26 27  2  0
 27 28  1  0
 27 29  1  0
 29 30  2  0
 30 31  1  0
 31 32  1  6
 31 33  1  0
 35 36  2  0
 36 37  1  0
M  END
