
     RDKit          3D

 35 38  0  0  0  0  0  0  0  0999 V2000
    8.0270   -3.7270   -0.5320 C   0  0  0  0  0  0  0  0  0  0  0  0
    7.0460   -2.8470   -0.6410 C   0  0  0  0  0  0  0  0  0  0  0  0
    5.8790   -2.8750    0.2180 C   0  0  0  0  0  0  0  0  0  0  0  0
    4.9410   -1.9710    0.0570 C   0  0  0  0  0  0  0  0  0  0  0  0
    3.8090   -2.1090    0.9920 C   0  0  0  0  0  0  0  0  0  0  0  0
    3.0700   -0.8000    1.2040 C   0  0  1  0  0  0  0  0  0  0  0  0
    4.0150    0.1290    1.6070 O   0  0  0  0  0  0  0  0  0  0  0  0
    2.3580   -0.3980   -0.1100 C   0  0  1  0  0  0  0  0  0  0  0  0
    0.9590    0.1770    0.2470 C   0  0  1  0  0  0  0  0  0  0  0  0
    0.3770   -0.8700    0.9700 O   0  0  0  0  0  0  0  0  0  0  0  0
    1.0860    1.3520    1.0830 C   0  0  1  0  0  0  0  0  0  0  0  0
    1.7100    2.6040    0.5750 C   0  0  0  0  0  0  0  0  0  0  0  0
    1.1540    3.6870    1.5090 C   0  0  0  0  0  0  0  0  0  0  0  0
   -0.2040    3.1940    1.8710 C   0  0  0  0  0  0  0  0  0  0  0  0
    0.0810    1.7250    2.1210 C   0  0  0  0  0  0  0  0  0  0  0  0
    0.1330    0.2340   -1.0220 C   0  0  2  0  0  0  0  0  0  0  0  0
   -1.2690    0.7510   -0.9020 C   0  0  0  0  0  0  0  0  0  0  0  0
   -1.9390    0.8810   -2.0210 O   0  0  0  0  0  0  0  0  0  0  0  0
   -1.9650    1.1050    0.1740 O   0  0  0  0  0  0  0  0  0  0  0  0
   -3.2280    1.5610    0.4350 C   0  0  0  0  0  0  0  0  0  0  0  0
   -4.4030    0.6660    0.2690 C   0  0  2  0  0  0  0  0  0  0  0  0
   -4.5710   -0.0380   -1.0240 C   0  0  0  0  0  0  0  0  0  0  0  0
   -5.8340   -0.8660   -0.9600 C   0  0  0  0  0  0  0  0  0  0  0  0
   -5.8290   -2.0700   -1.4770 C   0  0  0  0  0  0  0  0  0  0  0  0
   -7.0220   -0.2880   -0.3190 C   0  0  2  0  0  0  0  0  0  0  0  0
   -7.9110    0.6900   -1.5140 Cl  0  0  0  0  0  0  0  0  0  0  0  0
   -6.6540    0.6170    0.8440 C   0  0  1  0  0  0  0  0  0  0  0  0
   -6.5570   -0.1840    2.1120 C   0  0  0  0  0  0  0  0  0  0  0  0
   -6.1250    0.8390    3.4960 Cl  0  0  0  0  0  0  0  0  0  0  0  0
   -5.5720    1.4020    0.5640 O   0  0  0  0  0  0  0  0  0  0  0  0
    0.0890   -1.0300   -1.8620 C   0  0  0  0  0  0  0  0  0  0  0  0
    0.6600    0.2880   -2.3830 C   0  0  0  0  0  0  0  0  0  0  0  0
    3.3040    0.5400   -0.7490 C   0  0  0  0  0  0  0  0  0  0  0  0
    4.2310   -0.2640   -1.6990 C   0  0  0  0  0  0  0  0  0  0  0  0
    5.1280   -1.0430   -0.9300 O   0  0  0  0  0  0  0  0  0  0  0  0
  1  2  2  0
  2  3  1  0
  3  4  2  3
  4  5  1  0
  4 35  1  0
  5  6  1  0
  6  7  1  6
  6  8  1  0
  8  9  1  0
  8 33  1  1
  9 10  1  1
  9 11  1  0
  9 16  1  0
 11 12  1  6
 11 15  1  0
 12 13  1  0
 13 14  1  0
 14 15  1  0
 16 17  1  1
 16 31  1  0
 16 32  1  0
 17 18  2  0
 17 19  1  0
 19 20  1  0
 21 20  1  6
 21 22  1  0
 21 30  1  0
 22 23  1  0
 23 24  2  0
 23 25  1  0
 25 26  1  6
 25 27  1  0
 27 28  1  1
 27 30  1  0
 28 29  1  0
 31 32  1  0
 33 34  1  0
 34 35  1  0
M  END
