
     RDKit          3D

 34 38  0  0  0  0  0  0  0  0999 V2000
   -2.5600    3.5590   -1.1570 C   0  0  0  0  0  0  0  0  0  0  0  0
   -1.5330    2.5420   -1.0920 N   0  0  1  0  0  0  0  0  0  0  0  0
   -0.2510    3.1930   -0.9520 C   0  0  0  0  0  0  0  0  0  0  0  0
   -1.7740    1.7320    0.0840 C   0  0  1  0  0  0  0  0  0  0  0  0
   -3.2550    1.5080    0.3160 C   0  0  0  0  0  0  0  0  0  0  0  0
   -3.4290    0.1310    0.7320 N   0  0  1  0  0  0  0  0  0  0  0  0
   -4.1530   -0.6630   -0.2070 C   0  0  1  0  0  0  0  0  0  0  0  0
   -3.7760   -2.1260    0.0770 C   0  0  0  0  0  0  0  0  0  0  0  0
   -4.9700   -2.9250   -0.4550 C   0  0  0  0  0  0  0  0  0  0  0  0
   -6.0840   -1.9890   -0.1480 C   0  0  0  0  0  0  0  0  0  0  0  0
   -7.4380   -2.2860   -0.0040 C   0  0  0  0  0  0  0  0  0  0  0  0
   -8.3550   -1.3020    0.2810 C   0  0  0  0  0  0  0  0  0  0  0  0
   -7.8850   -0.0100    0.4210 C   0  0  0  0  0  0  0  0  0  0  0  0
   -6.5410    0.2970    0.2800 C   0  0  0  0  0  0  0  0  0  0  0  0
   -6.2030    1.5990    0.4400 F   0  0  0  0  0  0  0  0  0  0  0  0
   -5.6210   -0.6880   -0.0060 C   0  0  0  0  0  0  0  0  0  0  0  0
   -2.1070   -0.3680    0.9940 C   0  0  0  0  0  0  0  0  0  0  0  0
   -1.3270    0.2830   -0.1570 C   0  0  2  0  0  0  0  0  0  0  0  0
    0.1060    0.1110   -0.0340 C   0  0  0  0  0  0  0  0  0  0  0  0
    0.8280   -0.3760   -1.0990 C   0  0  0  0  0  0  0  0  0  0  0  0
    2.2010   -0.5650   -1.0470 C   0  0  0  0  0  0  0  0  0  0  0  0
    2.9020   -0.2690    0.0830 C   0  0  0  0  0  0  0  0  0  0  0  0
    4.2990   -0.4470    0.1350 N   0  0  0  0  0  0  0  0  0  0  0  0
    5.0310   -0.5100    1.3970 C   0  0  0  0  0  0  0  0  0  0  0  0
    6.1450   -1.5000    1.4010 C   0  0  0  0  0  0  0  0  0  0  0  0
    6.8220   -1.7130    0.1770 N   0  0  0  0  0  0  0  0  0  0  0  0
    8.2600   -0.8590   -0.0720 S   0  0  2  0  0  0  0  0  0  0  0  0
    8.1060    0.8900   -0.0840 C   0  0  0  0  0  0  0  0  0  0  0  0
    8.8270   -1.2600   -1.4280 O   0  0  0  0  0  0  0  0  0  0  0  0
    9.3330   -1.2220    0.9290 O   0  0  0  0  0  0  0  0  0  0  0  0
    5.9330   -1.8130   -0.9210 C   0  0  0  0  0  0  0  0  0  0  0  0
    5.0960   -0.5550   -1.0540 C   0  0  0  0  0  0  0  0  0  0  0  0
    2.1910    0.2250    1.1740 C   0  0  0  0  0  0  0  0  0  0  0  0
    0.8240    0.4050    1.1000 C   0  0  0  0  0  0  0  0  0  0  0  0
  2  1  1  1
  2  3  1  0
  2  4  1  0
  4  5  1  6
  4 18  1  0
  6  5  1  6
  6  7  1  0
  6 17  1  0
  7  8  1  1
  7 16  1  0
  8  9  1  0
  9 10  1  0
 10 11  2  0
 10 16  1  0
 11 12  1  0
 12 13  2  0
 13 14  1  0
 14 15  1  0
 14 16  2  0
 17 18  1  0
 18 19  1  1
 19 20  2  0
 19 34  1  0
 20 21  1  0
 21 22  2  0
 22 23  1  0
 22 33  1  0
 23 24  1  0
 23 32  1  0
 24 25  1  0
 25 26  1  0
 26 27  1  0
 26 31  1  0
 27 28  1  6
 27 29  2  0
 27 30  2  0
 31 32  1  0
 33 34  2  0
M  CHG  2   2   1   6   1
M  END
