
     RDKit          3D

 35 38  0  0  0  0  0  0  0  0999 V2000
    6.1220    2.9110   -1.3720 C   0  0  0  0  0  0  0  0  0  0  0  0
    6.0750    1.7290   -0.4100 C   0  0  1  0  0  0  0  0  0  0  0  0
    5.0550    0.7030   -0.9130 C   0  0  0  0  0  0  0  0  0  0  0  0
    5.0660   -0.4050    0.1120 C   0  0  2  0  0  0  0  0  0  0  0  0
    3.7820   -0.3940    0.8450 C   0  0  0  0  0  0  0  0  0  0  0  0
    3.6420    0.1560    1.9710 O   0  0  0  0  0  0  0  0  0  0  0  0
    2.6240   -1.0050    0.3190 O   0  0  0  0  0  0  0  0  0  0  0  0
    1.4010   -0.9540    1.0670 C   0  0  2  0  0  0  0  0  0  0  0  0
    1.0940   -2.3690    1.5140 C   0  0  1  0  0  0  0  0  0  0  0  0
    0.0460   -2.4160    2.4020 O   0  0  0  0  0  0  0  0  0  0  0  0
    0.8310   -3.2170    0.2970 C   0  0  0  0  0  0  0  0  0  0  0  0
   -0.4070   -2.7090   -0.4260 C   0  0  0  0  0  0  0  0  0  0  0  0
   -0.0730   -1.3140   -0.8890 C   0  0  0  0  0  0  0  0  0  0  0  0
    0.3230   -0.4000    0.2280 C   0  0  1  0  0  0  0  0  0  0  0  0
   -0.8510    0.0700    0.9990 C   0  0  0  0  0  0  0  0  0  0  0  0
   -0.8430    0.0280    2.2370 O   0  0  0  0  0  0  0  0  0  0  0  0
   -2.0300    0.5870    0.3070 C   0  0  0  0  0  0  0  0  0  0  0  0
   -1.8920    1.5330   -0.6830 C   0  0  0  0  0  0  0  0  0  0  0  0
   -3.0020    1.9970   -1.3310 C   0  0  0  0  0  0  0  0  0  0  0  0
   -4.2540    1.5410   -1.0160 C   0  0  0  0  0  0  0  0  0  0  0  0
   -4.3940    0.5900   -0.0200 C   0  0  0  0  0  0  0  0  0  0  0  0
   -3.2980    0.1240    0.6260 C   0  0  0  0  0  0  0  0  0  0  0  0
   -3.4130   -1.0950    1.9090 Cl  0  0  0  0  0  0  0  0  0  0  0  0
   -5.7510    0.0730    0.3610 C   0  0  2  0  0  0  0  0  0  0  0  0
   -6.1840    0.8090    1.6220 C   0  0  0  0  0  0  0  0  0  0  0  0
   -5.5270   -1.2890    0.6730 O   0  0  0  0  0  0  0  0  0  0  0  0
   -6.7530    0.1500   -0.7270 C   0  0  1  0  0  0  0  0  0  0  0  0
   -8.0910    0.7330   -0.2950 C   0  0  0  0  0  0  0  0  0  0  0  0
   -9.1990    0.7640   -1.7140 Cl  0  0  0  0  0  0  0  0  0  0  0  0
   -6.3360    0.8580   -1.9780 C   0  0  0  0  0  0  0  0  0  0  0  0
   -5.4470    2.0590   -1.7410 C   0  0  0  0  0  0  0  0  0  0  0  0
    6.1900   -0.3010    1.0980 C   0  0  0  0  0  0  0  0  0  0  0  0
    7.4910    0.0860    0.4320 C   0  0  1  0  0  0  0  0  0  0  0  0
    8.0230   -1.1070   -0.3400 C   0  0  0  0  0  0  0  0  0  0  0  0
    7.3590    1.2200   -0.3560 O   0  0  0  0  0  0  0  0  0  0  0  0
  2  1  1  6
  2  3  1  0
  2 35  1  0
  3  4  1  0
  4  5  1  1
  4 32  1  0
  5  6  2  0
  5  7  1  0
  8  7  1  6
  8  9  1  0
  8 14  1  0
  9 10  1  1
  9 11  1  0
 11 12  1  0
 12 13  1  0
 13 14  1  0
 14 15  1  1
 15 16  2  0
 15 17  1  0
 17 18  2  0
 17 22  1  0
 18 19  1  0
 19 20  2  0
 20 21  1  0
 20 31  1  0
 21 22  2  0
 21 24  1  0
 22 23  1  0
 24 25  1  1
 24 26  1  0
 24 27  1  0
 27 28  1  1
 27 30  1  0
 28 29  1  0
 30 31  1  0
 32 33  1  0
 33 34  1  6
 33 35  1  0
M  END
