
     RDKit          3D

 34 38  0  0  0  0  0  0  0  0999 V2000
    8.1540   -0.2920   -0.0620 C   0  0  0  0  0  0  0  0  0  0  0  0
    6.7160   -0.5110   -0.0690 N   0  0  0  0  0  0  0  0  0  0  0  0
    6.0870   -1.0430    0.9740 N   0  0  0  0  0  0  0  0  0  0  0  0
    4.7460   -1.1410    0.7120 C   0  0  0  0  0  0  0  0  0  0  0  0
    4.6020   -0.6350   -0.5550 C   0  0  0  0  0  0  0  0  0  0  0  0
    5.8360   -0.2430   -1.0380 C   0  0  0  0  0  0  0  0  0  0  0  0
    6.1990    0.4590   -2.5830 Cl  0  0  0  0  0  0  0  0  0  0  0  0
    3.2780   -0.6190   -1.0860 N   0  0  0  0  0  0  0  0  0  0  0  0
    2.2740   -1.0490   -0.4300 C   0  0  0  0  0  0  0  0  0  0  0  0
    0.9270   -0.9980   -1.0550 C   0  0  0  0  0  0  0  0  0  0  0  0
   -0.0230   -0.2040   -0.3580 N   0  0  2  0  0  0  0  0  0  0  0  0
    0.5030    0.6570    0.6530 C   0  0  0  0  0  0  0  0  0  0  0  0
   -0.4170    1.8830    0.7290 C   0  0  0  0  0  0  0  0  0  0  0  0
   -0.4420    2.5480   -0.5230 O   0  0  0  0  0  0  0  0  0  0  0  0
   -1.2140    3.6800   -0.6650 C   0  0  0  0  0  0  0  0  0  0  0  0
   -1.2690    4.3570   -1.8600 C   0  0  0  0  0  0  0  0  0  0  0  0
   -2.0370    5.4810   -1.9990 C   0  0  0  0  0  0  0  0  0  0  0  0
   -2.7740    5.9600   -0.9430 C   0  0  0  0  0  0  0  0  0  0  0  0
   -2.7410    5.3090    0.2610 C   0  0  0  0  0  0  0  0  0  0  0  0
   -1.9610    4.1750    0.3870 C   0  0  0  0  0  0  0  0  0  0  0  0
   -0.9740   -1.1230    0.3000 C   0  0  0  0  0  0  0  0  0  0  0  0
   -2.2630   -1.0930   -0.4560 C   0  0  0  0  0  0  0  0  0  0  0  0
   -2.5650   -0.1310   -1.8700 S   0  0  0  0  0  0  0  0  0  0  0  0
   -4.3000   -0.6640   -2.1140 C   0  0  0  0  0  0  0  0  0  0  0  0
   -4.4500   -1.5270   -1.0750 C   0  0  0  0  0  0  0  0  0  0  0  0
   -3.4220   -1.7430   -0.2400 C   0  0  0  0  0  0  0  0  0  0  0  0
   -3.5570   -2.6990    0.9050 C   0  0  0  0  0  0  0  0  0  0  0  0
   -2.7250   -3.7700    1.0750 C   0  0  0  0  0  0  0  0  0  0  0  0
   -2.8850   -4.6130    2.1700 C   0  0  0  0  0  0  0  0  0  0  0  0
   -3.8650   -4.3660    3.0580 N   0  0  0  0  0  0  0  0  0  0  0  0
   -4.7060   -3.3270    2.9310 C   0  0  0  0  0  0  0  0  0  0  0  0
   -4.5470   -2.4910    1.8460 C   0  0  0  0  0  0  0  0  0  0  0  0
    2.3890   -1.5760    0.8670 N   0  0  0  0  0  0  0  0  0  0  0  0
    3.6510   -1.6550    1.5430 C   0  0  0  0  0  0  0  0  0  0  0  0
  1  2  1  0
  2  3  1  0
  2  6  1  0
  3  4  2  0
  4  5  1  0
  4 34  1  0
  5  6  2  0
  5  8  1  0
  6  7  1  0
  8  9  2  0
  9 10  1  0
  9 33  1  0
 11 10  1  1
 11 12  1  0
 11 21  1  0
 12 13  1  0
 13 14  1  0
 14 15  1  0
 15 16  2  0
 15 20  1  0
 16 17  1  0
 17 18  2  0
 18 19  1  0
 19 20  2  0
 21 22  1  0
 22 23  1  0
 22 26  2  0
 23 24  1  0
 24 25  2  0
 25 26  1  0
 26 27  1  0
 27 28  2  0
 27 32  1  0
 28 29  1  0
 29 30  2  0
 30 31  1  0
 31 32  2  0
 33 34  1  0
M  CHG  1  11   1
M  END
