
     RDKit          3D

 34 38  0  0  0  0  0  0  0  0999 V2000
   -2.6700   -0.3190   -0.8930 C   0  0  0  0  0  0  0  0  0  0  0  0
   -3.2420    0.5790    0.1870 C   0  0  2  0  0  0  0  0  0  0  0  0
   -2.9230   -0.1100    1.8210 S   0  0  0  0  0  0  0  0  0  0  0  0
   -1.1780   -0.0310    2.2100 C   0  0  0  0  0  0  0  0  0  0  0  0
   -0.3600   -0.9020    1.3420 C   0  0  0  0  0  0  0  0  0  0  0  0
   -0.1640   -2.2340    1.6540 C   0  0  0  0  0  0  0  0  0  0  0  0
    0.6110   -3.0340    0.8650 C   0  0  0  0  0  0  0  0  0  0  0  0
    1.1920   -2.4450   -0.2620 C   0  0  0  0  0  0  0  0  0  0  0  0
    0.9880   -1.1140   -0.5620 C   0  0  0  0  0  0  0  0  0  0  0  0
    1.6430   -0.5480   -1.7870 C   0  0  0  0  0  0  0  0  0  0  0  0
    2.8880    0.0960   -1.4270 N   0  0  0  0  0  0  0  0  0  0  0  0
    3.5150   -0.5650   -0.2860 C   0  0  0  0  0  0  0  0  0  0  0  0
    4.8070    0.0750    0.0520 C   0  0  0  0  0  0  0  0  0  0  0  0
    4.8900    1.1160    0.9570 C   0  0  0  0  0  0  0  0  0  0  0  0
    6.1170    1.6800    1.2410 C   0  0  0  0  0  0  0  0  0  0  0  0
    7.2880    1.2270    0.6360 C   0  0  0  0  0  0  0  0  0  0  0  0
    7.1960    0.1920   -0.2630 C   0  0  0  0  0  0  0  0  0  0  0  0
    5.9740   -0.3600   -0.5360 C   0  0  0  0  0  0  0  0  0  0  0  0
    8.5550   -0.0920   -0.7520 C   0  0  0  0  0  0  0  0  0  0  0  0
    9.3960    0.4670    0.4000 C   0  0  0  0  0  0  0  0  0  0  0  0
    8.6360    1.6210    0.7480 O   0  0  0  0  0  0  0  0  0  0  0  0
    0.2190   -0.3570    0.2360 N   0  0  0  0  0  0  0  0  0  0  0  0
   -4.7170    0.6860    0.0460 C   0  0  0  0  0  0  0  0  0  0  0  0
   -5.1580    1.9140   -0.1290 C   0  0  0  0  0  0  0  0  0  0  0  0
   -3.9090    3.1340   -0.1560 Cl  0  0  0  0  0  0  0  0  0  0  0  0
   -6.5110    2.3720   -0.2980 N   0  0  0  0  0  0  0  0  0  0  0  0
   -7.5910    1.6660   -0.3120 C   0  0  0  0  0  0  0  0  0  0  0  0
   -8.8100    2.4410   -0.5040 C   0  0  0  0  0  0  0  0  0  0  0  0
   -9.9720    1.8810   -0.5420 N   0  0  0  0  0  0  0  0  0  0  0  0
  -10.1570    0.4790   -0.4010 C   0  0  0  0  0  0  0  0  0  0  0  0
   -9.0910   -0.2900   -0.2230 C   0  0  0  0  0  0  0  0  0  0  0  0
   -7.7740    0.2430   -0.1680 N   0  0  0  0  0  0  0  0  0  0  0  0
   -6.7480   -0.7130    0.0270 C   0  0  0  0  0  0  0  0  0  0  0  0
   -5.4570   -0.5270    0.1180 N   0  0  0  0  0  0  0  0  0  0  0  0
  2  1  1  6
  2  3  1  0
  2 23  1  0
  3  4  1  0
  4  5  1  0
  5  6  2  0
  5 22  1  0
  6  7  1  0
  7  8  2  0
  8  9  1  0
  9 10  1  0
  9 22  2  0
 10 11  1  0
 11 12  1  0
 12 13  1  0
 13 14  2  0
 13 18  1  0
 14 15  1  0
 15 16  2  0
 16 17  1  0
 16 21  1  0
 17 18  2  0
 17 19  1  0
 19 20  1  0
 20 21  1  0
 23 24  2  0
 23 34  1  0
 24 25  1  0
 24 26  1  0
 26 27  2  0
 27 28  1  0
 27 32  1  0
 28 29  2  0
 29 30  1  0
 30 31  2  0
 31 32  1  0
 32 33  1  0
 33 34  2  0
M  CHG  1  11   1
M  END
