
     RDKit          3D

 34 37  0  0  0  0  0  0  0  0999 V2000
    8.8600    0.8760   -0.3680 C   0  0  0  0  0  0  0  0  0  0  0  0
    7.9160   -0.1690   -0.8470 C   0  0  0  0  0  0  0  0  0  0  0  0
    6.4960    0.2920   -1.0540 C   0  0  0  0  0  0  0  0  0  0  0  0
    5.9070    0.8020    0.1900 N   0  0  0  0  0  0  0  0  0  0  0  0
    6.0220    2.1700    0.4650 C   0  0  0  0  0  0  0  0  0  0  0  0
    5.6350    2.7510    1.5210 O   0  0  0  0  0  0  0  0  0  0  0  0
    5.2220   -0.1100    1.0300 C   0  0  0  0  0  0  0  0  0  0  0  0
    3.7850   -0.3860    0.6890 C   0  0  0  0  0  0  0  0  0  0  0  0
    2.8950    0.7180    0.7080 N   0  0  1  0  0  0  0  0  0  0  0  0
    2.1380    0.9070   -0.5200 C   0  0  0  0  0  0  0  0  0  0  0  0
    1.1030   -0.1200   -0.7880 C   0  0  0  0  0  0  0  0  0  0  0  0
    0.2330   -0.5030    0.3630 C   0  0  1  0  0  0  0  0  0  0  0  0
    1.0250   -0.5450    1.6770 C   0  0  0  0  0  0  0  0  0  0  0  0
    1.9310    0.6510    1.7960 C   0  0  0  0  0  0  0  0  0  0  0  0
   -0.9290    0.3810    0.5870 C   0  0  0  0  0  0  0  0  0  0  0  0
   -2.0750    0.1510   -0.2690 N   0  0  0  0  0  0  0  0  0  0  0  0
   -3.2380    0.6400    0.4610 C   0  0  0  0  0  0  0  0  0  0  0  0
   -4.4870    0.6310   -0.3370 C   0  0  0  0  0  0  0  0  0  0  0  0
   -4.6280    1.5650   -1.2510 N   0  0  0  0  0  0  0  0  0  0  0  0
   -5.7780    1.6450   -2.0610 C   0  0  0  0  0  0  0  0  0  0  0  0
   -5.9820    2.9060   -3.3210 S   0  0  0  0  0  0  0  0  0  0  0  0
   -4.4620    3.9340   -3.2830 C   0  0  0  0  0  0  0  0  0  0  0  0
   -6.7300    0.7530   -1.8870 C   0  0  0  0  0  0  0  0  0  0  0  0
   -6.6930   -0.3320   -0.9070 C   0  0  0  0  0  0  0  0  0  0  0  0
   -5.4760   -0.3380   -0.1360 N   0  0  0  0  0  0  0  0  0  0  0  0
   -5.3510   -1.4030    0.8440 C   0  0  0  0  0  0  0  0  0  0  0  0
   -5.2010   -2.6600    0.4720 C   0  0  0  0  0  0  0  0  0  0  0  0
   -5.1080   -3.4830    1.6900 C   0  0  0  0  0  0  0  0  0  0  0  0
   -5.2340   -2.5310    2.8220 C   0  0  0  0  0  0  0  0  0  0  0  0
   -5.3730   -1.3370    2.2840 C   0  0  0  0  0  0  0  0  0  0  0  0
   -5.5800    0.1470    3.2220 Cl  0  0  0  0  0  0  0  0  0  0  0  0
   -2.2930   -1.2620   -0.5020 C   0  0  0  0  0  0  0  0  0  0  0  0
   -1.0290   -1.9260   -1.0240 C   0  0  0  0  0  0  0  0  0  0  0  0
   -0.1330   -1.9100    0.1250 N   0  0  0  0  0  0  0  0  0  0  0  0
  1  2  1  0
  2  3  1  0
  3  4  1  0
  4  5  1  0
  4  7  1  0
  5  6  2  0
  7  8  1  0
  9  8  1  6
  9 10  1  0
  9 14  1  0
 10 11  1  0
 12 11  1  6
 12 13  1  0
 12 15  1  0
 12 34  1  0
 13 14  1  0
 15 16  1  0
 16 17  1  0
 16 32  1  0
 17 18  1  0
 18 19  2  0
 18 25  1  0
 19 20  1  0
 20 21  1  0
 20 23  2  0
 21 22  1  0
 23 24  1  0
 24 25  1  0
 25 26  1  0
 26 27  2  0
 26 30  1  0
 27 28  1  0
 28 29  1  0
 29 30  2  0
 30 31  1  0
 32 33  1  0
 33 34  1  0
M  CHG  1   9   1
M  END
