
     RDKit          3D

 20 22  0  0  0  0  0  0  0  0999 V2000
   -0.9650   -2.5670   -2.8320 O   0  0  0  0  0  0  0  0  0  0  0  0
   -0.8080   -1.5170   -2.1700 C   0  0  0  0  0  0  0  0  0  0  0  0
    0.5090   -1.2440   -1.4550 C   0  0  0  0  0  0  0  0  0  0  0  0
    0.1560   -0.8790   -0.0710 N   0  0  0  0  0  0  0  0  0  0  0  0
    0.6830   -1.6180    0.9650 C   0  0  0  0  0  0  0  0  0  0  0  0
    1.8640   -2.0140    1.2900 C   0  0  0  0  0  0  0  0  0  0  0  0
    3.1490   -1.7770    0.5900 C   0  0  0  0  0  0  0  0  0  0  0  0
    4.3120   -2.1530    0.8920 N   0  0  0  0  0  0  0  0  0  0  0  0
    4.9590   -1.5720   -0.1840 C   0  0  0  0  0  0  0  0  0  0  0  0
    3.6150   -1.0950   -0.6030 C   0  0  0  0  0  0  0  0  0  0  0  0
   -0.7830    0.1420    0.0510 C   0  0  0  0  0  0  0  0  0  0  0  0
   -0.5070    0.7970    1.1340 C   0  0  0  0  0  0  0  0  0  0  0  0
    0.8270    0.3200    2.0820 Cl  0  0  0  0  0  0  0  0  0  0  0  0
   -1.2270    1.9620    1.7220 C   0  0  0  0  0  0  0  0  0  0  0  0
   -2.4140    2.5190    1.6070 C   0  0  0  0  0  0  0  0  0  0  0  0
   -3.6470    2.2540    0.8160 C   0  0  0  0  0  0  0  0  0  0  0  0
   -3.3750    2.4670   -0.6590 C   0  0  0  0  0  0  0  0  0  0  0  0
   -2.8940    1.1880   -1.1800 N   0  0  0  0  0  0  0  0  0  0  0  0
   -1.8240    0.3140   -1.0280 C   0  0  0  0  0  0  0  0  0  0  0  0
   -1.7740   -0.4940   -2.0020 N   0  0  0  0  0  0  0  0  0  0  0  0
  1  2  2  0
  2  3  1  0
  2 20  1  0
  3  4  1  0
  4  5  1  0
  4 11  1  0
  5  6  2  3
  6  7  1  0
  7  8  2  0
  7 10  1  0
  8  9  1  0
  9 10  1  0
 11 12  2  0
 11 19  1  0
 12 13  1  0
 12 14  1  0
 14 15  2  0
 15 16  1  0
 16 17  1  0
 17 18  1  0
 18 19  1  0
 19 20  2  0
M  END
