
     RDKit          3D

 20 22  0  0  0  0  0  0  0  0999 V2000
    6.3020    0.1260   -0.0240 C   0  0  0  0  0  0  0  0  0  0  0  0
    4.8150    0.2880    0.1070 C   0  0  0  0  0  0  0  0  0  0  0  0
    4.1170    1.4090    0.4720 C   0  0  0  0  0  0  0  0  0  0  0  0
    2.7850    1.0500    0.4430 C   0  0  0  0  0  0  0  0  0  0  0  0
    2.6740   -0.2340    0.0770 N   0  0  0  0  0  0  0  0  0  0  0  0
    1.4450   -0.9680   -0.0660 C   0  0  0  0  0  0  0  0  0  0  0  0
    1.4660   -2.6410   -0.5520 Cl  0  0  0  0  0  0  0  0  0  0  0  0
    0.3020   -0.3740    0.1710 C   0  0  0  0  0  0  0  0  0  0  0  0
   -0.9560   -1.1710    0.0110 C   0  0  2  0  0  0  0  0  0  0  0  0
   -1.8750   -0.3460   -0.7720 C   0  0  0  0  0  0  0  0  0  0  0  0
   -3.0950   -0.0290   -0.3920 C   0  0  0  0  0  0  0  0  0  0  0  0
   -3.9480    0.8080   -1.2500 C   0  0  0  0  0  0  0  0  0  0  0  0
   -5.1670    1.1020   -0.8290 C   0  0  0  0  0  0  0  0  0  0  0  0
   -5.5820    0.5730    0.4630 C   0  0  0  0  0  0  0  0  0  0  0  0
   -6.7310    0.8150    0.9230 O   0  0  0  0  0  0  0  0  0  0  0  0
   -4.7350   -0.2390    1.2780 N   0  0  0  0  0  0  0  0  0  0  0  0
   -3.5550   -0.5330    0.8880 C   0  0  0  0  0  0  0  0  0  0  0  0
   -2.6330   -1.3540    1.6630 C   0  0  0  0  0  0  0  0  0  0  0  0
   -1.4590   -1.6360    1.2550 N   0  0  0  0  0  0  0  0  0  0  0  0
    3.9030   -0.6710   -0.1190 N   0  0  0  0  0  0  0  0  0  0  0  0
  1  2  1  0
  2  3  1  0
  2 20  2  0
  3  4  2  0
  4  5  1  0
  5  6  1  0
  5 20  1  0
  6  7  1  0
  6  8  2  3
  9  8  1  1
  9 10  1  0
  9 19  1  0
 10 11  2  0
 11 12  1  0
 11 17  1  0
 12 13  2  0
 13 14  1  0
 14 15  2  0
 14 16  1  0
 16 17  2  0
 17 18  1  0
 18 19  2  0
M  END
