
     RDKit          3D

 20 22  0  0  0  0  0  0  0  0999 V2000
   -3.1500    1.1120   -2.2110 C   0  0  0  0  0  0  0  0  0  0  0  0
   -3.5610    0.5730   -0.9380 N   0  0  0  0  0  0  0  0  0  0  0  0
   -4.8530    0.5800   -0.4240 N   0  0  0  0  0  0  0  0  0  0  0  0
   -4.9100    0.0320    0.7210 C   0  0  0  0  0  0  0  0  0  0  0  0
   -3.5640   -0.4210    1.0980 C   0  0  0  0  0  0  0  0  0  0  0  0
   -3.1380   -1.0250    2.1600 N   0  0  0  0  0  0  0  0  0  0  0  0
   -1.7530   -1.3360    2.2290 C   0  0  0  0  0  0  0  0  0  0  0  0
   -1.2450   -1.9250    3.2260 O   0  0  0  0  0  0  0  0  0  0  0  0
   -0.8310   -0.9960    1.1550 C   0  0  0  0  0  0  0  0  0  0  0  0
    0.4570   -1.2970    1.2430 C   0  0  0  0  0  0  0  0  0  0  0  0
    1.4210   -0.9670    0.1730 C   0  0  0  0  0  0  0  0  0  0  0  0
    2.4700   -0.0550    0.7780 C   0  0  0  0  0  0  0  0  0  0  0  0
    3.4800    0.3210   -0.2470 C   0  0  0  0  0  0  0  0  0  0  0  0
    3.7790    1.5530   -0.6690 C   0  0  0  0  0  0  0  0  0  0  0  0
    4.8320    1.4600   -1.6850 C   0  0  0  0  0  0  0  0  0  0  0  0
    5.7050    2.7560   -2.4770 Cl  0  0  0  0  0  0  0  0  0  0  0  0
    4.9750    0.1580   -1.8710 C   0  0  0  0  0  0  0  0  0  0  0  0
    4.3470   -0.5890   -0.9950 C   0  0  0  0  0  0  0  0  0  0  0  0
   -1.3120   -0.3030   -0.0660 C   0  0  0  0  0  0  0  0  0  0  0  0
   -2.7340   -0.0530    0.0040 N   0  0  0  0  0  0  0  0  0  0  0  0
  1  2  1  0
  2  3  1  0
  2 20  1  0
  3  4  2  0
  4  5  1  0
  5  6  2  0
  5 20  1  0
  6  7  1  0
  7  8  2  0
  7  9  1  0
  9 10  2  3
  9 19  1  0
 10 11  1  0
 11 12  1  0
 12 13  1  0
 13 14  2  0
 13 18  1  0
 14 15  1  0
 15 16  1  0
 15 17  2  0
 17 18  2  0
 19 20  1  0
M  END
