
     RDKit          3D

 25 27  0  0  0  0  0  0  0  0999 V2000
   -5.2600    1.2490    3.0660 O   0  0  0  0  0  0  0  0  0  0  0  0
   -4.6750    0.8240    2.0140 C   0  0  0  0  0  0  0  0  0  0  0  0
   -3.2990    0.7130    1.9740 C   0  0  0  0  0  0  0  0  0  0  0  0
   -2.6870    0.2500    0.8250 C   0  0  0  0  0  0  0  0  0  0  0  0
   -1.2730    0.1650    0.7500 N   0  0  0  0  0  0  0  0  0  0  0  0
   -0.6430   -0.3310   -0.4840 C   0  0  0  0  0  0  0  0  0  0  0  0
    0.8190   -0.0310   -0.3990 C   0  0  0  0  0  0  0  0  0  0  0  0
    1.4660   -0.7260    0.7620 C   0  0  0  0  0  0  0  0  0  0  0  0
    2.8690   -0.3380    0.8200 N   0  0  0  0  0  0  0  0  0  0  0  0
    3.5850   -0.9070   -0.2860 C   0  0  0  0  0  0  0  0  0  0  0  0
    4.9960   -0.3680   -0.1810 C   0  0  0  0  0  0  0  0  0  0  0  0
    5.5840   -0.3970    1.0620 C   0  0  0  0  0  0  0  0  0  0  0  0
    6.8710    0.0950    1.2120 C   0  0  0  0  0  0  0  0  0  0  0  0
    7.6090    0.0540    2.7970 Cl  0  0  0  0  0  0  0  0  0  0  0  0
    7.4990    0.5960    0.0880 C   0  0  0  0  0  0  0  0  0  0  0  0
    6.9050    0.6250   -1.1610 C   0  0  0  0  0  0  0  0  0  0  0  0
    7.7500    1.2780   -2.5660 Cl  0  0  0  0  0  0  0  0  0  0  0  0
    5.6280    0.1330   -1.2990 C   0  0  0  0  0  0  0  0  0  0  0  0
   -3.4190   -0.0910   -0.2450 N   0  0  0  0  0  0  0  0  0  0  0  0
   -4.7700    0.0040   -0.2490 C   0  0  0  0  0  0  0  0  0  0  0  0
   -5.4880   -0.3460   -1.3730 C   0  0  0  0  0  0  0  0  0  0  0  0
   -6.8680   -0.2440   -1.3890 C   0  0  0  0  0  0  0  0  0  0  0  0
   -7.5100    0.2120   -0.2610 C   0  0  0  0  0  0  0  0  0  0  0  0
   -6.7760    0.5620    0.8660 C   0  0  0  0  0  0  0  0  0  0  0  0
   -5.4070    0.4670    0.8950 C   0  0  0  0  0  0  0  0  0  0  0  0
  1  2  2  0
  2  3  1  0
  2 25  1  0
  3  4  2  0
  4  5  1  0
  4 19  1  0
  5  6  1  0
  6  7  1  0
  7  8  1  0
  8  9  1  0
  9 10  1  0
 10 11  1  0
 11 12  2  0
 11 18  1  0
 12 13  1  0
 13 14  1  0
 13 15  2  0
 15 16  1  0
 16 17  1  0
 16 18  2  0
 19 20  1  0
 20 21  2  0
 20 25  1  0
 21 22  1  0
 22 23  2  0
 23 24  1  0
 24 25  2  0
M  END
