
     RDKit          3D

 20 21  0  0  0  0  0  0  0  0999 V2000
    4.9400   -0.2500   -1.1030 C   0  0  0  0  0  0  0  0  0  0  0  0
    3.9130   -1.0820   -1.1880 C   0  0  0  0  0  0  0  0  0  0  0  0
    3.0350   -1.3060   -0.0340 C   0  0  0  0  0  0  0  0  0  0  0  0
    1.6470   -0.9390   -0.3100 N   0  0  0  0  0  0  0  0  0  0  0  0
    0.9050   -1.7140   -1.2440 C   0  0  0  0  0  0  0  0  0  0  0  0
   -0.2600   -2.1790   -1.1270 N   0  0  0  0  0  0  0  0  0  0  0  0
   -1.2090   -2.1140   -0.0950 C   0  0  0  0  0  0  0  0  0  0  0  0
   -1.5110   -2.8520    0.9540 N   0  0  0  0  0  0  0  0  0  0  0  0
   -2.5810   -2.3450    1.7060 C   0  0  0  0  0  0  0  0  0  0  0  0
   -2.6700   -0.9050    1.2520 C   0  0  0  0  0  0  0  0  0  0  0  0
   -2.1240   -1.0210   -0.0860 N   0  0  0  0  0  0  0  0  0  0  0  0
   -2.4180   -0.1980   -1.2470 C   0  0  0  0  0  0  0  0  0  0  0  0
   -2.5110    1.2560   -0.8930 C   0  0  0  0  0  0  0  0  0  0  0  0
   -2.1190    1.5590    0.3980 O   0  0  0  0  0  0  0  0  0  0  0  0
   -1.0170    2.2080    0.8540 C   0  0  0  0  0  0  0  0  0  0  0  0
   -1.0050    2.5860    2.1260 C   0  0  0  0  0  0  0  0  0  0  0  0
    0.1480    2.5120    0.0260 C   0  0  2  0  0  0  0  0  0  0  0  0
   -0.3330    3.6870   -1.2380 Cl  0  0  0  0  0  0  0  0  0  0  0  0
    0.8280    1.3410   -0.5670 C   0  0  0  0  0  0  0  0  0  0  0  0
    1.0940    0.2190    0.3850 C   0  0  0  0  0  0  0  0  0  0  0  0
  1  2  2  0
  2  3  1  0
  3  4  1  0
  4  5  1  0
  4 20  1  0
  5  6  2  0
  6  7  1  0
  7  8  2  0
  7 11  1  0
  8  9  1  0
  9 10  1  0
 10 11  1  0
 11 12  1  0
 12 13  1  0
 13 14  1  0
 14 15  1  0
 15 16  2  0
 15 17  1  0
 17 18  1  6
 17 19  1  0
 19 20  1  0
M  END
