
     RDKit          3D

 20 22  0  0  0  0  0  0  0  0999 V2000
    3.0500   -1.0570   -1.0470 C   0  0  0  0  0  0  0  0  0  0  0  0
    1.8660   -1.0540   -0.4990 C   0  0  0  0  0  0  0  0  0  0  0  0
    1.7570   -1.1040    0.9800 C   0  0  0  0  0  0  0  0  0  0  0  0
    2.7340   -0.2590    1.5990 N   0  0  0  0  0  0  0  0  0  0  0  0
    2.7840    1.0420    1.5320 C   0  0  0  0  0  0  0  0  0  0  0  0
    1.8750    1.7040    0.8430 N   0  0  0  0  0  0  0  0  0  0  0  0
    1.0450    2.5390    0.4970 C   0  0  0  0  0  0  0  0  0  0  0  0
    0.2750    2.5670   -0.7460 C   0  0  0  0  0  0  0  0  0  0  0  0
    0.9770    3.7530   -1.9480 Cl  0  0  0  0  0  0  0  0  0  0  0  0
   -0.8130    1.9370   -1.0980 C   0  0  0  0  0  0  0  0  0  0  0  0
   -1.6850    0.9800   -0.4350 C   0  0  0  0  0  0  0  0  0  0  0  0
   -1.5070   -0.2850   -0.2650 C   0  0  0  0  0  0  0  0  0  0  0  0
   -0.5430   -1.2090   -0.5970 N   0  0  0  0  0  0  0  0  0  0  0  0
   -0.9580   -2.4570   -0.0270 C   0  0  0  0  0  0  0  0  0  0  0  0
   -2.1040   -2.2870    0.6080 C   0  0  0  0  0  0  0  0  0  0  0  0
   -2.5220   -0.9200    0.5030 N   0  0  0  0  0  0  0  0  0  0  0  0
   -3.5250    0.0630    0.8740 C   0  0  0  0  0  0  0  0  0  0  0  0
   -3.0750    1.2280    0.0910 C   0  0  0  0  0  0  0  0  0  0  0  0
   -3.7840    2.2760   -0.0990 O   0  0  0  0  0  0  0  0  0  0  0  0
    0.6710   -1.0010   -1.3750 C   0  0  0  0  0  0  0  0  0  0  0  0
  1  2  2  0
  2  3  1  0
  2 20  1  0
  3  4  1  0
  4  5  2  0
  5  6  1  0
  6  7  2  0
  7  8  1  0
  8  9  1  0
  8 10  2  0
 10 11  1  0
 11 12  2  0
 11 18  1  0
 12 13  1  0
 12 16  1  0
 13 14  1  0
 13 20  1  0
 14 15  2  0
 15 16  1  0
 16 17  1  0
 17 18  1  0
 18 19  2  0
M  END
