
     RDKit          3D

 24 26  0  0  0  0  0  0  0  0999 V2000
   -5.6710    0.6400    2.2080 N   0  0  0  0  0  0  0  0  0  0  0  0
   -4.9880    0.5410    0.9730 C   0  0  0  0  0  0  0  0  0  0  0  0
   -3.6590    0.3590    0.8840 N   0  0  0  0  0  0  0  0  0  0  0  0
   -3.0470    0.2690   -0.3090 C   0  0  0  0  0  0  0  0  0  0  0  0
   -3.7550    0.3600   -1.4890 C   0  0  0  0  0  0  0  0  0  0  0  0
   -2.8970    0.2380   -2.5230 N   0  0  0  0  0  0  0  0  0  0  0  0
   -1.6740    0.0740   -1.9870 C   0  0  0  0  0  0  0  0  0  0  0  0
   -1.7410    0.0890   -0.6570 N   0  0  0  0  0  0  0  0  0  0  0  0
   -0.6390   -0.0570    0.2930 C   0  0  2  0  0  0  0  0  0  0  0  0
    0.4250    0.7590   -0.0180 O   0  0  0  0  0  0  0  0  0  0  0  0
    1.5760    0.0280    0.3370 C   0  0  2  0  0  0  0  0  0  0  0  0
    2.8190    0.6400   -0.2390 C   0  0  0  0  0  0  0  0  0  0  0  0
    3.9010   -0.1020    0.1330 O   0  0  0  0  0  0  0  0  0  0  0  0
    5.3420    0.4280   -0.4120 P   0  0  0  0  0  0  0  0  0  0  0  0
    5.6800    2.0080   -0.6300 O   0  0  0  0  0  0  0  0  0  0  0  0
    6.0100    0.3580    0.9550 O   0  0  0  0  0  0  0  0  0  0  0  0
    6.4720   -0.7060   -0.9790 O   0  0  0  0  0  0  0  0  0  0  0  0
    1.2490   -1.2910   -0.3350 C   0  0  1  0  0  0  0  0  0  0  0  0
    2.1060   -2.3060    0.0670 O   0  0  0  0  0  0  0  0  0  0  0  0
   -0.1620   -1.4890    0.1790 C   0  0  1  0  0  0  0  0  0  0  0  0
   -0.0510   -2.0900    1.4370 O   0  0  0  0  0  0  0  0  0  0  0  0
   -5.1150    0.5460   -1.3860 C   0  0  0  0  0  0  0  0  0  0  0  0
   -5.7620    0.6300   -2.4620 O   0  0  0  0  0  0  0  0  0  0  0  0
   -5.7050    0.6330   -0.1840 N   0  0  0  0  0  0  0  0  0  0  0  0
  1  2  1  0
  2  3  1  0
  2 24  2  0
  3  4  1  0
  4  5  2  0
  4  8  1  0
  5  6  1  0
  5 22  1  0
  6  7  2  0
  7  8  1  0
  9  8  1  6
  9 10  1  0
  9 20  1  0
 10 11  1  0
 11 12  1  6
 11 18  1  0
 12 13  1  0
 13 14  1  0
 14 15  1  0
 14 16  1  0
 14 17  1  0
 18 19  1  1
 18 20  1  0
 20 21  1  1
 22 23  2  0
 22 24  1  0
M  CHG  1  24   1
M  END
