
     RDKit          3D

 10 10  0  0  0  0  0  0  0  0999 V2000
   -0.2200    1.7890    0.1390 C   0  0  0  0  0  0  0  0  0  0  0  0
   -0.3730    0.3210    0.4500 C   0  0  1  0  0  0  0  0  0  0  0  0
   -1.3310   -0.2320   -0.3820 O   0  0  0  0  0  0  0  0  0  0  0  0
   -2.3300   -0.7640    0.2560 O   0  0  0  0  0  0  0  0  0  0  0  0
   -2.9440   -1.6870   -0.4160 O   0  0  0  0  0  0  0  0  0  0  0  0
    0.9280   -0.3930    0.2420 C   0  0  0  0  0  0  0  0  0  0  0  0
    2.0500    0.1770   -0.1560 C   0  0  0  0  0  0  0  0  0  0  0  0
    3.0100   -0.8330   -0.2200 O   0  0  0  0  0  0  0  0  0  0  0  0
    2.4190   -2.0340   -0.0140 O   0  0  0  0  0  0  0  0  0  0  0  0
    1.1890   -1.7430    0.4220 O   0  0  0  0  0  0  0  0  0  0  0  0
  2  1  1  6
  2  3  1  0
  2  6  1  0
  3  4  1  0
  4  5  1  0
  6  7  2  0
  6 10  1  0
  7  8  1  0
  8  9  1  0
  9 10  1  0
M  END
