
     RDKit          3D

  9  8  0  0  0  0  0  0  0  0999 V2000
   -2.0830   -2.0300    0.7690 O   0  0  0  0  0  0  0  0  0  0  0  0
   -2.3530   -0.8050    0.9370 C   0  0  0  0  0  0  0  0  0  0  0  0
   -1.6030    0.0780    0.1730 O   0  0  0  0  0  0  0  0  0  0  0  0
   -0.6160   -0.3200   -0.7250 C   0  0  0  0  0  0  0  0  0  0  0  0
    0.4100   -1.0310   -0.1120 O   0  0  0  0  0  0  0  0  0  0  0  0
    1.0290   -0.3370    0.8230 O   0  0  0  0  0  0  0  0  0  0  0  0
    1.8110    0.7760    0.5420 C   0  0  0  0  0  0  0  0  0  0  0  0
    1.9500    1.1570   -0.6470 O   0  0  0  0  0  0  0  0  0  0  0  0
    2.4500    1.4850    1.5520 O   0  0  0  0  0  0  0  0  0  0  0  0
  1  2  2  0
  2  3  1  0
  3  4  1  0
  4  5  1  0
  5  6  1  0
  6  7  1  0
  7  8  2  0
  7  9  1  0
M  END
