
     RDKit          3D

 20 20  0  0  0  0  0  0  0  0999 V2000
   -6.0230    0.8940    0.5500 C   0  0  0  0  0  0  0  0  0  0  0  0
   -5.4830    0.2830    1.8240 C   0  0  0  0  0  0  0  0  0  0  0  0
   -4.4450   -0.6170    1.4470 O   0  0  0  0  0  0  0  0  0  0  0  0
   -3.3520   -0.1160    0.7650 C   0  0  0  0  0  0  0  0  0  0  0  0
   -3.3140    1.0980    0.5060 O   0  0  0  0  0  0  0  0  0  0  0  0
   -2.2870   -0.9890    0.3670 N   0  0  0  0  0  0  0  0  0  0  0  0
   -2.2410   -2.2790    0.5960 O   0  0  0  0  0  0  0  0  0  0  0  0
   -1.1480   -2.8060    0.1160 C   0  0  0  0  0  0  0  0  0  0  0  0
   -0.4490   -1.7470   -0.4650 C   0  0  0  0  0  0  0  0  0  0  0  0
   -1.1890   -0.5950   -0.2960 C   0  0  0  0  0  0  0  0  0  0  0  0
   -0.8730    0.5880   -0.6970 N   0  0  0  0  0  0  0  0  0  0  0  0
    0.3330    0.8660   -1.3950 C   0  0  0  0  0  0  0  0  0  0  0  0
    0.2700    1.2110   -2.6200 O   0  0  0  0  0  0  0  0  0  0  0  0
    1.6130    0.7840   -0.8140 N   0  0  0  0  0  0  0  0  0  0  0  0
    2.8350    1.0770   -1.5600 C   0  0  0  0  0  0  0  0  0  0  0  0
    4.0560    0.9170   -0.7200 C   0  0  0  0  0  0  0  0  0  0  0  0
    4.0950   -0.4130   -0.2770 O   0  0  0  0  0  0  0  0  0  0  0  0
    5.4790   -0.7230    0.7160 P   0  0  0  0  0  0  0  0  0  0  0  0
    5.6290    0.5840    1.8360 O   0  0  0  0  0  0  0  0  0  0  0  0
    6.9290   -0.8870   -0.2000 O   0  0  0  0  0  0  0  0  0  0  0  0
  1  2  1  0
  2  3  1  0
  3  4  1  0
  4  5  2  0
  4  6  1  0
  6  7  1  0
  6 10  1  0
  7  8  1  0
  8  9  2  0
  9 10  1  0
 10 11  2  3
 11 12  1  0
 12 13  2  0
 12 14  1  0
 14 15  1  0
 15 16  1  0
 16 17  1  0
 17 18  1  0
 18 19  1  0
 18 20  1  0
M  END
