
     RDKit          3D

 10  9  0  0  0  0  0  0  0  0999 V2000
   -0.5460   -1.5650    0.8560 C   0  0  0  0  0  0  0  0  0  0  0  0
   -0.8810   -0.4040   -0.0550 C   0  0  1  0  0  0  0  0  0  0  0  0
   -1.4110    0.6160    0.6950 O   0  0  0  0  0  0  0  0  0  0  0  0
    0.3550   -0.0240   -0.8150 C   0  0  0  0  0  0  0  0  0  0  0  0
    1.4770    0.3890    0.1210 C   0  0  0  0  0  0  0  0  0  0  0  0
    2.5960    0.7300   -0.6200 O   0  0  0  0  0  0  0  0  0  0  0  0
    3.5430    1.0810    0.2140 O   0  0  0  0  0  0  0  0  0  0  0  0
   -1.8450   -0.8440   -0.9460 O   0  0  0  0  0  0  0  0  0  0  0  0
   -2.2160    0.0930   -1.7950 O   0  0  0  0  0  0  0  0  0  0  0  0
   -3.0080    0.9180   -1.1530 O   0  0  0  0  0  0  0  0  0  0  0  0
  2  1  1  1
  2  3  1  0
  2  4  1  0
  2  8  1  0
  4  5  1  0
  5  6  1  0
  6  7  1  0
  8  9  1  0
  9 10  1  0
M  END
