
     RDKit          3D

 10 10  0  0  0  0  0  0  0  0999 V2000
    3.3720    0.9270    0.1230 O   0  0  0  0  0  0  0  0  0  0  0  0
    2.7950   -0.1370    0.6390 O   0  0  0  0  0  0  0  0  0  0  0  0
    1.4900    0.0820    0.6090 O   0  0  0  0  0  0  0  0  0  0  0  0
    0.8970   -0.5640   -0.4660 C   0  0  1  0  0  0  0  0  0  0  0  0
   -0.1980   -1.5000    0.0300 C   0  0  0  0  0  0  0  0  0  0  0  0
   -1.1290   -0.8470    0.7950 O   0  0  0  0  0  0  0  0  0  0  0  0
   -1.9760   -0.0180    0.1080 C   0  0  0  0  0  0  0  0  0  0  0  0
   -1.4190    1.3650   -0.1290 C   0  0  0  0  0  0  0  0  0  0  0  0
   -0.0850    1.3730   -0.4600 O   0  0  0  0  0  0  0  0  0  0  0  0
    0.2340    0.3880   -1.2760 O   0  0  0  0  0  0  0  0  0  0  0  0
  1  2  1  0
  2  3  1  0
  4  3  1  1
  4  5  1  0
  4 10  1  0
  5  6  1  0
  6  7  1  0
  7  8  1  0
  8  9  1  0
  9 10  1  0
M  END
