
     RDKit          3D

 27 28  0  0  0  0  0  0  0  0999 V2000
    0.0830   -3.7340    2.4890 O   0  0  0  0  0  0  0  0  0  0  0  0
   -0.0350   -3.5900    1.2520 C   0  0  0  0  0  0  0  0  0  0  0  0
   -1.2750   -3.9870    0.5870 C   0  0  0  0  0  0  0  0  0  0  0  0
   -2.2520   -2.9960    0.6100 O   0  0  0  0  0  0  0  0  0  0  0  0
   -2.6730   -2.8030   -0.6260 O   0  0  0  0  0  0  0  0  0  0  0  0
   -2.4560   -1.6780   -1.4230 C   0  0  0  0  0  0  0  0  0  0  0  0
   -2.0910   -2.0330   -2.5990 O   0  0  0  0  0  0  0  0  0  0  0  0
   -2.6380   -0.4960   -0.9170 O   0  0  0  0  0  0  0  0  0  0  0  0
   -2.2020    0.7680   -0.7840 C   0  0  0  0  0  0  0  0  0  0  0  0
   -3.1300    1.7890   -0.6450 C   0  0  0  0  0  0  0  0  0  0  0  0
   -2.8130    3.1240   -0.5060 C   0  0  0  0  0  0  0  0  0  0  0  0
   -3.7780    4.1140   -0.3700 O   0  0  0  0  0  0  0  0  0  0  0  0
   -4.5090    4.1510    0.7370 O   0  0  0  0  0  0  0  0  0  0  0  0
   -1.4950    3.5140   -0.5000 C   0  0  0  0  0  0  0  0  0  0  0  0
   -0.5550    2.5140   -0.6350 C   0  0  0  0  0  0  0  0  0  0  0  0
   -0.8610    1.1730   -0.7740 C   0  0  0  0  0  0  0  0  0  0  0  0
    0.1590    0.1990   -0.9040 O   0  0  0  0  0  0  0  0  0  0  0  0
    0.3580   -0.8630    0.0420 C   0  0  2  0  0  0  0  0  0  0  0  0
    1.5190   -0.3720    0.9380 C   0  0  0  0  0  0  0  0  0  0  0  0
    2.6230   -0.1760    0.0750 O   0  0  0  0  0  0  0  0  0  0  0  0
    3.6790    0.2520    0.7630 O   0  0  0  0  0  0  0  0  0  0  0  0
    4.7170    0.9700    0.2050 C   0  0  0  0  0  0  0  0  0  0  0  0
    4.6830    1.2500   -1.0290 O   0  0  0  0  0  0  0  0  0  0  0  0
    5.8220    1.4160    0.9310 O   0  0  0  0  0  0  0  0  0  0  0  0
    6.8080    2.1140    0.3360 O   0  0  0  0  0  0  0  0  0  0  0  0
    0.8490   -2.1320   -0.5550 C   0  0  0  0  0  0  0  0  0  0  0  0
    0.9950   -3.0610    0.5200 O   0  0  0  0  0  0  0  0  0  0  0  0
  1  2  2  0
  2  3  1  0
  2 27  1  0
  3  4  1  0
  4  5  1  0
  5  6  1  0
  6  7  2  0
  6  8  1  0
  8  9  1  0
  9 10  2  0
  9 16  1  0
 10 11  1  0
 11 12  1  0
 11 14  2  0
 12 13  1  0
 14 15  1  0
 15 16  2  0
 16 17  1  0
 17 18  1  0
 18 19  1  1
 18 26  1  0
 19 20  1  0
 20 21  1  0
 21 22  1  0
 22 23  2  0
 22 24  1  0
 24 25  1  0
 26 27  1  0
M  END
