
     RDKit          3D

 20 21  0  0  0  0  0  0  0  0999 V2000
   -4.0000   -0.8100   -0.3490 C   0  0  0  0  0  0  0  0  0  0  0  0
   -2.5180   -0.8470   -0.7500 C   0  0  0  0  0  0  0  0  0  0  0  0
   -1.7110   -0.2580    0.4280 C   0  0  0  0  0  0  0  0  0  0  0  0
   -0.3340   -0.2310    0.1970 N   0  0  0  0  0  0  0  0  0  0  0  0
    0.3610   -1.4860    0.1630 C   0  0  0  0  0  0  0  0  0  0  0  0
   -0.2300   -2.6030    0.3330 N   0  0  0  0  0  0  0  0  0  0  0  0
    1.7790   -1.5060   -0.0710 N   0  0  0  0  0  0  0  0  0  0  0  0
    2.5220   -0.3210   -0.2700 C   0  0  0  0  0  0  0  0  0  0  0  0
    3.8150   -0.2430   -0.4890 C   0  0  0  0  0  0  0  0  0  0  0  0
    4.7360   -1.3530   -0.5690 C   0  0  0  0  0  0  0  0  0  0  0  0
    5.9810   -1.0850   -0.7920 O   0  0  0  0  0  0  0  0  0  0  0  0
    4.4130   -2.6860   -0.4300 O   0  0  0  0  0  0  0  0  0  0  0  0
    1.7660    0.9040   -0.2250 N   0  0  0  0  0  0  0  0  0  0  0  0
    2.1990    2.1490   -0.3840 N   0  0  0  0  0  0  0  0  0  0  0  0
    1.1890    2.9710   -0.2760 N   0  0  0  0  0  0  0  0  0  0  0  0
    0.0670    2.2620   -0.0410 C   0  0  0  0  0  0  0  0  0  0  0  0
   -1.6280    2.8980    0.1760 P   0  0  0  0  0  0  0  0  0  0  0  0
   -2.4030    3.1340   -1.3820 O   0  0  0  0  0  0  0  0  0  0  0  0
   -1.5280    4.4250    0.9750 O   0  0  0  0  0  0  0  0  0  0  0  0
    0.4300    0.9350   -0.0060 C   0  0  0  0  0  0  0  0  0  0  0  0
  1  2  1  0
  2  3  1  0
  3  4  1  0
  4  5  1  0
  4 20  1  0
  5  6  2  0
  5  7  1  0
  7  8  1  0
  8  9  2  3
  8 13  1  0
  9 10  1  0
 10 11  2  0
 10 12  1  0
 13 14  1  0
 13 20  1  0
 14 15  2  0
 15 16  1  0
 16 17  1  0
 16 20  2  0
 17 18  1  0
 17 19  1  0
M  END
