
     RDKit          3D

 19 20  0  0  0  0  0  0  0  0999 V2000
   -4.2460    0.8220    1.5800 C   0  0  0  0  0  0  0  0  0  0  0  0
   -2.9820    0.8860    0.9590 O   0  0  0  0  0  0  0  0  0  0  0  0
   -2.7150    0.3950   -0.3080 C   0  0  0  0  0  0  0  0  0  0  0  0
   -3.5340   -0.2160   -1.1740 N   0  0  0  0  0  0  0  0  0  0  0  0
   -2.8330   -0.4990   -2.2480 N   0  0  0  0  0  0  0  0  0  0  0  0
   -1.5380   -0.0810   -2.1150 C   0  0  0  0  0  0  0  0  0  0  0  0
   -1.4370    0.4880   -0.8950 C   0  0  0  0  0  0  0  0  0  0  0  0
   -0.2790    1.1240   -0.2420 C   0  0  0  0  0  0  0  0  0  0  0  0
    0.3200    0.3300    0.8410 C   0  0  0  0  0  0  0  0  0  0  0  0
   -0.1520    0.4650    2.1390 N   0  0  0  0  0  0  0  0  0  0  0  0
    0.5000   -0.4060    2.9210 C   0  0  0  0  0  0  0  0  0  0  0  0
    1.3640   -1.0860    2.1760 N   0  0  0  0  0  0  0  0  0  0  0  0
    1.2590   -0.6300    0.8810 C   0  0  0  0  0  0  0  0  0  0  0  0
    2.1110   -1.1180   -0.1840 C   0  0  0  0  0  0  0  0  0  0  0  0
    2.9670   -2.0800    0.0340 N   0  0  0  0  0  0  0  0  0  0  0  0
    2.1430   -0.6200   -1.5140 N   0  0  0  0  0  0  0  0  0  0  0  0
    3.6640   -0.1790   -2.3550 P   0  0  0  0  0  0  0  0  0  0  0  0
    5.0700   -0.7370   -1.5050 O   0  0  0  0  0  0  0  0  0  0  0  0
    3.6650    1.5620   -2.5090 O   0  0  0  0  0  0  0  0  0  0  0  0
  1  2  1  0
  2  3  1  0
  3  4  1  0
  3  7  2  0
  4  5  1  0
  5  6  2  0
  6  7  1  0
  7  8  1  0
  8  9  1  0
  9 10  1  0
  9 13  2  0
 10 11  2  0
 11 12  1  0
 12 13  1  0
 13 14  1  0
 14 15  2  0
 14 16  1  0
 16 17  1  0
 17 18  1  0
 17 19  1  0
M  END
