
     RDKit          3D

 20 21  0  0  0  0  0  0  0  0999 V2000
    2.7760   -2.5190    0.5400 O   0  0  0  0  0  0  0  0  0  0  0  0
    3.2850   -1.4260    0.1930 C   0  0  0  0  0  0  0  0  0  0  0  0
    4.6970   -1.2460    0.0890 N   0  0  0  0  0  0  0  0  0  0  0  0
    5.2740    0.0580   -0.0930 C   0  0  0  0  0  0  0  0  0  0  0  0
    4.3700    1.1770    0.3570 C   0  0  0  0  0  0  0  0  0  0  0  0
    2.9680    1.0530   -0.1230 C   0  0  0  0  0  0  0  0  0  0  0  0
    2.4720   -0.3070   -0.1150 N   0  0  0  0  0  0  0  0  0  0  0  0
    1.0850   -0.4780   -0.4410 C   0  0  0  0  0  0  0  0  0  0  0  0
    0.3070   -1.0340    0.4650 C   0  0  0  0  0  0  0  0  0  0  0  0
   -1.0680   -1.2170    0.1730 N   0  0  0  0  0  0  0  0  0  0  0  0
   -1.7090   -0.2500   -0.5800 N   0  0  0  0  0  0  0  0  0  0  0  0
   -3.1150   -0.1280   -0.2450 C   0  0  1  0  0  0  0  0  0  0  0  0
   -3.9180    1.1800   -1.2830 P   0  0  0  0  0  0  0  0  0  0  0  0
   -2.8750    1.7090   -2.5630 O   0  0  0  0  0  0  0  0  0  0  0  0
   -4.5010    2.5000   -0.3320 O   0  0  0  0  0  0  0  0  0  0  0  0
   -3.8490    3.5860   -0.6780 O   0  0  0  0  0  0  0  0  0  0  0  0
   -3.7630   -1.4630   -0.4250 C   0  0  0  0  0  0  0  0  0  0  0  0
   -3.9690   -1.9420    0.9560 C   0  0  0  0  0  0  0  0  0  0  0  0
   -3.6660   -1.0250    1.7940 N   0  0  0  0  0  0  0  0  0  0  0  0
   -3.2370    0.1350    1.1590 N   0  0  0  0  0  0  0  0  0  0  0  0
  1  2  2  0
  2  3  1  0
  2  7  1  0
  3  4  1  0
  4  5  1  0
  5  6  1  0
  6  7  1  0
  7  8  1  0
  8  9  2  3
  9 10  1  0
 10 11  1  0
 12 11  1  6
 12 13  1  0
 12 17  1  0
 12 20  1  0
 13 14  1  0
 13 15  1  0
 15 16  1  0
 17 18  1  0
 18 19  2  0
 19 20  1  0
M  END
