
     RDKit          3D

 20 21  0  0  0  0  0  0  0  0999 V2000
   -2.6680    1.1930    2.0380 C   0  0  0  0  0  0  0  0  0  0  0  0
   -2.7760    0.6630    0.6870 N   0  0  0  0  0  0  0  0  0  0  0  0
   -4.0580    0.4710    0.1220 C   0  0  0  0  0  0  0  0  0  0  0  0
   -5.0930    0.2900    0.7870 O   0  0  0  0  0  0  0  0  0  0  0  0
   -4.1700    0.4870   -1.3780 C   0  0  0  0  0  0  0  0  0  0  0  0
   -3.1350   -0.3660   -1.9410 N   0  0  0  0  0  0  0  0  0  0  0  0
   -1.8030   -0.1960   -1.4280 C   0  0  0  0  0  0  0  0  0  0  0  0
   -0.8670   -0.5420   -2.2110 N   0  0  0  0  0  0  0  0  0  0  0  0
   -1.6150    0.3260   -0.0960 C   0  0  0  0  0  0  0  0  0  0  0  0
   -0.4510    0.5230    0.4700 C   0  0  0  0  0  0  0  0  0  0  0  0
    0.8150    0.2660   -0.1100 N   0  0  0  0  0  0  0  0  0  0  0  0
    1.5330   -0.9220    0.2320 C   0  0  0  0  0  0  0  0  0  0  0  0
    1.0850   -1.9390    1.0500 C   0  0  0  0  0  0  0  0  0  0  0  0
    2.0110   -2.8500    1.1020 O   0  0  0  0  0  0  0  0  0  0  0  0
    3.0250   -2.5000    0.3790 N   0  0  0  0  0  0  0  0  0  0  0  0
    2.7730   -1.2910   -0.1900 C   0  0  0  0  0  0  0  0  0  0  0  0
    3.6610   -0.5620   -1.0400 N   0  0  0  0  0  0  0  0  0  0  0  0
    5.0420    0.3500   -0.3020 P   0  0  0  0  0  0  0  0  0  0  0  0
    4.8340    2.0280   -0.5720 O   0  0  0  0  0  0  0  0  0  0  0  0
    6.5220   -0.2250   -1.0000 O   0  0  0  0  0  0  0  0  0  0  0  0
  1  2  1  0
  2  3  1  0
  2  9  1  0
  3  4  2  0
  3  5  1  0
  5  6  1  0
  6  7  1  0
  7  8  2  0
  7  9  1  0
  9 10  2  3
 10 11  1  0
 11 12  1  0
 12 13  2  0
 12 16  1  0
 13 14  1  0
 14 15  1  0
 15 16  2  0
 16 17  1  0
 17 18  1  0
 18 19  1  0
 18 20  1  0
M  END
