
     RDKit          3D

 19 20  0  0  0  0  0  0  0  0999 V2000
   -0.6500    0.2530   -2.4120 N   0  0  0  0  0  0  0  0  0  0  0  0
   -1.0580   -0.4900   -1.4430 C   0  0  0  0  0  0  0  0  0  0  0  0
   -2.5120   -0.6870   -1.2870 C   0  0  0  0  0  0  0  0  0  0  0  0
   -3.0360   -0.2030    0.0420 C   0  0  0  0  0  0  0  0  0  0  0  0
   -2.7220    1.6080    0.2770 P   0  0  0  0  0  0  0  0  0  0  0  0
   -4.2100    2.5150    0.1410 O   0  0  0  0  0  0  0  0  0  0  0  0
   -2.0780    1.9400    1.8640 O   0  0  0  0  0  0  0  0  0  0  0  0
   -0.0990   -1.0770   -0.5780 N   0  0  0  0  0  0  0  0  0  0  0  0
   -0.2860   -2.4530   -0.1600 C   0  0  0  0  0  0  0  0  0  0  0  0
    1.0070   -3.0890    0.1630 C   0  0  0  0  0  0  0  0  0  0  0  0
    1.0890   -4.3390    0.0300 O   0  0  0  0  0  0  0  0  0  0  0  0
    2.1210   -2.3250    0.6070 N   0  0  0  0  0  0  0  0  0  0  0  0
    2.0790   -0.8990    0.4330 C   0  0  0  0  0  0  0  0  0  0  0  0
    1.0290   -0.3370   -0.1240 C   0  0  0  0  0  0  0  0  0  0  0  0
    1.6620    0.9240    0.0390 N   0  0  0  0  0  0  0  0  0  0  0  0
    2.7170    0.4000    0.5950 C   0  0  0  0  0  0  0  0  0  0  0  0
    3.9520    0.8770    1.1270 N   0  0  0  0  0  0  0  0  0  0  0  0
    4.4480    2.0060    0.7520 C   0  0  0  0  0  0  0  0  0  0  0  0
    3.7390    2.7670   -0.2040 N   0  0  0  0  0  0  0  0  0  0  0  0
  1  2  2  0
  2  3  1  0
  2  8  1  0
  3  4  1  0
  4  5  1  0
  5  6  1  0
  5  7  1  0
  8  9  1  0
  8 14  1  0
  9 10  1  0
 10 11  2  0
 10 12  1  0
 12 13  1  0
 13 14  2  0
 13 16  1  0
 14 15  1  0
 15 16  2  0
 16 17  1  0
 17 18  2  3
 18 19  1  0
M  END
