
     RDKit          3D

 23 25  0  0  0  0  0  0  0  0999 V2000
    5.8490    1.6530   -1.9050 O   0  0  0  0  0  0  0  0  0  0  0  0
    5.0310    1.3320   -1.0180 C   0  0  0  0  0  0  0  0  0  0  0  0
    5.1330    1.7350    0.2700 N   0  0  0  0  0  0  0  0  0  0  0  0
    4.2250    1.3640    1.1980 C   0  0  0  0  0  0  0  0  0  0  0  0
    3.1740    0.5750    0.8840 N   0  0  0  0  0  0  0  0  0  0  0  0
    3.0720    0.1750   -0.3920 C   0  0  0  0  0  0  0  0  0  0  0  0
    3.9770    0.5330   -1.3620 C   0  0  0  0  0  0  0  0  0  0  0  0
    3.5940   -0.0260   -2.5230 N   0  0  0  0  0  0  0  0  0  0  0  0
    2.4620   -0.7230   -2.2700 C   0  0  0  0  0  0  0  0  0  0  0  0
    2.1460   -0.5980   -0.9680 N   0  0  0  0  0  0  0  0  0  0  0  0
    0.9870   -1.2250   -0.3740 C   0  0  2  0  0  0  0  0  0  0  0  0
   -0.1190   -0.8370   -1.1260 O   0  0  0  0  0  0  0  0  0  0  0  0
   -1.2450   -0.9680   -0.3580 C   0  0  2  0  0  0  0  0  0  0  0  0
   -2.2800    0.0720   -0.6210 C   0  0  0  0  0  0  0  0  0  0  0  0
   -3.3130   -0.2540    0.2570 O   0  0  0  0  0  0  0  0  0  0  0  0
   -4.5430    0.6660    0.2040 P   0  0  0  0  0  0  0  0  0  0  0  0
   -5.9420    1.2980    0.0470 O   0  0  0  0  0  0  0  0  0  0  0  0
   -3.7060    2.0300    0.3830 O   0  0  0  0  0  0  0  0  0  0  0  0
   -5.1030   -0.1040    1.5780 O   0  0  0  0  0  0  0  0  0  0  0  0
   -0.8260   -1.0460    1.0860 C   0  0  1  0  0  0  0  0  0  0  0  0
   -0.9020   -2.3490    1.5940 O   0  0  0  0  0  0  0  0  0  0  0  0
    0.6680   -0.7060    0.9890 C   0  0  1  0  0  0  0  0  0  0  0  0
    1.3910   -1.3350    2.0010 O   0  0  0  0  0  0  0  0  0  0  0  0
  1  2  2  0
  2  3  1  0
  2  7  1  0
  3  4  1  0
  4  5  2  0
  5  6  1  0
  6  7  2  0
  6 10  1  0
  7  8  1  0
  8  9  2  0
  9 10  1  0
 11 10  1  6
 11 12  1  0
 11 22  1  0
 12 13  1  0
 13 14  1  1
 13 20  1  0
 14 15  1  0
 15 16  1  0
 16 17  1  0
 16 18  1  0
 16 19  1  0
 20 21  1  6
 20 22  1  0
 22 23  1  1
M  END
