
     RDKit          3D

 20 20  0  0  0  0  0  0  0  0999 V2000
    5.3670   -1.0720    2.9120 N   0  0  0  0  0  0  0  0  0  0  0  0
    5.1820   -0.4480    1.8910 C   0  0  0  0  0  0  0  0  0  0  0  0
    6.3430   -0.0520    1.1500 N   0  0  0  0  0  0  0  0  0  0  0  0
    7.3220    0.7050    1.5900 O   0  0  0  0  0  0  0  0  0  0  0  0
    7.1650    1.8880    0.9600 O   0  0  0  0  0  0  0  0  0  0  0  0
    3.8420   -0.5900    1.5580 N   0  0  0  0  0  0  0  0  0  0  0  0
    2.9380    0.2560    0.9810 C   0  0  0  0  0  0  0  0  0  0  0  0
    3.4470    1.3970    0.8720 O   0  0  0  0  0  0  0  0  0  0  0  0
    1.6650   -0.1330    0.6080 N   0  0  0  0  0  0  0  0  0  0  0  0
    0.7280    0.8060    0.0890 C   0  0  0  0  0  0  0  0  0  0  0  0
   -0.5660    0.0150   -0.2150 C   0  0  0  0  0  0  0  0  0  0  0  0
   -1.5450    1.0060   -0.6630 C   0  0  0  0  0  0  0  0  0  0  0  0
   -2.8360    0.4580   -1.0110 N   0  0  0  0  0  0  0  0  0  0  0  0
   -3.9140    1.4260   -1.0430 C   0  0  0  0  0  0  0  0  0  0  0  0
   -5.1390    1.0190   -1.7740 C   0  0  0  0  0  0  0  0  0  0  0  0
   -5.7360   -0.5850   -0.9690 P   0  0  0  0  0  0  0  0  0  0  0  0
   -6.2630   -0.2920    0.6530 O   0  0  0  0  0  0  0  0  0  0  0  0
   -4.2510   -1.5890   -0.9980 N   0  0  0  0  0  0  0  0  0  0  0  0
   -3.0480   -0.9300   -1.3450 C   0  0  0  0  0  0  0  0  0  0  0  0
   -2.0910   -1.5260   -1.9810 N   0  0  0  0  0  0  0  0  0  0  0  0
  1  2  2  0
  2  3  1  0
  2  6  1  0
  3  4  1  0
  4  5  1  0
  6  7  1  0
  7  8  2  0
  7  9  1  0
  9 10  1  0
 10 11  1  0
 11 12  1  0
 12 13  1  0
 13 14  1  0
 13 19  1  0
 14 15  1  0
 15 16  1  0
 16 17  1  0
 16 18  1  0
 18 19  1  0
 19 20  2  0
M  END
