
     RDKit          3D

 29 30  0  0  0  0  0  0  0  0999 V2000
    7.4970   -2.9280   -0.8720 C   0  0  0  0  0  0  0  0  0  0  0  0
    8.0340   -2.0600    0.2340 C   0  0  0  0  0  0  0  0  0  0  0  0
    7.2900   -1.1290    0.7980 C   0  0  0  0  0  0  0  0  0  0  0  0
    5.9090   -0.8690    0.4020 C   0  0  0  0  0  0  0  0  0  0  0  0
    5.1600    0.0470    0.9580 C   0  0  0  0  0  0  0  0  0  0  0  0
    3.8020    0.1850    0.4510 N   0  0  0  0  0  0  0  0  0  0  0  0
    2.7060   -0.0450    1.2960 C   0  0  0  0  0  0  0  0  0  0  0  0
    3.0270   -0.3750    2.4970 O   0  0  0  0  0  0  0  0  0  0  0  0
    1.3040    0.0450    0.9390 C   0  0  0  0  0  0  0  0  0  0  0  0
    0.4240   -0.8930    1.5290 C   0  0  0  0  0  0  0  0  0  0  0  0
   -0.8790   -0.9780    1.2770 N   0  0  0  0  0  0  0  0  0  0  0  0
   -1.4550   -0.1580    0.4240 C   0  0  0  0  0  0  0  0  0  0  0  0
   -2.8270   -0.1660    0.0670 N   0  0  0  0  0  0  0  0  0  0  0  0
   -3.8370   -1.0120    0.5340 C   0  0  0  0  0  0  0  0  0  0  0  0
   -3.5480   -1.8750    1.3640 O   0  0  0  0  0  0  0  0  0  0  0  0
   -5.2540   -0.9380    0.0900 C   0  0  0  0  0  0  0  0  0  0  0  0
   -6.0850   -1.8110    0.6180 C   0  0  0  0  0  0  0  0  0  0  0  0
   -7.5050   -1.8350    0.2540 C   0  0  1  0  0  0  0  0  0  0  0  0
   -8.2400   -1.7020    1.4360 O   0  0  0  0  0  0  0  0  0  0  0  0
   -7.8410   -0.8320   -0.6520 O   0  0  0  0  0  0  0  0  0  0  0  0
   -6.9800    0.0760   -1.2040 C   0  0  0  0  0  0  0  0  0  0  0  0
   -5.6960    0.0660   -0.8710 C   0  0  0  0  0  0  0  0  0  0  0  0
   -0.6270    0.8050   -0.1960 C   0  0  0  0  0  0  0  0  0  0  0  0
    0.7220    0.9040    0.0560 C   0  0  0  0  0  0  0  0  0  0  0  0
    1.5180    1.9380   -0.6750 C   0  0  0  0  0  0  0  0  0  0  0  0
    0.6100    2.8100   -1.4300 N   0  0  0  0  0  0  0  0  0  0  0  0
   -0.3050    3.6710   -0.7330 C   0  0  0  0  0  0  0  0  0  0  0  0
   -1.2390    4.5530   -1.5000 C   0  0  0  0  0  0  0  0  0  0  0  0
   -0.2810    3.6420    0.5140 O   0  0  0  0  0  0  0  0  0  0  0  0
  1  2  1  0
  2  3  2  3
  3  4  1  0
  4  5  2  3
  5  6  1  0
  6  7  1  0
  7  8  2  0
  7  9  1  0
  9 10  2  0
  9 24  1  0
 10 11  1  0
 11 12  2  0
 12 13  1  0
 12 23  1  0
 13 14  1  0
 14 15  2  0
 14 16  1  0
 16 17  2  0
 16 22  1  0
 17 18  1  0
 18 19  1  1
 18 20  1  0
 20 21  1  0
 21 22  2  0
 23 24  2  0
 24 25  1  0
 25 26  1  0
 26 27  1  0
 27 28  1  0
 27 29  2  0
M  CHG  1  11   1
M  END
