
     RDKit          3D

 29 30  0  0  0  0  0  0  0  0999 V2000
   -3.3290    2.7530   -0.7820 C   0  0  0  0  0  0  0  0  0  0  0  0
   -3.6230    1.7470    0.3010 C   0  0  1  0  0  0  0  0  0  0  0  0
   -4.8620    1.0100   -0.0890 C   0  0  0  0  0  0  0  0  0  0  0  0
   -2.5070    1.0020    0.8430 C   0  0  0  0  0  0  0  0  0  0  0  0
   -1.6190    0.1220    0.0740 C   0  0  2  0  0  0  0  0  0  0  0  0
   -0.8840    0.8180   -1.0360 C   0  0  0  0  0  0  0  0  0  0  0  0
   -0.0460   -0.0700   -1.7400 O   0  0  0  0  0  0  0  0  0  0  0  0
   -2.4490   -1.0070   -0.5380 C   0  0  0  0  0  0  0  0  0  0  0  0
   -1.7860   -2.2820   -0.8160 C   0  0  0  0  0  0  0  0  0  0  0  0
   -2.0510   -3.4460    0.0760 C   0  0  0  0  0  0  0  0  0  0  0  0
   -1.8830   -3.3080    1.5160 C   0  0  0  0  0  0  0  0  0  0  0  0
   -2.9820   -3.1730    2.1780 O   0  0  0  0  0  0  0  0  0  0  0  0
   -0.6960   -3.2990    2.2810 N   0  0  0  0  0  0  0  0  0  0  0  0
    0.6680   -3.4290    1.9160 C   0  0  0  0  0  0  0  0  0  0  0  0
    1.2670   -4.2460    2.7760 O   0  0  0  0  0  0  0  0  0  0  0  0
    1.4450   -2.8850    0.8730 N   0  0  0  0  0  0  0  0  0  0  0  0
    2.0710   -1.6720    0.5170 C   0  0  0  0  0  0  0  0  0  0  0  0
    3.3060   -1.8140   -0.1790 C   0  0  0  0  0  0  0  0  0  0  0  0
    4.0940   -0.7990   -0.5990 C   0  0  0  0  0  0  0  0  0  0  0  0
    3.7240    0.5060   -0.3650 C   0  0  0  0  0  0  0  0  0  0  0  0
    4.5690    1.5780   -0.7930 N   0  0  0  0  0  0  0  0  0  0  0  0
    4.2980    2.9320   -0.8320 C   0  0  0  0  0  0  0  0  0  0  0  0
    3.1990    3.3680   -0.4690 O   0  0  0  0  0  0  0  0  0  0  0  0
    5.3440    3.8840   -1.3160 C   0  0  0  0  0  0  0  0  0  0  0  0
    6.4670    3.1720   -1.6590 O   0  0  0  0  0  0  0  0  0  0  0  0
    2.5480    0.6930    0.2970 C   0  0  0  0  0  0  0  0  0  0  0  0
    1.7280   -0.3590    0.7330 C   0  0  0  0  0  0  0  0  0  0  0  0
    0.4990    0.1760    1.4000 C   0  0  0  0  0  0  0  0  0  0  0  0
   -0.6900   -0.4750    1.0490 N   0  0  0  0  0  0  0  0  0  0  0  0
  2  1  1  6
  2  3  1  0
  2  4  1  0
  5  4  1  1
  5  6  1  0
  5  8  1  0
  5 29  1  0
  6  7  1  0
  8  9  1  0
  9 10  1  0
 10 11  1  0
 11 12  2  0
 11 13  1  0
 13 14  1  0
 14 15  2  0
 14 16  1  0
 16 17  1  0
 17 18  2  0
 17 27  1  0
 18 19  1  0
 19 20  2  0
 20 21  1  0
 20 26  1  0
 21 22  1  0
 22 23  2  0
 22 24  1  0
 24 25  1  0
 26 27  2  0
 27 28  1  0
 28 29  1  0
M  CHG  1  29   1
M  END
