
     RDKit          3D

 31 34  0  0  0  0  0  0  0  0999 V2000
   -3.7610    3.9310   -0.4920 C   0  0  0  0  0  0  0  0  0  0  0  0
   -4.0410    2.7090   -0.0930 C   0  0  0  0  0  0  0  0  0  0  0  0
   -3.9050    1.5780   -1.0310 C   0  0  0  0  0  0  0  0  0  0  0  0
   -4.1720    0.3320   -0.6860 C   0  0  0  0  0  0  0  0  0  0  0  0
   -4.0170   -0.7590   -1.6650 C   0  0  0  0  0  0  0  0  0  0  0  0
   -3.0810   -1.7390   -1.2610 O   0  0  0  0  0  0  0  0  0  0  0  0
   -1.7490   -1.4690   -1.0070 C   0  0  0  0  0  0  0  0  0  0  0  0
   -1.3530   -0.2860   -1.1460 O   0  0  0  0  0  0  0  0  0  0  0  0
   -0.7970   -2.4890   -0.5910 C   0  0  0  0  0  0  0  0  0  0  0  0
   -1.1550   -3.8080   -0.4170 C   0  0  0  0  0  0  0  0  0  0  0  0
   -0.2400   -4.7620   -0.0220 C   0  0  0  0  0  0  0  0  0  0  0  0
    1.0700   -4.4080    0.2100 C   0  0  0  0  0  0  0  0  0  0  0  0
    1.4190   -3.0860    0.0340 C   0  0  0  0  0  0  0  0  0  0  0  0
    2.7700   -2.7130    0.2710 N   0  0  0  0  0  0  0  0  0  0  0  0
    3.2320   -1.3630    0.1160 C   0  0  0  0  0  0  0  0  0  0  0  0
    2.3840   -0.5280   -0.2410 O   0  0  0  0  0  0  0  0  0  0  0  0
    4.5590   -0.9890    0.3480 N   0  0  0  0  0  0  0  0  0  0  0  0
    5.0800    0.3250    0.2190 C   0  0  0  0  0  0  0  0  0  0  0  0
    6.4790    0.4830    0.1800 C   0  0  0  0  0  0  0  0  0  0  0  0
    7.0640    1.7080    0.0750 C   0  0  0  0  0  0  0  0  0  0  0  0
    6.2680    2.8290    0.0040 C   0  0  0  0  0  0  0  0  0  0  0  0
    6.5590    4.0930   -0.0990 O   0  0  0  0  0  0  0  0  0  0  0  0
    5.4630    4.7920   -0.1310 N   0  0  0  0  0  0  0  0  0  0  0  0
    4.3970    3.9700   -0.0470 C   0  0  0  0  0  0  0  0  0  0  0  0
    4.9090    2.7060    0.0400 C   0  0  0  0  0  0  0  0  0  0  0  0
    4.3150    1.4540    0.1480 C   0  0  0  0  0  0  0  0  0  0  0  0
    0.4890   -2.1880   -0.3540 N   0  0  0  0  0  0  0  0  0  0  0  0
   -4.6180    0.0540    0.6650 C   0  0  0  0  0  0  0  0  0  0  0  0
   -4.9330   -1.3230    1.1110 C   0  0  0  0  0  0  0  0  0  0  0  0
   -4.7560    1.0340    1.5430 C   0  0  0  0  0  0  0  0  0  0  0  0
   -4.4900    2.4600    1.2790 C   0  0  0  0  0  0  0  0  0  0  0  0
  1  2  2  0
  2  3  1  0
  2 31  1  0
  3  4  2  0
  4  5  1  0
  4 28  1  0
  5  6  1  0
  6  7  1  0
  7  8  2  0
  7  9  1  0
  9 10  2  0
  9 27  1  0
 10 11  1  0
 11 12  2  0
 12 13  1  0
 13 14  1  0
 13 27  2  0
 14 15  1  0
 15 16  2  0
 15 17  1  0
 17 18  1  0
 18 19  2  0
 18 26  1  0
 19 20  1  0
 20 21  2  0
 21 22  1  0
 21 25  1  0
 22 23  1  0
 23 24  2  0
 24 25  1  0
 25 26  2  0
 28 29  1  0
 28 30  2  0
 30 31  1  0
M  END
