
     RDKit          3D

 29 30  0  0  0  0  0  0  0  0999 V2000
   -6.8770    0.6020   -1.7670 C   0  0  0  0  0  0  0  0  0  0  0  0
   -7.1360   -0.0770   -0.4700 C   0  0  0  0  0  0  0  0  0  0  0  0
   -8.4460   -0.4960   -0.1690 C   0  0  0  0  0  0  0  0  0  0  0  0
   -8.7320   -1.1290    0.9740 N   0  0  0  0  0  0  0  0  0  0  0  0
   -7.7370   -1.3590    1.8380 C   0  0  0  0  0  0  0  0  0  0  0  0
   -8.0650   -2.0260    3.0320 O   0  0  0  0  0  0  0  0  0  0  0  0
   -6.4460   -0.9880    1.6280 C   0  0  0  0  0  0  0  0  0  0  0  0
   -6.1270   -0.3170    0.4220 C   0  0  0  0  0  0  0  0  0  0  0  0
   -4.7500    0.0950    0.2210 C   0  0  0  0  0  0  0  0  0  0  0  0
   -3.8690   -0.3740    1.0600 O   0  0  0  0  0  0  0  0  0  0  0  0
   -4.1730    0.9750   -0.7910 C   0  0  0  0  0  0  0  0  0  0  0  0
   -2.7480    1.0940   -0.6270 O   0  0  0  0  0  0  0  0  0  0  0  0
   -1.8740    0.0480   -0.6960 C   0  0  0  0  0  0  0  0  0  0  0  0
   -2.3020   -1.0930   -0.9150 O   0  0  0  0  0  0  0  0  0  0  0  0
   -0.4520    0.2890   -0.5110 C   0  0  0  0  0  0  0  0  0  0  0  0
    0.4250   -0.7610   -0.5810 C   0  0  0  0  0  0  0  0  0  0  0  0
    1.8060   -0.5370   -0.4030 C   0  0  0  0  0  0  0  0  0  0  0  0
    2.3140    0.7050   -0.1610 C   0  0  0  0  0  0  0  0  0  0  0  0
    3.6750    0.9940    0.0250 N   0  0  0  0  0  0  0  0  0  0  0  0
    4.7200    0.0370   -0.0130 C   0  0  0  0  0  0  0  0  0  0  0  0
    4.5400   -1.1700   -0.2160 O   0  0  0  0  0  0  0  0  0  0  0  0
    6.0910    0.4370    0.1900 N   0  0  0  0  0  0  0  0  0  0  0  0
    7.1520   -0.5120    0.1550 C   0  0  1  0  0  0  0  0  0  0  0  0
    7.2600   -1.2360   -1.1710 C   0  0  0  0  0  0  0  0  0  0  0  0
    8.4710    0.1930    0.3810 C   0  0  0  0  0  0  0  0  0  0  0  0
    7.0270   -1.5800    1.2250 C   0  0  0  0  0  0  0  0  0  0  0  0
    1.3990    1.7500   -0.0960 C   0  0  0  0  0  0  0  0  0  0  0  0
    1.8770    3.0570    0.1540 N   0  0  0  0  0  0  0  0  0  0  0  0
    0.0270    1.5550   -0.2680 C   0  0  0  0  0  0  0  0  0  0  0  0
  1  2  1  0
  2  3  2  0
  2  8  1  0
  3  4  1  0
  4  5  2  0
  5  6  1  0
  5  7  1  0
  7  8  2  0
  8  9  1  0
  9 10  2  0
  9 11  1  0
 11 12  1  0
 12 13  1  0
 13 14  2  0
 13 15  1  0
 15 16  2  0
 15 29  1  0
 16 17  1  0
 17 18  2  0
 18 19  1  0
 18 27  1  0
 19 20  1  0
 20 21  2  0
 20 22  1  0
 22 23  1  0
 23 24  1  6
 23 25  1  0
 23 26  1  0
 27 28  1  0
 27 29  2  0
M  CHG  1   4   1
M  END
