
     RDKit          3D

 31 35  0  0  0  0  0  0  0  0999 V2000
    9.4890    0.5350    0.6190 C   0  0  0  0  0  0  0  0  0  0  0  0
    8.4310   -0.1410   -0.2110 C   0  0  0  0  0  0  0  0  0  0  0  0
    8.6570   -1.1740   -1.1260 C   0  0  0  0  0  0  0  0  0  0  0  0
    7.4250   -1.5090   -1.6750 C   0  0  0  0  0  0  0  0  0  0  0  0
    6.5190   -0.6820   -1.0840 C   0  0  0  0  0  0  0  0  0  0  0  0
    5.0670   -0.6370   -1.3230 C   0  0  0  0  0  0  0  0  0  0  0  0
    4.2550   -0.4390   -0.2980 C   0  0  0  0  0  0  0  0  0  0  0  0
    4.6220   -0.2600    1.0500 O   0  0  0  0  0  0  0  0  0  0  0  0
    3.4890   -0.0830    1.8020 O   0  0  0  0  0  0  0  0  0  0  0  0
    2.3690   -0.1370    1.0060 C   0  0  0  0  0  0  0  0  0  0  0  0
    0.9930   -0.0260    1.2240 C   0  0  0  0  0  0  0  0  0  0  0  0
    0.0670   -0.1220    0.2080 C   0  0  0  0  0  0  0  0  0  0  0  0
   -1.3710   -0.0090    0.4490 C   0  0  0  0  0  0  0  0  0  0  0  0
   -1.8990    0.1610    1.6750 N   0  0  0  0  0  0  0  0  0  0  0  0
   -3.2220    0.2700    1.8590 C   0  0  0  0  0  0  0  0  0  0  0  0
   -3.8600    0.4550    3.1900 C   0  0  0  0  0  0  0  0  0  0  0  0
   -3.9840    1.7880    3.5570 O   0  0  0  0  0  0  0  0  0  0  0  0
   -4.0210    0.2060    0.7830 N   0  0  0  0  0  0  0  0  0  0  0  0
   -3.5490    0.0380   -0.4600 C   0  0  0  0  0  0  0  0  0  0  0  0
   -4.3740   -0.0070   -1.4450 N   0  0  0  0  0  0  0  0  0  0  0  0
   -5.7780    0.1130   -1.2780 C   0  0  0  0  0  0  0  0  0  0  0  0
   -6.3430    1.3570   -1.3600 C   0  0  0  0  0  0  0  0  0  0  0  0
   -7.7070    1.5740   -1.2060 C   0  0  0  0  0  0  0  0  0  0  0  0
   -8.5420    0.5000   -0.9590 C   0  0  0  0  0  0  0  0  0  0  0  0
   -7.9550   -0.7700   -0.8760 C   0  0  0  0  0  0  0  0  0  0  0  0
   -6.6050   -0.9580   -1.0320 C   0  0  0  0  0  0  0  0  0  0  0  0
   -2.2220   -0.0660   -0.5960 N   0  0  0  0  0  0  0  0  0  0  0  0
    0.5180   -0.3350   -1.0630 C   0  0  0  0  0  0  0  0  0  0  0  0
    1.8750   -0.4520   -1.3180 C   0  0  0  0  0  0  0  0  0  0  0  0
    2.8020   -0.3530   -0.2840 C   0  0  0  0  0  0  0  0  0  0  0  0
    7.1490    0.0800   -0.2550 O   0  0  0  0  0  0  0  0  0  0  0  0
  1  2  1  0
  2  3  2  0
  2 31  1  0
  3  4  1  0
  4  5  2  0
  5  6  1  0
  5 31  1  0
  6  7  2  3
  7  8  1  0
  7 30  1  0
  8  9  1  0
  9 10  1  0
 10 11  2  0
 10 30  1  0
 11 12  1  0
 12 13  1  0
 12 28  2  0
 13 14  1  0
 13 27  2  0
 14 15  2  0
 15 16  1  0
 15 18  1  0
 16 17  1  0
 18 19  1  0
 19 20  2  3
 19 27  1  0
 20 21  1  0
 21 22  2  0
 21 26  1  0
 22 23  1  0
 23 24  2  0
 24 25  1  0
 25 26  2  0
 28 29  1  0
 29 30  2  0
M  END
