
     RDKit          3D

 31 34  0  0  0  0  0  0  0  0999 V2000
    1.0730    3.4030    4.8740 C   0  0  0  0  0  0  0  0  0  0  0  0
    0.7260    2.6270    3.8750 C   0  0  0  0  0  0  0  0  0  0  0  0
    0.2210    3.2800    2.7360 O   0  0  0  0  0  0  0  0  0  0  0  0
   -0.2760    2.6290    1.6420 C   0  0  0  0  0  0  0  0  0  0  0  0
   -0.1000    1.1960    1.6240 C   0  0  0  0  0  0  0  0  0  0  0  0
    0.3840    0.4510    2.6450 C   0  0  0  0  0  0  0  0  0  0  0  0
    0.4750   -0.9320    2.4150 N   0  0  0  0  0  0  0  0  0  0  0  0
    1.5150   -1.4700    1.5390 C   0  0  0  0  0  0  0  0  0  0  0  0
    1.4850   -0.9640    0.1910 N   0  0  0  0  0  0  0  0  0  0  0  0
    2.2080    0.1160   -0.1990 C   0  0  0  0  0  0  0  0  0  0  0  0
    2.9390    0.6990    0.6690 O   0  0  0  0  0  0  0  0  0  0  0  0
    2.1480    0.5470   -1.4620 N   0  0  0  0  0  0  0  0  0  0  0  0
    1.3800   -0.0520   -2.4090 C   0  0  0  0  0  0  0  0  0  0  0  0
    1.3410    0.4160   -3.7010 C   0  0  0  0  0  0  0  0  0  0  0  0
    0.5590   -0.2120   -4.6290 C   0  0  0  0  0  0  0  0  0  0  0  0
   -0.1850   -1.3010   -4.2830 C   0  0  0  0  0  0  0  0  0  0  0  0
   -0.9990   -1.9900   -5.1650 O   0  0  0  0  0  0  0  0  0  0  0  0
   -2.3500   -1.6590   -5.3630 C   0  0  0  0  0  0  0  0  0  0  0  0
   -2.6900   -0.6620   -6.2590 C   0  0  0  0  0  0  0  0  0  0  0  0
   -3.9960   -0.2800   -6.5070 C   0  0  0  0  0  0  0  0  0  0  0  0
   -4.9770   -0.9510   -5.8070 C   0  0  0  0  0  0  0  0  0  0  0  0
   -4.6420   -1.9450   -4.9130 C   0  0  0  0  0  0  0  0  0  0  0  0
   -3.3410   -2.2860   -4.7030 N   0  0  0  0  0  0  0  0  0  0  0  0
   -0.1310   -1.7550   -2.9800 C   0  0  0  0  0  0  0  0  0  0  0  0
    0.6450   -1.1460   -2.0240 C   0  0  0  0  0  0  0  0  0  0  0  0
    0.7120   -1.5800   -0.7330 C   0  0  0  0  0  0  0  0  0  0  0  0
    0.0320   -2.5860   -0.3940 O   0  0  0  0  0  0  0  0  0  0  0  0
    0.8220    1.1630    3.8510 C   0  0  0  0  0  0  0  0  0  0  0  0
    1.2790    0.4850    4.8840 C   0  0  0  0  0  0  0  0  0  0  0  0
    1.7700    1.0000    6.1880 C   0  0  0  0  0  0  0  0  0  0  0  0
    1.2500   -1.0230    4.8680 C   0  0  0  0  0  0  0  0  0  0  0  0
  1  2  2  0
  2  3  1  0
  2 28  1  0
  3  4  1  0
  4  5  1  0
  5  6  2  0
  6  7  1  0
  6 28  1  0
  7  8  1  0
  8  9  1  0
  9 10  1  0
  9 26  1  0
 10 11  2  0
 10 12  1  0
 12 13  1  0
 13 14  2  0
 13 25  1  0
 14 15  1  0
 15 16  2  0
 16 17  1  0
 16 24  1  0
 17 18  1  0
 18 19  2  0
 18 23  1  0
 19 20  1  0
 20 21  2  0
 21 22  1  0
 22 23  2  0
 24 25  2  0
 25 26  1  0
 26 27  2  0
 28 29  2  3
 29 30  1  0
 29 31  1  0
M  END
