
     RDKit          3D

 26 27  0  0  0  0  0  0  0  0999 V2000
   -5.8500    1.6790   -0.9270 C   0  0  0  0  0  0  0  0  0  0  0  0
   -5.3140    0.6880   -1.9790 C   0  0  0  0  0  0  0  0  0  0  0  0
   -4.8370   -0.3960   -1.2920 O   0  0  0  0  0  0  0  0  0  0  0  0
   -3.5300   -0.2670   -0.2840 P   0  0  0  0  0  0  0  0  0  0  0  0
   -2.0200    0.6090   -0.6800 C   0  0  0  0  0  0  0  0  0  0  0  0
   -0.9370   -0.4010   -0.7110 N   0  0  0  0  0  0  0  0  0  0  0  0
   -1.0000   -1.3610   -1.8120 C   0  0  0  0  0  0  0  0  0  0  0  0
   -0.1040   -0.5860    0.3570 C   0  0  0  0  0  0  0  0  0  0  0  0
   -0.5490   -0.9640    1.5170 O   0  0  0  0  0  0  0  0  0  0  0  0
    1.3170   -0.2740    0.2020 C   0  0  2  0  0  0  0  0  0  0  0  0
    1.5160    0.8660   -0.8020 C   0  0  0  0  0  0  0  0  0  0  0  0
    2.5410    0.4550   -1.9310 C   0  0  0  0  0  0  0  0  0  0  0  0
    3.7620    0.1620   -1.0760 C   0  0  0  0  0  0  0  0  0  0  0  0
    4.8530    0.9780   -1.0770 C   0  0  0  0  0  0  0  0  0  0  0  0
    5.7560    0.8620    0.0160 C   0  0  0  0  0  0  0  0  0  0  0  0
    5.5280   -0.0560    1.0690 C   0  0  0  0  0  0  0  0  0  0  0  0
    6.5120    0.0980    2.5500 S   0  0  2  0  0  0  0  0  0  0  0  0
    5.9960   -0.9710    3.4830 O   0  0  0  0  0  0  0  0  0  0  0  0
    6.3460    1.4490    3.1340 O   0  0  0  0  0  0  0  0  0  0  0  0
    8.0720   -0.1630    2.1050 O   0  0  0  0  0  0  0  0  0  0  0  0
    4.4170   -0.8980    1.0120 C   0  0  0  0  0  0  0  0  0  0  0  0
    3.5970   -0.7320   -0.0630 C   0  0  0  0  0  0  0  0  0  0  0  0
    2.2360   -1.4630   -0.1500 C   0  0  0  0  0  0  0  0  0  0  0  0
   -3.6460   -0.8830    1.2870 O   0  0  0  0  0  0  0  0  0  0  0  0
   -5.0060   -1.3020    1.4440 C   0  0  0  0  0  0  0  0  0  0  0  0
   -5.3030   -0.3660    2.6750 C   0  0  0  0  0  0  0  0  0  0  0  0
  1  2  1  0
  2  3  1  0
  3  4  1  0
  4  5  1  0
  4 24  1  0
  5  6  1  0
  6  7  1  0
  6  8  1  0
  8  9  2  0
 10  8  1  6
 10 11  1  0
 10 23  1  0
 11 12  1  0
 12 13  1  0
 13 14  2  0
 13 22  1  0
 14 15  1  0
 15 16  2  0
 16 17  1  0
 16 21  1  0
 17 18  2  0
 17 19  2  0
 17 20  1  6
 21 22  2  0
 22 23  1  0
 24 25  1  0
 25 26  1  0
M  END
