
     RDKit          3D

 26 27  0  0  0  0  0  0  0  0999 V2000
    5.1150   -1.7710   -2.0160 C   0  0  0  0  0  0  0  0  0  0  0  0
    5.4970   -1.1850   -0.8790 C   0  0  0  0  0  0  0  0  0  0  0  0
    6.8900   -1.2340   -0.5570 C   0  0  0  0  0  0  0  0  0  0  0  0
    7.4240   -0.7120    0.5130 C   0  0  0  0  0  0  0  0  0  0  0  0
    8.8170   -0.8150    0.7400 O   0  0  0  0  0  0  0  0  0  0  0  0
    4.5080   -0.5540   -0.0620 C   0  0  0  0  0  0  0  0  0  0  0  0
    4.7040    0.0280    1.0170 O   0  0  0  0  0  0  0  0  0  0  0  0
    3.1780   -0.5850   -0.5040 O   0  0  0  0  0  0  0  0  0  0  0  0
    2.1380    0.0160    0.2450 C   0  0  0  0  0  0  0  0  0  0  0  0
    0.8750   -0.2060   -0.5110 C   0  0  0  0  0  0  0  0  0  0  0  0
    0.7200   -1.0480   -2.0330 S   0  0  0  0  0  0  0  0  0  0  0  0
   -1.0600   -0.8460   -2.1990 C   0  0  0  0  0  0  0  0  0  0  0  0
   -1.3720   -0.1550   -1.0800 C   0  0  0  0  0  0  0  0  0  0  0  0
   -2.8190    0.2140   -0.8790 C   0  0  0  0  0  0  0  0  0  0  0  0
   -3.1640    1.2570   -1.4430 O   0  0  0  0  0  0  0  0  0  0  0  0
   -3.6380   -0.6170   -0.0990 N   0  0  0  0  0  0  0  0  0  0  0  0
   -5.0300   -0.4300    0.2020 C   0  0  0  0  0  0  0  0  0  0  0  0
   -5.5700   -1.8470    0.3440 C   0  0  0  0  0  0  0  0  0  0  0  0
   -4.3760   -2.7660    0.1950 C   0  0  0  0  0  0  0  0  0  0  0  0
   -3.2250   -1.8290    0.5530 C   0  0  0  0  0  0  0  0  0  0  0  0
   -0.4110    0.1810   -0.2100 C   0  0  0  0  0  0  0  0  0  0  0  0
   -0.5760    0.8970    1.0100 O   0  0  0  0  0  0  0  0  0  0  0  0
   -0.4580    2.2420    1.2110 C   0  0  0  0  0  0  0  0  0  0  0  0
   -1.3750    3.1850    0.5300 C   0  0  1  0  0  0  0  0  0  0  0  0
   -2.8010    3.0950    1.0650 C   0  0  0  0  0  0  0  0  0  0  0  0
   -0.9230    4.4890    0.9090 O   0  0  0  0  0  0  0  0  0  0  0  0
  1  2  2  0
  2  3  1  0
  2  6  1  0
  3  4  2  3
  4  5  1  0
  6  7  2  0
  6  8  1  0
  8  9  1  0
  9 10  1  0
 10 11  1  0
 10 21  2  0
 11 12  1  0
 12 13  2  0
 13 14  1  0
 13 21  1  0
 14 15  2  0
 14 16  1  0
 16 17  1  0
 16 20  1  0
 17 18  1  0
 18 19  1  0
 19 20  1  0
 21 22  1  0
 22 23  1  0
 23 24  1  0
 24 25  1  1
 24 26  1  0
M  END
