
     RDKit          3D

 22 25  0  0  0  0  0  0  0  0999 V2000
    5.3060    2.0970   -1.0760 N   0  0  0  0  0  0  0  0  0  0  0  0
    4.4620    1.2250   -0.3290 C   0  0  0  0  0  0  0  0  0  0  0  0
    4.7550    0.8700    0.9410 N   0  0  0  0  0  0  0  0  0  0  0  0
    3.9580    0.0500    1.6410 C   0  0  0  0  0  0  0  0  0  0  0  0
    2.8300   -0.4570    1.1120 N   0  0  0  0  0  0  0  0  0  0  0  0
    2.4720   -0.1540   -0.1330 C   0  0  0  0  0  0  0  0  0  0  0  0
    3.2940    0.6900   -0.8520 C   0  0  0  0  0  0  0  0  0  0  0  0
    2.7220    0.8320   -2.0470 N   0  0  0  0  0  0  0  0  0  0  0  0
    1.5900    0.1040   -2.0690 C   0  0  0  0  0  0  0  0  0  0  0  0
    1.4070   -0.5220   -0.8900 N   0  0  0  0  0  0  0  0  0  0  0  0
    0.3080   -1.3920   -0.5320 C   0  0  2  0  0  0  0  0  0  0  0  0
   -0.7170   -1.1870   -1.4520 O   0  0  0  0  0  0  0  0  0  0  0  0
   -1.8950   -1.1610   -0.7620 C   0  0  2  0  0  0  0  0  0  0  0  0
   -3.0360   -0.4650   -1.4050 C   0  0  0  0  0  0  0  0  0  0  0  0
   -4.0110   -0.2870   -0.3920 O   0  0  0  0  0  0  0  0  0  0  0  0
   -3.7550    0.5980    0.8250 P   0  0  0  0  0  0  0  0  0  0  0  0
   -5.2140    0.4960    1.4870 O   0  0  0  0  0  0  0  0  0  0  0  0
   -3.4220    1.8470   -0.2730 O   0  0  0  0  0  0  0  0  0  0  0  0
   -2.5160   -0.3580    1.3320 O   0  0  0  0  0  0  0  0  0  0  0  0
   -1.4960   -0.2800    0.4360 C   0  0  1  0  0  0  0  0  0  0  0  0
   -0.2470   -0.9620    0.8360 C   0  0  1  0  0  0  0  0  0  0  0  0
   -0.5840   -2.1330    1.5420 O   0  0  0  0  0  0  0  0  0  0  0  0
  1  2  1  0
  2  3  2  0
  2  7  1  0
  3  4  1  0
  4  5  2  0
  5  6  1  0
  6  7  2  0
  6 10  1  0
  7  8  1  0
  8  9  2  0
  9 10  1  0
 11 10  1  6
 11 12  1  0
 11 21  1  0
 12 13  1  0
 13 14  1  6
 13 20  1  0
 14 15  1  0
 15 16  1  0
 16 17  1  0
 16 18  1  0
 16 19  1  0
 20 19  1  1
 20 21  1  0
 21 22  1  1
M  END
