
     RDKit          3D

 26 27  0  0  0  0  0  0  0  0999 V2000
    5.4640   -2.8340    1.8710 C   0  0  0  0  0  0  0  0  0  0  0  0
    6.4110   -1.7960    1.2880 C   0  0  0  0  0  0  0  0  0  0  0  0
    5.6560   -1.1130    0.1370 C   0  0  0  0  0  0  0  0  0  0  0  0
    4.5210   -0.5730    0.8020 O   0  0  0  0  0  0  0  0  0  0  0  0
    3.6350    0.3610   -0.2700 P   0  0  0  0  0  0  0  0  0  0  0  0
    4.6470    1.7280   -0.8920 O   0  0  0  0  0  0  0  0  0  0  0  0
    4.7800    2.5540    0.2440 C   0  0  0  0  0  0  0  0  0  0  0  0
    5.4700    3.8280   -0.0810 C   0  0  0  0  0  0  0  0  0  0  0  0
    2.0980    0.8100   -0.1830 O   0  0  0  0  0  0  0  0  0  0  0  0
    1.0220    0.0210   -0.0110 C   0  0  0  0  0  0  0  0  0  0  0  0
    0.5120   -0.2520   -1.4470 C   0  0  0  0  0  0  0  0  0  0  0  0
   -0.7240   -0.9020   -1.4580 O   0  0  0  0  0  0  0  0  0  0  0  0
   -1.8220    0.0720   -1.2970 C   0  0  0  0  0  0  0  0  0  0  0  0
   -1.4530    1.5640   -0.8580 S   0  0  0  0  0  0  0  0  0  0  0  0
   -3.1060   -0.3670   -1.5000 N   0  0  0  0  0  0  0  0  0  0  0  0
   -3.5150   -1.7280   -1.6590 C   0  0  0  0  0  0  0  0  0  0  0  0
   -4.2670   -2.0070   -0.3620 C   0  0  0  0  0  0  0  0  0  0  0  0
   -5.0150   -0.7950    0.0890 C   0  0  0  0  0  0  0  0  0  0  0  0
   -5.7980   -0.8790    1.2480 C   0  0  0  0  0  0  0  0  0  0  0  0
   -5.8040   -2.1010    1.9010 O   0  0  0  0  0  0  0  0  0  0  0  0
   -6.5410    0.1510    1.7600 C   0  0  0  0  0  0  0  0  0  0  0  0
   -6.5120    1.3830    1.0780 C   0  0  0  0  0  0  0  0  0  0  0  0
   -5.7510    1.5070   -0.0690 C   0  0  0  0  0  0  0  0  0  0  0  0
   -5.7270    2.7410   -0.7440 O   0  0  0  0  0  0  0  0  0  0  0  0
   -5.0270    0.4590   -0.5570 C   0  0  0  0  0  0  0  0  0  0  0  0
   -4.1680    0.6270   -1.7580 C   0  0  0  0  0  0  0  0  0  0  0  0
  1  2  1  0
  2  3  1  0
  3  4  1  0
  4  5  1  0
  5  6  1  0
  5  9  1  0
  6  7  1  0
  7  8  1  0
  9 10  1  0
 10 11  1  0
 11 12  1  0
 12 13  1  0
 13 14  2  0
 13 15  1  0
 15 16  1  0
 15 26  1  0
 16 17  1  0
 17 18  1  0
 18 19  2  0
 18 25  1  0
 19 20  1  0
 19 21  1  0
 21 22  2  0
 22 23  1  0
 23 24  1  0
 23 25  2  0
 25 26  1  0
M  END
