
     RDKit          3D

 12 12  0  0  0  0  0  0  0  0999 V2000
   -1.8850   -1.2000   -0.1130 C   0  0  0  0  0  0  0  0  0  0  0  0
   -1.7250   -0.2000   -1.0610 O   0  0  0  0  0  0  0  0  0  0  0  0
   -0.3910    0.1440   -1.2530 C   0  0  0  0  0  0  0  0  0  0  0  0
    0.2660    0.6510   -0.0190 C   0  0  0  0  0  0  0  0  0  0  0  0
    1.3020    0.1340    0.5860 C   0  0  0  0  0  0  0  0  0  0  0  0
    1.9220    0.9610    2.0850 Cl  0  0  0  0  0  0  0  0  0  0  0  0
    2.0820   -1.0830    0.2910 C   0  0  0  0  0  0  0  0  0  0  0  0
    1.5890   -2.0660   -1.0420 Cl  0  0  0  0  0  0  0  0  0  0  0  0
   -0.3730    1.9110    0.5440 C   0  0  1  0  0  0  0  0  0  0  0  0
    0.2550    3.2730   -0.4050 Cl  0  0  0  0  0  0  0  0  0  0  0  0
   -2.1560    1.7840    0.2710 Cl  0  0  0  0  0  0  0  0  0  0  0  0
   -0.0910    2.1100    2.2570 Cl  0  0  0  0  0  0  0  0  0  0  0  0
  1  2  1  0
  2  3  1  0
  3  4  1  0
  4  5  2  0
  4  9  1  0
  5  6  1  0
  5  7  1  0
  7  8  1  0
  9 10  1  6
  9 11  1  0
  9 12  1  0
 12  6  1  0
M  END
