
     RDKit          3D

 12 11  0  0  0  0  0  0  0  0999 V2000
   -2.7280    0.8270    0.5160 C   0  0  0  0  0  0  0  0  0  0  0  0
   -1.2800    0.5970    0.4880 C   0  0  0  0  0  0  0  0  0  0  0  0
   -0.3790    1.4550    1.7780 Cl  0  0  0  0  0  0  0  0  0  0  0  0
   -0.5810   -0.1370   -0.3370 C   0  0  0  0  0  0  0  0  0  0  0  0
    0.7950   -0.2780   -0.2620 O   0  0  0  0  0  0  0  0  0  0  0  0
    1.7240    0.2290    0.6080 C   0  0  0  0  0  0  0  0  0  0  0  0
    3.1380   -0.2400    0.2470 C   0  0  0  0  0  0  0  0  0  0  0  0
    3.2410   -2.0120    0.3050 Cl  0  0  0  0  0  0  0  0  0  0  0  0
   -1.1770   -0.9190   -1.4690 C   0  0  1  0  0  0  0  0  0  0  0  0
   -2.8910   -0.7860   -1.6090 Cl  0  0  0  0  0  0  0  0  0  0  0  0
   -0.3590   -0.4020   -2.9940 Cl  0  0  0  0  0  0  0  0  0  0  0  0
   -0.6390   -2.6270   -1.2410 Cl  0  0  0  0  0  0  0  0  0  0  0  0
  1  2  1  0
  2  3  1  0
  2  4  2  3
  4  5  1  0
  4  9  1  0
  5  6  1  0
  6  7  1  0
  7  8  1  0
  9 10  1  6
  9 11  1  0
  9 12  1  0
M  END
