
     RDKit          3D

 11 11  0  0  0  0  0  0  0  0999 V2000
   -1.7360   -1.2520    0.5500 C   0  0  0  0  0  0  0  0  0  0  0  0
   -0.4370   -0.7810    0.7750 O   0  0  0  0  0  0  0  0  0  0  0  0
    0.0630    0.4240    0.3080 C   0  0  0  0  0  0  0  0  0  0  0  0
    1.3130    0.4400   -0.0510 C   0  0  0  0  0  0  0  0  0  0  0  0
    2.1280    1.8850   -0.6740 Cl  0  0  0  0  0  0  0  0  0  0  0  0
    2.1930   -0.7680    0.0250 C   0  0  0  0  0  0  0  0  0  0  0  0
    1.3360   -2.1770    0.6500 Cl  0  0  0  0  0  0  0  0  0  0  0  0
   -0.7620    1.6410    0.2140 C   0  0  1  0  0  0  0  0  0  0  0  0
   -2.0500    1.4460   -0.9960 Cl  0  0  0  0  0  0  0  0  0  0  0  0
   -1.6260    1.8850    1.7870 Cl  0  0  0  0  0  0  0  0  0  0  0  0
    0.1680    3.1130   -0.0600 Cl  0  0  0  0  0  0  0  0  0  0  0  0
  1  2  1  0
  2  3  1  0
  3  4  2  0
  3  8  1  0
  4  5  1  0
  4  6  1  0
  6  7  1  0
  8  9  1  6
  8 10  1  0
  8 11  1  0
 11  5  1  0
M  END
