
     RDKit          3D

 12 11  0  0  0  0  0  0  0  0999 V2000
    2.8790   -0.7300    0.8620 O   0  0  0  0  0  0  0  0  0  0  0  0
    2.3380    0.5300    0.6880 C   0  0  0  0  0  0  0  0  0  0  0  0
    1.3080    0.5860   -0.4180 C   0  0  0  0  0  0  0  0  0  0  0  0
    0.1650   -0.3130   -0.1780 C   0  0  0  0  0  0  0  0  0  0  0  0
    0.4250   -2.0570   -0.0120 Cl  0  0  0  0  0  0  0  0  0  0  0  0
   -1.0800    0.1200   -0.0770 C   0  0  0  0  0  0  0  0  0  0  0  0
   -1.3120    1.8680   -0.2470 Cl  0  0  0  0  0  0  0  0  0  0  0  0
   -2.2130   -0.7540    0.1590 C   0  0  0  0  0  0  0  0  0  0  0  0
   -2.0140   -2.4720    0.3290 Cl  0  0  0  0  0  0  0  0  0  0  0  0
   -3.4190   -0.2480    0.2480 C   0  0  0  0  0  0  0  0  0  0  0  0
   -4.8280   -1.2830    0.5350 Cl  0  0  0  0  0  0  0  0  0  0  0  0
   -3.7610    1.4650    0.0950 Cl  0  0  0  0  0  0  0  0  0  0  0  0
  1  2  1  0
  2  3  1  0
  3  4  1  0
  4  5  1  0
  4  6  2  3
  6  7  1  0
  6  8  1  0
  8  9  1  0
  8 10  2  3
 10 11  1  0
 10 12  1  0
M  END
