
     RDKit          3D

 12 12  0  0  0  0  0  0  0  0999 V2000
   -4.1300   -0.2350    0.0860 Cl  0  0  0  0  0  0  0  0  0  0  0  0
   -2.4520    0.1380   -0.2550 C   0  0  0  0  0  0  0  0  0  0  0  0
   -2.1030    1.2290   -1.5950 Cl  0  0  0  0  0  0  0  0  0  0  0  0
   -1.5210   -0.4080    0.4700 C   0  0  0  0  0  0  0  0  0  0  0  0
   -1.9280   -1.4940    1.7660 Cl  0  0  0  0  0  0  0  0  0  0  0  0
   -0.1310   -0.0840    0.2230 C   0  0  0  0  0  0  0  0  0  0  0  0
    0.9320   -0.9550    0.0830 C   0  0  0  0  0  0  0  0  0  0  0  0
    2.0590   -0.2140   -0.1350 C   0  0  0  0  0  0  0  0  0  0  0  0
    3.7070   -0.7590   -0.3830 Cl  0  0  0  0  0  0  0  0  0  0  0  0
    1.6620    1.1240   -0.1260 C   0  0  0  0  0  0  0  0  0  0  0  0
    2.6900    2.5530   -0.3590 Cl  0  0  0  0  0  0  0  0  0  0  0  0
    0.3840    1.1340    0.0850 O   0  0  0  0  0  0  0  0  0  0  0  0
  1  2  1  0
  2  3  1  0
  2  4  2  3
  4  5  1  0
  4  6  1  0
  6  7  2  0
  6 12  1  0
  7  8  1  0
  8  9  1  0
  8 10  2  0
 10 11  1  0
 10 12  1  0
M  END
