
     RDKit          3D

 11 11  0  0  0  0  0  0  0  0999 V2000
    3.5870    0.6990   -0.2960 Cl  0  0  0  0  0  0  0  0  0  0  0  0
    2.4400   -0.5790   -0.1190 O   0  0  0  0  0  0  0  0  0  0  0  0
    1.0770   -0.2940   -0.0490 C   0  0  0  0  0  0  0  0  0  0  0  0
    0.6010    1.0010   -0.1180 C   0  0  0  0  0  0  0  0  0  0  0  0
   -0.7500    1.2590   -0.0480 C   0  0  0  0  0  0  0  0  0  0  0  0
   -1.4100    2.8770   -0.1300 Cl  0  0  0  0  0  0  0  0  0  0  0  0
   -1.6110    0.1910    0.0930 C   0  0  0  0  0  0  0  0  0  0  0  0
   -3.3560    0.4660    0.1890 Cl  0  0  0  0  0  0  0  0  0  0  0  0
   -1.1250   -1.0960    0.1610 C   0  0  0  0  0  0  0  0  0  0  0  0
    0.2290   -1.3810    0.0920 C   0  0  0  0  0  0  0  0  0  0  0  0
    0.8350   -3.0250    0.1800 Cl  0  0  0  0  0  0  0  0  0  0  0  0
  1  2  1  0
  2  3  1  0
  3  4  2  0
  3 10  1  0
  4  5  1  0
  5  6  1  0
  5  7  2  0
  7  8  1  0
  7  9  1  0
  9 10  2  0
 10 11  1  0
M  END
