
     RDKit          3D

 11 10  0  0  0  0  0  0  0  0999 V2000
    2.2380   -0.3490    0.1430 C   0  0  0  0  0  0  0  0  0  0  0  0
    1.0390   -0.6660    0.8270 O   0  0  0  0  0  0  0  0  0  0  0  0
   -0.2010   -0.1010    0.2620 C   0  0  0  0  0  0  0  0  0  0  0  0
   -0.2710    1.1880    0.2870 C   0  0  0  0  0  0  0  0  0  0  0  0
   -1.1680    2.2420   -0.0930 C   0  0  0  0  0  0  0  0  0  0  0  0
   -2.6930    1.9150   -0.8360 Cl  0  0  0  0  0  0  0  0  0  0  0  0
   -1.0780   -1.1220   -0.2020 C   0  0  0  0  0  0  0  0  0  0  0  0
   -2.6250   -0.8260   -0.9260 Cl  0  0  0  0  0  0  0  0  0  0  0  0
   -0.7300   -2.4120   -0.0940 C   0  0  0  0  0  0  0  0  0  0  0  0
    0.7730   -2.8930    0.6010 Cl  0  0  0  0  0  0  0  0  0  0  0  0
   -1.7970   -3.7040   -0.6600 Cl  0  0  0  0  0  0  0  0  0  0  0  0
  1  2  1  0
  2  3  1  0
  3  4  2  3
  3  7  1  0
  4  5  1  0
  5  6  1  0
  7  8  1  0
  7  9  2  3
  9 10  1  0
  9 11  1  0
M  END
