
     RDKit          3D

 12 11  0  0  0  0  0  0  0  0999 V2000
    0.5140   -3.4950   -0.8120 Cl  0  0  0  0  0  0  0  0  0  0  0  0
   -0.2690   -1.9640   -0.7060 C   0  0  0  0  0  0  0  0  0  0  0  0
    0.4070   -0.8370   -0.6350 C   0  0  0  0  0  0  0  0  0  0  0  0
   -0.2700    0.4050   -0.5490 O   0  0  0  0  0  0  0  0  0  0  0  0
   -1.1660    0.5120    0.5470 C   0  0  0  0  0  0  0  0  0  0  0  0
   -1.8570    1.8330    0.6000 C   0  0  0  0  0  0  0  0  0  0  0  0
   -2.9420    1.8300    2.0110 Cl  0  0  0  0  0  0  0  0  0  0  0  0
    1.8580   -0.8770   -0.6450 C   0  0  0  0  0  0  0  0  0  0  0  0
    2.6950   -2.3980   -0.7510 Cl  0  0  0  0  0  0  0  0  0  0  0  0
    2.5770    0.2220   -0.5760 C   0  0  0  0  0  0  0  0  0  0  0  0
    1.7670    1.7600   -0.4700 Cl  0  0  0  0  0  0  0  0  0  0  0  0
    4.3160    0.1870   -0.5880 Cl  0  0  0  0  0  0  0  0  0  0  0  0
  1  2  1  0
  2  3  2  3
  3  4  1  0
  3  8  1  0
  4  5  1  0
  5  6  1  0
  6  7  1  0
  8  9  1  0
  8 10  2  3
 10 11  1  0
 10 12  1  0
M  END
