
     RDKit          3D

 12 12  0  0  0  0  0  0  0  0999 V2000
   -2.0410    1.4620    0.1330 O   0  0  0  0  0  0  0  0  0  0  0  0
   -2.0850    0.1880    0.7010 C   0  0  0  0  0  0  0  0  0  0  0  0
   -1.4880   -0.8860   -0.1090 C   0  0  0  0  0  0  0  0  0  0  0  0
   -0.0860   -0.8640   -0.4550 C   0  0  0  0  0  0  0  0  0  0  0  0
    0.4000   -2.1420   -1.6160 Cl  0  0  0  0  0  0  0  0  0  0  0  0
    0.8160   -0.0590   -0.0380 C   0  0  0  0  0  0  0  0  0  0  0  0
    0.4530    1.2200    1.0960 Cl  0  0  0  0  0  0  0  0  0  0  0  0
    2.2060   -0.1360   -0.4650 C   0  0  0  0  0  0  0  0  0  0  0  0
    2.6380   -1.3960   -1.6030 Cl  0  0  0  0  0  0  0  0  0  0  0  0
    3.1320    0.7160   -0.0170 C   0  0  0  0  0  0  0  0  0  0  0  0
    4.7620    0.5160   -0.6060 Cl  0  0  0  0  0  0  0  0  0  0  0  0
    2.8160    2.0000    1.1100 Cl  0  0  0  0  0  0  0  0  0  0  0  0
  1  2  1  0
  2  3  1  0
  3  4  1  0
  4  5  1  0
  4  6  2  0
  6  7  1  0
  6  8  1  0
  8  9  1  0
  8 10  2  3
 10 11  1  0
 10 12  1  0
  9  5  1  0
M  END
