
     RDKit          3D

 12 12  0  0  0  0  0  0  0  0999 V2000
   -4.1350    0.4220   -0.2680 Cl  0  0  0  0  0  0  0  0  0  0  0  0
   -2.3960    0.6400   -0.0240 C   0  0  0  0  0  0  0  0  0  0  0  0
   -1.8320    2.1040    0.6920 Cl  0  0  0  0  0  0  0  0  0  0  0  0
   -1.5970   -0.3240   -0.3900 C   0  0  0  0  0  0  0  0  0  0  0  0
   -2.1220   -1.8350   -1.1160 Cl  0  0  0  0  0  0  0  0  0  0  0  0
   -0.1500   -0.0870   -0.1850 C   0  0  0  0  0  0  0  0  0  0  0  0
    0.7410   -1.0360    0.2510 C   0  0  0  0  0  0  0  0  0  0  0  0
    2.0090   -0.4670    0.3280 C   0  0  0  0  0  0  0  0  0  0  0  0
    3.5080   -1.2250    0.8240 Cl  0  0  0  0  0  0  0  0  0  0  0  0
    1.7910    0.8510   -0.0840 C   0  0  0  0  0  0  0  0  0  0  0  0
    3.1030    2.0160   -0.1670 Cl  0  0  0  0  0  0  0  0  0  0  0  0
    0.5250    1.0140   -0.3690 O   0  0  0  0  0  0  0  0  0  0  0  0
  1  2  1  0
  2  3  1  0
  2  4  2  3
  4  5  1  0
  4  6  1  0
  6  7  2  0
  6 12  1  0
  7  8  1  0
  8  9  1  0
  8 10  2  0
 10 11  1  0
 10 12  1  0
M  END
