
     RDKit          3D

 12 13  0  0  0  0  0  0  0  0999 V2000
    2.3370   -2.4960    1.3040 Cl  0  0  0  0  0  0  0  0  0  0  0  0
    1.3260   -1.6610    0.1640 C   0  0  0  0  0  0  0  0  0  0  0  0
    0.3710   -2.5660   -0.9850 Cl  0  0  0  0  0  0  0  0  0  0  0  0
    1.2630   -0.3600    0.1390 C   0  0  0  0  0  0  0  0  0  0  0  0
    0.4450    0.3320   -0.7820 O   0  0  0  0  0  0  0  0  0  0  0  0
   -0.9000    0.0070   -0.9730 C   0  0  1  0  0  0  0  0  0  0  0  0
   -1.9280    0.0320    0.0610 C   0  0  0  0  0  0  0  0  0  0  0  0
   -1.9060    1.1120   -0.9880 C   0  0  0  0  0  0  0  0  0  0  0  0
    2.0190    0.5390    1.0470 C   0  0  1  0  0  0  0  0  0  0  0  0
    3.1180    1.6020    0.0910 Cl  0  0  0  0  0  0  0  0  0  0  0  0
    0.8370    1.6130    1.8320 Cl  0  0  0  0  0  0  0  0  0  0  0  0
    2.9860   -0.3470    2.2140 Cl  0  0  0  0  0  0  0  0  0  0  0  0
  1  2  1  0
  2  3  1  0
  2  4  2  0
  4  5  1  0
  4  9  1  0
  6  5  1  1
  6  7  1  0
  6  8  1  0
  7  8  1  0
  9 10  1  6
  9 11  1  0
  9 12  1  0
 12  1  1  0
M  END
