
     RDKit          3D

 11 10  0  0  0  0  0  0  0  0999 V2000
    2.3120   -0.4240   -0.1910 C   0  0  0  0  0  0  0  0  0  0  0  0
    1.4140    0.1860    0.7000 O   0  0  0  0  0  0  0  0  0  0  0  0
    0.0350    0.3690    0.3120 C   0  0  0  0  0  0  0  0  0  0  0  0
   -0.7490   -0.6550    0.4550 C   0  0  0  0  0  0  0  0  0  0  0  0
    0.0020   -2.1540    1.1210 Cl  0  0  0  0  0  0  0  0  0  0  0  0
   -2.1620   -0.8140    0.1470 C   0  0  0  0  0  0  0  0  0  0  0  0
   -2.4020   -2.1510   -1.0540 Cl  0  0  0  0  0  0  0  0  0  0  0  0
   -0.1990    1.7180   -0.1780 C   0  0  1  0  0  0  0  0  0  0  0  0
    0.4890    2.8110    1.1000 Cl  0  0  0  0  0  0  0  0  0  0  0  0
    0.8350    1.9720   -1.6150 Cl  0  0  0  0  0  0  0  0  0  0  0  0
   -1.8380    2.2360   -0.4390 Cl  0  0  0  0  0  0  0  0  0  0  0  0
  1  2  1  0
  2  3  1  0
  3  4  2  3
  3  8  1  0
  4  5  1  0
  4  6  1  0
  6  7  1  0
  8  9  1  1
  8 10  1  0
  8 11  1  0
M  END
