
     RDKit          3D

 11 11  0  0  0  0  0  0  0  0999 V2000
   -1.3440   -1.2890    0.9600 C   0  0  0  0  0  0  0  0  0  0  0  0
   -0.4410   -0.2100    1.1200 O   0  0  0  0  0  0  0  0  0  0  0  0
   -0.0760    0.6030    0.0320 C   0  0  0  0  0  0  0  0  0  0  0  0
    1.0100    0.2790   -0.6130 C   0  0  0  0  0  0  0  0  0  0  0  0
    1.6630    1.1280   -1.9860 Cl  0  0  0  0  0  0  0  0  0  0  0  0
    1.8320   -0.9280   -0.1890 C   0  0  0  0  0  0  0  0  0  0  0  0
    3.4580   -0.4010    0.2410 Cl  0  0  0  0  0  0  0  0  0  0  0  0
   -0.8870    1.7640   -0.3580 C   0  0  2  0  0  0  0  0  0  0  0  0
   -2.5360    1.2830   -0.8330 Cl  0  0  0  0  0  0  0  0  0  0  0  0
   -0.1600    2.6410   -1.6870 Cl  0  0  0  0  0  0  0  0  0  0  0  0
   -0.9260    2.8500    1.0560 Cl  0  0  0  0  0  0  0  0  0  0  0  0
  1  2  1  0
  2  3  1  0
  3  4  2  0
  3  8  1  0
  4  5  1  0
  4  6  1  0
  6  7  1  0
  8  9  1  6
  8 10  1  0
  8 11  1  0
 10  5  1  0
M  END
