
     RDKit          3D

 11 12  0  0  0  0  0  0  0  0999 V2000
   -3.5580   -0.1570    0.7440 Cl  0  0  0  0  0  0  0  0  0  0  0  0
   -2.2450   -1.1480    0.2010 O   0  0  0  0  0  0  0  0  0  0  0  0
   -0.9870   -0.5750    0.0710 C   0  0  0  0  0  0  0  0  0  0  0  0
    0.0880   -1.3220   -0.3570 C   0  0  0  0  0  0  0  0  0  0  0  0
    1.3390   -0.7450   -0.4850 C   0  0  0  0  0  0  0  0  0  0  0  0
    2.6890   -1.7320   -1.0350 Cl  0  0  0  0  0  0  0  0  0  0  0  0
    1.5290    0.5780   -0.1890 C   0  0  0  0  0  0  0  0  0  0  0  0
    3.1040    1.2680   -0.3600 Cl  0  0  0  0  0  0  0  0  0  0  0  0
    0.4730    1.3530    0.2410 C   0  0  0  0  0  0  0  0  0  0  0  0
   -0.7720    0.7490    0.3610 C   0  0  0  0  0  0  0  0  0  0  0  0
   -2.1480    1.6940    0.9060 Cl  0  0  0  0  0  0  0  0  0  0  0  0
  1  2  1  0
  2  3  1  0
  3  4  2  0
  3 10  1  0
  4  5  1  0
  5  6  1  0
  5  7  2  0
  7  8  1  0
  7  9  1  0
  9 10  2  0
 10 11  1  0
 11  1  1  0
M  END
