
     RDKit          3D

 12 11  0  0  0  0  0  0  0  0999 V2000
   -0.7700   -2.7140   -0.8750 Cl  0  0  0  0  0  0  0  0  0  0  0  0
    0.7320   -1.8600   -0.6250 C   0  0  0  0  0  0  0  0  0  0  0  0
    0.8440   -0.6180   -0.2020 C   0  0  0  0  0  0  0  0  0  0  0  0
   -0.1840    0.2350    0.1190 O   0  0  0  0  0  0  0  0  0  0  0  0
   -1.5200   -0.1850    0.0430 C   0  0  0  0  0  0  0  0  0  0  0  0
   -2.4720    0.9350    0.4490 C   0  0  0  0  0  0  0  0  0  0  0  0
   -2.2720    2.3370   -0.6240 Cl  0  0  0  0  0  0  0  0  0  0  0  0
    2.1970   -0.0690   -0.0520 C   0  0  0  0  0  0  0  0  0  0  0  0
    3.5600   -1.0860   -0.4400 Cl  0  0  0  0  0  0  0  0  0  0  0  0
    2.4400    1.1580    0.3620 C   0  0  0  0  0  0  0  0  0  0  0  0
    1.0480    2.1670    0.7490 Cl  0  0  0  0  0  0  0  0  0  0  0  0
    4.0550    1.7770    0.5290 Cl  0  0  0  0  0  0  0  0  0  0  0  0
  1  2  1  0
  2  3  2  3
  3  4  1  0
  3  8  1  0
  4  5  1  0
  5  6  1  0
  6  7  1  0
  8  9  1  0
  8 10  2  3
 10 11  1  0
 10 12  1  0
M  END
