
     RDKit          3D

 18 19  0  0  0  0  0  0  0  0999 V2000
    5.3620   -0.6050    0.3970 O   0  0  0  0  0  0  0  0  0  0  0  0
    4.8330    0.1960    1.2130 C   0  0  0  0  0  0  0  0  0  0  0  0
    5.6270    0.9370    2.0940 O   0  0  0  0  0  0  0  0  0  0  0  0
    3.4010    0.3670    1.2580 C   0  0  0  0  0  0  0  0  0  0  0  0
    2.8820    1.1660    2.0730 O   0  0  0  0  0  0  0  0  0  0  0  0
    2.5790   -0.3690    0.3790 N   0  0  0  0  0  0  0  0  0  0  0  0
    1.1630   -0.1960    0.4270 C   0  0  0  0  0  0  0  0  0  0  0  0
    0.3620    0.8980    1.5350 S   0  0  0  0  0  0  0  0  0  0  0  0
   -1.2800    0.5930    1.0420 C   0  0  0  0  0  0  0  0  0  0  0  0
   -1.1170   -0.3630    0.0220 C   0  0  0  0  0  0  0  0  0  0  0  0
    0.1380   -0.7360   -0.2590 C   0  0  0  0  0  0  0  0  0  0  0  0
    0.4070   -1.7450   -1.3190 C   0  0  0  0  0  0  0  0  0  0  0  0
   -0.5200   -2.2690   -1.9760 O   0  0  0  0  0  0  0  0  0  0  0  0
    1.6860   -2.1560   -1.6330 O   0  0  0  0  0  0  0  0  0  0  0  0
   -2.4920   -0.7400   -0.5260 C   0  0  0  0  0  0  0  0  0  0  0  0
   -3.1260    0.5900   -0.9000 C   0  0  0  0  0  0  0  0  0  0  0  0
   -3.4430    1.3880    0.2670 N   0  0  0  0  0  0  0  0  0  0  0  0
   -2.6440    1.0520    1.4090 C   0  0  0  0  0  0  0  0  0  0  0  0
  1  2  2  0
  2  3  1  0
  2  4  1  0
  4  5  2  0
  4  6  1  0
  6  7  1  0
  7  8  1  0
  7 11  2  0
  8  9  1  0
  9 10  2  0
  9 18  1  0
 10 11  1  0
 10 15  1  0
 11 12  1  0
 12 13  2  0
 12 14  1  0
 15 16  1  0
 16 17  1  0
 17 18  1  0
M  CHG  1  17   1
M  END
