
     RDKit          3D

 11 10  0  0  0  0  0  0  0  0999 V2000
   -2.0060   -1.1040    0.6570 C   0  0  0  0  0  0  0  0  0  0  0  0
   -1.2800    0.0070    0.0080 C   0  0  0  0  0  0  0  0  0  0  0  0
   -2.3580    1.2750   -0.6300 Cl  0  0  0  0  0  0  0  0  0  0  0  0
    0.0280    0.1170   -0.1240 C   0  0  0  0  0  0  0  0  0  0  0  0
    0.5620    1.3240   -0.8150 C   0  0  0  0  0  0  0  0  0  0  0  0
   -0.4370    2.2040   -1.2390 O   0  0  0  0  0  0  0  0  0  0  0  0
    0.9870   -0.8680    0.3590 C   0  0  0  0  0  0  0  0  0  0  0  0
    0.4070   -2.3400    1.1820 Cl  0  0  0  0  0  0  0  0  0  0  0  0
    2.2930   -0.7940    0.2500 C   0  0  0  0  0  0  0  0  0  0  0  0
    3.2040    0.4860   -0.4900 Cl  0  0  0  0  0  0  0  0  0  0  0  0
    3.2670   -2.1220    0.9160 Cl  0  0  0  0  0  0  0  0  0  0  0  0
  1  2  1  0
  2  3  1  0
  2  4  2  3
  4  5  1  0
  4  7  1  0
  5  6  1  0
  7  8  1  0
  7  9  2  3
  9 10  1  0
  9 11  1  0
M  END
