
     RDKit          3D

 11 10  0  0  0  0  0  0  0  0999 V2000
    1.8690   -1.0330    0.5360 C   0  0  0  0  0  0  0  0  0  0  0  0
    0.9250   -0.0350    0.8920 O   0  0  0  0  0  0  0  0  0  0  0  0
   -0.1610    0.2240   -0.0400 C   0  0  0  0  0  0  0  0  0  0  0  0
   -0.9630   -0.7670   -0.1420 C   0  0  0  0  0  0  0  0  0  0  0  0
   -2.1710   -1.1160   -0.8630 C   0  0  0  0  0  0  0  0  0  0  0  0
   -2.9030   -0.0060   -1.9550 Cl  0  0  0  0  0  0  0  0  0  0  0  0
   -0.0690    1.5280   -0.6210 C   0  0  0  0  0  0  0  0  0  0  0  0
   -1.2210    2.1270   -1.7850 Cl  0  0  0  0  0  0  0  0  0  0  0  0
    0.9190    2.3840   -0.3060 C   0  0  0  0  0  0  0  0  0  0  0  0
    2.1210    1.8890    0.8440 Cl  0  0  0  0  0  0  0  0  0  0  0  0
    0.9990    3.9660   -1.0350 Cl  0  0  0  0  0  0  0  0  0  0  0  0
  1  2  1  0
  2  3  1  0
  3  4  2  3
  3  7  1  0
  4  5  1  0
  5  6  1  0
  7  8  1  0
  7  9  2  3
  9 10  1  0
  9 11  1  0
M  END
