
     RDKit          3D

 12 11  0  0  0  0  0  0  0  0999 V2000
   -2.0710   -2.6270    1.5200 Cl  0  0  0  0  0  0  0  0  0  0  0  0
   -0.7540   -1.9300    0.6060 C   0  0  0  0  0  0  0  0  0  0  0  0
   -0.9010   -0.7200    0.0990 C   0  0  0  0  0  0  0  0  0  0  0  0
    0.1860   -0.1990   -0.6290 O   0  0  0  0  0  0  0  0  0  0  0  0
    1.3770    0.0890    0.0850 C   0  0  0  0  0  0  0  0  0  0  0  0
    2.4530    0.6370   -0.8040 C   0  0  0  0  0  0  0  0  0  0  0  0
    3.9040    0.9680    0.1700 Cl  0  0  0  0  0  0  0  0  0  0  0  0
   -2.1120    0.0620    0.2660 C   0  0  0  0  0  0  0  0  0  0  0  0
   -3.4620   -0.5700    1.1640 Cl  0  0  0  0  0  0  0  0  0  0  0  0
   -2.1860    1.2560   -0.2660 C   0  0  0  0  0  0  0  0  0  0  0  0
   -3.6440    2.2490   -0.0890 Cl  0  0  0  0  0  0  0  0  0  0  0  0
   -0.8150    1.8650   -1.1620 Cl  0  0  0  0  0  0  0  0  0  0  0  0
  1  2  1  0
  2  3  2  3
  3  4  1  0
  3  8  1  0
  4  5  1  0
  5  6  1  0
  6  7  1  0
  8  9  1  0
  8 10  2  3
 10 11  1  0
 10 12  1  0
M  END
