
     RDKit          3D

 12 12  0  0  0  0  0  0  0  0999 V2000
   -2.7800   -0.9210    0.6930 O   0  0  0  0  0  0  0  0  0  0  0  0
   -2.1190   -0.7380   -0.5110 C   0  0  0  0  0  0  0  0  0  0  0  0
   -0.6630   -1.1990   -0.2830 C   0  0  0  0  0  0  0  0  0  0  0  0
   -0.0440   -0.4020    0.7710 C   0  0  0  0  0  0  0  0  0  0  0  0
   -0.8000   -0.5800    2.3940 Cl  0  0  0  0  0  0  0  0  0  0  0  0
    0.9780    0.4110    0.6740 C   0  0  0  0  0  0  0  0  0  0  0  0
    1.4760    1.2330    2.2080 Cl  0  0  0  0  0  0  0  0  0  0  0  0
    1.7560    0.7780   -0.4590 C   0  0  0  0  0  0  0  0  0  0  0  0
    1.4060    0.1520   -2.0460 Cl  0  0  0  0  0  0  0  0  0  0  0  0
    2.7640    1.6140   -0.3690 C   0  0  0  0  0  0  0  0  0  0  0  0
    3.2610    2.3590    1.1160 Cl  0  0  0  0  0  0  0  0  0  0  0  0
    3.7090    2.0420   -1.8200 Cl  0  0  0  0  0  0  0  0  0  0  0  0
  1  2  1  0
  2  3  1  0
  3  4  1  0
  4  5  1  0
  4  6  2  3
  6  7  1  0
  6  8  1  0
  8  9  1  0
  8 10  2  0
 10 11  1  0
 10 12  1  0
 11  7  1  0
M  END
