
     RDKit          3D

 12 11  0  0  0  0  0  0  0  0999 V2000
   -1.3770    1.5800    0.7630 C   0  0  0  0  0  0  0  0  0  0  0  0
   -1.5790    0.0860    0.7700 C   0  0  0  0  0  0  0  0  0  0  0  0
   -3.1900   -0.5070    1.0650 Cl  0  0  0  0  0  0  0  0  0  0  0  0
   -0.6010   -0.7430    0.5670 C   0  0  0  0  0  0  0  0  0  0  0  0
    0.7020   -0.2390    0.3310 O   0  0  0  0  0  0  0  0  0  0  0  0
    0.9720    0.2420   -0.9470 C   0  0  0  0  0  0  0  0  0  0  0  0
    2.3870    0.7570   -1.0960 C   0  0  0  0  0  0  0  0  0  0  0  0
    2.7490    2.0820    0.0040 Cl  0  0  0  0  0  0  0  0  0  0  0  0
   -0.7410   -2.2060    0.5630 C   0  0  1  0  0  0  0  0  0  0  0  0
    0.2650   -2.9300    1.8670 Cl  0  0  0  0  0  0  0  0  0  0  0  0
   -2.3850   -2.7950    0.6620 Cl  0  0  0  0  0  0  0  0  0  0  0  0
   -0.0210   -2.7750   -0.9870 Cl  0  0  0  0  0  0  0  0  0  0  0  0
  1  2  1  0
  2  3  1  0
  2  4  2  3
  4  5  1  0
  4  9  1  0
  5  6  1  0
  6  7  1  0
  7  8  1  0
  9 10  1  1
  9 11  1  0
  9 12  1  0
M  END
