
     RDKit          3D

 12 12  0  0  0  0  0  0  0  0999 V2000
   -4.0610    0.9720    0.1250 Cl  0  0  0  0  0  0  0  0  0  0  0  0
   -2.4300    0.3620    0.4180 C   0  0  0  0  0  0  0  0  0  0  0  0
   -2.0930   -0.7680    1.7420 Cl  0  0  0  0  0  0  0  0  0  0  0  0
   -1.4510    0.7230   -0.3560 C   0  0  0  0  0  0  0  0  0  0  0  0
   -1.7110    1.8050   -1.6980 Cl  0  0  0  0  0  0  0  0  0  0  0  0
   -0.1100    0.2380   -0.0860 C   0  0  0  0  0  0  0  0  0  0  0  0
    0.7830   -0.3090   -1.0170 C   0  0  0  0  0  0  0  0  0  0  0  0
    1.9380   -0.6390   -0.3500 C   0  0  0  0  0  0  0  0  0  0  0  0
    3.3780   -1.3630   -1.0070 Cl  0  0  0  0  0  0  0  0  0  0  0  0
    1.7290   -0.2880    0.9650 C   0  0  0  0  0  0  0  0  0  0  0  0
    2.9170   -0.4980    2.2700 Cl  0  0  0  0  0  0  0  0  0  0  0  0
    0.5400    0.2080    1.0560 O   0  0  0  0  0  0  0  0  0  0  0  0
  1  2  1  0
  2  3  1  0
  2  4  2  3
  4  5  1  0
  4  6  1  0
  6  7  2  0
  6 12  1  0
  7  8  1  0
  8  9  1  0
  8 10  2  0
 10 11  1  0
 10 12  1  0
M  END
