
     RDKit          3D

 11 10  0  0  0  0  0  0  0  0999 V2000
   -2.1260    1.0540   -0.4140 C   0  0  0  0  0  0  0  0  0  0  0  0
   -1.2840   -0.1270   -0.0790 C   0  0  0  0  0  0  0  0  0  0  0  0
   -2.1380   -1.6620    0.1600 Cl  0  0  0  0  0  0  0  0  0  0  0  0
    0.0180   -0.1310    0.0540 C   0  0  0  0  0  0  0  0  0  0  0  0
    0.7100   -1.4030    0.3930 C   0  0  0  0  0  0  0  0  0  0  0  0
   -0.1610   -2.4840    0.5360 O   0  0  0  0  0  0  0  0  0  0  0  0
    0.8570    1.0370   -0.1100 C   0  0  0  0  0  0  0  0  0  0  0  0
    0.0580    2.5640   -0.5170 Cl  0  0  0  0  0  0  0  0  0  0  0  0
    2.1520    1.0810    0.0130 C   0  0  0  0  0  0  0  0  0  0  0  0
    3.2070   -0.2340    0.4020 Cl  0  0  0  0  0  0  0  0  0  0  0  0
    2.9990    2.6430   -0.2330 Cl  0  0  0  0  0  0  0  0  0  0  0  0
  1  2  1  0
  2  3  1  0
  2  4  2  3
  4  5  1  0
  4  7  1  0
  5  6  1  0
  7  8  1  0
  7  9  2  3
  9 10  1  0
  9 11  1  0
M  END
