
     RDKit          3D

 12 11  0  0  0  0  0  0  0  0999 V2000
    2.9290   -1.0650    0.0320 C   0  0  0  0  0  0  0  0  0  0  0  0
    1.6950   -0.6840   -0.4540 O   0  0  0  0  0  0  0  0  0  0  0  0
    0.9250   -0.1350    0.5570 C   0  0  0  0  0  0  0  0  0  0  0  0
   -0.3910    0.2650    0.0100 C   0  0  0  0  0  0  0  0  0  0  0  0
   -1.4860   -0.2720    0.5020 C   0  0  0  0  0  0  0  0  0  0  0  0
   -1.3580   -1.4500    1.7960 Cl  0  0  0  0  0  0  0  0  0  0  0  0
   -2.8660    0.0360    0.0400 C   0  0  0  0  0  0  0  0  0  0  0  0
   -3.7380    0.6920    1.4650 Cl  0  0  0  0  0  0  0  0  0  0  0  0
   -0.3970    1.2720   -1.0870 C   0  0  1  0  0  0  0  0  0  0  0  0
   -1.3540    2.7020   -0.6720 Cl  0  0  0  0  0  0  0  0  0  0  0  0
    1.2420    1.8150   -1.4740 Cl  0  0  0  0  0  0  0  0  0  0  0  0
   -1.0710    0.5490   -2.5750 Cl  0  0  0  0  0  0  0  0  0  0  0  0
  1  2  1  0
  2  3  1  0
  3  4  1  0
  4  5  2  3
  4  9  1  0
  5  6  1  0
  5  7  1  0
  7  8  1  0
  9 10  1  1
  9 11  1  0
  9 12  1  0
M  END
