
     RDKit          3D

 18 19  0  0  0  0  0  0  0  0999 V2000
    5.5340   -0.5470   -0.1770 O   0  0  0  0  0  0  0  0  0  0  0  0
    5.0320    0.5640    0.1410 C   0  0  0  0  0  0  0  0  0  0  0  0
    5.9220    1.6070    0.3410 O   0  0  0  0  0  0  0  0  0  0  0  0
    3.5990    0.7580    0.2930 C   0  0  0  0  0  0  0  0  0  0  0  0
    3.1810    1.8930    0.6110 O   0  0  0  0  0  0  0  0  0  0  0  0
    2.6610   -0.3020    0.0920 N   0  0  0  0  0  0  0  0  0  0  0  0
    1.2870   -0.0580    0.2530 C   0  0  0  0  0  0  0  0  0  0  0  0
    0.5920    1.5360    0.7070 S   0  0  0  0  0  0  0  0  0  0  0  0
   -1.0710    1.0090    0.6930 C   0  0  0  0  0  0  0  0  0  0  0  0
   -1.0130   -0.3450    0.3450 C   0  0  0  0  0  0  0  0  0  0  0  0
    0.1690   -0.8850    0.1240 C   0  0  0  0  0  0  0  0  0  0  0  0
    0.3800   -2.2930   -0.2460 C   0  0  0  0  0  0  0  0  0  0  0  0
    1.5070   -2.7950   -0.4550 O   0  0  0  0  0  0  0  0  0  0  0  0
   -0.6830   -3.1660   -0.3890 O   0  0  0  0  0  0  0  0  0  0  0  0
   -2.4270   -0.8960    0.3020 C   0  0  0  0  0  0  0  0  0  0  0  0
   -3.2870    0.0260   -0.5400 C   0  0  0  0  0  0  0  0  0  0  0  0
   -3.3970    1.3410   -0.0140 N   0  0  0  0  0  0  0  0  0  0  0  0
   -2.4050    1.6850    0.9650 C   0  0  0  0  0  0  0  0  0  0  0  0
  1  2  2  0
  2  3  1  0
  2  4  1  0
  4  5  2  0
  4  6  1  0
  6  7  1  0
  7  8  1  0
  7 11  2  0
  8  9  1  0
  9 10  2  0
  9 18  1  0
 10 11  1  0
 10 15  1  0
 11 12  1  0
 12 13  2  0
 12 14  1  0
 15 16  1  0
 16 17  1  0
 17 18  1  0
M  CHG  1  17   1
M  END
