
     RDKit          3D

 16 16  0  0  0  0  0  0  0  0999 V2000
   -2.4550    2.2140   -1.1870 C   0  0  0  0  0  0  0  0  0  0  0  0
   -2.0350    2.5420    0.1460 C   0  0  0  0  0  0  0  0  0  0  0  0
   -0.8870    1.8180    0.7870 C   0  0  0  0  0  0  0  0  0  0  0  0
   -1.1690    0.3380    0.8850 C   0  0  0  0  0  0  0  0  0  0  0  0
   -2.1370    0.0130    1.8040 C   0  0  0  0  0  0  0  0  0  0  0  0
   -2.5340   -1.2860    1.9960 C   0  0  0  0  0  0  0  0  0  0  0  0
   -1.9270   -2.3070    1.2390 C   0  0  0  0  0  0  0  0  0  0  0  0
   -2.4340   -3.7020    1.3430 C   0  0  0  0  0  0  0  0  0  0  0  0
   -0.9590   -1.9740    0.3410 C   0  0  0  0  0  0  0  0  0  0  0  0
   -0.5480   -0.6220    0.1300 C   0  0  0  0  0  0  0  0  0  0  0  0
    0.4380   -0.2640   -0.8770 C   0  0  0  0  0  0  0  0  0  0  0  0
    1.7310   -0.8000   -0.5190 O   0  0  0  0  0  0  0  0  0  0  0  0
    2.6680   -0.5270   -1.4450 C   0  0  0  0  0  0  0  0  0  0  0  0
    3.4640    0.6930   -1.5720 C   0  0  0  0  0  0  0  0  0  0  0  0
    4.4580    0.8600   -0.4480 C   0  0  0  0  0  0  0  0  0  0  0  0
    3.9160    0.9460    0.7980 O   0  0  0  0  0  0  0  0  0  0  0  0
  1  2  1  0
  2  3  1  0
  3  4  1  0
  4  5  2  0
  4 10  1  0
  5  6  1  0
  6  7  2  0
  7  8  1  0
  7  9  1  0
  9 10  2  0
 10 11  1  0
 11 12  1  0
 12 13  1  0
 13 14  1  0
 14 15  1  0
 15 16  1  0
M  END
