
     RDKit          3D

 16 16  0  0  0  0  0  0  0  0999 V2000
    4.7660   -1.3990    0.3520 C   0  0  0  0  0  0  0  0  0  0  0  0
    4.2760   -0.0490   -0.0730 C   0  0  1  0  0  0  0  0  0  0  0  0
    4.2770    0.1550   -1.5660 C   0  0  0  0  0  0  0  0  0  0  0  0
    2.9640    0.3530    0.5710 C   0  0  0  0  0  0  0  0  0  0  0  0
    1.8520   -0.5940    0.2680 C   0  0  0  0  0  0  0  0  0  0  0  0
    0.6750   -0.1460    0.9020 O   0  0  0  0  0  0  0  0  0  0  0  0
    0.0240    1.0430    0.6420 C   0  0  0  0  0  0  0  0  0  0  0  0
    0.5190    1.7890   -0.2390 O   0  0  0  0  0  0  0  0  0  0  0  0
   -1.2000    1.4730    1.3300 C   0  0  0  0  0  0  0  0  0  0  0  0
   -2.4310    0.7090    1.0030 C   0  0  2  0  0  0  0  0  0  0  0  0
   -2.3120   -0.7640    1.3470 C   0  0  0  0  0  0  0  0  0  0  0  0
   -3.5300   -1.4930    0.7720 C   0  0  0  0  0  0  0  0  0  0  0  0
   -3.3230   -1.5900   -0.7190 C   0  0  0  0  0  0  0  0  0  0  0  0
   -2.5320   -0.4110   -1.2360 C   0  0  0  0  0  0  0  0  0  0  0  0
   -2.9290    0.8050   -0.3950 C   0  0  2  0  0  0  0  0  0  0  0  0
   -2.6410    2.0840   -1.1060 C   0  0  0  0  0  0  0  0  0  0  0  0
  2  1  1  6
  2  3  1  0
  2  4  1  0
  4  5  1  0
  5  6  1  0
  6  7  1  0
  7  8  2  0
  7  9  1  0
 10  9  1  6
 10 11  1  0
 10 15  1  0
 11 12  1  0
 12 13  1  0
 13 14  1  0
 14 15  1  0
 15 16  1  6
M  END
