
     RDKit          3D

 16 16  0  0  0  0  0  0  0  0999 V2000
   -3.9440    1.6820    0.5450 C   0  0  0  0  0  0  0  0  0  0  0  0
   -4.0970    0.5290    0.0290 C   0  0  0  0  0  0  0  0  0  0  0  0
   -3.1510   -0.5260   -0.1780 C   0  0  0  0  0  0  0  0  0  0  0  0
   -1.7600   -0.6030    0.1290 C   0  0  0  0  0  0  0  0  0  0  0  0
   -0.9770    0.2620    0.6790 C   0  0  0  0  0  0  0  0  0  0  0  0
    0.4790   -0.1240    0.8740 C   0  0  0  0  0  0  0  0  0  0  0  0
    1.3110    0.7820    0.1710 O   0  0  0  0  0  0  0  0  0  0  0  0
    2.6860    0.6010    0.2220 C   0  0  0  0  0  0  0  0  0  0  0  0
    3.2410   -0.4490    0.9490 C   0  0  0  0  0  0  0  0  0  0  0  0
    4.6020   -0.6610    1.0250 C   0  0  0  0  0  0  0  0  0  0  0  0
    5.4720    0.1820    0.3650 C   0  0  0  0  0  0  0  0  0  0  0  0
    4.9210    1.2210   -0.3550 C   0  0  0  0  0  0  0  0  0  0  0  0
    5.7820    2.0750   -1.0220 O   0  0  0  0  0  0  0  0  0  0  0  0
    3.5640    1.4410   -0.4360 C   0  0  0  0  0  0  0  0  0  0  0  0
   -3.6380   -1.6840   -0.7770 C   0  0  0  0  0  0  0  0  0  0  0  0
   -5.0620   -1.7240   -1.1410 C   0  0  0  0  0  0  0  0  0  0  0  0
  1  2  2  0
  2  3  1  0
  3  4  1  0
  3 15  2  3
  4  5  2  3
  5  6  1  0
  6  7  1  0
  7  8  1  0
  8  9  2  0
  8 14  1  0
  9 10  1  0
 10 11  2  0
 11 12  1  0
 12 13  1  0
 12 14  2  0
 15 16  1  0
M  END
