
     RDKit          3D

 16 16  0  0  0  0  0  0  0  0999 V2000
    5.6120   -0.4990    1.1000 C   0  0  0  0  0  0  0  0  0  0  0  0
    4.2530    0.1630    0.8910 C   0  0  0  0  0  0  0  0  0  0  0  0
    4.0330    0.2400   -0.6000 C   0  0  0  0  0  0  0  0  0  0  0  0
    2.7240    0.8730   -0.9580 C   0  0  0  0  0  0  0  0  0  0  0  0
    1.5410    0.1380   -0.4070 C   0  0  2  0  0  0  0  0  0  0  0  0
    1.4260   -1.2790   -0.8830 C   0  0  0  0  0  0  0  0  0  0  0  0
    0.2370    0.8390   -0.7190 C   0  0  0  0  0  0  0  0  0  0  0  0
   -0.8970    0.0290   -0.1270 C   0  0  0  0  0  0  0  0  0  0  0  0
   -2.0940    0.7030   -0.4310 O   0  0  0  0  0  0  0  0  0  0  0  0
   -3.3470    0.2890   -0.0690 C   0  0  0  0  0  0  0  0  0  0  0  0
   -3.6320   -0.8410    0.6430 C   0  0  0  0  0  0  0  0  0  0  0  0
   -4.9230   -1.1980    0.9730 C   0  0  0  0  0  0  0  0  0  0  0  0
   -5.9710   -0.3930    0.5760 C   0  0  0  0  0  0  0  0  0  0  0  0
   -5.7100    0.7510   -0.1420 C   0  0  0  0  0  0  0  0  0  0  0  0
   -6.7370    1.5730   -0.5510 O   0  0  0  0  0  0  0  0  0  0  0  0
   -4.4190    1.0800   -0.4560 C   0  0  0  0  0  0  0  0  0  0  0  0
  1  2  1  0
  2  3  1  0
  3  4  1  0
  4  5  1  0
  5  6  1  6
  5  7  1  0
  7  8  1  0
  8  9  1  0
  9 10  1  0
 10 11  2  0
 10 16  1  0
 11 12  1  0
 12 13  2  0
 13 14  1  0
 14 15  1  0
 14 16  2  0
M  END
