
     RDKit          3D

 14 14  0  0  0  0  0  0  0  0999 V2000
   -1.1550   -1.1350    1.5410 C   0  0  0  0  0  0  0  0  0  0  0  0
   -1.0300   -0.6350    0.1480 C   0  0  1  0  0  0  0  0  0  0  0  0
   -0.8180   -1.7140   -0.7150 O   0  0  0  0  0  0  0  0  0  0  0  0
   -2.3560   -0.0160   -0.2590 C   0  0  1  0  0  0  0  0  0  0  0  0
   -3.4030   -0.4780    0.5450 O   0  0  0  0  0  0  0  0  0  0  0  0
   -2.2240    1.3590   -0.0980 O   0  0  0  0  0  0  0  0  0  0  0  0
   -1.3180    1.8660   -1.0190 C   0  0  0  0  0  0  0  0  0  0  0  0
   -0.2080    1.0860   -1.2010 O   0  0  0  0  0  0  0  0  0  0  0  0
    0.1210    0.3280   -0.0540 C   0  0  1  0  0  0  0  0  0  0  0  0
    0.3390    1.2270    1.1190 C   0  0  0  0  0  0  0  0  0  0  0  0
    1.3380   -0.4780   -0.3670 C   0  0  2  0  0  0  0  0  0  0  0  0
    1.7050   -1.2490    0.7410 O   0  0  0  0  0  0  0  0  0  0  0  0
    2.5260    0.3310   -0.7720 C   0  0  0  0  0  0  0  0  0  0  0  0
    3.5960   -0.6200   -1.1060 N   0  0  0  0  0  0  0  0  0  0  0  0
  2  1  1  1
  2  3  1  0
  2  4  1  0
  2  9  1  0
  4  5  1  1
  4  6  1  0
  6  7  1  0
  7  8  1  0
  8  9  1  0
  9 10  1  1
  9 11  1  0
 11 12  1  1
 11 13  1  0
 13 14  1  0
M  END
