
     RDKit          3D

 16 16  0  0  0  0  0  0  0  0999 V2000
   -4.6580    0.1210   -1.4080 C   0  0  0  0  0  0  0  0  0  0  0  0
   -3.5260   -0.8650   -1.2720 C   0  0  0  0  0  0  0  0  0  0  0  0
   -2.5650   -0.3420   -0.2690 C   0  0  0  0  0  0  0  0  0  0  0  0
   -1.3700    0.2200   -0.6660 C   0  0  0  0  0  0  0  0  0  0  0  0
   -0.4590    0.7140    0.2730 C   0  0  0  0  0  0  0  0  0  0  0  0
    0.7860    1.2950   -0.2440 C   0  0  0  0  0  0  0  0  0  0  0  0
    1.9000    0.2900   -0.3880 C   0  0  0  0  0  0  0  0  0  0  0  0
    3.1010    1.0150   -0.9230 C   0  0  0  0  0  0  0  0  0  0  0  0
    4.2940    0.1100   -1.1120 C   0  0  0  0  0  0  0  0  0  0  0  0
    4.6890   -0.4810    0.0890 O   0  0  0  0  0  0  0  0  0  0  0  0
    5.7890   -1.2930   -0.1790 C   0  0  0  0  0  0  0  0  0  0  0  0
   -0.8150    0.6110    1.5820 C   0  0  0  0  0  0  0  0  0  0  0  0
   -2.0000    0.0570    2.0350 C   0  0  0  0  0  0  0  0  0  0  0  0
   -2.3280   -0.0250    3.4860 C   0  0  0  0  0  0  0  0  0  0  0  0
   -2.8870   -0.4280    1.0690 C   0  0  0  0  0  0  0  0  0  0  0  0
   -4.0740   -0.9830    1.5250 O   0  0  0  0  0  0  0  0  0  0  0  0
  1  2  1  0
  2  3  1  0
  3  4  2  0
  3 15  1  0
  4  5  1  0
  5  6  1  0
  5 12  2  0
  6  7  1  0
  7  8  1  0
  8  9  1  0
  9 10  1  0
 10 11  1  0
 12 13  1  0
 13 14  1  0
 13 15  2  0
 15 16  1  0
M  END
