
     RDKit          3D

 11 10  0  0  0  0  0  0  0  0999 V2000
    2.4290   -0.5890    0.1350 C   0  0  0  0  0  0  0  0  0  0  0  0
    1.3010   -0.7150   -0.6940 O   0  0  0  0  0  0  0  0  0  0  0  0
    0.0830   -0.0860   -0.4110 C   0  0  0  0  0  0  0  0  0  0  0  0
   -0.8480   -0.7570    0.1960 C   0  0  0  0  0  0  0  0  0  0  0  0
   -0.4850   -2.4490    0.6300 Cl  0  0  0  0  0  0  0  0  0  0  0  0
   -2.2020   -0.2630    0.5250 C   0  0  0  0  0  0  0  0  0  0  0  0
   -2.5100   -0.2520    2.2890 Cl  0  0  0  0  0  0  0  0  0  0  0  0
   -0.1330    1.3240   -0.8020 C   0  0  2  0  0  0  0  0  0  0  0  0
   -1.0780    1.4030   -2.3150 Cl  0  0  0  0  0  0  0  0  0  0  0  0
    1.4410    2.1010   -1.2090 Cl  0  0  0  0  0  0  0  0  0  0  0  0
   -0.8310    2.3300    0.4780 Cl  0  0  0  0  0  0  0  0  0  0  0  0
  1  2  1  0
  2  3  1  0
  3  4  2  3
  3  8  1  0
  4  5  1  0
  4  6  1  0
  6  7  1  0
  8  9  1  6
  8 10  1  0
  8 11  1  0
M  END
