
     RDKit          3D

 11 10  0  0  0  0  0  0  0  0999 V2000
    1.3200    0.5690    1.9680 C   0  0  0  0  0  0  0  0  0  0  0  0
    0.2520    0.8920    1.0040 C   0  0  0  0  0  0  0  0  0  0  0  0
   -0.4270    2.5480    1.2440 Cl  0  0  0  0  0  0  0  0  0  0  0  0
   -0.2370    0.1550    0.0420 C   0  0  0  0  0  0  0  0  0  0  0  0
   -1.3210    0.7690   -0.7690 C   0  0  0  0  0  0  0  0  0  0  0  0
   -1.0250    0.9010   -2.1080 O   0  0  0  0  0  0  0  0  0  0  0  0
    0.2040   -1.1710   -0.2700 C   0  0  0  0  0  0  0  0  0  0  0  0
    1.5510   -1.7960    0.7350 Cl  0  0  0  0  0  0  0  0  0  0  0  0
   -0.2210   -1.9980   -1.1780 C   0  0  0  0  0  0  0  0  0  0  0  0
   -1.5030   -1.6850   -2.2970 Cl  0  0  0  0  0  0  0  0  0  0  0  0
    0.5360   -3.5730   -1.3180 Cl  0  0  0  0  0  0  0  0  0  0  0  0
  1  2  1  0
  2  3  1  0
  2  4  2  3
  4  5  1  0
  4  7  1  0
  5  6  1  0
  7  8  1  0
  7  9  2  3
  9 10  1  0
  9 11  1  0
M  END
