
     RDKit          3D

 18 19  0  0  0  0  0  0  0  0999 V2000
    5.3830   -0.4010    0.6350 O   0  0  0  0  0  0  0  0  0  0  0  0
    4.8730    0.7450    0.6790 C   0  0  0  0  0  0  0  0  0  0  0  0
    5.6800    1.8130    0.9400 O   0  0  0  0  0  0  0  0  0  0  0  0
    3.4310    0.9380    0.4530 C   0  0  0  0  0  0  0  0  0  0  0  0
    2.8970    2.0630    0.4900 O   0  0  0  0  0  0  0  0  0  0  0  0
    2.5920   -0.1930    0.1790 N   0  0  0  0  0  0  0  0  0  0  0  0
    1.2050    0.0280   -0.0350 C   0  0  0  0  0  0  0  0  0  0  0  0
    0.4160    1.6190    0.0120 S   0  0  0  0  0  0  0  0  0  0  0  0
   -1.1850    1.0960   -0.3230 C   0  0  0  0  0  0  0  0  0  0  0  0
   -1.0580   -0.2840   -0.4590 C   0  0  0  0  0  0  0  0  0  0  0  0
    0.1640   -0.8010   -0.3090 C   0  0  0  0  0  0  0  0  0  0  0  0
    0.4150   -2.2660   -0.4430 C   0  0  0  0  0  0  0  0  0  0  0  0
   -0.4900   -3.0980   -0.6980 O   0  0  0  0  0  0  0  0  0  0  0  0
    1.6770   -2.8140   -0.2930 O   0  0  0  0  0  0  0  0  0  0  0  0
   -2.4120   -0.9140   -0.7560 C   0  0  0  0  0  0  0  0  0  0  0  0
   -3.4370   -0.3510    0.2040 C   0  0  0  0  0  0  0  0  0  0  0  0
   -3.4540    1.0600    0.3190 N   0  0  0  0  0  0  0  0  0  0  0  0
   -2.5120    1.7590   -0.4820 C   0  0  0  0  0  0  0  0  0  0  0  0
  1  2  2  0
  2  3  1  0
  2  4  1  0
  4  5  2  0
  4  6  1  0
  6  7  1  0
  7  8  1  0
  7 11  2  0
  8  9  1  0
  9 10  2  0
  9 18  1  0
 10 11  1  0
 10 15  1  0
 11 12  1  0
 12 13  2  0
 12 14  1  0
 15 16  1  0
 16 17  1  0
 17 18  1  0
M  CHG  1  17   1
M  END
