
     RDKit          3D

 11 10  0  0  0  0  0  0  0  0999 V2000
   -1.1550   -1.8690   -0.7610 C   0  0  0  0  0  0  0  0  0  0  0  0
   -0.8660   -0.5150   -1.1020 O   0  0  0  0  0  0  0  0  0  0  0  0
   -0.0010    0.2440   -0.2540 C   0  0  0  0  0  0  0  0  0  0  0  0
    1.2090   -0.2280   -0.1740 C   0  0  0  0  0  0  0  0  0  0  0  0
    2.3770    0.2440    0.5710 C   0  0  0  0  0  0  0  0  0  0  0  0
    2.9070   -1.0140    1.7320 Cl  0  0  0  0  0  0  0  0  0  0  0  0
   -0.5720    1.4040    0.3870 C   0  0  0  0  0  0  0  0  0  0  0  0
    0.3250    2.4280    1.4540 Cl  0  0  0  0  0  0  0  0  0  0  0  0
   -1.8620    1.7070    0.1530 C   0  0  0  0  0  0  0  0  0  0  0  0
   -2.8460    0.7250   -0.9040 Cl  0  0  0  0  0  0  0  0  0  0  0  0
   -2.6250    3.0950    0.8910 Cl  0  0  0  0  0  0  0  0  0  0  0  0
  1  2  1  0
  2  3  1  0
  3  4  2  3
  3  7  1  0
  4  5  1  0
  5  6  1  0
  7  8  1  0
  7  9  2  3
  9 10  1  0
  9 11  1  0
M  END
