
     RDKit          3D

 12 12  0  0  0  0  0  0  0  0999 V2000
    2.7570    0.6920    0.3930 C   0  0  0  0  0  0  0  0  0  0  0  0
    1.7000   -0.2180    0.4740 O   0  0  0  0  0  0  0  0  0  0  0  0
    0.6500    0.3650   -0.2700 C   0  0  0  0  0  0  0  0  0  0  0  0
   -0.5460   -0.4880   -0.2760 C   0  0  0  0  0  0  0  0  0  0  0  0
   -1.7020   -0.1430    0.1830 C   0  0  0  0  0  0  0  0  0  0  0  0
   -2.9710   -1.4420    0.0210 Cl  0  0  0  0  0  0  0  0  0  0  0  0
   -2.1780    1.0800    0.8240 C   0  0  0  0  0  0  0  0  0  0  0  0
   -1.0930    2.3990    1.1030 Cl  0  0  0  0  0  0  0  0  0  0  0  0
   -0.4080   -1.8900   -0.8600 C   0  0  1  0  0  0  0  0  0  0  0  0
    1.0820   -1.9990   -1.8220 Cl  0  0  0  0  0  0  0  0  0  0  0  0
   -0.4740   -3.1150    0.4020 Cl  0  0  0  0  0  0  0  0  0  0  0  0
   -1.7750   -2.1260   -1.9660 Cl  0  0  0  0  0  0  0  0  0  0  0  0
  1  2  1  0
  2  3  1  0
  3  4  1  0
  4  5  2  0
  4  9  1  0
  5  6  1  0
  5  7  1  0
  7  8  1  0
  9 10  1  6
  9 11  1  0
  9 12  1  0
 12  6  1  0
M  END
