
     RDKit          3D

 12 12  0  0  0  0  0  0  0  0999 V2000
   -4.1800   -0.1180    0.4420 Cl  0  0  0  0  0  0  0  0  0  0  0  0
   -2.5050    0.3040    0.0400 C   0  0  0  0  0  0  0  0  0  0  0  0
   -2.2440    1.8230   -0.7740 Cl  0  0  0  0  0  0  0  0  0  0  0  0
   -1.5190   -0.5060    0.3450 C   0  0  0  0  0  0  0  0  0  0  0  0
   -1.8750   -2.0060    1.1540 Cl  0  0  0  0  0  0  0  0  0  0  0  0
   -0.1430   -0.1710    0.0410 C   0  0  0  0  0  0  0  0  0  0  0  0
    1.0220   -0.6990    0.6080 C   0  0  0  0  0  0  0  0  0  0  0  0
    2.1220   -0.1090    0.0410 C   0  0  0  0  0  0  0  0  0  0  0  0
    3.8140   -0.3820    0.3590 Cl  0  0  0  0  0  0  0  0  0  0  0  0
    1.5660    0.7910   -0.8890 C   0  0  0  0  0  0  0  0  0  0  0  0
    2.5780    1.8270   -1.9090 Cl  0  0  0  0  0  0  0  0  0  0  0  0
    0.2810    0.7160   -0.8460 O   0  0  0  0  0  0  0  0  0  0  0  0
  1  2  1  0
  2  3  1  0
  2  4  2  3
  4  5  1  0
  4  6  1  0
  6  7  2  0
  6 12  1  0
  7  8  1  0
  8  9  1  0
  8 10  2  0
 10 11  1  0
 10 12  1  0
M  END
