
     RDKit          3D

 33 36  0  0  0  0  0  0  0  0999 V2000
   -2.2930    5.8290    0.9340 C   0  0  0  0  0  0  0  0  0  0  0  0
   -3.1880    5.4510   -0.2230 C   0  0  0  0  0  0  0  0  0  0  0  0
   -3.5570    4.0540   -0.2050 N   0  0  0  0  0  0  0  0  0  0  0  0
   -2.5520    3.0180   -0.2700 C   0  0  0  0  0  0  0  0  0  0  0  0
   -1.3510    3.3910   -0.3430 O   0  0  0  0  0  0  0  0  0  0  0  0
   -2.9430    1.6460   -0.2510 C   0  0  0  0  0  0  0  0  0  0  0  0
   -2.1580    0.5820   -0.3030 C   0  0  0  0  0  0  0  0  0  0  0  0
   -2.6440   -0.8120   -0.2780 C   0  0  0  0  0  0  0  0  0  0  0  0
   -3.8740   -1.1390   -0.2040 N   0  0  0  0  0  0  0  0  0  0  0  0
   -4.3760   -2.4460   -0.1780 C   0  0  0  0  0  0  0  0  0  0  0  0
   -3.7640   -3.4890   -0.7220 C   0  0  0  0  0  0  0  0  0  0  0  0
   -4.3150   -4.8680   -0.6830 C   0  0  0  0  0  0  0  0  0  0  0  0
   -5.5360   -4.9640   -0.0210 O   0  0  0  0  0  0  0  0  0  0  0  0
   -6.1980   -3.8980    0.5560 C   0  0  0  0  0  0  0  0  0  0  0  0
   -5.6510   -2.6990    0.4840 C   0  0  0  0  0  0  0  0  0  0  0  0
   -6.3630   -1.5480    1.1050 C   0  0  0  0  0  0  0  0  0  0  0  0
   -1.5080   -1.5960   -0.3510 O   0  0  0  0  0  0  0  0  0  0  0  0
   -0.3660   -0.8190   -0.4180 C   0  0  0  0  0  0  0  0  0  0  0  0
   -0.7050    0.5330   -0.3920 C   0  0  0  0  0  0  0  0  0  0  0  0
    0.2840    1.4350   -0.4500 N   0  0  0  0  0  0  0  0  0  0  0  0
    1.5850    1.1240   -0.5310 C   0  0  0  0  0  0  0  0  0  0  0  0
    1.9520   -0.1690   -0.5580 N   0  0  0  0  0  0  0  0  0  0  0  0
    3.3330   -0.5420   -0.6440 C   0  0  0  0  0  0  0  0  0  0  0  0
    3.7510   -1.4370   -1.6040 C   0  0  0  0  0  0  0  0  0  0  0  0
    5.0570   -1.8030   -1.7020 C   0  0  0  0  0  0  0  0  0  0  0  0
    5.9770   -1.3080   -0.8680 N   0  0  0  0  0  0  0  0  0  0  0  0
    5.5960   -0.4380    0.0740 C   0  0  0  0  0  0  0  0  0  0  0  0
    6.6420    0.0970    0.9870 C   0  0  1  0  0  0  0  0  0  0  0  0
    7.2370   -1.0300    1.8050 C   0  0  0  0  0  0  0  0  0  0  0  0
    7.7110    0.7310    0.1440 C   0  0  0  0  0  0  0  0  0  0  0  0
    4.2860   -0.0440    0.2020 C   0  0  0  0  0  0  0  0  0  0  0  0
    0.9910   -1.1020   -0.5020 C   0  0  0  0  0  0  0  0  0  0  0  0
    1.3080   -2.3350   -0.5260 O   0  0  0  0  0  0  0  0  0  0  0  0
  1  2  1  0
  2  3  1  0
  3  4  1  0
  4  5  2  0
  4  6  1  0
  6  7  2  3
  7  8  1  0
  7 19  1  0
  8  9  2  3
  8 17  1  0
  9 10  1  0
 10 11  2  0
 10 15  1  0
 11 12  1  0
 12 13  1  0
 13 14  1  0
 14 15  2  0
 15 16  1  0
 17 18  1  0
 18 19  2  0
 18 32  1  0
 19 20  1  0
 20 21  2  0
 21 22  1  0
 22 23  1  0
 22 32  1  0
 23 24  2  0
 23 31  1  0
 24 25  1  0
 25 26  2  0
 26 27  1  0
 27 28  1  0
 27 31  2  0
 28 29  1  6
 28 30  1  0
 32 33  2  0
M  END
