
     RDKit          3D

 33 36  0  0  0  0  0  0  0  0999 V2000
   -1.7450    5.9420    1.2570 C   0  0  0  0  0  0  0  0  0  0  0  0
   -2.3910    5.2390    2.4500 C   0  0  0  0  0  0  0  0  0  0  0  0
   -3.0700    4.0320    2.0390 N   0  0  0  0  0  0  0  0  0  0  0  0
   -2.3780    2.9230    1.4460 C   0  0  0  0  0  0  0  0  0  0  0  0
   -1.0190    2.9350    1.2660 C   0  0  0  0  0  0  0  0  0  0  0  0
   -0.3190    1.8540    0.6910 C   0  0  0  0  0  0  0  0  0  0  0  0
   -0.9950    0.7320    0.2850 C   0  0  0  0  0  0  0  0  0  0  0  0
   -2.3780    0.7320    0.4740 C   0  0  0  0  0  0  0  0  0  0  0  0
   -3.0590    1.7970    1.0400 C   0  0  0  0  0  0  0  0  0  0  0  0
   -4.5330    1.7870    1.2370 C   0  0  0  0  0  0  0  0  0  0  0  0
   -0.3410   -0.4500   -0.3380 C   0  0  2  0  0  0  0  0  0  0  0  0
   -0.5120   -1.6700    0.4370 C   0  0  0  0  0  0  0  0  0  0  0  0
    0.2540   -1.8230    1.6090 C   0  0  0  0  0  0  0  0  0  0  0  0
    0.1660   -2.9370    2.4090 C   0  0  0  0  0  0  0  0  0  0  0  0
   -0.7070   -3.9330    2.0410 C   0  0  0  0  0  0  0  0  0  0  0  0
   -1.4700   -3.8240    0.9090 C   0  0  0  0  0  0  0  0  0  0  0  0
   -1.3640   -2.6750    0.1030 C   0  0  0  0  0  0  0  0  0  0  0  0
   -2.1920   -2.6230   -1.0720 C   0  0  0  0  0  0  0  0  0  0  0  0
   -2.2830   -1.7240   -1.9220 O   0  0  0  0  0  0  0  0  0  0  0  0
   -3.0340   -3.7290   -1.3360 O   0  0  0  0  0  0  0  0  0  0  0  0
   -3.8730   -3.7380   -2.4770 C   0  0  0  0  0  0  0  0  0  0  0  0
   -4.6430   -5.0390   -2.4890 C   0  0  0  0  0  0  0  0  0  0  0  0
    1.1420   -0.2170   -0.4240 C   0  0  0  0  0  0  0  0  0  0  0  0
    1.8990   -1.2450   -0.9800 C   0  0  0  0  0  0  0  0  0  0  0  0
    3.2670   -1.1220   -1.1080 C   0  0  0  0  0  0  0  0  0  0  0  0
    4.0790   -2.2290   -1.7060 C   0  0  0  0  0  0  0  0  0  0  0  0
    3.8990    0.0260   -0.6850 C   0  0  0  0  0  0  0  0  0  0  0  0
    5.3310    0.1570   -0.8180 N   0  0  0  0  0  0  0  0  0  0  0  0
    6.0290    1.3320   -0.3920 C   0  0  0  0  0  0  0  0  0  0  0  0
    7.5070    1.1810   -0.6550 C   0  0  0  0  0  0  0  0  0  0  0  0
    3.1810    1.0580   -0.1330 C   0  0  0  0  0  0  0  0  0  0  0  0
    1.7920    0.9050   -0.0140 C   0  0  0  0  0  0  0  0  0  0  0  0
    1.0390    1.9140    0.5340 O   0  0  0  0  0  0  0  0  0  0  0  0
  1  2  1  0
  2  3  1  0
  3  4  1  0
  4  5  2  0
  4  9  1  0
  5  6  1  0
  6  7  2  0
  6 33  1  0
  7  8  1  0
  7 11  1  0
  8  9  2  0
  9 10  1  0
 11 12  1  1
 11 23  1  0
 12 13  2  0
 12 17  1  0
 13 14  1  0
 14 15  2  0
 15 16  1  0
 16 17  2  0
 17 18  1  0
 18 19  2  0
 18 20  1  0
 20 21  1  0
 21 22  1  0
 23 24  2  0
 23 32  1  0
 24 25  1  0
 25 26  1  0
 25 27  2  0
 27 28  1  0
 27 31  1  0
 28 29  1  0
 29 30  1  0
 31 32  2  0
 32 33  1  0
M  END
