
     RDKit          3D

 32 36  0  0  0  0  0  0  0  0999 V2000
    4.4980   -3.3860    0.1610 C   0  0  0  0  0  0  0  0  0  0  0  0
    4.1680   -2.1160   -0.2350 O   0  0  0  0  0  0  0  0  0  0  0  0
    4.9690   -1.0020   -0.1530 C   0  0  0  0  0  0  0  0  0  0  0  0
    6.2470   -1.0200    0.3140 C   0  0  0  0  0  0  0  0  0  0  0  0
    7.0180    0.1400    0.3870 C   0  0  0  0  0  0  0  0  0  0  0  0
    6.4390    1.3230   -0.0300 C   0  0  0  0  0  0  0  0  0  0  0  0
    5.1230    1.3390   -0.5090 C   0  0  0  0  0  0  0  0  0  0  0  0
    4.3610    0.2220   -0.5930 C   0  0  0  0  0  0  0  0  0  0  0  0
    3.0930    0.0700   -1.3110 C   0  0  0  0  0  0  0  0  0  0  0  0
    1.8790    0.4730   -0.6810 N   0  0  0  0  0  0  0  0  0  0  0  0
    0.7100    0.3610   -1.4900 C   0  0  0  0  0  0  0  0  0  0  0  0
    0.8200    0.0310   -2.7320 O   0  0  0  0  0  0  0  0  0  0  0  0
   -0.6420    0.5440   -1.0130 C   0  0  0  0  0  0  0  0  0  0  0  0
   -1.5890    1.3420   -1.5800 C   0  0  0  0  0  0  0  0  0  0  0  0
   -2.9060    1.1910   -1.1670 N   0  0  0  0  0  0  0  0  0  0  0  0
   -3.2390    0.2930   -0.2440 C   0  0  0  0  0  0  0  0  0  0  0  0
   -4.6130    0.0280    0.1140 C   0  0  0  0  0  0  0  0  0  0  0  0
   -4.9630   -1.3330    0.3140 C   0  0  0  0  0  0  0  0  0  0  0  0
   -6.2200   -1.7020    0.6400 C   0  0  0  0  0  0  0  0  0  0  0  0
   -6.5770   -3.1620    0.7840 C   0  0  0  0  0  0  0  0  0  0  0  0
   -7.1850   -0.7070    0.7850 C   0  0  0  0  0  0  0  0  0  0  0  0
   -6.8410    0.6380    0.5910 C   0  0  0  0  0  0  0  0  0  0  0  0
   -5.5610    0.9900    0.2570 C   0  0  0  0  0  0  0  0  0  0  0  0
   -5.4960    2.4660    0.1420 C   0  0  0  0  0  0  0  0  0  0  0  0
   -4.4680    3.1400    0.3230 O   0  0  0  0  0  0  0  0  0  0  0  0
   -6.9040    2.8360   -0.2260 C   0  0  0  0  0  0  0  0  0  0  0  0
   -7.6430    1.8810    0.7190 C   0  0  0  0  0  0  0  0  0  0  0  0
   -2.2980   -0.4780    0.3160 N   0  0  0  0  0  0  0  0  0  0  0  0
   -1.0180   -0.3840   -0.0280 C   0  0  0  0  0  0  0  0  0  0  0  0
    7.4120    2.3280    0.1440 O   0  0  0  0  0  0  0  0  0  0  0  0
    8.6730    1.7040   -0.0060 C   0  0  0  0  0  0  0  0  0  0  0  0
    8.4240    0.4470    0.8160 C   0  0  0  0  0  0  0  0  0  0  0  0
  1  2  1  0
  2  3  1  0
  3  4  2  0
  3  8  1  0
  4  5  1  0
  5  6  2  0
  5 32  1  0
  6  7  1  0
  6 30  1  0
  7  8  2  0
  8  9  1  0
  9 10  1  0
 10 11  1  0
 11 12  2  0
 11 13  1  0
 13 14  2  0
 13 29  1  0
 14 15  1  0
 15 16  2  0
 16 17  1  0
 16 28  1  0
 17 18  2  0
 17 23  1  0
 18 19  1  0
 19 20  1  0
 19 21  2  0
 21 22  1  0
 22 23  2  0
 22 27  1  0
 23 24  1  0
 24 25  2  0
 24 26  1  0
 26 27  1  0
 28 29  2  0
 30 31  1  0
 31 32  1  0
M  END
