
     RDKit          3D

 32 36  0  0  0  0  0  0  0  0999 V2000
    6.2460    3.0350    0.3980 C   0  0  0  0  0  0  0  0  0  0  0  0
    5.4190    2.6320   -0.7570 C   0  0  0  0  0  0  0  0  0  0  0  0
    5.7360    2.9980   -1.8990 O   0  0  0  0  0  0  0  0  0  0  0  0
    4.2380    1.8080   -0.5410 C   0  0  0  0  0  0  0  0  0  0  0  0
    3.9190    1.4220    0.7370 C   0  0  0  0  0  0  0  0  0  0  0  0
    2.8070    0.6460    0.9480 C   0  0  0  0  0  0  0  0  0  0  0  0
    2.0070    0.2480   -0.1000 C   0  0  0  0  0  0  0  0  0  0  0  0
    0.8470   -0.5680    0.1670 N   0  0  0  0  0  0  0  0  0  0  0  0
   -0.3440   -0.0020    0.2960 N   0  0  0  0  0  0  0  0  0  0  0  0
   -1.4590   -0.7060    0.5440 C   0  0  0  0  0  0  0  0  0  0  0  0
   -2.7960   -0.1040    0.6920 C   0  0  1  0  0  0  0  0  0  0  0  0
   -2.7670    1.4010    0.5960 C   0  0  0  0  0  0  0  0  0  0  0  0
   -3.9660    1.8760   -0.1620 C   0  0  0  0  0  0  0  0  0  0  0  0
   -5.1680    1.0100   -0.0270 C   0  0  2  0  0  0  0  0  0  0  0  0
   -6.2540    1.4700   -1.0040 C   0  0  0  0  0  0  0  0  0  0  0  0
   -7.2470    1.2750    0.1380 C   0  0  0  0  0  0  0  0  0  0  0  0
   -6.0840    1.3030    1.1370 C   0  0  0  0  0  0  0  0  0  0  0  0
   -4.9490   -0.3330   -0.1830 O   0  0  0  0  0  0  0  0  0  0  0  0
   -3.6350   -0.5700   -0.5040 C   0  0  0  0  0  0  0  0  0  0  0  0
   -1.3560   -2.0750    0.6680 C   0  0  0  0  0  0  0  0  0  0  0  0
   -2.3800   -2.8030    0.9040 O   0  0  0  0  0  0  0  0  0  0  0  0
   -0.1000   -2.6490    0.5290 C   0  0  0  0  0  0  0  0  0  0  0  0
    1.0280   -1.8960    0.2740 C   0  0  0  0  0  0  0  0  0  0  0  0
    2.3120   -2.5540    0.1390 C   0  0  0  0  0  0  0  0  0  0  0  0
    2.7650   -2.9990   -1.0820 C   0  0  0  0  0  0  0  0  0  0  0  0
    4.0030   -3.6310   -1.1990 C   0  0  0  0  0  0  0  0  0  0  0  0
    4.7850   -3.8220   -0.1280 N   0  0  0  0  0  0  0  0  0  0  0  0
    4.3700   -3.3990    1.0780 C   0  0  0  0  0  0  0  0  0  0  0  0
    5.1270   -3.5950    2.0570 O   0  0  0  0  0  0  0  0  0  0  0  0
    3.1300   -2.7600    1.2270 C   0  0  0  0  0  0  0  0  0  0  0  0
    2.3220    0.6320   -1.3860 C   0  0  0  0  0  0  0  0  0  0  0  0
    3.4340    1.4110   -1.6130 C   0  0  0  0  0  0  0  0  0  0  0  0
  1  2  1  0
  2  3  2  0
  2  4  1  0
  4  5  2  0
  4 32  1  0
  5  6  1  0
  6  7  2  0
  7  8  1  0
  7 31  1  0
  8  9  1  0
  8 23  1  0
  9 10  2  0
 11 10  1  6
 10 20  1  0
 11 12  1  0
 11 19  1  0
 12 13  1  0
 14 13  1  1
 14 15  1  0
 14 17  1  0
 14 18  1  0
 15 16  1  0
 16 17  1  0
 18 19  1  0
 20 21  2  0
 20 22  1  0
 22 23  2  0
 23 24  1  0
 24 25  1  0
 24 30  2  0
 25 26  2  0
 26 27  1  0
 27 28  1  0
 28 29  2  0
 28 30  1  0
 31 32  2  0
M  END
