
     RDKit          3D

 32 36  0  0  0  0  0  0  0  0999 V2000
   -2.6100    1.7790    2.4240 C   0  0  0  0  0  0  0  0  0  0  0  0
   -2.6810    0.7950    1.3540 N   0  0  0  0  0  0  0  0  0  0  0  0
   -1.5620    0.2650    0.8180 C   0  0  0  0  0  0  0  0  0  0  0  0
   -0.4540    0.6330    1.2580 O   0  0  0  0  0  0  0  0  0  0  0  0
   -1.6210   -0.6630   -0.1900 C   0  0  0  0  0  0  0  0  0  0  0  0
   -2.8600   -1.0940   -0.6960 C   0  0  0  0  0  0  0  0  0  0  0  0
   -3.9980   -0.5610   -0.1580 C   0  0  0  0  0  0  0  0  0  0  0  0
   -5.2550   -0.9190   -0.5950 C   0  0  0  0  0  0  0  0  0  0  0  0
   -6.4060   -0.3600   -0.0360 C   0  0  0  0  0  0  0  0  0  0  0  0
   -6.2340    0.5570    0.9640 C   0  0  0  0  0  0  0  0  0  0  0  0
   -4.9950    0.9400    1.4270 C   0  0  0  0  0  0  0  0  0  0  0  0
   -3.8640    0.3860    0.8710 C   0  0  0  0  0  0  0  0  0  0  0  0
   -2.8750   -2.1190   -1.7450 C   0  0  0  0  0  0  0  0  0  0  0  0
   -1.8780   -3.1970   -1.2710 C   0  0  0  0  0  0  0  0  0  0  0  0
   -0.4860   -2.6990   -1.2380 C   0  0  0  0  0  0  0  0  0  0  0  0
   -0.4490   -1.2500   -0.8280 C   0  0  0  0  0  0  0  0  0  0  0  0
    0.5520   -0.5530   -1.0480 N   0  0  0  0  0  0  0  0  0  0  0  0
    1.0070    0.7270   -0.8910 C   0  0  0  0  0  0  0  0  0  0  0  0
    2.2760    0.9150   -0.4290 C   0  0  0  0  0  0  0  0  0  0  0  0
    3.0040   -0.2630   -0.1560 C   0  0  0  0  0  0  0  0  0  0  0  0
    2.4020   -1.4030   -0.3680 O   0  0  0  0  0  0  0  0  0  0  0  0
    4.3270   -0.4200    0.3270 N   0  0  0  0  0  0  0  0  0  0  0  0
    4.9500   -1.6840    0.5620 C   0  0  0  0  0  0  0  0  0  0  0  0
    4.5300   -2.9060    0.4170 C   0  0  0  0  0  0  0  0  0  0  0  0
    5.5890   -3.7700    0.8090 O   0  0  0  0  0  0  0  0  0  0  0  0
    6.2420   -3.0520    1.7570 O   0  0  0  0  0  0  0  0  0  0  0  0
    6.3620   -1.8410    1.0770 C   0  0  0  0  0  0  0  0  0  0  0  0
    2.6540    2.3160   -0.3010 C   0  0  0  0  0  0  0  0  0  0  0  0
    3.7390    2.9240    0.0910 C   0  0  0  0  0  0  0  0  0  0  0  0
    3.5960    4.3980    0.0290 C   0  0  0  0  0  0  0  0  0  0  0  0
    2.3990    4.6600   -0.4090 C   0  0  0  0  0  0  0  0  0  0  0  0
    1.6810    3.4410   -0.6630 C   0  0  0  0  0  0  0  0  0  0  0  0
  1  2  1  0
  2  3  1  0
  2 12  1  0
  3  4  2  0
  3  5  1  0
  5  6  2  0
  5 16  1  0
  6  7  1  0
  6 13  1  0
  7  8  2  0
  7 12  1  0
  8  9  1  0
  9 10  2  0
 10 11  1  0
 11 12  2  0
 13 14  1  0
 14 15  1  0
 15 16  1  0
 16 17  2  3
 17 18  1  0
 18 19  2  3
 19 20  1  0
 19 28  1  0
 20 21  2  0
 20 22  1  0
 22 23  1  0
 23 24  2  0
 23 27  1  0
 24 25  1  0
 25 26  1  0
 26 27  1  0
 28 29  2  0
 28 32  1  0
 29 30  1  0
 30 31  2  0
 31 32  1  0
M  END
