
     RDKit          3D

 32 36  0  0  0  0  0  0  0  0999 V2000
    4.2030   -2.4190   -1.8040 C   0  0  0  0  0  0  0  0  0  0  0  0
    3.7080   -1.7820   -0.6490 O   0  0  0  0  0  0  0  0  0  0  0  0
    2.3570   -1.6910   -0.3300 C   0  0  0  0  0  0  0  0  0  0  0  0
    1.4060   -2.2600   -1.1910 C   0  0  0  0  0  0  0  0  0  0  0  0
    0.0630   -2.1910   -0.9030 C   0  0  0  0  0  0  0  0  0  0  0  0
   -0.9630   -2.7960   -1.8160 C   0  0  0  0  0  0  0  0  0  0  0  0
   -0.3150   -1.5490    0.2510 C   0  0  0  0  0  0  0  0  0  0  0  0
   -1.6660   -1.4870    0.5300 O   0  0  0  0  0  0  0  0  0  0  0  0
   -2.5400   -0.5080    0.1250 C   0  0  0  0  0  0  0  0  0  0  0  0
   -2.2240    0.5890   -0.6370 C   0  0  0  0  0  0  0  0  0  0  0  0
   -3.1570    1.5320   -1.0070 C   0  0  0  0  0  0  0  0  0  0  0  0
   -4.4810    1.4050   -0.6140 C   0  0  0  0  0  0  0  0  0  0  0  0
   -4.8300    0.3150    0.1510 C   0  0  0  0  0  0  0  0  0  0  0  0
   -3.8630   -0.6250    0.5120 C   0  0  0  0  0  0  0  0  0  0  0  0
   -4.2940   -1.7890    1.3430 C   0  0  0  0  0  0  0  0  0  0  0  0
   -6.2310    0.1240    0.5680 C   0  0  0  0  0  0  0  0  0  0  0  0
   -6.5970   -0.8310    1.2520 O   0  0  0  0  0  0  0  0  0  0  0  0
   -7.1360    1.1160    0.1270 O   0  0  0  0  0  0  0  0  0  0  0  0
   -6.8290    1.7110   -1.1500 C   0  0  0  0  0  0  0  0  0  0  0  0
   -5.5000    2.4050   -0.9720 C   0  0  0  0  0  0  0  0  0  0  0  0
    0.6300   -0.9920    1.0900 C   0  0  0  0  0  0  0  0  0  0  0  0
    0.2000   -0.3100    2.3370 C   0  0  0  0  0  0  0  0  0  0  0  0
    2.0040   -1.0410    0.8320 C   0  0  0  0  0  0  0  0  0  0  0  0
    2.9870   -0.4240    1.7540 C   0  0  0  0  0  0  0  0  0  0  0  0
    3.5110    0.8820    1.3570 C   0  0  0  0  0  0  0  0  0  0  0  0
    3.0430    2.1030    1.8700 C   0  0  0  0  0  0  0  0  0  0  0  0
    3.7150    3.0850    1.2940 N   0  0  0  0  0  0  0  0  0  0  0  0
    4.5980    2.6080    0.4340 N   0  0  0  0  0  0  0  0  0  0  0  0
    4.4800    1.2530    0.4680 C   0  0  0  0  0  0  0  0  0  0  0  0
    5.4600    0.7380   -0.4490 N   0  0  0  0  0  0  0  0  0  0  0  0
    5.7240    1.7950   -1.4070 C   0  0  0  0  0  0  0  0  0  0  0  0
    5.6110    3.0130   -0.5050 C   0  0  0  0  0  0  0  0  0  0  0  0
  1  2  1  0
  2  3  1  0
  3  4  2  0
  3 23  1  0
  4  5  1  0
  5  6  1  0
  5  7  2  0
  7  8  1  0
  7 21  1  0
  8  9  1  0
  9 10  2  0
  9 14  1  0
 10 11  1  0
 11 12  2  0
 12 13  1  0
 12 20  1  0
 13 14  2  0
 13 16  1  0
 14 15  1  0
 16 17  2  0
 16 18  1  0
 18 19  1  0
 19 20  1  0
 21 22  1  0
 21 23  2  0
 23 24  1  0
 24 25  1  0
 25 26  1  0
 25 29  2  0
 26 27  2  0
 27 28  1  0
 28 29  1  0
 28 32  1  0
 29 30  1  0
 30 31  1  0
 31 32  1  0
M  END
