
     RDKit          3D

 33 37  0  0  0  0  0  0  0  0999 V2000
   -5.9930   -3.7830    0.9060 C   0  0  0  0  0  0  0  0  0  0  0  0
   -5.1690   -2.5590    0.8130 C   0  0  0  0  0  0  0  0  0  0  0  0
   -3.9020   -2.6070    1.3870 C   0  0  0  0  0  0  0  0  0  0  0  0
   -3.1050   -1.4890    1.3130 C   0  0  0  0  0  0  0  0  0  0  0  0
   -3.6070   -0.3880    0.6720 C   0  0  0  0  0  0  0  0  0  0  0  0
   -2.8420    0.7390    0.6120 C   0  0  0  0  0  0  0  0  0  0  0  0
   -3.3050    1.9030    0.0240 C   0  0  0  0  0  0  0  0  0  0  0  0
   -4.5920    1.9110   -0.5340 C   0  0  0  0  0  0  0  0  0  0  0  0
   -5.3710    0.7770   -0.4900 C   0  0  0  0  0  0  0  0  0  0  0  0
   -6.7590    0.7760   -1.0930 C   0  0  0  0  0  0  0  0  0  0  0  0
   -4.8790   -0.3590    0.1080 C   0  0  0  0  0  0  0  0  0  0  0  0
   -5.6350   -1.4600    0.1940 N   0  0  0  0  0  0  0  0  0  0  0  0
   -2.4790    3.1210    0.0660 C   0  0  2  0  0  0  0  0  0  0  0  0
   -2.4340    3.6680   -1.2540 O   0  0  0  0  0  0  0  0  0  0  0  0
   -1.0860    2.8880    0.5000 C   0  0  0  0  0  0  0  0  0  0  0  0
   -1.0190    1.9130    1.6850 C   0  0  0  0  0  0  0  0  0  0  0  0
   -1.4930    0.6570    1.0360 N   0  0  0  0  0  0  0  0  0  0  0  0
   -0.5850   -0.3420    0.7390 C   0  0  0  0  0  0  0  0  0  0  0  0
    0.3760   -0.5130    1.5930 O   0  0  0  0  0  0  0  0  0  0  0  0
   -0.5300   -1.2370   -0.4220 C   0  0  0  0  0  0  0  0  0  0  0  0
    0.5810   -2.1270   -0.3770 O   0  0  0  0  0  0  0  0  0  0  0  0
    1.8490   -1.6250   -0.3660 C   0  0  0  0  0  0  0  0  0  0  0  0
    2.9650   -2.4540   -0.3190 C   0  0  0  0  0  0  0  0  0  0  0  0
    4.2450   -1.9380   -0.3090 C   0  0  0  0  0  0  0  0  0  0  0  0
    4.4210   -0.5830   -0.3470 C   0  0  0  0  0  0  0  0  0  0  0  0
    5.6920    0.0330   -0.3420 N   0  0  0  0  0  0  0  0  0  0  0  0
    5.8260    1.4660   -0.3740 C   0  0  0  0  0  0  0  0  0  0  0  0
    7.1300    1.7980    0.3330 C   0  0  0  0  0  0  0  0  0  0  0  0
    8.2310    1.2260   -0.2550 O   0  0  0  0  0  0  0  0  0  0  0  0
    7.9970    0.0470   -0.9160 C   0  0  0  0  0  0  0  0  0  0  0  0
    6.8810   -0.7810   -0.3030 C   0  0  0  0  0  0  0  0  0  0  0  0
    3.3080    0.1960   -0.3930 N   0  0  0  0  0  0  0  0  0  0  0  0
    2.0950   -0.3070   -0.4010 N   0  0  0  0  0  0  0  0  0  0  0  0
  1  2  1  0
  2  3  2  0
  2 12  1  0
  3  4  1  0
  4  5  2  0
  5  6  1  0
  5 11  1  0
  6  7  2  0
  6 17  1  0
  7  8  1  0
  7 13  1  0
  8  9  2  0
  9 10  1  0
  9 11  1  0
 11 12  2  0
 13 14  1  6
 13 15  1  0
 15 16  1  0
 16 17  1  0
 17 18  1  0
 18 19  2  0
 18 20  1  0
 20 21  1  0
 21 22  1  0
 22 23  2  0
 22 33  1  0
 23 24  1  0
 24 25  2  0
 25 26  1  0
 25 32  1  0
 26 27  1  0
 26 31  1  0
 27 28  1  0
 28 29  1  0
 29 30  1  0
 30 31  1  0
 32 33  2  0
M  END
