
     RDKit          3D

  7  7  0  0  0  0  0  0  0  0999 V2000
    2.5910   -0.0470    0.2450 C   0  0  0  0  0  0  0  0  0  0  0  0
    1.1050    0.0540    0.6240 C   0  0  0  0  0  0  0  0  0  0  0  0
    0.3050    0.1480   -0.6330 C   0  0  0  0  0  0  0  0  0  0  0  0
   -1.1570    0.2560   -0.4680 C   0  0  2  0  0  0  0  0  0  0  0  0
   -1.8430    0.3420   -1.7040 O   0  0  0  0  0  0  0  0  0  0  0  0
   -1.8660    0.6900    0.7190 C   0  0  0  0  0  0  0  0  0  0  0  0
   -1.7500   -0.8140    0.4740 C   0  0  0  0  0  0  0  0  0  0  0  0
  1  2  1  0
  2  3  1  0
  3  4  1  0
  4  5  1  6
  4  6  1  0
  4  7  1  0
  6  7  1  0
M  END
