
     RDKit          3D

  7  7  0  0  0  0  0  0  0  0999 V2000
    2.7840    0.3780   -0.7750 O   0  0  0  0  0  0  0  0  0  0  0  0
    1.8970   -0.3530   -0.0210 C   0  0  0  0  0  0  0  0  0  0  0  0
    0.4730   -0.2700   -0.5100 C   0  0  1  0  0  0  0  0  0  0  0  0
   -0.3560   -1.1340    0.4390 C   0  0  0  0  0  0  0  0  0  0  0  0
   -1.7460   -0.6270    0.2600 C   0  0  0  0  0  0  0  0  0  0  0  0
   -1.5260    0.8870    0.2200 C   0  0  0  0  0  0  0  0  0  0  0  0
   -0.1380    1.0860   -0.3420 C   0  0  0  0  0  0  0  0  0  0  0  0
  1  2  1  0
  3  2  1  1
  3  4  1  0
  3  7  1  0
  4  5  1  0
  5  6  1  0
  6  7  1  0
M  END
