
     RDKit          3D

  6  5  0  0  0  0  0  0  0  0999 V2000
   -0.7980    1.0940   -0.8850 C   0  0  0  0  0  0  0  0  0  0  0  0
   -0.4340    0.0050    0.0870 C   0  0  0  0  0  0  0  0  0  0  0  0
   -1.5040   -0.5820    0.9260 C   0  0  0  0  0  0  0  0  0  0  0  0
    0.8120   -0.4080    0.1810 C   0  0  0  0  0  0  0  0  0  0  0  0
    1.8910    0.1740   -0.6560 C   0  0  0  0  0  0  0  0  0  0  0  0
    1.1000   -1.4130    1.0900 O   0  0  0  0  0  0  0  0  0  0  0  0
  1  2  1  0
  2  3  1  0
  2  4  2  3
  4  5  1  0
  4  6  1  0
M  END
