
     RDKit          3D

 25 27  0  0  0  0  0  0  0  0999 V2000
    6.9320   -1.6490    0.1440 C   0  0  0  0  0  0  0  0  0  0  0  0
    6.3030   -0.4930    0.8840 C   0  0  1  0  0  0  0  0  0  0  0  0
    7.2580    0.6610    1.0490 C   0  0  0  0  0  0  0  0  0  0  0  0
    5.0630   -0.0370    0.1540 C   0  0  1  0  0  0  0  0  0  0  0  0
    5.3490    0.4180   -1.2420 C   0  0  0  0  0  0  0  0  0  0  0  0
    4.0050   -1.1090    0.1850 C   0  0  0  0  0  0  0  0  0  0  0  0
    2.8230   -0.5850   -0.5510 C   0  0  0  0  0  0  0  0  0  0  0  0
    1.8290    0.1050    0.0250 N   0  0  0  0  0  0  0  0  0  0  0  0
    0.9330    0.4220   -0.9160 C   0  0  0  0  0  0  0  0  0  0  0  0
   -0.2990    1.1680   -0.7220 C   0  0  0  0  0  0  0  0  0  0  0  0
   -1.4450    0.3110   -0.4040 N   0  0  0  0  0  0  0  0  0  0  0  0
   -1.1860   -0.4060    0.7930 C   0  0  0  0  0  0  0  0  0  0  0  0
   -2.3290   -0.6480    1.6900 C   0  0  0  0  0  0  0  0  0  0  0  0
   -3.4460    0.2120    1.5550 N   0  0  0  0  0  0  0  0  0  0  0  0
   -3.8340    0.4980    0.1920 C   0  0  2  0  0  0  0  0  0  0  0  0
   -4.8580    1.5850    0.2240 C   0  0  0  0  0  0  0  0  0  0  0  0
   -5.9790    1.4320   -0.7430 C   0  0  0  0  0  0  0  0  0  0  0  0
   -6.8840    0.3980   -0.2860 N   0  0  0  0  0  0  0  0  0  0  0  0
   -6.5360   -0.8780    0.2180 C   0  0  0  0  0  0  0  0  0  0  0  0
   -7.4150   -1.4500    0.9030 O   0  0  0  0  0  0  0  0  0  0  0  0
   -5.2400   -1.5870    0.0110 C   0  0  0  0  0  0  0  0  0  0  0  0
   -4.2020   -0.7010   -0.5960 C   0  0  0  0  0  0  0  0  0  0  0  0
   -2.5930    1.1080   -0.4640 C   0  0  0  0  0  0  0  0  0  0  0  0
    1.4030   -0.0860   -2.0620 N   0  0  0  0  0  0  0  0  0  0  0  0
    2.5500   -0.6950   -1.8310 O   0  0  0  0  0  0  0  0  0  0  0  0
  2  1  1  6
  2  3  1  0
  2  4  1  0
  4  5  1  6
  4  6  1  0
  6  7  1  0
  7  8  2  0
  7 25  1  0
  8  9  1  0
  9 10  1  0
  9 24  2  0
 10 11  1  0
 11 12  1  0
 11 23  1  0
 12 13  1  0
 13 14  1  0
 14 15  1  0
 15 16  1  1
 15 22  1  0
 15 23  1  0
 16 17  1  0
 17 18  1  0
 18 19  1  0
 19 20  2  0
 19 21  1  0
 21 22  1  0
 24 25  1  0
M  CHG  1  14   1
M  END
