
     RDKit          3D

 26 28  0  0  0  0  0  0  0  0999 V2000
    3.9270   -1.1020   -1.3340 O   0  0  0  0  0  0  0  0  0  0  0  0
    3.5880   -0.2490   -0.4320 C   0  0  0  0  0  0  0  0  0  0  0  0
    2.2350    0.1260   -0.1710 C   0  0  0  0  0  0  0  0  0  0  0  0
    1.4220   -0.4760   -1.3400 C   0  0  0  0  0  0  0  0  0  0  0  0
    0.0840   -0.0750   -1.1100 N   0  0  0  0  0  0  0  0  0  0  0  0
   -0.7340   -0.3710   -0.0040 C   0  0  0  0  0  0  0  0  0  0  0  0
   -0.2340   -1.0810    0.9070 O   0  0  0  0  0  0  0  0  0  0  0  0
   -2.0580    0.0740    0.1420 N   0  0  0  0  0  0  0  0  0  0  0  0
   -2.6770    0.8800   -0.8640 C   0  0  0  0  0  0  0  0  0  0  0  0
   -4.1640    0.9610   -0.7840 C   0  0  0  0  0  0  0  0  0  0  0  0
   -4.7270    0.9730    0.5250 N   0  0  1  0  0  0  0  0  0  0  0  0
   -5.6420   -0.1390    0.7540 C   0  0  0  0  0  0  0  0  0  0  0  0
   -7.0800    0.2540    0.5000 C   0  0  1  0  0  0  0  0  0  0  0  0
   -7.5460    0.7360   -0.7990 C   0  0  0  0  0  0  0  0  0  0  0  0
   -7.8370   -0.7070   -0.3890 C   0  0  0  0  0  0  0  0  0  0  0  0
   -3.7400    0.9210    1.5700 C   0  0  0  0  0  0  0  0  0  0  0  0
   -2.8320   -0.2660    1.3140 C   0  0  0  0  0  0  0  0  0  0  0  0
    4.7210    0.2490    0.2220 N   0  0  0  0  0  0  0  0  0  0  0  0
    5.9870   -0.2880   -0.1120 C   0  0  0  0  0  0  0  0  0  0  0  0
    6.8520    0.6100   -0.3160 N   0  0  0  0  0  0  0  0  0  0  0  0
    8.1550    0.2290   -0.6880 C   0  0  0  0  0  0  0  0  0  0  0  0
    8.7190    0.7060   -1.7540 C   0  0  0  0  0  0  0  0  0  0  0  0
    8.1270    1.5820   -2.5690 F   0  0  0  0  0  0  0  0  0  0  0  0
    8.8270   -0.7520    0.1820 C   0  0  0  0  0  0  0  0  0  0  0  0
    7.8340   -1.8240    0.4390 C   0  0  0  0  0  0  0  0  0  0  0  0
    6.5600   -1.6010    0.3030 C   0  0  0  0  0  0  0  0  0  0  0  0
  1  2  2  0
  2  3  1  0
  2 18  1  0
  3  4  1  0
  4  5  1  0
  5  6  1  0
  6  7  2  0
  6  8  1  0
  8  9  1  0
  8 17  1  0
  9 10  1  0
 10 11  1  0
 11 12  1  6
 11 16  1  0
 13 12  1  6
 13 14  1  0
 13 15  1  0
 14 15  1  0
 16 17  1  0
 18 19  1  0
 19 20  2  0
 19 26  1  0
 20 21  1  0
 21 22  2  3
 21 24  1  0
 22 23  1  0
 24 25  1  0
 25 26  2  0
M  CHG  1  11   1
M  END
