
     RDKit          3D

 25 27  0  0  0  0  0  0  0  0999 V2000
    7.6690    0.0600   -2.3110 C   0  0  0  0  0  0  0  0  0  0  0  0
    6.2070   -0.1280   -2.5000 C   0  0  0  0  0  0  0  0  0  0  0  0
    5.7970   -0.4910   -3.6330 O   0  0  0  0  0  0  0  0  0  0  0  0
    5.2610    0.0650   -1.5230 O   0  0  0  0  0  0  0  0  0  0  0  0
    3.9670   -0.0720   -1.5850 N   0  0  0  0  0  0  0  0  0  0  0  0
    3.0690   -0.2080   -0.7280 C   0  0  0  0  0  0  0  0  0  0  0  0
    1.7560   -0.3300   -1.1620 N   0  0  0  0  0  0  0  0  0  0  0  0
    0.7420   -0.4780   -0.3060 C   0  0  0  0  0  0  0  0  0  0  0  0
   -0.5880   -0.6170   -0.8140 N   0  0  0  0  0  0  0  0  0  0  0  0
   -1.7020   -0.7180    0.1000 C   0  0  1  0  0  0  0  0  0  0  0  0
   -1.8900    0.5960    0.7810 C   0  0  0  0  0  0  0  0  0  0  0  0
   -2.9060    1.3020   -0.1280 C   0  0  2  0  0  0  0  0  0  0  0  0
   -3.6310    2.2960    0.6800 C   0  0  0  0  0  0  0  0  0  0  0  0
   -3.6520    0.3040   -0.7770 N   0  0  0  0  0  0  0  0  0  0  0  0
   -5.0590    0.2940   -0.6190 C   0  0  2  0  0  0  0  0  0  0  0  0
   -5.5250    0.0700    0.8100 C   0  0  0  0  0  0  0  0  0  0  0  0
   -5.6410   -0.8280   -1.4580 C   0  0  0  0  0  0  0  0  0  0  0  0
   -2.9960   -0.9530   -0.6230 C   0  0  0  0  0  0  0  0  0  0  0  0
    0.9950   -0.5110    1.0080 N   0  0  0  0  0  0  0  0  0  0  0  0
    2.2470   -0.3990    1.5250 C   0  0  0  0  0  0  0  0  0  0  0  0
    2.4260   -0.4410    2.8840 C   0  0  0  0  0  0  0  0  0  0  0  0
    3.6900   -0.3280    3.3950 C   0  0  0  0  0  0  0  0  0  0  0  0
    4.7590   -0.1730    2.5430 C   0  0  0  0  0  0  0  0  0  0  0  0
    4.5720   -0.1300    1.1520 C   0  0  0  0  0  0  0  0  0  0  0  0
    3.2960   -0.2450    0.6430 C   0  0  0  0  0  0  0  0  0  0  0  0
  1  2  1  0
  2  3  2  0
  2  4  1  0
  4  5  1  0
  5  6  2  3
  6  7  1  0
  6 25  1  0
  7  8  1  0
  8  9  1  0
  8 19  2  0
 10  9  1  6
 10 11  1  0
 10 18  1  0
 11 12  1  0
 12 13  1  1
 12 14  1  0
 14 15  1  0
 14 18  1  0
 15 16  1  1
 15 17  1  0
 19 20  1  0
 20 21  2  0
 20 25  1  0
 21 22  1  0
 22 23  2  0
 23 24  1  0
 24 25  2  0
M  CHG  1  19   1
M  END
