
     RDKit          3D

 26 28  0  0  0  0  0  0  0  0999 V2000
   -5.2900   -0.2040   -1.1260 C   0  0  0  0  0  0  0  0  0  0  0  0
   -4.2690   -0.1450   -0.3120 C   0  0  0  0  0  0  0  0  0  0  0  0
   -3.6610   -1.3730    0.1510 C   0  0  0  0  0  0  0  0  0  0  0  0
   -4.3280   -2.3950    0.6030 C   0  0  0  0  0  0  0  0  0  0  0  0
   -5.7980   -2.4000    0.6930 C   0  0  0  0  0  0  0  0  0  0  0  0
   -3.6680   -3.5360    1.0180 F   0  0  0  0  0  0  0  0  0  0  0  0
   -2.1360   -1.4000    0.0970 C   0  0  0  0  0  0  0  0  0  0  0  0
   -1.7510   -0.1940   -0.5340 N   0  0  0  0  0  0  0  0  0  0  0  0
   -0.4250   -0.1630   -1.0580 C   0  0  0  0  0  0  0  0  0  0  0  0
    0.6520   -0.1810   -0.0320 C   0  0  0  0  0  0  0  0  0  0  0  0
    1.9390   -0.1440   -0.6890 N   0  0  0  0  0  0  0  0  0  0  0  0
    3.1700   -0.1490    0.0150 C   0  0  0  0  0  0  0  0  0  0  0  0
    3.1520   -0.1870    1.2600 O   0  0  0  0  0  0  0  0  0  0  0  0
    4.4450   -0.1100   -0.7300 C   0  0  0  0  0  0  0  0  0  0  0  0
    4.5930   -0.0700   -2.0240 O   0  0  0  0  0  0  0  0  0  0  0  0
    5.8670   -0.0430   -2.3630 C   0  0  0  0  0  0  0  0  0  0  0  0
    6.6330   -0.0680   -1.1940 C   0  0  0  0  0  0  0  0  0  0  0  0
    7.8790   -0.0670   -0.6730 N   0  0  0  0  0  0  0  0  0  0  0  0
    7.7220   -0.1090    0.6600 C   0  0  0  0  0  0  0  0  0  0  0  0
    8.8270   -0.1270    1.6490 C   0  0  0  0  0  0  0  0  0  0  0  0
    6.4040   -0.1350    0.9720 N   0  0  0  0  0  0  0  0  0  0  0  0
    5.7070   -0.1100   -0.1740 C   0  0  0  0  0  0  0  0  0  0  0  0
   -2.1510    1.0090    0.1380 C   0  0  0  0  0  0  0  0  0  0  0  0
   -3.6580    1.1270    0.1570 C   0  0  1  0  0  0  0  0  0  0  0  0
   -4.1100    2.2820   -0.5920 N   0  0  0  0  0  0  0  0  0  0  0  0
   -5.2590    2.8490    0.0780 C   0  0  0  0  0  0  0  0  0  0  0  0
  1  2  2  0
  2  3  1  0
  2 24  1  0
  3  4  2  3
  3  7  1  0
  4  5  1  0
  4  6  1  0
  7  8  1  0
  8  9  1  0
  8 23  1  0
  9 10  1  0
 10 11  1  0
 11 12  1  0
 12 13  2  0
 12 14  1  0
 14 15  1  0
 14 22  2  0
 15 16  1  0
 16 17  2  0
 17 18  1  0
 17 22  1  0
 18 19  1  0
 19 20  1  0
 19 21  2  0
 21 22  1  0
 23 24  1  0
 24 25  1  6
 25 26  1  0
M  CHG  1  25   1
M  END
