
     RDKit          3D

 26 27  0  0  0  0  0  0  0  0999 V2000
    5.9670    2.1630   -2.2390 C   0  0  0  0  0  0  0  0  0  0  0  0
    4.9800    1.5760   -1.4240 O   0  0  0  0  0  0  0  0  0  0  0  0
    4.4610    2.1780   -0.3090 C   0  0  0  0  0  0  0  0  0  0  0  0
    4.9180    3.3300   -0.0390 O   0  0  0  0  0  0  0  0  0  0  0  0
    3.4670    1.6090    0.5480 C   0  0  0  0  0  0  0  0  0  0  0  0
    2.8930    0.4290    0.4050 C   0  0  0  0  0  0  0  0  0  0  0  0
    3.2560   -0.4560   -0.7330 C   0  0  0  0  0  0  0  0  0  0  0  0
    1.9460   -0.0460    1.3390 N   0  0  0  0  0  0  0  0  0  0  0  0
    2.3950   -0.2470    2.7200 C   0  0  0  0  0  0  0  0  0  0  0  0
    0.6280   -0.3270    0.9550 C   0  0  0  0  0  0  0  0  0  0  0  0
   -0.3010    0.6470    0.7870 N   0  0  0  0  0  0  0  0  0  0  0  0
   -1.5750    0.4010    0.4660 C   0  0  0  0  0  0  0  0  0  0  0  0
   -2.5740    1.4480    0.2150 C   0  0  0  0  0  0  0  0  0  0  0  0
   -2.4450    2.7410    0.0560 C   0  0  0  0  0  0  0  0  0  0  0  0
   -3.7540    3.3340   -0.1670 C   0  0  1  0  0  0  0  0  0  0  0  0
   -3.8850    3.9510   -1.5090 N   0  0  0  0  0  0  0  0  0  0  0  0
   -4.7030    2.2020   -0.0830 C   0  0  0  0  0  0  0  0  0  0  0  0
   -6.0660    2.3220   -0.2250 F   0  0  0  0  0  0  0  0  0  0  0  0
   -4.0230    1.1020    0.1290 C   0  0  0  0  0  0  0  0  0  0  0  0
   -1.9050   -0.8910    0.3120 N   0  0  0  0  0  0  0  0  0  0  0  0
   -1.0170   -1.9030    0.4640 C   0  0  0  0  0  0  0  0  0  0  0  0
   -1.4560   -3.3050    0.2290 C   0  0  2  0  0  0  0  0  0  0  0  0
   -0.8870   -3.7020   -1.1010 C   0  0  0  0  0  0  0  0  0  0  0  0
   -2.9780   -3.3580    0.2110 C   0  0  0  0  0  0  0  0  0  0  0  0
   -0.9530   -4.2460    1.2760 C   0  0  0  0  0  0  0  0  0  0  0  0
    0.2240   -1.6230    0.7780 N   0  0  0  0  0  0  0  0  0  0  0  0
  1  2  1  0
  2  3  1  0
  3  4  2  0
  3  5  1  0
  5  6  2  3
  6  7  1  0
  6  8  1  0
  8  9  1  0
  8 10  1  0
 10 11  2  0
 10 26  1  0
 11 12  1  0
 12 13  1  0
 12 20  2  0
 13 14  2  0
 13 19  1  0
 14 15  1  0
 15 16  1  6
 15 17  1  0
 17 18  1  0
 17 19  2  0
 20 21  1  0
 21 22  1  0
 21 26  2  0
 22 23  1  6
 22 24  1  0
 22 25  1  0
M  CHG  1  16   1
M  END
