
     RDKit          3D

 25 27  0  0  0  0  0  0  0  0999 V2000
   -6.2440    1.5670    1.1820 C   0  0  0  0  0  0  0  0  0  0  0  0
   -5.6640    0.1860    1.0080 C   0  0  0  0  0  0  0  0  0  0  0  0
   -4.6630    0.1960   -0.0910 C   0  0  0  0  0  0  0  0  0  0  0  0
   -3.2950    0.1660    0.2150 C   0  0  0  0  0  0  0  0  0  0  0  0
   -2.3420    0.1740   -0.7590 C   0  0  0  0  0  0  0  0  0  0  0  0
   -0.9570    0.1450   -0.5230 N   0  0  0  0  0  0  0  0  0  0  0  0
   -0.3470    0.0990    0.7510 C   0  0  0  0  0  0  0  0  0  0  0  0
   -0.9450    0.1730    1.8770 N   0  0  0  0  0  0  0  0  0  0  0  0
   -0.0140    0.0920    2.9250 C   0  0  0  0  0  0  0  0  0  0  0  0
   -0.1380    0.4560    4.0920 O   0  0  0  0  0  0  0  0  0  0  0  0
    1.1890   -0.5420    2.3280 C   0  0  1  0  0  0  0  0  0  0  0  0
    0.9060   -2.0380    2.3880 C   0  0  0  0  0  0  0  0  0  0  0  0
    1.0820   -0.0330    0.9830 N   0  0  0  0  0  0  0  0  0  0  0  0
    2.0920    0.3040    0.0500 C   0  0  0  0  0  0  0  0  0  0  0  0
    2.9190   -0.7940   -0.5080 C   0  0  2  0  0  0  0  0  0  0  0  0
    3.9030   -1.4310    0.4010 C   0  0  0  0  0  0  0  0  0  0  0  0
    4.8660   -0.3630    0.5870 N   0  0  0  0  0  0  0  0  0  0  0  0
    4.9430    0.1780   -0.7490 C   0  0  2  0  0  0  0  0  0  0  0  0
    6.1850   -0.4500   -1.3970 C   0  0  0  0  0  0  0  0  0  0  0  0
    5.1290    1.6860   -0.7000 C   0  0  0  0  0  0  0  0  0  0  0  0
    3.8100   -0.1730   -1.4240 O   0  0  0  0  0  0  0  0  0  0  0  0
   -2.7860    0.2120   -2.0500 N   0  0  0  0  0  0  0  0  0  0  0  0
   -4.0680    0.2420   -2.3880 C   0  0  0  0  0  0  0  0  0  0  0  0
   -5.0380    0.2340   -1.3960 C   0  0  0  0  0  0  0  0  0  0  0  0
   -6.4770    0.2720   -1.7930 C   0  0  0  0  0  0  0  0  0  0  0  0
  1  2  1  0
  2  3  1  0
  3  4  2  0
  3 24  1  0
  4  5  1  0
  5  6  1  0
  5 22  2  0
  6  7  1  0
  7  8  2  0
  7 13  1  0
  8  9  1  0
  9 10  2  0
  9 11  1  0
 11 12  1  6
 11 13  1  0
 13 14  1  0
 15 14  1  1
 15 16  1  0
 15 21  1  0
 16 17  1  0
 17 18  1  0
 18 19  1  6
 18 20  1  0
 18 21  1  0
 22 23  1  0
 23 24  2  0
 24 25  1  0
M  CHG  1  17   1
M  END
