
     RDKit          3D

 26 28  0  0  0  0  0  0  0  0999 V2000
   -1.8500    4.6450   -0.0550 C   0  0  0  0  0  0  0  0  0  0  0  0
   -1.1160    3.3880    0.0210 N   0  0  0  0  0  0  0  0  0  0  0  0
    0.0910    3.3730   -0.5610 C   0  0  0  0  0  0  0  0  0  0  0  0
    0.6020    4.3740   -1.1620 O   0  0  0  0  0  0  0  0  0  0  0  0
    0.8190    2.2320   -0.5100 C   0  0  0  0  0  0  0  0  0  0  0  0
    0.2890    1.1190    0.1400 C   0  0  0  0  0  0  0  0  0  0  0  0
    1.1480    0.0000    0.1900 N   0  0  0  0  0  0  0  0  0  0  0  0
    1.8520   -0.3410    1.4270 C   0  0  0  0  0  0  0  0  0  0  0  0
    3.3580   -0.2430    1.1780 C   0  0  0  0  0  0  0  0  0  0  0  0
    3.6870   -1.1450    0.0070 C   0  0  0  0  0  0  0  0  0  0  0  0
    2.9340   -0.7310   -1.2280 C   0  0  1  0  0  0  0  0  0  0  0  0
    3.2430   -1.6400   -2.3270 N   0  0  0  0  0  0  0  0  0  0  0  0
    1.4340   -0.8640   -0.9330 C   0  0  0  0  0  0  0  0  0  0  0  0
   -0.9130    1.1400    0.7150 N   0  0  0  0  0  0  0  0  0  0  0  0
   -1.4480    0.0050    1.3820 C   0  0  0  0  0  0  0  0  0  0  0  0
   -2.3130   -0.8940    0.6190 C   0  0  0  0  0  0  0  0  0  0  0  0
   -3.1170   -0.4970   -0.4350 C   0  0  0  0  0  0  0  0  0  0  0  0
   -3.9420   -1.4010   -1.0800 C   0  0  0  0  0  0  0  0  0  0  0  0
   -4.7360   -1.0490   -2.1200 F   0  0  0  0  0  0  0  0  0  0  0  0
   -4.0030   -2.7530   -0.6980 C   0  0  0  0  0  0  0  0  0  0  0  0
   -3.1890   -3.1140    0.3560 C   0  0  0  0  0  0  0  0  0  0  0  0
   -2.3600   -2.2380    1.0100 C   0  0  0  0  0  0  0  0  0  0  0  0
   -1.5120   -2.7500    2.0880 C   0  0  0  0  0  0  0  0  0  0  0  0
   -0.8510   -3.1590    2.9190 N   0  0  0  0  0  0  0  0  0  0  0  0
   -1.6150    2.3140    0.6400 C   0  0  0  0  0  0  0  0  0  0  0  0
   -2.7710    2.3680    1.1820 O   0  0  0  0  0  0  0  0  0  0  0  0
  1  2  1  0
  2  3  1  0
  2 25  1  0
  3  4  2  0
  3  5  1  0
  5  6  2  0
  6  7  1  0
  6 14  1  0
  7  8  1  0
  7 13  1  0
  8  9  1  0
  9 10  1  0
 10 11  1  0
 11 12  1  6
 11 13  1  0
 14 15  1  0
 14 25  1  0
 15 16  1  0
 16 17  2  0
 16 22  1  0
 17 18  1  0
 18 19  1  0
 18 20  2  0
 20 21  1  0
 21 22  2  0
 22 23  1  0
 23 24  3  0
 25 26  2  0
M  CHG  1  12   1
M  END
