
     RDKit          3D

 25 26  0  0  0  0  0  0  0  0999 V2000
    1.0490   -0.5610   -1.9590 C   0  0  0  0  0  0  0  0  0  0  0  0
    0.8370   -0.1960   -0.5820 N   0  0  0  0  0  0  0  0  0  0  0  0
   -0.4450   -0.1680    0.0640 C   0  0  0  0  0  0  0  0  0  0  0  0
   -1.3810    0.7930   -0.4100 N   0  0  1  0  0  0  0  0  0  0  0  0
   -1.1500    1.3030   -1.7320 C   0  0  0  0  0  0  0  0  0  0  0  0
   -2.7620    0.4260   -0.1720 C   0  0  1  0  0  0  0  0  0  0  0  0
   -3.2160   -0.7280   -0.9850 C   0  0  0  0  0  0  0  0  0  0  0  0
   -4.5210   -1.2470   -0.9070 N   0  0  0  0  0  0  0  0  0  0  0  0
   -2.3790   -1.2440   -1.7670 O   0  0  0  0  0  0  0  0  0  0  0  0
   -3.0160    0.1890    1.3020 C   0  0  0  0  0  0  0  0  0  0  0  0
   -4.4470    0.4930    1.5750 C   0  0  0  0  0  0  0  0  0  0  0  0
   -4.8080    1.5140    0.5480 C   0  0  0  0  0  0  0  0  0  0  0  0
   -3.7100    1.5660   -0.4620 C   0  0  0  0  0  0  0  0  0  0  0  0
    2.0210    0.1600    0.1650 C   0  0  0  0  0  0  0  0  0  0  0  0
    2.2040    1.3810    0.3810 N   0  0  0  0  0  0  0  0  0  0  0  0
    3.2640    1.9650    1.0720 C   0  0  0  0  0  0  0  0  0  0  0  0
    4.3890    2.1830    0.4870 N   0  0  0  0  0  0  0  0  0  0  0  0
    4.5560    1.8290   -0.8650 C   0  0  0  0  0  0  0  0  0  0  0  0
    5.6820    1.4980   -1.3070 O   0  0  0  0  0  0  0  0  0  0  0  0
    3.5110    1.8280   -1.7520 F   0  0  0  0  0  0  0  0  0  0  0  0
    2.9220   -0.8790    0.6290 C   0  0  0  0  0  0  0  0  0  0  0  0
    2.7460   -2.2010    0.3940 C   0  0  0  0  0  0  0  0  0  0  0  0
    3.8260   -2.9990    0.9900 C   0  0  0  0  0  0  0  0  0  0  0  0
    4.3650   -2.0960    2.0660 C   0  0  0  0  0  0  0  0  0  0  0  0
    4.1530   -0.7110    1.4320 C   0  0  0  0  0  0  0  0  0  0  0  0
  1  2  1  0
  2  3  1  0
  2 14  1  0
  3  4  1  0
  4  5  1  6
  4  6  1  0
  6  7  1  6
  6 10  1  0
  6 13  1  0
  7  8  1  0
  7  9  2  0
 10 11  1  0
 11 12  1  0
 12 13  1  0
 14 15  2  3
 14 21  1  0
 15 16  1  0
 16 17  2  3
 17 18  1  0
 18 19  2  0
 18 20  1  0
 21 22  2  0
 21 25  1  0
 22 23  1  0
 23 24  1  0
 24 25  1  0
M  CHG  1   4   1
M  END
