
     RDKit          3D

 28 31  0  0  0  0  0  0  0  0999 V2000
    7.6540   -1.1950    1.2530 C   0  0  0  0  0  0  0  0  0  0  0  0
    6.7250   -0.1730    1.8680 C   0  0  0  0  0  0  0  0  0  0  0  0
    6.3600    0.8010    0.7410 C   0  0  0  0  0  0  0  0  0  0  0  0
    7.1530    1.9320    0.5170 C   0  0  0  0  0  0  0  0  0  0  0  0
    6.3020    2.6940   -0.8640 S   0  0  0  0  0  0  0  0  0  0  0  0
    5.0330    1.4760   -0.9910 C   0  0  0  0  0  0  0  0  0  0  0  0
    4.0680    1.4880   -1.8570 N   0  0  0  0  0  0  0  0  0  0  0  0
    3.1380    0.4430   -1.8250 C   0  0  0  0  0  0  0  0  0  0  0  0
    3.3780   -0.7570   -2.0780 O   0  0  0  0  0  0  0  0  0  0  0  0
    1.7760    0.7620   -1.4710 N   0  0  0  0  0  0  0  0  0  0  0  0
    0.7660   -0.2660   -1.4190 C   0  0  0  0  0  0  0  0  0  0  0  0
   -0.5210    0.3360   -1.0340 C   0  0  0  0  0  0  0  0  0  0  0  0
   -0.8400    1.6440   -0.7460 C   0  0  0  0  0  0  0  0  0  0  0  0
   -2.1790    1.7260   -0.4360 C   0  0  0  0  0  0  0  0  0  0  0  0
   -2.9410    2.9570   -0.0630 C   0  0  0  0  0  0  0  0  0  0  0  0
   -2.6550    0.4760   -0.5400 N   0  0  0  0  0  0  0  0  0  0  0  0
   -4.0080    0.1060   -0.3020 C   0  0  0  0  0  0  0  0  0  0  0  0
   -5.0300    0.6220   -1.0540 C   0  0  0  0  0  0  0  0  0  0  0  0
   -6.3420    0.2640   -0.8240 C   0  0  0  0  0  0  0  0  0  0  0  0
   -6.5920   -0.6330    0.1920 C   0  0  0  0  0  0  0  0  0  0  0  0
   -5.5640   -1.1710    0.9700 C   0  0  0  0  0  0  0  0  0  0  0  0
   -4.2670   -0.8060    0.7290 C   0  0  0  0  0  0  0  0  0  0  0  0
   -3.3830   -1.5000    1.6710 C   0  0  0  0  0  0  0  0  0  0  0  0
   -4.1270   -2.2500    2.4420 C   0  0  0  0  0  0  0  0  0  0  0  0
   -5.5650   -2.1360    2.1020 C   0  0  0  0  0  0  0  0  0  0  0  0
   -1.7080   -0.3970   -0.8940 C   0  0  0  0  0  0  0  0  0  0  0  0
   -1.8250   -1.8760   -1.1150 C   0  0  0  0  0  0  0  0  0  0  0  0
    5.3280    0.6290   -0.0340 N   0  0  0  0  0  0  0  0  0  0  0  0
  1  2  1  0
  2  3  1  0
  3  4  2  0
  3 28  1  0
  4  5  1  0
  5  6  1  0
  6  7  2  3
  6 28  1  0
  7  8  1  0
  8  9  2  0
  8 10  1  0
 10 11  1  0
 11 12  1  0
 12 13  1  0
 12 26  2  0
 13 14  2  0
 14 15  1  0
 14 16  1  0
 16 17  1  0
 16 26  1  0
 17 18  2  0
 17 22  1  0
 18 19  1  0
 19 20  2  0
 20 21  1  0
 21 22  2  0
 21 25  1  0
 22 23  1  0
 23 24  2  0
 24 25  1  0
 26 27  1  0
M  END
