
     RDKit          3D

 28 31  0  0  0  0  0  0  0  0999 V2000
   -9.6970    0.8140    0.6290 C   0  0  0  0  0  0  0  0  0  0  0  0
   -9.0600    0.4210   -0.6870 C   0  0  0  0  0  0  0  0  0  0  0  0
   -7.6350    0.4220   -0.5880 N   0  0  0  0  0  0  0  0  0  0  0  0
   -7.0730   -0.6070    0.2450 C   0  0  0  0  0  0  0  0  0  0  0  0
   -5.5810   -0.4060    0.2140 C   0  0  0  0  0  0  0  0  0  0  0  0
   -4.6950   -1.3830    0.6090 C   0  0  0  0  0  0  0  0  0  0  0  0
   -3.3150   -1.2040    0.5820 C   0  0  0  0  0  0  0  0  0  0  0  0
   -2.8150   -0.0180    0.1490 C   0  0  0  0  0  0  0  0  0  0  0  0
   -1.3810    0.2470    0.0720 C   0  0  0  0  0  0  0  0  0  0  0  0
   -0.9780    1.4370   -0.1310 O   0  0  0  0  0  0  0  0  0  0  0  0
   -0.4080   -0.7560    0.2090 N   0  0  0  0  0  0  0  0  0  0  0  0
    0.9760   -0.3210    0.0930 C   0  0  0  0  0  0  0  0  0  0  0  0
    1.6330    0.6320   -0.0740 N   0  0  0  0  0  0  0  0  0  0  0  0
    2.9540    0.7140   -0.1510 C   0  0  0  0  0  0  0  0  0  0  0  0
    3.6110   -0.4720   -0.0150 C   0  0  0  0  0  0  0  0  0  0  0  0
    2.3140   -1.6270    0.2110 S   0  0  0  0  0  0  0  0  0  0  0  0
    5.0750   -0.6010   -0.0140 C   0  0  0  0  0  0  0  0  0  0  0  0
    5.5470   -1.8540    0.0450 N   0  0  0  0  0  0  0  0  0  0  0  0
    6.8820   -2.0100   -0.0330 C   0  0  0  0  0  0  0  0  0  0  0  0
    7.5550   -3.3350    0.0150 C   0  0  0  0  0  0  0  0  0  0  0  0
    7.7290   -0.9080   -0.1720 C   0  0  0  0  0  0  0  0  0  0  0  0
    7.2110    0.3690   -0.2280 C   0  0  0  0  0  0  0  0  0  0  0  0
    8.0380    1.5930   -0.3730 C   0  0  0  0  0  0  0  0  0  0  0  0
    5.8470    0.5240   -0.1460 C   0  0  0  0  0  0  0  0  0  0  0  0
    5.1740    1.8330   -0.1230 C   0  0  0  0  0  0  0  0  0  0  0  0
    3.7500    1.9290   -0.4290 C   0  0  0  0  0  0  0  0  0  0  0  0
   -3.6730    0.9680   -0.2480 C   0  0  0  0  0  0  0  0  0  0  0  0
   -5.0350    0.7840   -0.2190 C   0  0  0  0  0  0  0  0  0  0  0  0
  1  2  1  0
  2  3  1  0
  3  4  1  0
  4  5  1  0
  5  6  2  0
  5 28  1  0
  6  7  1  0
  7  8  2  0
  8  9  1  0
  8 27  1  0
  9 10  2  0
  9 11  1  0
 11 12  1  0
 12 13  2  0
 12 16  1  0
 13 14  1  0
 14 15  2  0
 14 26  1  0
 15 16  1  0
 15 17  1  0
 17 18  2  0
 17 24  1  0
 18 19  1  0
 19 20  1  0
 19 21  2  0
 21 22  1  0
 22 23  1  0
 22 24  2  0
 24 25  1  0
 25 26  1  0
 27 28  2  0
M  END
