
     RDKit          3D

 28 31  0  0  0  0  0  0  0  0999 V2000
   -4.1960    1.0150   -3.0780 C   0  0  0  0  0  0  0  0  0  0  0  0
   -3.9290    0.1550   -1.8550 C   0  0  0  0  0  0  0  0  0  0  0  0
   -2.8240    0.3780   -1.2370 C   0  0  0  0  0  0  0  0  0  0  0  0
   -1.8220    1.4170   -1.6780 C   0  0  0  0  0  0  0  0  0  0  0  0
   -0.4150    1.0500   -1.3670 C   0  0  0  0  0  0  0  0  0  0  0  0
   -0.2050   -0.3910   -0.9390 C   0  0  0  0  0  0  0  0  0  0  0  0
   -1.1380   -0.7700    0.1480 C   0  0  0  0  0  0  0  0  0  0  0  0
   -0.7540   -1.4440    1.2710 C   0  0  0  0  0  0  0  0  0  0  0  0
    0.6340   -1.8830    1.4740 C   0  0  0  0  0  0  0  0  0  0  0  0
    1.3200   -2.4110    0.5680 O   0  0  0  0  0  0  0  0  0  0  0  0
    1.2740   -1.7200    2.7510 N   0  0  0  0  0  0  0  0  0  0  0  0
    2.6330   -2.1310    3.0200 C   0  0  0  0  0  0  0  0  0  0  0  0
    3.6040   -1.4020    2.1380 C   0  0  0  0  0  0  0  0  0  0  0  0
    4.8420   -1.5280    1.9260 N   0  0  0  0  0  0  0  0  0  0  0  0
    5.4990   -0.7650    1.1030 C   0  0  0  0  0  0  0  0  0  0  0  0
    4.8400    0.2030    0.4450 C   0  0  0  0  0  0  0  0  0  0  0  0
    5.2620    1.2030   -0.5200 C   0  0  0  0  0  0  0  0  0  0  0  0
    4.4490    2.1110   -1.0870 N   0  0  0  0  0  0  0  0  0  0  0  0
    5.1770    2.8880   -1.9390 C   0  0  0  0  0  0  0  0  0  0  0  0
    6.4760    2.4390   -1.8900 C   0  0  0  0  0  0  0  0  0  0  0  0
    6.4700    1.4080   -1.0070 N   0  0  0  0  0  0  0  0  0  0  0  0
    3.1880   -0.0220    1.0640 S   0  0  0  0  0  0  0  0  0  0  0  0
   -1.7230   -1.7100    2.2150 C   0  0  0  0  0  0  0  0  0  0  0  0
   -3.0080   -1.3180    2.0360 C   0  0  0  0  0  0  0  0  0  0  0  0
   -3.4580   -0.6220    0.9000 C   0  0  0  0  0  0  0  0  0  0  0  0
   -4.8540   -0.2150    0.6810 C   0  0  0  0  0  0  0  0  0  0  0  0
   -5.0900    1.2710    0.6580 C   0  0  0  0  0  0  0  0  0  0  0  0
   -2.4780   -0.3670   -0.0280 C   0  0  0  0  0  0  0  0  0  0  0  0
  1  2  1  0
  2  3  2  3
  3  4  1  0
  3 28  1  0
  4  5  1  0
  5  6  1  0
  6  7  1  0
  7  8  2  0
  7 28  1  0
  8  9  1  0
  8 23  1  0
  9 10  2  0
  9 11  1  0
 11 12  1  0
 12 13  1  0
 13 14  2  0
 13 22  1  0
 14 15  1  0
 15 16  2  0
 16 17  1  0
 16 22  1  0
 17 18  2  0
 17 21  1  0
 18 19  1  0
 19 20  2  0
 20 21  1  0
 23 24  2  0
 24 25  1  0
 25 26  1  0
 25 28  2  0
 26 27  1  0
M  END
