
     RDKit          3D

 28 31  0  0  0  0  0  0  0  0999 V2000
   -2.4410   -4.7820    0.8540 C   0  0  0  0  0  0  0  0  0  0  0  0
   -1.5490   -4.1290    0.1580 C   0  0  0  0  0  0  0  0  0  0  0  0
   -1.3720   -2.6850    0.2350 C   0  0  0  0  0  0  0  0  0  0  0  0
   -0.1360   -2.2260    0.5190 N   0  0  0  0  0  0  0  0  0  0  0  0
    0.1570   -0.9380    0.6180 C   0  0  0  0  0  0  0  0  0  0  0  0
    1.8150   -0.4650    1.0090 S   0  0  0  0  0  0  0  0  0  0  0  0
    2.7570   -0.3520   -0.5280 C   0  0  0  0  0  0  0  0  0  0  0  0
    4.1560    0.0640   -0.2990 C   0  0  0  0  0  0  0  0  0  0  0  0
    5.1070   -0.9070   -0.0840 C   0  0  0  0  0  0  0  0  0  0  0  0
    6.4080   -0.4980    0.1280 C   0  0  0  0  0  0  0  0  0  0  0  0
    6.7120    0.8280    0.1180 N   0  0  0  0  0  0  0  0  0  0  0  0
    5.7680    1.7650   -0.0950 C   0  0  0  0  0  0  0  0  0  0  0  0
    4.4500    1.4050   -0.3110 C   0  0  0  0  0  0  0  0  0  0  0  0
   -0.8330   -0.0030    0.4260 C   0  0  0  0  0  0  0  0  0  0  0  0
   -0.4890    1.3510    0.8020 C   0  0  0  0  0  0  0  0  0  0  0  0
    0.7020    1.9690    0.3830 N   0  0  0  0  0  0  0  0  0  0  0  0
   -1.2780    2.0010    1.5320 O   0  0  0  0  0  0  0  0  0  0  0  0
   -2.1150   -0.3810    0.1190 C   0  0  0  0  0  0  0  0  0  0  0  0
   -3.1340    0.4900   -0.0890 C   0  0  0  0  0  0  0  0  0  0  0  0
   -2.9740    1.8900   -0.4540 C   0  0  0  0  0  0  0  0  0  0  0  0
   -2.0840    2.5420   -1.1480 C   0  0  0  0  0  0  0  0  0  0  0  0
   -2.4280    3.9650   -1.1870 C   0  0  0  0  0  0  0  0  0  0  0  0
   -3.4570    4.0470   -0.3990 C   0  0  0  0  0  0  0  0  0  0  0  0
   -3.9600    2.9070   -0.0180 C   0  0  0  0  0  0  0  0  0  0  0  0
   -4.4490   -0.0070   -0.3630 C   0  0  0  0  0  0  0  0  0  0  0  0
   -4.6230   -1.3210   -0.4190 N   0  0  0  0  0  0  0  0  0  0  0  0
   -3.6380   -2.2090   -0.2370 C   0  0  0  0  0  0  0  0  0  0  0  0
   -2.3650   -1.7630    0.0330 C   0  0  0  0  0  0  0  0  0  0  0  0
  1  2  2  0
  2  3  1  0
  3  4  2  0
  3 28  1  0
  4  5  1  0
  5  6  1  0
  5 14  2  0
  6  7  1  0
  7  8  1  0
  8  9  2  0
  8 13  1  0
  9 10  1  0
 10 11  2  0
 11 12  1  0
 12 13  2  0
 14 15  1  0
 14 18  1  0
 15 16  1  0
 15 17  2  0
 18 19  2  0
 18 28  1  0
 19 20  1  0
 19 25  1  0
 20 21  2  0
 20 24  1  0
 21 22  1  0
 22 23  2  0
 23 24  2  0
 25 26  2  0
 26 27  1  0
 27 28  2  0
M  END
