
     RDKit          3D

 28 31  0  0  0  0  0  0  0  0999 V2000
    6.3330    1.9600   -1.1440 C   0  0  0  0  0  0  0  0  0  0  0  0
    6.2900    1.8230    0.3690 C   0  0  0  0  0  0  0  0  0  0  0  0
    5.7300    0.4870    0.6870 C   0  0  0  0  0  0  0  0  0  0  0  0
    6.5420   -0.5700    1.1130 C   0  0  0  0  0  0  0  0  0  0  0  0
    5.8790   -1.7390    1.3680 C   0  0  0  0  0  0  0  0  0  0  0  0
    4.5250   -1.9500    1.2420 C   0  0  0  0  0  0  0  0  0  0  0  0
    3.9540   -3.3120    1.5650 C   0  0  0  0  0  0  0  0  0  0  0  0
    3.7120   -0.9100    0.8200 C   0  0  0  0  0  0  0  0  0  0  0  0
    2.4280   -0.8300    0.6180 N   0  0  0  0  0  0  0  0  0  0  0  0
    1.7290    0.0140    0.2710 C   0  0  0  0  0  0  0  0  0  0  0  0
    0.3300    0.3340   -0.0160 N   0  0  0  0  0  0  0  0  0  0  0  0
   -0.0670    1.6080   -0.4550 C   0  0  0  0  0  0  0  0  0  0  0  0
    0.8360    2.5120   -0.6080 O   0  0  0  0  0  0  0  0  0  0  0  0
   -1.4530    1.9800   -0.7530 C   0  0  0  0  0  0  0  0  0  0  0  0
   -2.4270    0.9430   -0.5660 N   0  0  0  0  0  0  0  0  0  0  0  0
   -3.7880    1.2470   -0.8520 C   0  0  0  0  0  0  0  0  0  0  0  0
   -4.1410    2.5150   -1.3090 C   0  0  0  0  0  0  0  0  0  0  0  0
   -5.4510    2.8230   -1.5920 C   0  0  0  0  0  0  0  0  0  0  0  0
   -6.3880    1.9000   -1.4260 N   0  0  0  0  0  0  0  0  0  0  0  0
   -6.1260    0.6500   -0.9880 C   0  0  0  0  0  0  0  0  0  0  0  0
   -7.1340   -0.2730   -0.8310 C   0  0  0  0  0  0  0  0  0  0  0  0
   -6.8280   -1.5190   -0.3870 C   0  0  0  0  0  0  0  0  0  0  0  0
   -5.5390   -1.8850   -0.0890 C   0  0  0  0  0  0  0  0  0  0  0  0
   -5.1960   -3.2460    0.3990 C   0  0  0  0  0  0  0  0  0  0  0  0
   -4.5470   -0.9370   -0.2550 C   0  0  0  0  0  0  0  0  0  0  0  0
   -4.8020    0.3330   -0.7000 C   0  0  0  0  0  0  0  0  0  0  0  0
    3.0080    1.3970    0.0380 S   0  0  0  0  0  0  0  0  0  0  0  0
    4.3920    0.3050    0.5550 C   0  0  0  0  0  0  0  0  0  0  0  0
  1  2  1  0
  2  3  1  0
  3  4  2  0
  3 28  1  0
  4  5  1  0
  5  6  2  0
  6  7  1  0
  6  8  1  0
  8  9  1  0
  8 28  2  0
  9 10  2  0
 10 11  1  0
 10 27  1  0
 11 12  1  0
 12 13  2  0
 12 14  1  0
 14 15  1  0
 15 16  1  0
 16 17  2  0
 16 26  1  0
 17 18  1  0
 18 19  2  0
 19 20  1  0
 20 21  2  0
 20 26  1  0
 21 22  1  0
 22 23  2  0
 23 24  1  0
 23 25  1  0
 25 26  2  0
 27 28  1  0
M  END
