
     RDKit          3D

 28 31  0  0  0  0  0  0  0  0999 V2000
    5.0820   -0.8040   -1.8840 C   0  0  0  0  0  0  0  0  0  0  0  0
    5.3760   -0.4220   -0.4700 C   0  0  0  0  0  0  0  0  0  0  0  0
    6.2030   -1.0260    0.3500 C   0  0  0  0  0  0  0  0  0  0  0  0
    6.9370   -2.1490   -0.0220 O   0  0  0  0  0  0  0  0  0  0  0  0
    8.6290   -2.0450   -0.4170 S   0  0  0  0  0  0  0  0  0  0  0  0
    6.1800   -0.3140    1.6370 C   0  0  0  0  0  0  0  0  0  0  0  0
    5.2300    0.7830    1.4510 C   0  0  0  0  0  0  0  0  0  0  0  0
    4.7460    0.7330    0.2110 C   0  0  0  0  0  0  0  0  0  0  0  0
    3.8310    1.6350   -0.3190 N   0  0  0  0  0  0  0  0  0  0  0  0
    2.5830    1.6850   -0.4110 C   0  0  0  0  0  0  0  0  0  0  0  0
    1.5860    0.7310    0.0450 C   0  0  0  0  0  0  0  0  0  0  0  0
    1.8670   -0.4470    0.6840 C   0  0  0  0  0  0  0  0  0  0  0  0
    0.9200   -1.3600    1.1200 C   0  0  0  0  0  0  0  0  0  0  0  0
   -0.3890   -1.0320    0.8820 C   0  0  0  0  0  0  0  0  0  0  0  0
   -0.7370    0.1550    0.2350 C   0  0  0  0  0  0  0  0  0  0  0  0
    0.2310    1.0310   -0.1820 C   0  0  0  0  0  0  0  0  0  0  0  0
   -0.0930    2.2840   -0.8740 C   0  0  0  0  0  0  0  0  0  0  0  0
   -1.4780    2.5590   -1.0450 N   0  0  0  0  0  0  0  0  0  0  0  0
   -2.5000    1.6640   -0.6210 C   0  0  0  0  0  0  0  0  0  0  0  0
   -3.7220    2.0010   -0.8720 N   0  0  0  0  0  0  0  0  0  0  0  0
   -4.8070    1.1970   -0.4950 C   0  0  0  0  0  0  0  0  0  0  0  0
   -4.9650    0.7740    0.8090 C   0  0  0  0  0  0  0  0  0  0  0  0
   -6.0200   -0.0360    1.1830 C   0  0  0  0  0  0  0  0  0  0  0  0
   -6.9260   -0.4210    0.2260 C   0  0  0  0  0  0  0  0  0  0  0  0
   -8.0670   -1.2900    0.6000 C   0  0  0  0  0  0  0  0  0  0  0  0
   -6.7760   -0.0030   -1.0740 C   0  0  0  0  0  0  0  0  0  0  0  0
   -5.7430    0.7930   -1.4560 C   0  0  0  0  0  0  0  0  0  0  0  0
   -2.1220    0.4630    0.0180 N   0  0  0  0  0  0  0  0  0  0  0  0
  1  2  1  0
  2  3  2  0
  2  8  1  0
  3  4  1  0
  3  6  1  0
  4  5  1  0
  6  7  1  0
  7  8  2  0
  8  9  1  0
  9 10  2  3
 10 11  1  0
 11 12  2  0
 11 16  1  0
 12 13  1  0
 13 14  2  0
 14 15  1  0
 15 16  2  0
 15 28  1  0
 16 17  1  0
 17 18  1  0
 18 19  1  0
 19 20  2  3
 19 28  1  0
 20 21  1  0
 21 22  2  0
 21 27  1  0
 22 23  1  0
 23 24  2  0
 24 25  1  0
 24 26  1  0
 26 27  2  0
M  END
