
     RDKit          3D

 28 31  0  0  0  0  0  0  0  0999 V2000
   -6.2320    2.7080    1.1430 C   0  0  0  0  0  0  0  0  0  0  0  0
   -5.6970    1.4790    0.4540 C   0  0  0  0  0  0  0  0  0  0  0  0
   -6.5400    0.4000    0.2290 C   0  0  0  0  0  0  0  0  0  0  0  0
   -6.0500   -0.7220   -0.4020 C   0  0  0  0  0  0  0  0  0  0  0  0
   -6.9700   -1.8790   -0.6410 C   0  0  0  0  0  0  0  0  0  0  0  0
   -4.7410   -0.8300   -0.8290 C   0  0  0  0  0  0  0  0  0  0  0  0
   -3.8890    0.2500   -0.6060 C   0  0  0  0  0  0  0  0  0  0  0  0
   -4.3910    1.3740    0.0290 C   0  0  0  0  0  0  0  0  0  0  0  0
   -2.5590   -0.1320   -1.1600 C   0  0  1  0  0  0  0  0  0  0  0  0
   -1.6280   -0.6420   -0.1260 C   0  0  0  0  0  0  0  0  0  0  0  0
   -1.7070   -1.8350    0.5570 C   0  0  0  0  0  0  0  0  0  0  0  0
   -0.6340   -1.8860    1.3940 N   0  0  0  0  0  0  0  0  0  0  0  0
    0.0980   -0.8130    1.2750 N   0  0  0  0  0  0  0  0  0  0  0  0
    1.3300   -0.5130    2.0070 C   0  0  0  0  0  0  0  0  0  0  0  0
    2.4640   -1.0610    1.2360 C   0  0  0  0  0  0  0  0  0  0  0  0
    2.4240   -2.2900    0.9330 O   0  0  0  0  0  0  0  0  0  0  0  0
    3.5610   -0.2460    0.8450 N   0  0  0  0  0  0  0  0  0  0  0  0
    4.6410   -0.8880    0.0740 C   0  0  0  0  0  0  0  0  0  0  0  0
    5.6880    0.1080   -0.2390 C   0  0  0  0  0  0  0  0  0  0  0  0
    6.9070   -0.0930    0.1800 C   0  0  0  0  0  0  0  0  0  0  0  0
    7.9840    0.9120   -0.1300 C   0  0  0  0  0  0  0  0  0  0  0  0
    7.8170    2.0350   -0.8170 C   0  0  0  0  0  0  0  0  0  0  0  0
    8.8790    2.8940   -1.0530 C   0  0  0  0  0  0  0  0  0  0  0  0
   10.2280    2.0170   -0.2200 S   0  0  0  0  0  0  0  0  0  0  0  0
    9.2680    0.6280    0.3450 C   0  0  0  0  0  0  0  0  0  0  0  0
   -0.4850   -0.0390    0.3570 C   0  0  0  0  0  0  0  0  0  0  0  0
   -2.9120   -1.1900   -2.1620 C   0  0  0  0  0  0  0  0  0  0  0  0
   -4.0120   -1.8790   -1.4980 N   0  0  0  0  0  0  0  0  0  0  0  0
  1  2  1  0
  2  3  2  0
  2  8  1  0
  3  4  1  0
  4  5  1  0
  4  6  2  0
  6  7  1  0
  6 28  1  0
  7  8  2  0
  7  9  1  0
  9 10  1  1
  9 27  1  0
 10 11  1  0
 10 26  2  0
 11 12  2  0
 12 13  1  0
 13 14  1  0
 13 26  1  0
 14 15  1  0
 15 16  2  0
 15 17  1  0
 17 18  1  0
 18 19  1  0
 19 20  2  3
 20 21  1  0
 21 22  1  0
 21 25  2  0
 22 23  2  0
 23 24  1  0
 24 25  1  0
 27 28  1  0
M  END
