
     RDKit          3D

 28 31  0  0  0  0  0  0  0  0999 V2000
   -3.9120   -2.9360   -0.9600 C   0  0  0  0  0  0  0  0  0  0  0  0
   -5.0540   -2.1170   -0.6600 N   0  0  0  0  0  0  0  0  0  0  0  0
   -4.9480   -0.7620   -0.2420 C   0  0  0  0  0  0  0  0  0  0  0  0
   -6.0790   -0.0280    0.0220 C   0  0  0  0  0  0  0  0  0  0  0  0
   -6.0290    1.2710    0.4250 C   0  0  0  0  0  0  0  0  0  0  0  0
   -4.8000    1.9030    0.5830 C   0  0  0  0  0  0  0  0  0  0  0  0
   -4.7740    3.2290    0.9950 C   0  0  0  0  0  0  0  0  0  0  0  0
   -3.5630    3.8460    1.1480 C   0  0  0  0  0  0  0  0  0  0  0  0
   -2.3920    3.1730    0.9010 C   0  0  0  0  0  0  0  0  0  0  0  0
   -2.4220    1.8520    0.4910 C   0  0  0  0  0  0  0  0  0  0  0  0
   -3.6330    1.1860    0.3220 C   0  0  0  0  0  0  0  0  0  0  0  0
   -3.7110   -0.1260   -0.0840 C   0  0  0  0  0  0  0  0  0  0  0  0
   -1.0440    1.3790    0.3000 C   0  0  0  0  0  0  0  0  0  0  0  0
   -0.5640    0.2170   -0.0780 C   0  0  0  0  0  0  0  0  0  0  0  0
    0.8680   -0.0250   -0.1980 C   0  0  0  0  0  0  0  0  0  0  0  0
    1.2760   -1.2070   -0.5800 N   0  0  0  0  0  0  0  0  0  0  0  0
    2.6300   -1.5380   -0.7260 C   0  0  0  0  0  0  0  0  0  0  0  0
    3.5820   -1.0620    0.1790 C   0  0  0  0  0  0  0  0  0  0  0  0
    4.9230   -1.3600    0.0760 C   0  0  0  0  0  0  0  0  0  0  0  0
    6.1380   -0.7560    1.2260 S   0  0  0  0  0  0  0  0  0  0  0  0
    6.8280    0.8330    0.7050 C   0  0  0  0  0  0  0  0  0  0  0  0
    5.3540   -2.1620   -0.9620 C   0  0  0  0  0  0  0  0  0  0  0  0
    6.7910   -2.5110   -1.1140 C   0  0  0  0  0  0  0  0  0  0  0  0
    4.4070   -2.6260   -1.8490 C   0  0  0  0  0  0  0  0  0  0  0  0
    3.1080   -2.3170   -1.7200 N   0  0  0  0  0  0  0  0  0  0  0  0
   -0.1820    2.5430    0.6350 C   0  0  0  0  0  0  0  0  0  0  0  0
    1.0620    2.5770    0.6060 O   0  0  0  0  0  0  0  0  0  0  0  0
   -1.0320    3.6070    0.9930 N   0  0  0  0  0  0  0  0  0  0  0  0
  1  2  1  0
  2  3  1  0
  3  4  2  0
  3 12  1  0
  4  5  1  0
  5  6  2  0
  6  7  1  0
  6 11  1  0
  7  8  2  0
  8  9  1  0
  9 10  2  0
  9 28  1  0
 10 11  1  0
 10 13  1  0
 11 12  2  0
 13 14  2  3
 13 26  1  0
 14 15  1  0
 15 16  2  3
 16 17  1  0
 17 18  2  0
 17 25  1  0
 18 19  1  0
 19 20  1  0
 19 22  2  0
 20 21  1  0
 22 23  1  0
 22 24  1  0
 24 25  2  0
 26 27  2  0
 26 28  1  0
M  END
