
     RDKit          3D

 26 26  0  0  0  0  0  0  0  0999 V2000
   -6.1940   -0.4120   -2.6180 C   0  0  0  0  0  0  0  0  0  0  0  0
   -4.9980   -0.8130   -2.0740 O   0  0  0  0  0  0  0  0  0  0  0  0
   -4.1550    0.2500   -1.7940 C   0  0  0  0  0  0  0  0  0  0  0  0
   -2.8450   -0.1990   -1.1980 C   0  0  0  0  0  0  0  0  0  0  0  0
   -2.9320   -0.9190    0.0790 C   0  0  1  0  0  0  0  0  0  0  0  0
   -3.8360   -2.0310   -0.2100 O   0  0  0  0  0  0  0  0  0  0  0  0
   -1.6650   -1.7220    0.4210 C   0  0  0  0  0  0  0  0  0  0  0  0
   -0.4980   -1.0520    0.7640 N   0  0  0  0  0  0  0  0  0  0  0  0
    0.3660   -0.2330    0.0080 C   0  0  0  0  0  0  0  0  0  0  0  0
    0.1470   -0.0310   -1.1790 O   0  0  0  0  0  0  0  0  0  0  0  0
    1.5880    0.4220    0.6270 C   0  0  0  0  0  0  0  0  0  0  0  0
    2.2810    1.2010   -0.4360 C   0  0  0  0  0  0  0  0  0  0  0  0
    3.6960    2.0730    0.1850 S   0  0  0  0  0  0  0  0  0  0  0  0
    4.9720    0.9690    0.7710 C   0  0  1  0  0  0  0  0  0  0  0  0
    4.6730    0.2800    2.0740 C   0  0  0  0  0  0  0  0  0  0  0  0
    4.9730   -1.1650    1.7870 C   0  0  0  0  0  0  0  0  0  0  0  0
    5.7490   -1.1570    0.6260 O   0  0  0  0  0  0  0  0  0  0  0  0
    5.1870   -0.1930   -0.1750 C   0  0  2  0  0  0  0  0  0  0  0  0
    6.0360    0.1820   -1.3490 C   0  0  0  0  0  0  0  0  0  0  0  0
    7.3190    0.7040   -0.9990 N   0  0  0  0  0  0  0  0  0  0  0  0
   -3.4660   -0.2760    1.2850 C   0  0  0  0  0  0  0  0  0  0  0  0
   -4.8450    0.1650    1.3880 C   0  0  0  0  0  0  0  0  0  0  0  0
   -5.7750   -0.2570    0.6850 O   0  0  0  0  0  0  0  0  0  0  0  0
   -5.2310    1.1710    2.3650 N   0  0  0  0  0  0  0  0  0  0  0  0
   -6.5730    1.5810    2.4420 C   0  0  0  0  0  0  0  0  0  0  0  0
   -7.4480    1.0920    1.6790 O   0  0  0  0  0  0  0  0  0  0  0  0
  1  2  1  0
  2  3  1  0
  3  4  1  0
  4  5  1  0
  5  6  1  6
  5  7  1  0
  5 21  1  0
  7  8  1  0
  8  9  1  0
  9 10  2  0
  9 11  1  0
 11 12  1  0
 12 13  1  0
 14 13  1  6
 14 15  1  0
 14 18  1  0
 15 16  1  0
 16 17  1  0
 17 18  1  0
 18 19  1  6
 19 20  1  0
 21 22  1  0
 22 23  2  0
 22 24  1  0
 24 25  1  0
 25 26  2  0
M  CHG  1  20   1
M  END
