
     RDKit          3D

 25 24  0  0  0  0  0  0  0  0999 V2000
    6.3500   -1.5360   -1.6900 C   0  0  0  0  0  0  0  0  0  0  0  0
    5.8220   -0.3490   -2.1560 O   0  0  0  0  0  0  0  0  0  0  0  0
    5.0140    0.3280   -1.2860 C   0  0  0  0  0  0  0  0  0  0  0  0
    3.7870   -0.4200   -0.8300 C   0  0  0  0  0  0  0  0  0  0  0  0
    3.0190    0.3360    0.0470 O   0  0  0  0  0  0  0  0  0  0  0  0
    1.8730   -0.3950    0.4610 C   0  0  1  0  0  0  0  0  0  0  0  0
    2.0370   -0.6310    1.9670 C   0  0  0  0  0  0  0  0  0  0  0  0
    0.7140    0.4360    0.1650 C   0  0  0  0  0  0  0  0  0  0  0  0
    0.9810    1.6990    0.1560 O   0  0  0  0  0  0  0  0  0  0  0  0
   -0.6170    0.0860   -0.1200 N   0  0  0  0  0  0  0  0  0  0  0  0
   -1.0200   -1.2880   -0.0670 C   0  0  0  0  0  0  0  0  0  0  0  0
   -1.6610   -1.9660    1.0260 C   0  0  2  0  0  0  0  0  0  0  0  0
   -0.9500   -2.0210    2.3670 C   0  0  0  0  0  0  0  0  0  0  0  0
   -1.8040   -2.7440    3.2380 O   0  0  0  0  0  0  0  0  0  0  0  0
   -1.6670   -3.4750    0.6250 C   0  0  0  0  0  0  0  0  0  0  0  0
   -2.3350   -3.6310   -0.5280 O   0  0  0  0  0  0  0  0  0  0  0  0
   -3.0920   -1.6790    1.3680 C   0  0  0  0  0  0  0  0  0  0  0  0
   -3.3380   -0.3730    1.7380 O   0  0  0  0  0  0  0  0  0  0  0  0
   -1.5770    1.0930   -0.5820 C   0  0  1  0  0  0  0  0  0  0  0  0
   -1.7740    2.2480    0.2620 C   0  0  0  0  0  0  0  0  0  0  0  0
   -2.8040    3.2420   -0.2090 C   0  0  0  0  0  0  0  0  0  0  0  0
   -4.1430    2.6290   -0.2940 N   0  0  0  0  0  0  0  0  0  0  0  0
   -1.3830    1.4730   -2.0340 C   0  0  0  0  0  0  0  0  0  0  0  0
    0.1500    2.1750   -2.4470 S   0  0  0  0  0  0  0  0  0  0  0  0
    0.4860    3.8500   -1.9720 C   0  0  0  0  0  0  0  0  0  0  0  0
  1  2  1  0
  2  3  1  0
  3  4  1  0
  4  5  1  0
  5  6  1  0
  6  7  1  1
  6  8  1  0
  8  9  2  0
  8 10  1  0
 10 11  1  0
 10 19  1  0
 12 11  1  6
 12 13  1  0
 12 15  1  0
 12 17  1  0
 13 14  1  0
 15 16  1  0
 17 18  1  0
 19 20  1  1
 19 23  1  0
 20 21  1  0
 21 22  1  0
 23 24  1  0
 24 25  1  0
M  CHG  1  22   1
M  END
