
     RDKit          3D

 26 26  0  0  0  0  0  0  0  0999 V2000
    8.9570   -0.6150    1.3260 C   0  0  0  0  0  0  0  0  0  0  0  0
    7.5420   -0.6960    1.4150 O   0  0  0  0  0  0  0  0  0  0  0  0
    7.0710   -1.5340    0.4380 C   0  0  0  0  0  0  0  0  0  0  0  0
    5.5810   -1.6540    0.5140 C   0  0  0  0  0  0  0  0  0  0  0  0
    4.9150   -0.4400    0.3510 O   0  0  0  0  0  0  0  0  0  0  0  0
    5.1920    0.1460   -0.8640 C   0  0  0  0  0  0  0  0  0  0  0  0
    4.3840    1.4140   -1.0100 C   0  0  0  0  0  0  0  0  0  0  0  0
    2.6120    1.1070   -0.9750 S   0  0  0  0  0  0  0  0  0  0  0  0
    2.0650    0.5570    0.6520 C   0  0  0  0  0  0  0  0  0  0  0  0
    0.6520    0.0850    0.6290 C   0  0  0  0  0  0  0  0  0  0  0  0
    0.3530   -1.0140    1.1850 O   0  0  0  0  0  0  0  0  0  0  0  0
   -0.3730    0.8330   -0.0120 N   0  0  0  0  0  0  0  0  0  0  0  0
   -1.7580    0.2740   -0.0110 C   0  0  1  0  0  0  0  0  0  0  0  0
   -2.6610    1.4250    0.0610 C   0  0  0  0  0  0  0  0  0  0  0  0
   -4.1210    1.2780    0.1280 C   0  0  1  0  0  0  0  0  0  0  0  0
   -4.6510    2.6690    0.1630 N   0  0  0  0  0  0  0  0  0  0  0  0
   -4.8610    0.5580   -0.9120 C   0  0  0  0  0  0  0  0  0  0  0  0
   -5.4000   -0.7990   -0.6090 C   0  0  2  0  0  0  0  0  0  0  0  0
   -6.9400   -0.8510   -0.6630 C   0  0  0  0  0  0  0  0  0  0  0  0
   -4.9860   -1.4390    0.6570 C   0  0  0  0  0  0  0  0  0  0  0  0
   -4.7150   -0.5710    1.7040 O   0  0  0  0  0  0  0  0  0  0  0  0
   -4.5350    0.7610    1.4720 C   0  0  0  0  0  0  0  0  0  0  0  0
   -4.7330    1.5530    2.4440 O   0  0  0  0  0  0  0  0  0  0  0  0
   -1.7480   -0.3930   -1.3600 C   0  0  0  0  0  0  0  0  0  0  0  0
   -2.3250   -1.6600   -1.5470 N   0  0  0  0  0  0  0  0  0  0  0  0
   -1.2070    0.1990   -2.3300 O   0  0  0  0  0  0  0  0  0  0  0  0
  1  2  1  0
  2  3  1  0
  3  4  1  0
  4  5  1  0
  5  6  1  0
  6  7  1  0
  7  8  1  0
  8  9  1  0
  9 10  1  0
 10 11  2  0
 10 12  1  0
 12 13  1  0
 13 14  1  6
 13 24  1  0
 14 15  1  0
 15 16  1  1
 15 17  1  0
 15 22  1  0
 17 18  1  0
 18 19  1  1
 18 20  1  0
 20 21  1  0
 21 22  1  0
 22 23  2  0
 24 25  1  0
 24 26  2  0
M  CHG  1  16   1
M  END
