
     RDKit          3D

 26 25  0  0  0  0  0  0  0  0999 V2000
    6.3870   -2.8530    0.6350 C   0  0  0  0  0  0  0  0  0  0  0  0
    5.3000   -2.3080    1.5420 C   0  0  0  0  0  0  0  0  0  0  0  0
    3.9950   -2.2820    0.7510 C   0  0  0  0  0  0  0  0  0  0  0  0
    2.8700   -1.7460    1.6050 C   0  0  0  0  0  0  0  0  0  0  0  0
    1.5530   -1.7030    0.8770 C   0  0  0  0  0  0  0  0  0  0  0  0
    1.5960   -0.8150   -0.3620 C   0  0  0  0  0  0  0  0  0  0  0  0
    2.0100    0.8660    0.0110 S   0  0  0  0  0  0  0  0  0  0  0  0
    0.8570    1.8040    0.9750 C   0  0  0  0  0  0  0  0  0  0  0  0
   -0.3580    2.2070    0.1860 C   0  0  2  0  0  0  0  0  0  0  0  0
   -1.0580    1.0900   -0.3160 N   0  0  0  0  0  0  0  0  0  0  0  0
   -2.1290    0.4140    0.3130 C   0  0  0  0  0  0  0  0  0  0  0  0
   -2.5180    0.8160    1.4170 O   0  0  0  0  0  0  0  0  0  0  0  0
   -2.7340   -0.7480   -0.3850 C   0  0  0  0  0  0  0  0  0  0  0  0
   -3.8470   -1.2680    0.4760 C   0  0  0  0  0  0  0  0  0  0  0  0
   -4.5500   -2.4630   -0.1250 C   0  0  2  0  0  0  0  0  0  0  0  0
   -5.1400   -2.1840   -1.3960 N   0  0  0  0  0  0  0  0  0  0  0  0
   -5.6080   -2.8670    0.8660 C   0  0  0  0  0  0  0  0  0  0  0  0
   -6.7880   -2.9170    0.4890 O   0  0  0  0  0  0  0  0  0  0  0  0
   -5.2840   -3.1790    2.1780 O   0  0  0  0  0  0  0  0  0  0  0  0
    0.0300    3.2070   -0.8130 C   0  0  0  0  0  0  0  0  0  0  0  0
   -0.2750    3.0070   -2.0180 O   0  0  0  0  0  0  0  0  0  0  0  0
    0.7360    4.4040   -0.5210 N   0  0  0  0  0  0  0  0  0  0  0  0
    1.1150    5.3810   -1.4940 C   0  0  0  0  0  0  0  0  0  0  0  0
    0.0020    5.9760   -2.2220 C   0  0  0  0  0  0  0  0  0  0  0  0
   -1.1740    5.6340   -1.9870 O   0  0  0  0  0  0  0  0  0  0  0  0
    0.2450    6.9320   -3.1850 O   0  0  0  0  0  0  0  0  0  0  0  0
  1  2  1  0
  2  3  1  0
  3  4  1  0
  4  5  1  0
  5  6  1  0
  6  7  1  0
  7  8  1  0
  9  8  1  6
  9 10  1  0
  9 20  1  0
 10 11  1  0
 11 12  2  0
 11 13  1  0
 13 14  1  0
 14 15  1  0
 15 16  1  6
 15 17  1  0
 17 18  2  0
 17 19  1  0
 20 21  2  0
 20 22  1  0
 22 23  1  0
 23 24  1  0
 24 25  2  0
 24 26  1  0
M  CHG  1  16   1
M  END
