
     RDKit          3D

 26 26  0  0  0  0  0  0  0  0999 V2000
   -4.9880    3.1580   -0.4690 C   0  0  0  0  0  0  0  0  0  0  0  0
   -5.5110    2.0760    0.4470 C   0  0  0  0  0  0  0  0  0  0  0  0
   -5.5370    0.4560   -0.2560 S   0  0  0  0  0  0  0  0  0  0  0  0
   -4.0190   -0.2930   -0.6960 C   0  0  0  0  0  0  0  0  0  0  0  0
   -3.0270   -0.6830    0.3170 C   0  0  1  0  0  0  0  0  0  0  0  0
   -3.5640   -1.5810    1.2740 O   0  0  0  0  0  0  0  0  0  0  0  0
   -2.1130   -1.6940   -0.4850 C   0  0  0  0  0  0  0  0  0  0  0  0
   -1.1080   -0.7370   -1.1680 C   0  0  2  0  0  0  0  0  0  0  0  0
   -1.4490   -0.6560   -2.6550 C   0  0  0  0  0  0  0  0  0  0  0  0
    0.0900   -1.3430   -1.0610 O   0  0  0  0  0  0  0  0  0  0  0  0
    1.2270   -0.8080   -1.5480 C   0  0  0  0  0  0  0  0  0  0  0  0
    2.3280   -1.8790   -1.3030 C   0  0  0  0  0  0  0  0  0  0  0  0
    2.4060   -2.1260    0.0650 O   0  0  0  0  0  0  0  0  0  0  0  0
    3.2720   -3.1270    0.3870 C   0  0  0  0  0  0  0  0  0  0  0  0
    4.6990   -2.8220    0.1390 C   0  0  0  0  0  0  0  0  0  0  0  0
    5.2940   -1.7990    0.8180 O   0  0  0  0  0  0  0  0  0  0  0  0
    5.1140   -0.4760    0.9230 C   0  0  0  0  0  0  0  0  0  0  0  0
    4.1890    0.0580    0.2660 O   0  0  0  0  0  0  0  0  0  0  0  0
    5.9500    0.3500    1.7650 N   0  0  0  0  0  0  0  0  0  0  0  0
    5.7270    1.7270    1.8330 N   0  0  0  0  0  0  0  0  0  0  0  0
    6.3900    2.3770    0.7170 C   0  0  0  0  0  0  0  0  0  0  0  0
   -1.2390    0.5790   -0.4980 C   0  0  2  0  0  0  0  0  0  0  0  0
   -0.0860    1.2110   -0.1240 O   0  0  0  0  0  0  0  0  0  0  0  0
   -1.9750    0.1930    0.7840 C   0  0  1  0  0  0  0  0  0  0  0  0
   -2.2050    1.3770    1.6050 C   0  0  0  0  0  0  0  0  0  0  0  0
   -2.8180    1.2020    2.8740 N   0  0  0  0  0  0  0  0  0  0  0  0
  1  2  1  0
  2  3  1  0
  3  4  1  0
  4  5  1  0
  5  6  1  1
  5  7  1  0
  5 24  1  0
  7  8  1  0
  8  9  1  6
  8 10  1  0
  8 22  1  0
 10 11  1  0
 11 12  1  0
 12 13  1  0
 13 14  1  0
 14 15  1  0
 15 16  1  0
 16 17  1  0
 17 18  2  0
 17 19  1  0
 19 20  1  0
 20 21  1  0
 22 23  1  1
 22 24  1  0
 24 25  1  6
 25 26  1  0
M  CHG  1  26   1
M  END
