
     RDKit          3D

 26 26  0  0  0  0  0  0  0  0999 V2000
    8.0320    0.8670    0.9230 C   0  0  0  0  0  0  0  0  0  0  0  0
    7.3420    0.2260   -0.2580 C   0  0  0  0  0  0  0  0  0  0  0  0
    7.8480    0.2200   -1.4770 C   0  0  0  0  0  0  0  0  0  0  0  0
    6.8650   -0.4930   -2.2810 C   0  0  0  0  0  0  0  0  0  0  0  0
    6.9410   -0.7390   -3.5360 O   0  0  0  0  0  0  0  0  0  0  0  0
    5.7740   -0.8820   -1.4060 C   0  0  0  0  0  0  0  0  0  0  0  0
    6.0610   -0.4520   -0.1990 C   0  0  0  0  0  0  0  0  0  0  0  0
    5.2970   -0.6000    0.9550 O   0  0  0  0  0  0  0  0  0  0  0  0
    3.8850   -0.5070    0.9400 C   0  0  0  0  0  0  0  0  0  0  0  0
    3.5020    0.8520    0.4410 C   0  0  0  0  0  0  0  0  0  0  0  0
    2.1030    1.0460    0.3890 O   0  0  0  0  0  0  0  0  0  0  0  0
    1.2410    0.2990   -0.3600 C   0  0  0  0  0  0  0  0  0  0  0  0
    1.6860   -0.6380   -1.0670 O   0  0  0  0  0  0  0  0  0  0  0  0
   -0.1790    0.5170   -0.3940 N   0  0  0  0  0  0  0  0  0  0  0  0
   -1.0470   -0.3120   -1.2120 C   0  0  0  0  0  0  0  0  0  0  0  0
   -2.4870    0.1110   -1.0760 C   0  0  0  0  0  0  0  0  0  0  0  0
   -2.8800   -0.0390    0.3770 C   0  0  2  0  0  0  0  0  0  0  0  0
   -2.6940   -1.5030    0.7260 C   0  0  0  0  0  0  0  0  0  0  0  0
   -4.2100    0.4200    0.6400 N   0  0  0  0  0  0  0  0  0  0  0  0
   -5.0990    0.4150   -0.4810 C   0  0  1  0  0  0  0  0  0  0  0  0
   -5.7800   -0.9380   -0.6880 C   0  0  0  0  0  0  0  0  0  0  0  0
   -6.7520   -1.4240    0.7250 S   0  0  0  0  0  0  0  0  0  0  0  0
   -8.0560   -2.0890    0.2720 O   0  0  0  0  0  0  0  0  0  0  0  0
   -6.1560    1.4690   -0.2880 C   0  0  0  0  0  0  0  0  0  0  0  0
   -6.1740    2.2870    0.8680 N   0  0  0  0  0  0  0  0  0  0  0  0
   -7.0220    1.5980   -1.1880 O   0  0  0  0  0  0  0  0  0  0  0  0
  1  2  1  0
  2  3  2  0
  2  7  1  0
  3  4  1  0
  4  5  2  0
  4  6  1  0
  6  7  2  0
  7  8  1  0
  8  9  1  0
  9 10  1  0
 10 11  1  0
 11 12  1  0
 12 13  2  0
 12 14  1  0
 14 15  1  0
 15 16  1  0
 16 17  1  0
 17 18  1  6
 17 19  1  0
 19 20  1  0
 20 21  1  1
 20 24  1  0
 21 22  1  0
 22 23  2  0
 24 25  1  0
 24 26  2  0
M  CHG  1  19   1
M  END
