
     RDKit          3D

 16 16  0  0  0  0  0  0  0  0999 V2000
    5.9490    1.0620   -0.3070 N   0  0  0  0  0  0  0  0  0  0  0  0
    5.8810    0.1740    0.6230 C   0  0  0  0  0  0  0  0  0  0  0  0
    7.2760   -0.8670    0.9590 Cl  0  0  0  0  0  0  0  0  0  0  0  0
    4.6890    0.1140    1.2910 O   0  0  0  0  0  0  0  0  0  0  0  0
    3.4500   -0.2300    0.7980 C   0  0  0  0  0  0  0  0  0  0  0  0
    2.8790    0.5520   -0.3260 C   0  0  0  0  0  0  0  0  0  0  0  0
    1.6260    0.0890   -0.7060 O   0  0  0  0  0  0  0  0  0  0  0  0
    0.6500    0.1230    0.2600 C   0  0  0  0  0  0  0  0  0  0  0  0
   -0.6230   -0.3870   -0.4040 C   0  0  0  0  0  0  0  0  0  0  0  0
   -1.7810   -0.4020    0.5490 C   0  0  1  0  0  0  0  0  0  0  0  0
   -2.0990    0.8910    1.0790 N   0  0  0  0  0  0  0  0  0  0  0  0
   -2.9860   -0.9250   -0.2090 C   0  0  2  0  0  0  0  0  0  0  0  0
   -3.3160   -0.0760   -1.2450 O   0  0  0  0  0  0  0  0  0  0  0  0
   -4.6780    0.1270   -1.2260 C   0  0  0  0  0  0  0  0  0  0  0  0
   -5.1430   -1.0090   -0.3140 C   0  0  0  0  0  0  0  0  0  0  0  0
   -4.1000   -1.0420    0.6120 O   0  0  0  0  0  0  0  0  0  0  0  0
  1  2  2  0
  2  3  1  0
  2  4  1  0
  4  5  1  0
  5  6  1  0
  6  7  1  0
  7  8  1  0
  8  9  1  0
  9 10  1  0
 10 11  1  6
 10 12  1  0
 12 13  1  6
 12 16  1  0
 13 14  1  0
 14 15  1  0
 15 16  1  0
M  CHG  2   1   1  11   1
M  END
