
     RDKit          3D

 25 24  0  0  0  0  0  0  0  0999 V2000
   -0.7050    1.2400    0.1690 C   0  0  0  0  0  0  0  0  0  0  0  0
   -1.1290   -0.1420    0.1940 N   0  0  2  0  0  0  0  0  0  0  0  0
   -0.1500   -0.9370   -0.4380 C   0  0  0  0  0  0  0  0  0  0  0  0
    1.0420   -1.2180    0.5020 C   0  0  0  0  0  0  0  0  0  0  0  0
    2.0540   -2.1070   -0.2410 C   0  0  0  0  0  0  0  0  0  0  0  0
    3.4340   -2.4300    0.8720 S   0  0  0  0  0  0  0  0  0  0  0  0
    4.3420   -0.9160    1.1840 C   0  0  0  0  0  0  0  0  0  0  0  0
    5.0490   -0.4790   -0.0720 C   0  0  2  0  0  0  0  0  0  0  0  0
    4.1460   -0.2470   -1.0820 O   0  0  0  0  0  0  0  0  0  0  0  0
    5.9840   -1.6140   -0.4570 C   0  0  0  0  0  0  0  0  0  0  0  0
    6.6650   -1.2660   -1.6080 O   0  0  0  0  0  0  0  0  0  0  0  0
    5.8630    0.7540    0.2110 C   0  0  0  0  0  0  0  0  0  0  0  0
    6.7310    0.7240    1.1090 O   0  0  0  0  0  0  0  0  0  0  0  0
    5.6050    1.9100   -0.5650 N   0  0  0  0  0  0  0  0  0  0  0  0
    6.3600    3.0780   -0.3150 N   0  0  0  0  0  0  0  0  0  0  0  0
   -2.5100   -0.3150   -0.2750 C   0  0  1  0  0  0  0  0  0  0  0  0
   -2.4980   -0.0630   -1.7460 C   0  0  0  0  0  0  0  0  0  0  0  0
   -1.6330   -0.9150   -2.4630 O   0  0  0  0  0  0  0  0  0  0  0  0
   -2.8460   -1.7200    0.0920 C   0  0  0  0  0  0  0  0  0  0  0  0
   -2.7330   -1.9390    1.4690 O   0  0  0  0  0  0  0  0  0  0  0  0
   -3.2580    0.7060    0.5250 C   0  0  0  0  0  0  0  0  0  0  0  0
   -4.6650    0.9470    0.4500 C   0  0  2  0  0  0  0  0  0  0  0  0
   -5.1550    1.3870   -0.9120 C   0  0  0  0  0  0  0  0  0  0  0  0
   -4.9620    2.1770    1.3580 C   0  0  0  0  0  0  0  0  0  0  0  0
   -5.6370   -0.0770    0.9440 C   0  0  0  0  0  0  0  0  0  0  0  0
  2  1  1  6
  2  3  1  0
  2 16  1  0
  3  4  1  0
  4  5  1  0
  5  6  1  0
  6  7  1  0
  7  8  1  0
  8  9  1  6
  8 10  1  0
  8 12  1  0
 10 11  1  0
 12 13  2  0
 12 14  1  0
 14 15  1  0
 16 17  1  6
 16 19  1  0
 16 21  1  0
 17 18  1  0
 19 20  1  0
 21 22  1  0
 22 23  1  6
 22 24  1  0
 22 25  1  0
M  CHG  1   2   1
M  END
