
     RDKit          3D

 34 38  0  0  0  0  0  0  0  0999 V2000
    3.5780    6.2000    0.7170 C   0  0  0  0  0  0  0  0  0  0  0  0
    2.9400    4.8840    0.4710 C   0  0  0  0  0  0  0  0  0  0  0  0
    1.5900    4.6670    0.6020 C   0  0  0  0  0  0  0  0  0  0  0  0
    1.0370    3.4120    0.3600 C   0  0  0  0  0  0  0  0  0  0  0  0
    1.7960    2.3350   -0.0180 C   0  0  0  0  0  0  0  0  0  0  0  0
    1.3040    0.9920   -0.2920 C   0  0  0  0  0  0  0  0  0  0  0  0
    0.0370    0.7100   -0.1900 C   0  0  0  0  0  0  0  0  0  0  0  0
   -0.5860   -0.5780   -0.4320 C   0  0  0  0  0  0  0  0  0  0  0  0
    0.1010   -1.5570   -0.7750 O   0  0  0  0  0  0  0  0  0  0  0  0
   -2.0210   -0.7480   -0.2770 C   0  0  0  0  0  0  0  0  0  0  0  0
   -2.8980    0.2450    0.0960 C   0  0  0  0  0  0  0  0  0  0  0  0
   -4.2660    0.0090    0.2250 C   0  0  0  0  0  0  0  0  0  0  0  0
   -4.7930   -1.2500   -0.0230 C   0  0  0  0  0  0  0  0  0  0  0  0
   -6.1410   -1.5140    0.0950 C   0  0  0  0  0  0  0  0  0  0  0  0
   -6.6550   -2.7910   -0.1590 C   0  0  0  0  0  0  0  0  0  0  0  0
   -5.7900   -3.7860   -0.5310 C   0  0  0  0  0  0  0  0  0  0  0  0
   -4.4410   -3.5050   -0.6440 C   0  0  0  0  0  0  0  0  0  0  0  0
   -3.9400   -2.2440   -0.3930 C   0  0  0  0  0  0  0  0  0  0  0  0
   -2.5980   -1.9900   -0.5130 C   0  0  0  0  0  0  0  0  0  0  0  0
   -7.0930   -0.4660    0.4890 C   0  0  0  0  0  0  0  0  0  0  0  0
   -6.3960    0.6070    1.2710 C   0  0  2  0  0  0  0  0  0  0  0  0
   -7.3240    1.8190    1.3850 C   0  0  0  0  0  0  0  0  0  0  0  0
   -5.1760    1.0160    0.6080 N   0  0  0  0  0  0  0  0  0  0  0  0
    2.2130   -0.0500   -0.6810 N   0  0  0  0  0  0  0  0  0  0  0  0
    2.5100   -0.3220   -2.0720 C   0  0  0  0  0  0  0  0  0  0  0  0
    2.9610   -1.7100   -2.3690 C   0  0  0  0  0  0  0  0  0  0  0  0
    3.9980   -2.2470   -1.4190 C   0  0  0  0  0  0  0  0  0  0  0  0
    4.2600   -1.2420   -0.3510 C   0  0  2  0  0  0  0  0  0  0  0  0
    5.1740   -1.7160    0.6650 N   0  0  1  0  0  0  0  0  0  0  0  0
    4.5130   -2.5030    1.6840 C   0  0  0  0  0  0  0  0  0  0  0  0
    6.1620   -2.5720    0.0240 C   0  0  0  0  0  0  0  0  0  0  0  0
    2.9080   -0.8700    0.2890 C   0  0  0  0  0  0  0  0  0  0  0  0
    3.1700    2.6160   -0.1360 C   0  0  0  0  0  0  0  0  0  0  0  0
    3.7200    3.8370    0.0980 C   0  0  0  0  0  0  0  0  0  0  0  0
  1  2  1  0
  2  3  2  0
  2 34  1  0
  3  4  1  0
  4  5  2  0
  5  6  1  0
  5 33  1  0
  6  7  2  3
  6 24  1  0
  7  8  1  0
  8  9  2  0
  8 10  1  0
 10 11  2  0
 10 19  1  0
 11 12  1  0
 12 13  2  0
 12 23  1  0
 13 14  1  0
 13 18  1  0
 14 15  2  0
 14 20  1  0
 15 16  1  0
 16 17  2  0
 17 18  1  0
 18 19  2  0
 20 21  1  0
 21 22  1  6
 21 23  1  0
 24 25  1  0
 24 32  1  0
 25 26  1  0
 26 27  1  0
 28 27  1  6
 28 29  1  0
 28 32  1  0
 29 30  1  1
 29 31  1  0
 33 34  2  0
M  CHG  1  29   1
M  END
