
     RDKit          3D

 35 39  0  0  0  0  0  0  0  0999 V2000
    0.3440   -0.0690   -4.2660 C   0  0  0  0  0  0  0  0  0  0  0  0
   -0.9010    0.0420   -3.4340 C   0  0  0  0  0  0  0  0  0  0  0  0
   -2.1360   -0.2850   -3.9570 C   0  0  0  0  0  0  0  0  0  0  0  0
   -3.2900   -0.1840   -3.2110 C   0  0  0  0  0  0  0  0  0  0  0  0
   -3.2820    0.2510   -1.8910 C   0  0  0  0  0  0  0  0  0  0  0  0
   -4.5340    0.3870   -1.1590 C   0  0  0  0  0  0  0  0  0  0  0  0
   -5.7130    0.7530   -1.7830 C   0  0  0  0  0  0  0  0  0  0  0  0
   -6.8970    0.8970   -1.0930 C   0  0  0  0  0  0  0  0  0  0  0  0
   -6.9450    0.6740    0.2690 C   0  0  0  0  0  0  0  0  0  0  0  0
   -5.7880    0.3060    0.9130 C   0  0  0  0  0  0  0  0  0  0  0  0
   -4.5870    0.1690    0.1920 C   0  0  0  0  0  0  0  0  0  0  0  0
   -6.1110    0.1100    2.3470 C   0  0  2  0  0  0  0  0  0  0  0  0
   -6.6130   -1.2440    2.6010 N   0  0  0  0  0  0  0  0  0  0  0  0
   -7.2890    1.0390    2.5560 C   0  0  0  0  0  0  0  0  0  0  0  0
   -8.0790    0.7780    1.2620 C   0  0  0  0  0  0  0  0  0  0  0  0
   -2.0490    0.5740   -1.3740 C   0  0  0  0  0  0  0  0  0  0  0  0
   -0.8770    0.4780   -2.1240 C   0  0  0  0  0  0  0  0  0  0  0  0
    0.3770    0.8890   -1.5220 C   0  0  0  0  0  0  0  0  0  0  0  0
    1.3700   -0.1140   -1.1470 C   0  0  1  0  0  0  0  0  0  0  0  0
    2.6600    0.5430   -0.5060 C   0  0  0  0  0  0  0  0  0  0  0  0
    2.9060   -0.8540   -0.0480 C   0  0  1  0  0  0  0  0  0  0  0  0
    3.5750   -1.1400    1.1660 N   0  0  0  0  0  0  0  0  0  0  0  0
    4.9170   -0.7550    1.4040 C   0  0  0  0  0  0  0  0  0  0  0  0
    5.6030   -0.0490    0.4130 C   0  0  0  0  0  0  0  0  0  0  0  0
    6.8950    0.3960    0.5240 C   0  0  0  0  0  0  0  0  0  0  0  0
    7.5670    1.1200   -0.5650 C   0  0  0  0  0  0  0  0  0  0  0  0
    8.7110    1.8970   -0.2860 N   0  0  0  0  0  0  0  0  0  0  0  0
    7.1430    1.0630   -1.7230 O   0  0  0  0  0  0  0  0  0  0  0  0
    7.5500    0.1160    1.7030 C   0  0  0  0  0  0  0  0  0  0  0  0
    6.9130   -0.5840    2.7120 C   0  0  0  0  0  0  0  0  0  0  0  0
    5.5910   -1.0250    2.5730 C   0  0  0  0  0  0  0  0  0  0  0  0
    4.9860   -1.7860    3.6740 C   0  0  0  0  0  0  0  0  0  0  0  0
    5.8220   -2.0060    4.8350 N   0  0  0  0  0  0  0  0  0  0  0  0
    3.8530   -2.2610    3.7340 O   0  0  0  0  0  0  0  0  0  0  0  0
    1.3350   -0.8980    0.1160 C   0  0  0  0  0  0  0  0  0  0  0  0
  1  2  1  0
  2  3  2  0
  2 17  1  0
  3  4  1  0
  4  5  2  0
  5  6  1  0
  5 16  1  0
  6  7  2  0
  6 11  1  0
  7  8  1  0
  8  9  2  0
  9 10  1  0
  9 15  1  0
 10 11  2  0
 10 12  1  0
 12 13  1  6
 12 14  1  0
 14 15  1  0
 16 17  2  0
 17 18  1  0
 19 18  1  1
 19 20  1  0
 19 35  1  0
 20 21  1  0
 21 22  1  1
 21 35  1  0
 22 23  1  0
 23 24  2  0
 23 31  1  0
 24 25  1  0
 25 26  1  0
 25 29  2  0
 26 27  1  0
 26 28  2  0
 29 30  1  0
 30 31  2  0
 31 32  1  0
 32 33  1  0
 32 34  2  0
M  CHG  1  13   1
M  END
