
     RDKit          3D

 34 37  0  0  0  0  0  0  0  0999 V2000
    2.5930    2.6110   -0.9030 C   0  0  0  0  0  0  0  0  0  0  0  0
    1.8720    2.0350    0.2920 C   0  0  2  0  0  0  0  0  0  0  0  0
    2.6090    1.8280    1.5230 C   0  0  0  0  0  0  0  0  0  0  0  0
    3.7720    0.9610    1.6540 C   0  0  0  0  0  0  0  0  0  0  0  0
    4.9890    1.2940    0.8930 C   0  0  0  0  0  0  0  0  0  0  0  0
    5.2120    2.3230    0.2350 O   0  0  0  0  0  0  0  0  0  0  0  0
    6.0800    0.3280    0.8870 N   0  0  0  0  0  0  0  0  0  0  0  0
    7.2790    0.6220    0.1560 C   0  0  0  0  0  0  0  0  0  0  0  0
    8.2950   -0.4540    0.2220 C   0  0  0  0  0  0  0  0  0  0  0  0
    7.7000   -1.9440   -0.4790 S   0  0  1  0  0  0  0  0  0  0  0  0
    6.4510   -2.3750    0.2160 O   0  0  0  0  0  0  0  0  0  0  0  0
    7.3800   -1.7690   -1.9440 O   0  0  0  0  0  0  0  0  0  0  0  0
    8.8710   -3.1550   -0.4020 O   0  0  0  0  0  0  0  0  0  0  0  0
    0.9570    1.0060   -0.2120 C   0  0  1  0  0  0  0  0  0  0  0  0
    1.5660   -0.1600   -0.9600 C   0  0  0  0  0  0  0  0  0  0  0  0
    0.4520   -1.2260   -1.0000 C   0  0  0  0  0  0  0  0  0  0  0  0
   -0.6940   -0.4490   -0.5190 C   0  0  1  0  0  0  0  0  0  0  0  0
   -1.9420   -1.0890   -0.1440 C   0  0  2  0  0  0  0  0  0  0  0  0
   -2.4430   -1.9570   -1.2580 C   0  0  0  0  0  0  0  0  0  0  0  0
   -3.8710   -2.3640   -1.1350 C   0  0  0  0  0  0  0  0  0  0  0  0
   -4.8050   -1.3660   -0.5850 C   0  0  2  0  0  0  0  0  0  0  0  0
   -5.5300   -0.5590   -1.6510 C   0  0  0  0  0  0  0  0  0  0  0  0
   -6.7720    0.0590   -1.0370 C   0  0  2  0  0  0  0  0  0  0  0  0
   -6.9690    1.3440   -1.5600 O   0  0  0  0  0  0  0  0  0  0  0  0
   -6.6240    0.1900    0.4500 C   0  0  0  0  0  0  0  0  0  0  0  0
   -5.2280    0.5790    0.8390 C   0  0  0  0  0  0  0  0  0  0  0  0
   -4.2020   -0.4590    0.4810 C   0  0  1  0  0  0  0  0  0  0  0  0
   -4.0030   -1.3560    1.7090 C   0  0  0  0  0  0  0  0  0  0  0  0
   -2.9430    0.0820   -0.0580 C   0  0  1  0  0  0  0  0  0  0  0  0
   -2.3700    1.2700    0.5930 C   0  0  0  0  0  0  0  0  0  0  0  0
   -1.0680    1.0750    1.3290 C   0  0  2  0  0  0  0  0  0  0  0  0
   -0.7050    2.3300    1.8200 O   0  0  0  0  0  0  0  0  0  0  0  0
   -0.0270    0.3340    0.6400 C   0  0  2  0  0  0  0  0  0  0  0  0
    0.5540   -0.7530    1.5390 C   0  0  0  0  0  0  0  0  0  0  0  0
  2  1  1  6
  2  3  1  0
  2 14  1  0
  3  4  1  0
  4  5  1  0
  5  6  2  0
  5  7  1  0
  7  8  1  0
  8  9  1  0
  9 10  1  0
 10 11  2  0
 10 12  2  0
 10 13  1  6
 14 15  1  1
 14 33  1  0
 15 16  1  0
 17 16  1  1
 17 18  1  0
 17 33  1  0
 18 19  1  6
 18 29  1  0
 19 20  1  0
 21 20  1  6
 21 22  1  0
 21 27  1  0
 22 23  1  0
 23 24  1  6
 23 25  1  0
 25 26  1  0
 26 27  1  0
 27 28  1  1
 27 29  1  0
 29 30  1  1
 30 31  1  0
 31 32  1  6
 31 33  1  0
 33 34  1  1
M  END
