
     RDKit          3D

 35 39  0  0  0  0  0  0  0  0999 V2000
    7.0680    0.1640    1.7690 C   0  0  0  0  0  0  0  0  0  0  0  0
    7.4400    0.2730    0.3160 C   0  0  0  0  0  0  0  0  0  0  0  0
    8.5920    0.7340   -0.1270 C   0  0  0  0  0  0  0  0  0  0  0  0
    8.5870    0.6880   -1.5430 N   0  0  0  0  0  0  0  0  0  0  0  0
    7.3300    0.1610   -1.9170 C   0  0  0  0  0  0  0  0  0  0  0  0
    6.6300   -0.0930   -0.8310 C   0  0  0  0  0  0  0  0  0  0  0  0
    5.2430   -0.6460   -0.7710 C   0  0  0  0  0  0  0  0  0  0  0  0
    4.4480    0.3550   -0.0790 N   0  0  0  0  0  0  0  0  0  0  0  0
    3.0470    0.1800   -0.0460 C   0  0  0  0  0  0  0  0  0  0  0  0
    2.2810    1.0820    0.6760 C   0  0  0  0  0  0  0  0  0  0  0  0
    0.9340    0.9730    0.7090 C   0  0  0  0  0  0  0  0  0  0  0  0
    0.2620   -0.0660    0.0090 C   0  0  0  0  0  0  0  0  0  0  0  0
   -1.1730   -0.0090    0.0420 C   0  0  0  0  0  0  0  0  0  0  0  0
   -1.6560    1.1390    0.3800 O   0  0  0  0  0  0  0  0  0  0  0  0
   -2.1210   -1.0240   -0.2400 C   0  0  0  0  0  0  0  0  0  0  0  0
   -1.8170   -2.2820   -0.5540 C   0  0  0  0  0  0  0  0  0  0  0  0
   -2.8700   -3.2650   -0.8870 C   0  0  0  0  0  0  0  0  0  0  0  0
   -2.5780   -4.6160   -1.0080 C   0  0  0  0  0  0  0  0  0  0  0  0
   -3.5860   -5.5100   -1.1470 N   0  0  0  0  0  0  0  0  0  0  0  0
   -4.8750   -5.1280   -1.1720 C   0  0  0  0  0  0  0  0  0  0  0  0
   -5.2380   -3.7750   -1.0570 C   0  0  0  0  0  0  0  0  0  0  0  0
   -4.1850   -2.9070   -0.9220 C   0  0  0  0  0  0  0  0  0  0  0  0
   -4.3940   -1.4000   -1.0030 C   0  0  0  0  0  0  0  0  0  0  0  0
   -3.6080   -0.8400    0.1240 C   0  0  2  0  0  0  0  0  0  0  0  0
   -3.9470    0.5150    0.5410 C   0  0  0  0  0  0  0  0  0  0  0  0
   -4.5310    1.4310   -0.3420 C   0  0  0  0  0  0  0  0  0  0  0  0
   -4.8440    2.7130    0.0500 C   0  0  0  0  0  0  0  0  0  0  0  0
   -5.4400    3.6330   -0.8580 N   0  0  0  0  0  0  0  0  0  0  0  0
   -4.5960    3.1640    1.3390 C   0  0  0  0  0  0  0  0  0  0  0  0
   -4.9330    4.5570    1.7570 C   0  0  0  0  0  0  0  0  0  0  0  0
   -4.0220    2.2720    2.2190 C   0  0  0  0  0  0  0  0  0  0  0  0
   -3.7040    0.9860    1.8400 C   0  0  0  0  0  0  0  0  0  0  0  0
   -3.1220    0.0980    2.7650 O   0  0  0  0  0  0  0  0  0  0  0  0
    1.0270   -0.9520   -0.7050 C   0  0  0  0  0  0  0  0  0  0  0  0
    2.4120   -0.8120   -0.7160 C   0  0  0  0  0  0  0  0  0  0  0  0
  1  2  1  0
  2  3  2  0
  2  6  1  0
  3  4  1  0
  4  5  1  0
  5  6  2  0
  6  7  1  0
  7  8  1  0
  8  9  1  0
  9 10  2  0
  9 35  1  0
 10 11  1  0
 11 12  2  0
 12 13  1  0
 12 34  1  0
 13 14  2  0
 13 15  1  0
 15 16  2  0
 15 24  1  0
 16 17  1  0
 17 18  2  0
 17 22  1  0
 18 19  1  0
 19 20  2  0
 20 21  1  0
 21 22  2  0
 22 23  1  0
 23 24  1  0
 24 25  1  6
 25 26  2  0
 25 32  1  0
 26 27  1  0
 27 28  1  0
 27 29  2  0
 29 30  1  0
 29 31  1  0
 31 32  2  0
 32 33  1  0
 34 35  2  0
M  CHG  1   4   1
M  END
