
     RDKit          3D

 34 38  0  0  0  0  0  0  0  0999 V2000
    0.3980    5.3520    1.8920 C   0  0  0  0  0  0  0  0  0  0  0  0
   -0.3550    4.5990    0.8300 C   0  0  0  0  0  0  0  0  0  0  0  0
   -0.8620    5.3880   -0.1650 C   0  0  0  0  0  0  0  0  0  0  0  0
   -1.5980    4.7480   -1.1560 C   0  0  0  0  0  0  0  0  0  0  0  0
   -1.8070    3.4100   -1.1510 C   0  0  0  0  0  0  0  0  0  0  0  0
   -2.5210    2.7140   -2.2690 C   0  0  0  0  0  0  0  0  0  0  0  0
   -1.2730    2.5740   -0.1280 C   0  0  0  0  0  0  0  0  0  0  0  0
   -1.7300    1.1790   -0.1360 C   0  0  0  0  0  0  0  0  0  0  0  0
   -0.7550    0.0960   -0.3040 N   0  0  1  0  0  0  0  0  0  0  0  0
    0.4740    0.0750    0.1900 C   0  0  0  0  0  0  0  0  0  0  0  0
    0.1150    0.2730    1.3470 O   0  0  0  0  0  0  0  0  0  0  0  0
    1.9230   -0.0480    0.0780 C   0  0  0  0  0  0  0  0  0  0  0  0
    2.8870    0.9170    0.2210 C   0  0  0  0  0  0  0  0  0  0  0  0
    4.0880    0.3380    0.1830 C   0  0  0  0  0  0  0  0  0  0  0  0
    5.4600    0.8620    0.1430 C   0  0  0  0  0  0  0  0  0  0  0  0
    6.0050    1.9750   -0.0380 N   0  0  0  0  0  0  0  0  0  0  0  0
    7.4320    1.9960    0.0110 C   0  0  0  0  0  0  0  0  0  0  0  0
    7.8380    0.5990    0.4430 C   0  0  0  0  0  0  0  0  0  0  0  0
    6.5650    0.0110    0.8450 C   0  0  0  0  0  0  0  0  0  0  0  0
    3.8670   -1.0170   -0.0000 C   0  0  0  0  0  0  0  0  0  0  0  0
    2.5580   -1.1980   -0.0610 N   0  0  0  0  0  0  0  0  0  0  0  0
   -1.5780   -1.0900   -0.2490 C   0  0  1  0  0  0  0  0  0  0  0  0
   -0.8960   -2.3950    0.0180 C   0  0  0  0  0  0  0  0  0  0  0  0
   -1.7680   -3.5530   -0.3870 C   0  0  0  0  0  0  0  0  0  0  0  0
   -1.3500   -4.5990   -1.1310 C   0  0  0  0  0  0  0  0  0  0  0  0
   -2.2570   -5.6080   -1.4660 C   0  0  0  0  0  0  0  0  0  0  0  0
   -3.5830   -5.5760   -1.0500 C   0  0  0  0  0  0  0  0  0  0  0  0
   -3.9820   -4.5060   -0.2930 C   0  0  0  0  0  0  0  0  0  0  0  0
   -3.0630   -3.4910    0.0350 C   0  0  0  0  0  0  0  0  0  0  0  0
   -3.4640   -2.3480    0.8660 C   0  0  2  0  0  0  0  0  0  0  0  0
   -3.1190   -2.5550    2.3350 C   0  0  0  0  0  0  0  0  0  0  0  0
   -5.0010   -2.2810    0.8270 C   0  0  0  0  0  0  0  0  0  0  0  0
   -2.9070   -1.0070    0.3760 C   0  0  0  0  0  0  0  0  0  0  0  0
   -0.5630    3.2430    0.8310 C   0  0  0  0  0  0  0  0  0  0  0  0
  1  2  1  0
  2  3  2  0
  2 34  1  0
  3  4  1  0
  4  5  2  0
  5  6  1  0
  5  7  1  0
  7  8  1  0
  7 34  2  0
  9  8  1  1
  9 10  1  0
  9 22  1  0
 10 11  2  0
 10 12  1  0
 12 13  2  0
 12 21  1  0
 13 14  1  0
 14 15  1  0
 14 20  2  0
 15 16  2  0
 15 19  1  0
 16 17  1  0
 17 18  1  0
 18 19  1  0
 20 21  1  0
 22 23  1  1
 22 33  1  0
 23 24  1  0
 24 25  2  0
 24 29  1  0
 25 26  1  0
 26 27  2  0
 27 28  1  0
 28 29  2  0
 29 30  1  0
 30 31  1  1
 30 32  1  0
 30 33  1  0
M  CHG  1   9   1
M  END
