
     RDKit          3D

 35 39  0  0  0  0  0  0  0  0999 V2000
   -5.7960    3.9380    0.2260 C   0  0  0  0  0  0  0  0  0  0  0  0
   -4.7020    3.3000   -0.1230 C   0  0  0  0  0  0  0  0  0  0  0  0
   -3.6340    4.0450   -0.7380 N   0  0  0  0  0  0  0  0  0  0  0  0
   -4.5160    1.8690    0.0770 C   0  0  0  0  0  0  0  0  0  0  0  0
   -5.5350    1.1180    0.5890 C   0  0  0  0  0  0  0  0  0  0  0  0
   -5.3410   -0.2400    0.7700 C   0  0  0  0  0  0  0  0  0  0  0  0
   -4.1380   -0.7810    0.4290 C   0  0  0  0  0  0  0  0  0  0  0  0
   -3.0580   -0.0650   -0.0940 C   0  0  0  0  0  0  0  0  0  0  0  0
   -3.2800    1.2740   -0.2640 C   0  0  0  0  0  0  0  0  0  0  0  0
   -1.7640   -0.7170   -0.3970 C   0  0  1  0  0  0  0  0  0  0  0  0
   -0.7050   -0.3540    0.5480 N   0  0  0  0  0  0  0  0  0  0  0  0
   -0.0200    0.8590    0.3650 C   0  0  0  0  0  0  0  0  0  0  0  0
    1.3980    0.6210   -0.1630 C   0  0  0  0  0  0  0  0  0  0  0  0
    2.0940    1.9800   -0.3080 C   0  0  0  0  0  0  0  0  0  0  0  0
    3.5000    1.8140   -0.8250 C   0  0  0  0  0  0  0  0  0  0  0  0
    4.3760    1.0510    0.0990 C   0  0  0  0  0  0  0  0  0  0  0  0
    4.0740    0.8910    1.4260 C   0  0  0  0  0  0  0  0  0  0  0  0
    4.8790    0.1740    2.3090 C   0  0  0  0  0  0  0  0  0  0  0  0
    4.5700    0.0480    3.5180 O   0  0  0  0  0  0  0  0  0  0  0  0
    6.0020   -0.3910    1.8610 N   0  0  0  0  0  0  0  0  0  0  0  0
    6.3320   -0.2510    0.5540 C   0  0  0  0  0  0  0  0  0  0  0  0
    7.5080   -0.8220    0.0890 C   0  0  0  0  0  0  0  0  0  0  0  0
    7.8850   -0.6860   -1.2280 C   0  0  0  0  0  0  0  0  0  0  0  0
    7.0990    0.0210   -2.1140 C   0  0  0  0  0  0  0  0  0  0  0  0
    5.9230    0.5990   -1.6760 C   0  0  0  0  0  0  0  0  0  0  0  0
    5.5580    0.4540   -0.3550 C   0  0  0  0  0  0  0  0  0  0  0  0
   -1.8700   -2.2250   -0.3700 C   0  0  0  0  0  0  0  0  0  0  0  0
   -0.7580   -2.9900   -0.9300 C   0  0  0  0  0  0  0  0  0  0  0  0
    0.3450   -2.2700   -1.4500 N   0  0  0  0  0  0  0  0  0  0  0  0
   -0.7580   -4.2620   -0.9620 O   0  0  0  0  0  0  0  0  0  0  0  0
   -2.8990   -2.8850    0.1130 C   0  0  0  0  0  0  0  0  0  0  0  0
   -2.9920   -4.3840    0.1490 C   0  0  0  0  0  0  0  0  0  0  0  0
   -4.1310   -2.2020    0.5630 C   0  0  0  0  0  0  0  0  0  0  0  0
   -5.2880   -2.5590    1.0620 C   0  0  0  0  0  0  0  0  0  0  0  0
   -6.1630   -1.3690    1.2970 C   0  0  0  0  0  0  0  0  0  0  0  0
  1  2  2  0
  2  3  1  0
  2  4  1  0
  4  5  2  0
  4  9  1  0
  5  6  1  0
  6  7  2  0
  6 35  1  0
  7  8  1  0
  7 33  1  0
  8  9  2  0
  8 10  1  0
 10 11  1  1
 10 27  1  0
 11 12  1  0
 12 13  1  0
 13 14  1  0
 14 15  1  0
 15 16  1  0
 16 17  2  0
 16 26  1  0
 17 18  1  0
 18 19  2  0
 18 20  1  0
 20 21  1  0
 21 22  2  0
 21 26  1  0
 22 23  1  0
 23 24  2  0
 24 25  1  0
 25 26  2  0
 27 28  1  0
 27 31  2  0
 28 29  1  0
 28 30  2  0
 31 32  1  0
 31 33  1  0
 33 34  2  0
 34 35  1  0
M  CHG  1  11   1
M  END
