
     RDKit          3D

 34 38  0  0  0  0  0  0  0  0999 V2000
    4.2860    5.6470   -0.5880 C   0  0  0  0  0  0  0  0  0  0  0  0
    4.8650    4.3630   -0.7030 O   0  0  0  0  0  0  0  0  0  0  0  0
    4.2170    3.2250   -0.2230 C   0  0  0  0  0  0  0  0  0  0  0  0
    2.9850    3.3150    0.3830 C   0  0  0  0  0  0  0  0  0  0  0  0
    2.3140    2.1920    0.8720 C   0  0  0  0  0  0  0  0  0  0  0  0
    2.8770    0.9510    0.7580 C   0  0  0  0  0  0  0  0  0  0  0  0
    2.2270   -0.2460    1.2200 C   0  0  0  0  0  0  0  0  0  0  0  0
    1.0330   -0.6810    0.9880 C   0  0  0  0  0  0  0  0  0  0  0  0
    0.5830   -1.9690    1.5980 C   0  0  0  0  0  0  0  0  0  0  0  0
   -0.5620   -1.5590    2.5150 C   0  0  0  0  0  0  0  0  0  0  0  0
   -1.4980   -0.5670    1.9180 C   0  0  0  0  0  0  0  0  0  0  0  0
   -1.3390   -0.2380    0.5470 N   0  0  1  0  0  0  0  0  0  0  0  0
   -2.0250    0.9990    0.2580 C   0  0  0  0  0  0  0  0  0  0  0  0
   -3.3830    0.9640   -0.0620 N   0  0  0  0  0  0  0  0  0  0  0  0
   -4.3610    0.5720    0.8600 C   0  0  0  0  0  0  0  0  0  0  0  0
   -4.9250   -0.7770    0.4250 C   0  0  1  0  0  0  0  0  0  0  0  0
   -5.6670   -1.4790    1.5140 C   0  0  0  0  0  0  0  0  0  0  0  0
   -5.7850   -0.4910   -0.7820 C   0  0  0  0  0  0  0  0  0  0  0  0
   -5.1710    0.5250   -1.7020 C   0  0  1  0  0  0  0  0  0  0  0  0
   -5.2520   -0.0400   -3.1070 C   0  0  0  0  0  0  0  0  0  0  0  0
   -5.9810    1.8030   -1.6740 C   0  0  0  0  0  0  0  0  0  0  0  0
   -3.7260    0.8020   -1.4190 C   0  0  0  0  0  0  0  0  0  0  0  0
    0.0520   -0.0260    0.1200 C   0  0  0  0  0  0  0  0  0  0  0  0
    4.1040    0.8680    0.1550 C   0  0  0  0  0  0  0  0  0  0  0  0
    4.7490   -0.4260    0.0050 C   0  0  0  0  0  0  0  0  0  0  0  0
    6.0750   -0.5240    0.3790 C   0  0  0  0  0  0  0  0  0  0  0  0
    6.7510   -1.7170    0.2590 C   0  0  0  0  0  0  0  0  0  0  0  0
    6.1410   -2.8480   -0.2330 C   0  0  0  0  0  0  0  0  0  0  0  0
    6.5750   -4.1050   -0.4430 N   0  0  0  0  0  0  0  0  0  0  0  0
    5.5770   -4.8510   -0.9470 C   0  0  0  0  0  0  0  0  0  0  0  0
    4.4840   -4.0200   -1.0530 C   0  0  0  0  0  0  0  0  0  0  0  0
    4.8240   -2.7720   -0.6110 C   0  0  0  0  0  0  0  0  0  0  0  0
    4.1460   -1.5570   -0.4860 C   0  0  0  0  0  0  0  0  0  0  0  0
    4.7900    1.9800   -0.3400 C   0  0  0  0  0  0  0  0  0  0  0  0
  1  2  1  0
  2  3  1  0
  3  4  2  0
  3 34  1  0
  4  5  1  0
  5  6  2  0
  6  7  1  0
  6 24  1  0
  7  8  2  3
  8  9  1  0
  8 23  1  0
  9 10  1  0
 10 11  1  0
 11 12  1  0
 12 13  1  1
 12 23  1  0
 13 14  1  0
 14 15  1  0
 14 22  1  0
 15 16  1  0
 16 17  1  1
 16 18  1  0
 18 19  1  0
 19 20  1  6
 19 21  1  0
 19 22  1  0
 24 25  1  0
 24 34  2  0
 25 26  2  0
 25 33  1  0
 26 27  1  0
 27 28  2  0
 28 29  1  0
 28 32  1  0
 29 30  1  0
 30 31  2  0
 31 32  1  0
 32 33  2  0
M  CHG  1  12   1
M  END
