
     RDKit          3D

 35 39  0  0  0  0  0  0  0  0999 V2000
   -7.8760    2.3580    1.6960 C   0  0  0  0  0  0  0  0  0  0  0  0
   -6.3860    2.2020    1.4640 C   0  0  0  0  0  0  0  0  0  0  0  0
   -6.1340    1.0080    0.5370 C   0  0  1  0  0  0  0  0  0  0  0  0
   -6.8100    1.2830   -0.6910 N   0  0  0  0  0  0  0  0  0  0  0  0
   -6.5530    0.3600   -1.7490 C   0  0  0  0  0  0  0  0  0  0  0  0
   -5.4920   -0.6200   -1.3710 C   0  0  0  0  0  0  0  0  0  0  0  0
   -4.2760    0.1910   -0.9070 C   0  0  2  0  0  0  0  0  0  0  0  0
   -3.1830   -0.7560   -0.7800 N   0  0  0  0  0  0  0  0  0  0  0  0
   -2.0050   -0.6840   -1.5630 C   0  0  0  0  0  0  0  0  0  0  0  0
   -1.9870    0.2940   -2.3960 O   0  0  0  0  0  0  0  0  0  0  0  0
   -0.8800   -1.5760   -1.5010 C   0  0  0  0  0  0  0  0  0  0  0  0
   -0.8210   -2.5960   -0.6800 C   0  0  0  0  0  0  0  0  0  0  0  0
    0.3160   -3.5040   -0.6130 C   0  0  0  0  0  0  0  0  0  0  0  0
    0.2890   -4.5010    0.2410 C   0  0  0  0  0  0  0  0  0  0  0  0
   -0.8130   -4.7410    1.1170 N   0  0  0  0  0  0  0  0  0  0  0  0
    0.2190   -1.3540   -2.3610 N   0  0  0  0  0  0  0  0  0  0  0  0
    1.4750   -0.8790   -1.9420 C   0  0  0  0  0  0  0  0  0  0  0  0
    2.4700   -0.7000   -2.8590 C   0  0  0  0  0  0  0  0  0  0  0  0
    3.7330   -0.2360   -2.5250 C   0  0  0  0  0  0  0  0  0  0  0  0
    3.9700    0.0520   -1.1970 C   0  0  0  0  0  0  0  0  0  0  0  0
    2.9850   -0.1210   -0.2570 C   0  0  0  0  0  0  0  0  0  0  0  0
    1.7210   -0.5920   -0.6380 C   0  0  0  0  0  0  0  0  0  0  0  0
    3.5350    0.2670    1.0590 C   0  0  1  0  0  0  0  0  0  0  0  0
    3.4680   -0.8490    1.8920 O   0  0  0  0  0  0  0  0  0  0  0  0
    4.9340    0.6820    0.8050 C   0  0  0  0  0  0  0  0  0  0  0  0
    5.9570    1.1430    1.6110 C   0  0  0  0  0  0  0  0  0  0  0  0
    7.2150    1.4770    1.1320 C   0  0  0  0  0  0  0  0  0  0  0  0
    7.4390    1.3360   -0.2210 C   0  0  0  0  0  0  0  0  0  0  0  0
    6.4340    0.8790   -1.0380 C   0  0  0  0  0  0  0  0  0  0  0  0
    5.1760    0.5470   -0.5460 C   0  0  0  0  0  0  0  0  0  0  0  0
    8.8400    1.7470   -0.4990 C   0  0  0  0  0  0  0  0  0  0  0  0
    9.5360    1.5620    0.8340 C   0  0  0  0  0  0  0  0  0  0  0  0
    8.4570    1.9880    1.8010 C   0  0  0  0  0  0  0  0  0  0  0  0
   -4.6570    0.8260    0.3960 C   0  0  2  0  0  0  0  0  0  0  0  0
   -4.1650    0.0220    1.5880 C   0  0  0  0  0  0  0  0  0  0  0  0
  1  2  1  0
  3  2  1  1
  3  4  1  0
  3 34  1  0
  4  5  1  0
  5  6  1  0
  6  7  1  0
  7  8  1  1
  7 34  1  0
  8  9  1  0
  9 10  2  0
  9 11  1  0
 11 12  2  3
 11 16  1  0
 12 13  1  0
 13 14  2  3
 14 15  1  0
 16 17  1  0
 17 18  2  0
 17 22  1  0
 18 19  1  0
 19 20  2  0
 20 21  1  0
 20 30  1  0
 21 22  2  0
 21 23  1  0
 23 24  1  1
 23 25  1  0
 25 26  2  0
 25 30  1  0
 26 27  1  0
 27 28  2  0
 27 33  1  0
 28 29  1  0
 28 31  1  0
 29 30  2  0
 31 32  1  0
 32 33  1  0
 34 35  1  1
M  CHG  1   4   1
M  END
