
     RDKit          3D

 34 38  0  0  0  0  0  0  0  0999 V2000
   -8.5220    1.4690   -0.3170 C   0  0  0  0  0  0  0  0  0  0  0  0
   -7.2720    0.8820    0.3250 C   0  0  0  0  0  0  0  0  0  0  0  0
   -6.8440   -0.2220   -0.4750 N   0  0  2  0  0  0  0  0  0  0  0  0
   -7.4990   -1.4220    0.0360 C   0  0  0  0  0  0  0  0  0  0  0  0
   -5.4200   -0.4640   -0.4330 C   0  0  1  0  0  0  0  0  0  0  0  0
   -4.6110    0.6090   -1.0910 C   0  0  0  0  0  0  0  0  0  0  0  0
   -3.1870    0.2030   -1.0480 C   0  0  0  0  0  0  0  0  0  0  0  0
   -2.3610    0.2720   -2.1580 C   0  0  0  0  0  0  0  0  0  0  0  0
   -1.0290   -0.1110   -2.1080 C   0  0  0  0  0  0  0  0  0  0  0  0
   -0.0230   -0.1450   -3.0190 N   0  0  0  0  0  0  0  0  0  0  0  0
    1.1110   -0.6160   -2.4360 C   0  0  0  0  0  0  0  0  0  0  0  0
    0.7720   -0.8740   -1.1250 C   0  0  0  0  0  0  0  0  0  0  0  0
    1.7090   -1.4070   -0.1070 C   0  0  0  0  0  0  0  0  0  0  0  0
    2.1200   -0.2800    0.8090 C   0  0  0  0  0  0  0  0  0  0  0  0
    2.7780    0.8000    0.1370 N   0  0  0  0  0  0  0  0  0  0  0  0
    3.1050    1.8070    1.1170 C   0  0  0  0  0  0  0  0  0  0  0  0
    4.4880    1.6040    1.6810 C   0  0  0  0  0  0  0  0  0  0  0  0
    4.8590    0.2640    1.7620 O   0  0  0  0  0  0  0  0  0  0  0  0
    4.9200   -0.3320    0.5050 C   0  0  2  0  0  0  0  0  0  0  0  0
    6.3450   -0.3120    0.0470 C   0  0  0  0  0  0  0  0  0  0  0  0
    6.5850    0.0550   -1.2550 C   0  0  0  0  0  0  0  0  0  0  0  0
    7.9080    0.0760   -1.6820 C   0  0  0  0  0  0  0  0  0  0  0  0
    8.9340   -0.2600   -0.8270 C   0  0  0  0  0  0  0  0  0  0  0  0
   10.3660   -0.2460   -1.2590 C   0  0  0  0  0  0  0  0  0  0  0  0
    8.6510   -0.6200    0.4660 C   0  0  0  0  0  0  0  0  0  0  0  0
    7.3520   -0.6520    0.9220 C   0  0  0  0  0  0  0  0  0  0  0  0
    4.0240    0.3960   -0.4880 C   0  0  0  0  0  0  0  0  0  0  0  0
   -0.5520   -0.5680   -0.8980 C   0  0  0  0  0  0  0  0  0  0  0  0
   -1.3820   -0.6360    0.2090 C   0  0  0  0  0  0  0  0  0  0  0  0
   -2.7050   -0.2560    0.1610 C   0  0  0  0  0  0  0  0  0  0  0  0
   -3.6280   -0.3130    1.3260 C   0  0  2  0  0  0  0  0  0  0  0  0
   -3.6690    1.0440    2.0410 C   0  0  0  0  0  0  0  0  0  0  0  0
   -3.0390   -1.2850    2.3390 C   0  0  0  0  0  0  0  0  0  0  0  0
   -4.9910   -0.7900    0.9660 C   0  0  0  0  0  0  0  0  0  0  0  0
  1  2  1  0
  2  3  1  0
  3  4  1  1
  3  5  1  0
  5  6  1  1
  5 34  1  0
  6  7  1  0
  7  8  2  0
  7 30  1  0
  8  9  1  0
  9 10  1  0
  9 28  2  0
 10 11  1  0
 11 12  2  0
 12 13  1  0
 12 28  1  0
 13 14  1  0
 14 15  1  0
 15 16  1  0
 15 27  1  0
 16 17  1  0
 17 18  1  0
 18 19  1  0
 19 20  1  6
 19 27  1  0
 20 21  2  0
 20 26  1  0
 21 22  1  0
 22 23  2  0
 23 24  1  0
 23 25  1  0
 25 26  2  0
 28 29  1  0
 29 30  2  0
 30 31  1  0
 31 32  1  1
 31 33  1  0
 31 34  1  0
M  CHG  1   3   1
M  END
