
     RDKit          3D

 27 29  0  0  0  0  0  0  0  0999 V2000
    5.1130   -0.8560    0.0020 C   0  0  0  0  0  0  0  0  0  0  0  0
    3.9920   -0.1210   -0.7010 C   0  0  1  0  0  0  0  0  0  0  0  0
    4.1310   -0.5120   -2.1770 C   0  0  0  0  0  0  0  0  0  0  0  0
    2.6450   -0.5350   -0.1710 C   0  0  2  0  0  0  0  0  0  0  0  0
    1.6100    0.2260   -0.9240 C   0  0  0  0  0  0  0  0  0  0  0  0
    0.3710    0.4870   -0.2500 N   0  0  0  0  0  0  0  0  0  0  0  0
   -0.8660    0.6220   -0.9250 C   0  0  0  0  0  0  0  0  0  0  0  0
   -0.8560    0.4860   -2.1860 O   0  0  0  0  0  0  0  0  0  0  0  0
   -2.1310    0.9080   -0.2780 C   0  0  0  0  0  0  0  0  0  0  0  0
   -2.5470    2.2370   -0.1000 C   0  0  0  0  0  0  0  0  0  0  0  0
   -3.7270    2.5940    0.4830 C   0  0  0  0  0  0  0  0  0  0  0  0
   -4.1530    3.9710    0.6570 C   0  0  0  0  0  0  0  0  0  0  0  0
   -5.2430    4.2300    1.2200 O   0  0  0  0  0  0  0  0  0  0  0  0
   -3.3780    5.0280    0.2140 O   0  0  0  0  0  0  0  0  0  0  0  0
   -4.5580    1.5870    0.9210 C   0  0  0  0  0  0  0  0  0  0  0  0
   -4.2090    0.2590    0.7780 C   0  0  0  0  0  0  0  0  0  0  0  0
   -2.9920   -0.0800    0.1770 C   0  0  0  0  0  0  0  0  0  0  0  0
   -2.6670   -1.4920    0.0680 C   0  0  0  0  0  0  0  0  0  0  0  0
   -2.0910   -2.2880    1.0200 C   0  0  0  0  0  0  0  0  0  0  0  0
   -1.9920   -3.5590    0.5330 N   0  0  0  0  0  0  0  0  0  0  0  0
   -2.5040   -3.5440   -0.7100 C   0  0  0  0  0  0  0  0  0  0  0  0
   -2.9390   -2.2650   -1.0390 C   0  0  0  0  0  0  0  0  0  0  0  0
   -3.5110   -1.9230   -2.2400 O   0  0  0  0  0  0  0  0  0  0  0  0
    0.3820    0.6170    1.1910 C   0  0  0  0  0  0  0  0  0  0  0  0
    1.1400   -0.6170    1.6900 C   0  0  0  0  0  0  0  0  0  0  0  0
    2.5090   -0.5100    1.2430 N   0  0  0  0  0  0  0  0  0  0  0  0
    3.1360    0.5150    1.9870 C   0  0  0  0  0  0  0  0  0  0  0  0
  2  1  1  1
  2  3  1  0
  2  4  1  0
  4  5  1  6
  4 26  1  0
  5  6  1  0
  6  7  1  0
  6 24  1  0
  7  8  2  0
  7  9  1  0
  9 10  2  0
  9 17  1  0
 10 11  1  0
 11 12  1  0
 11 15  2  0
 12 13  2  0
 12 14  1  0
 15 16  1  0
 16 17  2  0
 17 18  1  0
 18 19  2  0
 18 22  1  0
 19 20  1  0
 20 21  1  0
 21 22  2  0
 22 23  1  0
 24 25  1  0
 25 26  1  0
 26 27  1  0
M  END
