
     RDKit          3D

 27 29  0  0  0  0  0  0  0  0999 V2000
    6.7110    2.8870    1.7120 C   0  0  0  0  0  0  0  0  0  0  0  0
    5.3430    2.5420    1.5920 O   0  0  0  0  0  0  0  0  0  0  0  0
    4.9550    1.4780    0.7570 C   0  0  0  0  0  0  0  0  0  0  0  0
    5.9040    0.7690    0.0540 C   0  0  0  0  0  0  0  0  0  0  0  0
    5.5210   -0.2620   -0.7540 C   0  0  0  0  0  0  0  0  0  0  0  0
    4.1490   -0.5850   -0.8550 C   0  0  0  0  0  0  0  0  0  0  0  0
    3.7960   -1.6290   -1.6770 O   0  0  0  0  0  0  0  0  0  0  0  0
    3.2070    0.1200   -0.1560 C   0  0  0  0  0  0  0  0  0  0  0  0
    1.7780   -0.1640   -0.2180 C   0  0  0  0  0  0  0  0  0  0  0  0
    1.1820   -1.1050   -0.9250 N   0  0  0  0  0  0  0  0  0  0  0  0
   -0.1810   -1.0810   -0.7390 C   0  0  0  0  0  0  0  0  0  0  0  0
   -1.0940   -2.0080   -1.3770 C   0  0  0  0  0  0  0  0  0  0  0  0
   -1.0410   -2.1860   -2.7370 C   0  0  0  0  0  0  0  0  0  0  0  0
   -1.8530   -3.0930   -3.3830 C   0  0  0  0  0  0  0  0  0  0  0  0
   -2.7190   -3.8200   -2.6540 N   0  0  0  0  0  0  0  0  0  0  0  0
   -2.7820   -3.6550   -1.3160 C   0  0  0  0  0  0  0  0  0  0  0  0
   -1.9840   -2.7570   -0.6420 C   0  0  0  0  0  0  0  0  0  0  0  0
   -0.3660   -0.0470    0.1370 C   0  0  0  0  0  0  0  0  0  0  0  0
   -1.6050    0.4610    0.6910 C   0  0  0  0  0  0  0  0  0  0  0  0
   -1.5400    1.1590    1.7670 O   0  0  0  0  0  0  0  0  0  0  0  0
   -2.8870    0.2740    0.1710 N   0  0  0  0  0  0  0  0  0  0  0  0
   -4.0430    0.8540    0.8710 C   0  0  2  0  0  0  0  0  0  0  0  0
   -3.8900    2.3720    0.9480 C   0  0  0  0  0  0  0  0  0  0  0  0
   -4.1380    0.2540    2.2570 C   0  0  0  0  0  0  0  0  0  0  0  0
   -5.3100    0.5430    0.1340 C   0  0  0  0  0  0  0  0  0  0  0  0
    0.8160    0.4770    0.4300 O   0  0  0  0  0  0  0  0  0  0  0  0
    3.6220    1.1860    0.6770 C   0  0  0  0  0  0  0  0  0  0  0  0
  1  2  1  0
  2  3  1  0
  3  4  2  0
  3 27  1  0
  4  5  1  0
  5  6  2  0
  6  7  1  0
  6  8  1  0
  8  9  1  0
  8 27  2  0
  9 10  2  0
  9 26  1  0
 10 11  1  0
 11 12  1  0
 11 18  2  0
 12 13  2  0
 12 17  1  0
 13 14  1  0
 14 15  2  0
 15 16  1  0
 16 17  2  0
 18 19  1  0
 18 26  1  0
 19 20  2  0
 19 21  1  0
 21 22  1  0
 22 23  1  1
 22 24  1  0
 22 25  1  0
M  END
