
     RDKit          3D

 27 29  0  0  0  0  0  0  0  0999 V2000
    6.9940    0.4110    0.5260 C   0  0  0  0  0  0  0  0  0  0  0  0
    5.7340    0.6710    0.7900 C   0  0  0  0  0  0  0  0  0  0  0  0
    4.9170   -0.4200    1.0890 C   0  0  0  0  0  0  0  0  0  0  0  0
    5.3900   -1.6940    1.1020 O   0  0  0  0  0  0  0  0  0  0  0  0
    3.5650   -0.1900    1.3830 C   0  0  0  0  0  0  0  0  0  0  0  0
    2.9880    1.0450    1.3970 C   0  0  0  0  0  0  0  0  0  0  0  0
    1.6200    1.2960    1.6690 N   0  0  0  0  0  0  0  0  0  0  0  0
    0.5540    0.3780    1.6570 C   0  0  0  0  0  0  0  0  0  0  0  0
    0.8130   -0.8130    1.3600 O   0  0  0  0  0  0  0  0  0  0  0  0
   -0.7800    0.7920    1.9740 N   0  0  0  0  0  0  0  0  0  0  0  0
   -1.8740   -0.1020    1.9620 C   0  0  0  0  0  0  0  0  0  0  0  0
   -2.2250   -0.7490    0.6700 C   0  0  1  0  0  0  0  0  0  0  0  0
   -2.6900    0.2480   -0.3740 C   0  0  0  0  0  0  0  0  0  0  0  0
   -3.5200   -0.4740   -1.3200 N   0  0  0  0  0  0  0  0  0  0  0  0
   -4.8920   -0.2760   -0.8600 C   0  0  0  0  0  0  0  0  0  0  0  0
   -5.9010   -0.9030   -1.7260 C   0  0  0  0  0  0  0  0  0  0  0  0
   -6.4490   -2.1590   -1.6980 C   0  0  0  0  0  0  0  0  0  0  0  0
   -7.3550   -2.2540   -2.7300 C   0  0  0  0  0  0  0  0  0  0  0  0
   -7.3250   -1.0300   -3.3600 C   0  0  0  0  0  0  0  0  0  0  0  0
   -6.4650   -0.2740   -2.7420 O   0  0  0  0  0  0  0  0  0  0  0  0
   -3.2060   -1.8820   -1.3530 C   0  0  0  0  0  0  0  0  0  0  0  0
   -1.8040   -2.2090   -0.9890 C   0  0  0  0  0  0  0  0  0  0  0  0
   -1.2790   -1.5280    0.0760 O   0  0  0  0  0  0  0  0  0  0  0  0
    3.8350    2.0930    1.0960 C   0  0  0  0  0  0  0  0  0  0  0  0
    5.2050    1.9390    0.7900 C   0  0  0  0  0  0  0  0  0  0  0  0
    5.8600    3.0120    0.5210 C   0  0  0  0  0  0  0  0  0  0  0  0
    7.2220    3.2990    0.1600 C   0  0  0  0  0  0  0  0  0  0  0  0
  1  2  2  0
  2  3  1  0
  2 25  1  0
  3  4  1  0
  3  5  2  0
  5  6  1  0
  6  7  1  0
  6 24  2  0
  7  8  1  0
  8  9  2  0
  8 10  1  0
 10 11  1  0
 12 11  1  1
 12 13  1  0
 12 23  1  0
 13 14  1  0
 14 15  1  0
 14 21  1  0
 15 16  1  0
 16 17  2  0
 16 20  1  0
 17 18  1  0
 18 19  2  0
 19 20  1  0
 21 22  1  0
 22 23  1  0
 24 25  1  0
 25 26  2  3
 26 27  1  0
M  END
