
     RDKit          3D

 27 29  0  0  0  0  0  0  0  0999 V2000
    4.4660    1.0440   -2.0660 C   0  0  0  0  0  0  0  0  0  0  0  0
    5.2610    0.4310   -0.9800 C   0  0  0  0  0  0  0  0  0  0  0  0
    4.5430   -0.0600    0.0460 C   0  0  0  0  0  0  0  0  0  0  0  0
    3.1690    0.0650   -0.0470 N   0  0  0  0  0  0  0  0  0  0  0  0
    2.1360   -0.3430    0.8130 C   0  0  0  0  0  0  0  0  0  0  0  0
    2.3940   -0.9380    1.8630 O   0  0  0  0  0  0  0  0  0  0  0  0
    0.6890   -0.0920    0.5250 C   0  0  0  0  0  0  0  0  0  0  0  0
   -0.2000   -0.6230    1.5920 C   0  0  0  0  0  0  0  0  0  0  0  0
   -1.5900   -0.2950    1.1800 N   0  0  0  0  0  0  0  0  0  0  0  0
   -2.2840    0.8830    1.4890 C   0  0  0  0  0  0  0  0  0  0  0  0
   -1.8260    1.8580    2.1120 O   0  0  0  0  0  0  0  0  0  0  0  0
   -3.6240    0.7500    0.9490 C   0  0  0  0  0  0  0  0  0  0  0  0
   -4.7510    1.5730    0.9570 C   0  0  0  0  0  0  0  0  0  0  0  0
   -5.9480    1.2110    0.3790 C   0  0  0  0  0  0  0  0  0  0  0  0
   -7.1430    2.1010    0.3970 C   0  0  0  0  0  0  0  0  0  0  0  0
   -6.0070   -0.0200   -0.2250 C   0  0  0  0  0  0  0  0  0  0  0  0
   -7.2920   -0.4240   -0.8530 C   0  0  0  0  0  0  0  0  0  0  0  0
   -4.9320   -0.8590   -0.2600 C   0  0  0  0  0  0  0  0  0  0  0  0
   -3.7380   -0.4640    0.3320 C   0  0  0  0  0  0  0  0  0  0  0  0
   -2.4390   -1.1580    0.4180 C   0  0  1  0  0  0  0  0  0  0  0  0
   -1.9790   -1.3550   -1.0170 C   0  0  0  0  0  0  0  0  0  0  0  0
    5.1790   -0.6350    1.2180 C   0  0  0  0  0  0  0  0  0  0  0  0
    4.5620   -0.5160    2.2840 O   0  0  0  0  0  0  0  0  0  0  0  0
    6.4380   -1.3090    1.2340 O   0  0  0  0  0  0  0  0  0  0  0  0
    7.6510   -0.8530    0.7100 C   0  0  0  0  0  0  0  0  0  0  0  0
    7.6410   -0.6160   -0.7740 C   0  0  0  0  0  0  0  0  0  0  0  0
    6.6930    0.3930   -1.1730 N   0  0  0  0  0  0  0  0  0  0  0  0
  1  2  1  0
  2  3  2  0
  2 27  1  0
  3  4  1  0
  3 22  1  0
  4  5  1  0
  5  6  2  0
  5  7  1  0
  7  8  1  0
  8  9  1  0
  9 10  1  0
  9 20  1  0
 10 11  2  0
 10 12  1  0
 12 13  2  0
 12 19  1  0
 13 14  1  0
 14 15  1  0
 14 16  2  0
 16 17  1  0
 16 18  1  0
 18 19  2  0
 19 20  1  0
 20 21  1  6
 22 23  2  0
 22 24  1  0
 24 25  1  0
 25 26  1  0
 26 27  1  0
M  END
