
     RDKit          3D

 27 29  0  0  0  0  0  0  0  0999 V2000
   -2.2630   -2.3470    2.8370 C   0  0  0  0  0  0  0  0  0  0  0  0
   -3.0350   -1.5340    1.7820 C   0  0  0  0  0  0  0  0  0  0  0  0
   -2.8070   -0.0930    2.1440 C   0  0  0  0  0  0  0  0  0  0  0  0
   -3.4520    0.9120    1.2990 C   0  0  0  0  0  0  0  0  0  0  0  0
   -3.1710    1.1040   -0.1070 C   0  0  2  0  0  0  0  0  0  0  0  0
   -3.3690   -0.0010   -1.0860 C   0  0  0  0  0  0  0  0  0  0  0  0
   -3.1140    0.8350   -2.3830 C   0  0  0  0  0  0  0  0  0  0  0  0
   -1.7660    1.4210   -1.9640 C   0  0  0  0  0  0  0  0  0  0  0  0
   -1.9130    1.6750   -0.5120 N   0  0  0  0  0  0  0  0  0  0  0  0
   -0.9700    2.3660    0.2510 C   0  0  0  0  0  0  0  0  0  0  0  0
   -1.1550    2.5500    1.4740 O   0  0  0  0  0  0  0  0  0  0  0  0
    0.2320    2.8840   -0.3550 C   0  0  0  0  0  0  0  0  0  0  0  0
    0.3300    4.1700   -0.9100 C   0  0  0  0  0  0  0  0  0  0  0  0
    1.5780    4.3110   -1.3750 N   0  0  0  0  0  0  0  0  0  0  0  0
    2.2440    3.2030   -1.1420 N   0  0  0  0  0  0  0  0  0  0  0  0
    1.4370    2.2910   -0.5070 C   0  0  0  0  0  0  0  0  0  0  0  0
    1.8800    0.9640   -0.1150 C   0  0  0  0  0  0  0  0  0  0  0  0
    3.1470    0.6170   -0.3820 C   0  0  0  0  0  0  0  0  0  0  0  0
    3.6580   -0.6880   -0.0200 C   0  0  0  0  0  0  0  0  0  0  0  0
    4.9160   -1.0300   -0.2860 C   0  0  0  0  0  0  0  0  0  0  0  0
    5.4010   -2.3520    0.0910 C   0  0  0  0  0  0  0  0  0  0  0  0
    6.5700   -2.7150   -0.1380 O   0  0  0  0  0  0  0  0  0  0  0  0
    4.5470   -3.2510    0.7280 O   0  0  0  0  0  0  0  0  0  0  0  0
    5.0260   -4.5160    1.0840 C   0  0  0  0  0  0  0  0  0  0  0  0
    2.8170   -1.5920    0.6150 O   0  0  0  0  0  0  0  0  0  0  0  0
    1.5170   -1.2150    0.8810 C   0  0  0  0  0  0  0  0  0  0  0  0
    1.0450   -0.0080    0.5460 C   0  0  0  0  0  0  0  0  0  0  0  0
  1  2  1  0
  2  3  1  0
  3  4  1  0
  5  4  1  1
  5  6  1  0
  5  9  1  0
  6  7  1  0
  7  8  1  0
  8  9  1  0
  9 10  1  0
 10 11  2  0
 10 12  1  0
 12 13  2  0
 12 16  1  0
 13 14  1  0
 14 15  1  0
 15 16  2  0
 16 17  1  0
 17 18  2  0
 17 27  1  0
 18 19  1  0
 19 20  2  3
 19 25  1  0
 20 21  1  0
 21 22  2  0
 21 23  1  0
 23 24  1  0
 25 26  1  0
 26 27  2  0
M  END
