
     RDKit          3D

 13 13  0  0  0  0  0  0  0  0999 V2000
   -2.9570    1.5500    0.1600 C   0  0  0  0  0  0  0  0  0  0  0  0
   -1.9140    0.7740    0.9600 C   0  0  0  0  0  0  0  0  0  0  0  0
   -1.2700   -0.1820    0.0270 C   0  0  0  0  0  0  0  0  0  0  0  0
   -2.1700   -1.2180   -0.5430 C   0  0  0  0  0  0  0  0  0  0  0  0
    0.0010   -0.0820   -0.2360 C   0  0  0  0  0  0  0  0  0  0  0  0
    0.7880    0.9390    0.3600 N   0  0  0  0  0  0  0  0  0  0  0  0
    2.1210    0.7970    0.8330 C   0  0  0  0  0  0  0  0  0  0  0  0
    2.5490    1.7020    1.6520 N   0  0  0  0  0  0  0  0  0  0  0  0
    3.0970   -0.2670    0.5040 C   0  0  0  0  0  0  0  0  0  0  0  0
    2.8950   -1.2470   -0.3700 C   0  0  0  0  0  0  0  0  0  0  0  0
    1.7730   -1.5910   -1.2220 C   0  0  0  0  0  0  0  0  0  0  0  0
    0.5360   -1.0870   -1.1590 C   0  0  0  0  0  0  0  0  0  0  0  0
   -0.3190   -1.6090   -2.1080 O   0  0  0  0  0  0  0  0  0  0  0  0
  1  2  1  0
  2  3  1  0
  3  4  1  0
  3  5  2  3
  5  6  1  0
  5 12  1  0
  6  7  1  0
  7  8  2  0
  7  9  1  0
  9 10  2  0
 10 11  1  0
 11 12  2  0
 12 13  1  0
M  CHG  1   8   1
M  END
