
     RDKit          3D

 27 29  0  0  0  0  0  0  0  0999 V2000
   -4.7660    0.4390    2.5030 C   0  0  0  0  0  0  0  0  0  0  0  0
   -5.6640   -0.4180    1.6720 C   0  0  0  0  0  0  0  0  0  0  0  0
   -5.2540   -0.4780    0.2590 N   0  0  0  0  0  0  0  0  0  0  0  0
   -4.4030   -1.5220   -0.1790 C   0  0  0  0  0  0  0  0  0  0  0  0
   -2.9490   -1.2110   -0.2440 C   0  0  0  0  0  0  0  0  0  0  0  0
   -2.1650   -2.1620   -0.5920 O   0  0  0  0  0  0  0  0  0  0  0  0
   -2.3750    0.0310    0.0410 N   0  0  0  0  0  0  0  0  0  0  0  0
   -1.0010    0.3730   -0.0080 C   0  0  0  0  0  0  0  0  0  0  0  0
   -0.5700    1.5560    0.6230 C   0  0  0  0  0  0  0  0  0  0  0  0
    0.7340    1.9720    0.6080 C   0  0  0  0  0  0  0  0  0  0  0  0
    1.6310    1.1720   -0.0620 C   0  0  0  0  0  0  0  0  0  0  0  0
    1.2530    0.0140   -0.6880 C   0  0  0  0  0  0  0  0  0  0  0  0
   -0.0830   -0.3890   -0.6600 C   0  0  0  0  0  0  0  0  0  0  0  0
    2.0620   -0.9260   -1.4260 N   0  0  0  0  0  0  0  0  0  0  0  0
    3.4740   -0.9630   -1.4360 C   0  0  0  0  0  0  0  0  0  0  0  0
    3.9680   -1.8210   -2.2310 O   0  0  0  0  0  0  0  0  0  0  0  0
    4.4240   -0.1670   -0.6730 C   0  0  0  0  0  0  0  0  0  0  0  0
    5.6760   -0.7420   -0.6400 C   0  0  0  0  0  0  0  0  0  0  0  0
    6.6990   -0.1170    0.0430 C   0  0  0  0  0  0  0  0  0  0  0  0
    8.0730   -0.7300    0.0900 C   0  0  0  0  0  0  0  0  0  0  0  0
    6.4200    1.0750    0.6720 C   0  0  0  0  0  0  0  0  0  0  0  0
    5.1670    1.6520    0.6390 C   0  0  0  0  0  0  0  0  0  0  0  0
    4.1400    1.0410   -0.0350 C   0  0  0  0  0  0  0  0  0  0  0  0
    2.9280    1.7240    0.0080 O   0  0  0  0  0  0  0  0  0  0  0  0
   -5.7530    0.4710   -0.6750 C   0  0  0  0  0  0  0  0  0  0  0  0
   -5.3250    0.3870   -2.0860 C   0  0  0  0  0  0  0  0  0  0  0  0
   -6.5480    1.3830   -0.3480 O   0  0  0  0  0  0  0  0  0  0  0  0
  1  2  1  0
  2  3  1  0
  3  4  1  0
  3 25  1  0
  4  5  1  0
  5  6  2  0
  5  7  1  0
  7  8  1  0
  8  9  2  0
  8 13  1  0
  9 10  1  0
 10 11  2  0
 11 12  1  0
 11 24  1  0
 12 13  2  0
 12 14  1  0
 14 15  1  0
 15 16  2  0
 15 17  1  0
 17 18  2  0
 17 23  1  0
 18 19  1  0
 19 20  1  0
 19 21  2  0
 21 22  1  0
 22 23  2  0
 23 24  1  0
 25 26  1  0
 25 27  2  0
M  END
