
     RDKit          3D

 13 13  0  0  0  0  0  0  0  0999 V2000
    0.0640    3.1960   -1.1740 C   0  0  0  0  0  0  0  0  0  0  0  0
   -1.0330    2.3820   -0.6060 C   0  0  0  0  0  0  0  0  0  0  0  0
   -0.8000    1.1800   -0.1330 C   0  0  0  0  0  0  0  0  0  0  0  0
   -1.8490    0.3500    0.4320 C   0  0  0  0  0  0  0  0  0  0  0  0
   -1.6250   -0.8620    0.9120 C   0  0  0  0  0  0  0  0  0  0  0  0
   -2.6730   -1.6330    1.4510 O   0  0  0  0  0  0  0  0  0  0  0  0
   -2.9650   -2.8340    0.7560 C   0  0  0  0  0  0  0  0  0  0  0  0
   -0.2770   -1.4040    0.8810 C   0  0  0  0  0  0  0  0  0  0  0  0
    0.7490   -0.6920    0.3710 C   0  0  0  0  0  0  0  0  0  0  0  0
    2.0460   -1.3170    0.3860 C   0  0  0  0  0  0  0  0  0  0  0  0
    3.1900   -0.8480   -0.0420 C   0  0  0  0  0  0  0  0  0  0  0  0
    3.3740    0.4280   -0.6290 N   0  0  0  0  0  0  0  0  0  0  0  0
    0.5280    0.6060   -0.1460 N   0  0  0  0  0  0  0  0  0  0  0  0
  1  2  1  0
  2  3  2  3
  3  4  1  0
  3 13  1  0
  4  5  2  0
  5  6  1  0
  5  8  1  0
  6  7  1  0
  8  9  2  0
  9 10  1  0
  9 13  1  0
 10 11  2  3
 11 12  1  0
M  END
