
     RDKit          3D

 13 13  0  0  0  0  0  0  0  0999 V2000
   -2.4560   -1.7570    1.4230 C   0  0  0  0  0  0  0  0  0  0  0  0
   -1.1620   -1.1660    0.8420 C   0  0  0  0  0  0  0  0  0  0  0  0
   -1.4400   -0.1960   -0.2290 C   0  0  1  0  0  0  0  0  0  0  0  0
   -2.1140   -0.7930   -1.3180 O   0  0  0  0  0  0  0  0  0  0  0  0
   -2.3990    0.9200    0.2840 C   0  0  0  0  0  0  0  0  0  0  0  0
   -2.4060    1.7700   -0.9630 C   0  0  0  0  0  0  0  0  0  0  0  0
   -1.0190    1.8350   -1.3180 N   0  0  0  0  0  0  0  0  0  0  0  0
   -0.3620    0.6760   -0.7170 C   0  0  0  0  0  0  0  0  0  0  0  0
    0.9340    0.6070   -0.7050 C   0  0  0  0  0  0  0  0  0  0  0  0
    1.7780   -0.4300   -0.1630 C   0  0  0  0  0  0  0  0  0  0  0  0
    3.1170   -0.3580   -0.2280 C   0  0  0  0  0  0  0  0  0  0  0  0
    3.7630    0.8080   -0.8680 C   0  0  0  0  0  0  0  0  0  0  0  0
    3.9020   -1.4000    0.3180 N   0  0  0  0  0  0  0  0  0  0  0  0
  1  2  1  0
  2  3  1  0
  3  4  1  6
  3  5  1  0
  3  8  1  0
  5  6  1  0
  6  7  1  0
  7  8  1  0
  8  9  2  3
  9 10  1  0
 10 11  2  3
 11 12  1  0
 11 13  1  0
M  END
