
     RDKit          3D

 21 23  0  0  0  0  0  0  0  0999 V2000
   -4.3690    0.9510   -1.4460 C   0  0  0  0  0  0  0  0  0  0  0  0
   -3.5800    0.0200   -0.5290 C   0  0  2  0  0  0  0  0  0  0  0  0
   -4.1010   -1.3900   -0.8160 C   0  0  0  0  0  0  0  0  0  0  0  0
   -3.8460    0.3990    0.8760 C   0  0  0  0  0  0  0  0  0  0  0  0
   -2.6420    0.9370    1.6100 C   0  0  0  0  0  0  0  0  0  0  0  0
   -1.4210    0.1550    1.3420 C   0  0  0  0  0  0  0  0  0  0  0  0
   -0.5130   -0.1610    2.4800 C   0  0  0  0  0  0  0  0  0  0  0  0
   -0.0370    1.0040    3.0770 O   0  0  0  0  0  0  0  0  0  0  0  0
   -1.1930   -0.2270    0.1100 C   0  0  0  0  0  0  0  0  0  0  0  0
   -0.0330   -0.9790   -0.1950 N   0  0  0  0  0  0  0  0  0  0  0  0
    1.2770   -0.4300   -0.1460 C   0  0  0  0  0  0  0  0  0  0  0  0
    1.5180    0.8670    0.2010 C   0  0  0  0  0  0  0  0  0  0  0  0
    2.8060    1.3610    0.2370 C   0  0  0  0  0  0  0  0  0  0  0  0
    3.8940    0.5450   -0.0800 C   0  0  0  0  0  0  0  0  0  0  0  0
    3.6550   -0.7670   -0.4310 C   0  0  0  0  0  0  0  0  0  0  0  0
    2.3490   -1.2280   -0.4560 C   0  0  0  0  0  0  0  0  0  0  0  0
    4.7360   -1.5900   -0.7490 O   0  0  0  0  0  0  0  0  0  0  0  0
    6.0690   -1.1770   -0.4650 C   0  0  0  0  0  0  0  0  0  0  0  0
    6.1720    0.2990   -0.8160 C   0  0  0  0  0  0  0  0  0  0  0  0
    5.1900    0.9860   -0.0590 O   0  0  0  0  0  0  0  0  0  0  0  0
   -2.1380    0.1260   -0.9510 C   0  0  0  0  0  0  0  0  0  0  0  0
  2  1  1  6
  2  3  1  0
  2  4  1  0
  2 21  1  0
  4  5  1  0
  5  6  1  0
  6  7  1  0
  6  9  2  0
  7  8  1  0
  9 10  1  0
  9 21  1  0
 10 11  1  0
 11 12  2  0
 11 16  1  0
 12 13  1  0
 13 14  2  0
 14 15  1  0
 14 20  1  0
 15 16  2  0
 15 17  1  0
 17 18  1  0
 18 19  1  0
 19 20  1  0
M  END
