
     RDKit          3D

 13 14  0  0  0  0  0  0  0  0999 V2000
   -1.0790    2.3010   -0.2840 C   0  0  0  0  0  0  0  0  0  0  0  0
   -1.2290    0.8270   -0.2190 C   0  0  0  0  0  0  0  0  0  0  0  0
   -2.4500    0.2480   -0.3540 N   0  0  0  0  0  0  0  0  0  0  0  0
   -2.6720   -1.0540   -0.3100 C   0  0  0  0  0  0  0  0  0  0  0  0
   -1.5980   -1.8900   -0.1150 C   0  0  0  0  0  0  0  0  0  0  0  0
   -0.3100   -1.3970    0.0340 C   0  0  0  0  0  0  0  0  0  0  0  0
    0.7480   -2.2700    0.2290 C   0  0  0  0  0  0  0  0  0  0  0  0
    2.0190   -1.7890    0.3760 C   0  0  0  0  0  0  0  0  0  0  0  0
    2.2050   -0.4420    0.3240 C   0  0  0  0  0  0  0  0  0  0  0  0
    3.4700    0.1200    0.4660 O   0  0  0  0  0  0  0  0  0  0  0  0
    1.1330    0.4520    0.1260 C   0  0  0  0  0  0  0  0  0  0  0  0
    1.3950    1.8320    0.0840 N   0  0  0  0  0  0  0  0  0  0  0  0
   -0.1520   -0.0130   -0.0230 C   0  0  0  0  0  0  0  0  0  0  0  0
  1  2  1  0
  2  3  2  0
  2 13  1  0
  3  4  1  0
  4  5  2  0
  5  6  1  0
  6  7  2  0
  6 13  1  0
  7  8  1  0
  8  9  2  0
  9 10  1  0
  9 11  1  0
 11 12  1  0
 11 13  2  0
M  CHG  1   3   1
M  END
