
     RDKit          3D

 13 14  0  0  0  0  0  0  0  0999 V2000
    4.4130    0.3000    0.6250 N   0  0  0  0  0  0  0  0  0  0  0  0
    3.3030    0.0970   -0.2180 C   0  0  0  0  0  0  0  0  0  0  0  0
    3.2770   -0.2890   -1.5210 C   0  0  0  0  0  0  0  0  0  0  0  0
    2.0500   -0.3530   -1.9120 O   0  0  0  0  0  0  0  0  0  0  0  0
    1.2240   -0.0320   -0.9460 C   0  0  0  0  0  0  0  0  0  0  0  0
   -0.2380   -0.0260   -1.1330 C   0  0  0  0  0  0  0  0  0  0  0  0
   -1.0090    0.3730    0.0750 C   0  0  1  0  0  0  0  0  0  0  0  0
   -0.6730    1.7060    0.5180 N   0  0  0  0  0  0  0  0  0  0  0  0
   -2.4750    0.3730   -0.3340 C   0  0  0  0  0  0  0  0  0  0  0  0
   -2.9470   -1.0420   -0.0710 C   0  0  0  0  0  0  0  0  0  0  0  0
   -2.2690   -1.3320    1.2620 C   0  0  0  0  0  0  0  0  0  0  0  0
   -0.9500   -0.6220    1.2030 C   0  0  0  0  0  0  0  0  0  0  0  0
    1.9890    0.2610    0.1480 C   0  0  0  0  0  0  0  0  0  0  0  0
  1  2  1  0
  2  3  2  0
  2 13  1  0
  3  4  1  0
  4  5  1  0
  5  6  1  0
  5 13  2  0
  6  7  1  0
  7  8  1  1
  7  9  1  0
  7 12  1  0
  9 10  1  0
 10 11  1  0
 11 12  1  0
M  CHG  1   8   1
M  END
