
     RDKit          3D

 13 14  0  0  0  0  0  0  0  0999 V2000
    4.5130   -0.0930    0.6830 N   0  0  0  0  0  0  0  0  0  0  0  0
    3.1490   -0.1680    0.2940 C   0  0  0  0  0  0  0  0  0  0  0  0
    2.1070    0.3030    1.0640 C   0  0  0  0  0  0  0  0  0  0  0  0
    0.7820    0.2050    0.6370 C   0  0  0  0  0  0  0  0  0  0  0  0
    0.4840   -0.3690   -0.5740 C   0  0  0  0  0  0  0  0  0  0  0  0
   -0.7880   -0.5070   -1.0720 O   0  0  0  0  0  0  0  0  0  0  0  0
   -1.9360   -0.0860   -0.4240 C   0  0  0  0  0  0  0  0  0  0  0  0
   -2.8950    0.7430   -0.7960 C   0  0  0  0  0  0  0  0  0  0  0  0
   -3.8940    0.8850    0.1940 N   0  0  0  0  0  0  0  0  0  0  0  0
   -3.4540    0.0430    1.2480 C   0  0  0  0  0  0  0  0  0  0  0  0
   -2.3140   -0.5350    0.9100 C   0  0  0  0  0  0  0  0  0  0  0  0
    1.5300   -0.8400   -1.3420 C   0  0  0  0  0  0  0  0  0  0  0  0
    2.8310   -0.7400   -0.9130 C   0  0  0  0  0  0  0  0  0  0  0  0
  1  2  1  0
  2  3  2  0
  2 13  1  0
  3  4  1  0
  4  5  2  0
  5  6  1  0
  5 12  1  0
  6  7  1  0
  7  8  2  0
  7 11  1  0
  8  9  1  0
  9 10  1  0
 10 11  2  0
 12 13  2  0
M  CHG  1   9   1
M  END
