
     RDKit          3D

 13 13  0  0  0  0  0  0  0  0999 V2000
   -3.2590    2.1940   -0.3050 C   0  0  0  0  0  0  0  0  0  0  0  0
   -2.6500    0.8500   -0.1590 C   0  0  0  0  0  0  0  0  0  0  0  0
   -1.3490    0.6410   -0.4250 C   0  0  0  0  0  0  0  0  0  0  0  0
   -0.7640   -0.6860   -0.2770 C   0  0  0  0  0  0  0  0  0  0  0  0
    0.5190   -0.9590   -0.5240 C   0  0  0  0  0  0  0  0  0  0  0  0
    0.9210   -2.3030   -0.3280 N   0  0  0  0  0  0  0  0  0  0  0  0
    1.5140    0.0190   -0.9730 C   0  0  0  0  0  0  0  0  0  0  0  0
    2.6150    0.0720    0.0610 C   0  0  0  0  0  0  0  0  0  0  0  0
    3.7010    1.0500   -0.2970 C   0  0  0  0  0  0  0  0  0  0  0  0
    4.6730    1.0500    0.6870 O   0  0  0  0  0  0  0  0  0  0  0  0
   -1.6690   -1.6990    0.1590 N   0  0  0  0  0  0  0  0  0  0  0  0
   -3.0410   -1.4590    0.4350 C   0  0  0  0  0  0  0  0  0  0  0  0
   -3.5250   -0.2360    0.2850 C   0  0  0  0  0  0  0  0  0  0  0  0
  1  2  1  0
  2  3  2  0
  2 13  1  0
  3  4  1  0
  4  5  2  3
  4 11  1  0
  5  6  1  0
  5  7  1  0
  7  8  1  0
  8  9  1  0
  9 10  1  0
 11 12  1  0
 12 13  2  0
M  END
