
     RDKit          3D

 15 16  0  0  0  0  0  0  0  0999 V2000
   -3.6100   -1.6230    0.2110 O   0  0  0  0  0  0  0  0  0  0  0  0
   -2.9640   -0.6590    0.6900 C   0  0  0  0  0  0  0  0  0  0  0  0
   -2.0900   -0.8980    1.7130 O   0  0  0  0  0  0  0  0  0  0  0  0
   -3.1320    0.7080    0.1700 C   0  0  0  0  0  0  0  0  0  0  0  0
   -2.3510    0.9130   -1.1280 C   0  0  0  0  0  0  0  0  0  0  0  0
   -0.9080    0.6610   -0.8020 C   0  0  0  0  0  0  0  0  0  0  0  0
    0.0970    1.1140   -0.4490 N   0  0  0  0  0  0  0  0  0  0  0  0
    1.2670    0.5780   -0.2540 C   0  0  0  0  0  0  0  0  0  0  0  0
    2.4600    1.1630    0.1760 C   0  0  0  0  0  0  0  0  0  0  0  0
    3.5870    0.3950    0.3130 C   0  0  0  0  0  0  0  0  0  0  0  0
    5.0900    1.1620    0.8610 Cl  0  0  0  0  0  0  0  0  0  0  0  0
    3.6760   -0.9550    0.0620 C   0  0  0  0  0  0  0  0  0  0  0  0
    2.4880   -1.5500   -0.3680 C   0  0  0  0  0  0  0  0  0  0  0  0
    1.3570   -0.7730   -0.5050 C   0  0  0  0  0  0  0  0  0  0  0  0
   -0.3440   -1.1540   -1.0240 S   0  0  0  0  0  0  0  0  0  0  0  0
  1  2  2  0
  2  3  1  0
  2  4  1  0
  4  5  1  0
  5  6  1  0
  6  7  2  0
  6 15  1  0
  7  8  1  0
  8  9  2  0
  8 14  1  0
  9 10  1  0
 10 11  1  0
 10 12  2  0
 12 13  1  0
 13 14  2  0
 14 15  1  0
M  END
