
     RDKit          3D

 13 13  0  0  0  0  0  0  0  0999 V2000
    3.5780    0.3490    0.9350 C   0  0  0  0  0  0  0  0  0  0  0  0
    3.8590   -0.1590   -0.4250 C   0  0  0  0  0  0  0  0  0  0  0  0
    2.7480   -0.4750   -1.3070 C   0  0  0  0  0  0  0  0  0  0  0  0
    1.4620   -0.4220   -1.2050 C   0  0  0  0  0  0  0  0  0  0  0  0
    0.6590    0.0030   -0.0880 C   0  0  0  0  0  0  0  0  0  0  0  0
   -0.6650    0.0180   -0.0890 C   0  0  0  0  0  0  0  0  0  0  0  0
   -1.4660   -0.3820   -1.1900 N   0  0  0  0  0  0  0  0  0  0  0  0
   -2.9130   -0.3480   -1.1440 C   0  0  0  0  0  0  0  0  0  0  0  0
   -3.5270    0.0660   -0.0500 C   0  0  0  0  0  0  0  0  0  0  0  0
   -4.9500    0.1190    0.0490 N   0  0  0  0  0  0  0  0  0  0  0  0
   -2.7150    0.4740    1.0740 C   0  0  0  0  0  0  0  0  0  0  0  0
   -1.4110    0.4670    1.0970 C   0  0  0  0  0  0  0  0  0  0  0  0
   -0.6790    0.8710    2.2050 O   0  0  0  0  0  0  0  0  0  0  0  0
  1  2  1  0
  2  3  1  0
  3  4  2  3
  4  5  1  0
  5  6  2  3
  6  7  1  0
  6 12  1  0
  7  8  1  0
  8  9  2  0
  9 10  1  0
  9 11  1  0
 11 12  2  0
 12 13  1  0
M  END
