
     RDKit          3D

 35 39  0  0  0  0  0  0  0  0999 V2000
   -5.7200   -2.5470    1.4960 C   0  0  0  0  0  0  0  0  0  0  0  0
   -5.1670   -2.1580    0.3760 C   0  0  0  0  0  0  0  0  0  0  0  0
   -4.4300   -3.1800   -0.9320 S   0  0  0  0  0  0  0  0  0  0  0  0
   -3.6040   -1.8100   -1.8480 C   0  0  0  0  0  0  0  0  0  0  0  0
   -3.6030   -0.7470   -0.7550 C   0  0  2  0  0  0  0  0  0  0  0  0
   -2.6460   -1.1330    0.2290 N   0  0  0  0  0  0  0  0  0  0  0  0
   -1.8060   -0.0660    0.6990 C   0  0  0  0  0  0  0  0  0  0  0  0
   -0.8580    0.4280   -0.3910 C   0  0  1  0  0  0  0  0  0  0  0  0
   -0.0810    1.5660    0.1830 C   0  0  0  0  0  0  0  0  0  0  0  0
    1.3030    1.5170   -0.2430 N   0  0  2  0  0  0  0  0  0  0  0  0
    1.9590    2.7940   -0.0790 C   0  0  0  0  0  0  0  0  0  0  0  0
    1.6810    3.4180    1.2490 C   0  0  0  0  0  0  0  0  0  0  0  0
    2.3580    4.6760    1.3460 N   0  0  0  0  0  0  0  0  0  0  0  0
    1.7920    5.9670    0.9420 C   0  0  0  0  0  0  0  0  0  0  0  0
    3.0600    6.6930    0.4980 C   0  0  0  0  0  0  0  0  0  0  0  0
    3.9620    6.3230    1.5280 O   0  0  0  0  0  0  0  0  0  0  0  0
    3.6650    4.9950    1.8250 C   0  0  0  0  0  0  0  0  0  0  0  0
    4.3950    4.1430    2.4270 O   0  0  0  0  0  0  0  0  0  0  0  0
    1.2940    1.1210   -1.6400 C   0  0  0  0  0  0  0  0  0  0  0  0
    0.9140   -0.3340   -1.6750 C   0  0  1  0  0  0  0  0  0  0  0  0
    2.1210   -1.1180   -1.2990 C   0  0  0  0  0  0  0  0  0  0  0  0
    3.4050   -0.7240   -1.2130 N   0  0  0  0  0  0  0  0  0  0  0  0
    4.1460   -1.7840   -0.8350 C   0  0  0  0  0  0  0  0  0  0  0  0
    3.2740   -2.8420   -0.6920 C   0  0  0  0  0  0  0  0  0  0  0  0
    3.5990   -4.2140   -0.2950 C   0  0  0  0  0  0  0  0  0  0  0  0
    4.7910   -4.6960    0.0010 C   0  0  0  0  0  0  0  0  0  0  0  0
    4.7200   -6.1290    0.3570 C   0  0  0  0  0  0  0  0  0  0  0  0
    3.2690   -6.4240    0.2210 C   0  0  0  0  0  0  0  0  0  0  0  0
    2.6690   -5.3050   -0.1520 C   0  0  0  0  0  0  0  0  0  0  0  0
    2.0920   -2.3840   -0.9810 O   0  0  0  0  0  0  0  0  0  0  0  0
   -0.0790   -0.6520   -0.7610 O   0  0  0  0  0  0  0  0  0  0  0  0
   -4.9840   -0.7960   -0.1380 C   0  0  0  0  0  0  0  0  0  0  0  0
   -5.8510    0.1910   -0.0990 C   0  0  0  0  0  0  0  0  0  0  0  0
   -7.2110    0.1700    0.4630 C   0  0  0  0  0  0  0  0  0  0  0  0
   -8.2960    0.6150   -0.9190 Cl  0  0  0  0  0  0  0  0  0  0  0  0
  1  2  2  0
  2  3  1  0
  2 32  1  0
  3  4  1  0
  4  5  1  0
  5  6  1  1
  5 32  1  0
  6  7  1  0
  8  7  1  1
  8  9  1  0
  8 31  1  0
  9 10  1  0
 10 11  1  6
 10 19  1  0
 11 12  1  0
 12 13  1  0
 13 14  1  0
 13 17  1  0
 14 15  1  0
 15 16  1  0
 16 17  1  0
 17 18  2  0
 19 20  1  0
 20 21  1  1
 20 31  1  0
 21 22  2  0
 21 30  1  0
 22 23  1  0
 23 24  2  0
 24 25  1  0
 24 30  1  0
 25 26  2  0
 25 29  1  0
 26 27  1  0
 27 28  1  0
 28 29  2  0
 32 33  2  3
 33 34  1  0
 34 35  1  0
M  CHG  2   6   1  10   1
M  END
