
     RDKit          3D

 34 36  0  0  0  0  0  0  0  0999 V2000
    7.9180   -2.8160   -1.9870 O   0  0  0  0  0  0  0  0  0  0  0  0
    8.4450   -2.7170   -0.8590 C   0  0  0  0  0  0  0  0  0  0  0  0
    7.7080   -2.2950    0.2580 N   0  0  0  0  0  0  0  0  0  0  0  0
    6.3510   -1.9500    0.2450 C   0  0  0  0  0  0  0  0  0  0  0  0
    5.7880   -1.5050    1.4510 C   0  0  0  0  0  0  0  0  0  0  0  0
    4.4670   -1.1380    1.5720 C   0  0  0  0  0  0  0  0  0  0  0  0
    3.6570   -1.2060    0.4790 C   0  0  0  0  0  0  0  0  0  0  0  0
    2.2000   -0.8120    0.5690 C   0  0  0  0  0  0  0  0  0  0  0  0
    2.0140    0.9220    0.2040 S   0  0  0  0  0  0  0  0  0  0  0  0
    0.2450    1.3660    0.2630 C   0  0  0  0  0  0  0  0  0  0  0  0
   -0.0080    2.5860   -0.0910 C   0  0  0  0  0  0  0  0  0  0  0  0
   -1.2400    3.3160   -0.1680 C   0  0  0  0  0  0  0  0  0  0  0  0
   -1.7130    3.8070   -1.3490 C   0  0  0  0  0  0  0  0  0  0  0  0
   -2.8510    4.5830   -1.3960 C   0  0  0  0  0  0  0  0  0  0  0  0
   -3.5430    4.8820   -0.2370 C   0  0  0  0  0  0  0  0  0  0  0  0
   -4.6700    5.6440   -0.2400 F   0  0  0  0  0  0  0  0  0  0  0  0
   -3.0870    4.3990    0.9680 C   0  0  0  0  0  0  0  0  0  0  0  0
   -3.7760    4.7000    2.0960 F   0  0  0  0  0  0  0  0  0  0  0  0
   -1.9490    3.6270    0.9890 C   0  0  0  0  0  0  0  0  0  0  0  0
   -0.6820    0.3370    0.5570 C   0  0  0  0  0  0  0  0  0  0  0  0
   -0.2410   -0.7890    0.9750 O   0  0  0  0  0  0  0  0  0  0  0  0
   -2.0750    0.4190    0.4290 N   0  0  0  0  0  0  0  0  0  0  0  0
   -3.0000   -0.6230    0.7540 C   0  0  0  0  0  0  0  0  0  0  0  0
   -2.6990   -1.5960    1.6490 C   0  0  0  0  0  0  0  0  0  0  0  0
   -3.6520   -2.5960    1.8830 C   0  0  0  0  0  0  0  0  0  0  0  0
   -4.8500   -2.5730    1.2150 C   0  0  0  0  0  0  0  0  0  0  0  0
   -5.7360   -3.5630    1.4780 F   0  0  0  0  0  0  0  0  0  0  0  0
   -5.1420   -1.5740    0.3070 C   0  0  0  0  0  0  0  0  0  0  0  0
   -6.6910   -1.5680   -0.5360 S   0  0  0  0  0  0  0  0  0  0  0  0
   -7.1640   -0.1430   -0.7530 O   0  0  0  0  0  0  0  0  0  0  0  0
   -6.5870   -2.4330   -1.9860 O   0  0  0  0  0  0  0  0  0  0  0  0
   -4.2240   -0.5980    0.0720 C   0  0  0  0  0  0  0  0  0  0  0  0
    4.1720   -1.6380   -0.7180 C   0  0  0  0  0  0  0  0  0  0  0  0
    5.4990   -1.9990   -0.8130 C   0  0  0  0  0  0  0  0  0  0  0  0
  1  2  2  0
  2  3  1  0
  3  4  1  0
  4  5  2  0
  4 34  1  0
  5  6  1  0
  6  7  2  0
  7  8  1  0
  7 33  1  0
  8  9  1  0
  9 10  1  0
 10 11  2  3
 10 20  1  0
 11 12  1  0
 12 13  2  0
 12 19  1  0
 13 14  1  0
 14 15  2  0
 15 16  1  0
 15 17  1  0
 17 18  1  0
 17 19  2  0
 20 21  2  0
 20 22  1  0
 22 23  1  0
 23 24  2  0
 23 32  1  0
 24 25  1  0
 25 26  2  0
 26 27  1  0
 26 28  1  0
 28 29  1  0
 28 32  2  0
 29 30  2  0
 29 31  1  6
 33 34  2  0
M  END
