
     RDKit          3D

 35 39  0  0  0  0  0  0  0  0999 V2000
   10.8220    2.0730    0.8930 C   0  0  0  0  0  0  0  0  0  0  0  0
    9.6010    1.3750    0.8260 O   0  0  0  0  0  0  0  0  0  0  0  0
    9.5110    0.0420    0.4970 C   0  0  0  0  0  0  0  0  0  0  0  0
   10.5420   -0.7620    0.2020 N   0  0  0  0  0  0  0  0  0  0  0  0
   10.0320   -1.9570   -0.0540 N   0  0  0  0  0  0  0  0  0  0  0  0
    8.6820   -1.9190    0.0760 C   0  0  0  0  0  0  0  0  0  0  0  0
    7.7200   -2.8850   -0.0830 C   0  0  0  0  0  0  0  0  0  0  0  0
    6.4090   -2.5090    0.1280 C   0  0  0  0  0  0  0  0  0  0  0  0
    6.1230   -1.2280    0.4780 C   0  0  0  0  0  0  0  0  0  0  0  0
    4.8330   -0.7130    0.7280 N   0  0  0  0  0  0  0  0  0  0  0  0
    4.5790    0.6960    0.9510 C   0  0  0  0  0  0  0  0  0  0  0  0
    3.1540    1.0650    0.6530 C   0  0  0  0  0  0  0  0  0  0  0  0
    2.5510    0.2610   -0.4660 C   0  0  2  0  0  0  0  0  0  0  0  0
    1.0940    0.4540   -0.5870 C   0  0  0  0  0  0  0  0  0  0  0  0
    0.2100    0.0580    0.3960 C   0  0  0  0  0  0  0  0  0  0  0  0
   -1.1270    0.2480    0.2600 C   0  0  0  0  0  0  0  0  0  0  0  0
   -1.6260    0.8450   -0.8730 C   0  0  0  0  0  0  0  0  0  0  0  0
   -2.9910    1.0270   -0.9860 O   0  0  0  0  0  0  0  0  0  0  0  0
   -3.9060    0.6250    0.0140 C   0  0  0  0  0  0  0  0  0  0  0  0
   -5.3360    0.9590   -0.4010 C   0  0  0  0  0  0  0  0  0  0  0  0
   -6.2690    0.5590    0.5970 N   0  0  1  0  0  0  0  0  0  0  0  0
   -7.3530    1.5590    0.6050 C   0  0  0  0  0  0  0  0  0  0  0  0
   -8.1420    1.4820   -0.6880 C   0  0  0  0  0  0  0  0  0  0  0  0
   -8.7160    0.1520   -0.7300 N   0  0  0  0  0  0  0  0  0  0  0  0
   -9.8150   -0.1330   -1.6330 C   0  0  0  0  0  0  0  0  0  0  0  0
   -8.1610   -0.8230    0.1330 C   0  0  0  0  0  0  0  0  0  0  0  0
   -8.9020   -1.7550    0.5400 O   0  0  0  0  0  0  0  0  0  0  0  0
   -6.7420   -0.7630    0.5580 C   0  0  1  0  0  0  0  0  0  0  0  0
   -5.9830   -1.7400   -0.2860 C   0  0  0  0  0  0  0  0  0  0  0  0
   -0.7820    1.2520   -1.8690 C   0  0  0  0  0  0  0  0  0  0  0  0
    0.5880    1.0530   -1.7200 C   0  0  0  0  0  0  0  0  0  0  0  0
    2.8520   -1.1970   -0.4450 C   0  0  0  0  0  0  0  0  0  0  0  0
    3.6830   -1.5720    0.7810 C   0  0  0  0  0  0  0  0  0  0  0  0
    7.1340   -0.3160    0.6180 N   0  0  0  0  0  0  0  0  0  0  0  0
    8.3610   -0.6630    0.4220 N   0  0  0  0  0  0  0  0  0  0  0  0
  1  2  1  0
  2  3  1  0
  3  4  2  0
  3 35  1  0
  4  5  1  0
  5  6  2  0
  6  7  1  0
  6 35  1  0
  7  8  2  0
  8  9  1  0
  9 10  1  0
  9 34  2  0
 10 11  1  0
 10 33  1  0
 11 12  1  0
 12 13  1  0
 13 14  1  1
 13 32  1  0
 14 15  2  0
 14 31  1  0
 15 16  1  0
 16 17  2  0
 17 18  1  0
 17 30  1  0
 18 19  1  0
 19 20  1  0
 21 20  1  6
 21 22  1  0
 21 28  1  0
 22 23  1  0
 23 24  1  0
 24 25  1  0
 24 26  1  0
 26 27  2  0
 26 28  1  0
 28 29  1  6
 30 31  2  0
 32 33  1  0
 34 35  1  0
M  CHG  1  21   1
M  END
