
     RDKit          3D

 33 35  0  0  0  0  0  0  0  0999 V2000
    8.7690   -1.3340    1.5000 C   0  0  0  0  0  0  0  0  0  0  0  0
    7.6930   -2.2600    0.9870 C   0  0  0  0  0  0  0  0  0  0  0  0
    6.5070   -1.4980    0.7800 O   0  0  0  0  0  0  0  0  0  0  0  0
    5.3610   -2.1190    0.3070 C   0  0  0  0  0  0  0  0  0  0  0  0
    5.4250   -3.3360    0.0810 O   0  0  0  0  0  0  0  0  0  0  0  0
    4.1740   -1.3180    0.1080 C   0  0  0  0  0  0  0  0  0  0  0  0
    3.9400    0.0420    0.3120 C   0  0  0  0  0  0  0  0  0  0  0  0
    2.7340    0.5130    0.0390 C   0  0  0  0  0  0  0  0  0  0  0  0
    1.7560   -0.3300   -0.4300 C   0  0  0  0  0  0  0  0  0  0  0  0
    0.3930   -0.0970   -0.7990 C   0  0  0  0  0  0  0  0  0  0  0  0
   -0.3120   -1.1450   -1.2670 F   0  0  0  0  0  0  0  0  0  0  0  0
   -0.1790    1.0850   -0.7340 C   0  0  0  0  0  0  0  0  0  0  0  0
   -1.5400    1.3850   -1.0850 C   0  0  0  0  0  0  0  0  0  0  0  0
   -2.0150    2.6030   -1.0000 C   0  0  0  0  0  0  0  0  0  0  0  0
   -1.3090    3.7870   -0.5590 C   0  0  0  0  0  0  0  0  0  0  0  0
   -1.2190    4.8760   -1.4340 C   0  0  0  0  0  0  0  0  0  0  0  0
   -0.6090    6.0590   -1.1080 C   0  0  0  0  0  0  0  0  0  0  0  0
   -0.0480    6.2120    0.1350 C   0  0  0  0  0  0  0  0  0  0  0  0
    0.7690    7.7110    0.6550 S   0  0  0  0  0  0  0  0  0  0  0  0
    0.7210    8.8580   -0.6220 F   0  0  0  0  0  0  0  0  0  0  0  0
   -0.1190    5.1710    1.0110 C   0  0  0  0  0  0  0  0  0  0  0  0
   -0.7420    3.9670    0.6780 C   0  0  0  0  0  0  0  0  0  0  0  0
   -0.7980    2.9380    1.5990 O   0  0  0  0  0  0  0  0  0  0  0  0
   -2.4330    0.3710   -1.5480 N   0  0  0  0  0  0  0  0  0  0  0  0
   -2.8750   -0.6160   -0.6340 C   0  0  0  0  0  0  0  0  0  0  0  0
   -2.5220   -0.6020    0.5640 O   0  0  0  0  0  0  0  0  0  0  0  0
   -3.7480   -1.6750   -1.0440 N   0  0  0  0  0  0  0  0  0  0  0  0
   -4.1710   -2.6580   -0.0750 C   0  0  2  0  0  0  0  0  0  0  0  0
   -3.8040   -4.0650   -0.5300 C   0  0  0  0  0  0  0  0  0  0  0  0
   -4.6400   -4.9270    0.3790 C   0  0  0  0  0  0  0  0  0  0  0  0
   -5.8790   -4.0990    0.6720 C   0  0  0  0  0  0  0  0  0  0  0  0
   -5.6760   -2.7540    0.0460 C   0  0  0  0  0  0  0  0  0  0  0  0
    2.6330   -1.8860   -0.4780 S   0  0  0  0  0  0  0  0  0  0  0  0
  1  2  1  0
  2  3  1  0
  3  4  1  0
  4  5  2  0
  4  6  1  0
  6  7  2  0
  6 33  1  0
  7  8  1  0
  8  9  2  0
  9 10  1  0
  9 33  1  0
 10 11  1  0
 10 12  2  3
 12 13  1  0
 13 14  2  3
 13 24  1  0
 14 15  1  0
 15 16  2  0
 15 22  1  0
 16 17  1  0
 17 18  2  0
 18 19  1  0
 18 21  1  0
 19 20  1  0
 21 22  2  0
 22 23  1  0
 24 25  1  0
 25 26  2  0
 25 27  1  0
 28 27  1  6
 28 29  1  0
 28 32  1  0
 29 30  1  0
 30 31  1  0
 31 32  1  0
M  END
