
     RDKit          3D

 34 36  0  0  0  0  0  0  0  0999 V2000
   -6.9640   -1.8370   -0.0860 C   0  0  0  0  0  0  0  0  0  0  0  0
   -6.0210   -0.8370   -0.6390 C   0  0  1  0  0  0  0  0  0  0  0  0
   -6.3200   -0.6770   -2.1640 C   0  0  0  0  0  0  0  0  0  0  0  0
   -6.2890    0.7780    0.0550 S   0  0  0  0  0  0  0  0  0  0  0  0
   -4.5830   -1.3640   -0.5570 C   0  0  0  0  0  0  0  0  0  0  0  0
   -3.6410   -0.2990   -0.9460 N   0  0  0  0  0  0  0  0  0  0  0  0
   -3.4280    0.7900   -0.0980 C   0  0  0  0  0  0  0  0  0  0  0  0
   -4.0610    0.7070    1.0310 O   0  0  0  0  0  0  0  0  0  0  0  0
   -2.6410    1.9860   -0.2560 C   0  0  0  0  0  0  0  0  0  0  0  0
   -3.2350    3.1220    0.3150 C   0  0  0  0  0  0  0  0  0  0  0  0
   -2.6720    4.3890    0.2620 C   0  0  0  0  0  0  0  0  0  0  0  0
   -3.3810    5.4530    0.8710 O   0  0  0  0  0  0  0  0  0  0  0  0
   -1.5120    4.5500   -0.3600 C   0  0  0  0  0  0  0  0  0  0  0  0
   -0.8800    3.4610   -0.9420 C   0  0  0  0  0  0  0  0  0  0  0  0
   -1.4490    2.1750   -0.8810 C   0  0  0  0  0  0  0  0  0  0  0  0
   -0.6170    0.8310   -1.6060 S   0  0  0  0  0  0  0  0  0  0  0  0
    0.0750   -0.3510   -0.5650 C   0  0  0  0  0  0  0  0  0  0  0  0
    0.9470   -0.1830    0.4520 C   0  0  0  0  0  0  0  0  0  0  0  0
    1.8220   -0.0080    1.4870 O   0  0  0  0  0  0  0  0  0  0  0  0
    3.1270   -0.4820    1.4630 C   0  0  0  0  0  0  0  0  0  0  0  0
    3.9640   -0.9680    0.5920 C   0  0  0  0  0  0  0  0  0  0  0  0
    5.2640   -1.3980    0.8300 C   0  0  0  0  0  0  0  0  0  0  0  0
    6.1520   -1.7500   -0.1450 C   0  0  0  0  0  0  0  0  0  0  0  0
    7.4920   -2.0350    0.1340 C   0  0  0  0  0  0  0  0  0  0  0  0
    8.4520   -2.1660   -0.9890 C   0  0  2  0  0  0  0  0  0  0  0  0
    9.3020   -0.9990   -0.8250 F   0  0  0  0  0  0  0  0  0  0  0  0
    7.7660   -1.9600   -2.1820 F   0  0  0  0  0  0  0  0  0  0  0  0
    9.2700   -3.2560   -0.9780 F   0  0  0  0  0  0  0  0  0  0  0  0
    7.9110   -1.9740    1.4730 C   0  0  0  0  0  0  0  0  0  0  0  0
    7.0100   -1.6130    2.4200 C   0  0  0  0  0  0  0  0  0  0  0  0
    5.7160   -1.3090    2.1620 C   0  0  0  0  0  0  0  0  0  0  0  0
    4.8490   -0.8110    3.0340 N   0  0  0  0  0  0  0  0  0  0  0  0
    3.6500   -0.3930    2.8780 C   0  0  0  0  0  0  0  0  0  0  0  0
    2.8040    0.0910    3.6520 O   0  0  0  0  0  0  0  0  0  0  0  0
  2  1  1  1
  2  3  1  0
  2  4  1  0
  2  5  1  0
  5  6  1  0
  6  7  1  0
  7  8  2  0
  7  9  1  0
  9 10  2  0
  9 15  1  0
 10 11  1  0
 11 12  1  0
 11 13  2  0
 13 14  1  0
 14 15  2  0
 15 16  1  0
 16 17  1  0
 17 18  1  0
 18 19  1  0
 19 20  1  0
 20 21  2  0
 20 33  1  0
 21 22  1  0
 22 23  2  0
 22 31  1  0
 23 24  1  0
 24 25  1  0
 24 29  2  0
 25 26  1  1
 25 27  1  0
 25 28  1  0
 29 30  1  0
 30 31  2  0
 31 32  1  0
 32 33  1  0
 33 34  2  0
M  END
