
     RDKit          3D

 34 38  0  0  0  0  0  0  0  0999 V2000
   -4.8100   -2.8610   -1.5080 C   0  0  0  0  0  0  0  0  0  0  0  0
   -3.3620   -2.7570   -1.5080 N   0  0  0  0  0  0  0  0  0  0  0  0
   -3.0220   -1.8050   -0.4380 C   0  0  0  0  0  0  0  0  0  0  0  0
   -1.6130   -1.9630    0.0180 C   0  0  2  0  0  0  0  0  0  0  0  0
   -0.6490   -1.7300   -1.1230 C   0  0  0  0  0  0  0  0  0  0  0  0
   -1.4230   -3.3810    0.5050 C   0  0  0  0  0  0  0  0  0  0  0  0
   -1.3580   -1.0440    1.1790 C   0  0  0  0  0  0  0  0  0  0  0  0
   -1.5640    0.3560    0.8380 N   0  0  2  0  0  0  0  0  0  0  0  0
   -0.4830    1.1040    1.4760 C   0  0  0  0  0  0  0  0  0  0  0  0
    0.8460    0.8030    0.9230 C   0  0  0  0  0  0  0  0  0  0  0  0
    1.2140    1.2270   -0.3470 C   0  0  0  0  0  0  0  0  0  0  0  0
    2.4410    0.9690   -0.8840 N   0  0  0  0  0  0  0  0  0  0  0  0
    3.3030    0.2830   -0.1480 C   0  0  0  0  0  0  0  0  0  0  0  0
    3.0160   -0.1950    1.1670 C   0  0  0  0  0  0  0  0  0  0  0  0
    1.7840    0.0800    1.6740 C   0  0  0  0  0  0  0  0  0  0  0  0
    4.0430   -0.8880    1.7570 O   0  0  0  0  0  0  0  0  0  0  0  0
    5.2510   -1.3010    1.1030 C   0  0  1  0  0  0  0  0  0  0  0  0
    4.8960   -2.2770    0.0310 C   0  0  0  0  0  0  0  0  0  0  0  0
    5.4950   -2.0060   -1.3510 C   0  0  0  0  0  0  0  0  0  0  0  0
    4.8800   -0.6420   -1.9070 C   0  0  0  0  0  0  0  0  0  0  0  0
    4.5550   -0.0580   -0.6500 N   0  0  0  0  0  0  0  0  0  0  0  0
    5.6750    0.0030    0.3160 C   0  0  1  0  0  0  0  0  0  0  0  0
    5.6040    1.1630    1.2410 C   0  0  0  0  0  0  0  0  0  0  0  0
   -2.7940    0.8560    1.4050 C   0  0  0  0  0  0  0  0  0  0  0  0
   -3.3080    2.0920    0.8300 C   0  0  0  0  0  0  0  0  0  0  0  0
   -2.6910    2.7730   -0.1870 C   0  0  0  0  0  0  0  0  0  0  0  0
   -3.1980    3.9260   -0.7000 C   0  0  0  0  0  0  0  0  0  0  0  0
   -4.3590    4.4510   -0.2110 C   0  0  0  0  0  0  0  0  0  0  0  0
   -4.9650    3.7940    0.7790 O   0  0  0  0  0  0  0  0  0  0  0  0
   -4.4920    2.6890    1.2820 C   0  0  0  0  0  0  0  0  0  0  0  0
   -5.1050    2.1040    2.2210 O   0  0  0  0  0  0  0  0  0  0  0  0
   -4.7920    5.6000   -0.7820 O   0  0  0  0  0  0  0  0  0  0  0  0
   -3.8150    6.4140   -1.3830 C   0  0  0  0  0  0  0  0  0  0  0  0
   -2.6860    5.0610   -1.9630 S   0  0  0  0  0  0  0  0  0  0  0  0
  1  2  1  0
  2  3  1  0
  3  4  1  0
  4  5  1  6
  4  6  1  0
  4  7  1  0
  8  7  1  1
  8  9  1  0
  8 24  1  0
  9 10  1  0
 10 11  2  0
 10 15  1  0
 11 12  1  0
 12 13  2  0
 13 14  1  0
 13 21  1  0
 14 15  2  0
 14 16  1  0
 16 17  1  0
 17 18  1  6
 17 22  1  0
 18 19  1  0
 19 20  1  0
 20 21  1  0
 21 22  1  0
 22 23  1  1
 24 25  1  0
 25 26  2  0
 25 30  1  0
 26 27  1  0
 27 28  2  0
 27 34  1  0
 28 29  1  0
 28 32  1  0
 29 30  1  0
 30 31  2  0
 32 33  1  0
 33 34  1  0
M  CHG  2   2   1   8   1
M  END
