
     RDKit          3D

 35 39  0  0  0  0  0  0  0  0999 V2000
   10.2820    0.1200    0.0760 C   0  0  0  0  0  0  0  0  0  0  0  0
   10.1370   -1.3680    0.2970 C   0  0  2  0  0  0  0  0  0  0  0  0
    9.6360   -2.1440   -1.2450 Cl  0  0  0  0  0  0  0  0  0  0  0  0
    9.0800   -1.6590    1.3080 C   0  0  0  0  0  0  0  0  0  0  0  0
    7.8120   -1.1160    0.8120 C   0  0  0  0  0  0  0  0  0  0  0  0
    7.4250   -0.4590   -0.2800 N   0  0  0  0  0  0  0  0  0  0  0  0
    6.2030   -0.1280   -0.3890 N   0  0  0  0  0  0  0  0  0  0  0  0
    5.3070   -0.3180    0.3600 C   0  0  0  0  0  0  0  0  0  0  0  0
    3.8390   -0.1050    0.5830 C   0  0  0  0  0  0  0  0  0  0  0  0
    3.2630    0.5830   -0.4940 O   0  0  0  0  0  0  0  0  0  0  0  0
    3.6730    1.8480   -0.8740 C   0  0  0  0  0  0  0  0  0  0  0  0
    4.5970    2.4070   -0.2320 O   0  0  0  0  0  0  0  0  0  0  0  0
    3.0620    2.5540   -2.0050 C   0  0  0  0  0  0  0  0  0  0  0  0
    1.9970    1.8630   -2.6050 O   0  0  0  0  0  0  0  0  0  0  0  0
    0.8340    1.5470   -1.9250 C   0  0  0  0  0  0  0  0  0  0  0  0
    0.6310    1.9050   -0.6090 C   0  0  0  0  0  0  0  0  0  0  0  0
   -0.5150    1.5980    0.0820 C   0  0  0  0  0  0  0  0  0  0  0  0
   -1.5280    0.9010   -0.5460 C   0  0  0  0  0  0  0  0  0  0  0  0
   -1.3550    0.5310   -1.8560 C   0  0  0  0  0  0  0  0  0  0  0  0
   -0.1950    0.8460   -2.5420 C   0  0  0  0  0  0  0  0  0  0  0  0
   -2.5750   -0.2250   -2.3380 C   0  0  0  0  0  0  0  0  0  0  0  0
   -3.0830   -0.7780   -0.9950 C   0  0  2  0  0  0  0  0  0  0  0  0
   -4.5400   -1.0460   -1.1490 C   0  0  0  0  0  0  0  0  0  0  0  0
   -5.2060   -0.8440    0.1340 N   0  0  1  0  0  0  0  0  0  0  0  0
   -6.5800   -1.2800   -0.0390 C   0  0  0  0  0  0  0  0  0  0  0  0
   -7.5270   -0.4130    0.7050 C   0  0  0  0  0  0  0  0  0  0  0  0
   -8.1050    0.7100    0.1570 C   0  0  0  0  0  0  0  0  0  0  0  0
   -8.9090    1.2370    1.1410 C   0  0  0  0  0  0  0  0  0  0  0  0
   -8.7950    0.4280    2.2370 C   0  0  0  0  0  0  0  0  0  0  0  0
   -7.9640   -0.5390    1.9330 O   0  0  0  0  0  0  0  0  0  0  0  0
   -4.5910   -1.6710    1.1240 C   0  0  0  0  0  0  0  0  0  0  0  0
   -3.2770   -1.1820    1.6240 C   0  0  0  0  0  0  0  0  0  0  0  0
   -2.9890    0.1860    1.2670 N   0  0  0  0  0  0  0  0  0  0  0  0
   -2.8650    0.4170   -0.1290 C   0  0  1  0  0  0  0  0  0  0  0  0
    6.2710   -1.2360    1.7050 S   0  0  0  0  0  0  0  0  0  0  0  0
  2  1  1  6
  2  3  1  0
  2  4  1  0
  4  5  1  0
  5  6  2  0
  5 35  1  0
  6  7  1  0
  7  8  2  0
  8  9  1  0
  8 35  1  0
  9 10  1  0
 10 11  1  0
 11 12  2  0
 11 13  1  0
 13 14  1  0
 14 15  1  0
 15 16  2  0
 15 20  1  0
 16 17  1  0
 17 18  2  0
 18 19  1  0
 18 34  1  0
 19 20  2  0
 19 21  1  0
 22 21  1  6
 22 23  1  0
 22 34  1  0
 23 24  1  0
 24 25  1  6
 24 31  1  0
 25 26  1  0
 26 27  2  0
 26 30  1  0
 27 28  1  0
 28 29  2  0
 29 30  1  0
 31 32  1  0
 32 33  1  0
 34 33  1  1
M  CHG  2  24   1  33   1
M  END
