
     RDKit          3D

 34 36  0  0  0  0  0  0  0  0999 V2000
    6.7320    3.0340    1.8720 C   0  0  0  0  0  0  0  0  0  0  0  0
    7.6380    2.8370    0.7170 C   0  0  0  0  0  0  0  0  0  0  0  0
    8.9380    3.2280    0.7210 F   0  0  0  0  0  0  0  0  0  0  0  0
    7.1690    2.2480   -0.3600 C   0  0  0  0  0  0  0  0  0  0  0  0
    7.9390    2.0380   -1.4480 F   0  0  0  0  0  0  0  0  0  0  0  0
    5.7610    1.7510   -0.4440 C   0  0  0  0  0  0  0  0  0  0  0  0
    5.3260    1.1720   -1.5210 C   0  0  0  0  0  0  0  0  0  0  0  0
    4.0240    0.6500   -1.7560 C   0  0  0  0  0  0  0  0  0  0  0  0
    3.8660    0.0660   -2.9370 O   0  0  0  0  0  0  0  0  0  0  0  0
    2.8300    0.6460   -0.9290 C   0  0  0  0  0  0  0  0  0  0  0  0
    2.4010    1.1260    0.2390 C   0  0  0  0  0  0  0  0  0  0  0  0
    1.1620    0.8680    0.7170 C   0  0  0  0  0  0  0  0  0  0  0  0
    0.6780    1.3960    2.0560 C   0  0  1  0  0  0  0  0  0  0  0  0
    1.4070    2.4760    2.7030 C   0  0  0  0  0  0  0  0  0  0  0  0
    0.0430    2.7360    2.1610 C   0  0  0  0  0  0  0  0  0  0  0  0
    0.3520    0.1000   -0.0240 C   0  0  0  0  0  0  0  0  0  0  0  0
   -1.0050   -0.3190    0.0690 C   0  0  0  0  0  0  0  0  0  0  0  0
   -1.6640    0.2140    1.0490 O   0  0  0  0  0  0  0  0  0  0  0  0
   -1.7360   -1.2080   -0.7280 N   0  0  0  0  0  0  0  0  0  0  0  0
   -1.0260   -1.9270   -1.7880 C   0  0  0  0  0  0  0  0  0  0  0  0
   -0.9540   -1.1920   -3.0570 C   0  0  0  0  0  0  0  0  0  0  0  0
   -1.4830    0.0920   -3.3020 N   0  0  0  0  0  0  0  0  0  0  0  0
   -0.3690   -1.7410   -4.0330 O   0  0  0  0  0  0  0  0  0  0  0  0
   -3.1480   -1.3030   -0.5840 C   0  0  0  0  0  0  0  0  0  0  0  0
   -3.7630   -2.1090    0.4800 C   0  0  1  0  0  0  0  0  0  0  0  0
   -3.3680   -3.5920    0.4220 C   0  0  0  0  0  0  0  0  0  0  0  0
   -3.5500   -1.6350    1.7610 O   0  0  0  0  0  0  0  0  0  0  0  0
   -5.2440   -2.1210    0.2050 C   0  0  0  0  0  0  0  0  0  0  0  0
   -6.3040   -2.5920    0.8050 C   0  0  0  0  0  0  0  0  0  0  0  0
   -7.5340   -2.5100    0.2740 C   0  0  0  0  0  0  0  0  0  0  0  0
   -7.6300   -1.8970   -0.9470 C   0  0  0  0  0  0  0  0  0  0  0  0
   -8.7380   -1.6590   -1.7350 F   0  0  0  0  0  0  0  0  0  0  0  0
   -5.9430   -1.4460   -1.3170 S   0  0  0  0  0  0  0  0  0  0  0  0
    1.3380   -0.3230   -1.5030 S   0  0  0  0  0  0  0  0  0  0  0  0
  1  2  1  0
  2  3  1  0
  2  4  2  3
  4  5  1  0
  4  6  1  0
  6  7  2  3
  7  8  1  0
  8  9  2  0
  8 10  1  0
 10 11  2  0
 10 34  1  0
 11 12  1  0
 13 12  1  6
 12 16  2  0
 13 14  1  0
 13 15  1  0
 14 15  1  0
 16 17  1  0
 16 34  1  0
 17 18  2  0
 17 19  1  0
 19 20  1  0
 19 24  1  0
 20 21  1  0
 21 22  1  0
 21 23  2  0
 24 25  1  0
 25 26  1  1
 25 27  1  0
 25 28  1  0
 28 29  2  0
 28 33  1  0
 29 30  1  0
 30 31  2  0
 31 32  1  0
 31 33  1  0
M  END
