
     RDKit          3D

 39 45  0  0  0  0  0  0  0  0999 V2000
    0.9600    3.6110   -0.0140 C   0  0  0  0  0  0  0  0  0  0  0  0
   -0.3640    2.9830    0.2340 C   0  0  2  0  0  0  0  0  0  0  0  0
   -0.8140    3.3140    1.4780 O   0  0  0  0  0  0  0  0  0  0  0  0
   -0.6630    1.6550   -0.3470 C   0  0  1  0  0  0  0  0  0  0  0  0
   -2.0560    1.5800   -0.4000 O   0  0  0  0  0  0  0  0  0  0  0  0
   -2.6730    2.6940   -0.5650 O   0  0  0  0  0  0  0  0  0  0  0  0
   -2.7630    3.1810   -2.2580 P   0  0  0  0  0  0  0  0  0  0  0  0
   -0.9560    3.4020   -2.7570 C   0  0  0  0  0  0  0  0  0  0  0  0
   -0.1110    1.8380   -2.1270 P   0  0  0  0  0  0  0  0  0  0  0  0
   -0.7170    0.4910   -3.0240 O   0  0  0  0  0  0  0  0  0  0  0  0
   -1.8330   -0.2840   -1.8940 P   0  0  0  0  0  0  0  0  0  0  0  0
   -2.2510   -1.8190   -2.6500 O   0  0  0  0  0  0  0  0  0  0  0  0
   -0.7440   -0.7990   -0.3850 C   0  0  1  0  0  0  0  0  0  0  0  0
    0.1910   -1.6490   -1.0740 N   0  0  0  0  0  0  0  0  0  0  0  0
    1.4000   -1.5950   -1.0880 C   0  0  0  0  0  0  0  0  0  0  0  0
    2.5530   -2.3260   -1.7050 C   0  0  0  0  0  0  0  0  0  0  0  0
    2.5150   -3.6720   -2.0310 O   0  0  0  0  0  0  0  0  0  0  0  0
    3.5390   -1.4280   -1.8490 C   0  0  0  0  0  0  0  0  0  0  0  0
    3.0670   -0.0740   -1.3330 C   0  0  0  0  0  0  0  0  0  0  0  0
    2.0910   -0.5750   -0.3130 C   0  0  2  0  0  0  0  0  0  0  0  0
    3.0470   -1.3090    0.6640 C   0  0  0  0  0  0  0  0  0  0  0  0
    3.2380   -0.2100    1.5950 N   0  0  0  0  0  0  0  0  0  0  0  0
    1.7820   -0.0130    1.8820 C   0  0  2  0  0  0  0  0  0  0  0  0
    1.7360    1.0210    2.9260 C   0  0  0  0  0  0  0  0  0  0  0  0
    1.4650   -1.2900    2.3030 O   0  0  0  0  0  0  0  0  0  0  0  0
    1.3130    0.3510    0.4960 C   0  0  2  0  0  0  0  0  0  0  0  0
   -0.2010    0.3910    0.3230 C   0  0  1  0  0  0  0  0  0  0  0  0
   -0.8660    0.4600    1.6860 C   0  0  0  0  0  0  0  0  0  0  0  0
   -2.2430    0.1210    1.5600 O   0  0  0  0  0  0  0  0  0  0  0  0
   -2.2480   -1.2100    1.5230 N   0  0  0  0  0  0  0  0  0  0  0  0
   -2.6100   -2.3290    2.2280 N   0  0  0  0  0  0  0  0  0  0  0  0
   -1.8700   -3.3430    1.8760 C   0  0  0  0  0  0  0  0  0  0  0  0
   -1.9920   -4.6040    2.4060 O   0  0  0  0  0  0  0  0  0  0  0  0
   -0.9970   -2.8790    0.9120 O   0  0  0  0  0  0  0  0  0  0  0  0
   -1.6230   -1.7600    0.3240 C   0  0  2  0  0  0  0  0  0  0  0  0
   -2.7420   -2.2470   -0.4480 N   0  0  0  0  0  0  0  0  0  0  0  0
   -4.1090   -1.1430   -0.5940 P   0  0  0  0  0  0  0  0  0  0  0  0
   -3.1400   -3.9430   -0.2380 P   0  0  0  0  0  0  0  0  0  0  0  0
   -2.3090   -5.0230   -0.9940 O   0  0  0  0  0  0  0  0  0  0  0  0
  2  1  1  1
  2  3  1  0
  2  4  1  0
  4  5  1  6
  4  9  1  0
  4 27  1  0
  5  6  1  0
  6  7  1  0
  7  8  1  0
  8  9  1  0
  9 10  1  0
 10 11  1  0
 11 12  1  0
 13 11  1  6
 13 14  1  0
 13 27  1  0
 13 35  1  0
 14 15  2  0
 15 16  1  0
 15 20  1  0
 16 17  1  0
 16 18  2  0
 18 19  1  0
 20 19  1  6
 20 21  1  0
 20 26  1  0
 21 22  1  0
 22 23  1  0
 23 24  1  1
 23 25  1  0
 26 23  1  1
 26 27  1  0
 27 28  1  1
 28 29  1  0
 29 30  1  0
 30 31  1  0
 30 35  1  0
 31 32  2  0
 32 33  1  0
 32 34  1  0
 34 35  1  0
 35 36  1  6
 36 37  1  0
 36 38  1  0
 38 39  2  0
M  END
