
     RDKit          3D

 39 43  0  0  0  0  0  0  0  0999 V2000
   -3.4930   -4.3560   -0.4320 C   0  0  0  0  0  0  0  0  0  0  0  0
   -2.8800   -3.1500   -0.1570 O   0  0  0  0  0  0  0  0  0  0  0  0
   -2.3740   -3.2140    1.1400 C   0  0  0  0  0  0  0  0  0  0  0  0
   -1.6760   -1.8860    1.4990 C   0  0  1  0  0  0  0  0  0  0  0  0
   -2.7700   -0.8430    1.3920 C   0  0  0  0  0  0  0  0  0  0  0  0
   -3.7340   -1.1940    0.4370 O   0  0  0  0  0  0  0  0  0  0  0  0
   -4.3650   -0.0500   -0.0080 C   0  0  0  0  0  0  0  0  0  0  0  0
   -3.2390    1.2060   -0.7140 P   0  0  0  0  0  0  0  0  0  0  0  0
   -3.8270    1.9660   -2.1300 O   0  0  0  0  0  0  0  0  0  0  0  0
   -5.1320    2.3510   -1.9520 C   0  0  0  0  0  0  0  0  0  0  0  0
   -2.6830    2.4430    0.5050 C   0  0  0  0  0  0  0  0  0  0  0  0
   -3.6070    2.9170    1.4120 O   0  0  0  0  0  0  0  0  0  0  0  0
   -3.8150    4.1820    1.7200 O   0  0  0  0  0  0  0  0  0  0  0  0
   -3.3160    4.9560    0.7830 O   0  0  0  0  0  0  0  0  0  0  0  0
   -1.0930    2.8760    0.3910 P   0  0  0  0  0  0  0  0  0  0  0  0
    0.3850    2.1600   -1.0120 P   0  0  0  0  0  0  0  0  0  0  0  0
    0.2980    0.0140   -1.5020 P   0  0  0  0  0  0  0  0  0  0  0  0
    1.2670   -0.0920   -3.0770 N   0  0  0  0  0  0  0  0  0  0  0  0
    2.5290    0.5460   -2.5770 C   0  0  0  0  0  0  0  0  0  0  0  0
    3.1070   -0.4030   -1.7180 N   0  0  0  0  0  0  0  0  0  0  0  0
    2.7190   -0.4470   -0.3270 C   0  0  2  0  0  0  0  0  0  0  0  0
    3.3470    0.5750    0.3990 N   0  0  0  0  0  0  0  0  0  0  0  0
    3.2800    0.7180    1.8610 C   0  0  0  0  0  0  0  0  0  0  0  0
    4.1520    1.5430   -0.2210 C   0  0  0  0  0  0  0  0  0  0  0  0
    5.4730    1.1970   -0.3510 N   0  0  0  0  0  0  0  0  0  0  0  0
    6.3750    1.9940   -0.9070 C   0  0  0  0  0  0  0  0  0  0  0  0
    5.9370    3.2240   -1.3680 C   0  0  0  0  0  0  0  0  0  0  0  0
    4.6130    3.5460   -1.2260 C   0  0  0  0  0  0  0  0  0  0  0  0
    4.2190    4.6810   -1.6520 O   0  0  0  0  0  0  0  0  0  0  0  0
    3.7920    2.7000   -0.6650 O   0  0  0  0  0  0  0  0  0  0  0  0
    3.5630   -2.1260    0.1630 P   0  0  0  0  0  0  0  0  0  0  0  0
    2.0210   -2.9360    0.1930 O   0  0  0  0  0  0  0  0  0  0  0  0
    1.3980   -2.2090   -0.7310 O   0  0  0  0  0  0  0  0  0  0  0  0
    1.3650   -0.8730   -0.1920 C   0  0  2  0  0  0  0  0  0  0  0  0
    0.5570   -0.9380    0.9190 N   0  0  0  0  0  0  0  0  0  0  0  0
    0.9420   -1.4860    2.1350 C   0  0  0  0  0  0  0  0  0  0  0  0
    0.0550   -2.6160    2.6680 C   0  0  0  0  0  0  0  0  0  0  0  0
   -1.2130   -2.0440    2.7850 O   0  0  0  0  0  0  0  0  0  0  0  0
   -0.6560   -1.6480    0.4620 C   0  0  0  0  0  0  0  0  0  0  0  0
  1  2  1  0
  2  3  1  0
  4  3  1  6
  4  5  1  0
  4 38  1  0
  4 39  1  0
  5  6  1  0
  6  7  1  0
  7  8  1  0
  8  9  1  0
  8 11  1  0
  9 10  1  0
 11 12  1  0
 11 15  2  0
 12 13  1  0
 13 14  1  0
 15 16  1  0
 16 17  1  0
 17 18  1  0
 17 34  1  0
 18 19  1  0
 19 20  1  0
 20 21  1  0
 21 22  1  1
 21 31  1  0
 21 34  1  0
 22 23  1  0
 22 24  1  0
 24 25  2  0
 24 30  1  0
 25 26  1  0
 26 27  2  0
 27 28  1  0
 28 29  2  0
 28 30  1  0
 31 32  1  0
 32 33  1  0
 34 33  1  6
 34 35  1  0
 35 36  1  0
 35 39  1  0
 36 37  1  0
 37 38  1  0
M  END
