
     RDKit          3D

 39 43  0  0  0  0  0  0  0  0999 V2000
   -2.0540    4.5490    1.0090 C   0  0  0  0  0  0  0  0  0  0  0  0
   -1.9650    3.2850    1.2050 C   0  0  0  0  0  0  0  0  0  0  0  0
   -3.4760    2.1530    1.8240 P   0  0  0  0  0  0  0  0  0  0  0  0
   -2.5300    0.6000    1.7670 C   0  0  0  0  0  0  0  0  0  0  0  0
   -3.0430   -0.7230    2.1650 C   0  0  0  0  0  0  0  0  0  0  0  0
   -3.8310   -0.6620    3.3900 N   0  0  0  0  0  0  0  0  0  0  0  0
   -2.8260   -1.6990    1.5450 N   0  0  0  0  0  0  0  0  0  0  0  0
   -2.6370   -2.8140    0.9280 O   0  0  0  0  0  0  0  0  0  0  0  0
   -2.3920   -2.8950   -0.4750 C   0  0  1  0  0  0  0  0  0  0  0  0
   -3.3380   -3.8090   -1.1930 C   0  0  0  0  0  0  0  0  0  0  0  0
   -2.5010   -1.5670   -1.0380 O   0  0  0  0  0  0  0  0  0  0  0  0
   -1.5180   -1.0630   -1.9050 C   0  0  0  0  0  0  0  0  0  0  0  0
   -1.8850   -0.7940   -3.1180 O   0  0  0  0  0  0  0  0  0  0  0  0
   -0.1790   -0.8370   -1.5480 N   0  0  0  0  0  0  0  0  0  0  0  0
    1.2630   -1.1340   -1.8650 C   0  0  0  0  0  0  0  0  0  0  0  0
    1.3400   -1.3060   -0.3910 C   0  0  2  0  0  0  0  0  0  0  0  0
    0.3990   -0.0670   -0.4730 C   0  0  2  0  0  0  0  0  0  0  0  0
   -0.3080    0.0240    0.8130 C   0  0  0  0  0  0  0  0  0  0  0  0
   -1.4710    0.9570    0.9760 C   0  0  2  0  0  0  0  0  0  0  0  0
   -1.0150    2.2640    1.1190 N   0  0  0  0  0  0  0  0  0  0  0  0
    0.3490    2.6610    1.2360 O   0  0  0  0  0  0  0  0  0  0  0  0
    1.2820    1.0610   -0.9020 C   0  0  0  0  0  0  0  0  0  0  0  0
    0.9630    2.0210   -1.7320 C   0  0  0  0  0  0  0  0  0  0  0  0
    2.1980    3.3310   -2.1400 P   0  0  0  0  0  0  0  0  0  0  0  0
    2.3170    4.6280   -1.3010 O   0  0  0  0  0  0  0  0  0  0  0  0
   -0.6340    2.2650   -2.5780 P   0  0  0  0  0  0  0  0  0  0  0  0
   -1.0880    3.9380   -2.3330 O   0  0  0  0  0  0  0  0  0  0  0  0
   -0.1820    4.7370   -2.8230 O   0  0  0  0  0  0  0  0  0  0  0  0
   -0.4250    1.9470   -4.7260 P   0  0  0  0  0  0  0  0  0  0  0  0
    0.2390    3.0350   -5.6000 O   0  0  0  0  0  0  0  0  0  0  0  0
    2.6660    1.1510   -0.3730 C   0  0  0  0  0  0  0  0  0  0  0  0
    3.2720    2.2550   -0.3020 O   0  0  0  0  0  0  0  0  0  0  0  0
    3.3190    0.0210    0.0530 O   0  0  0  0  0  0  0  0  0  0  0  0
    2.6120   -1.1470    0.2380 C   0  0  2  0  0  0  0  0  0  0  0  0
    3.5040   -2.2400   -0.1970 N   0  0  0  0  0  0  0  0  0  0  0  0
    4.5200   -2.2590    0.6710 O   0  0  0  0  0  0  0  0  0  0  0  0
    4.3000   -2.4850    1.9640 C   0  0  0  0  0  0  0  0  0  0  0  0
    4.9430   -3.1190    3.0840 C   0  0  0  0  0  0  0  0  0  0  0  0
    2.6540   -1.6480    2.0710 P   0  0  0  0  0  0  0  0  0  0  0  0
  1  2  2  0
  2  3  1  0
  2 20  1  0
  3  4  2  0
  4  5  1  0
  4 19  1  0
  5  6  1  0
  5  7  2  0
  7  8  1  0
  8  9  1  0
  9 10  1  6
  9 11  1  0
 11 12  1  0
 12 13  2  0
 12 14  1  0
 14 15  1  0
 14 17  1  0
 16 15  1  6
 16 17  1  0
 16 34  1  0
 17 18  1  1
 17 22  1  0
 19 18  1  1
 19 20  1  0
 20 21  1  0
 22 23  2  3
 22 31  1  0
 23 24  1  0
 23 26  1  0
 24 25  2  0
 26 27  1  0
 26 29  1  0
 27 28  1  0
 29 30  2  0
 31 32  2  0
 31 33  1  0
 33 34  1  0
 34 35  1  6
 34 39  1  0
 35 36  1  0
 36 37  1  0
 37 38  1  0
 37 39  2  0
M  END
