
     RDKit          3D

 39 39  0  0  0  0  0  0  0  0999 V2000
   -1.3220    3.8390   -2.4910 C   0  0  0  0  0  0  0  0  0  0  0  0
   -0.6280    2.8750   -1.6180 C   0  0  0  0  0  0  0  0  0  0  0  0
   -0.5110    3.3470   -0.1780 C   0  0  0  0  0  0  0  0  0  0  0  0
   -0.2770    2.2560    0.7500 O   0  0  0  0  0  0  0  0  0  0  0  0
   -0.3570    0.5790    0.0640 P   0  0  0  0  0  0  0  0  0  0  0  0
   -1.4730   -0.2280    0.9890 O   0  0  0  0  0  0  0  0  0  0  0  0
   -2.3100   -1.1850    0.5820 C   0  0  1  0  0  0  0  0  0  0  0  0
   -3.1170   -1.5650    1.8650 C   0  0  0  0  0  0  0  0  0  0  0  0
   -3.3550   -0.8960   -0.4330 C   0  0  0  0  0  0  0  0  0  0  0  0
   -2.9330   -0.4940   -1.7730 C   0  0  0  0  0  0  0  0  0  0  0  0
   -1.7750   -0.5600   -2.1680 O   0  0  0  0  0  0  0  0  0  0  0  0
   -4.1690    0.1620   -2.9950 P   0  0  0  0  0  0  0  0  0  0  0  0
   -1.5490   -2.4530    0.1500 C   0  0  0  0  0  0  0  0  0  0  0  0
   -2.6280   -3.7860   -0.4640 P   0  0  0  0  0  0  0  0  0  0  0  0
   -3.8240   -4.4610    0.7350 C   0  0  0  0  0  0  0  0  0  0  0  0
   -1.6430   -5.0480   -1.1490 O   0  0  0  0  0  0  0  0  0  0  0  0
    1.2840   -0.0810    0.3240 N   0  0  0  0  0  0  0  0  0  0  0  0
    2.0360   -0.9260   -0.9440 P   0  0  0  0  0  0  0  0  0  0  0  0
    2.2170   -2.7270   -0.8770 C   0  0  0  0  0  0  0  0  0  0  0  0
    3.0750   -3.2950   -1.9560 C   0  0  0  0  0  0  0  0  0  0  0  0
    3.0190   -2.8220   -3.1660 N   0  0  0  0  0  0  0  0  0  0  0  0
    3.7450   -3.2560   -4.2190 O   0  0  0  0  0  0  0  0  0  0  0  0
    3.3600   -0.1420   -1.6430 O   0  0  0  0  0  0  0  0  0  0  0  0
    4.3620   -0.8660   -2.0070 O   0  0  0  0  0  0  0  0  0  0  0  0
    1.7730   -0.2110    1.9550 P   0  0  0  0  0  0  0  0  0  0  0  0
    1.1810   -1.6500    2.9050 C   0  0  0  0  0  0  0  0  0  0  0  0
    3.5860    0.1410    2.1980 C   0  0  1  0  0  0  0  0  0  0  0  0
    4.0100   -0.3610    3.4970 C   0  0  0  0  0  0  0  0  0  0  0  0
    4.7820   -1.2620    2.9470 C   0  0  0  0  0  0  0  0  0  0  0  0
    4.4510   -0.8500    1.6570 N   0  0  0  0  0  0  0  0  0  0  0  0
   -0.5850    4.4570    0.2270 C   0  0  0  0  0  0  0  0  0  0  0  0
   -0.6550    5.7050    0.8560 N   0  0  0  0  0  0  0  0  0  0  0  0
   -0.5350    5.7360    2.3120 C   0  0  0  0  0  0  0  0  0  0  0  0
   -0.3600    4.6740    2.8900 O   0  0  0  0  0  0  0  0  0  0  0  0
   -0.6220    6.9400    2.9810 O   0  0  0  0  0  0  0  0  0  0  0  0
    0.4510    5.1820   -1.0320 C   0  0  0  0  0  0  0  0  0  0  0  0
    0.3910    6.3760   -0.9090 O   0  0  0  0  0  0  0  0  0  0  0  0
    1.0990    4.4150   -1.8400 N   0  0  0  0  0  0  0  0  0  0  0  0
    2.3400    4.3170   -2.0750 O   0  0  0  0  0  0  0  0  0  0  0  0
  1  2  1  0
  2  3  1  0
  3  4  1  0
  3 31  2  3
  4  5  1  0
  5  6  1  0
  5 17  1  0
  6  7  1  0
  7  8  1  1
  7  9  1  0
  7 13  1  0
  9 10  1  0
 10 11  2  0
 10 12  1  0
 13 14  1  0
 14 15  1  0
 14 16  1  0
 17 18  1  0
 17 25  1  0
 18 19  1  0
 18 23  1  0
 19 20  1  0
 20 21  2  3
 21 22  1  0
 23 24  1  0
 25 26  1  0
 27 25  1  6
 27 28  1  0
 27 30  1  0
 28 29  2  0
 29 30  1  0
 31 32  1  0
 31 36  1  0
 32 33  1  0
 33 34  2  0
 33 35  1  0
 36 37  2  0
 36 38  1  0
 38 39  2  0
M  END
