
     RDKit          3D

 36 36  0  0  0  0  0  0  0  0999 V2000
   -3.7110   -2.0940    0.7530 O   0  0  0  0  0  0  0  0  0  0  0  0
   -3.3010   -2.3550   -0.7020 P   0  0  1  0  0  0  0  0  0  0  0  0
   -3.1050   -4.0630   -0.7510 O   0  0  0  0  0  0  0  0  0  0  0  0
   -4.6290   -2.0420   -1.6540 O   0  0  0  0  0  0  0  0  0  0  0  0
   -1.9100   -1.6390   -1.0510 O   0  0  0  0  0  0  0  0  0  0  0  0
   -1.2540   -0.8530   -0.1360 C   0  0  2  0  0  0  0  0  0  0  0  0
   -1.1800    0.5990   -0.4890 C   0  0  1  0  0  0  0  0  0  0  0  0
   -2.3980    1.1760   -0.2270 O   0  0  0  0  0  0  0  0  0  0  0  0
   -3.0090    2.0760   -1.5160 P   0  0  2  0  0  0  0  0  0  0  0  0
   -2.9600    3.5410   -1.2100 O   0  0  0  0  0  0  0  0  0  0  0  0
   -4.6290    1.5990   -1.6910 O   0  0  0  0  0  0  0  0  0  0  0  0
   -2.1020    1.6870   -2.8990 O   0  0  0  0  0  0  0  0  0  0  0  0
   -0.1860    1.2240    0.4760 C   0  0  2  0  0  0  0  0  0  0  0  0
   -0.2550    2.5940    0.2990 O   0  0  0  0  0  0  0  0  0  0  0  0
   -0.5610    3.3690    1.7890 P   0  0  1  0  0  0  0  0  0  0  0  0
   -1.6340    2.5690    2.4870 O   0  0  0  0  0  0  0  0  0  0  0  0
    0.8710    3.4040    2.6720 O   0  0  0  0  0  0  0  0  0  0  0  0
   -1.0980    4.9280    1.4270 O   0  0  0  0  0  0  0  0  0  0  0  0
    1.1760    0.7640   -0.0090 C   0  0  2  0  0  0  0  0  0  0  0  0
    1.4580    1.3750   -1.2250 O   0  0  0  0  0  0  0  0  0  0  0  0
    2.7430    2.4400   -1.0130 P   0  0  2  0  0  0  0  0  0  0  0  0
    3.7260    2.2170   -2.1420 O   0  0  0  0  0  0  0  0  0  0  0  0
    3.5320    2.1550    0.4770 O   0  0  0  0  0  0  0  0  0  0  0  0
    2.2440    4.0550   -0.9930 O   0  0  0  0  0  0  0  0  0  0  0  0
    1.2780   -0.7310   -0.1090 C   0  0  1  0  0  0  0  0  0  0  0  0
    2.3550   -1.1300    0.6870 O   0  0  0  0  0  0  0  0  0  0  0  0
    3.6240   -1.7720   -0.1900 P   0  0  2  0  0  0  0  0  0  0  0  0
    3.1480   -2.5900   -1.3720 O   0  0  0  0  0  0  0  0  0  0  0  0
    4.6030   -2.7120    0.8130 O   0  0  0  0  0  0  0  0  0  0  0  0
    4.6220   -0.5360   -0.8230 O   0  0  0  0  0  0  0  0  0  0  0  0
    0.0390   -1.4800    0.2390 C   0  0  1  0  0  0  0  0  0  0  0  0
    0.1050   -1.7280    1.6320 O   0  0  0  0  0  0  0  0  0  0  0  0
    0.2480   -3.3340    2.0030 P   0  0  2  0  0  0  0  0  0  0  0  0
    1.6760   -3.5930    2.4810 O   0  0  0  0  0  0  0  0  0  0  0  0
    0.0090   -4.2960    0.6390 O   0  0  0  0  0  0  0  0  0  0  0  0
   -0.7710   -3.7860    3.2720 O   0  0  0  0  0  0  0  0  0  0  0  0
  1  2  2  0
  2  3  1  1
  2  4  1  0
  2  5  1  0
  6  5  1  6
  6  7  1  0
  6 31  1  0
  7  8  1  1
  7 13  1  0
  8  9  1  0
  9 10  2  0
  9 11  1  6
  9 12  1  0
 13 14  1  6
 13 19  1  0
 14 15  1  0
 15 16  2  0
 15 17  1  1
 15 18  1  0
 19 20  1  6
 19 25  1  0
 20 21  1  0
 21 22  2  0
 21 23  1  1
 21 24  1  0
 25 26  1  1
 25 31  1  0
 26 27  1  0
 27 28  2  0
 27 29  1  1
 27 30  1  0
 31 32  1  1
 32 33  1  0
 33 34  2  0
 33 35  1  6
 33 36  1  0
M  END
