
     RDKit          3D

 38 40  0  0  0  0  0  0  0  0999 V2000
   -4.4520    3.0110    2.5960 C   0  0  0  0  0  0  0  0  0  0  0  0
   -3.6370    1.9290    2.2490 O   0  0  0  0  0  0  0  0  0  0  0  0
   -4.1150    0.6720    1.8880 C   0  0  0  0  0  0  0  0  0  0  0  0
   -5.3660    0.5450    1.8860 O   0  0  0  0  0  0  0  0  0  0  0  0
   -3.1980   -0.4420    1.5300 C   0  0  2  0  0  0  0  0  0  0  0  0
   -1.9050    0.0480    1.6480 O   0  0  0  0  0  0  0  0  0  0  0  0
   -0.9040   -0.8640    1.3680 C   0  0  0  0  0  0  0  0  0  0  0  0
   -1.1810   -1.6640    0.1200 C   0  0  2  0  0  0  0  0  0  0  0  0
   -0.0420   -2.0100   -0.6600 N   0  0  0  0  0  0  0  0  0  0  0  0
    1.3290   -2.0820   -0.2570 C   0  0  0  0  0  0  0  0  0  0  0  0
    1.8800   -3.2670   -0.3530 O   0  0  0  0  0  0  0  0  0  0  0  0
    2.0900   -1.0600    0.2060 O   0  0  0  0  0  0  0  0  0  0  0  0
    2.7290    0.0310   -0.3490 C   0  0  2  0  0  0  0  0  0  0  0  0
    3.0060   -0.0200   -1.8200 C   0  0  0  0  0  0  0  0  0  0  0  0
    4.1510   -0.0050    0.2880 C   0  0  0  0  0  0  0  0  0  0  0  0
    4.6940   -1.2190   -0.1310 O   0  0  0  0  0  0  0  0  0  0  0  0
    6.2870   -1.4630    0.4690 P   0  0  0  0  0  0  0  0  0  0  0  0
    6.3180   -1.6050    2.1970 O   0  0  0  0  0  0  0  0  0  0  0  0
    7.3800   -0.2350   -0.0840 O   0  0  0  0  0  0  0  0  0  0  0  0
    7.7070    0.9280    1.1610 P   0  0  0  0  0  0  0  0  0  0  0  0
    9.1110    0.5340    2.0650 O   0  0  0  0  0  0  0  0  0  0  0  0
    7.8210    2.4920    0.4320 O   0  0  0  0  0  0  0  0  0  0  0  0
    2.1830    1.3050    0.1030 N   0  0  0  0  0  0  0  0  0  0  0  0
    1.2970    2.1310   -0.6160 C   0  0  0  0  0  0  0  0  0  0  0  0
    1.6200    3.3670   -0.7770 O   0  0  0  0  0  0  0  0  0  0  0  0
    0.0080    1.7330   -1.2210 C   0  0  0  0  0  0  0  0  0  0  0  0
    0.1480    0.6300   -2.1350 O   0  0  0  0  0  0  0  0  0  0  0  0
   -1.0040   -0.0840   -2.5280 C   0  0  0  0  0  0  0  0  0  0  0  0
   -1.0010   -0.5570   -3.6840 O   0  0  0  0  0  0  0  0  0  0  0  0
   -2.0950   -0.2630   -1.6920 N   0  0  0  0  0  0  0  0  0  0  0  0
   -2.2270   -0.8950   -0.6000 C   0  0  0  0  0  0  0  0  0  0  0  0
   -3.5570   -0.9020    0.1390 C   0  0  2  0  0  0  0  0  0  0  0  0
   -4.4830   -0.1400   -0.5160 O   0  0  0  0  0  0  0  0  0  0  0  0
   -5.5350   -0.9720   -0.9230 C   0  0  2  0  0  0  0  0  0  0  0  0
   -5.7060   -0.9910   -2.4450 C   0  0  0  0  0  0  0  0  0  0  0  0
   -6.8710   -0.2150   -2.1880 O   0  0  0  0  0  0  0  0  0  0  0  0
   -6.8870   -0.4400   -0.8240 C   0  0  0  0  0  0  0  0  0  0  0  0
   -7.7280   -0.2500    0.0730 O   0  0  0  0  0  0  0  0  0  0  0  0
  1  2  1  0
  2  3  1  0
  3  4  2  0
  5  3  1  6
  5  6  1  0
  5 32  1  0
  6  7  1  0
  8  7  1  1
  8  9  1  0
  8 31  1  0
  9 10  1  0
 10 11  2  0
 10 12  1  0
 12 13  1  0
 13 14  1  6
 13 15  1  0
 13 23  1  0
 15 16  1  0
 16 17  1  0
 17 18  1  0
 17 19  1  0
 19 20  1  0
 20 21  1  0
 20 22  1  0
 23 24  1  0
 24 25  2  0
 24 26  1  0
 26 27  1  0
 27 28  1  0
 28 29  2  0
 28 30  1  0
 30 31  2  0
 31 32  1  0
 32 33  1  6
 34 33  1  6
 34 35  1  0
 34 37  1  0
 35 36  1  0
 36 37  1  0
 37 38  2  0
M  END
