
     RDKit          3D

 38 40  0  0  0  0  0  0  0  0999 V2000
   -4.7470    1.6290   -0.0370 C   0  0  0  0  0  0  0  0  0  0  0  0
   -3.5420    0.9000   -0.1760 O   0  0  0  0  0  0  0  0  0  0  0  0
   -3.1290   -0.0570    0.7320 C   0  0  0  0  0  0  0  0  0  0  0  0
   -3.8970   -0.2510    1.7110 O   0  0  0  0  0  0  0  0  0  0  0  0
   -1.8540   -0.8090    0.5560 C   0  0  2  0  0  0  0  0  0  0  0  0
   -1.7950   -1.7350    1.5750 O   0  0  0  0  0  0  0  0  0  0  0  0
   -2.7260   -2.7160    1.4300 C   0  0  0  0  0  0  0  0  0  0  0  0
   -3.3300   -2.9510    0.0980 C   0  0  0  0  0  0  0  0  0  0  0  0
   -2.2710   -3.8970   -1.0890 P   0  0  0  0  0  0  0  0  0  0  0  0
   -2.6240   -5.5780   -1.1070 O   0  0  0  0  0  0  0  0  0  0  0  0
   -2.2420   -3.2060   -2.6700 O   0  0  0  0  0  0  0  0  0  0  0  0
   -1.0760   -2.4240   -2.8850 C   0  0  0  0  0  0  0  0  0  0  0  0
   -0.0380   -2.7730   -2.0720 O   0  0  0  0  0  0  0  0  0  0  0  0
    0.4470   -2.4600   -0.8670 C   0  0  0  0  0  0  0  0  0  0  0  0
    0.3340   -3.2970    0.1130 O   0  0  0  0  0  0  0  0  0  0  0  0
    1.1150   -1.2350   -0.5320 C   0  0  1  0  0  0  0  0  0  0  0  0
    2.0820   -0.8440   -1.4800 O   0  0  0  0  0  0  0  0  0  0  0  0
    2.4990    0.4110   -1.1300 C   0  0  2  0  0  0  0  0  0  0  0  0
    3.9270    0.4300   -0.7020 C   0  0  0  0  0  0  0  0  0  0  0  0
    4.4880   -0.6880   -0.7370 O   0  0  0  0  0  0  0  0  0  0  0  0
    4.5660    1.6220   -0.2970 N   0  0  0  0  0  0  0  0  0  0  0  0
    5.9110    1.6730    0.1320 C   0  0  0  0  0  0  0  0  0  0  0  0
    6.1490    1.1260    1.3470 O   0  0  0  0  0  0  0  0  0  0  0  0
    5.8460   -0.4870    1.6460 P   0  0  0  0  0  0  0  0  0  0  0  0
    7.2210   -1.4680    1.1970 O   0  0  0  0  0  0  0  0  0  0  0  0
    5.6010   -0.7350    3.3590 O   0  0  0  0  0  0  0  0  0  0  0  0
    1.5830    0.9260   -0.0420 C   0  0  0  0  0  0  0  0  0  0  0  0
    0.3560    0.0360   -0.3980 C   0  0  1  0  0  0  0  0  0  0  0  0
   -0.0650    0.5760   -1.6390 O   0  0  0  0  0  0  0  0  0  0  0  0
   -0.7220    1.7960   -1.6290 C   0  0  0  0  0  0  0  0  0  0  0  0
   -1.0010    2.5820   -0.5560 N   0  0  0  0  0  0  0  0  0  0  0  0
   -1.6450    3.6790   -0.9350 C   0  0  0  0  0  0  0  0  0  0  0  0
   -2.1020    4.7540   -0.0270 C   0  0  0  0  0  0  0  0  0  0  0  0
   -3.3900    4.5390    0.4590 O   0  0  0  0  0  0  0  0  0  0  0  0
   -1.7690    3.5730   -2.2690 N   0  0  0  0  0  0  0  0  0  0  0  0
   -1.2220    2.4610   -2.6590 O   0  0  0  0  0  0  0  0  0  0  0  0
   -0.6810    0.1220    0.5980 C   0  0  0  0  0  0  0  0  0  0  0  0
   -0.6950    0.9240    1.5230 O   0  0  0  0  0  0  0  0  0  0  0  0
  1  2  1  0
  2  3  1  0
  3  4  2  0
  5  3  1  1
  5  6  1  0
  5 37  1  0
  6  7  1  0
  7  8  1  0
  8  9  1  0
  9 10  1  0
  9 11  1  0
 11 12  1  0
 12 13  1  0
 13 14  1  0
 14 15  2  0
 14 16  1  0
 16 17  1  6
 16 28  1  0
 17 18  1  0
 18 19  1  1
 18 27  1  0
 19 20  2  0
 19 21  1  0
 21 22  1  0
 22 23  1  0
 23 24  1  0
 24 25  1  0
 24 26  1  0
 27 28  1  0
 28 29  1  6
 28 37  1  0
 29 30  1  0
 30 31  2  0
 30 36  1  0
 31 32  1  0
 32 33  1  0
 32 35  2  0
 33 34  1  0
 35 36  1  0
 37 38  2  0
M  END
