
     RDKit          3D

 42 43  0  0  0  0  0  0  0  0999 V2000
   -1.7270   -4.1540   -0.5860 C   0  0  0  0  0  0  0  0  0  0  0  0
   -2.9670   -3.3090   -0.5190 C   0  0  0  0  0  0  0  0  0  0  0  0
   -2.6640   -2.0090   -0.0830 O   0  0  0  0  0  0  0  0  0  0  0  0
   -4.0570   -1.0410    0.0250 P   0  0  0  0  0  0  0  0  0  0  0  0
   -3.7110    0.7680    0.0480 C   0  0  0  0  0  0  0  0  0  0  0  0
   -3.0470    1.1810   -1.1590 N   0  0  0  0  0  0  0  0  0  0  0  0
   -4.0300    1.5060   -2.2560 C   0  0  0  0  0  0  0  0  0  0  0  0
   -1.6870    1.3110   -1.4310 C   0  0  0  0  0  0  0  0  0  0  0  0
   -1.3330    1.5980   -2.6030 O   0  0  0  0  0  0  0  0  0  0  0  0
   -0.5870    1.1420   -0.4270 C   0  0  2  0  0  0  0  0  0  0  0  0
   -0.7460    2.2690    0.5220 C   0  0  0  0  0  0  0  0  0  0  0  0
    0.2300    3.3330    0.7230 C   0  0  2  0  0  0  0  0  0  0  0  0
   -0.5170    4.6930    0.7270 C   0  0  0  0  0  0  0  0  0  0  0  0
   -1.4800    4.7640    1.7700 N   0  0  0  0  0  0  0  0  0  0  0  0
   -2.1150    6.0880    1.6690 C   0  0  0  0  0  0  0  0  0  0  0  0
    1.3590    3.3740   -0.2230 C   0  0  0  0  0  0  0  0  0  0  0  0
    1.2510    2.4590   -1.3870 C   0  0  0  0  0  0  0  0  0  0  0  0
    0.7590    1.0960   -1.0870 C   0  0  1  0  0  0  0  0  0  0  0  0
    1.6120   -0.0830   -0.9020 C   0  0  1  0  0  0  0  0  0  0  0  0
    0.7380   -1.2670   -1.4970 C   0  0  0  0  0  0  0  0  0  0  0  0
    2.7770   -0.0620   -1.8330 C   0  0  0  0  0  0  0  0  0  0  0  0
    3.7950    0.9490   -1.7640 C   0  0  0  0  0  0  0  0  0  0  0  0
    4.0930    1.7620   -0.8760 O   0  0  0  0  0  0  0  0  0  0  0  0
    4.6300    1.0530   -2.9210 O   0  0  0  0  0  0  0  0  0  0  0  0
    1.8950   -0.5790    0.4500 C   0  0  0  0  0  0  0  0  0  0  0  0
    1.9260    0.1010    1.5740 C   0  0  0  0  0  0  0  0  0  0  0  0
    2.1990   -0.4260    2.8200 O   0  0  0  0  0  0  0  0  0  0  0  0
    2.0680   -2.0030    0.6570 N   0  0  0  0  0  0  0  0  0  0  0  0
    0.9160   -2.6680    1.2980 C   0  0  0  0  0  0  0  0  0  0  0  0
    0.8720   -4.1040    1.6000 C   0  0  0  0  0  0  0  0  0  0  0  0
   -0.0630   -1.9030    1.5820 O   0  0  0  0  0  0  0  0  0  0  0  0
    3.1620   -2.8170    0.4870 C   0  0  0  0  0  0  0  0  0  0  0  0
    2.9840   -4.0910    0.5760 O   0  0  0  0  0  0  0  0  0  0  0  0
    4.5360   -2.4820    0.2220 C   0  0  0  0  0  0  0  0  0  0  0  0
    5.4500   -3.4890   -0.1310 C   0  0  0  0  0  0  0  0  0  0  0  0
    6.7810   -3.2250   -0.3320 C   0  0  0  0  0  0  0  0  0  0  0  0
    7.3040   -1.9570   -0.2020 C   0  0  0  0  0  0  0  0  0  0  0  0
    6.4350   -0.9560    0.1410 C   0  0  0  0  0  0  0  0  0  0  0  0
    5.1050   -1.2330    0.3410 C   0  0  0  0  0  0  0  0  0  0  0  0
   -5.2180   -1.5510    1.1770 O   0  0  0  0  0  0  0  0  0  0  0  0
   -6.5200   -1.1930    0.8180 C   0  0  0  0  0  0  0  0  0  0  0  0
   -7.5110   -1.6570    1.8430 C   0  0  0  0  0  0  0  0  0  0  0  0
  1  2  1  0
  2  3  1  0
  3  4  1  0
  4  5  1  0
  4 40  1  0
  5  6  1  0
  6  7  1  0
  6  8  1  0
  8  9  2  0
 10  8  1  6
 10 11  1  0
 10 18  1  0
 11 12  1  0
 12 13  1  6
 12 16  1  0
 13 14  1  0
 14 15  1  0
 16 17  1  0
 18 17  1  1
 18 19  1  0
 19 20  1  6
 19 21  1  0
 19 25  1  0
 21 22  1  0
 22 23  2  0
 22 24  1  0
 25 26  2  3
 25 28  1  0
 26 27  1  0
 28 29  1  0
 28 32  1  0
 29 30  1  0
 29 31  2  0
 32 33  2  0
 32 34  1  0
 34 35  2  0
 34 39  1  0
 35 36  1  0
 36 37  2  0
 37 38  1  0
 38 39  2  0
 40 41  1  0
 41 42  1  0
M  END
