
     RDKit          3D

 42 43  0  0  0  0  0  0  0  0999 V2000
   -1.4730   -0.7770   -5.3730 C   0  0  0  0  0  0  0  0  0  0  0  0
   -1.3970   -1.4690   -4.2210 C   0  0  0  0  0  0  0  0  0  0  0  0
   -2.0090   -0.9200   -3.0340 C   0  0  0  0  0  0  0  0  0  0  0  0
   -1.9850   -1.5150   -1.8680 C   0  0  0  0  0  0  0  0  0  0  0  0
   -1.3330   -2.8140   -1.6260 C   0  0  0  0  0  0  0  0  0  0  0  0
   -0.4590   -3.4280   -2.3750 N   0  0  0  0  0  0  0  0  0  0  0  0
    0.0330   -4.6790   -1.9350 C   0  0  0  0  0  0  0  0  0  0  0  0
   -0.0770   -5.6750   -2.6700 O   0  0  0  0  0  0  0  0  0  0  0  0
    0.6390   -4.8110   -0.6910 O   0  0  0  0  0  0  0  0  0  0  0  0
   -1.8640   -3.2870   -0.3360 C   0  0  0  0  0  0  0  0  0  0  0  0
   -3.0450   -2.3780   -0.0830 C   0  0  1  0  0  0  0  0  0  0  0  0
   -3.4820   -2.4090    1.2940 C   0  0  0  0  0  0  0  0  0  0  0  0
   -4.6170   -2.8690    1.5800 O   0  0  0  0  0  0  0  0  0  0  0  0
   -2.6800   -1.9470    2.3560 N   0  0  0  0  0  0  0  0  0  0  0  0
   -3.1750   -1.9970    3.7420 C   0  0  0  0  0  0  0  0  0  0  0  0
   -2.5600   -1.1100   -0.6160 N   0  0  0  0  0  0  0  0  0  0  0  0
   -2.6610    0.1970   -0.1010 C   0  0  2  0  0  0  0  0  0  0  0  0
   -4.1530    0.6030    0.0200 C   0  0  0  0  0  0  0  0  0  0  0  0
   -1.9690    1.3450   -0.6900 C   0  0  0  0  0  0  0  0  0  0  0  0
   -0.5020    1.4510   -0.8030 C   0  0  1  0  0  0  0  0  0  0  0  0
    0.2310    0.5780   -1.4770 O   0  0  0  0  0  0  0  0  0  0  0  0
    1.3870    0.0480   -1.1050 C   0  0  0  0  0  0  0  0  0  0  0  0
    1.4490   -0.8670    0.0620 C   0  0  0  0  0  0  0  0  0  0  0  0
    1.0250   -0.3620    1.3900 C   0  0  0  0  0  0  0  0  0  0  0  0
    1.2120   -1.4570    2.4620 C   0  0  0  0  0  0  0  0  0  0  0  0
    3.0130   -1.9200    2.5050 P   0  0  0  0  0  0  0  0  0  0  0  0
    3.3360   -3.1610    1.3050 O   0  0  0  0  0  0  0  0  0  0  0  0
    4.7100   -3.2520    1.1350 C   0  0  0  0  0  0  0  0  0  0  0  0
    5.0920   -4.2990    0.1240 C   0  0  0  0  0  0  0  0  0  0  0  0
    3.4020   -2.6190    4.0400 O   0  0  0  0  0  0  0  0  0  0  0  0
    4.1180   -1.7270    4.8360 C   0  0  0  0  0  0  0  0  0  0  0  0
    4.4600   -2.3160    6.1680 C   0  0  0  0  0  0  0  0  0  0  0  0
   -0.2410    2.8750   -1.4320 C   0  0  0  0  0  0  0  0  0  0  0  0
    0.5180    2.9530   -2.3930 O   0  0  0  0  0  0  0  0  0  0  0  0
   -0.8600    3.9690   -0.8960 O   0  0  0  0  0  0  0  0  0  0  0  0
   -0.7150    5.2580   -1.3640 C   0  0  0  0  0  0  0  0  0  0  0  0
   -1.7190    5.7770   -2.1510 C   0  0  0  0  0  0  0  0  0  0  0  0
   -1.5920    7.0640   -2.6290 C   0  0  0  0  0  0  0  0  0  0  0  0
   -0.4800    7.8410   -2.3370 C   0  0  0  0  0  0  0  0  0  0  0  0
   -0.3730    9.2240   -2.8680 C   0  0  0  0  0  0  0  0  0  0  0  0
    0.5130    7.3070   -1.5510 C   0  0  0  0  0  0  0  0  0  0  0  0
    0.3860    6.0290   -1.0760 C   0  0  0  0  0  0  0  0  0  0  0  0
  1  2  2  0
  2  3  1  0
  3  4  2  3
  4  5  1  0
  4 16  1  0
  5  6  2  3
  5 10  1  0
  6  7  1  0
  7  8  2  0
  7  9  1  0
 10 11  1  0
 11 12  1  1
 11 16  1  0
 12 13  2  0
 12 14  1  0
 14 15  1  0
 16 17  1  0
 17 18  1  6
 17 19  1  0
 20 19  1  6
 20 21  1  0
 20 33  1  0
 21 22  1  0
 22 23  1  0
 23 24  1  0
 24 25  1  0
 25 26  1  0
 26 27  1  0
 26 30  1  0
 27 28  1  0
 28 29  1  0
 30 31  1  0
 31 32  1  0
 33 34  2  0
 33 35  1  0
 35 36  1  0
 36 37  2  0
 36 42  1  0
 37 38  1  0
 38 39  2  0
 39 40  1  0
 39 41  1  0
 41 42  2  0
M  END
