
     RDKit          3D

 41 42  0  0  0  0  0  0  0  0999 V2000
    9.1020   -3.1390   -0.4340 C   0  0  0  0  0  0  0  0  0  0  0  0
    7.7080   -2.6930   -0.5430 C   0  0  0  0  0  0  0  0  0  0  0  0
    6.6630   -3.5040   -0.5740 C   0  0  0  0  0  0  0  0  0  0  0  0
    6.8560   -4.9190   -0.5010 C   0  0  0  0  0  0  0  0  0  0  0  0
    8.0570   -5.3730   -0.4040 O   0  0  0  0  0  0  0  0  0  0  0  0
    5.8770   -5.8910   -0.5210 O   0  0  0  0  0  0  0  0  0  0  0  0
    5.3630   -2.8810   -0.6830 C   0  0  0  0  0  0  0  0  0  0  0  0
    5.2930   -1.6100   -0.7420 O   0  0  0  0  0  0  0  0  0  0  0  0
    4.1730   -3.5900   -0.7290 N   0  0  0  0  0  0  0  0  0  0  0  0
    2.8810   -2.9220   -0.8280 C   0  0  0  0  0  0  0  0  0  0  0  0
    2.6560   -2.0630    0.3900 C   0  0  0  0  0  0  0  0  0  0  0  0
    1.3500   -1.4060    0.2640 N   0  0  0  0  0  0  0  0  0  0  0  0
    0.0630   -1.8710    0.7120 C   0  0  0  0  0  0  0  0  0  0  0  0
   -0.6670   -0.5920    1.1000 C   0  0  2  0  0  0  0  0  0  0  0  0
   -0.4760   -0.4780    2.6070 C   0  0  0  0  0  0  0  0  0  0  0  0
   -2.1000   -0.8540    0.7440 C   0  0  0  0  0  0  0  0  0  0  0  0
   -3.0640    0.2040    1.0260 C   0  0  0  0  0  0  0  0  0  0  0  0
   -2.6720    1.2480    1.5970 O   0  0  0  0  0  0  0  0  0  0  0  0
   -4.4480    0.0860    0.6700 N   0  0  0  0  0  0  0  0  0  0  0  0
   -5.3540    1.1720    0.9900 C   0  0  0  0  0  0  0  0  0  0  0  0
   -5.0130   -1.0620   -0.0030 C   0  0  0  0  0  0  0  0  0  0  0  0
   -4.9710   -0.8830   -1.4940 C   0  0  0  0  0  0  0  0  0  0  0  0
   -5.6700   -2.2900   -2.4270 P   0  0  0  0  0  0  0  0  0  0  0  0
   -4.9850   -3.8120   -2.0600 O   0  0  0  0  0  0  0  0  0  0  0  0
   -7.3710   -2.2820   -2.5940 O   0  0  0  0  0  0  0  0  0  0  0  0
   -8.0440   -1.9780   -1.4340 C   0  0  0  0  0  0  0  0  0  0  0  0
   -9.5580   -1.9830   -1.6400 C   0  0  0  0  0  0  0  0  0  0  0  0
    0.0210    0.4990    0.3890 C   0  0  1  0  0  0  0  0  0  0  0  0
   -0.8080    1.2070   -0.6240 C   0  0  0  0  0  0  0  0  0  0  0  0
    0.6360    1.5320    1.3170 C   0  0  0  0  0  0  0  0  0  0  0  0
    1.3460    2.6130    0.5120 C   0  0  0  0  0  0  0  0  0  0  0  0
    1.9180    3.5950    1.5190 C   0  0  0  0  0  0  0  0  0  0  0  0
    2.6010    4.6450    0.9880 O   0  0  0  0  0  0  0  0  0  0  0  0
    2.2090    5.6590    0.2050 C   0  0  0  0  0  0  0  0  0  0  0  0
    3.2010    6.5720   -0.1960 C   0  0  0  0  0  0  0  0  0  0  0  0
    2.9350    7.6570   -0.9970 C   0  0  0  0  0  0  0  0  0  0  0  0
    1.6290    7.8460   -1.4190 C   0  0  0  0  0  0  0  0  0  0  0  0
    0.6420    6.9810   -1.0500 C   0  0  0  0  0  0  0  0  0  0  0  0
    0.9440    5.8900   -0.2360 C   0  0  0  0  0  0  0  0  0  0  0  0
    1.1560   -0.1500   -0.3550 C   0  0  0  0  0  0  0  0  0  0  0  0
    1.7780    0.3410   -1.3160 O   0  0  0  0  0  0  0  0  0  0  0  0
  1  2  1  0
  2  3  2  3
  3  4  1  0
  3  7  1  0
  4  5  2  0
  4  6  1  0
  7  8  2  0
  7  9  1  0
  9 10  1  0
 10 11  1  0
 11 12  1  0
 12 13  1  0
 12 40  1  0
 13 14  1  0
 14 15  1  1
 14 16  1  0
 14 28  1  0
 16 17  1  0
 17 18  2  0
 17 19  1  0
 19 20  1  0
 19 21  1  0
 21 22  1  0
 22 23  1  0
 23 24  1  0
 23 25  1  0
 25 26  1  0
 26 27  1  0
 28 29  1  6
 28 30  1  0
 28 40  1  0
 30 31  1  0
 31 32  1  0
 32 33  1  0
 33 34  1  0
 34 35  2  0
 34 39  1  0
 35 36  1  0
 36 37  2  0
 37 38  1  0
 38 39  2  0
 40 41  2  0
M  END
