
     RDKit          3D

 42 42  0  0  0  0  0  0  0  0999 V2000
   -4.0220    4.9370    0.7550 C   0  0  0  0  0  0  0  0  0  0  0  0
   -4.7840    4.7350   -0.5460 C   0  0  0  0  0  0  0  0  0  0  0  0
   -4.3940    3.4900   -1.1520 O   0  0  0  0  0  0  0  0  0  0  0  0
   -3.0990    3.2390   -1.5220 C   0  0  0  0  0  0  0  0  0  0  0  0
   -2.2230    4.1440   -1.3310 O   0  0  0  0  0  0  0  0  0  0  0  0
   -2.7030    1.9750   -2.1260 C   0  0  2  0  0  0  0  0  0  0  0  0
   -3.0760    0.7360   -1.4400 C   0  0  0  0  0  0  0  0  0  0  0  0
   -4.4220    0.2960   -1.1470 C   0  0  0  0  0  0  0  0  0  0  0  0
   -4.7070    0.4510    0.3020 C   0  0  0  0  0  0  0  0  0  0  0  0
   -4.5850   -0.3830    1.2830 C   0  0  0  0  0  0  0  0  0  0  0  0
   -4.1540   -1.7600    1.5090 C   0  0  0  0  0  0  0  0  0  0  0  0
   -5.1080   -2.7440    1.4070 C   0  0  0  0  0  0  0  0  0  0  0  0
   -5.0350   -4.1390    1.5560 C   0  0  0  0  0  0  0  0  0  0  0  0
   -6.1870   -4.8330    1.3840 C   0  0  0  0  0  0  0  0  0  0  0  0
   -7.3700   -4.1580    1.0730 O   0  0  0  0  0  0  0  0  0  0  0  0
   -2.8220   -2.2540    1.8170 C   0  0  0  0  0  0  0  0  0  0  0  0
   -2.8620   -3.5430    2.2050 O   0  0  0  0  0  0  0  0  0  0  0  0
   -1.5250   -1.7230    1.8060 N   0  0  0  0  0  0  0  0  0  0  0  0
   -0.7970   -0.5930    2.1320 C   0  0  0  0  0  0  0  0  0  0  0  0
    0.0450   -0.6600    3.1620 O   0  0  0  0  0  0  0  0  0  0  0  0
   -0.7190    0.7610    1.5780 C   0  0  0  0  0  0  0  0  0  0  0  0
   -0.1210    0.8390    0.1360 C   0  0  2  0  0  0  0  0  0  0  0  0
   -0.1610   -0.5150   -0.4780 C   0  0  0  0  0  0  0  0  0  0  0  0
    0.3190   -0.6900   -1.7830 N   0  0  0  0  0  0  0  0  0  0  0  0
   -0.0730   -2.0500   -2.2090 C   0  0  1  0  0  0  0  0  0  0  0  0
   -0.6110   -2.0090   -3.6230 C   0  0  0  0  0  0  0  0  0  0  0  0
    1.1140   -2.9420   -2.0520 C   0  0  0  0  0  0  0  0  0  0  0  0
    1.3870    1.1000    0.3990 C   0  0  0  0  0  0  0  0  0  0  0  0
    2.1830    1.2670   -0.7860 C   0  0  0  0  0  0  0  0  0  0  0  0
    1.7910    2.0090   -1.7270 O   0  0  0  0  0  0  0  0  0  0  0  0
    3.4270    0.6330   -0.9900 N   0  0  0  0  0  0  0  0  0  0  0  0
    4.2000    0.9060   -2.2310 C   0  0  0  0  0  0  0  0  0  0  0  0
    4.0420   -0.3360   -0.1140 C   0  0  0  0  0  0  0  0  0  0  0  0
    5.1350    0.4490    1.1490 P   0  0  0  0  0  0  0  0  0  0  0  0
    4.9530   -0.3090    2.6950 O   0  0  0  0  0  0  0  0  0  0  0  0
    5.7740    0.3200    3.6010 C   0  0  0  0  0  0  0  0  0  0  0  0
    5.6700   -0.3040    4.9850 C   0  0  0  0  0  0  0  0  0  0  0  0
    6.7850    0.5130    0.6470 O   0  0  0  0  0  0  0  0  0  0  0  0
    7.1240   -0.4990   -0.2280 C   0  0  0  0  0  0  0  0  0  0  0  0
    8.5890   -0.4360   -0.6720 C   0  0  0  0  0  0  0  0  0  0  0  0
   -0.7130    1.9540   -0.6120 C   0  0  0  0  0  0  0  0  0  0  0  0
   -1.1110    1.8740   -2.0210 C   0  0  0  0  0  0  0  0  0  0  0  0
  1  2  1  0
  2  3  1  0
  3  4  1  0
  4  5  2  0
  6  4  1  1
  6  7  1  0
  6 42  1  0
  7  8  1  0
  8  9  1  0
  9 10  2  0
 10 11  1  0
 11 12  2  3
 11 16  1  0
 12 13  1  0
 13 14  2  3
 14 15  1  0
 16 17  2  0
 16 18  1  0
 18 19  1  0
 19 20  2  0
 19 21  1  0
 21 22  1  0
 22 23  1  6
 22 28  1  0
 22 41  1  0
 23 24  1  0
 24 25  1  0
 25 26  1  6
 25 27  1  0
 28 29  1  0
 29 30  2  0
 29 31  1  0
 31 32  1  0
 31 33  1  0
 33 34  1  0
 34 35  1  0
 34 38  1  0
 35 36  1  0
 36 37  1  0
 38 39  1  0
 39 40  1  0
 41 42  1  0
M  END
