
     RDKit          3D

 39 40  0  0  0  0  0  0  0  0999 V2000
    7.5160    2.4100    0.1150 C   0  0  0  0  0  0  0  0  0  0  0  0
    6.4120    2.1340    0.5440 N   0  0  0  0  0  0  0  0  0  0  0  0
    5.6140    1.0070    0.5970 C   0  0  0  0  0  0  0  0  0  0  0  0
    5.9910   -0.1110    0.0360 C   0  0  0  0  0  0  0  0  0  0  0  0
    6.5960   -1.1690   -0.2410 O   0  0  0  0  0  0  0  0  0  0  0  0
    4.3820    1.0890    1.2710 O   0  0  0  0  0  0  0  0  0  0  0  0
    3.2210    0.7570    0.6030 N   0  0  0  0  0  0  0  0  0  0  0  0
    2.7030   -0.5230    0.4920 N   0  0  0  0  0  0  0  0  0  0  0  0
    2.6540   -1.2830   -0.4880 N   0  0  0  0  0  0  0  0  0  0  0  0
    2.1240   -2.5720   -0.5690 C   0  0  0  0  0  0  0  0  0  0  0  0
    3.0340   -3.6100   -0.8730 O   0  0  0  0  0  0  0  0  0  0  0  0
    3.0750   -4.8350   -0.2120 C   0  0  0  0  0  0  0  0  0  0  0  0
    0.8620   -2.9310   -0.3960 C   0  0  0  0  0  0  0  0  0  0  0  0
   -0.0730   -1.9810   -0.1040 O   0  0  0  0  0  0  0  0  0  0  0  0
   -1.1570   -1.5010   -0.7440 O   0  0  0  0  0  0  0  0  0  0  0  0
   -2.4970   -1.9070   -0.5950 C   0  0  0  0  0  0  0  0  0  0  0  0
   -2.8970   -3.0120   -1.2000 O   0  0  0  0  0  0  0  0  0  0  0  0
   -3.4550   -1.2000    0.1710 N   0  0  0  0  0  0  0  0  0  0  0  0
   -4.0190   -1.6630    1.4080 N   0  0  0  0  0  0  0  0  0  0  0  0
   -4.0530   -3.4460    1.5080 P   0  0  0  0  0  0  0  0  0  0  0  0
   -5.3610   -1.2930    1.2110 O   0  0  0  0  0  0  0  0  0  0  0  0
   -5.3670   -0.0470    0.6110 C   0  0  0  0  0  0  0  0  0  0  0  0
   -6.2960    0.8040    0.6750 O   0  0  0  0  0  0  0  0  0  0  0  0
   -4.0820    0.0290   -0.0930 N   0  0  0  0  0  0  0  0  0  0  0  0
   -3.6700    1.1260   -0.8660 C   0  0  0  0  0  0  0  0  0  0  0  0
   -2.7780    2.0850   -0.6910 C   0  0  0  0  0  0  0  0  0  0  0  0
   -2.6550    3.0450   -1.7530 O   0  0  0  0  0  0  0  0  0  0  0  0
   -4.0680    3.5960   -2.6230 P   0  0  0  0  0  0  0  0  0  0  0  0
   -5.3150    4.2560   -1.7670 C   0  0  0  0  0  0  0  0  0  0  0  0
   -6.1550    4.8540   -1.0700 O   0  0  0  0  0  0  0  0  0  0  0  0
   -1.8820    2.3560    0.4100 C   0  0  0  0  0  0  0  0  0  0  0  0
   -2.0020    3.8250    1.2730 P   0  0  0  0  0  0  0  0  0  0  0  0
   -3.1270    5.0550    0.9430 O   0  0  0  0  0  0  0  0  0  0  0  0
   -0.8100    1.4950    0.9170 C   0  0  0  0  0  0  0  0  0  0  0  0
   -0.9110    1.1850    2.1780 O   0  0  0  0  0  0  0  0  0  0  0  0
    0.2600    0.9910    0.2320 O   0  0  0  0  0  0  0  0  0  0  0  0
    1.2010    1.6460   -0.4850 O   0  0  0  0  0  0  0  0  0  0  0  0
    2.5050    1.8310    0.0010 C   0  0  0  0  0  0  0  0  0  0  0  0
    3.0860    2.9500   -0.0750 O   0  0  0  0  0  0  0  0  0  0  0  0
  1  2  2  0
  2  3  1  0
  3  4  2  0
  3  6  1  0
  4  5  2  0
  6  7  1  0
  7  8  1  0
  7 38  1  0
  8  9  2  0
  9 10  1  0
 10 11  1  0
 10 13  2  0
 11 12  1  0
 13 14  1  0
 14 15  1  0
 15 16  1  0
 16 17  2  0
 16 18  1  0
 18 19  1  0
 18 24  1  0
 19 20  1  0
 19 21  1  0
 21 22  1  0
 22 23  2  0
 22 24  1  0
 24 25  1  0
 25 26  2  0
 26 27  1  0
 26 31  1  0
 27 28  1  0
 28 29  2  0
 29 30  2  0
 31 32  2  3
 31 34  1  0
 32 33  1  0
 34 35  2  0
 34 36  1  0
 36 37  1  0
 37 38  1  0
 38 39  2  0
M  END
