
     RDKit          3D

 42 43  0  0  0  0  0  0  0  0999 V2000
    2.7950   -2.1950    0.7630 C   0  0  0  0  0  0  0  0  0  0  0  0
    2.4920   -1.5830   -0.5690 C   0  0  0  0  0  0  0  0  0  0  0  0
    3.0250   -0.2970   -0.6470 O   0  0  0  0  0  0  0  0  0  0  0  0
    2.6870    0.4330   -2.1800 P   0  0  0  0  0  0  0  0  0  0  0  0
    4.2560    1.1340   -2.8570 C   0  0  0  0  0  0  0  0  0  0  0  0
    5.3930    0.8050   -2.0180 N   0  0  0  0  0  0  0  0  0  0  0  0
    5.7490    1.7140   -0.9480 C   0  0  0  0  0  0  0  0  0  0  0  0
    6.1550   -0.3740   -2.2230 C   0  0  0  0  0  0  0  0  0  0  0  0
    5.8340   -1.1530   -3.1600 O   0  0  0  0  0  0  0  0  0  0  0  0
    7.3200   -0.6810   -1.3350 C   0  0  0  0  0  0  0  0  0  0  0  0
    7.9770   -1.9670   -1.7360 C   0  0  0  0  0  0  0  0  0  0  0  0
    9.1580   -2.3710   -0.9230 C   0  0  0  0  0  0  0  0  0  0  0  0
    8.9310   -2.5900    0.5280 C   0  0  0  0  0  0  0  0  0  0  0  0
    8.5170   -1.4870    1.2450 O   0  0  0  0  0  0  0  0  0  0  0  0
    9.4450   -0.4680    1.2580 C   0  0  0  0  0  0  0  0  0  0  0  0
    8.8730    0.6850    2.0630 C   0  0  0  0  0  0  0  0  0  0  0  0
    9.7680    1.7520    2.1120 O   0  0  0  0  0  0  0  0  0  0  0  0
    1.4040    1.6280   -2.0740 O   0  0  0  0  0  0  0  0  0  0  0  0
    0.6320    1.6080   -0.9020 C   0  0  0  0  0  0  0  0  0  0  0  0
    0.9870    2.3550    0.1960 C   0  0  0  0  0  0  0  0  0  0  0  0
    0.2320    2.3370    1.3460 C   0  0  0  0  0  0  0  0  0  0  0  0
   -0.9050    1.5580    1.4070 C   0  0  0  0  0  0  0  0  0  0  0  0
   -1.7280    1.5430    2.6760 C   0  0  0  0  0  0  0  0  0  0  0  0
   -1.3060    0.7890    0.3310 C   0  0  0  0  0  0  0  0  0  0  0  0
   -2.5300   -0.0450    0.4090 C   0  0  2  0  0  0  0  0  0  0  0  0
   -2.8510   -0.7610   -0.8530 C   0  0  2  0  0  0  0  0  0  0  0  0
   -3.0530    0.0800   -1.9450 O   0  0  0  0  0  0  0  0  0  0  0  0
   -4.1270   -1.5340   -0.6740 C   0  0  0  0  0  0  0  0  0  0  0  0
   -4.7030   -1.5690    0.6870 C   0  0  0  0  0  0  0  0  0  0  0  0
   -4.5160   -0.3540    1.5410 C   0  0  0  0  0  0  0  0  0  0  0  0
   -3.6750    0.6440    0.9680 N   0  0  0  0  0  0  0  0  0  0  0  0
   -4.3080    1.5380    0.0900 C   0  0  0  0  0  0  0  0  0  0  0  0
   -5.2860    2.4900    0.6610 C   0  0  0  0  0  0  0  0  0  0  0  0
   -6.4650    1.9840    1.2610 N   0  0  0  0  0  0  0  0  0  0  0  0
   -7.4580    1.2220    0.5310 C   0  0  0  0  0  0  0  0  0  0  0  0
   -7.2910    0.9880   -0.6750 O   0  0  0  0  0  0  0  0  0  0  0  0
   -8.6020    0.7420    1.1420 O   0  0  0  0  0  0  0  0  0  0  0  0
   -9.6120    0.0030    0.5190 C   0  0  1  0  0  0  0  0  0  0  0  0
  -10.2640    0.7530   -0.6230 C   0  0  0  0  0  0  0  0  0  0  0  0
   -9.1980   -1.3440    0.0190 C   0  0  0  0  0  0  0  0  0  0  0  0
  -10.7080   -0.2110    1.5630 C   0  0  0  0  0  0  0  0  0  0  0  0
   -0.5120    0.8430   -0.7980 C   0  0  0  0  0  0  0  0  0  0  0  0
  1  2  1  0
  2  3  1  0
  3  4  1  0
  4  5  1  0
  4 18  1  0
  5  6  1  0
  6  7  1  0
  6  8  1  0
  8  9  2  0
  8 10  1  0
 10 11  1  0
 11 12  1  0
 12 13  1  0
 13 14  1  0
 14 15  1  0
 15 16  1  0
 16 17  1  0
 18 19  1  0
 19 20  2  0
 19 42  1  0
 20 21  1  0
 21 22  2  0
 22 23  1  0
 22 24  1  0
 25 24  1  6
 24 42  2  0
 25 26  1  0
 25 31  1  0
 26 27  1  6
 26 28  1  0
 28 29  1  0
 29 30  1  0
 30 31  1  0
 31 32  1  0
 32 33  1  0
 33 34  1  0
 34 35  1  0
 35 36  2  0
 35 37  1  0
 37 38  1  0
 38 39  1  6
 38 40  1  0
 38 41  1  0
M  END
