
     RDKit          3D

 42 44  0  0  0  0  0  0  0  0999 V2000
   -7.5970   -3.1570   -1.7060 C   0  0  0  0  0  0  0  0  0  0  0  0
   -6.7770   -2.3490   -0.9400 O   0  0  0  0  0  0  0  0  0  0  0  0
   -5.4720   -2.3480   -1.3810 C   0  0  0  0  0  0  0  0  0  0  0  0
   -4.5460   -1.4980   -0.5970 C   0  0  0  0  0  0  0  0  0  0  0  0
   -4.9550   -0.0610   -0.6150 C   0  0  1  0  0  0  0  0  0  0  0  0
   -6.2440    0.1200   -0.0230 N   0  0  0  0  0  0  0  0  0  0  0  0
   -6.8730    1.4020   -0.0880 C   0  0  0  0  0  0  0  0  0  0  0  0
   -6.2680    2.4480   -0.7830 C   0  0  0  0  0  0  0  0  0  0  0  0
   -6.8550    3.6930   -0.8550 C   0  0  0  0  0  0  0  0  0  0  0  0
   -8.0650    3.9260   -0.2350 C   0  0  0  0  0  0  0  0  0  0  0  0
   -8.8720    5.5740   -0.3140 P   0  0  0  0  0  0  0  0  0  0  0  0
   -9.0950    6.3380    1.0380 O   0  0  0  0  0  0  0  0  0  0  0  0
   -8.6970    2.9150    0.4630 C   0  0  0  0  0  0  0  0  0  0  0  0
   -8.0780    1.6810    0.5140 C   0  0  0  0  0  0  0  0  0  0  0  0
   -3.9730    0.7770    0.1670 C   0  0  0  0  0  0  0  0  0  0  0  0
   -4.3970    1.4280    1.1310 O   0  0  0  0  0  0  0  0  0  0  0  0
   -2.6470    0.8290   -0.1660 O   0  0  0  0  0  0  0  0  0  0  0  0
   -1.6840    1.6030    0.5410 C   0  0  0  0  0  0  0  0  0  0  0  0
   -1.5710    1.1990    1.9700 C   0  0  0  0  0  0  0  0  0  0  0  0
   -1.1980   -0.0910    2.1530 O   0  0  0  0  0  0  0  0  0  0  0  0
   -0.0420   -0.7370    1.8720 C   0  0  0  0  0  0  0  0  0  0  0  0
    0.0580   -2.1260    2.1270 C   0  0  0  0  0  0  0  0  0  0  0  0
    1.2210   -2.7820    1.8500 C   0  0  0  0  0  0  0  0  0  0  0  0
    2.3350   -2.1610    1.3250 C   0  0  0  0  0  0  0  0  0  0  0  0
    2.2140   -0.8150    1.0870 C   0  0  0  0  0  0  0  0  0  0  0  0
    1.0460   -0.0910    1.3520 C   0  0  0  0  0  0  0  0  0  0  0  0
    3.5170   -0.3500    0.5200 C   0  0  1  0  0  0  0  0  0  0  0  0
    3.8550    0.9440    1.0650 N   0  0  0  0  0  0  0  0  0  0  0  0
    5.1450    1.3370    0.6190 C   0  0  0  0  0  0  0  0  0  0  0  0
    5.1380    1.6230   -0.8450 C   0  0  0  0  0  0  0  0  0  0  0  0
    6.5330    2.0460   -1.2770 C   0  0  0  0  0  0  0  0  0  0  0  0
    6.9970    3.1970   -0.6190 O   0  0  0  0  0  0  0  0  0  0  0  0
    6.4020    4.4270   -0.6780 C   0  0  0  0  0  0  0  0  0  0  0  0
    6.9590    5.6200    0.0610 C   0  0  0  0  0  0  0  0  0  0  0  0
    5.3630    4.5730   -1.3660 O   0  0  0  0  0  0  0  0  0  0  0  0
    4.4610   -1.4200    0.9790 C   0  0  0  0  0  0  0  0  0  0  0  0
    3.6390   -2.6040    0.9550 N   0  0  0  0  0  0  0  0  0  0  0  0
    4.0660   -3.9060    0.6350 C   0  0  0  0  0  0  0  0  0  0  0  0
    3.2160   -4.8290    0.6910 O   0  0  0  0  0  0  0  0  0  0  0  0
    5.4440   -4.2110    0.2470 C   0  0  1  0  0  0  0  0  0  0  0  0
    5.6000   -5.7170    0.0290 C   0  0  0  0  0  0  0  0  0  0  0  0
    5.8430   -3.5450   -1.0540 C   0  0  0  0  0  0  0  0  0  0  0  0
  1  2  1  0
  2  3  1  0
  3  4  1  0
  5  4  1  1
  5  6  1  0
  5 15  1  0
  6  7  1  0
  7  8  2  0
  7 14  1  0
  8  9  1  0
  9 10  2  0
 10 11  1  0
 10 13  1  0
 11 12  2  0
 13 14  2  0
 15 16  2  0
 15 17  1  0
 17 18  1  0
 18 19  1  0
 19 20  1  0
 20 21  1  0
 21 22  2  0
 21 26  1  0
 22 23  1  0
 23 24  2  0
 24 25  1  0
 24 37  1  0
 25 26  2  0
 25 27  1  0
 27 28  1  1
 27 36  1  0
 28 29  1  0
 29 30  1  0
 30 31  1  0
 31 32  1  0
 32 33  1  0
 33 34  1  0
 33 35  2  0
 36 37  1  0
 37 38  1  0
 38 39  2  0
 38 40  1  0
 40 41  1  6
 40 42  1  0
M  END
