
     RDKit          3D

 11 11  0  0  0  0  0  0  0  0999 V2000
   -2.0710    0.2400    1.8160 C   0  0  0  0  0  0  0  0  0  0  0  0
   -1.7890    0.2230    0.5240 C   0  0  0  0  0  0  0  0  0  0  0  0
   -2.2470   -0.9830   -0.2390 C   0  0  0  0  0  0  0  0  0  0  0  0
   -1.1290    1.3670   -0.1020 C   0  0  0  0  0  0  0  0  0  0  0  0
    0.1620    1.1710   -0.6410 N   0  0  0  0  0  0  0  0  0  0  0  0
    0.7520    2.1700   -1.4830 C   0  0  0  0  0  0  0  0  0  0  0  0
    0.9320    0.0050   -0.3100 C   0  0  0  0  0  0  0  0  0  0  0  0
    0.5520   -1.1770   -0.1230 N   0  0  0  0  0  0  0  0  0  0  0  0
    1.6310   -2.0580    0.1890 C   0  0  0  0  0  0  0  0  0  0  0  0
    2.8100   -1.1300    0.3900 C   0  0  0  0  0  0  0  0  0  0  0  0
    2.3190    0.0500   -0.1410 O   0  0  0  0  0  0  0  0  0  0  0  0
  1  2  2  0
  2  3  1  0
  2  4  1  0
  4  5  1  0
  5  6  1  0
  5  7  1  0
  7  8  2  0
  7 11  1  0
  8  9  1  0
  9 10  1  0
 10 11  1  0
M  END
