
     RDKit          3D

 19 21  0  0  0  0  0  0  0  0999 V2000
    5.4180    0.5140    0.2400 N   0  0  0  0  0  0  0  0  0  0  0  0
    4.2260   -0.1220   -0.1280 C   0  0  0  0  0  0  0  0  0  0  0  0
    4.1800   -1.4090   -0.5650 N   0  0  0  0  0  0  0  0  0  0  0  0
    3.0480   -2.0260   -0.9190 C   0  0  0  0  0  0  0  0  0  0  0  0
    1.8940   -1.3450   -0.8410 N   0  0  0  0  0  0  0  0  0  0  0  0
    1.8380   -0.0690   -0.4210 C   0  0  0  0  0  0  0  0  0  0  0  0
    3.0160    0.5500   -0.0610 C   0  0  0  0  0  0  0  0  0  0  0  0
    2.6640    1.7950    0.3110 N   0  0  0  0  0  0  0  0  0  0  0  0
    1.3200    1.9320    0.1820 C   0  0  0  0  0  0  0  0  0  0  0  0
    0.8040    0.7830   -0.2700 N   0  0  0  0  0  0  0  0  0  0  0  0
   -0.5570    0.4450   -0.5600 C   0  0  2  0  0  0  0  0  0  0  0  0
   -1.4810    1.2850    0.0570 O   0  0  0  0  0  0  0  0  0  0  0  0
   -2.6770    0.6210   -0.2000 C   0  0  2  0  0  0  0  0  0  0  0  0
   -3.8370    1.2510    0.5370 C   0  0  0  0  0  0  0  0  0  0  0  0
   -5.0280    0.5850    0.2780 O   0  0  0  0  0  0  0  0  0  0  0  0
   -2.3900   -0.7740    0.2510 C   0  0  1  0  0  0  0  0  0  0  0  0
   -3.1890   -1.6420   -0.5060 O   0  0  0  0  0  0  0  0  0  0  0  0
   -0.9220   -0.9480   -0.0820 C   0  0  1  0  0  0  0  0  0  0  0  0
   -0.8230   -1.8830   -1.1120 O   0  0  0  0  0  0  0  0  0  0  0  0
  1  2  1  0
  2  3  2  0
  2  7  1  0
  3  4  1  0
  4  5  2  0
  5  6  1  0
  6  7  2  0
  6 10  1  0
  7  8  1  0
  8  9  2  0
  9 10  1  0
 11 10  1  1
 11 12  1  0
 11 18  1  0
 12 13  1  0
 13 14  1  1
 13 16  1  0
 14 15  1  0
 16 17  1  6
 16 18  1  0
 18 19  1  6
M  END
