
     RDKit          3D

 19 20  0  0  0  0  0  0  0  0999 V2000
    0.2670    0.9770    0.6080 O   0  0  0  0  0  0  0  0  0  0  0  0
    0.0900   -0.1270    0.8210 C   0  0  0  0  0  0  0  0  0  0  0  0
   -0.9820   -0.9340    1.2960 C   0  0  0  0  0  0  0  0  0  0  0  0
   -2.2600   -0.1680    1.5850 C   0  0  2  0  0  0  0  0  0  0  0  0
   -3.2090   -1.1180    2.0830 N   0  0  0  0  0  0  0  0  0  0  0  0
   -4.2330   -1.2580    1.1800 N   0  0  0  0  0  0  0  0  0  0  0  0
   -4.0270   -0.4770    0.1460 C   0  0  0  0  0  0  0  0  0  0  0  0
   -4.6370   -0.0820   -1.1640 C   0  0  0  0  0  0  0  0  0  0  0  0
   -3.6680    0.9000   -1.6920 C   0  0  0  0  0  0  0  0  0  0  0  0
   -3.8020    1.5550   -2.9050 O   0  0  0  0  0  0  0  0  0  0  0  0
   -2.6700    1.0580   -0.8510 C   0  0  0  0  0  0  0  0  0  0  0  0
   -2.8300    0.2350    0.3070 N   0  0  0  0  0  0  0  0  0  0  0  0
    1.4580   -1.1590    0.5050 N   0  0  0  0  0  0  0  0  0  0  0  0
    2.3400   -0.1210    0.0670 C   0  0  0  0  0  0  0  0  0  0  0  0
    2.2340    1.0300   -0.0760 O   0  0  0  0  0  0  0  0  0  0  0  0
    3.6420   -0.7620   -0.2420 N   0  0  0  0  0  0  0  0  0  0  0  0
    4.8090   -0.1050   -0.6500 C   0  0  0  0  0  0  0  0  0  0  0  0
    5.3400    0.8140    0.4150 C   0  0  0  0  0  0  0  0  0  0  0  0
    4.4400    1.7980    0.7470 O   0  0  0  0  0  0  0  0  0  0  0  0
  1  2  2  0
  2  3  1  0
  2 13  1  0
  4  3  1  6
  4  5  1  0
  4 12  1  0
  5  6  1  0
  6  7  2  0
  7  8  1  0
  7 12  1  0
  8  9  1  0
  9 10  1  0
  9 11  2  0
 11 12  1  0
 13 14  1  0
 14 15  2  0
 14 16  1  0
 16 17  1  0
 17 18  1  0
 18 19  1  0
M  END
