
     RDKit          3D

 19 20  0  0  0  0  0  0  0  0999 V2000
    5.3380   -1.0870    0.4590 N   0  0  0  0  0  0  0  0  0  0  0  0
    4.7640   -0.1740   -0.4680 C   0  0  0  0  0  0  0  0  0  0  0  0
    5.3310   -0.0320   -1.5740 O   0  0  0  0  0  0  0  0  0  0  0  0
    3.5400    0.5980   -0.1730 C   0  0  2  0  0  0  0  0  0  0  0  0
    2.3470   -0.3440   -0.1180 C   0  0  0  0  0  0  0  0  0  0  0  0
    1.2410    0.5830   -0.6310 C   0  0  2  0  0  0  0  0  0  0  0  0
    0.0730   -0.1740   -0.7590 N   0  0  0  0  0  0  0  0  0  0  0  0
   -1.1230   -0.0610   -0.0050 C   0  0  0  0  0  0  0  0  0  0  0  0
   -1.1540    0.8120    0.8810 O   0  0  0  0  0  0  0  0  0  0  0  0
   -2.2640   -0.8620   -0.1930 N   0  0  0  0  0  0  0  0  0  0  0  0
   -3.4080   -0.6530    0.6280 C   0  0  0  0  0  0  0  0  0  0  0  0
   -4.5340   -0.3220   -0.0240 C   0  0  0  0  0  0  0  0  0  0  0  0
   -5.7990   -0.0730    0.6710 C   0  0  0  0  0  0  0  0  0  0  0  0
   -5.6700   -0.2240    2.0630 O   0  0  0  0  0  0  0  0  0  0  0  0
   -4.5130   -0.5610    2.6970 N   0  0  0  0  0  0  0  0  0  0  0  0
   -3.4090   -0.7770    2.0650 C   0  0  0  0  0  0  0  0  0  0  0  0
    1.8810    1.2060   -1.7400 C   0  0  0  0  0  0  0  0  0  0  0  0
    1.5330    1.5690   -2.9020 O   0  0  0  0  0  0  0  0  0  0  0  0
    3.2330    1.4240   -1.3230 N   0  0  0  0  0  0  0  0  0  0  0  0
  1  2  1  0
  2  3  2  0
  4  2  1  6
  4  5  1  0
  4 19  1  0
  5  6  1  0
  6  7  1  6
  6 17  1  0
  7  8  1  0
  8  9  2  0
  8 10  1  0
 10 11  1  0
 11 12  2  0
 11 16  1  0
 12 13  1  0
 13 14  1  0
 14 15  1  0
 15 16  2  0
 17 18  2  0
 17 19  1  0
M  END
