
     RDKit          3D

 19 20  0  0  0  0  0  0  0  0999 V2000
   -5.4460    0.4200   -1.3400 N   0  0  0  0  0  0  0  0  0  0  0  0
   -4.5110   -0.5700   -0.8120 C   0  0  1  0  0  0  0  0  0  0  0  0
   -3.1690   -0.0010   -0.9050 C   0  0  0  0  0  0  0  0  0  0  0  0
   -2.3880    0.1270    0.1420 C   0  0  0  0  0  0  0  0  0  0  0  0
   -1.0190    0.7160    0.0020 C   0  0  0  0  0  0  0  0  0  0  0  0
    0.0010   -0.2280    0.4200 N   0  0  0  0  0  0  0  0  0  0  0  0
    1.3460    0.1700    0.3500 C   0  0  0  0  0  0  0  0  0  0  0  0
    1.6310    1.3320   -0.0710 O   0  0  0  0  0  0  0  0  0  0  0  0
    2.4010   -0.7880    0.7760 C   0  0  0  0  0  0  0  0  0  0  0  0
    3.7270   -0.2240    0.6430 N   0  0  0  0  0  0  0  0  0  0  0  0
    4.3760    0.4530    1.5690 N   0  0  0  0  0  0  0  0  0  0  0  0
    5.5610    0.7840    1.0240 C   0  0  0  0  0  0  0  0  0  0  0  0
    6.4650    1.4470    1.6210 O   0  0  0  0  0  0  0  0  0  0  0  0
    5.6270    0.3070   -0.2290 N   0  0  0  0  0  0  0  0  0  0  0  0
    4.4610   -0.3380   -0.4800 C   0  0  0  0  0  0  0  0  0  0  0  0
    4.1750   -0.9110   -1.5630 O   0  0  0  0  0  0  0  0  0  0  0  0
   -2.8090   -0.2900    1.4640 C   0  0  0  0  0  0  0  0  0  0  0  0
   -4.0190   -0.8090    1.5750 C   0  0  0  0  0  0  0  0  0  0  0  0
   -4.8410   -0.9460    0.4870 O   0  0  0  0  0  0  0  0  0  0  0  0
  2  1  1  1
  2  3  1  0
  2 19  1  0
  3  4  2  0
  4  5  1  0
  4 17  1  0
  5  6  1  0
  6  7  1  0
  7  8  2  0
  7  9  1  0
  9 10  1  0
 10 11  1  0
 10 15  1  0
 11 12  1  0
 12 13  2  0
 12 14  1  0
 14 15  1  0
 15 16  2  0
 17 18  2  0
 18 19  1  0
M  END
