
     RDKit          3D

 19 20  0  0  0  0  0  0  0  0999 V2000
    3.9900   -1.4710    0.9790 C   0  0  0  0  0  0  0  0  0  0  0  0
    4.1770   -0.0850    0.3730 C   0  0  2  0  0  0  0  0  0  0  0  0
    3.1530    0.7720    0.8820 N   0  0  0  0  0  0  0  0  0  0  0  0
    1.9410    0.4300    0.1510 C   0  0  1  0  0  0  0  0  0  0  0  0
    1.2370    1.6760   -0.3480 C   0  0  0  0  0  0  0  0  0  0  0  0
    0.0640    1.2810   -1.0580 N   0  0  0  0  0  0  0  0  0  0  0  0
   -0.9700    0.5760   -0.4150 C   0  0  0  0  0  0  0  0  0  0  0  0
   -0.8640    0.2950    0.8010 O   0  0  0  0  0  0  0  0  0  0  0  0
   -2.2100    0.1470   -1.1490 C   0  0  0  0  0  0  0  0  0  0  0  0
   -3.0980   -0.5430   -0.1770 C   0  0  2  0  0  0  0  0  0  0  0  0
   -4.3270   -1.0210   -0.7300 N   0  0  0  0  0  0  0  0  0  0  0  0
   -5.2500   -1.1340    0.3410 C   0  0  0  0  0  0  0  0  0  0  0  0
   -6.2640   -1.8720    0.4470 O   0  0  0  0  0  0  0  0  0  0  0  0
   -4.8100   -0.2060    1.3540 N   0  0  0  0  0  0  0  0  0  0  0  0
   -3.6240    0.4360    0.8430 C   0  0  0  0  0  0  0  0  0  0  0  0
   -3.1370    1.5450    1.1650 O   0  0  0  0  0  0  0  0  0  0  0  0
    2.3690   -0.2760   -1.0440 N   0  0  0  0  0  0  0  0  0  0  0  0
    3.7860   -0.1970   -1.0560 C   0  0  0  0  0  0  0  0  0  0  0  0
    4.5110   -0.2210   -2.0930 O   0  0  0  0  0  0  0  0  0  0  0  0
  2  1  1  1
  2  3  1  0
  2 18  1  0
  3  4  1  0
  4  5  1  6
  4 17  1  0
  5  6  1  0
  6  7  1  0
  7  8  2  0
  7  9  1  0
 10  9  1  6
 10 11  1  0
 10 15  1  0
 11 12  1  0
 12 13  2  0
 12 14  1  0
 14 15  1  0
 15 16  2  0
 17 18  1  0
 18 19  2  0
M  END
