
     RDKit          3D

 10 10  0  0  0  0  0  0  0  0999 V2000
    2.9010    1.2830    0.0200 O   0  0  0  0  0  0  0  0  0  0  0  0
    2.7600    0.3570   -0.9250 O   0  0  0  0  0  0  0  0  0  0  0  0
    2.6630   -0.8730   -0.3030 C   0  0  0  0  0  0  0  0  0  0  0  0
    1.5580   -0.9300    0.5700 O   0  0  0  0  0  0  0  0  0  0  0  0
    0.0880   -0.6670   -0.2540 P   0  0  0  0  0  0  0  0  0  0  0  0
   -0.3770    1.1210   -0.3750 C   0  0  0  0  0  0  0  0  0  0  0  0
   -1.7170    1.3200   -0.5510 O   0  0  0  0  0  0  0  0  0  0  0  0
   -2.5290    0.5080    0.2030 C   0  0  0  0  0  0  0  0  0  0  0  0
   -2.4130   -0.9510   -0.1170 C   0  0  0  0  0  0  0  0  0  0  0  0
   -1.2540   -1.5070    0.4610 O   0  0  0  0  0  0  0  0  0  0  0  0
  1  2  1  0
  2  3  1  0
  3  4  1  0
  4  5  1  0
  5  6  1  0
  5 10  1  0
  6  7  1  0
  7  8  1  0
  8  9  1  0
  9 10  1  0
M  END
