
     RDKit          3D

 12 12  0  0  0  0  0  0  0  0999 V2000
   -2.6100    1.8230    1.7060 O   0  0  0  0  0  0  0  0  0  0  0  0
   -2.6280    0.9870    0.7760 C   0  0  0  0  0  0  0  0  0  0  0  0
   -3.7050    0.5490    0.0280 O   0  0  0  0  0  0  0  0  0  0  0  0
   -3.3180   -0.3500   -0.8830 O   0  0  0  0  0  0  0  0  0  0  0  0
   -2.1790   -0.9720   -0.3480 C   0  0  0  0  0  0  0  0  0  0  0  0
   -1.4570    0.2470    0.2440 C   0  0  2  0  0  0  0  0  0  0  0  0
   -0.6120   -0.2070    1.2230 O   0  0  0  0  0  0  0  0  0  0  0  0
    0.7070    0.1200    1.0410 C   0  0  0  0  0  0  0  0  0  0  0  0
    1.3120   -0.4140   -0.2290 C   0  0  0  0  0  0  0  0  0  0  0  0
    2.6560    0.0050   -0.2670 O   0  0  0  0  0  0  0  0  0  0  0  0
    3.2760   -0.4060   -1.3330 O   0  0  0  0  0  0  0  0  0  0  0  0
    4.3590    0.3470   -1.4880 O   0  0  0  0  0  0  0  0  0  0  0  0
  1  2  2  0
  2  3  1  0
  2  6  1  0
  3  4  1  0
  4  5  1  0
  5  6  1  0
  6  7  1  1
  7  8  1  0
  8  9  1  0
  9 10  1  0
 10 11  1  0
 11 12  1  0
M  END
