
     RDKit          3D

  9  9  0  0  0  0  0  0  0  0999 V2000
    2.0980   -1.3020    0.9510 O   0  0  0  0  0  0  0  0  0  0  0  0
    2.2200   -0.5990   -0.0740 C   0  0  0  0  0  0  0  0  0  0  0  0
    3.5020   -0.3540   -0.5340 O   0  0  0  0  0  0  0  0  0  0  0  0
    1.0740   -0.1170   -0.6760 O   0  0  0  0  0  0  0  0  0  0  0  0
   -0.1690   -0.4280   -0.1250 C   0  0  1  0  0  0  0  0  0  0  0  0
   -0.8090    0.8890    0.3360 C   0  0  0  0  0  0  0  0  0  0  0  0
   -2.2740    0.4650    0.1580 C   0  0  0  0  0  0  0  0  0  0  0  0
   -2.1850   -0.3230   -0.9550 O   0  0  0  0  0  0  0  0  0  0  0  0
   -1.0770   -0.9580   -0.9810 O   0  0  0  0  0  0  0  0  0  0  0  0
  1  2  2  0
  2  3  1  0
  2  4  1  0
  5  4  1  6
  5  6  1  0
  5  9  1  0
  6  7  1  0
  7  8  1  0
  8  9  1  0
M  END
