
     RDKit          3D

 26 28  0  0  0  0  0  0  0  0999 V2000
    6.2320   -0.0440    0.5360 C   0  0  0  0  0  0  0  0  0  0  0  0
    4.9790   -0.2440   -0.2250 C   0  0  0  0  0  0  0  0  0  0  0  0
    4.7230    0.7840   -1.2040 N   0  0  0  0  0  0  0  0  0  0  0  0
    3.4020    0.6450   -2.0640 P   0  0  0  0  0  0  0  0  0  0  0  0
    3.5120    2.3120   -2.4160 O   0  0  0  0  0  0  0  0  0  0  0  0
    4.1020   -0.4150   -3.1160 O   0  0  0  0  0  0  0  0  0  0  0  0
    2.4330    0.1400   -0.8820 O   0  0  0  0  0  0  0  0  0  0  0  0
    1.2460    0.7860   -0.6740 C   0  0  0  0  0  0  0  0  0  0  0  0
    0.5470    0.1030    0.4920 C   0  0  1  0  0  0  0  0  0  0  0  0
   -0.6910    0.7320    0.7540 O   0  0  0  0  0  0  0  0  0  0  0  0
   -1.3010   -0.1960    1.5690 C   0  0  1  0  0  0  0  0  0  0  0  0
   -2.6640    0.1310    1.9030 N   0  0  0  0  0  0  0  0  0  0  0  0
   -3.1870    0.1240    3.1420 C   0  0  0  0  0  0  0  0  0  0  0  0
   -4.4950    0.4840    3.0750 N   0  0  0  0  0  0  0  0  0  0  0  0
   -4.8120    0.7220    1.8020 C   0  0  0  0  0  0  0  0  0  0  0  0
   -5.9620    1.1100    1.1430 C   0  0  0  0  0  0  0  0  0  0  0  0
   -7.0200    1.3200    1.7730 O   0  0  0  0  0  0  0  0  0  0  0  0
   -5.8900    1.2510   -0.1930 N   0  0  0  0  0  0  0  0  0  0  0  0
   -4.7490    1.0260   -0.8840 C   0  0  0  0  0  0  0  0  0  0  0  0
   -4.7500    1.1960   -2.2980 N   0  0  0  0  0  0  0  0  0  0  0  0
   -3.6080    0.6450   -0.2640 N   0  0  0  0  0  0  0  0  0  0  0  0
   -3.6470    0.4950    1.0740 C   0  0  0  0  0  0  0  0  0  0  0  0
   -1.1680   -1.4830    0.8170 C   0  0  2  0  0  0  0  0  0  0  0  0
   -1.2010   -2.5950    1.6600 O   0  0  0  0  0  0  0  0  0  0  0  0
    0.1990   -1.3280    0.1620 C   0  0  2  0  0  0  0  0  0  0  0  0
    1.0910   -2.1330    0.8880 O   0  0  0  0  0  0  0  0  0  0  0  0
  1  2  1  0
  2  3  1  0
  3  4  1  0
  4  5  1  0
  4  6  1  0
  4  7  1  0
  7  8  1  0
  9  8  1  6
  9 10  1  0
  9 25  1  0
 10 11  1  0
 11 12  1  6
 11 23  1  0
 12 13  1  0
 12 22  1  0
 13 14  2  0
 14 15  1  0
 15 16  1  0
 15 22  2  0
 16 17  2  0
 16 18  1  0
 18 19  1  0
 19 20  1  0
 19 21  2  0
 21 22  1  0
 23 24  1  1
 23 25  1  0
 25 26  1  1
M  CHG  1  21   1
M  END
