
     RDKit          3D

  9  8  0  0  0  0  0  0  0  0999 V2000
    2.7670    1.0050    1.3400 O   0  0  0  0  0  0  0  0  0  0  0  0
    2.7920    0.1020    0.4590 C   0  0  0  0  0  0  0  0  0  0  0  0
    4.0290   -0.2550   -0.0480 O   0  0  0  0  0  0  0  0  0  0  0  0
    1.5990   -0.4470    0.0790 O   0  0  0  0  0  0  0  0  0  0  0  0
    0.3420   -0.0510    0.6270 C   0  0  0  0  0  0  0  0  0  0  0  0
   -0.7970   -0.8110    0.0360 C   0  0  0  0  0  0  0  0  0  0  0  0
   -2.3650   -0.2030    0.8300 P   0  0  0  0  0  0  0  0  0  0  0  0
   -2.3620    1.5400    0.6960 O   0  0  0  0  0  0  0  0  0  0  0  0
   -3.7490   -0.8980    0.0840 O   0  0  0  0  0  0  0  0  0  0  0  0
  1  2  2  0
  2  3  1  0
  2  4  1  0
  4  5  1  0
  5  6  1  0
  6  7  1  0
  7  8  1  0
  7  9  1  0
M  END
