
     RDKit          3D

 12 11  0  0  0  0  0  0  0  0999 V2000
   -1.5480    1.6240   -1.0500 O   0  0  0  0  0  0  0  0  0  0  0  0
   -2.1050    0.7730   -0.4250 C   0  0  0  0  0  0  0  0  0  0  0  0
   -3.5590    0.7430   -0.4610 O   0  0  0  0  0  0  0  0  0  0  0  0
   -4.1120    1.7250   -1.3030 O   0  0  0  0  0  0  0  0  0  0  0  0
   -1.4190   -0.2240    0.4160 C   0  0  1  0  0  0  0  0  0  0  0  0
   -2.5080   -0.9610    1.0260 O   0  0  0  0  0  0  0  0  0  0  0  0
   -0.5810   -1.2590   -0.2100 C   0  0  0  0  0  0  0  0  0  0  0  0
    0.6160   -1.0020   -0.7430 O   0  0  0  0  0  0  0  0  0  0  0  0
    1.4260   -0.2620    0.1170 C   0  0  0  0  0  0  0  0  0  0  0  0
    2.8670   -0.4520   -0.3910 C   0  0  0  0  0  0  0  0  0  0  0  0
    3.6580    0.4020    0.4010 O   0  0  0  0  0  0  0  0  0  0  0  0
    4.1630    1.2050   -0.6370 O   0  0  0  0  0  0  0  0  0  0  0  0
  1  2  2  0
  2  3  1  0
  2  5  1  0
  3  4  1  0
  5  6  1  6
  5  7  1  0
  7  8  1  0
  8  9  1  0
  9 10  1  0
 10 11  1  0
 11 12  1  0
M  END
