
     RDKit          3D

 12 12  0  0  0  0  0  0  0  0999 V2000
   -0.3320   -1.3030   -1.2040 O   0  0  0  0  0  0  0  0  0  0  0  0
   -0.0180   -0.7040   -0.0930 C   0  0  0  0  0  0  0  0  0  0  0  0
   -1.0790    0.1410    0.3420 O   0  0  0  0  0  0  0  0  0  0  0  0
   -2.1850    0.4300   -0.4060 C   0  0  1  0  0  0  0  0  0  0  0  0
   -3.5730    0.0770    0.0090 C   0  0  0  0  0  0  0  0  0  0  0  0
   -3.6390    1.2890    0.6610 O   0  0  0  0  0  0  0  0  0  0  0  0
   -2.6570    1.6990   -0.1760 O   0  0  0  0  0  0  0  0  0  0  0  0
    1.2110   -0.8370    0.5280 C   0  0  2  0  0  0  0  0  0  0  0  0
    1.4380    0.1810    1.5540 O   0  0  0  0  0  0  0  0  0  0  0  0
    2.2480   -0.2830   -0.5850 C   0  0  0  0  0  0  0  0  0  0  0  0
    3.4440   -0.4990   -0.0250 O   0  0  0  0  0  0  0  0  0  0  0  0
    4.2340    0.5800   -0.1250 O   0  0  0  0  0  0  0  0  0  0  0  0
  1  2  2  0
  2  3  1  0
  2  8  1  0
  4  3  1  1
  4  5  1  0
  4  7  1  0
  5  6  1  0
  6  7  1  0
  8  9  1  1
  8 10  1  0
 10 11  1  0
 11 12  1  0
M  END
