
     RDKit          3D

 12 13  0  0  0  0  0  0  0  0999 V2000
    4.2920   -0.4010    0.4930 O   0  0  0  0  0  0  0  0  0  0  0  0
    3.3300   -1.2220    0.8660 O   0  0  0  0  0  0  0  0  0  0  0  0
    2.1790   -0.5890    1.0010 O   0  0  0  0  0  0  0  0  0  0  0  0
    1.6270   -0.4530   -0.2880 C   0  0  2  0  0  0  0  0  0  0  0  0
    1.5130    0.9180   -0.6110 O   0  0  0  0  0  0  0  0  0  0  0  0
    0.3840    1.2770    0.1340 C   0  0  0  0  0  0  0  0  0  0  0  0
   -0.5230    0.0900   -0.1160 C   0  0  2  0  0  0  0  0  0  0  0  0
   -1.3040    0.2940   -1.2300 O   0  0  0  0  0  0  0  0  0  0  0  0
   -2.5280   -0.2860   -0.9970 C   0  0  0  0  0  0  0  0  0  0  0  0
   -2.6400   -0.1940    0.5190 C   0  0  0  0  0  0  0  0  0  0  0  0
   -1.3350   -0.1100    0.9700 O   0  0  0  0  0  0  0  0  0  0  0  0
    0.3510   -0.9770   -0.3620 O   0  0  0  0  0  0  0  0  0  0  0  0
  1  2  1  0
  2  3  1  0
  4  3  1  1
  4  5  1  0
  4 12  1  0
  5  6  1  0
  7  6  1  1
  7  8  1  0
  7 11  1  0
  7 12  1  0
  8  9  1  0
  9 10  1  0
 10 11  1  0
M  END
