
     RDKit          3D

 12 12  0  0  0  0  0  0  0  0999 V2000
    0.7690    1.0330   -1.6490 O   0  0  0  0  0  0  0  0  0  0  0  0
    1.1390    0.3220   -0.7100 C   0  0  0  0  0  0  0  0  0  0  0  0
    2.5370   -0.1060   -0.4550 C   0  0  0  0  0  0  0  0  0  0  0  0
    3.4210    0.3870   -1.4080 O   0  0  0  0  0  0  0  0  0  0  0  0
    4.6170   -0.0560   -1.0790 O   0  0  0  0  0  0  0  0  0  0  0  0
    0.1870   -0.1220    0.1900 O   0  0  0  0  0  0  0  0  0  0  0  0
   -1.1730    0.1680    0.1270 C   0  0  1  0  0  0  0  0  0  0  0  0
   -2.0300   -1.0670   -0.1300 C   0  0  0  0  0  0  0  0  0  0  0  0
   -3.3620   -0.6690   -0.0650 O   0  0  0  0  0  0  0  0  0  0  0  0
   -3.6450    0.0400    0.9800 O   0  0  0  0  0  0  0  0  0  0  0  0
   -3.0620    1.2140    1.0080 O   0  0  0  0  0  0  0  0  0  0  0  0
   -1.6950    0.9700    1.2870 C   0  0  0  0  0  0  0  0  0  0  0  0
  1  2  2  0
  2  3  1  0
  2  6  1  0
  3  4  1  0
  4  5  1  0
  7  6  1  1
  7  8  1  0
  7 12  1  0
  8  9  1  0
  9 10  1  0
 10 11  1  0
 11 12  1  0
M  END
