
     RDKit          3D

 12 12  0  0  0  0  0  0  0  0999 V2000
    2.6570    0.7920    0.3870 O   0  0  0  0  0  0  0  0  0  0  0  0
    2.3810    0.0830   -0.6230 C   0  0  0  0  0  0  0  0  0  0  0  0
    3.4210   -0.3530   -1.4650 O   0  0  0  0  0  0  0  0  0  0  0  0
    1.0610   -0.2280   -0.8460 O   0  0  0  0  0  0  0  0  0  0  0  0
    0.0690    0.2440    0.0420 C   0  0  2  0  0  0  0  0  0  0  0  0
   -0.7560   -0.8560    0.5960 C   0  0  0  0  0  0  0  0  0  0  0  0
   -0.2570   -1.9340    0.8400 O   0  0  0  0  0  0  0  0  0  0  0  0
   -2.2020   -0.6740    0.8650 C   0  0  0  0  0  0  0  0  0  0  0  0
   -2.4430    0.6790    1.0640 O   0  0  0  0  0  0  0  0  0  0  0  0
   -2.1410    1.2950   -0.0970 O   0  0  0  0  0  0  0  0  0  0  0  0
   -0.8690    1.1780   -0.6460 C   0  0  0  0  0  0  0  0  0  0  0  0
   -0.5280    1.8260   -1.6680 O   0  0  0  0  0  0  0  0  0  0  0  0
  1  2  2  0
  2  3  1  0
  2  4  1  0
  5  4  1  6
  5  6  1  0
  5 11  1  0
  6  7  2  0
  6  8  1  0
  8  9  1  0
  9 10  1  0
 10 11  1  0
 11 12  2  0
M  END
