
     RDKit          3D

  8  8  0  0  0  0  0  0  0  0999 V2000
   -2.6140   -0.2630   -0.3060 C   0  0  0  0  0  0  0  0  0  0  0  0
   -1.4150    0.2070    0.3920 N   0  0  0  0  0  0  0  0  0  0  0  0
   -0.3670    0.3010   -0.5780 C   0  0  0  0  0  0  0  0  0  0  0  0
    0.9830    0.0760   -0.0010 C   0  0  0  0  0  0  0  0  0  0  0  0
    1.3150   -0.1920    1.2600 C   0  0  0  0  0  0  0  0  0  0  0  0
    2.7310   -0.3170    1.2810 N   0  0  0  0  0  0  0  0  0  0  0  0
    3.1080   -0.5600    0.0050 O   0  0  0  0  0  0  0  0  0  0  0  0
    2.1860    0.1100   -0.7230 N   0  0  0  0  0  0  0  0  0  0  0  0
  1  2  1  0
  2  3  1  0
  3  4  1  0
  4  5  2  0
  4  8  1  0
  5  6  1  0
  6  7  1  0
  7  8  1  0
M  CHG  1   2   1
M  END
