
     RDKit          3D

  7  6  0  0  0  0  0  0  0  0999 V2000
    2.1380   -0.8090   -0.7080 C   0  0  0  0  0  0  0  0  0  0  0  0
    1.3260   -0.6340    0.3460 C   0  0  0  0  0  0  0  0  0  0  0  0
    0.2300    0.2460    0.3120 N   0  0  0  0  0  0  0  0  0  0  0  0
    0.3850    1.6130    0.7240 C   0  0  0  0  0  0  0  0  0  0  0  0
   -1.0250   -0.1940   -0.1220 C   0  0  0  0  0  0  0  0  0  0  0  0
   -1.4180   -1.5290    0.1420 N   0  0  0  0  0  0  0  0  0  0  0  0
   -1.8430    0.5620   -0.7540 N   0  0  0  0  0  0  0  0  0  0  0  0
  1  2  2  0
  2  3  1  0
  3  4  1  0
  3  5  1  0
  5  6  1  0
  5  7  2  0
M  CHG  1   7   1
M  END
