
     RDKit          3D

  8  8  0  0  0  0  0  0  0  0999 V2000
   -1.7030    1.2350    0.0040 N   0  0  0  0  0  0  0  0  0  0  0  0
   -0.4690    0.4740    0.0340 C   0  0  0  0  0  0  0  0  0  0  0  0
    0.6470    1.0140    0.3050 N   0  0  0  0  0  0  0  0  0  0  0  0
    1.8770    0.3040    0.3440 C   0  0  0  0  0  0  0  0  0  0  0  0
    2.9730    0.8450    0.6120 O   0  0  0  0  0  0  0  0  0  0  0  0
    1.7920   -1.0790    0.0570 N   0  0  0  0  0  0  0  0  0  0  0  0
    0.7020   -1.6610   -0.2180 C   0  0  0  0  0  0  0  0  0  0  0  0
   -0.5820   -0.9470   -0.2650 C   0  0  0  0  0  0  0  0  0  0  0  0
  1  2  1  0
  2  3  2  0
  2  8  1  0
  3  4  1  0
  4  5  2  0
  4  6  1  0
  6  7  2  0
  7  8  1  0
M  CHG  1   3   1
M  END
