
     RDKit          3D

  8  8  0  0  0  0  0  0  0  0999 V2000
   -0.8710   -1.5170   -0.5360 C   0  0  0  0  0  0  0  0  0  0  0  0
    0.0600   -0.3500   -0.5980 C   0  0  2  0  0  0  0  0  0  0  0  0
    1.0940   -0.4530    0.4210 N   0  0  0  0  0  0  0  0  0  0  0  0
    1.9240    0.7250    0.4260 C   0  0  0  0  0  0  0  0  0  0  0  0
    1.3980    1.7630   -0.3960 O   0  0  0  0  0  0  0  0  0  0  0  0
    0.0250    2.0020   -0.3310 N   0  0  0  0  0  0  0  0  0  0  0  0
   -0.7070    0.9190   -0.4330 C   0  0  0  0  0  0  0  0  0  0  0  0
   -2.1210    0.9510   -0.3910 N   0  0  0  0  0  0  0  0  0  0  0  0
  2  1  1  1
  2  3  1  0
  2  7  1  0
  3  4  1  0
  4  5  1  0
  5  6  1  0
  6  7  2  0
  7  8  1  0
M  CHG  1   3   1
M  END
