
     RDKit          3D

  7  7  0  0  0  0  0  0  0  0999 V2000
   -2.3140    0.4200    0.9370 O   0  0  0  0  0  0  0  0  0  0  0  0
   -1.7050    0.2410   -0.3180 C   0  0  0  0  0  0  0  0  0  0  0  0
   -0.2360    0.0930   -0.1770 C   0  0  0  0  0  0  0  0  0  0  0  0
    0.4230   -1.0660   -0.0060 N   0  0  0  0  0  0  0  0  0  0  0  0
    1.7520   -0.8210    0.0840 C   0  0  0  0  0  0  0  0  0  0  0  0
    1.9020    0.5580   -0.0390 C   0  0  0  0  0  0  0  0  0  0  0  0
    0.6800    1.0670   -0.1940 N   0  0  0  0  0  0  0  0  0  0  0  0
  1  2  1  0
  2  3  1  0
  3  4  1  0
  3  7  2  0
  4  5  1  0
  5  6  2  0
  6  7  1  0
M  CHG  1   7   1
M  END
