
     RDKit          3D

  8  8  0  0  0  0  0  0  0  0999 V2000
    2.1340   -0.1490    0.1900 C   0  0  0  0  0  0  0  0  0  0  0  0
    0.7670   -0.5690    0.3400 N   0  0  0  0  0  0  0  0  0  0  0  0
   -0.1220    0.3080   -0.3780 C   0  0  2  0  0  0  0  0  0  0  0  0
   -0.3140    1.6360    0.3190 C   0  0  0  0  0  0  0  0  0  0  0  0
   -1.6370    1.9620   -0.1450 O   0  0  0  0  0  0  0  0  0  0  0  0
   -2.2970    0.7580   -0.2200 N   0  0  0  0  0  0  0  0  0  0  0  0
   -1.5070   -0.2250   -0.3530 C   0  0  0  0  0  0  0  0  0  0  0  0
   -1.8990   -1.6090   -0.4590 N   0  0  0  0  0  0  0  0  0  0  0  0
  1  2  1  0
  3  2  1  1
  3  4  1  0
  3  7  1  0
  4  5  1  0
  5  6  1  0
  6  7  2  0
  7  8  1  0
M  CHG  1   2   1
M  END
