
     RDKit          3D

 48 53  0  0  0  0  0  0  0  0999 V2000
    3.6940   -0.6460    1.3950 C   0  0  0  0  0  0  0  0  0  0  0  0
    4.7720   -0.2040    0.6270 O   0  0  0  0  0  0  0  0  0  0  0  0
    4.7980    0.0290   -0.7220 C   0  0  0  0  0  0  0  0  0  0  0  0
    3.6630   -0.1550   -1.4810 C   0  0  0  0  0  0  0  0  0  0  0  0
    3.6310    0.0650   -2.8350 C   0  0  0  0  0  0  0  0  0  0  0  0
    2.4760   -0.1250   -3.5600 O   0  0  0  0  0  0  0  0  0  0  0  0
    1.2640   -0.3790   -2.9600 C   0  0  0  0  0  0  0  0  0  0  0  0
    0.4730    0.6990   -2.5890 C   0  0  0  0  0  0  0  0  0  0  0  0
   -0.7470    0.5370   -1.9890 C   0  0  0  0  0  0  0  0  0  0  0  0
   -1.2420   -0.7260   -1.7280 C   0  0  0  0  0  0  0  0  0  0  0  0
   -2.5510   -0.8340   -1.1040 C   0  0  0  0  0  0  0  0  0  0  0  0
   -3.4920    0.1570   -1.4120 C   0  0  0  0  0  0  0  0  0  0  0  0
   -4.7490    0.1330   -0.8480 C   0  0  0  0  0  0  0  0  0  0  0  0
   -5.1440   -0.8630    0.0450 C   0  0  0  0  0  0  0  0  0  0  0  0
   -6.4850   -0.7930    0.6030 C   0  0  0  0  0  0  0  0  0  0  0  0
   -7.2170   -1.8970    0.9450 C   0  0  0  0  0  0  0  0  0  0  0  0
   -8.4940   -1.8210    1.4790 C   0  0  0  0  0  0  0  0  0  0  0  0
   -9.0970   -0.6030    1.6950 C   0  0  0  0  0  0  0  0  0  0  0  0
  -10.3980   -0.5640    2.2290 N   0  0  1  0  0  0  0  0  0  0  0  0
  -10.8370    0.8130    2.4800 C   0  0  0  0  0  0  0  0  0  0  0  0
  -11.4350    1.3320    1.2200 C   0  0  0  0  0  0  0  0  0  0  0  0
  -11.4630    0.1110    0.3160 C   0  0  0  0  0  0  0  0  0  0  0  0
  -11.4450   -1.0160    1.3620 C   0  0  2  0  0  0  0  0  0  0  0  0
  -12.7280   -1.0020    2.1750 C   0  0  0  0  0  0  0  0  0  0  0  0
  -11.2780   -2.3400    0.7180 C   0  0  0  0  0  0  0  0  0  0  0  0
   -8.3650    0.5290    1.3520 C   0  0  0  0  0  0  0  0  0  0  0  0
   -7.0940    0.4430    0.8210 C   0  0  0  0  0  0  0  0  0  0  0  0
   -4.2130   -1.8300    0.3390 C   0  0  0  0  0  0  0  0  0  0  0  0
   -2.9320   -1.8180   -0.2270 C   0  0  0  0  0  0  0  0  0  0  0  0
   -0.4690   -1.8050   -2.0890 C   0  0  0  0  0  0  0  0  0  0  0  0
    0.7820   -1.6360   -2.7030 C   0  0  0  0  0  0  0  0  0  0  0  0
    4.7730    0.4860   -3.4740 C   0  0  0  0  0  0  0  0  0  0  0  0
    5.9230    0.6720   -2.6980 C   0  0  0  0  0  0  0  0  0  0  0  0
    5.9740    0.4590   -1.3520 C   0  0  0  0  0  0  0  0  0  0  0  0
    7.1040    0.6140   -0.5120 N   0  0  0  0  0  0  0  0  0  0  0  0
    8.3720    1.0870   -0.9070 C   0  0  0  0  0  0  0  0  0  0  0  0
    8.5670    1.4170   -2.0960 O   0  0  0  0  0  0  0  0  0  0  0  0
    9.4810    1.2190   -0.0230 N   0  0  0  0  0  0  0  0  0  0  0  0
    9.4730    0.8870    1.3840 C   0  0  0  0  0  0  0  0  0  0  0  0
   10.5130   -0.1560    1.5710 C   0  0  0  0  0  0  0  0  0  0  0  0
   10.5050   -0.8660    2.5860 O   0  0  0  0  0  0  0  0  0  0  0  0
   11.4780   -0.3140    0.5970 O   0  0  0  0  0  0  0  0  0  0  0  0
   11.8860    0.7870   -0.2130 C   0  0  2  0  0  0  0  0  0  0  0  0
   13.0530    1.4900    0.4830 C   0  0  0  0  0  0  0  0  0  0  0  0
   13.5090    2.6500   -0.3270 C   0  0  0  0  0  0  0  0  0  0  0  0
   14.6270    3.5040    0.1470 C   0  0  0  0  0  0  0  0  0  0  0  0
   12.9440    2.8890   -1.3930 O   0  0  0  0  0  0  0  0  0  0  0  0
   10.7700    1.7300   -0.5230 C   0  0  0  0  0  0  0  0  0  0  0  0
  1  2  1  0
  2  3  1  0
  3  4  2  0
  3 34  1  0
  4  5  1  0
  5  6  1  0
  5 32  2  0
  6  7  1  0
  7  8  2  0
  7 31  1  0
  8  9  1  0
  9 10  2  0
 10 11  1  0
 10 30  1  0
 11 12  2  0
 11 29  1  0
 12 13  1  0
 13 14  2  0
 14 15  1  0
 14 28  1  0
 15 16  2  0
 15 27  1  0
 16 17  1  0
 17 18  2  0
 19 18  1  6
 18 26  1  0
 19 20  1  0
 19 23  1  0
 20 21  1  0
 21 22  1  0
 22 23  1  0
 23 24  1  1
 23 25  1  0
 26 27  2  0
 28 29  2  0
 30 31  2  0
 32 33  1  0
 33 34  2  0
 34 35  1  0
 35 36  1  0
 36 37  2  0
 36 38  1  0
 38 39  1  0
 38 48  1  0
 39 40  1  0
 40 41  2  0
 40 42  1  0
 42 43  1  0
 43 44  1  1
 43 48  1  0
 44 45  1  0
 45 46  1  0
 45 47  2  0
M  CHG  1  19   1
M  END
