
     RDKit          3D

 48 53  0  0  0  0  0  0  0  0999 V2000
    8.5610   -3.3580    0.4460 C   0  0  0  0  0  0  0  0  0  0  0  0
    9.3520   -2.2850    0.0860 O   0  0  0  0  0  0  0  0  0  0  0  0
    8.8080   -1.5310   -0.9160 C   0  0  0  0  0  0  0  0  0  0  0  0
    7.4910   -0.9480   -0.5280 C   0  0  0  0  0  0  0  0  0  0  0  0
    7.5610   -0.0990    0.6270 N   0  0  0  0  0  0  0  0  0  0  0  0
    6.9320    1.1770    0.3050 C   0  0  2  0  0  0  0  0  0  0  0  0
    7.9360    2.1640   -0.2330 C   0  0  0  0  0  0  0  0  0  0  0  0
    8.6020    2.9740    0.8270 C   0  0  0  0  0  0  0  0  0  0  0  0
    8.6270    2.3720    2.1900 C   0  0  0  0  0  0  0  0  0  0  0  0
    7.3180    1.7830    2.6370 C   0  0  0  0  0  0  0  0  0  0  0  0
    6.2930    1.7660    1.5280 C   0  0  2  0  0  0  0  0  0  0  0  0
    5.0750    1.0700    1.9690 C   0  0  0  0  0  0  0  0  0  0  0  0
    5.0890    0.4350    3.0600 O   0  0  0  0  0  0  0  0  0  0  0  0
    3.8520    1.0830    1.1860 C   0  0  0  0  0  0  0  0  0  0  0  0
    3.6630    1.8210    0.0410 C   0  0  0  0  0  0  0  0  0  0  0  0
    2.4690    1.7800   -0.6890 C   0  0  0  0  0  0  0  0  0  0  0  0
    1.4160    0.9890   -0.2860 C   0  0  0  0  0  0  0  0  0  0  0  0
    0.1630    0.9350   -1.0270 C   0  0  0  0  0  0  0  0  0  0  0  0
    0.0570    1.6550   -2.0630 O   0  0  0  0  0  0  0  0  0  0  0  0
   -0.8790    0.1420   -0.6390 O   0  0  0  0  0  0  0  0  0  0  0  0
   -2.0950    0.0880   -1.3540 C   0  0  2  0  0  0  0  0  0  0  0  0
   -3.2010    0.3990   -0.3670 C   0  0  0  0  0  0  0  0  0  0  0  0
   -2.9390    0.6210    0.8240 O   0  0  0  0  0  0  0  0  0  0  0  0
   -4.5540    0.4370   -0.8080 N   0  0  0  0  0  0  0  0  0  0  0  0
   -5.6910    0.7030   -0.0310 C   0  0  0  0  0  0  0  0  0  0  0  0
   -5.6820    0.8680    1.3230 C   0  0  0  0  0  0  0  0  0  0  0  0
   -6.8160    1.1070    2.0690 C   0  0  0  0  0  0  0  0  0  0  0  0
   -8.0680    1.1940    1.4450 C   0  0  0  0  0  0  0  0  0  0  0  0
   -8.1080    1.0330    0.0860 C   0  0  0  0  0  0  0  0  0  0  0  0
   -9.3290    1.1180   -0.5640 C   0  0  0  0  0  0  0  0  0  0  0  0
   -9.4190    0.9680   -1.9150 C   0  0  0  0  0  0  0  0  0  0  0  0
   -8.3070    0.7300   -2.6690 C   0  0  0  0  0  0  0  0  0  0  0  0
   -7.0740    0.6470   -2.0030 C   0  0  0  0  0  0  0  0  0  0  0  0
   -6.9330    0.7900   -0.6500 C   0  0  0  0  0  0  0  0  0  0  0  0
  -10.5280    1.3800    0.2120 C   0  0  0  0  0  0  0  0  0  0  0  0
  -11.6700    1.4680   -0.3260 O   0  0  0  0  0  0  0  0  0  0  0  0
  -10.4540    1.5470    1.6100 N   0  0  0  0  0  0  0  0  0  0  0  0
  -11.7040    1.8410    2.3720 C   0  0  0  0  0  0  0  0  0  0  0  0
   -9.2230    1.4440    2.3200 C   0  0  0  0  0  0  0  0  0  0  0  0
   -2.2710   -1.3590   -1.7290 C   0  0  0  0  0  0  0  0  0  0  0  0
   -2.0240   -2.3530   -0.8080 C   0  0  0  0  0  0  0  0  0  0  0  0
   -2.1770   -3.6910   -1.1170 C   0  0  0  0  0  0  0  0  0  0  0  0
   -2.5880   -4.0900   -2.3730 C   0  0  0  0  0  0  0  0  0  0  0  0
   -2.7550   -5.5280   -2.7130 C   0  0  0  0  0  0  0  0  0  0  0  0
   -2.8350   -3.0960   -3.2950 C   0  0  0  0  0  0  0  0  0  0  0  0
   -2.6810   -1.7570   -2.9840 C   0  0  0  0  0  0  0  0  0  0  0  0
    1.6000    0.2500    0.8610 C   0  0  0  0  0  0  0  0  0  0  0  0
    2.7700    0.2830    1.5850 C   0  0  0  0  0  0  0  0  0  0  0  0
  1  2  1  0
  2  3  1  0
  3  4  1  0
  4  5  1  0
  6  5  1  1
  6  7  1  0
  6 11  1  0
  7  8  1  0
  8  9  1  0
  9 10  1  0
 10 11  1  0
 11 12  1  1
 12 13  2  0
 12 14  1  0
 14 15  2  0
 14 48  1  0
 15 16  1  0
 16 17  2  0
 17 18  1  0
 17 47  1  0
 18 19  2  0
 18 20  1  0
 21 20  1  1
 21 22  1  0
 21 40  1  0
 22 23  2  0
 22 24  1  0
 24 25  1  0
 25 26  2  0
 25 34  1  0
 26 27  1  0
 27 28  2  0
 28 29  1  0
 28 39  1  0
 29 30  2  0
 29 34  1  0
 30 31  1  0
 30 35  1  0
 31 32  2  0
 32 33  1  0
 33 34  2  0
 35 36  2  0
 35 37  1  0
 37 38  1  0
 37 39  1  0
 40 41  2  0
 40 46  1  0
 41 42  1  0
 42 43  2  0
 43 44  1  0
 43 45  1  0
 45 46  2  0
 47 48  2  0
M  CHG  1   5   1
M  END
