
     RDKit          3D

 48 54  0  0  0  0  0  0  0  0999 V2000
   -3.3460   -5.1710   -0.6610 C   0  0  0  0  0  0  0  0  0  0  0  0
   -2.8310   -4.5130    0.6010 C   0  0  0  0  0  0  0  0  0  0  0  0
   -2.5300   -3.1220    0.4260 N   0  0  1  0  0  0  0  0  0  0  0  0
   -2.8750   -2.6400   -0.9030 C   0  0  0  0  0  0  0  0  0  0  0  0
   -3.2210   -2.3720    1.4550 C   0  0  2  0  0  0  0  0  0  0  0  0
   -4.6830   -2.2360    1.2700 C   0  0  0  0  0  0  0  0  0  0  0  0
   -4.9570   -1.5560    0.0540 O   0  0  0  0  0  0  0  0  0  0  0  0
   -6.2620   -1.3310   -0.3680 C   0  0  0  0  0  0  0  0  0  0  0  0
   -7.1870   -1.7630    0.3750 O   0  0  0  0  0  0  0  0  0  0  0  0
   -6.4980   -0.6310   -1.6080 C   0  0  0  0  0  0  0  0  0  0  0  0
   -5.4590   -0.1500   -2.3630 C   0  0  0  0  0  0  0  0  0  0  0  0
   -5.6670    0.5100   -3.5520 C   0  0  0  0  0  0  0  0  0  0  0  0
   -6.9730    0.6940   -4.0020 C   0  0  0  0  0  0  0  0  0  0  0  0
   -7.2170    1.3470   -5.1900 C   0  0  0  0  0  0  0  0  0  0  0  0
   -8.5120    1.5280   -5.6400 C   0  0  0  0  0  0  0  0  0  0  0  0
   -9.5650    1.0500   -4.8900 C   0  0  0  0  0  0  0  0  0  0  0  0
   -9.3340    0.3990   -3.7070 C   0  0  0  0  0  0  0  0  0  0  0  0
   -8.0390    0.2250   -3.2700 C   0  0  0  0  0  0  0  0  0  0  0  0
   -7.7770   -0.4390   -2.0670 C   0  0  0  0  0  0  0  0  0  0  0  0
   -2.5720   -1.0410    1.7280 C   0  0  0  0  0  0  0  0  0  0  0  0
   -1.1880   -1.1830    2.2260 C   0  0  0  0  0  0  0  0  0  0  0  0
   -0.8000   -2.3070    2.5990 O   0  0  0  0  0  0  0  0  0  0  0  0
   -0.3250   -0.0400    2.2710 N   0  0  0  0  0  0  0  0  0  0  0  0
   -0.7360    1.1930    1.6490 C   0  0  0  0  0  0  0  0  0  0  0  0
    0.3710    2.1520    1.4850 C   0  0  0  0  0  0  0  0  0  0  0  0
    1.6890    1.4410    1.1670 C   0  0  0  0  0  0  0  0  0  0  0  0
    2.0340    0.5770    2.3300 C   0  0  0  0  0  0  0  0  0  0  0  0
    3.2950    0.5270    2.8460 C   0  0  0  0  0  0  0  0  0  0  0  0
    4.3980    1.1740    2.2450 N   0  0  0  0  0  0  0  0  0  0  0  0
    5.6650    1.4290    2.7620 C   0  0  0  0  0  0  0  0  0  0  0  0
    5.8820    1.0560    3.9620 O   0  0  0  0  0  0  0  0  0  0  0  0
    6.7570    2.0800    2.0390 C   0  0  0  0  0  0  0  0  0  0  0  0
    7.9600    2.3330    2.7350 C   0  0  0  0  0  0  0  0  0  0  0  0
    8.9780    2.9660    2.0850 C   0  0  0  0  0  0  0  0  0  0  0  0
    8.8650    3.3700    0.7530 C   0  0  0  0  0  0  0  0  0  0  0  0
    7.6890    3.1130    0.0960 C   0  0  0  0  0  0  0  0  0  0  0  0
    6.6290    2.4660    0.7340 C   0  0  0  0  0  0  0  0  0  0  0  0
    5.5920    2.3660   -0.2360 O   0  0  0  0  0  0  0  0  0  0  0  0
    6.3350    2.2580   -1.4510 C   0  0  1  0  0  0  0  0  0  0  0  0
    7.1770    0.9980   -1.4570 C   0  0  0  0  0  0  0  0  0  0  0  0
    7.2790    0.5880   -2.9030 C   0  0  0  0  0  0  0  0  0  0  0  0
    6.3470    1.4440   -3.6980 C   0  0  0  0  0  0  0  0  0  0  0  0
    5.5690    2.3100   -2.6980 C   0  0  0  0  0  0  0  0  0  0  0  0
    7.2250    3.3680   -1.2210 O   0  0  0  0  0  0  0  0  0  0  0  0
    3.4480   -0.2660    3.9570 C   0  0  0  0  0  0  0  0  0  0  0  0
    2.3850   -0.9750    4.5230 C   0  0  0  0  0  0  0  0  0  0  0  0
    1.1420   -0.9060    3.9830 C   0  0  0  0  0  0  0  0  0  0  0  0
    0.9530   -0.1270    2.8790 C   0  0  0  0  0  0  0  0  0  0  0  0
  1  2  1  0
  2  3  1  0
  3  4  1  6
  3  5  1  0
  5  6  1  6
  5 20  1  0
  6  7  1  0
  7  8  1  0
  8  9  2  0
  8 10  1  0
 10 11  2  0
 10 19  1  0
 11 12  1  0
 12 13  2  0
 13 14  1  0
 13 18  1  0
 14 15  2  0
 15 16  1  0
 16 17  2  0
 17 18  1  0
 18 19  2  0
 20 21  1  0
 21 22  2  0
 21 23  1  0
 23 24  1  0
 23 48  1  0
 24 25  1  0
 25 26  1  0
 26 27  1  0
 27 28  2  0
 27 48  1  0
 28 29  1  0
 28 45  1  0
 29 30  1  0
 30 31  2  0
 30 32  1  0
 32 33  2  0
 32 37  1  0
 33 34  1  0
 34 35  2  0
 35 36  1  0
 36 37  2  0
 36 44  1  0
 37 38  1  0
 38 39  1  0
 39 40  1  1
 39 43  1  0
 39 44  1  0
 40 41  1  0
 41 42  1  0
 42 43  1  0
 45 46  2  0
 46 47  1  0
 47 48  2  0
M  CHG  1   3   1
M  END
