
     RDKit          3D

 47 51  0  0  0  0  0  0  0  0999 V2000
    8.5930   -0.6460    1.8930 C   0  0  0  0  0  0  0  0  0  0  0  0
    7.1850   -0.3380    1.6400 C   0  0  0  0  0  0  0  0  0  0  0  0
    6.2400   -0.4010    2.6730 C   0  0  0  0  0  0  0  0  0  0  0  0
    4.9210   -0.1260    2.4840 C   0  0  0  0  0  0  0  0  0  0  0  0
    4.4530    0.2370    1.2220 C   0  0  0  0  0  0  0  0  0  0  0  0
    3.0050    0.5110    1.1410 C   0  0  0  0  0  0  0  0  0  0  0  0
    2.5380    1.0990   -0.0580 N   0  0  2  0  0  0  0  0  0  0  0  0
    1.5020    2.1230    0.1930 C   0  0  0  0  0  0  0  0  0  0  0  0
    0.4450    1.5620    1.0550 C   0  0  0  0  0  0  0  0  0  0  0  0
   -0.6450    0.7660    0.4350 C   0  0  2  0  0  0  0  0  0  0  0  0
   -0.2830   -0.6060   -0.0980 C   0  0  0  0  0  0  0  0  0  0  0  0
   -1.0780   -1.7300    0.0070 C   0  0  0  0  0  0  0  0  0  0  0  0
   -0.6320   -2.9460   -0.4710 C   0  0  0  0  0  0  0  0  0  0  0  0
    0.6200   -3.0280   -1.0620 C   0  0  0  0  0  0  0  0  0  0  0  0
    1.4550   -1.9570   -1.2020 C   0  0  0  0  0  0  0  0  0  0  0  0
    0.9870   -0.7410   -0.7130 C   0  0  0  0  0  0  0  0  0  0  0  0
    2.0420    0.2600   -1.0760 C   0  0  0  0  0  0  0  0  0  0  0  0
   -1.2660   -4.1780   -0.4600 O   0  0  0  0  0  0  0  0  0  0  0  0
   -1.8330   -5.0500    0.4220 C   0  0  0  0  0  0  0  0  0  0  0  0
   -3.2780   -5.4050    0.1360 C   0  0  1  0  0  0  0  0  0  0  0  0
   -3.6000   -6.6500    0.6650 O   0  0  0  0  0  0  0  0  0  0  0  0
   -4.1390   -4.3650    0.8050 C   0  0  0  0  0  0  0  0  0  0  0  0
   -5.1080   -3.7800   -0.0900 N   0  0  1  0  0  0  0  0  0  0  0  0
   -6.2570   -4.6880   -0.2110 C   0  0  0  0  0  0  0  0  0  0  0  0
   -5.6360   -2.5900    0.5620 C   0  0  0  0  0  0  0  0  0  0  0  0
   -6.3840   -1.6980   -0.3290 C   0  0  0  0  0  0  0  0  0  0  0  0
   -5.8970   -0.6750   -1.0170 C   0  0  0  0  0  0  0  0  0  0  0  0
   -4.4370   -0.2990   -0.9520 C   0  0  0  0  0  0  0  0  0  0  0  0
   -4.1760    0.8660   -1.6120 O   0  0  0  0  0  0  0  0  0  0  0  0
   -3.8360    1.9430   -0.8370 C   0  0  2  0  0  0  0  0  0  0  0  0
   -4.0480    3.2140   -1.6270 C   0  0  0  0  0  0  0  0  0  0  0  0
   -3.7030    4.4180   -0.8220 C   0  0  0  0  0  0  0  0  0  0  0  0
   -2.4670    5.0120   -0.8300 C   0  0  0  0  0  0  0  0  0  0  0  0
   -2.1390    6.1110   -0.0770 C   0  0  0  0  0  0  0  0  0  0  0  0
   -3.0940    6.6700    0.7470 C   0  0  0  0  0  0  0  0  0  0  0  0
   -2.7740    7.8020    1.5300 O   0  0  0  0  0  0  0  0  0  0  0  0
   -4.3420    6.1100    0.7860 C   0  0  0  0  0  0  0  0  0  0  0  0
   -4.6410    5.0130    0.0220 C   0  0  0  0  0  0  0  0  0  0  0  0
   -2.6310    1.8640   -0.0170 C   0  0  0  0  0  0  0  0  0  0  0  0
   -1.3520    1.5980   -0.5550 N   0  0  2  0  0  0  0  0  0  0  0  0
   -1.2710    1.0840   -1.8810 C   0  0  0  0  0  0  0  0  0  0  0  0
    5.3580    0.2980    0.2260 C   0  0  0  0  0  0  0  0  0  0  0  0
    6.7190    0.0220    0.3930 C   0  0  0  0  0  0  0  0  0  0  0  0
    7.6560    0.1080   -0.7460 C   0  0  1  0  0  0  0  0  0  0  0  0
    8.6990    1.1940   -0.5870 C   0  0  0  0  0  0  0  0  0  0  0  0
    8.2760   -1.2190   -1.1010 C   0  0  0  0  0  0  0  0  0  0  0  0
    6.8940    0.4900   -1.8780 O   0  0  0  0  0  0  0  0  0  0  0  0
  1  2  1  0
  2  3  2  0
  2 43  1  0
  3  4  1  0
  4  5  2  0
  5  6  1  0
  5 42  1  0
  7  6  1  1
  7  8  1  0
  7 17  1  0
  8  9  1  0
 10  9  1  6
 10 11  1  0
 10 40  1  0
 11 12  2  0
 11 16  1  0
 12 13  1  0
 13 14  2  0
 13 18  1  0
 14 15  1  0
 15 16  2  0
 16 17  1  0
 18 19  1  0
 19 20  1  0
 20 21  1  1
 20 22  1  0
 22 23  1  0
 23 24  1  1
 23 25  1  0
 25 26  1  0
 26 27  2  0
 27 28  1  0
 28 29  1  0
 29 30  1  0
 30 31  1  6
 30 39  1  0
 31 32  1  0
 32 33  2  0
 32 38  1  0
 33 34  1  0
 34 35  2  0
 35 36  1  0
 35 37  1  0
 37 38  2  0
 39 40  1  0
 40 41  1  6
 42 43  2  0
 43 44  1  0
 44 45  1  1
 44 46  1  0
 44 47  1  0
M  CHG  3   7   1  23   1  40   1
M  END
