
     RDKit          3D

 48 52  0  0  0  0  0  0  0  0999 V2000
   -7.8510    3.2160    4.0740 C   0  0  0  0  0  0  0  0  0  0  0  0
   -7.1260    2.5770    2.9480 C   0  0  0  0  0  0  0  0  0  0  0  0
   -7.8810    1.6930    2.1700 C   0  0  0  0  0  0  0  0  0  0  0  0
   -7.2630    1.0770    1.1160 C   0  0  0  0  0  0  0  0  0  0  0  0
   -5.9280    1.2800    0.7730 C   0  0  0  0  0  0  0  0  0  0  0  0
   -5.3600    0.6160   -0.3240 N   0  0  0  0  0  0  0  0  0  0  0  0
   -5.1640   -0.8090   -0.4930 C   0  0  0  0  0  0  0  0  0  0  0  0
   -5.4680   -1.6370    0.3930 O   0  0  0  0  0  0  0  0  0  0  0  0
   -4.5820   -1.0940   -1.7790 C   0  0  0  0  0  0  0  0  0  0  0  0
   -4.6210   -2.0590   -2.6410 C   0  0  0  0  0  0  0  0  0  0  0  0
   -5.2100   -3.3080   -2.8500 C   0  0  0  0  0  0  0  0  0  0  0  0
   -4.7520   -3.9020   -3.9780 O   0  0  0  0  0  0  0  0  0  0  0  0
   -6.1290   -4.0830   -2.2130 N   0  0  0  0  0  0  0  0  0  0  0  0
   -6.3770   -5.4670   -2.7620 C   0  0  0  0  0  0  0  0  0  0  0  0
   -6.9760   -3.7390   -1.1110 C   0  0  0  0  0  0  0  0  0  0  0  0
   -3.8130    0.2410   -2.0590 C   0  0  2  0  0  0  0  0  0  0  0  0
   -2.6070    0.1660   -1.2120 C   0  0  0  0  0  0  0  0  0  0  0  0
   -1.6940    1.3690   -1.2890 C   0  0  0  0  0  0  0  0  0  0  0  0
   -0.5150    1.0550   -0.3950 C   0  0  0  0  0  0  0  0  0  0  0  0
    0.4590    2.1460   -0.3160 C   0  0  0  0  0  0  0  0  0  0  0  0
    0.2240    3.2990   -0.7410 O   0  0  0  0  0  0  0  0  0  0  0  0
    1.7670    1.9280    0.2790 N   0  0  0  0  0  0  0  0  0  0  0  0
    2.6260    3.0490    0.3870 C   0  0  0  0  0  0  0  0  0  0  0  0
    4.0950    2.7580    0.4680 C   0  0  0  0  0  0  0  0  0  0  0  0
    4.3710    1.3030    0.4560 C   0  0  0  0  0  0  0  0  0  0  0  0
    5.4380    0.8400   -0.1460 C   0  0  0  0  0  0  0  0  0  0  0  0
    6.4430    1.6440   -0.8410 C   0  0  0  0  0  0  0  0  0  0  0  0
    6.8960    1.2800   -2.0890 C   0  0  0  0  0  0  0  0  0  0  0  0
    7.8620    1.9970   -2.7570 C   0  0  0  0  0  0  0  0  0  0  0  0
    8.3790    3.1070   -2.1500 C   0  0  0  0  0  0  0  0  0  0  0  0
    7.9730    3.5270   -0.9080 C   0  0  0  0  0  0  0  0  0  0  0  0
    8.5240    4.6920   -0.2990 N   0  0  0  0  0  0  0  0  0  0  0  0
    6.9990    2.7800   -0.2630 C   0  0  0  0  0  0  0  0  0  0  0  0
    3.4470    0.4100    1.1530 C   0  0  2  0  0  0  0  0  0  0  0  0
    3.4810    0.7840    2.5140 O   0  0  0  0  0  0  0  0  0  0  0  0
    3.8890   -1.0450    1.0730 C   0  0  0  0  0  0  0  0  0  0  0  0
    2.9310   -1.9660    1.7980 C   0  0  0  0  0  0  0  0  0  0  0  0
    3.4540   -3.3460    1.6410 C   0  0  0  0  0  0  0  0  0  0  0  0
    4.3430   -3.9330    2.5110 C   0  0  0  0  0  0  0  0  0  0  0  0
    4.8160   -5.2150    2.3540 C   0  0  0  0  0  0  0  0  0  0  0  0
    4.4040   -5.9660    1.2960 C   0  0  0  0  0  0  0  0  0  0  0  0
    3.5040   -5.3980    0.4000 C   0  0  0  0  0  0  0  0  0  0  0  0
    3.0400   -4.1140    0.5710 C   0  0  0  0  0  0  0  0  0  0  0  0
    2.0450    0.5840    0.6740 C   0  0  0  0  0  0  0  0  0  0  0  0
   -4.8590    1.1670   -1.5510 C   0  0  0  0  0  0  0  0  0  0  0  0
   -5.2240    2.2200   -2.0920 O   0  0  0  0  0  0  0  0  0  0  0  0
   -5.2390    2.1580    1.5730 C   0  0  0  0  0  0  0  0  0  0  0  0
   -5.8180    2.8000    2.6430 C   0  0  0  0  0  0  0  0  0  0  0  0
  1  2  1  0
  2  3  2  0
  2 48  1  0
  3  4  1  0
  4  5  2  0
  5  6  1  0
  5 47  1  0
  6  7  1  0
  6 45  1  0
  7  8  2  0
  7  9  1  0
  9 10  2  3
  9 16  1  0
 10 11  1  0
 11 12  2  0
 11 13  1  0
 13 14  1  0
 13 15  1  0
 16 17  1  1
 16 45  1  0
 17 18  1  0
 18 19  1  0
 19 20  1  0
 20 21  2  0
 20 22  1  0
 22 23  1  0
 22 44  1  0
 23 24  1  0
 24 25  1  0
 25 26  2  3
 25 34  1  0
 26 27  1  0
 27 28  2  0
 27 33  1  0
 28 29  1  0
 29 30  2  0
 30 31  1  0
 31 32  1  0
 31 33  2  0
 34 35  1  1
 34 36  1  0
 34 44  1  0
 36 37  1  0
 37 38  1  0
 38 39  2  0
 38 43  1  0
 39 40  1  0
 40 41  2  0
 41 42  1  0
 42 43  2  0
 45 46  2  0
 47 48  2  0
M  CHG  1  32   1
M  END
