
     RDKit          3D

 47 52  0  0  0  0  0  0  0  0999 V2000
   -6.1080    2.2530    3.3610 C   0  0  0  0  0  0  0  0  0  0  0  0
   -6.1480    2.5440    1.9030 C   0  0  0  0  0  0  0  0  0  0  0  0
   -7.2250    3.1410    1.2850 C   0  0  0  0  0  0  0  0  0  0  0  0
   -7.1930    3.3840   -0.0830 C   0  0  0  0  0  0  0  0  0  0  0  0
   -6.0600    3.0120   -0.7900 C   0  0  0  0  0  0  0  0  0  0  0  0
   -4.9600    2.4120   -0.2080 C   0  0  0  0  0  0  0  0  0  0  0  0
   -3.8100    2.0500   -1.0320 C   0  0  1  0  0  0  0  0  0  0  0  0
   -2.6010    2.8440   -0.6810 C   0  0  0  0  0  0  0  0  0  0  0  0
   -2.5190    3.3510    0.6900 C   0  0  0  0  0  0  0  0  0  0  0  0
   -3.3100    4.2930    1.0390 O   0  0  0  0  0  0  0  0  0  0  0  0
   -1.5970    2.8000    1.5580 O   0  0  0  0  0  0  0  0  0  0  0  0
   -0.2700    2.6210    1.1340 C   0  0  0  0  0  0  0  0  0  0  0  0
    0.3720    1.3730    1.5520 C   0  0  0  0  0  0  0  0  0  0  0  0
    0.4840    1.2880    2.8440 O   0  0  0  0  0  0  0  0  0  0  0  0
    0.8570    0.3150    0.7480 N   0  0  0  0  0  0  0  0  0  0  0  0
    2.2100   -0.1530    1.0470 C   0  0  0  0  0  0  0  0  0  0  0  0
    3.2330    0.5520    0.2660 C   0  0  0  0  0  0  0  0  0  0  0  0
    2.8200    1.5110   -0.6240 C   0  0  0  0  0  0  0  0  0  0  0  0
    3.7730    2.1770   -1.3560 C   0  0  0  0  0  0  0  0  0  0  0  0
    5.1240    1.8990   -1.2130 C   0  0  0  0  0  0  0  0  0  0  0  0
    5.5790    0.9450   -0.3330 C   0  0  0  0  0  0  0  0  0  0  0  0
    6.9370    0.6080   -0.1130 N   0  0  0  0  0  0  0  0  0  0  0  0
    8.0090    1.3930   -0.4900 C   0  0  0  0  0  0  0  0  0  0  0  0
    7.8660    2.4910   -1.0440 O   0  0  0  0  0  0  0  0  0  0  0  0
    9.3900    0.9920   -0.2720 N   0  0  0  0  0  0  0  0  0  0  0  0
   10.4710    1.8520   -0.6810 C   0  0  2  0  0  0  0  0  0  0  0  0
   11.5920    1.3070   -1.4940 C   0  0  0  0  0  0  0  0  0  0  0  0
   11.8290    1.7470   -0.0700 C   0  0  0  0  0  0  0  0  0  0  0  0
    4.5650    0.2900    0.3960 C   0  0  0  0  0  0  0  0  0  0  0  0
    0.1650   -0.3510   -0.3240 C   0  0  0  0  0  0  0  0  0  0  0  0
   -0.7530   -1.4670    0.0800 C   0  0  2  0  0  0  0  0  0  0  0  0
   -0.9040   -1.5350    1.5980 C   0  0  0  0  0  0  0  0  0  0  0  0
   -0.1860   -2.7980   -0.3460 C   0  0  0  0  0  0  0  0  0  0  0  0
   -1.0120   -3.9750   -0.0190 C   0  0  0  0  0  0  0  0  0  0  0  0
   -0.7950   -4.6900    1.1610 C   0  0  0  0  0  0  0  0  0  0  0  0
   -1.5370   -5.7700    1.5580 C   0  0  0  0  0  0  0  0  0  0  0  0
   -2.5690   -6.1980    0.7600 C   0  0  0  0  0  0  0  0  0  0  0  0
   -2.8170   -5.5200   -0.4140 C   0  0  0  0  0  0  0  0  0  0  0  0
   -2.0590   -4.4320   -0.8030 C   0  0  0  0  0  0  0  0  0  0  0  0
   -2.5740   -4.0150   -2.0100 O   0  0  0  0  0  0  0  0  0  0  0  0
   -3.6570   -4.7600   -2.4550 C   0  0  0  0  0  0  0  0  0  0  0  0
   -3.8850   -5.8060   -1.4180 C   0  0  0  0  0  0  0  0  0  0  0  0
   -2.0920   -1.2660   -0.5820 C   0  0  0  0  0  0  0  0  0  0  0  0
   -2.7330   -0.0230   -0.2010 N   0  0  0  0  0  0  0  0  0  0  0  0
   -3.5910    0.5620   -1.1640 C   0  0  2  0  0  0  0  0  0  0  0  0
   -3.2200    0.2220   -2.6010 C   0  0  0  0  0  0  0  0  0  0  0  0
   -5.0360    2.1900    1.1480 C   0  0  0  0  0  0  0  0  0  0  0  0
  1  2  1  0
  2  3  2  0
  2 47  1  0
  3  4  1  0
  4  5  2  0
  5  6  1  0
  7  6  1  1
  6 47  2  0
  7  8  1  0
  7 45  1  0
  8  9  1  0
  9 10  2  0
  9 11  1  0
 11 12  1  0
 12 13  1  0
 13 14  2  0
 13 15  1  0
 15 16  1  0
 15 30  1  0
 16 17  1  0
 17 18  2  0
 17 29  1  0
 18 19  1  0
 19 20  2  0
 20 21  1  0
 21 22  1  0
 21 29  2  0
 22 23  1  0
 23 24  2  0
 23 25  1  0
 26 25  1  1
 26 27  1  0
 26 28  1  0
 27 28  1  0
 30 31  1  0
 31 32  1  1
 31 33  1  0
 31 43  1  0
 33 34  1  0
 34 35  2  0
 34 39  1  0
 35 36  1  0
 36 37  2  0
 37 38  1  0
 38 39  2  0
 38 42  1  0
 39 40  1  0
 40 41  1  0
 41 42  1  0
 43 44  1  0
 44 45  1  0
 45 46  1  6
M  CHG  1  44   1
M  END
